AV-unprocessed.smi:2775|AV-procd|sdf|10701|dock9
  -GOLD-   2272015143D 1   1.00000     0.00000
 Structure written by MMmdl.
 43 46  0  0  0  0  0  0  0  0  2 V2000
  143.6499  133.0017  151.1711 C   0  0  0  0  0  0  0  0  0  0  0  0
  143.7715  134.3368  151.8800 C   0  0  0  0  0  0  0  0  0  0  0  0
  142.6298  134.9643  152.2385 N   0  3  0  0  0  0  0  0  0  0  0  0
  142.6135  136.1514  152.8791 C   0  0  0  0  0  0  0  0  0  0  0  0
  143.8247  136.7953  153.1982 C   0  0  0  0  0  0  0  0  0  0  0  0
  145.0532  136.1894  152.8311 C   0  0  0  0  0  0  0  0  0  0  0  0
  146.3263  136.7543  153.1194 N   0  0  0  0  0  0  0  0  0  0  0  0
  146.6691  137.6783  154.0374 C   0  0  0  0  0  0  0  0  0  0  0  0
  145.8899  138.2151  154.8213 O   0  0  0  0  0  0  0  0  0  0  0  0
  147.9765  137.9912  154.0293 N   0  0  0  0  0  0  0  0  0  0  0  0
  148.6651  138.9509  154.8938 C   0  0  1  0  0  0  0  0  0  0  0  0
  150.0950  139.2536  154.4079 C   0  0  2  0  0  0  0  0  0  0  0  0
  151.2722  138.8809  155.2679 C   0  0  0  0  0  0  0  0  0  0  0  0
  151.5974  140.1918  155.9892 C   0  0  0  0  0  0  0  0  0  0  0  0
  150.3867  140.9432  155.9359 O   0  0  0  0  0  0  0  0  0  0  0  0
  149.8061  140.7303  154.6527 C   0  0  2  0  0  0  0  0  0  0  0  0
  148.3021  140.4309  154.6457 C   0  0  0  0  0  0  0  0  0  0  0  0
  147.4322  140.8936  153.4612 C   0  0  0  0  0  0  0  0  0  0  0  0
  146.2980  141.1710  154.4516 C   0  0  0  0  0  0  0  0  0  0  0  0
  147.3401  141.1861  155.5737 C   0  0  0  0  0  0  0  0  0  0  0  0
  145.0198  134.9347  152.1730 C   0  0  0  0  0  0  0  0  0  0  0  0
  146.4909  134.1375  151.7248 Cl  0  0  0  0  0  0  0  0  0  0  0  0
  144.0974  133.0578  150.1784 H   0  0  0  0  0  0  0  0  0  0  0  0
  142.6066  132.7050  151.0560 H   0  0  0  0  0  0  0  0  0  0  0  0
  144.1623  132.2231  151.7366 H   0  0  0  0  0  0  0  0  0  0  0  0
  141.6375  136.5464  153.1211 H   0  0  0  0  0  0  0  0  0  0  0  0
  143.7828  137.7344  153.7273 H   0  0  0  0  0  0  0  0  0  0  0  0
  147.0732  136.4558  152.5085 H   0  0  0  0  0  0  0  0  0  0  0  0
  148.5571  137.5012  153.3637 H   0  0  0  0  0  0  0  0  0  0  0  0
  148.6524  138.6968  155.9559 H   0  0  0  0  0  0  0  0  0  0  0  0
  150.2274  139.0493  153.3436 H   0  0  0  0  0  0  0  0  0  0  0  0
  151.0023  138.1018  155.9817 H   0  0  0  0  0  0  0  0  0  0  0  0
  152.1211  138.5216  154.6857 H   0  0  0  0  0  0  0  0  0  0  0  0
  151.9288  140.0361  157.0161 H   0  0  0  0  0  0  0  0  0  0  0  0
  152.3780  140.7378  155.4574 H   0  0  0  0  0  0  0  0  0  0  0  0
  150.1765  141.3968  153.8727 H   0  0  0  0  0  0  0  0  0  0  0  0
  147.8084  141.8077  152.9995 H   0  0  0  0  0  0  0  0  0  0  0  0
  147.2035  140.1396  152.7081 H   0  0  0  0  0  0  0  0  0  0  0  0
  145.7831  142.1196  154.2971 H   0  0  0  0  0  0  0  0  0  0  0  0
  145.5959  140.3410  154.5353 H   0  0  0  0  0  0  0  0  0  0  0  0
  147.0476  140.6413  156.4716 H   0  0  0  0  0  0  0  0  0  0  0  0
  147.6887  142.1927  155.8096 H   0  0  0  0  0  0  0  0  0  0  0  0
  141.7392  134.5173  152.0193 H   0  0  0  0  0  0  0  0  0  0  0  0
  1  2  1  0  0  0  0
  1 23  1  0  0  0  0
  1 24  1  0  0  0  0
  1 25  1  0  0  0  0
  2 21  1  0  0  0  0
  2  3  2  0  0  0  0
  3  4  1  0  0  0  0
  3 43  1  0  0  0  0
  4  5  2  0  0  0  0
  4 26  1  0  0  0  0
  5  6  1  0  0  0  0
  5 27  1  0  0  0  0
  6  7  1  0  0  0  0
  6 21  2  0  0  0  0
  7  8  1  0  0  0  0
  7 28  1  0  0  0  0
  8  9  2  0  0  0  0
  8 10  1  0  0  0  0
 10 11  1  0  0  0  0
 10 29  1  0  0  0  0
 11 17  1  0  0  0  0
 11 12  1  0  0  0  0
 11 30  1  0  0  0  0
 12 16  1  0  0  0  0
 12 13  1  0  0  0  0
 12 31  1  0  0  0  0
 13 14  1  0  0  0  0
 13 32  1  0  0  0  0
 13 33  1  0  0  0  0
 14 15  1  0  0  0  0
 14 34  1  0  0  0  0
 14 35  1  0  0  0  0
 15 16  1  0  0  0  0
 16 17  1  0  0  0  0
 16 36  1  0  0  0  0
 17 20  1  0  0  0  0
 17 18  1  0  0  0  0
 18 19  1  0  0  0  0
 18 37  1  0  0  0  0
 18 38  1  0  0  0  0
 19 20  1  0  0  0  0
 19 39  1  0  0  0  0
 19 40  1  0  0  0  0
 20 41  1  0  0  0  0
 20 42  1  0  0  0  0
 21 22  1  0  0  0  0
M  CHG  1   3   1
M  END
> <s_m_source_file>
AV-unprocessed.smi

> <i_m_source_file_index>
2775

> <i_lp_mmshare_version>
43012

> <i_f3d_flags>
0

> <s_epik_input>
W0NIM11jMW5bY0hdW2NIXWMoYzFDbClbTkhdQyg9TylbTkhdW0NAQEhdMltDQEhdKFtDSDJdW0NIMl1PMylbQ0BASF0zQzI0W0NIMl1bQ0gyXVtDSDJdNA==

> <s_epik_cmdline>
J2VwaWtfcHl0aG9uJywgJy1waCcsICc3LjAnLCAnLXRuJywgJzgnLCAnLW1hJywgJzIwMCcsICctbWV0YWxfYmluZGluZycsICctaW1hZScsICc8aW5maWxlLm1hZT4nLCAnLW9tYWUnLCAnPG91dGZpbGUubWFlPic=

> <r_epik_Ionization_Penalty>
2.4104

> <r_epik_Ionization_Penalty_Charging>
2.41038

> <r_epik_Ionization_Penalty_Neutral>
1.9872e-05

> <r_epik_State_Penalty>
2.56896

> <r_epik_Charging_Adjusted_Penalty>
4.97934

> <i_epik_Tot_Q>
1

> <i_epik_Tot_abs_Q>
1

> <r_epik_Metal_State_Penalty>
2.57906

> <b_epik_Metal_Only>
0

> <s_lp_Force_Field>
OPLS_2005

> <r_lp_Energy>
60.4294

> <b_lp_Chiralities_Consistent>
1

> <s_lp_Variant>
AV-unprocessed.smi:2775-14

> <Gold.Version>
5.8.1

> <Gold.Id.Protein>
6NUR|6NUR_protein|mol2

> <Gold.PLP.Fitness>
38.0270

> <Gold.PLP.PLP>
-32.2222

> <Gold.PLP.part.hbond>
-2.3639

> <Gold.PLP.part.metal>
0.0000

> <Gold.PLP.part.buried>
-3.1849

> <Gold.PLP.part.nonpolar>
-28.1480

> <Gold.PLP.part.repulsive>
0.1246

> <Gold.PLP.ligand.clash>
0.0000

> <Gold.PLP.ligand.torsion>
0.1951

> <Gold.PLP.Chemscore.Hbond>
2.0000

> <Gold.PLP.Chemscore.CHOScore>
0.0000

> <Gold.PLP.Chemscore.Metal>
0.0000

> <Gold.Chemscore.Hbonds>
donor molecule, donor type, donor heavy atom, donor atom, acceptor molecule, acceptor atom, score
      L1  H     7    28       P1  7948  1.00
      L1  H    10    29       P1  7948  1.00

> <Gold.PLP.Chemscore.Internal.Correction>
0.1950

> <Gold.Rescore>
     Score         DG    S(hbond)    S(metal)    S(lipo)     H(rot)  DE(clash)    DE(int)     intcor
     17.68     -19.75       1.96        0.00      88.04       1.00       0.79       1.28       ----

> <Gold.Chemscore.Fitness>
17.6781

> <Gold.Chemscore.DG>
-19.7521

> <Gold.Chemscore.ZeroCoef>
-5.4800

> <Gold.Chemscore.Hbond>
1.9556

> <Gold.Chemscore.Metal>
0.0000

> <Gold.Chemscore.Lipo>
88.0382

> <Gold.Chemscore.Internal_Hbond>
0.0000

> <Gold.Chemscore.DEClash>
0.7939

> <Gold.Chemscore.DEInternal>
1.2801

> <Gold.Chemscore.Rot>
1.0000

> <Gold.Chemscore.Internal.Correction>
   9.000000E+99

> <Gold.Chemscore.Hbonds>
donor molecule, donor type, donor heavy atom, donor atom, acceptor molecule, acceptor atom, score
      L1  H     7    28       P1  7948  0.96
      L1  H    10    29       P1  7948  0.96

> <Gold.Chemscore.Hbond.Weighted>
-6.5316

> <Gold.Chemscore.Metal.Weighted>
-0.0000

> <Gold.Chemscore.Lipo.Weighted>
-10.3005

> <Gold.Chemscore.Internal_Hbond.Weighted>
0.0000

> <Gold.Chemscore.DEClash.Weighted>
0.7939

> <Gold.Chemscore.DEInternal.Weighted>
1.2801

> <Gold.Chemscore.Rot.Weighted>
2.5600

> <Gold.Chemscore.Internal.Correction.Weighted>
   9.000000E+99

> <Gold.Protein.RotatedTorsions>
[ 6907 6896 6895 6894 ] final  118.28 input  -60.11 | X-H torsion
[ 7974 7965 7964 7962 ] final  -62.19 input  175.53 | X-H torsion
[ 8008 7997 7996 7995 ] final  -78.21 input   59.86 | X-H torsion
[ 10167 10162 10161 10158 ] final -107.07 input  -65.29 | X-H torsion
[ 10718 10713 10712 10709 ] final  -49.11 input   66.30 | X-H torsion
[ 10763 10752 10751 10750 ] final -104.47 input  -60.55 | X-H torsion
[ 11005 11000 10999 10996 ] final  -12.63 input  -57.11 | X-H torsion

> <Gold.Protein.ActiveResidues>
 VAL166  LYS551  ARG553  GLY616  TRP617  ASP618  TYR619  PRO620  LYS621  CYS622 
 ASP623  PHE694  ASN695  SER759  ASP760  ASP761  ALA762  ILE779  LEU786  VAL792 
 PHE793  MET794  SER795  GLU796  ALA797  LYS798  CYS799  TRP800  GLU811  SER814 

> <Gold.Protein.RotatedAtoms>
  152.4554  133.7712  159.6799 H   0  0  0  0  0  0  0  0  0  0  0  0  # atno 6907 bound_to 6896
  150.8479  133.7823  159.3042 H   0  0  0  0  0  0  0  0  0  0  0  0  # atno 6908 bound_to 6896
  151.5428  135.1071  159.9982 H   0  0  0  0  0  0  0  0  0  0  0  0  # atno 6909 bound_to 6896
  145.7943  140.8692  143.0264 H   0  0  0  0  0  0  0  0  0  0  0  0  # atno 7974 bound_to 7965
  154.5668  140.0698  156.8903 H   0  0  0  0  0  0  0  0  0  0  0  0  # atno 8008 bound_to 7997
  155.2709  140.3365  155.4247 H   0  0  0  0  0  0  0  0  0  0  0  0  # atno 8009 bound_to 7997
  156.2086  140.1750  156.7730 H   0  0  0  0  0  0  0  0  0  0  0  0  # atno 8010 bound_to 7997
  140.1809  143.3967  152.1282 H   0  0  0  0  0  0  0  0  0  0  0  0  # atno 10167 bound_to 10162
  156.1924  130.4153  149.9354 H   0  0  0  0  0  0  0  0  0  0  0  0  # atno 10718 bound_to 10713
  154.7880  135.4785  153.9989 H   0  0  0  0  0  0  0  0  0  0  0  0  # atno 10763 bound_to 10752
  153.1588  135.6805  153.8779 H   0  0  0  0  0  0  0  0  0  0  0  0  # atno 10764 bound_to 10752
  153.8400  135.3180  155.3403 H   0  0  0  0  0  0  0  0  0  0  0  0  # atno 10765 bound_to 10752
  140.7677  133.8463  155.9180 H   0  0  0  0  0  0  0  0  0  0  0  0  # atno 11005 bound_to 11000
  144.6777  140.0168  143.7484 LP  0  0  0  0  0  0  0  0  0  0  0  0  # atno 17320 bound_to 7965
  145.9944  139.3041  143.0965 LP  0  0  0  0  0  0  0  0  0  0  0  0  # atno 17321 bound_to 7965
  139.5296  144.7144  151.5102 LP  0  0  0  0  0  0  0  0  0  0  0  0  # atno 17342 bound_to 10162
  140.6520  143.8677  150.6795 LP  0  0  0  0  0  0  0  0  0  0  0  0  # atno 17343 bound_to 10162
  156.7090  130.8962  151.3607 LP  0  0  0  0  0  0  0  0  0  0  0  0  # atno 17370 bound_to 10713
  157.6937  130.9259  150.0584 LP  0  0  0  0  0  0  0  0  0  0  0  0  # atno 17371 bound_to 10713
  140.9603  134.1664  157.4659 LP  0  0  0  0  0  0  0  0  0  0  0  0  # atno 17394 bound_to 11000
  139.8760  134.9942  156.5683 LP  0  0  0  0  0  0  0  0  0  0  0  0  # atno 17395 bound_to 11000

$$$$
