AV-unprocessed.smi:1414|AV-procd|sdf|5762|dock4
  -GOLD-   22720 5403D 1   1.00000     0.00000
 Structure written by MMmdl.
 45 46  0  0  0  0  0  0  0  0  1 V2000
  153.6506  139.3866  159.0350 C   0  0  0  0  0  0  0  0  0  0  0  0
  153.0319  138.6953  157.8150 C   0  0  1  0  0  0  0  0  0  0  0  0
  151.7464  137.9365  158.1773 C   0  0  0  0  0  0  0  0  0  0  0  0
  151.0920  137.3999  156.9756 N   0  0  0  0  0  0  0  0  0  0  0  0
  150.8111  135.6956  156.7958 S   0  0  0  0  0  0  0  0  0  0  0  0
  152.1267  135.0381  156.8215 O   0  0  0  0  0  0  0  0  0  0  0  0
  149.7787  135.3054  157.7689 O   0  0  0  0  0  0  0  0  0  0  0  0
  150.1318  135.5353  155.0836 C   0  0  0  0  0  0  0  0  0  0  0  0
  149.0953  134.4035  154.9726 C   0  0  0  0  0  0  0  0  0  0  0  0
  148.3642  134.4510  153.7108 N   0  0  0  0  0  0  0  0  0  0  0  0
  147.3306  133.6678  153.3727 C   0  0  0  0  0  0  0  0  0  0  0  0
  146.8595  132.8044  154.1111 O   0  0  0  0  0  0  0  0  0  0  0  0
  146.9039  133.9377  152.1274 N   0  0  0  0  0  0  0  0  0  0  0  0
  145.8164  133.3505  151.4272 C   0  0  0  0  0  0  0  0  0  0  0  0
  145.4062  132.0541  151.8002 C   0  0  0  0  0  0  0  0  0  0  0  0
  144.3443  131.4448  151.1051 C   0  0  0  0  0  0  0  0  0  0  0  0
  143.7382  132.1558  150.0512 C   0  0  0  0  0  0  0  0  0  0  0  0
  144.1289  133.3904  149.6707 N   0  0  0  0  0  0  0  0  0  0  0  0
  145.1461  133.9704  150.3435 C   0  0  0  0  0  0  0  0  0  0  0  0
  150.9557  138.3288  155.8397 C   0  0  0  0  0  0  0  0  0  0  0  0
  152.2129  139.1979  155.6195 C   0  0  2  0  0  0  0  0  0  0  0  0
  153.3026  138.5145  154.7799 C   0  0  0  0  0  0  0  0  0  0  0  0
  152.7300  139.6968  156.8509 O   0  0  0  0  0  0  0  0  0  0  0  0
  153.9085  138.6620  159.8076 H   0  0  0  0  0  0  0  0  0  0  0  0
  152.9619  140.1106  159.4716 H   0  0  0  0  0  0  0  0  0  0  0  0
  154.5622  139.9177  158.7603 H   0  0  0  0  0  0  0  0  0  0  0  0
  153.7710  137.9996  157.4185 H   0  0  0  0  0  0  0  0  0  0  0  0
  151.9720  137.1315  158.8765 H   0  0  0  0  0  0  0  0  0  0  0  0
  151.0452  138.6038  158.6795 H   0  0  0  0  0  0  0  0  0  0  0  0
  149.7303  136.4979  154.7687 H   0  0  0  0  0  0  0  0  0  0  0  0
  150.9761  135.3134  154.4307 H   0  0  0  0  0  0  0  0  0  0  0  0
  149.5976  133.4370  155.0079 H   0  0  0  0  0  0  0  0  0  0  0  0
  148.4041  134.4245  155.8153 H   0  0  0  0  0  0  0  0  0  0  0  0
  148.6812  135.1297  153.0338 H   0  0  0  0  0  0  0  0  0  0  0  0
  147.4513  134.6032  151.6016 H   0  0  0  0  0  0  0  0  0  0  0  0
  145.8936  131.5329  152.6113 H   0  0  0  0  0  0  0  0  0  0  0  0
  144.0028  130.4555  151.3719 H   0  0  0  0  0  0  0  0  0  0  0  0
  142.9219  131.7187  149.4955 H   0  0  0  0  0  0  0  0  0  0  0  0
  145.4325  134.9442  149.9779 H   0  0  0  0  0  0  0  0  0  0  0  0
  150.7019  137.7883  154.9280 H   0  0  0  0  0  0  0  0  0  0  0  0
  150.1086  138.9809  156.0534 H   0  0  0  0  0  0  0  0  0  0  0  0
  151.9016  140.0756  155.0523 H   0  0  0  0  0  0  0  0  0  0  0  0
  152.9252  138.2469  153.7928 H   0  0  0  0  0  0  0  0  0  0  0  0
  153.6603  137.6025  155.2489 H   0  0  0  0  0  0  0  0  0  0  0  0
  154.1582  139.1747  154.6384 H   0  0  0  0  0  0  0  0  0  0  0  0
  1  2  1  0  0  0  0
  1 24  1  0  0  0  0
  1 25  1  0  0  0  0
  1 26  1  0  0  0  0
  2 23  1  0  0  0  0
  2  3  1  0  0  0  0
  2 27  1  0  0  0  0
  3  4  1  0  0  0  0
  3 28  1  0  0  0  0
  3 29  1  0  0  0  0
  4  5  1  0  0  0  0
  4 20  1  0  0  0  0
  5  6  2  0  0  0  0
  5  7  2  0  0  0  0
  5  8  1  0  0  0  0
  8  9  1  0  0  0  0
  8 30  1  0  0  0  0
  8 31  1  0  0  0  0
  9 10  1  0  0  0  0
  9 32  1  0  0  0  0
  9 33  1  0  0  0  0
 10 11  1  0  0  0  0
 10 34  1  0  0  0  0
 11 12  2  0  0  0  0
 11 13  1  0  0  0  0
 13 14  1  0  0  0  0
 13 35  1  0  0  0  0
 14 19  1  0  0  0  0
 14 15  2  0  0  0  0
 15 16  1  0  0  0  0
 15 36  1  0  0  0  0
 16 17  2  0  0  0  0
 16 37  1  0  0  0  0
 17 18  1  0  0  0  0
 17 38  1  0  0  0  0
 18 19  2  0  0  0  0
 19 39  1  0  0  0  0
 20 21  1  0  0  0  0
 20 40  1  0  0  0  0
 20 41  1  0  0  0  0
 21 22  1  0  0  0  0
 21 23  1  0  0  0  0
 21 42  1  0  0  0  0
 22 43  1  0  0  0  0
 22 44  1  0  0  0  0
 22 45  1  0  0  0  0
M  END
> <s_m_source_file>
AV-unprocessed.smi

> <i_m_source_file_index>
1414

> <i_lp_mmshare_version>
43012

> <i_f3d_flags>
0

> <s_epik_input>
W0NIM11bQ0BASF0xW0NIMl1OKFtDSDJdW0NASF0oTzEpW0NIM10pUyg9TykoPU8pW0NIMl1bQ0gyXVtOSF1DKD1PKVtOSF1jMltjSF1bY0hdW2NIXW5bY0hdMg==

> <s_epik_cmdline>
J2VwaWtfcHl0aG9uJywgJy1waCcsICc3LjAnLCAnLXRuJywgJzgnLCAnLW1hJywgJzIwMCcsICctbWV0YWxfYmluZGluZycsICctaW1hZScsICc8aW5maWxlLm1hZT4nLCAnLW9tYWUnLCAnPG91dGZpbGUubWFlPic=

> <r_epik_Ionization_Penalty>
0.00437531

> <r_epik_Ionization_Penalty_Charging>
0

> <r_epik_Ionization_Penalty_Neutral>
0.00437531

> <r_epik_State_Penalty>
0.00312896

> <r_epik_Charging_Adjusted_Penalty>
0.00312896

> <i_epik_Tot_Q>
0

> <i_epik_Tot_abs_Q>
0

> <r_epik_Metal_State_Penalty>
-0

> <b_epik_Metal_Only>
0

> <s_lp_Force_Field>
OPLS_2005

> <r_lp_Energy>
7.0755

> <b_lp_Chiralities_Consistent>
1

> <s_lp_Variant>
AV-unprocessed.smi:1414-3

> <Gold.Version>
5.8.1

> <Gold.Id.Protein>
6NUR|6NUR_protein|mol2

> <Gold.PLP.Fitness>
50.5534

> <Gold.PLP.PLP>
-33.9560

> <Gold.PLP.part.hbond>
-5.1586

> <Gold.PLP.part.metal>
0.0000

> <Gold.PLP.part.buried>
-3.3642

> <Gold.PLP.part.nonpolar>
-26.2179

> <Gold.PLP.part.repulsive>
0.3040

> <Gold.PLP.ligand.clash>
0.0000

> <Gold.PLP.ligand.torsion>
1.9070

> <Gold.PLP.Chemscore.Hbond>
4.5381

> <Gold.PLP.Chemscore.CHOScore>
1.5558

> <Gold.PLP.Chemscore.Metal>
0.0000

> <Gold.Chemscore.Hbonds>
donor molecule, donor type, donor heavy atom, donor atom, acceptor molecule, acceptor atom, score
      L1  H    10    34       P1  7948  1.00
      L1  H    13    35       P1  7948  0.56
      P1  H  6896  6908       L1     7  0.78
      P1  H  7997  8009       L1    23  0.85
      P1  H 10752 10763       L1     6  1.00
      L1  C    17    38       P1 10952  1.00
      L1  C    19    39       P1  7921  0.62

> <Gold.PLP.Chemscore.Internal.Correction>
2.1299

> <Gold.Rescore>
     Score         DG    S(hbond)    S(metal)    S(lipo)     H(rot)  DE(clash)    DE(int)     intcor
     19.14     -22.43       3.35        0.00      83.62       1.57       0.08       3.21       ----

> <Gold.Chemscore.Fitness>
19.1369

> <Gold.Chemscore.DG>
-22.4293

> <Gold.Chemscore.ZeroCoef>
-5.4800

> <Gold.Chemscore.Hbond>
3.3479

> <Gold.Chemscore.Metal>
0.0000

> <Gold.Chemscore.Lipo>
83.6166

> <Gold.Chemscore.Internal_Hbond>
0.0000

> <Gold.Chemscore.DEClash>
0.0815

> <Gold.Chemscore.DEInternal>
3.2110

> <Gold.Chemscore.Rot>
1.5687

> <Gold.Chemscore.Internal.Correction>
   9.000000E+99

> <Gold.Chemscore.Hbonds>
donor molecule, donor type, donor heavy atom, donor atom, acceptor molecule, acceptor atom, score
      L1  H    10    34       P1  7948  0.59
      L1  H    13    35       P1  7948  0.22
      P1  H  6896  6908       L1     7  0.56
      P1  H  7997  8009       L1    23  0.06
      P1  H 10752 10763       L1     6  0.88

> <Gold.Chemscore.Hbond.Weighted>
-11.1821

> <Gold.Chemscore.Metal.Weighted>
-0.0000

> <Gold.Chemscore.Lipo.Weighted>
-9.7831

> <Gold.Chemscore.Internal_Hbond.Weighted>
0.0000

> <Gold.Chemscore.DEClash.Weighted>
0.0815

> <Gold.Chemscore.DEInternal.Weighted>
3.2110

> <Gold.Chemscore.Rot.Weighted>
4.0160

> <Gold.Chemscore.Internal.Correction.Weighted>
   9.000000E+99

> <Gold.Protein.RotatedTorsions>
[ 6907 6896 6895 6894 ] final  157.49 input  -60.11 | X-H torsion
[ 7974 7965 7964 7962 ] final   76.79 input  175.53 | X-H torsion
[ 8008 7997 7996 7995 ] final -168.48 input   59.86 | X-H torsion
[ 10167 10162 10161 10158 ] final   13.21 input  -65.29 | X-H torsion
[ 10718 10713 10712 10709 ] final  -20.09 input   66.30 | X-H torsion
[ 10763 10752 10751 10750 ] final  109.28 input  -60.55 | X-H torsion
[ 11005 11000 10999 10996 ] final    7.15 input  -57.11 | X-H torsion

> <Gold.Protein.ActiveResidues>
 VAL166  LYS551  ARG553  GLY616  TRP617  ASP618  TYR619  PRO620  LYS621  CYS622 
 ASP623  PHE694  ASN695  SER759  ASP760  ASP761  ALA762  ILE779  LEU786  VAL792 
 PHE793  MET794  SER795  GLU796  ALA797  LYS798  CYS799  TRP800  GLU811  SER814 

> <Gold.Protein.RotatedAtoms>
  152.0143  133.3873  159.4232 H   0  0  0  0  0  0  0  0  0  0  0  0  # atno 6907 bound_to 6896
  150.6896  134.3695  159.4995 H   0  0  0  0  0  0  0  0  0  0  0  0  # atno 6908 bound_to 6896
  152.1461  134.9025  160.0601 H   0  0  0  0  0  0  0  0  0  0  0  0  # atno 6909 bound_to 6896
  145.6983  139.2574  143.1720 H   0  0  0  0  0  0  0  0  0  0  0  0  # atno 7974 bound_to 7965
  155.8920  140.1026  157.1412 H   0  0  0  0  0  0  0  0  0  0  0  0  # atno 8008 bound_to 7997
  154.4016  140.1309  156.4392 H   0  0  0  0  0  0  0  0  0  0  0  0  # atno 8009 bound_to 7997
  155.7523  140.3465  155.5158 H   0  0  0  0  0  0  0  0  0  0  0  0  # atno 8010 bound_to 7997
  140.6017  143.8590  150.6972 H   0  0  0  0  0  0  0  0  0  0  0  0  # atno 10167 bound_to 10162
  156.5366  130.4668  149.6520 H   0  0  0  0  0  0  0  0  0  0  0  0  # atno 10718 bound_to 10713
  153.4324  135.3785  155.2179 H   0  0  0  0  0  0  0  0  0  0  0  0  # atno 10763 bound_to 10752
  154.8750  135.3843  154.4251 H   0  0  0  0  0  0  0  0  0  0  0  0  # atno 10764 bound_to 10752
  153.4786  135.7088  153.6014 H   0  0  0  0  0  0  0  0  0  0  0  0  # atno 10765 bound_to 10752
  140.5515  134.0279  155.7938 H   0  0  0  0  0  0  0  0  0  0  0  0  # atno 11005 bound_to 11000
  146.0820  140.7753  142.9637 LP  0  0  0  0  0  0  0  0  0  0  0  0  # atno 17320 bound_to 7965
  144.6976  140.3504  143.7183 LP  0  0  0  0  0  0  0  0  0  0  0  0  # atno 17321 bound_to 7965
  140.2137  143.3863  152.1697 LP  0  0  0  0  0  0  0  0  0  0  0  0  # atno 17342 bound_to 10162
  139.5296  144.7143  151.5104 LP  0  0  0  0  0  0  0  0  0  0  0  0  # atno 17343 bound_to 10162
  156.3010  130.7177  151.2048 LP  0  0  0  0  0  0  0  0  0  0  0  0  # atno 17370 bound_to 10713
  157.7412  131.0506  150.5109 LP  0  0  0  0  0  0  0  0  0  0  0  0  # atno 17371 bound_to 10713
  141.1169  133.9526  157.2805 LP  0  0  0  0  0  0  0  0  0  0  0  0  # atno 17394 bound_to 11000
  139.9453  135.0185  156.8833 LP  0  0  0  0  0  0  0  0  0  0  0  0  # atno 17395 bound_to 11000

$$$$
