AV-unprocessed.smi:2900|AV-procd|sdf|11147|dock5
  -GOLD-   2272016 23D 1   1.00000     0.00000
 Structure written by MMmdl.
 35 36  0  0  0  0  0  0  0  0  1 V2000
  153.9126  139.4332  160.4371 O   0  0  0  0  0  0  0  0  0  0  0  0
  153.4264  140.5212  160.1298 C   0  0  0  0  0  0  0  0  0  0  0  0
  153.6596  141.7469  160.8897 C   0  0  0  0  0  0  0  0  0  0  0  0
  153.1148  142.9256  160.5205 C   0  0  0  0  0  0  0  0  0  0  0  0
  152.2705  142.9851  159.3389 C   0  0  0  0  0  0  0  0  0  0  0  0
  151.6180  144.2523  158.8433 C   0  0  0  0  0  0  0  0  0  0  0  0
  151.9118  145.2845  159.6343 F   0  0  0  0  0  0  0  0  0  0  0  0
  152.0384  144.5317  157.6092 F   0  0  0  0  0  0  0  0  0  0  0  0
  150.2933  144.1041  158.8152 F   0  0  0  0  0  0  0  0  0  0  0  0
  152.0570  141.9019  158.6638 N   0  0  0  0  0  0  0  0  0  0  0  0
  152.6209  140.6958  159.0415 N   0  0  0  0  0  0  0  0  0  0  0  0
  152.2890  139.5779  158.1499 C   0  0  0  0  0  0  0  0  0  0  0  0
  151.0432  139.8734  157.2849 C   0  0  2  0  0  0  0  0  0  0  0  0
  150.6091  138.6537  156.7148 O   0  0  0  0  0  0  0  0  0  0  0  0
  151.3672  140.8309  156.1257 C   0  0  0  0  0  0  0  0  0  0  0  0
  150.4345  140.6141  155.0749 O   0  0  0  0  0  0  0  0  0  0  0  0
  149.1548  141.1044  155.2246 C   0  0  0  0  0  0  0  0  0  0  0  0
  148.3959  141.2797  154.0488 C   0  0  0  0  0  0  0  0  0  0  0  0
  147.0786  141.7743  154.1076 C   0  0  0  0  0  0  0  0  0  0  0  0
  146.5042  142.0996  155.3502 C   0  0  0  0  0  0  0  0  0  0  0  0
  147.2497  141.9297  156.5315 C   0  0  0  0  0  0  0  0  0  0  0  0
  148.5675  141.4356  156.4725 C   0  0  0  0  0  0  0  0  0  0  0  0
  154.2861  141.7073  161.7688 H   0  0  0  0  0  0  0  0  0  0  0  0
  153.3022  143.8191  161.0972 H   0  0  0  0  0  0  0  0  0  0  0  0
  153.1496  139.3827  157.5075 H   0  0  0  0  0  0  0  0  0  0  0  0
  152.1504  138.6550  158.7168 H   0  0  0  0  0  0  0  0  0  0  0  0
  150.2478  140.3010  157.8967 H   0  0  0  0  0  0  0  0  0  0  0  0
  149.6726  138.6934  156.5962 H   0  0  0  0  0  0  0  0  0  0  0  0
  151.2598  141.8617  156.4673 H   0  0  0  0  0  0  0  0  0  0  0  0
  152.3962  140.6974  155.7861 H   0  0  0  0  0  0  0  0  0  0  0  0
  148.8286  141.0316  153.0909 H   0  0  0  0  0  0  0  0  0  0  0  0
  146.5096  141.9032  153.1988 H   0  0  0  0  0  0  0  0  0  0  0  0
  145.4939  142.4784  155.3974 H   0  0  0  0  0  0  0  0  0  0  0  0
  146.8100  142.1783  157.4861 H   0  0  0  0  0  0  0  0  0  0  0  0
  149.1064  141.3186  157.4002 H   0  0  0  0  0  0  0  0  0  0  0  0
  1  2  2  0  0  0  0
  2 11  1  0  0  0  0
  2  3  1  0  0  0  0
  3  4  2  0  0  0  0
  3 23  1  0  0  0  0
  4  5  1  0  0  0  0
  4 24  1  0  0  0  0
  5  6  1  0  0  0  0
  5 10  2  0  0  0  0
  6  7  1  0  0  0  0
  6  8  1  0  0  0  0
  6  9  1  0  0  0  0
 10 11  1  0  0  0  0
 11 12  1  0  0  0  0
 12 13  1  0  0  0  0
 12 25  1  0  0  0  0
 12 26  1  0  0  0  0
 13 14  1  0  0  0  0
 13 15  1  0  0  0  0
 13 27  1  0  0  0  0
 14 28  1  0  0  0  0
 15 16  1  0  0  0  0
 15 29  1  0  0  0  0
 15 30  1  0  0  0  0
 16 17  1  0  0  0  0
 17 22  1  0  0  0  0
 17 18  2  0  0  0  0
 18 19  1  0  0  0  0
 18 31  1  0  0  0  0
 19 20  2  0  0  0  0
 19 32  1  0  0  0  0
 20 21  1  0  0  0  0
 20 33  1  0  0  0  0
 21 22  2  0  0  0  0
 21 34  1  0  0  0  0
 22 35  1  0  0  0  0
M  END
> <s_m_source_file>
AV-unprocessed.smi

> <i_m_source_file_index>
2900

> <i_lp_mmshare_version>
43012

> <i_f3d_flags>
0

> <s_epik_input>
Tz1jMVtjSF1bY0hdYyhDKEYpKEYpRilubjFbQ0gyXVtDQEhdKFtPSF0pW0NIMl1PYzJbY0hdW2NIXVtjSF1bY0hdW2NIXTI=

> <s_epik_cmdline>
J2VwaWtfcHl0aG9uJywgJy1waCcsICc3LjAnLCAnLXRuJywgJzgnLCAnLW1hJywgJzIwMCcsICctbWV0YWxfYmluZGluZycsICctaW1hZScsICc8aW5maWxlLm1hZT4nLCAnLW9tYWUnLCAnPG91dGZpbGUubWFlPic=

> <r_lp_tautomer_probability>
1

> <r_epik_Ionization_Penalty>
1.22578e-07

> <r_epik_Ionization_Penalty_Charging>
5.40425e-09

> <r_epik_Ionization_Penalty_Neutral>
1.17174e-07

> <r_epik_State_Penalty>
-0

> <r_epik_Charging_Adjusted_Penalty>
5.40425e-09

> <i_epik_Tot_Q>
0

> <i_epik_Tot_abs_Q>
0

> <r_epik_Metal_State_Penalty>
-0

> <b_epik_Metal_Only>
0

> <s_lp_Force_Field>
OPLS_2005

> <r_lp_Energy>
34.5506

> <b_lp_Chiralities_Consistent>
1

> <s_lp_Variant>
AV-unprocessed.smi:2900-1

> <Gold.Version>
5.8.1

> <Gold.Id.Protein>
6NUR|6NUR_protein|mol2

> <Gold.PLP.Fitness>
52.1922

> <Gold.PLP.PLP>
-51.4574

> <Gold.PLP.part.hbond>
-1.0000

> <Gold.PLP.part.metal>
0.0000

> <Gold.PLP.part.buried>
-6.6705

> <Gold.PLP.part.nonpolar>
-44.0173

> <Gold.PLP.part.repulsive>
0.0823

> <Gold.PLP.ligand.clash>
0.0000

> <Gold.PLP.ligand.torsion>
0.9888

> <Gold.PLP.Chemscore.Hbond>
0.8800

> <Gold.PLP.Chemscore.CHOScore>
0.0000

> <Gold.PLP.Chemscore.Metal>
0.0000

> <Gold.Chemscore.Hbonds>
donor molecule, donor type, donor heavy atom, donor atom, acceptor molecule, acceptor atom, score
      P1  H  7989  7998       L1    16  0.93

> <Gold.PLP.Chemscore.Internal.Correction>
0.0723

> <Gold.Rescore>
     Score         DG    S(hbond)    S(metal)    S(lipo)     H(rot)  DE(clash)    DE(int)     intcor
      9.44     -11.90       0.52        0.00      97.68       2.63       0.04       2.42       ----

> <Gold.Chemscore.Fitness>
9.4359

> <Gold.Chemscore.DG>
-11.8984

> <Gold.Chemscore.ZeroCoef>
-5.4800

> <Gold.Chemscore.Hbond>
0.5187

> <Gold.Chemscore.Metal>
0.0000

> <Gold.Chemscore.Lipo>
97.6761

> <Gold.Chemscore.Internal_Hbond>
0.0000

> <Gold.Chemscore.DEClash>
0.0446

> <Gold.Chemscore.DEInternal>
2.4179

> <Gold.Chemscore.Rot>
2.6336

> <Gold.Chemscore.Internal.Correction>
   9.000000E+99

> <Gold.Chemscore.Hbonds>
donor molecule, donor type, donor heavy atom, donor atom, acceptor molecule, acceptor atom, score
      P1  H  7989  7998       L1    16  0.22

> <Gold.Chemscore.Hbond.Weighted>
-1.7323

> <Gold.Chemscore.Metal.Weighted>
-0.0000

> <Gold.Chemscore.Lipo.Weighted>
-11.4281

> <Gold.Chemscore.Internal_Hbond.Weighted>
0.0000

> <Gold.Chemscore.DEClash.Weighted>
0.0446

> <Gold.Chemscore.DEInternal.Weighted>
2.4179

> <Gold.Chemscore.Rot.Weighted>
6.7420

> <Gold.Chemscore.Internal.Correction.Weighted>
   9.000000E+99

> <Gold.Protein.RotatedTorsions>
[ 6907 6896 6895 6894 ] final   90.36 input  -60.11 | X-H torsion
[ 7974 7965 7964 7962 ] final   88.09 input  175.53 | X-H torsion
[ 8008 7997 7996 7995 ] final -106.02 input   59.86 | X-H torsion
[ 10167 10162 10161 10158 ] final  -85.35 input  -65.29 | X-H torsion
[ 10718 10713 10712 10709 ] final  106.78 input   66.30 | X-H torsion
[ 10763 10752 10751 10750 ] final -139.89 input  -60.55 | X-H torsion
[ 11005 11000 10999 10996 ] final -104.44 input  -57.11 | X-H torsion

> <Gold.Protein.ActiveResidues>
 VAL166  LYS551  ARG553  GLY616  TRP617  ASP618  TYR619  PRO620  LYS621  CYS622 
 ASP623  PHE694  ASN695  SER759  ASP760  ASP761  ALA762  ILE779  LEU786  VAL792 
 PHE793  MET794  SER795  GLU796  ALA797  LYS798  CYS799  TRP800  GLU811  SER814 

> <Gold.Protein.RotatedAtoms>
  152.5444  134.1823  159.8640 H   0  0  0  0  0  0  0  0  0  0  0  0  # atno 6907 bound_to 6896
  151.1824  133.4709  159.2601 H   0  0  0  0  0  0  0  0  0  0  0  0  # atno 6908 bound_to 6896
  151.1164  135.0067  159.8573 H   0  0  0  0  0  0  0  0  0  0  0  0  # atno 6909 bound_to 6896
  145.5504  139.2295  143.2516 H   0  0  0  0  0  0  0  0  0  0  0  0  # atno 7974 bound_to 7965
  154.9084  140.0410  157.1933 H   0  0  0  0  0  0  0  0  0  0  0  0  # atno 8008 bound_to 7997
  154.8373  140.2908  155.5661 H   0  0  0  0  0  0  0  0  0  0  0  0  # atno 8009 bound_to 7997
  156.2990  140.2489  156.3309 H   0  0  0  0  0  0  0  0  0  0  0  0  # atno 8010 bound_to 7997
  140.4046  143.2648  151.9098 H   0  0  0  0  0  0  0  0  0  0  0  0  # atno 10167 bound_to 10162
  157.6655  131.0858  150.6058 H   0  0  0  0  0  0  0  0  0  0  0  0  # atno 10718 bound_to 10713
  154.8596  135.3569  154.5619 H   0  0  0  0  0  0  0  0  0  0  0  0  # atno 10763 bound_to 10752
  153.6234  135.7005  153.5307 H   0  0  0  0  0  0  0  0  0  0  0  0  # atno 10764 bound_to 10752
  153.3110  135.4178  155.1295 H   0  0  0  0  0  0  0  0  0  0  0  0  # atno 10765 bound_to 10752
  141.1100  133.8723  157.1611 H   0  0  0  0  0  0  0  0  0  0  0  0  # atno 11005 bound_to 11000
  146.1921  140.6326  142.9141 LP  0  0  0  0  0  0  0  0  0  0  0  0  # atno 17320 bound_to 7965
  144.7532  140.5243  143.6787 LP  0  0  0  0  0  0  0  0  0  0  0  0  # atno 17321 bound_to 7965
  139.4784  144.5599  151.8255 LP  0  0  0  0  0  0  0  0  0  0  0  0  # atno 17342 bound_to 10162
  140.4704  144.1595  150.5917 LP  0  0  0  0  0  0  0  0  0  0  0  0  # atno 17343 bound_to 10162
  156.6359  130.4445  149.5770 LP  0  0  0  0  0  0  0  0  0  0  0  0  # atno 17370 bound_to 10713
  156.2246  130.6758  151.1403 LP  0  0  0  0  0  0  0  0  0  0  0  0  # atno 17371 bound_to 10713
  139.9989  135.0035  157.0146 LP  0  0  0  0  0  0  0  0  0  0  0  0  # atno 17394 bound_to 11000
  140.4800  134.1299  155.7215 LP  0  0  0  0  0  0  0  0  0  0  0  0  # atno 17395 bound_to 11000

$$$$
