AV-unprocessed.smi:463|AV-procd|sdf|2635|dock3
  -GOLD-   2262023 43D 1   1.00000     0.00000
 Structure written by MMmdl.
 43 45  0  0  0  0  0  0  0  0  2 V2000
  152.8778  143.6196  162.2582 C   0  0  0  0  0  0  0  0  0  0  0  0
  153.0458  142.4969  161.2550 C   0  0  0  0  0  0  0  0  0  0  0  0
  154.0678  141.5410  161.4182 C   0  0  0  0  0  0  0  0  0  0  0  0
  154.2144  140.5026  160.4800 C   0  0  0  0  0  0  0  0  0  0  0  0
  153.3429  140.4153  159.3772 C   0  0  0  0  0  0  0  0  0  0  0  0
  152.3115  141.3721  159.2014 C   0  0  0  0  0  0  0  0  0  0  0  0
  151.4170  141.3639  158.1525 O   0  0  0  0  0  0  0  0  0  0  0  0
  151.4267  140.2512  157.2701 C   0  0  0  0  0  0  0  0  0  0  0  0
  151.3819  140.7738  155.8297 C   0  0  0  0  0  0  0  0  0  0  0  0
  150.4180  140.0309  155.0072 N   0  0  0  0  0  0  0  0  0  0  0  0
  150.4633  138.7513  154.5363 C   0  0  0  0  0  0  0  0  0  0  0  0
  151.5571  137.7550  154.7468 C   0  0  0  0  0  0  0  0  0  0  0  0
  151.0578  136.5241  155.5150 C   0  0  0  0  0  0  0  0  0  0  0  0
  152.1323  135.9158  156.1981 O   0  0  0  0  0  0  0  0  0  0  0  0
  149.3251  138.5467  153.8147 N   0  3  0  0  0  0  0  0  0  0  0  0
  148.5385  139.6995  153.8360 C   0  0  0  0  0  0  0  0  0  0  0  0
  147.3032  139.9708  153.2555 C   0  0  0  0  0  0  0  0  0  0  0  0
  146.7691  141.2572  153.4772 C   0  0  0  0  0  0  0  0  0  0  0  0
  147.4573  142.2150  154.2502 C   0  0  0  0  0  0  0  0  0  0  0  0
  148.7098  141.9290  154.8326 C   0  0  0  0  0  0  0  0  0  0  0  0
  149.2323  140.6559  154.6058 C   0  0  0  0  0  0  0  0  0  0  0  0
  152.1749  142.4067  160.1502 C   0  0  0  0  0  0  0  0  0  0  0  0
  153.6166  143.5541  163.0577 H   0  0  0  0  0  0  0  0  0  0  0  0
  151.8853  143.5791  162.7078 H   0  0  0  0  0  0  0  0  0  0  0  0
  152.9937  144.5857  161.7664 H   0  0  0  0  0  0  0  0  0  0  0  0
  154.7415  141.5992  162.2606 H   0  0  0  0  0  0  0  0  0  0  0  0
  154.9980  139.7700  160.6070 H   0  0  0  0  0  0  0  0  0  0  0  0
  153.4870  139.6037  158.6806 H   0  0  0  0  0  0  0  0  0  0  0  0
  152.3336  139.6620  157.4174 H   0  0  0  0  0  0  0  0  0  0  0  0
  150.5659  139.6087  157.4618 H   0  0  0  0  0  0  0  0  0  0  0  0
  151.1358  141.8355  155.8016 H   0  0  0  0  0  0  0  0  0  0  0  0
  152.3630  140.6730  155.3646 H   0  0  0  0  0  0  0  0  0  0  0  0
  151.9627  137.4603  153.7783 H   0  0  0  0  0  0  0  0  0  0  0  0
  152.3704  138.2347  155.2927 H   0  0  0  0  0  0  0  0  0  0  0  0
  150.2937  136.8074  156.2395 H   0  0  0  0  0  0  0  0  0  0  0  0
  150.6107  135.7967  154.8368 H   0  0  0  0  0  0  0  0  0  0  0  0
  151.8557  135.0638  156.4999 H   0  0  0  0  0  0  0  0  0  0  0  0
  146.7734  139.2383  152.6641 H   0  0  0  0  0  0  0  0  0  0  0  0
  145.8120  141.5144  153.0468 H   0  0  0  0  0  0  0  0  0  0  0  0
  147.0155  143.1897  154.3999 H   0  0  0  0  0  0  0  0  0  0  0  0
  149.2275  142.6695  155.4244 H   0  0  0  0  0  0  0  0  0  0  0  0
  151.3924  143.1414  160.0260 H   0  0  0  0  0  0  0  0  0  0  0  0
  149.1039  137.6786  153.3440 H   0  0  0  0  0  0  0  0  0  0  0  0
  1  2  1  0  0  0  0
  1 23  1  0  0  0  0
  1 24  1  0  0  0  0
  1 25  1  0  0  0  0
  2 22  1  0  0  0  0
  2  3  2  0  0  0  0
  3  4  1  0  0  0  0
  3 26  1  0  0  0  0
  4  5  2  0  0  0  0
  4 27  1  0  0  0  0
  5  6  1  0  0  0  0
  5 28  1  0  0  0  0
  6  7  1  0  0  0  0
  6 22  2  0  0  0  0
  7  8  1  0  0  0  0
  8  9  1  0  0  0  0
  8 29  1  0  0  0  0
  8 30  1  0  0  0  0
  9 10  1  0  0  0  0
  9 31  1  0  0  0  0
  9 32  1  0  0  0  0
 10 21  1  0  0  0  0
 10 11  1  0  0  0  0
 11 12  1  0  0  0  0
 11 15  2  0  0  0  0
 12 13  1  0  0  0  0
 12 33  1  0  0  0  0
 12 34  1  0  0  0  0
 13 14  1  0  0  0  0
 13 35  1  0  0  0  0
 13 36  1  0  0  0  0
 14 37  1  0  0  0  0
 15 16  1  0  0  0  0
 15 43  1  0  0  0  0
 16 21  2  0  0  0  0
 16 17  1  0  0  0  0
 17 18  2  0  0  0  0
 17 38  1  0  0  0  0
 18 19  1  0  0  0  0
 18 39  1  0  0  0  0
 19 20  2  0  0  0  0
 19 40  1  0  0  0  0
 20 21  1  0  0  0  0
 20 41  1  0  0  0  0
 22 42  1  0  0  0  0
M  CHG  1  15   1
M  END
> <s_m_source_file>
AV-unprocessed.smi

> <i_m_source_file_index>
463

> <i_lp_mmshare_version>
43012

> <i_f3d_flags>
0

> <s_epik_input>
W0NIM11jMVtjSF1bY0hdW2NIXWMoW2NIXTEpT1tDSDJdW0NIMl1uKGMobjIpW0NIMl1bQ0gyXVtPSF0pYyhjMjMpW2NIXVtjSF1bY0hdW2NIXTM=

> <s_epik_cmdline>
J2VwaWtfcHl0aG9uJywgJy1waCcsICc3LjAnLCAnLXRuJywgJzgnLCAnLW1hJywgJzIwMCcsICctbWV0YWxfYmluZGluZycsICctaW1hZScsICc8aW5maWxlLm1hZT4nLCAnLW9tYWUnLCAnPG91dGZpbGUubWFlPic=

> <r_lp_tautomer_probability>
1

> <r_epik_Ionization_Penalty>
0.724134

> <r_epik_Ionization_Penalty_Charging>
0.724134

> <r_epik_Ionization_Penalty_Neutral>
5.89567e-08

> <r_epik_State_Penalty>
0.748825

> <r_epik_Charging_Adjusted_Penalty>
1.47296

> <i_epik_Tot_Q>
1

> <i_epik_Tot_abs_Q>
1

> <r_epik_Metal_State_Penalty>
4.64506

> <b_epik_Metal_Only>
0

> <s_lp_Force_Field>
OPLS_2005

> <r_lp_Energy>
21.9502

> <b_lp_Chiralities_Consistent>
1

> <s_lp_Variant>
AV-unprocessed.smi:463-2

> <Gold.Version>
5.8.1

> <Gold.Id.Protein>
6NUR|6NUR_protein|mol2

> <Gold.PLP.Fitness>
56.7858

> <Gold.PLP.PLP>
-49.6005

> <Gold.PLP.part.hbond>
-3.0000

> <Gold.PLP.part.metal>
0.0000

> <Gold.PLP.part.buried>
1.7148

> <Gold.PLP.part.nonpolar>
-47.9425

> <Gold.PLP.part.repulsive>
0.0555

> <Gold.PLP.ligand.clash>
0.0000

> <Gold.PLP.ligand.torsion>
0.9576

> <Gold.PLP.Chemscore.Hbond>
3.0000

> <Gold.PLP.Chemscore.CHOScore>
0.0000

> <Gold.PLP.Chemscore.Metal>
0.0000

> <Gold.Chemscore.Hbonds>
donor molecule, donor type, donor heavy atom, donor atom, acceptor molecule, acceptor atom, score
      L1  H    15    43       P1  7948  1.89
      P1  H 10752 10764       L1    14  0.85

> <Gold.PLP.Chemscore.Internal.Correction>
0.1006

> <Gold.Rescore>
     Score         DG    S(hbond)    S(metal)    S(lipo)     H(rot)  DE(clash)    DE(int)     intcor
     19.26     -21.23       1.83        0.00     134.02       2.36       0.92       1.06       ----

> <Gold.Chemscore.Fitness>
19.2557

> <Gold.Chemscore.DG>
-21.2293

> <Gold.Chemscore.ZeroCoef>
-5.4800

> <Gold.Chemscore.Hbond>
1.8331

> <Gold.Chemscore.Metal>
0.0000

> <Gold.Chemscore.Lipo>
134.0225

> <Gold.Chemscore.Internal_Hbond>
0.0000

> <Gold.Chemscore.DEClash>
0.9150

> <Gold.Chemscore.DEInternal>
1.0585

> <Gold.Chemscore.Rot>
2.3648

> <Gold.Chemscore.Internal.Correction>
   9.000000E+99

> <Gold.Chemscore.Hbonds>
donor molecule, donor type, donor heavy atom, donor atom, acceptor molecule, acceptor atom, score
      L1  H    15    43       P1  7948  0.89
      P1  H 10752 10764       L1    14  0.04

> <Gold.Chemscore.Hbond.Weighted>
-6.1226

> <Gold.Chemscore.Metal.Weighted>
-0.0000

> <Gold.Chemscore.Lipo.Weighted>
-15.6806

> <Gold.Chemscore.Internal_Hbond.Weighted>
0.0000

> <Gold.Chemscore.DEClash.Weighted>
0.9150

> <Gold.Chemscore.DEInternal.Weighted>
1.0585

> <Gold.Chemscore.Rot.Weighted>
6.0540

> <Gold.Chemscore.Internal.Correction.Weighted>
   9.000000E+99

> <Gold.Protein.RotatedTorsions>
[ 6907 6896 6895 6894 ] final   13.01 input  -60.11 | X-H torsion
[ 7974 7965 7964 7962 ] final   53.41 input  175.53 | X-H torsion
[ 8008 7997 7996 7995 ] final   95.85 input   59.86 | X-H torsion
[ 10167 10162 10161 10158 ] final  105.07 input  -65.29 | X-H torsion
[ 10718 10713 10712 10709 ] final  -31.13 input   66.30 | X-H torsion
[ 10763 10752 10751 10750 ] final  -44.27 input  -60.55 | X-H torsion
[ 11005 11000 10999 10996 ] final   13.81 input  -57.11 | X-H torsion

> <Gold.Protein.ActiveResidues>
 VAL166  LYS551  ARG553  GLY616  TRP617  ASP618  TYR619  PRO620  LYS621  CYS622 
 ASP623  PHE694  ASN695  SER759  ASP760  ASP761  ALA762  ILE779  LEU786  VAL792 
 PHE793  MET794  SER795  GLU796  ALA797  LYS798  CYS799  TRP800  GLU811  SER814 

> <Gold.Protein.RotatedAtoms>
  151.7795  135.0765  160.0371 H   0  0  0  0  0  0  0  0  0  0  0  0  # atno 6907 bound_to 6896
  152.3232  133.5872  159.5767 H   0  0  0  0  0  0  0  0  0  0  0  0  # atno 6908 bound_to 6896
  150.7381  133.9895  159.3644 H   0  0  0  0  0  0  0  0  0  0  0  0  # atno 6909 bound_to 6896
  145.9714  139.4153  143.0188 H   0  0  0  0  0  0  0  0  0  0  0  0  # atno 7974 bound_to 7965
  156.0733  140.3281  155.7603 H   0  0  0  0  0  0  0  0  0  0  0  0  # atno 8008 bound_to 7997
  155.5270  140.0590  157.2913 H   0  0  0  0  0  0  0  0  0  0  0  0  # atno 8009 bound_to 7997
  154.4542  140.1934  156.0446 H   0  0  0  0  0  0  0  0  0  0  0  0  # atno 8010 bound_to 7997
  139.7124  144.7075  151.1006 H   0  0  0  0  0  0  0  0  0  0  0  0  # atno 10167 bound_to 10162
  156.3911  130.4373  149.7394 H   0  0  0  0  0  0  0  0  0  0  0  0  # atno 10718 bound_to 10713
  154.0093  135.6683  153.4764 H   0  0  0  0  0  0  0  0  0  0  0  0  # atno 10763 bound_to 10752
  153.0628  135.5018  154.8127 H   0  0  0  0  0  0  0  0  0  0  0  0  # atno 10764 bound_to 10752
  154.7005  135.3078  154.9312 H   0  0  0  0  0  0  0  0  0  0  0  0  # atno 10765 bound_to 10752
  140.4765  134.0978  155.7742 H   0  0  0  0  0  0  0  0  0  0  0  0  # atno 11005 bound_to 11000
  145.7900  140.9818  143.1054 LP  0  0  0  0  0  0  0  0  0  0  0  0  # atno 17320 bound_to 7965
  144.6838  139.9671  143.7481 LP  0  0  0  0  0  0  0  0  0  0  0  0  # atno 17321 bound_to 7965
  140.7736  143.5275  150.9462 LP  0  0  0  0  0  0  0  0  0  0  0  0  # atno 17342 bound_to 10162
  139.8960  143.6894  152.3138 LP  0  0  0  0  0  0  0  0  0  0  0  0  # atno 17343 bound_to 10162
  156.4447  130.7878  151.2899 LP  0  0  0  0  0  0  0  0  0  0  0  0  # atno 17370 bound_to 10713
  157.7499  131.0114  150.3343 LP  0  0  0  0  0  0  0  0  0  0  0  0  # atno 17371 bound_to 10713
  141.1552  133.8896  157.1996 LP  0  0  0  0  0  0  0  0  0  0  0  0  # atno 17394 bound_to 11000
  139.9853  135.0084  156.9847 LP  0  0  0  0  0  0  0  0  0  0  0  0  # atno 17395 bound_to 11000

$$$$
