AV-unprocessed.smi:2911|AV-procd|sdf|11180|dock8
  -GOLD-   2272016 73D 1   1.00000     0.00000
 Structure written by MMmdl.
 41 42  0  0  0  0  0  0  0  0  1 V2000
  145.3443  145.2918  152.9440 C   0  0  0  0  0  0  0  0  0  0  0  0
  145.4451  144.4213  154.1498 C   0  0  0  0  0  0  0  0  0  0  0  0
  144.4681  144.3710  155.0472 N   0  0  0  0  0  0  0  0  0  0  0  0
  144.9486  143.4582  155.9972 O   0  0  0  0  0  0  0  0  0  0  0  0
  146.1574  143.0515  155.5402 C   0  0  0  0  0  0  0  0  0  0  0  0
  146.9556  142.0978  156.3640 C   0  0  0  0  0  0  0  0  0  0  0  0
  147.5542  142.7619  157.6141 C   0  0  0  0  0  0  0  0  0  0  0  0
  149.0123  142.7414  157.5858 N   0  0  0  0  0  0  0  0  0  0  0  0
  149.8122  143.1402  158.5895 C   0  0  0  0  0  0  0  0  0  0  0  0
  149.3660  143.6261  159.6290 O   0  0  0  0  0  0  0  0  0  0  0  0
  151.1348  143.0613  158.2937 N   0  0  0  0  0  0  0  0  0  0  0  0
  151.6962  141.8642  157.6423 C   0  0  0  0  0  0  0  0  0  0  0  0
  152.1878  140.8871  158.7279 C   0  0  0  0  0  0  0  0  0  0  0  0
  153.2206  141.5543  159.6614 C   0  0  2  0  0  0  0  0  0  0  0  0
  153.6224  140.6280  160.8173 C   0  0  0  0  0  0  0  0  0  0  0  0
  152.7091  142.9183  160.1746 C   0  0  0  0  0  0  0  0  0  0  0  0
  152.2015  143.7944  159.0104 C   0  0  2  0  0  0  0  0  0  0  0  0
  151.8337  145.2234  159.4632 C   0  0  0  0  0  0  0  0  0  0  0  0
  146.5257  143.6324  154.4008 N   0  0  0  0  0  0  0  0  0  0  0  0
  144.6725  146.1310  153.1277 H   0  0  0  0  0  0  0  0  0  0  0  0
  144.9615  144.7192  152.0992 H   0  0  0  0  0  0  0  0  0  0  0  0
  146.3240  145.6894  152.6775 H   0  0  0  0  0  0  0  0  0  0  0  0
  146.3111  141.2644  156.6463 H   0  0  0  0  0  0  0  0  0  0  0  0
  147.7500  141.6820  155.7429 H   0  0  0  0  0  0  0  0  0  0  0  0
  147.2317  143.8018  157.6719 H   0  0  0  0  0  0  0  0  0  0  0  0
  147.1900  142.2725  158.5191 H   0  0  0  0  0  0  0  0  0  0  0  0
  149.4481  142.3964  156.7430 H   0  0  0  0  0  0  0  0  0  0  0  0
  150.9865  141.3539  156.9904 H   0  0  0  0  0  0  0  0  0  0  0  0
  152.5246  142.1525  156.9937 H   0  0  0  0  0  0  0  0  0  0  0  0
  151.3351  140.5362  159.3111 H   0  0  0  0  0  0  0  0  0  0  0  0
  152.6242  140.0039  158.2600 H   0  0  0  0  0  0  0  0  0  0  0  0
  154.1169  141.7452  159.0695 H   0  0  0  0  0  0  0  0  0  0  0  0
  152.7687  140.3964  161.4547 H   0  0  0  0  0  0  0  0  0  0  0  0
  154.3885  141.0890  161.4413 H   0  0  0  0  0  0  0  0  0  0  0  0
  154.0245  139.6858  160.4437 H   0  0  0  0  0  0  0  0  0  0  0  0
  151.9058  142.7673  160.8975 H   0  0  0  0  0  0  0  0  0  0  0  0
  153.5097  143.4331  160.7072 H   0  0  0  0  0  0  0  0  0  0  0  0
  153.0258  143.9238  158.3069 H   0  0  0  0  0  0  0  0  0  0  0  0
  152.7264  145.7627  159.7813 H   0  0  0  0  0  0  0  0  0  0  0  0
  151.1467  145.2316  160.3089 H   0  0  0  0  0  0  0  0  0  0  0  0
  151.3827  145.7931  158.6503 H   0  0  0  0  0  0  0  0  0  0  0  0
  1  2  1  0  0  0  0
  1 20  1  0  0  0  0
  1 21  1  0  0  0  0
  1 22  1  0  0  0  0
  2 19  1  0  0  0  0
  2  3  2  0  0  0  0
  3  4  1  0  0  0  0
  4  5  1  0  0  0  0
  5  6  1  0  0  0  0
  5 19  2  0  0  0  0
  6  7  1  0  0  0  0
  6 23  1  0  0  0  0
  6 24  1  0  0  0  0
  7  8  1  0  0  0  0
  7 25  1  0  0  0  0
  7 26  1  0  0  0  0
  8  9  1  0  0  0  0
  8 27  1  0  0  0  0
  9 10  2  0  0  0  0
  9 11  1  0  0  0  0
 11 17  1  0  0  0  0
 11 12  1  0  0  0  0
 12 13  1  0  0  0  0
 12 28  1  0  0  0  0
 12 29  1  0  0  0  0
 13 14  1  0  0  0  0
 13 30  1  0  0  0  0
 13 31  1  0  0  0  0
 14 15  1  0  0  0  0
 14 16  1  0  0  0  0
 14 32  1  0  0  0  0
 15 33  1  0  0  0  0
 15 34  1  0  0  0  0
 15 35  1  0  0  0  0
 16 17  1  0  0  0  0
 16 36  1  0  0  0  0
 16 37  1  0  0  0  0
 17 18  1  0  0  0  0
 17 38  1  0  0  0  0
 18 39  1  0  0  0  0
 18 40  1  0  0  0  0
 18 41  1  0  0  0  0
M  END
> <s_m_source_file>
AV-unprocessed.smi

> <i_m_source_file_index>
2911

> <i_lp_mmshare_version>
43012

> <i_f3d_flags>
0

> <s_epik_input>
W0NIM11jMW5vYyhuMSlbQ0gyXVtDSDJdW05IXUMoPU8pTjJbQ0gyXVtDSDJdW0NAQEhdKFtDSDNdKVtDSDJdW0NASF0yW0NIM10=

> <s_epik_cmdline>
J2VwaWtfcHl0aG9uJywgJy1waCcsICc3LjAnLCAnLXRuJywgJzgnLCAnLW1hJywgJzIwMCcsICctbWV0YWxfYmluZGluZycsICctaW1hZScsICc8aW5maWxlLm1hZT4nLCAnLW9tYWUnLCAnPG91dGZpbGUubWFlPic=

> <r_lp_tautomer_probability>
1

> <r_epik_Ionization_Penalty>
6.61671e-05

> <r_epik_Ionization_Penalty_Charging>
0

> <r_epik_Ionization_Penalty_Neutral>
6.61671e-05

> <r_epik_State_Penalty>
-0

> <r_epik_Charging_Adjusted_Penalty>
0

> <i_epik_Tot_Q>
0

> <i_epik_Tot_abs_Q>
0

> <r_epik_Metal_State_Penalty>
-0

> <b_epik_Metal_Only>
0

> <s_lp_Force_Field>
OPLS_2005

> <r_lp_Energy>
29.3819

> <b_lp_Chiralities_Consistent>
1

> <s_lp_Variant>
AV-unprocessed.smi:2911-4

> <Gold.Version>
5.8.1

> <Gold.Id.Protein>
6NUR|6NUR_protein|mol2

> <Gold.PLP.Fitness>
38.6165

> <Gold.PLP.PLP>
-40.1559

> <Gold.PLP.part.hbond>
-1.9073

> <Gold.PLP.part.metal>
0.0000

> <Gold.PLP.part.buried>
-5.8254

> <Gold.PLP.part.nonpolar>
-33.0958

> <Gold.PLP.part.repulsive>
0.8363

> <Gold.PLP.ligand.clash>
0.0000

> <Gold.PLP.ligand.torsion>
0.9844

> <Gold.PLP.Chemscore.Hbond>
0.0000

> <Gold.PLP.Chemscore.CHOScore>
0.0000

> <Gold.PLP.Chemscore.Metal>
0.0000

> <Gold.Chemscore.Hbonds>
donor molecule, donor type, donor heavy atom, donor atom, acceptor molecule, acceptor atom, score
      P1  H  6933  6944       L1    10  0.08

> <Gold.PLP.Chemscore.Internal.Correction>
0.4294

> <Gold.Rescore>
     Score         DG    S(hbond)    S(metal)    S(lipo)     H(rot)  DE(clash)    DE(int)     intcor
      9.82     -11.80       0.03        0.00      88.26       1.61       0.04       1.94       ----

> <Gold.Chemscore.Fitness>
9.8231

> <Gold.Chemscore.DG>
-11.8020

> <Gold.Chemscore.ZeroCoef>
-5.4800

> <Gold.Chemscore.Hbond>
0.0342

> <Gold.Chemscore.Metal>
0.0000

> <Gold.Chemscore.Lipo>
88.2609

> <Gold.Chemscore.Internal_Hbond>
0.0000

> <Gold.Chemscore.DEClash>
0.0378

> <Gold.Chemscore.DEInternal>
1.9411

> <Gold.Chemscore.Rot>
1.6088

> <Gold.Chemscore.Internal.Correction>
   9.000000E+99

> <Gold.Chemscore.Hbonds>
donor molecule, donor type, donor heavy atom, donor atom, acceptor molecule, acceptor atom, score
      P1  H  6933  6944       L1    10  0.08
      P1  H  8022  8030       L1    19  0.01

> <Gold.Chemscore.Hbond.Weighted>
-0.1141

> <Gold.Chemscore.Metal.Weighted>
-0.0000

> <Gold.Chemscore.Lipo.Weighted>
-10.3265

> <Gold.Chemscore.Internal_Hbond.Weighted>
0.0000

> <Gold.Chemscore.DEClash.Weighted>
0.0378

> <Gold.Chemscore.DEInternal.Weighted>
1.9411

> <Gold.Chemscore.Rot.Weighted>
4.1186

> <Gold.Chemscore.Internal.Correction.Weighted>
   9.000000E+99

> <Gold.Protein.RotatedTorsions>
[ 6907 6896 6895 6894 ] final -166.89 input  -60.11 | X-H torsion
[ 7974 7965 7964 7962 ] final -112.66 input  175.53 | X-H torsion
[ 8008 7997 7996 7995 ] final  151.77 input   59.86 | X-H torsion
[ 10167 10162 10161 10158 ] final   93.87 input  -65.29 | X-H torsion
[ 10718 10713 10712 10709 ] final  123.05 input   66.30 | X-H torsion
[ 10763 10752 10751 10750 ] final  -66.00 input  -60.55 | X-H torsion
[ 11005 11000 10999 10996 ] final  -45.31 input  -57.11 | X-H torsion

> <Gold.Protein.ActiveResidues>
 VAL166  LYS551  ARG553  GLY616  TRP617  ASP618  TYR619  PRO620  LYS621  CYS622 
 ASP623  PHE694  ASN695  SER759  ASP760  ASP761  ALA762  ILE779  LEU786  VAL792 
 PHE793  MET794  SER795  GLU796  ALA797  LYS798  CYS799  TRP800  GLU811  SER814 

> <Gold.Protein.RotatedAtoms>
  151.4507  133.3618  159.2794 H   0  0  0  0  0  0  0  0  0  0  0  0  # atno 6907 bound_to 6896
  150.9093  134.8511  159.7425 H   0  0  0  0  0  0  0  0  0  0  0  0  # atno 6908 bound_to 6896
  152.4923  134.4435  159.9603 H   0  0  0  0  0  0  0  0  0  0  0  0  # atno 6909 bound_to 6896
  145.1413  140.8779  143.3700 H   0  0  0  0  0  0  0  0  0  0  0  0  # atno 7974 bound_to 7965
  156.2659  140.2039  156.6228 H   0  0  0  0  0  0  0  0  0  0  0  0  # atno 8008 bound_to 7997
  154.6743  140.0546  157.0223 H   0  0  0  0  0  0  0  0  0  0  0  0  # atno 8009 bound_to 7997
  155.1091  140.3213  155.4529 H   0  0  0  0  0  0  0  0  0  0  0  0  # atno 8010 bound_to 7997
  139.8139  144.6761  150.9605 H   0  0  0  0  0  0  0  0  0  0  0  0  # atno 10167 bound_to 10162
  157.5695  131.1084  150.8393 H   0  0  0  0  0  0  0  0  0  0  0  0  # atno 10718 bound_to 10713
  154.3533  135.6132  153.5653 H   0  0  0  0  0  0  0  0  0  0  0  0  # atno 10763 bound_to 10752
  152.9797  135.5797  154.4718 H   0  0  0  0  0  0  0  0  0  0  0  0  # atno 10764 bound_to 10752
  154.4443  135.2851  155.1803 H   0  0  0  0  0  0  0  0  0  0  0  0  # atno 10765 bound_to 10752
  141.0507  133.6744  156.2995 H   0  0  0  0  0  0  0  0  0  0  0  0  # atno 11005 bound_to 11000
  145.0529  139.3167  143.5919 LP  0  0  0  0  0  0  0  0  0  0  0  0  # atno 17320 bound_to 7965
  146.3505  139.9944  142.8682 LP  0  0  0  0  0  0  0  0  0  0  0  0  # atno 17321 bound_to 7965
  140.7816  143.4158  151.0919 LP  0  0  0  0  0  0  0  0  0  0  0  0  # atno 17342 bound_to 10162
  139.7823  143.8337  152.3139 LP  0  0  0  0  0  0  0  0  0  0  0  0  # atno 17343 bound_to 10162
  156.8868  130.5199  149.5288 LP  0  0  0  0  0  0  0  0  0  0  0  0  # atno 17370 bound_to 10713
  156.0741  130.5767  150.9441 LP  0  0  0  0  0  0  0  0  0  0  0  0  # atno 17371 bound_to 10713
  140.6060  134.5506  157.5526 LP  0  0  0  0  0  0  0  0  0  0  0  0  # atno 17394 bound_to 11000
  139.9348  134.7895  156.0832 LP  0  0  0  0  0  0  0  0  0  0  0  0  # atno 17395 bound_to 11000

$$$$
