AV-unprocessed.smi:3181|AV-procd|sdf|12149|dock5
  -GOLD-   2272017583D 1   1.00000     0.00000
 Structure written by MMmdl.
 42 43  0  0  0  0  0  0  0  0  2 V2000
  148.5740  131.8197  153.8701 C   0  0  0  0  0  0  0  0  0  0  0  0
  148.9801  133.1972  153.3192 C   0  0  2  0  0  0  0  0  0  0  0  0
  150.0458  133.9029  154.1813 C   0  0  0  0  0  0  0  0  0  0  0  0
  149.6924  133.9506  155.5881 N   0  0  0  0  0  0  0  0  0  0  0  0
  150.3028  133.4280  156.6529 C   0  0  0  0  0  0  0  0  0  0  0  0
  149.6851  133.6760  157.7990 N   0  0  0  0  0  0  0  0  0  0  0  0
  148.6307  134.4114  157.3358 C   0  0  0  0  0  0  0  0  0  0  0  0
  148.5887  134.6059  156.0174 N   0  0  0  0  0  0  0  0  0  0  0  0
  147.7860  134.0655  153.2060 N   0  3  0  0  0  0  0  0  0  0  0  0
  146.6182  133.4715  152.5177 C   0  0  1  0  0  0  0  0  0  0  0  0
  145.5294  134.5276  152.2392 C   0  0  0  0  0  0  0  0  0  0  0  0
  144.3428  133.9258  151.4697 C   0  0  0  0  0  0  0  0  0  0  0  0
  144.7978  133.2522  150.1596 C   0  0  2  0  0  0  0  0  0  0  0  0
  143.6060  132.7169  149.3491 C   0  0  0  0  0  0  0  0  0  0  0  0
  145.8946  132.1869  150.4163 C   0  0  2  0  0  0  0  0  0  0  0  0
  145.3801  130.8983  151.0899 C   0  0  0  0  0  0  0  0  0  0  0  0
  147.0687  132.8110  151.2000 C   0  0  0  0  0  0  0  0  0  0  0  0
  149.4188  131.1310  153.8896 H   0  0  0  0  0  0  0  0  0  0  0  0
  147.8006  131.3608  153.2538 H   0  0  0  0  0  0  0  0  0  0  0  0
  148.1861  131.8980  154.8862 H   0  0  0  0  0  0  0  0  0  0  0  0
  149.4087  133.0424  152.3277 H   0  0  0  0  0  0  0  0  0  0  0  0
  151.0015  133.3843  154.0938 H   0  0  0  0  0  0  0  0  0  0  0  0
  150.2109  134.9214  153.8253 H   0  0  0  0  0  0  0  0  0  0  0  0
  151.2151  132.8530  156.5885 H   0  0  0  0  0  0  0  0  0  0  0  0
  147.8711  134.8148  157.9894 H   0  0  0  0  0  0  0  0  0  0  0  0
  147.5064  134.3658  154.1290 H   0  0  0  0  0  0  0  0  0  0  0  0
  146.2104  132.6948  153.1660 H   0  0  0  0  0  0  0  0  0  0  0  0
  145.1671  134.9612  153.1716 H   0  0  0  0  0  0  0  0  0  0  0  0
  145.9533  135.3509  151.6623 H   0  0  0  0  0  0  0  0  0  0  0  0
  143.8216  133.2063  152.1018 H   0  0  0  0  0  0  0  0  0  0  0  0
  143.6212  134.7132  151.2491 H   0  0  0  0  0  0  0  0  0  0  0  0
  145.2555  134.0307  149.5469 H   0  0  0  0  0  0  0  0  0  0  0  0
  143.0230  131.9912  149.9163 H   0  0  0  0  0  0  0  0  0  0  0  0
  143.9394  132.2354  148.4294 H   0  0  0  0  0  0  0  0  0  0  0  0
  142.9317  133.5267  149.0691 H   0  0  0  0  0  0  0  0  0  0  0  0
  146.2886  131.8853  149.4446 H   0  0  0  0  0  0  0  0  0  0  0  0
  144.8963  131.0959  152.0459 H   0  0  0  0  0  0  0  0  0  0  0  0
  146.1994  130.2034  151.2752 H   0  0  0  0  0  0  0  0  0  0  0  0
  144.6611  130.3773  150.4581 H   0  0  0  0  0  0  0  0  0  0  0  0
  147.5549  133.5590  150.5717 H   0  0  0  0  0  0  0  0  0  0  0  0
  147.8252  132.0512  151.4010 H   0  0  0  0  0  0  0  0  0  0  0  0
  148.0618  134.8825  152.6800 H   0  0  0  0  0  0  0  0  0  0  0  0
  1  2  1  0  0  0  0
  1 18  1  0  0  0  0
  1 19  1  0  0  0  0
  1 20  1  0  0  0  0
  2  3  1  0  0  0  0
  2  9  1  0  0  0  0
  2 21  1  0  0  0  0
  3  4  1  0  0  0  0
  3 22  1  0  0  0  0
  3 23  1  0  0  0  0
  4  8  1  0  0  0  0
  4  5  1  0  0  0  0
  5  6  2  0  0  0  0
  5 24  1  0  0  0  0
  6  7  1  0  0  0  0
  7  8  2  0  0  0  0
  7 25  1  0  0  0  0
  9 10  1  0  0  0  0
  9 26  1  0  0  0  0
  9 42  1  0  0  0  0
 10 17  1  0  0  0  0
 10 11  1  0  0  0  0
 10 27  1  0  0  0  0
 11 12  1  0  0  0  0
 11 28  1  0  0  0  0
 11 29  1  0  0  0  0
 12 13  1  0  0  0  0
 12 30  1  0  0  0  0
 12 31  1  0  0  0  0
 13 14  1  0  0  0  0
 13 15  1  0  0  0  0
 13 32  1  0  0  0  0
 14 33  1  0  0  0  0
 14 34  1  0  0  0  0
 14 35  1  0  0  0  0
 15 16  1  0  0  0  0
 15 17  1  0  0  0  0
 15 36  1  0  0  0  0
 16 37  1  0  0  0  0
 16 38  1  0  0  0  0
 16 39  1  0  0  0  0
 17 40  1  0  0  0  0
 17 41  1  0  0  0  0
M  CHG  1   9   1
M  END
> <s_m_source_file>
AV-unprocessed.smi

> <i_m_source_file_index>
3181

> <i_lp_mmshare_version>
43012

> <i_f3d_flags>
0

> <s_epik_input>
bjFbY0hdbltjSF1uMVtDSDJdW0NAQEhdKFtDSDNdKVtOSF1bQ0BASF0yW0NIMl1bQ0gyXVtDQEBIXShbQ0gzXSlbQ0BASF0oW0NIM10pW0NIMl0y

> <s_epik_cmdline>
J2VwaWtfcHl0aG9uJywgJy1waCcsICc3LjAnLCAnLXRuJywgJzgnLCAnLW1hJywgJzIwMCcsICctbWV0YWxfYmluZGluZycsICctaW1hZScsICc8aW5maWxlLm1hZT4nLCAnLW9tYWUnLCAnPG91dGZpbGUubWFlPic=

> <r_lp_tautomer_probability>
1

> <r_epik_Ionization_Penalty>
0.000617007

> <r_epik_Ionization_Penalty_Charging>
0.000616215

> <r_epik_Ionization_Penalty_Neutral>
7.92544e-07

> <r_epik_State_Penalty>
0.000388807

> <r_epik_Charging_Adjusted_Penalty>
0.00100502

> <i_epik_Tot_Q>
1

> <i_epik_Tot_abs_Q>
1

> <r_epik_Metal_State_Penalty>
-0

> <b_epik_Metal_Only>
0

> <s_lp_Force_Field>
OPLS_2005

> <r_lp_Energy>
22.4909

> <b_lp_Chiralities_Consistent>
1

> <s_lp_Variant>
AV-unprocessed.smi:3181-15

> <Gold.Version>
5.8.1

> <Gold.Id.Protein>
6NUR|6NUR_protein|mol2

> <Gold.PLP.Fitness>
38.4989

> <Gold.PLP.PLP>
-29.7995

> <Gold.PLP.part.hbond>
-2.0000

> <Gold.PLP.part.metal>
0.0000

> <Gold.PLP.part.buried>
-1.1125

> <Gold.PLP.part.nonpolar>
-26.4944

> <Gold.PLP.part.repulsive>
0.0216

> <Gold.PLP.ligand.clash>
0.0000

> <Gold.PLP.ligand.torsion>
0.1586

> <Gold.PLP.Chemscore.Hbond>
3.0000

> <Gold.PLP.Chemscore.CHOScore>
0.0000

> <Gold.PLP.Chemscore.Metal>
0.0000

> <Gold.Chemscore.Hbonds>
donor molecule, donor type, donor heavy atom, donor atom, acceptor molecule, acceptor atom, score
      L1  H     9    42       P1  7948  2.00
      P1  H  6896  6909       L1     6  1.00

> <Gold.PLP.Chemscore.Internal.Correction>
0.0165

> <Gold.Rescore>
     Score         DG    S(hbond)    S(metal)    S(lipo)     H(rot)  DE(clash)    DE(int)     intcor
     15.25     -15.46       1.90        0.00      77.21       2.11       0.07       0.14       ----

> <Gold.Chemscore.Fitness>
15.2524

> <Gold.Chemscore.DG>
-15.4646

> <Gold.Chemscore.ZeroCoef>
-5.4800

> <Gold.Chemscore.Hbond>
1.9016

> <Gold.Chemscore.Metal>
0.0000

> <Gold.Chemscore.Lipo>
77.2094

> <Gold.Chemscore.Internal_Hbond>
0.0000

> <Gold.Chemscore.DEClash>
0.0739

> <Gold.Chemscore.DEInternal>
0.1383

> <Gold.Chemscore.Rot>
2.1095

> <Gold.Chemscore.Internal.Correction>
   9.000000E+99

> <Gold.Chemscore.Hbonds>
donor molecule, donor type, donor heavy atom, donor atom, acceptor molecule, acceptor atom, score
      L1  H     9    42       P1  7948  0.82
      P1  H  6896  6909       L1     6  0.96

> <Gold.Chemscore.Hbond.Weighted>
-6.3514

> <Gold.Chemscore.Metal.Weighted>
-0.0000

> <Gold.Chemscore.Lipo.Weighted>
-9.0335

> <Gold.Chemscore.Internal_Hbond.Weighted>
0.0000

> <Gold.Chemscore.DEClash.Weighted>
0.0739

> <Gold.Chemscore.DEInternal.Weighted>
0.1383

> <Gold.Chemscore.Rot.Weighted>
5.4003

> <Gold.Chemscore.Internal.Correction.Weighted>
   9.000000E+99

> <Gold.Protein.RotatedTorsions>
[ 6907 6896 6895 6894 ] final   18.10 input  -60.11 | X-H torsion
[ 7974 7965 7964 7962 ] final -133.13 input  175.53 | X-H torsion
[ 8008 7997 7996 7995 ] final   61.28 input   59.86 | X-H torsion
[ 10167 10162 10161 10158 ] final  100.26 input  -65.29 | X-H torsion
[ 10718 10713 10712 10709 ] final  163.82 input   66.30 | X-H torsion
[ 10763 10752 10751 10750 ] final -139.77 input  -60.55 | X-H torsion
[ 11005 11000 10999 10996 ] final  165.65 input  -57.11 | X-H torsion

> <Gold.Protein.ActiveResidues>
 VAL166  LYS551  ARG553  GLY616  TRP617  ASP618  TYR619  PRO620  LYS621  CYS622 
 ASP623  PHE694  ASN695  SER759  ASP760  ASP761  ALA762  ILE779  LEU786  VAL792 
 PHE793  MET794  SER795  GLU796  ALA797  LYS798  CYS799  TRP800  GLU811  SER814 

> <Gold.Protein.RotatedAtoms>
  151.8600  135.0527  160.0468 H   0  0  0  0  0  0  0  0  0  0  0  0  # atno 6907 bound_to 6896
  152.2670  133.5343  159.5424 H   0  0  0  0  0  0  0  0  0  0  0  0  # atno 6908 bound_to 6896
  150.7137  134.0667  159.3892 H   0  0  0  0  0  0  0  0  0  0  0  0  # atno 6909 bound_to 6896
  144.9221  140.7027  143.4958 H   0  0  0  0  0  0  0  0  0  0  0  0  # atno 7974 bound_to 7965
  155.5958  140.3493  155.4579 H   0  0  0  0  0  0  0  0  0  0  0  0  # atno 8008 bound_to 7997
  156.0266  140.1265  157.0326 H   0  0  0  0  0  0  0  0  0  0  0  0  # atno 8009 bound_to 7997
  154.4336  140.1051  156.6026 H   0  0  0  0  0  0  0  0  0  0  0  0  # atno 8010 bound_to 7997
  139.7543  144.6974  151.0386 H   0  0  0  0  0  0  0  0  0  0  0  0  # atno 10167 bound_to 10162
  157.1031  131.0448  151.2489 H   0  0  0  0  0  0  0  0  0  0  0  0  # atno 10718 bound_to 10713
  154.8599  135.3573  154.5600 H   0  0  0  0  0  0  0  0  0  0  0  0  # atno 10763 bound_to 10752
  153.6215  135.7006  153.5313 H   0  0  0  0  0  0  0  0  0  0  0  0  # atno 10764 bound_to 10752
  153.3125  135.4174  155.1308 H   0  0  0  0  0  0  0  0  0  0  0  0  # atno 10765 bound_to 10752
  140.2583  134.7922  157.3566 H   0  0  0  0  0  0  0  0  0  0  0  0  # atno 11005 bound_to 11000
  145.3278  139.1768  143.4553 LP  0  0  0  0  0  0  0  0  0  0  0  0  # atno 17320 bound_to 7965
  146.3209  140.3304  142.8640 LP  0  0  0  0  0  0  0  0  0  0  0  0  # atno 17321 bound_to 7965
  140.7801  143.4772  151.0067 LP  0  0  0  0  0  0  0  0  0  0  0  0  # atno 17342 bound_to 10162
  139.8459  143.7502  152.3179 LP  0  0  0  0  0  0  0  0  0  0  0  0  # atno 17343 bound_to 10162
  157.4624  130.7661  149.7248 LP  0  0  0  0  0  0  0  0  0  0  0  0  # atno 17370 bound_to 10713
  155.9869  130.3971  150.3192 LP  0  0  0  0  0  0  0  0  0  0  0  0  # atno 17371 bound_to 10713
  140.1489  134.4875  155.7975 LP  0  0  0  0  0  0  0  0  0  0  0  0  # atno 17394 bound_to 11000
  141.2193  133.6854  156.7344 LP  0  0  0  0  0  0  0  0  0  0  0  0  # atno 17395 bound_to 11000

$$$$
