AV-unprocessed.smi:1278|AV-procd|sdf|5348|dock1
  -GOLD-   22720 4483D 1   1.00000     0.00000
 Structure written by MMmdl.
 39 40  0  0  0  0  0  0  0  0  2 V2000
  149.2570  135.1744  154.4812 C   0  0  0  0  0  0  0  0  0  0  0  0
  149.5314  136.2636  155.5331 C   0  0  1  0  0  0  0  0  0  0  0  0
  151.0157  136.6683  155.6014 C   0  0  0  0  0  0  0  0  0  0  0  0
  151.4147  137.5301  154.3953 C   0  0  0  0  0  0  0  0  0  0  0  0
  150.4712  138.7333  154.2393 C   0  0  0  0  0  0  0  0  0  0  0  0
  149.0557  138.2941  154.1370 N   0  3  2  0  0  0  0  0  0  0  0  0
  148.1387  139.4198  153.8289 C   0  0  0  0  0  0  0  0  0  0  0  0
  146.8341  138.9457  153.1597 C   0  0  0  0  0  0  0  0  0  0  0  0
  147.0029  137.6479  152.5161 N   0  0  0  0  0  0  0  0  0  0  0  0
  145.9976  136.8355  152.1590 C   0  0  0  0  0  0  0  0  0  0  0  0
  144.8116  137.1049  152.3525 O   0  0  0  0  0  0  0  0  0  0  0  0
  146.4567  135.7137  151.5772 N   0  0  0  0  0  0  0  0  0  0  0  0
  145.7071  134.6194  151.0710 C   0  0  0  0  0  0  0  0  0  0  0  0
  144.3702  134.5573  151.0701 N   0  0  0  0  0  0  0  0  0  0  0  0
  143.9015  133.3652  150.5116 C   0  0  0  0  0  0  0  0  0  0  0  0
  144.9024  132.5252  150.0909 C   0  0  0  0  0  0  0  0  0  0  0  0
  146.4831  133.2010  150.3817 S   0  0  0  0  0  0  0  0  0  0  0  0
  148.6402  137.5062  155.3294 C   0  0  0  0  0  0  0  0  0  0  0  0
  149.4641  135.5223  153.4691 H   0  0  0  0  0  0  0  0  0  0  0  0
  148.2144  134.8567  154.5113 H   0  0  0  0  0  0  0  0  0  0  0  0
  149.8723  134.2925  154.6612 H   0  0  0  0  0  0  0  0  0  0  0  0
  149.2699  135.8291  156.4989 H   0  0  0  0  0  0  0  0  0  0  0  0
  151.1911  137.2357  156.5165 H   0  0  0  0  0  0  0  0  0  0  0  0
  151.6526  135.7851  155.6641 H   0  0  0  0  0  0  0  0  0  0  0  0
  152.4416  137.8775  154.5131 H   0  0  0  0  0  0  0  0  0  0  0  0
  151.3991  136.9296  153.4854 H   0  0  0  0  0  0  0  0  0  0  0  0
  150.5824  139.4144  155.0845 H   0  0  0  0  0  0  0  0  0  0  0  0
  150.7526  139.2895  153.3443 H   0  0  0  0  0  0  0  0  0  0  0  0
  147.9272  139.9861  154.7373 H   0  0  0  0  0  0  0  0  0  0  0  0
  148.6414  140.1085  153.1485 H   0  0  0  0  0  0  0  0  0  0  0  0
  146.0258  138.8948  153.8916 H   0  0  0  0  0  0  0  0  0  0  0  0
  146.5123  139.6480  152.3917 H   0  0  0  0  0  0  0  0  0  0  0  0
  147.9486  137.3525  152.3206 H   0  0  0  0  0  0  0  0  0  0  0  0
  147.4583  135.6329  151.4813 H   0  0  0  0  0  0  0  0  0  0  0  0
  142.8364  133.1964  150.4532 H   0  0  0  0  0  0  0  0  0  0  0  0
  144.8058  131.5536  149.6297 H   0  0  0  0  0  0  0  0  0  0  0  0
  147.6013  137.1906  155.2402 H   0  0  0  0  0  0  0  0  0  0  0  0
  148.6926  138.1456  156.2123 H   0  0  0  0  0  0  0  0  0  0  0  0
  149.0152  137.6708  153.3428 H   0  0  0  0  0  0  0  0  0  0  0  0
  1  2  1  0  0  0  0
  1 19  1  0  0  0  0
  1 20  1  0  0  0  0
  1 21  1  0  0  0  0
  2 18  1  0  0  0  0
  2  3  1  0  0  0  0
  2 22  1  0  0  0  0
  3  4  1  0  0  0  0
  3 23  1  0  0  0  0
  3 24  1  0  0  0  0
  4  5  1  0  0  0  0
  4 25  1  0  0  0  0
  4 26  1  0  0  0  0
  5  6  1  0  0  0  0
  5 27  1  0  0  0  0
  5 28  1  0  0  0  0
  6  7  1  0  0  0  0
  6 18  1  0  0  0  0
  6 39  1  0  0  0  0
  7  8  1  0  0  0  0
  7 29  1  0  0  0  0
  7 30  1  0  0  0  0
  8  9  1  0  0  0  0
  8 31  1  0  0  0  0
  8 32  1  0  0  0  0
  9 10  1  0  0  0  0
  9 33  1  0  0  0  0
 10 11  2  0  0  0  0
 10 12  1  0  0  0  0
 12 13  1  0  0  0  0
 12 34  1  0  0  0  0
 13 17  1  0  0  0  0
 13 14  2  0  0  0  0
 14 15  1  0  0  0  0
 15 16  2  0  0  0  0
 15 35  1  0  0  0  0
 16 17  1  0  0  0  0
 16 36  1  0  0  0  0
 18 37  1  0  0  0  0
 18 38  1  0  0  0  0
M  CHG  1   6   1
M  END
> <s_m_source_file>
AV-unprocessed.smi

> <i_m_source_file_index>
1278

> <i_lp_mmshare_version>
43012

> <i_f3d_flags>
0

> <s_epik_input>
W0NIM11bQ0BASF0xW0NIMl1bQ0gyXVtDSDJdTihbQ0gyXTEpW0NIMl1bQ0gyXVtOSF1DKD1PKVtOSF1jMm5bY0hdW2NIXXMy

> <s_epik_cmdline>
J2VwaWtfcHl0aG9uJywgJy1waCcsICc3LjAnLCAnLXRuJywgJzgnLCAnLW1hJywgJzIwMCcsICctbWV0YWxfYmluZGluZycsICctaW1hZScsICc8aW5maWxlLm1hZT4nLCAnLW9tYWUnLCAnPG91dGZpbGUubWFlPic=

> <r_lp_tautomer_probability>
0.999

> <r_epik_Ionization_Penalty>
0.00222194

> <r_epik_Ionization_Penalty_Charging>
0.00208169

> <r_epik_Ionization_Penalty_Neutral>
0.000140251

> <r_epik_State_Penalty>
0.00142585

> <r_epik_Charging_Adjusted_Penalty>
0.00350754

> <i_epik_Tot_Q>
1

> <i_epik_Tot_abs_Q>
1

> <r_epik_Metal_State_Penalty>
0.0570424

> <b_epik_Metal_Only>
0

> <s_lp_Force_Field>
OPLS_2005

> <r_lp_Energy>
16.7193

> <b_lp_Chiralities_Consistent>
1

> <s_lp_Variant>
AV-unprocessed.smi:1278-2

> <Gold.Version>
5.8.1

> <Gold.Id.Protein>
6NUR|6NUR_protein|mol2

> <Gold.PLP.Fitness>
40.5130

> <Gold.PLP.PLP>
-26.9678

> <Gold.PLP.part.hbond>
-2.7654

> <Gold.PLP.part.metal>
0.0000

> <Gold.PLP.part.buried>
-0.7173

> <Gold.PLP.part.nonpolar>
-23.9290

> <Gold.PLP.part.repulsive>
0.5297

> <Gold.PLP.ligand.clash>
0.0000

> <Gold.PLP.ligand.torsion>
0.5720

> <Gold.PLP.Chemscore.Hbond>
3.8770

> <Gold.PLP.Chemscore.CHOScore>
1.0000

> <Gold.PLP.Chemscore.Metal>
0.0000

> <Gold.Chemscore.Hbonds>
donor molecule, donor type, donor heavy atom, donor atom, acceptor molecule, acceptor atom, score
      L1  H     6    39       P1  7948  1.92
      L1  H     9    33       P1  7948  1.00
      L1  H    12    34       P1  7948  0.99
      L1  C    15    35       P1 10186  1.00

> <Gold.PLP.Chemscore.Internal.Correction>
0.0581

> <Gold.Rescore>
     Score         DG    S(hbond)    S(metal)    S(lipo)     H(rot)  DE(clash)    DE(int)     intcor
     15.16     -18.90       2.79        0.00      70.07       1.60       1.84       1.90       ----

> <Gold.Chemscore.Fitness>
15.1596

> <Gold.Chemscore.DG>
-18.8953

> <Gold.Chemscore.ZeroCoef>
-5.4800

> <Gold.Chemscore.Hbond>
2.7886

> <Gold.Chemscore.Metal>
0.0000

> <Gold.Chemscore.Lipo>
70.0664

> <Gold.Chemscore.Internal_Hbond>
0.0000

> <Gold.Chemscore.DEClash>
1.8374

> <Gold.Chemscore.DEInternal>
1.8983

> <Gold.Chemscore.Rot>
1.6001

> <Gold.Chemscore.Internal.Correction>
   9.000000E+99

> <Gold.Chemscore.Hbonds>
donor molecule, donor type, donor heavy atom, donor atom, acceptor molecule, acceptor atom, score
      L1  H     6    39       P1  7948  0.91
      L1  H     9    33       P1  7948  0.91
      L1  H    12    34       P1  7948  0.90

> <Gold.Chemscore.Hbond.Weighted>
-9.3138

> <Gold.Chemscore.Metal.Weighted>
-0.0000

> <Gold.Chemscore.Lipo.Weighted>
-8.1978

> <Gold.Chemscore.Internal_Hbond.Weighted>
0.0000

> <Gold.Chemscore.DEClash.Weighted>
1.8374

> <Gold.Chemscore.DEInternal.Weighted>
1.8983

> <Gold.Chemscore.Rot.Weighted>
4.0963

> <Gold.Chemscore.Internal.Correction.Weighted>
   9.000000E+99

> <Gold.Protein.RotatedTorsions>
[ 6907 6896 6895 6894 ] final   44.47 input  -60.11 | X-H torsion
[ 7974 7965 7964 7962 ] final  -97.40 input  175.53 | X-H torsion
[ 8008 7997 7996 7995 ] final  -47.20 input   59.86 | X-H torsion
[ 10167 10162 10161 10158 ] final -124.26 input  -65.29 | X-H torsion
[ 10718 10713 10712 10709 ] final -123.80 input   66.30 | X-H torsion
[ 10763 10752 10751 10750 ] final  163.35 input  -60.55 | X-H torsion
[ 11005 11000 10999 10996 ] final  110.64 input  -57.11 | X-H torsion

> <Gold.Protein.ActiveResidues>
 VAL166  LYS551  ARG553  GLY616  TRP617  ASP618  TYR619  PRO620  LYS621  CYS622 
 ASP623  PHE694  ASN695  SER759  ASP760  ASP761  ALA762  ILE779  LEU786  VAL792 
 PHE793  MET794  SER795  GLU796  ALA797  LYS798  CYS799  TRP800  GLU811  SER814 

> <Gold.Protein.RotatedAtoms>
  152.2328  134.8305  160.0470 H   0  0  0  0  0  0  0  0  0  0  0  0  # atno 6907 bound_to 6896
  151.9047  133.3541  159.3851 H   0  0  0  0  0  0  0  0  0  0  0  0  # atno 6908 bound_to 6896
  150.7031  134.4718  159.5473 H   0  0  0  0  0  0  0  0  0  0  0  0  # atno 6909 bound_to 6896
  145.3342  140.9447  143.2644 H   0  0  0  0  0  0  0  0  0  0  0  0  # atno 7974 bound_to 7965
  154.4014  140.1352  156.4137 H   0  0  0  0  0  0  0  0  0  0  0  0  # atno 8008 bound_to 7997
  155.7709  140.3484  155.5226 H   0  0  0  0  0  0  0  0  0  0  0  0  # atno 8009 bound_to 7997
  155.8767  140.0980  157.1503 H   0  0  0  0  0  0  0  0  0  0  0  0  # atno 8010 bound_to 7997
  139.9947  143.5603  152.2328 H   0  0  0  0  0  0  0  0  0  0  0  0  # atno 10167 bound_to 10162
  156.1533  130.6550  150.9944 H   0  0  0  0  0  0  0  0  0  0  0  0  # atno 10718 bound_to 10713
  154.2924  135.2760  155.2649 H   0  0  0  0  0  0  0  0  0  0  0  0  # atno 10763 bound_to 10752
  154.5122  135.5779  153.6617 H   0  0  0  0  0  0  0  0  0  0  0  0  # atno 10764 bound_to 10752
  152.9912  135.6184  154.3089 H   0  0  0  0  0  0  0  0  0  0  0  0  # atno 10765 bound_to 10752
  139.8886  134.9489  156.6310 H   0  0  0  0  0  0  0  0  0  0  0  0  # atno 11005 bound_to 11000
  144.8840  139.4864  143.6709 LP  0  0  0  0  0  0  0  0  0  0  0  0  # atno 17320 bound_to 7965
  146.3033  139.7498  142.9075 LP  0  0  0  0  0  0  0  0  0  0  0  0  # atno 17321 bound_to 7965
  139.6314  144.7644  151.2528 LP  0  0  0  0  0  0  0  0  0  0  0  0  # atno 17342 bound_to 10162
  140.7441  143.6472  150.8281 LP  0  0  0  0  0  0  0  0  0  0  0  0  # atno 17343 bound_to 10162
  157.6674  131.0869  150.7695 LP  0  0  0  0  0  0  0  0  0  0  0  0  # atno 17370 bound_to 10713
  156.7762  130.4844  149.5409 LP  0  0  0  0  0  0  0  0  0  0  0  0  # atno 17371 bound_to 10713
  140.7666  133.8773  155.8459 LP  0  0  0  0  0  0  0  0  0  0  0  0  # atno 17394 bound_to 11000
  140.9877  134.1321  157.4437 LP  0  0  0  0  0  0  0  0  0  0  0  0  # atno 17395 bound_to 11000

$$$$
