AV-unprocessed.smi:1099|AV-procd|sdf|4757|dock3
  -GOLD-   22720 3293D 1   1.00000     0.00000
 Structure written by MMmdl.
 41 43  0  0  0  0  0  0  0  0  1 V2000
  145.6695  142.3801  154.8984 C   0  0  0  0  0  0  0  0  0  0  0  0
  147.1139  142.3849  154.3870 C   0  0  0  0  0  0  0  0  0  0  0  0
  147.7033  141.0157  154.3215 C   0  0  0  0  0  0  0  0  0  0  0  0
  148.8733  140.6885  154.8769 N   0  0  0  0  0  0  0  0  0  0  0  0
  149.2230  139.3538  154.6493 C   0  0  0  0  0  0  0  0  0  0  0  0
  150.4995  138.8059  155.2118 C   0  0  0  0  0  0  0  0  0  0  0  0
  151.6315  139.8424  155.2038 C   0  0  0  0  0  0  0  0  0  0  0  0
  151.2188  141.0592  155.8900 N   0  0  0  0  0  0  0  0  0  0  0  0
  151.3269  141.2590  157.2114 C   0  0  0  0  0  0  0  0  0  0  0  0
  151.7883  140.4140  157.9795 O   0  0  0  0  0  0  0  0  0  0  0  0
  150.8685  142.6354  157.7265 C   0  0  2  0  0  0  0  0  0  0  0  0
  151.5697  143.8434  157.0571 C   0  0  0  0  0  0  0  0  0  0  0  0
  152.0874  144.6535  158.2607 C   0  0  2  0  0  0  0  0  0  0  0  0
  153.2879  143.9250  158.8929 C   0  0  0  0  0  0  0  0  0  0  0  0
  152.6220  142.7401  159.6161 C   0  0  0  0  0  0  0  0  0  0  0  0
  151.1342  142.8991  159.2325 C   0  0  1  0  0  0  0  0  0  0  0  0
  150.9907  144.4171  159.2930 C   0  0  0  0  0  0  0  0  0  0  0  0
  148.2981  138.6729  153.8976 C   0  0  0  0  0  0  0  0  0  0  0  0
  146.9555  139.6858  153.4446 S   0  0  0  0  0  0  0  0  0  0  0  0
  145.2690  143.3931  154.9392 H   0  0  0  0  0  0  0  0  0  0  0  0
  145.6087  141.9570  155.9017 H   0  0  0  0  0  0  0  0  0  0  0  0
  145.0234  141.7919  154.2461 H   0  0  0  0  0  0  0  0  0  0  0  0
  147.1564  142.8358  153.3948 H   0  0  0  0  0  0  0  0  0  0  0  0
  147.7355  143.0013  155.0370 H   0  0  0  0  0  0  0  0  0  0  0  0
  150.3330  138.4587  156.2324 H   0  0  0  0  0  0  0  0  0  0  0  0
  150.8071  137.9268  154.6438 H   0  0  0  0  0  0  0  0  0  0  0  0
  152.5196  139.4347  155.6892 H   0  0  0  0  0  0  0  0  0  0  0  0
  151.9071  140.0848  154.1761 H   0  0  0  0  0  0  0  0  0  0  0  0
  150.8341  141.8010  155.3234 H   0  0  0  0  0  0  0  0  0  0  0  0
  149.7955  142.7243  157.5445 H   0  0  0  0  0  0  0  0  0  0  0  0
  152.3746  143.5754  156.3717 H   0  0  0  0  0  0  0  0  0  0  0  0
  150.8458  144.4284  156.4886 H   0  0  0  0  0  0  0  0  0  0  0  0
  152.2859  145.7003  158.0288 H   0  0  0  0  0  0  0  0  0  0  0  0
  154.0125  143.6004  158.1451 H   0  0  0  0  0  0  0  0  0  0  0  0
  153.8063  144.5676  159.6056 H   0  0  0  0  0  0  0  0  0  0  0  0
  153.0515  141.7778  159.3407 H   0  0  0  0  0  0  0  0  0  0  0  0
  152.7445  142.8443  160.6951 H   0  0  0  0  0  0  0  0  0  0  0  0
  150.4540  142.3606  159.8932 H   0  0  0  0  0  0  0  0  0  0  0  0
  151.2211  144.8376  160.2737 H   0  0  0  0  0  0  0  0  0  0  0  0
  150.0102  144.7750  158.9734 H   0  0  0  0  0  0  0  0  0  0  0  0
  148.3263  137.6406  153.5821 H   0  0  0  0  0  0  0  0  0  0  0  0
  1  2  1  0  0  0  0
  1 20  1  0  0  0  0
  1 21  1  0  0  0  0
  1 22  1  0  0  0  0
  2  3  1  0  0  0  0
  2 23  1  0  0  0  0
  2 24  1  0  0  0  0
  3 19  1  0  0  0  0
  3  4  2  0  0  0  0
  4  5  1  0  0  0  0
  5  6  1  0  0  0  0
  5 18  2  0  0  0  0
  6  7  1  0  0  0  0
  6 25  1  0  0  0  0
  6 26  1  0  0  0  0
  7  8  1  0  0  0  0
  7 27  1  0  0  0  0
  7 28  1  0  0  0  0
  8  9  1  0  0  0  0
  8 29  1  0  0  0  0
  9 10  2  0  0  0  0
  9 11  1  0  0  0  0
 11 16  1  0  0  0  0
 11 12  1  0  0  0  0
 11 30  1  0  0  0  0
 12 13  1  0  0  0  0
 12 31  1  0  0  0  0
 12 32  1  0  0  0  0
 13 17  1  0  0  0  0
 13 14  1  0  0  0  0
 13 33  1  0  0  0  0
 14 15  1  0  0  0  0
 14 34  1  0  0  0  0
 14 35  1  0  0  0  0
 15 16  1  0  0  0  0
 15 36  1  0  0  0  0
 15 37  1  0  0  0  0
 16 17  1  0  0  0  0
 16 38  1  0  0  0  0
 17 39  1  0  0  0  0
 17 40  1  0  0  0  0
 18 19  1  0  0  0  0
 18 41  1  0  0  0  0
M  END
> <s_m_source_file>
AV-unprocessed.smi

> <i_m_source_file_index>
1099

> <i_lp_mmshare_version>
43012

> <i_f3d_flags>
0

> <s_epik_input>
W0NIM11bQ0gyXWMxbmMoW2NIXXMxKVtDSDJdW0NIMl1bTkhdQyg9TylbQ0BIXShbQ0gyXVtDQEBIXTIzKVtDQEBIXShbQ0gyXTMpW0NIMl1bQ0gyXTI=

> <s_epik_cmdline>
J2VwaWtfcHl0aG9uJywgJy1waCcsICc3LjAnLCAnLXRuJywgJzgnLCAnLW1hJywgJzIwMCcsICctbWV0YWxfYmluZGluZycsICctaW1hZScsICc8aW5maWxlLm1hZT4nLCAnLW9tYWUnLCAnPG91dGZpbGUubWFlPic=

> <r_epik_Ionization_Penalty>
0.00110131

> <r_epik_Ionization_Penalty_Charging>
0

> <r_epik_Ionization_Penalty_Neutral>
0.00110131

> <r_epik_State_Penalty>
0.00072257

> <r_epik_Charging_Adjusted_Penalty>
0.00072257

> <i_epik_Tot_Q>
0

> <i_epik_Tot_abs_Q>
0

> <r_epik_Metal_State_Penalty>
-0

> <b_epik_Metal_Only>
0

> <s_lp_Force_Field>
OPLS_2005

> <r_lp_Energy>
38.6178

> <b_lp_Chiralities_Consistent>
1

> <s_lp_Variant>
AV-unprocessed.smi:1099-3

> <Gold.Version>
5.8.1

> <Gold.Id.Protein>
6NUR|6NUR_protein|mol2

> <Gold.PLP.Fitness>
42.8614

> <Gold.PLP.PLP>
-41.0418

> <Gold.PLP.part.hbond>
0.0000

> <Gold.PLP.part.metal>
0.0000

> <Gold.PLP.part.buried>
-2.3656

> <Gold.PLP.part.nonpolar>
-38.6509

> <Gold.PLP.part.repulsive>
0.2707

> <Gold.PLP.ligand.clash>
0.0000

> <Gold.PLP.ligand.torsion>
0.6159

> <Gold.PLP.Chemscore.Hbond>
0.0000

> <Gold.PLP.Chemscore.CHOScore>
1.0000

> <Gold.PLP.Chemscore.Metal>
0.0000

> <Gold.Chemscore.Hbonds>
donor molecule, donor type, donor heavy atom, donor atom, acceptor molecule, acceptor atom, score
      L1  C    18    41       P1  7948  1.00

> <Gold.PLP.Chemscore.Internal.Correction>
0.0514

> <Gold.Rescore>
     Score         DG    S(hbond)    S(metal)    S(lipo)     H(rot)  DE(clash)    DE(int)     intcor
     14.77     -16.78       0.00        0.00     127.55       1.42       0.33       1.68       ----

> <Gold.Chemscore.Fitness>
14.7697

> <Gold.Chemscore.DG>
-16.7776

> <Gold.Chemscore.ZeroCoef>
-5.4800

> <Gold.Chemscore.Hbond>
0.0000

> <Gold.Chemscore.Metal>
0.0000

> <Gold.Chemscore.Lipo>
127.5534

> <Gold.Chemscore.Internal_Hbond>
0.0000

> <Gold.Chemscore.DEClash>
0.3311

> <Gold.Chemscore.DEInternal>
1.6768

> <Gold.Chemscore.Rot>
1.4165

> <Gold.Chemscore.Internal.Correction>
   9.000000E+99

> <Gold.Chemscore.Hbond.Weighted>
-0.0000

> <Gold.Chemscore.Metal.Weighted>
-0.0000

> <Gold.Chemscore.Lipo.Weighted>
-14.9237

> <Gold.Chemscore.Internal_Hbond.Weighted>
0.0000

> <Gold.Chemscore.DEClash.Weighted>
0.3311

> <Gold.Chemscore.DEInternal.Weighted>
1.6768

> <Gold.Chemscore.Rot.Weighted>
3.6262

> <Gold.Chemscore.Internal.Correction.Weighted>
   9.000000E+99

> <Gold.Protein.RotatedTorsions>
[ 6907 6896 6895 6894 ] final -119.99 input  -60.11 | X-H torsion
[ 7974 7965 7964 7962 ] final  -37.92 input  175.53 | X-H torsion
[ 8008 7997 7996 7995 ] final -113.36 input   59.86 | X-H torsion
[ 10167 10162 10161 10158 ] final -112.65 input  -65.29 | X-H torsion
[ 10718 10713 10712 10709 ] final -133.00 input   66.30 | X-H torsion
[ 10763 10752 10751 10750 ] final   38.51 input  -60.55 | X-H torsion
[ 11005 11000 10999 10996 ] final    8.95 input  -57.11 | X-H torsion

> <Gold.Protein.ActiveResidues>
 VAL166  LYS551  ARG553  GLY616  TRP617  ASP618  TYR619  PRO620  LYS621  CYS622 
 ASP623  PHE694  ASN695  SER759  ASP760  ASP761  ALA762  ILE779  LEU786  VAL792 
 PHE793  MET794  SER795  GLU796  ALA797  LYS798  CYS799  TRP800  GLU811  SER814 

> <Gold.Protein.RotatedAtoms>
  150.8353  133.8023  159.3081 H   0  0  0  0  0  0  0  0  0  0  0  0  # atno 6907 bound_to 6896
  151.5741  135.1059  160.0011 H   0  0  0  0  0  0  0  0  0  0  0  0  # atno 6908 bound_to 6896
  152.4427  133.7435  159.6711 H   0  0  0  0  0  0  0  0  0  0  0  0  # atno 6909 bound_to 6896
  146.0533  140.6451  142.9032 H   0  0  0  0  0  0  0  0  0  0  0  0  # atno 7974 bound_to 7965
  155.0196  140.0393  157.2432 H   0  0  0  0  0  0  0  0  0  0  0  0  # atno 8008 bound_to 7997
  154.7390  140.2745  155.6366 H   0  0  0  0  0  0  0  0  0  0  0  0  # atno 8009 bound_to 7997
  156.2860  140.2669  156.2112 H   0  0  0  0  0  0  0  0  0  0  0  0  # atno 8010 bound_to 7997
  140.1204  143.4448  152.1694 H   0  0  0  0  0  0  0  0  0  0  0  0  # atno 10167 bound_to 10162
  156.2404  130.7092  151.0951 H   0  0  0  0  0  0  0  0  0  0  0  0  # atno 10718 bound_to 10713
  152.9998  135.6247  154.2316 H   0  0  0  0  0  0  0  0  0  0  0  0  # atno 10763 bound_to 10752
  154.2058  135.2802  155.2977 H   0  0  0  0  0  0  0  0  0  0  0  0  # atno 10764 bound_to 10752
  154.5647  135.5695  153.7098 H   0  0  0  0  0  0  0  0  0  0  0  0  # atno 10765 bound_to 10752
  140.5312  134.0464  155.7874 H   0  0  0  0  0  0  0  0  0  0  0  0  # atno 11005 bound_to 11000
  144.7134  140.4122  143.7063 LP  0  0  0  0  0  0  0  0  0  0  0  0  # atno 17320 bound_to 7965
  145.6687  139.1595  143.2767 LP  0  0  0  0  0  0  0  0  0  0  0  0  # atno 17321 bound_to 7965
  139.5571  144.7380  151.4261 LP  0  0  0  0  0  0  0  0  0  0  0  0  # atno 17342 bound_to 10162
  140.6875  143.7940  150.7207 LP  0  0  0  0  0  0  0  0  0  0  0  0  # atno 17343 bound_to 10162
  157.7172  131.0702  150.6278 LP  0  0  0  0  0  0  0  0  0  0  0  0  # atno 17370 bound_to 10713
  156.6351  130.4443  149.5772 LP  0  0  0  0  0  0  0  0  0  0  0  0  # atno 17371 bound_to 10713
  141.1280  133.9350  157.2595 LP  0  0  0  0  0  0  0  0  0  0  0  0  # atno 17394 bound_to 11000
  139.9553  135.0167  156.9110 LP  0  0  0  0  0  0  0  0  0  0  0  0  # atno 17395 bound_to 11000

$$$$
