AV-unprocessed.smi:77|AV-procd|sdf|772|dock5
  -GOLD-   2262017123D 1   1.00000     0.00000
 Structure written by MMmdl.
 57 61  0  0  0  0  0  0  0  0  1 V2000
  150.7195  140.9891  158.2752 O   0  0  0  0  0  0  0  0  0  0  0  0
  150.4156  141.7116  157.3255 C   0  0  0  0  0  0  0  0  0  0  0  0
  150.0749  141.0960  155.9632 C   0  0  0  0  0  0  0  0  0  0  0  0
  150.2554  139.6405  155.9437 N   0  0  0  0  0  0  0  0  0  0  0  0
  149.1012  138.9499  156.0847 C   0  0  0  0  0  0  0  0  0  0  0  0
  148.1568  139.0040  155.1088 N   0  0  0  0  0  0  0  0  0  0  0  0
  146.9981  138.3569  155.2681 C   0  0  0  0  0  0  0  0  0  0  0  0
  146.5855  137.6254  156.3061 N   0  0  0  0  0  0  0  0  0  0  0  0
  147.5368  137.5684  157.2820 C   0  0  0  0  0  0  0  0  0  0  0  0
  148.8174  138.1848  157.2455 C   0  0  0  0  0  0  0  0  0  0  0  0
  149.5219  137.8952  158.4067 N   0  0  0  0  0  0  0  0  0  0  0  0
  148.6948  137.1652  159.1035 C   0  0  0  0  0  0  0  0  0  0  0  0
  147.4678  136.9478  158.5167 N   0  0  0  0  0  0  0  0  0  0  0  0
  146.3577  136.2011  159.0781 C   0  0  0  0  0  0  0  0  0  0  0  0
  146.6084  135.6434  160.5080 C   0  0  1  0  0  0  0  0  0  0  0  0
  145.6482  136.3461  161.4986 C   0  0  0  0  0  0  0  0  0  0  0  0
  145.5832  137.7363  161.2559 O   0  0  0  0  0  0  0  0  0  0  0  0
  146.4893  134.0904  160.5955 C   0  0  2  0  0  0  0  0  0  0  0  0
  147.0135  133.3327  159.3837 C   0  0  0  0  0  0  0  0  0  0  0  0
  146.3517  131.9722  159.5368 C   0  0  0  0  0  0  0  0  0  0  0  0
  145.0453  132.2775  159.9926 O   0  0  0  0  0  0  0  0  0  0  0  0
  145.0565  133.5286  160.6729 C   0  0  0  0  0  0  0  0  0  0  0  0
  151.1281  139.1080  154.9060 C   0  0  0  0  0  0  0  0  0  0  0  0
  151.5198  137.6488  154.9529 C   0  0  0  0  0  0  0  0  0  0  0  0
  152.5357  138.7180  155.2858 C   0  0  0  0  0  0  0  0  0  0  0  0
  150.3794  143.0502  157.3963 N   0  0  0  0  0  0  0  0  0  0  0  0
  150.6533  143.8266  158.5619 C   0  0  0  0  0  0  0  0  0  0  0  0
  151.9057  144.6757  158.5619 C   0  0  0  0  0  0  0  0  0  0  0  0
  151.8472  143.4314  159.4039 C   0  0  0  0  0  0  0  0  0  0  0  0
  149.0571  141.3605  155.6692 H   0  0  0  0  0  0  0  0  0  0  0  0
  150.7335  141.5513  155.2222 H   0  0  0  0  0  0  0  0  0  0  0  0
  146.2968  138.4462  154.4515 H   0  0  0  0  0  0  0  0  0  0  0  0
  148.9508  136.7834  160.0809 H   0  0  0  0  0  0  0  0  0  0  0  0
  145.4941  136.8668  159.0711 H   0  0  0  0  0  0  0  0  0  0  0  0
  146.1159  135.3821  158.3993 H   0  0  0  0  0  0  0  0  0  0  0  0
  147.6224  135.9096  160.8091 H   0  0  0  0  0  0  0  0  0  0  0  0
  144.6461  135.9209  161.4350 H   0  0  0  0  0  0  0  0  0  0  0  0
  145.9807  136.2312  162.5293 H   0  0  0  0  0  0  0  0  0  0  0  0
  145.0276  138.1303  161.9110 H   0  0  0  0  0  0  0  0  0  0  0  0
  147.0454  133.7410  161.4672 H   0  0  0  0  0  0  0  0  0  0  0  0
  146.6783  133.8069  158.4600 H   0  0  0  0  0  0  0  0  0  0  0  0
  148.1010  133.2578  159.3587 H   0  0  0  0  0  0  0  0  0  0  0  0
  146.3302  131.4032  158.6071 H   0  0  0  0  0  0  0  0  0  0  0  0
  146.8654  131.3773  160.2934 H   0  0  0  0  0  0  0  0  0  0  0  0
  144.7266  133.3873  161.7014 H   0  0  0  0  0  0  0  0  0  0  0  0
  144.3410  134.1837  160.1752 H   0  0  0  0  0  0  0  0  0  0  0  0
  151.0051  139.5394  153.9139 H   0  0  0  0  0  0  0  0  0  0  0  0
  151.1411  137.0449  155.7755 H   0  0  0  0  0  0  0  0  0  0  0  0
  151.6288  137.1282  154.0037 H   0  0  0  0  0  0  0  0  0  0  0  0
  153.3228  138.9084  154.5590 H   0  0  0  0  0  0  0  0  0  0  0  0
  152.8270  138.8262  156.3289 H   0  0  0  0  0  0  0  0  0  0  0  0
  150.1289  143.5597  156.5610 H   0  0  0  0  0  0  0  0  0  0  0  0
  149.8008  144.2358  159.1024 H   0  0  0  0  0  0  0  0  0  0  0  0
  152.5347  144.6546  157.6738 H   0  0  0  0  0  0  0  0  0  0  0  0
  151.8616  145.6330  159.0776 H   0  0  0  0  0  0  0  0  0  0  0  0
  151.7650  143.5582  160.4815 H   0  0  0  0  0  0  0  0  0  0  0  0
  152.4405  142.5785  159.0794 H   0  0  0  0  0  0  0  0  0  0  0  0
  1  2  2  0  0  0  0
  2  3  1  0  0  0  0
  2 26  1  0  0  0  0
  3  4  1  0  0  0  0
  3 30  1  0  0  0  0
  3 31  1  0  0  0  0
  4  5  1  0  0  0  0
  4 23  1  0  0  0  0
  5 10  1  0  0  0  0
  5  6  2  0  0  0  0
  6  7  1  0  0  0  0
  7  8  2  0  0  0  0
  7 32  1  0  0  0  0
  8  9  1  0  0  0  0
  9 13  1  0  0  0  0
  9 10  2  0  0  0  0
 10 11  1  0  0  0  0
 11 12  2  0  0  0  0
 12 13  1  0  0  0  0
 12 33  1  0  0  0  0
 13 14  1  0  0  0  0
 14 15  1  0  0  0  0
 14 34  1  0  0  0  0
 14 35  1  0  0  0  0
 15 16  1  0  0  0  0
 15 18  1  0  0  0  0
 15 36  1  0  0  0  0
 16 17  1  0  0  0  0
 16 37  1  0  0  0  0
 16 38  1  0  0  0  0
 17 39  1  0  0  0  0
 18 22  1  0  0  0  0
 18 19  1  0  0  0  0
 18 40  1  0  0  0  0
 19 20  1  0  0  0  0
 19 41  1  0  0  0  0
 19 42  1  0  0  0  0
 20 21  1  0  0  0  0
 20 43  1  0  0  0  0
 20 44  1  0  0  0  0
 21 22  1  0  0  0  0
 22 45  1  0  0  0  0
 22 46  1  0  0  0  0
 23 25  1  0  0  0  0
 23 24  1  0  0  0  0
 23 47  1  0  0  0  0
 24 25  1  0  0  0  0
 24 48  1  0  0  0  0
 24 49  1  0  0  0  0
 25 50  1  0  0  0  0
 25 51  1  0  0  0  0
 26 27  1  0  0  0  0
 26 52  1  0  0  0  0
 27 29  1  0  0  0  0
 27 28  1  0  0  0  0
 27 53  1  0  0  0  0
 28 29  1  0  0  0  0
 28 54  1  0  0  0  0
 28 55  1  0  0  0  0
 29 56  1  0  0  0  0
 29 57  1  0  0  0  0
M  END
> <s_m_source_file>
AV-unprocessed.smi

> <i_m_source_file_index>
77

> <i_lp_mmshare_version>
43012

> <i_f3d_flags>
0

> <s_epik_input>
W0NIMl0xW0NIMl1bQ0hdMVtOSF1DKD1PKVtDSDJdTihbQ0hdMltDSDJdW0NIMl0yKWMobltjSF1uMyljKGMzNCluW2NIXW40W0NIMl1bQ0BIXShbQ0gyXVtPSF0pW0NAQEhdNVtDSDJdW0NIMl1PW0NIMl01

> <s_epik_cmdline>
J2VwaWtfcHl0aG9uJywgJy1waCcsICc3LjAnLCAnLXRuJywgJzgnLCAnLW1hJywgJzIwMCcsICctbWV0YWxfYmluZGluZycsICctaW1hZScsICc8aW5maWxlLm1hZT4nLCAnLW9tYWUnLCAnPG91dGZpbGUubWFlPic=

> <r_lp_tautomer_probability>
1

> <r_epik_Ionization_Penalty>
0.000703847

> <r_epik_Ionization_Penalty_Charging>
0

> <r_epik_Ionization_Penalty_Neutral>
0.000703847

> <r_epik_State_Penalty>
0.00034025

> <r_epik_Charging_Adjusted_Penalty>
0.00034025

> <i_epik_Tot_Q>
0

> <i_epik_Tot_abs_Q>
0

> <r_epik_Metal_State_Penalty>
-0

> <b_epik_Metal_Only>
0

> <s_lp_Force_Field>
OPLS_2005

> <r_lp_Energy>
54.5586

> <b_lp_Chiralities_Consistent>
1

> <s_lp_Variant>
AV-unprocessed.smi:77-2

> <Gold.Version>
5.8.1

> <Gold.Id.Protein>
6NUR|6NUR_protein|mol2

> <Gold.PLP.Fitness>
51.4183

> <Gold.PLP.PLP>
-49.1764

> <Gold.PLP.part.hbond>
-2.9780

> <Gold.PLP.part.metal>
0.0000

> <Gold.PLP.part.buried>
-5.4161

> <Gold.PLP.part.nonpolar>
-40.9454

> <Gold.PLP.part.repulsive>
0.0406

> <Gold.PLP.ligand.clash>
0.0000

> <Gold.PLP.ligand.torsion>
2.8386

> <Gold.PLP.Chemscore.Hbond>
1.9920

> <Gold.PLP.Chemscore.CHOScore>
0.0000

> <Gold.PLP.Chemscore.Metal>
0.0000

> <Gold.Chemscore.Hbonds>
donor molecule, donor type, donor heavy atom, donor atom, acceptor molecule, acceptor atom, score
      L1  H    26    52       P1  8028  0.96
      P1  H  6934  6947       L1    17  0.87

> <Gold.PLP.Chemscore.Internal.Correction>
1.9432

> <Gold.Rescore>
     Score         DG    S(hbond)    S(metal)    S(lipo)     H(rot)  DE(clash)    DE(int)     intcor
     12.19     -14.91       1.79        0.00     112.03       3.77       0.12       2.60       ----

> <Gold.Chemscore.Fitness>
12.1892

> <Gold.Chemscore.DG>
-14.9089

> <Gold.Chemscore.ZeroCoef>
-5.4800

> <Gold.Chemscore.Hbond>
1.7894

> <Gold.Chemscore.Metal>
0.0000

> <Gold.Chemscore.Lipo>
112.0274

> <Gold.Chemscore.Internal_Hbond>
0.0000

> <Gold.Chemscore.DEClash>
0.1189

> <Gold.Chemscore.DEInternal>
2.6008

> <Gold.Chemscore.Rot>
3.7714

> <Gold.Chemscore.Internal.Correction>
   9.000000E+99

> <Gold.Chemscore.Hbonds>
donor molecule, donor type, donor heavy atom, donor atom, acceptor molecule, acceptor atom, score
      L1  H    26    52       P1  8028  0.92
      P1  H  6934  6947       L1    17  0.44

> <Gold.Chemscore.Hbond.Weighted>
-5.9765

> <Gold.Chemscore.Metal.Weighted>
-0.0000

> <Gold.Chemscore.Lipo.Weighted>
-13.1072

> <Gold.Chemscore.Internal_Hbond.Weighted>
0.0000

> <Gold.Chemscore.DEClash.Weighted>
0.1189

> <Gold.Chemscore.DEInternal.Weighted>
2.6008

> <Gold.Chemscore.Rot.Weighted>
9.6548

> <Gold.Chemscore.Internal.Correction.Weighted>
   9.000000E+99

> <Gold.Protein.RotatedTorsions>
[ 6907 6896 6895 6894 ] final  -36.44 input  -60.11 | X-H torsion
[ 7974 7965 7964 7962 ] final -178.48 input  175.53 | X-H torsion
[ 8008 7997 7996 7995 ] final -127.28 input   59.86 | X-H torsion
[ 10167 10162 10161 10158 ] final -135.87 input  -65.29 | X-H torsion
[ 10718 10713 10712 10709 ] final -147.47 input   66.30 | X-H torsion
[ 10763 10752 10751 10750 ] final   76.65 input  -60.55 | X-H torsion
[ 11005 11000 10999 10996 ] final   37.91 input  -57.11 | X-H torsion

> <Gold.Protein.ActiveResidues>
 VAL166  LYS551  ARG553  GLY616  TRP617  ASP618  TYR619  PRO620  LYS621  CYS622 
 ASP623  PHE694  ASN695  SER759  ASP760  ASP761  ALA762  ILE779  LEU786  VAL792 
 PHE793  MET794  SER795  GLU796  ALA797  LYS798  CYS799  TRP800  GLU811  SER814 

> <Gold.Protein.RotatedAtoms>
  151.0272  134.9513  159.8091 H   0  0  0  0  0  0  0  0  0  0  0  0  # atno 6907 bound_to 6896
  152.5338  134.2827  159.9023 H   0  0  0  0  0  0  0  0  0  0  0  0  # atno 6908 bound_to 6896
  151.2835  133.4156  159.2662 H   0  0  0  0  0  0  0  0  0  0  0  0  # atno 6909 bound_to 6896
  144.7131  140.0863  143.6423 H   0  0  0  0  0  0  0  0  0  0  0  0  # atno 7974 bound_to 7965
  155.2436  140.0429  157.2978 H   0  0  0  0  0  0  0  0  0  0  0  0  # atno 8008 bound_to 7997
  154.5813  140.2401  155.8020 H   0  0  0  0  0  0  0  0  0  0  0  0  # atno 8009 bound_to 7997
  156.2195  140.2974  155.9926 H   0  0  0  0  0  0  0  0  0  0  0  0  # atno 8010 bound_to 7997
  139.8735  143.6928  152.2637 H   0  0  0  0  0  0  0  0  0  0  0  0  # atno 10167 bound_to 10162
  156.4079  130.7966  151.2182 H   0  0  0  0  0  0  0  0  0  0  0  0  # atno 10718 bound_to 10713
  153.0741  135.4943  154.8366 H   0  0  0  0  0  0  0  0  0  0  0  0  # atno 10763 bound_to 10752
  154.7063  135.3011  154.9268 H   0  0  0  0  0  0  0  0  0  0  0  0  # atno 10764 bound_to 10752
  153.9976  135.6770  153.4810 H   0  0  0  0  0  0  0  0  0  0  0  0  # atno 10765 bound_to 10752
  140.2178  134.3677  155.8019 H   0  0  0  0  0  0  0  0  0  0  0  0  # atno 11005 bound_to 11000
  145.9659  139.2834  143.1128 LP  0  0  0  0  0  0  0  0  0  0  0  0  # atno 17320 bound_to 7965
  145.9170  140.9141  143.0425 LP  0  0  0  0  0  0  0  0  0  0  0  0  # atno 17321 bound_to 7965
  139.7262  144.7592  151.0875 LP  0  0  0  0  0  0  0  0  0  0  0  0  # atno 17342 bound_to 10162
  140.7757  143.5145  150.9611 LP  0  0  0  0  0  0  0  0  0  0  0  0  # atno 17343 bound_to 10162
  157.7506  131.0267  150.3972 LP  0  0  0  0  0  0  0  0  0  0  0  0  # atno 17370 bound_to 10713
  156.4264  130.3963  149.6790 LP  0  0  0  0  0  0  0  0  0  0  0  0  # atno 17371 bound_to 10713
  141.2224  133.7177  156.8525 LP  0  0  0  0  0  0  0  0  0  0  0  0  # atno 17394 bound_to 11000
  140.1882  134.8985  157.3029 LP  0  0  0  0  0  0  0  0  0  0  0  0  # atno 17395 bound_to 11000

$$$$
