AV-unprocessed.smi:2832|AV-procd|sdf|10912|dock10
  -GOLD-   2272015363D 1   1.00000     0.00000
 Structure written by MMmdl.
 33 33  0  0  0  0  0  0  0  0  2 V2000
  150.7514  140.7553  155.6513 C   0  0  0  0  0  0  0  0  0  0  0  0
  150.7695  139.3884  154.9591 C   0  0  0  0  0  0  0  0  0  0  0  0
  150.8261  138.2203  155.9702 C   0  0  0  0  0  0  0  0  0  0  0  0
  152.0402  138.1816  156.9528 C   0  0  1  0  0  0  0  0  0  0  0  0
  153.3411  138.4451  156.1603 C   0  0  0  0  0  0  0  0  0  0  0  0
  151.9913  139.1712  158.0439 N   0  0  0  0  0  0  0  0  0  0  0  0
  152.9729  139.7699  158.7433 C   0  0  0  0  0  0  0  0  0  0  0  0
  154.1677  139.4901  158.6549 O   0  0  0  0  0  0  0  0  0  0  0  0
  152.5270  140.8588  159.7204 C   0  0  0  0  0  0  0  0  0  0  0  0
  152.2371  142.1039  159.0297 N   0  0  0  0  0  0  0  0  0  0  0  0
  152.8011  143.3472  159.2297 C   0  0  0  0  0  0  0  0  0  0  0  0
  152.2099  144.2084  158.3503 C   0  0  0  0  0  0  0  0  0  0  0  0
  151.2870  143.3881  157.6432 C   0  0  0  0  0  0  0  0  0  0  0  0
  151.3073  142.1292  158.0497 N   0  0  0  0  0  0  0  0  0  0  0  0
  152.0832  136.7739  157.5993 C   0  0  0  0  0  0  0  0  0  0  0  0
  152.2140  135.7851  156.8433 O   0  0  0  0  0  0  0  0  0  0  0  0
  151.9721  136.6972  158.8444 O   0  5  0  0  0  0  0  0  0  0  0  0
  150.7297  141.5610  154.9175 H   0  0  0  0  0  0  0  0  0  0  0  0
  151.6368  140.8938  156.2724 H   0  0  0  0  0  0  0  0  0  0  0  0
  149.8728  140.8611  156.2883 H   0  0  0  0  0  0  0  0  0  0  0  0
  149.8893  139.3064  154.3231 H   0  0  0  0  0  0  0  0  0  0  0  0
  151.6305  139.3506  154.2919 H   0  0  0  0  0  0  0  0  0  0  0  0
  149.9066  138.2494  156.5575 H   0  0  0  0  0  0  0  0  0  0  0  0
  150.7649  137.2755  155.4304 H   0  0  0  0  0  0  0  0  0  0  0  0
  153.4501  137.7633  155.3159 H   0  0  0  0  0  0  0  0  0  0  0  0
  154.2249  138.3359  156.7907 H   0  0  0  0  0  0  0  0  0  0  0  0
  153.3541  139.4580  155.7563 H   0  0  0  0  0  0  0  0  0  0  0  0
  151.0589  139.5050  158.2431 H   0  0  0  0  0  0  0  0  0  0  0  0
  151.6302  140.5401  160.2532 H   0  0  0  0  0  0  0  0  0  0  0  0
  153.3046  141.0230  160.4684 H   0  0  0  0  0  0  0  0  0  0  0  0
  153.5646  143.5122  159.9757 H   0  0  0  0  0  0  0  0  0  0  0  0
  152.4058  145.2636  158.2311 H   0  0  0  0  0  0  0  0  0  0  0  0
  150.6078  143.6675  156.8512 H   0  0  0  0  0  0  0  0  0  0  0  0
  1  2  1  0  0  0  0
  1 18  1  0  0  0  0
  1 19  1  0  0  0  0
  1 20  1  0  0  0  0
  2  3  1  0  0  0  0
  2 21  1  0  0  0  0
  2 22  1  0  0  0  0
  3  4  1  0  0  0  0
  3 23  1  0  0  0  0
  3 24  1  0  0  0  0
  4  5  1  0  0  0  0
  4  6  1  0  0  0  0
  4 15  1  0  0  0  0
  5 25  1  0  0  0  0
  5 26  1  0  0  0  0
  5 27  1  0  0  0  0
  6  7  1  0  0  0  0
  6 28  1  0  0  0  0
  7  8  2  0  0  0  0
  7  9  1  0  0  0  0
  9 10  1  0  0  0  0
  9 29  1  0  0  0  0
  9 30  1  0  0  0  0
 10 14  1  0  0  0  0
 10 11  1  0  0  0  0
 11 12  2  0  0  0  0
 11 31  1  0  0  0  0
 12 13  1  0  0  0  0
 12 32  1  0  0  0  0
 13 14  2  0  0  0  0
 13 33  1  0  0  0  0
 15 16  2  0  0  0  0
 15 17  1  0  0  0  0
M  CHG  1  17  -1
M  END
> <s_m_source_file>
AV-unprocessed.smi

> <i_m_source_file_index>
2832

> <i_lp_mmshare_version>
43012

> <i_f3d_flags>
0

> <s_epik_input>
W0NIM11bQ0gyXVtDSDJdW0NAXShbQ0gzXSkoQyg9TylbT0hdKVtOSF1DKD1PKVtDSDJdbjFbY0hdW2NIXVtjSF1uMQ==

> <s_epik_cmdline>
J2VwaWtfcHl0aG9uJywgJy1waCcsICc3LjAnLCAnLXRuJywgJzgnLCAnLW1hJywgJzIwMCcsICctbWV0YWxfYmluZGluZycsICctaW1hZScsICc8aW5maWxlLm1hZT4nLCAnLW9tYWUnLCAnPG91dGZpbGUubWFlPic=

> <r_lp_tautomer_probability>
1

> <r_epik_Ionization_Penalty>
0.000287256

> <r_epik_Ionization_Penalty_Charging>
0.00026921

> <r_epik_Ionization_Penalty_Neutral>
1.80463e-05

> <r_epik_State_Penalty>
-0

> <r_epik_Charging_Adjusted_Penalty>
0.00026921

> <i_epik_Tot_Q>
-1

> <i_epik_Tot_abs_Q>
1

> <r_epik_Metal_State_Penalty>
-0

> <b_epik_Metal_Only>
0

> <s_lp_Force_Field>
OPLS_2005

> <r_lp_Energy>
4.0175

> <b_lp_Chiralities_Consistent>
1

> <s_lp_Variant>
AV-unprocessed.smi:2832-1

> <Gold.Version>
5.8.1

> <Gold.Id.Protein>
6NUR|6NUR_protein|mol2

> <Gold.PLP.Fitness>
43.2514

> <Gold.PLP.PLP>
-28.3508

> <Gold.PLP.part.hbond>
-3.0000

> <Gold.PLP.part.metal>
0.0000

> <Gold.PLP.part.buried>
-0.4046

> <Gold.PLP.part.nonpolar>
-25.3906

> <Gold.PLP.part.repulsive>
0.1077

> <Gold.PLP.ligand.clash>
0.0000

> <Gold.PLP.ligand.torsion>
0.9790

> <Gold.PLP.Chemscore.Hbond>
4.6000

> <Gold.PLP.Chemscore.CHOScore>
1.0000

> <Gold.PLP.Chemscore.Metal>
0.0000

> <Gold.Chemscore.Hbonds>
donor molecule, donor type, donor heavy atom, donor atom, acceptor molecule, acceptor atom, score
      P1  H  6896  6909       L1    17  1.63
      P1  H  7997  8009       L1     8  1.00
      P1  H 10752 10765       L1    16  2.00
      L1  C    13    33       P1  8028  1.00

> <Gold.PLP.Chemscore.Internal.Correction>
0.0586

> <Gold.Rescore>
     Score         DG    S(hbond)    S(metal)    S(lipo)     H(rot)  DE(clash)    DE(int)     intcor
     13.74     -16.62       2.59        0.00      75.28       2.47       0.13       2.75       ----

> <Gold.Chemscore.Fitness>
13.7420

> <Gold.Chemscore.DG>
-16.6243

> <Gold.Chemscore.ZeroCoef>
-5.4800

> <Gold.Chemscore.Hbond>
2.5947

> <Gold.Chemscore.Metal>
0.0000

> <Gold.Chemscore.Lipo>
75.2796

> <Gold.Chemscore.Internal_Hbond>
0.0000

> <Gold.Chemscore.DEClash>
0.1309

> <Gold.Chemscore.DEInternal>
2.7514

> <Gold.Chemscore.Rot>
2.4726

> <Gold.Chemscore.Internal.Correction>
   9.000000E+99

> <Gold.Chemscore.Hbonds>
donor molecule, donor type, donor heavy atom, donor atom, acceptor molecule, acceptor atom, score
      P1  H  6896  6909       L1    17  0.81
      P1  H  7997  8009       L1     8  0.65
      P1  H 10752 10765       L1    16  0.93

> <Gold.Chemscore.Hbond.Weighted>
-8.6664

> <Gold.Chemscore.Metal.Weighted>
-0.0000

> <Gold.Chemscore.Lipo.Weighted>
-8.8077

> <Gold.Chemscore.Internal_Hbond.Weighted>
0.0000

> <Gold.Chemscore.DEClash.Weighted>
0.1309

> <Gold.Chemscore.DEInternal.Weighted>
2.7514

> <Gold.Chemscore.Rot.Weighted>
6.3297

> <Gold.Chemscore.Internal.Correction.Weighted>
   9.000000E+99

> <Gold.Protein.RotatedTorsions>
[ 6907 6896 6895 6894 ] final  125.34 input  -60.11 | X-H torsion
[ 7974 7965 7964 7962 ] final   59.40 input  175.53 | X-H torsion
[ 8008 7997 7996 7995 ] final  146.08 input   59.86 | X-H torsion
[ 10167 10162 10161 10158 ] final -122.85 input  -65.29 | X-H torsion
[ 10718 10713 10712 10709 ] final  -69.26 input   66.30 | X-H torsion
[ 10763 10752 10751 10750 ] final -148.58 input  -60.55 | X-H torsion
[ 11005 11000 10999 10996 ] final   80.54 input  -57.11 | X-H torsion

> <Gold.Protein.ActiveResidues>
 VAL166  LYS551  ARG553  GLY616  TRP617  ASP618  TYR619  PRO620  LYS621  CYS622 
 ASP623  PHE694  ASN695  SER759  ASP760  ASP761  ALA762  ILE779  LEU786  VAL792 
 PHE793  MET794  SER795  GLU796  ALA797  LYS798  CYS799  TRP800  GLU811  SER814 

> <Gold.Protein.RotatedAtoms>
  152.4000  133.6804  159.6308 H   0  0  0  0  0  0  0  0  0  0  0  0  # atno 6907 bound_to 6896
  150.7893  133.8807  159.3294 H   0  0  0  0  0  0  0  0  0  0  0  0  # atno 6908 bound_to 6896
  151.6575  135.0995  160.0224 H   0  0  0  0  0  0  0  0  0  0  0  0  # atno 6909 bound_to 6896
  145.9075  139.3628  143.0555 H   0  0  0  0  0  0  0  0  0  0  0  0  # atno 7974 bound_to 7965
  156.2865  140.2192  156.5319 H   0  0  0  0  0  0  0  0  0  0  0  0  # atno 8008 bound_to 7997
  154.7442  140.0485  157.0859 H   0  0  0  0  0  0  0  0  0  0  0  0  # atno 8009 bound_to 7997
  155.0192  140.3122  155.4803 H   0  0  0  0  0  0  0  0  0  0  0  0  # atno 8010 bound_to 7997
  140.0099  143.5453  152.2268 H   0  0  0  0  0  0  0  0  0  0  0  0  # atno 10167 bound_to 10162
  156.0464  130.4309  150.2121 H   0  0  0  0  0  0  0  0  0  0  0  0  # atno 10718 bound_to 10713
  154.8225  135.3331  154.6996 H   0  0  0  0  0  0  0  0  0  0  0  0  # atno 10763 bound_to 10752
  153.7627  135.6931  153.4927 H   0  0  0  0  0  0  0  0  0  0  0  0  # atno 10764 bound_to 10752
  153.2099  135.4486  155.0316 H   0  0  0  0  0  0  0  0  0  0  0  0  # atno 10765 bound_to 10752
  139.9131  134.7928  156.1922 H   0  0  0  0  0  0  0  0  0  0  0  0  # atno 11005 bound_to 11000
  145.8713  140.9418  143.0649 LP  0  0  0  0  0  0  0  0  0  0  0  0  # atno 17320 bound_to 7965
  144.6740  140.0658  143.7474 LP  0  0  0  0  0  0  0  0  0  0  0  0  # atno 17321 bound_to 7965
  139.6212  144.7629  151.2735 LP  0  0  0  0  0  0  0  0  0  0  0  0  # atno 17342 bound_to 10162
  140.7385  143.6644  150.8136 LP  0  0  0  0  0  0  0  0  0  0  0  0  # atno 17343 bound_to 10162
  157.0210  130.9979  151.3339 LP  0  0  0  0  0  0  0  0  0  0  0  0  # atno 17370 bound_to 10713
  157.5344  130.8079  149.7954 LP  0  0  0  0  0  0  0  0  0  0  0  0  # atno 17371 bound_to 10713
  141.0576  133.6857  156.1891 LP  0  0  0  0  0  0  0  0  0  0  0  0  # atno 17394 bound_to 11000
  140.6711  134.4866  157.5587 LP  0  0  0  0  0  0  0  0  0  0  0  0  # atno 17395 bound_to 11000

$$$$
