AV-unprocessed.smi:1012|AV-procd|sdf|4422|dock3
  -GOLD-   22720 2373D 1   1.00000     0.00000
 Structure written by MMmdl.
 43 45  0  0  0  0  0  0  0  0  1 V2000
  151.7327  145.8257  160.1201 C   0  0  0  0  0  0  0  0  0  0  0  0
  151.5141  144.9088  159.0578 O   0  0  0  0  0  0  0  0  0  0  0  0
  151.9949  143.6213  159.1888 C   0  0  0  0  0  0  0  0  0  0  0  0
  152.7994  143.1998  160.2793 C   0  0  0  0  0  0  0  0  0  0  0  0
  153.2620  141.8729  160.3618 C   0  0  0  0  0  0  0  0  0  0  0  0
  152.9283  140.9467  159.3590 C   0  0  0  0  0  0  0  0  0  0  0  0
  152.1318  141.3507  158.2732 C   0  0  0  0  0  0  0  0  0  0  0  0
  151.6668  142.6796  158.1807 C   0  0  0  0  0  0  0  0  0  0  0  0
  150.8008  143.0578  156.9899 C   0  0  0  0  0  0  0  0  0  0  0  0
  150.4878  141.9232  156.1993 O   0  0  0  0  0  0  0  0  0  0  0  0
  149.4594  142.1744  155.2556 C   0  0  0  0  0  0  0  0  0  0  0  0
  148.9927  140.8393  154.6583 C   0  0  2  0  0  0  0  0  0  0  0  0
  149.9994  140.3561  153.7908 O   0  0  0  0  0  0  0  0  0  0  0  0
  147.6615  140.9677  153.8927 C   0  0  0  0  0  0  0  0  0  0  0  0
  146.5986  141.5037  154.7232 N   0  0  0  0  0  0  0  0  0  0  0  0
  146.1823  141.0404  155.9175 C   0  0  0  0  0  0  0  0  0  0  0  0
  145.1859  141.6926  156.5099 N   0  0  0  0  0  0  0  0  0  0  0  0
  144.9250  142.6967  155.5933 C   0  0  0  0  0  0  0  0  0  0  0  0
  143.9728  143.7407  155.6218 C   0  0  0  0  0  0  0  0  0  0  0  0
  143.8889  144.6611  154.5563 C   0  0  0  0  0  0  0  0  0  0  0  0
  142.9708  145.6556  154.5997 F   0  0  0  0  0  0  0  0  0  0  0  0
  144.7545  144.5517  153.4475 C   0  0  0  0  0  0  0  0  0  0  0  0
  144.6663  145.4394  152.4285 F   0  0  0  0  0  0  0  0  0  0  0  0
  145.7117  143.5202  153.3973 C   0  0  0  0  0  0  0  0  0  0  0  0
  145.7913  142.6049  154.4628 C   0  0  0  0  0  0  0  0  0  0  0  0
  151.3023  146.7913  159.8546 H   0  0  0  0  0  0  0  0  0  0  0  0
  152.7972  145.9798  160.3021 H   0  0  0  0  0  0  0  0  0  0  0  0
  151.2512  145.4927  161.0404 H   0  0  0  0  0  0  0  0  0  0  0  0
  153.0781  143.8773  161.0718 H   0  0  0  0  0  0  0  0  0  0  0  0
  153.8737  141.5660  161.1974 H   0  0  0  0  0  0  0  0  0  0  0  0
  153.2816  139.9280  159.4226 H   0  0  0  0  0  0  0  0  0  0  0  0
  151.8762  140.6350  157.5054 H   0  0  0  0  0  0  0  0  0  0  0  0
  149.8809  143.5047  157.3702 H   0  0  0  0  0  0  0  0  0  0  0  0
  151.2838  143.8118  156.3682 H   0  0  0  0  0  0  0  0  0  0  0  0
  148.6252  142.6966  155.7274 H   0  0  0  0  0  0  0  0  0  0  0  0
  149.8472  142.8201  154.4658 H   0  0  0  0  0  0  0  0  0  0  0  0
  148.8815  140.1134  155.4651 H   0  0  0  0  0  0  0  0  0  0  0  0
  149.6221  140.2285  152.9340 H   0  0  0  0  0  0  0  0  0  0  0  0
  147.7820  141.6273  153.0324 H   0  0  0  0  0  0  0  0  0  0  0  0
  147.3478  139.9991  153.5007 H   0  0  0  0  0  0  0  0  0  0  0  0
  146.6388  140.1773  156.3798 H   0  0  0  0  0  0  0  0  0  0  0  0
  143.3054  143.8344  156.4655 H   0  0  0  0  0  0  0  0  0  0  0  0
  146.3770  143.4338  152.5512 H   0  0  0  0  0  0  0  0  0  0  0  0
  1  2  1  0  0  0  0
  1 26  1  0  0  0  0
  1 27  1  0  0  0  0
  1 28  1  0  0  0  0
  2  3  1  0  0  0  0
  3  8  1  0  0  0  0
  3  4  2  0  0  0  0
  4  5  1  0  0  0  0
  4 29  1  0  0  0  0
  5  6  2  0  0  0  0
  5 30  1  0  0  0  0
  6  7  1  0  0  0  0
  6 31  1  0  0  0  0
  7  8  2  0  0  0  0
  7 32  1  0  0  0  0
  8  9  1  0  0  0  0
  9 10  1  0  0  0  0
  9 33  1  0  0  0  0
  9 34  1  0  0  0  0
 10 11  1  0  0  0  0
 11 12  1  0  0  0  0
 11 35  1  0  0  0  0
 11 36  1  0  0  0  0
 12 13  1  0  0  0  0
 12 14  1  0  0  0  0
 12 37  1  0  0  0  0
 13 38  1  0  0  0  0
 14 15  1  0  0  0  0
 14 39  1  0  0  0  0
 14 40  1  0  0  0  0
 15 25  1  0  0  0  0
 15 16  1  0  0  0  0
 16 17  2  0  0  0  0
 16 41  1  0  0  0  0
 17 18  1  0  0  0  0
 18 25  2  0  0  0  0
 18 19  1  0  0  0  0
 19 20  2  0  0  0  0
 19 42  1  0  0  0  0
 20 21  1  0  0  0  0
 20 22  1  0  0  0  0
 22 23  1  0  0  0  0
 22 24  2  0  0  0  0
 24 25  1  0  0  0  0
 24 43  1  0  0  0  0
M  END
> <s_m_source_file>
AV-unprocessed.smi

> <i_m_source_file_index>
1012

> <i_lp_mmshare_version>
43012

> <i_f3d_flags>
0

> <s_epik_input>
W0NIM11PYzFbY0hdW2NIXVtjSF1bY0hdYzFbQ0gyXU9bQ0gyXVtDQEhdKFtPSF0pW0NIMl1uKFtjSF1uMiljKGMyMylbY0hdYyhGKWMoRilbY0hdMw==

> <s_epik_cmdline>
J2VwaWtfcHl0aG9uJywgJy1waCcsICc3LjAnLCAnLXRuJywgJzgnLCAnLW1hJywgJzIwMCcsICctbWV0YWxfYmluZGluZycsICctaW1hZScsICc8aW5maWxlLm1hZT4nLCAnLW9tYWUnLCAnPG91dGZpbGUubWFlPic=

> <r_lp_tautomer_probability>
1

> <r_epik_Ionization_Penalty>
0.0160257

> <r_epik_Ionization_Penalty_Charging>
0

> <r_epik_Ionization_Penalty_Neutral>
0.0160257

> <r_epik_State_Penalty>
0.0126263

> <r_epik_Charging_Adjusted_Penalty>
0.0126263

> <i_epik_Tot_Q>
0

> <i_epik_Tot_abs_Q>
0

> <r_epik_Metal_State_Penalty>
1.27616e-05

> <b_epik_Metal_Only>
0

> <s_lp_Force_Field>
OPLS_2005

> <r_lp_Energy>
17.5186

> <b_lp_Chiralities_Consistent>
1

> <s_lp_Variant>
AV-unprocessed.smi:1012-1

> <Gold.Version>
5.8.1

> <Gold.Id.Protein>
6NUR|6NUR_protein|mol2

> <Gold.PLP.Fitness>
61.4472

> <Gold.PLP.PLP>
-56.4929

> <Gold.PLP.part.hbond>
-2.0000

> <Gold.PLP.part.metal>
0.0000

> <Gold.PLP.part.buried>
-1.6544

> <Gold.PLP.part.nonpolar>
-53.6988

> <Gold.PLP.part.repulsive>
0.2238

> <Gold.PLP.ligand.clash>
0.0000

> <Gold.PLP.ligand.torsion>
0.2675

> <Gold.PLP.Chemscore.Hbond>
1.7840

> <Gold.PLP.Chemscore.CHOScore>
0.0000

> <Gold.PLP.Chemscore.Metal>
0.0000

> <Gold.Chemscore.Hbonds>
donor molecule, donor type, donor heavy atom, donor atom, acceptor molecule, acceptor atom, score
      L1  H    13    38       P1  7957  1.00
      P1  H  7989  7998       L1    13  0.69

> <Gold.PLP.Chemscore.Internal.Correction>
0.1373

> <Gold.Rescore>
     Score         DG    S(hbond)    S(metal)    S(lipo)     H(rot)  DE(clash)    DE(int)     intcor
     15.37     -17.60       1.14        0.00     135.25       2.93       1.79       0.44       ----

> <Gold.Chemscore.Fitness>
15.3691

> <Gold.Chemscore.DG>
-17.6005

> <Gold.Chemscore.ZeroCoef>
-5.4800

> <Gold.Chemscore.Hbond>
1.1396

> <Gold.Chemscore.Metal>
0.0000

> <Gold.Chemscore.Lipo>
135.2483

> <Gold.Chemscore.Internal_Hbond>
0.0000

> <Gold.Chemscore.DEClash>
1.7940

> <Gold.Chemscore.DEInternal>
0.4375

> <Gold.Chemscore.Rot>
2.9335

> <Gold.Chemscore.Internal.Correction>
   9.000000E+99

> <Gold.Chemscore.Hbonds>
donor molecule, donor type, donor heavy atom, donor atom, acceptor molecule, acceptor atom, score
      L1  H    13    38       P1  7957  0.99
      P1  H  7989  7998       L1    13  0.31

> <Gold.Chemscore.Hbond.Weighted>
-3.8061

> <Gold.Chemscore.Metal.Weighted>
-0.0000

> <Gold.Chemscore.Lipo.Weighted>
-15.8241

> <Gold.Chemscore.Internal_Hbond.Weighted>
0.0000

> <Gold.Chemscore.DEClash.Weighted>
1.7940

> <Gold.Chemscore.DEInternal.Weighted>
0.4375

> <Gold.Chemscore.Rot.Weighted>
7.5097

> <Gold.Chemscore.Internal.Correction.Weighted>
   9.000000E+99

> <Gold.Protein.RotatedTorsions>
[ 6907 6896 6895 6894 ] final -176.17 input  -60.11 | X-H torsion
[ 7974 7965 7964 7962 ] final -163.53 input  175.53 | X-H torsion
[ 8008 7997 7996 7995 ] final  -53.88 input   59.86 | X-H torsion
[ 10167 10162 10161 10158 ] final    2.23 input  -65.29 | X-H torsion
[ 10718 10713 10712 10709 ] final   32.36 input   66.30 | X-H torsion
[ 10763 10752 10751 10750 ] final -142.52 input  -60.55 | X-H torsion
[ 11005 11000 10999 10996 ] final  -40.92 input  -57.11 | X-H torsion

> <Gold.Protein.ActiveResidues>
 VAL166  LYS551  ARG553  GLY616  TRP617  ASP618  TYR619  PRO620  LYS621  CYS622 
 ASP623  PHE694  ASN695  SER759  ASP760  ASP761  ALA762  ILE779  LEU786  VAL792 
 PHE793  MET794  SER795  GLU796  ALA797  LYS798  CYS799  TRP800  GLU811  SER814 

> <Gold.Protein.RotatedAtoms>
  151.6004  133.3357  159.3045 H   0  0  0  0  0  0  0  0  0  0  0  0  # atno 6907 bound_to 6896
  150.8211  134.7422  159.6784 H   0  0  0  0  0  0  0  0  0  0  0  0  # atno 6908 bound_to 6896
  152.4304  134.5794  159.9995 H   0  0  0  0  0  0  0  0  0  0  0  0  # atno 6909 bound_to 6896
  144.7323  140.3093  143.6191 H   0  0  0  0  0  0  0  0  0  0  0  0  # atno 7974 bound_to 7965
  154.4146  140.1189  156.5226 H   0  0  0  0  0  0  0  0  0  0  0  0  # atno 8008 bound_to 7997
  155.6687  140.3496  155.4791 H   0  0  0  0  0  0  0  0  0  0  0  0  # atno 8009 bound_to 7997
  155.9651  140.1130  157.0851 H   0  0  0  0  0  0  0  0  0  0  0  0  # atno 8010 bound_to 7997
  140.6645  143.7216  150.7801 H   0  0  0  0  0  0  0  0  0  0  0  0  # atno 10167 bound_to 10162
  157.2842  130.7270  149.6574 H   0  0  0  0  0  0  0  0  0  0  0  0  # atno 10718 bound_to 10713
  154.8506  135.3493  154.6041 H   0  0  0  0  0  0  0  0  0  0  0  0  # atno 10763 bound_to 10752
  153.6650  135.6988  153.5170 H   0  0  0  0  0  0  0  0  0  0  0  0  # atno 10764 bound_to 10752
  153.2788  135.4270  155.1015 H   0  0  0  0  0  0  0  0  0  0  0  0  # atno 10765 bound_to 10752
  141.0209  133.6863  156.2387 H   0  0  0  0  0  0  0  0  0  0  0  0  # atno 11005 bound_to 11000
  145.7681  139.1847  143.2228 LP  0  0  0  0  0  0  0  0  0  0  0  0  # atno 17320 bound_to 7965
  146.0933  140.7630  142.9585 LP  0  0  0  0  0  0  0  0  0  0  0  0  # atno 17321 bound_to 7965
  140.0890  143.4895  152.2489 LP  0  0  0  0  0  0  0  0  0  0  0  0  # atno 17342 bound_to 10162
  139.5889  144.7542  151.3449 LP  0  0  0  0  0  0  0  0  0  0  0  0  # atno 17343 bound_to 10162
  155.9665  130.4328  150.4981 LP  0  0  0  0  0  0  0  0  0  0  0  0  # atno 17370 bound_to 10713
  157.2931  131.0630  151.2120 LP  0  0  0  0  0  0  0  0  0  0  0  0  # atno 17371 bound_to 10713
  140.6574  134.5003  157.5581 LP  0  0  0  0  0  0  0  0  0  0  0  0  # atno 17394 bound_to 11000
  139.9145  134.8274  156.1411 LP  0  0  0  0  0  0  0  0  0  0  0  0  # atno 17395 bound_to 11000

$$$$
