AV-unprocessed.smi:1761|AV-procd|sdf|7097|dock3
  -GOLD-   22720 8313D 1   1.00000     0.00000
 Structure written by MMmdl.
 34 35  0  0  0  0  0  0  0  0  1 V2000
  150.7333  140.6445  156.5369 O   0  0  0  0  0  0  0  0  0  0  0  0
  150.2436  141.7533  156.3205 C   0  0  0  0  0  0  0  0  0  0  0  0
  150.4906  142.8664  157.0337 N   0  0  0  0  0  0  0  0  0  0  0  0
  151.3217  143.0118  158.1767 C   0  0  0  0  0  0  0  0  0  0  0  0
  151.3975  144.3231  158.6984 C   0  0  0  0  0  0  0  0  0  0  0  0
  152.1916  144.5723  159.8346 C   0  0  0  0  0  0  0  0  0  0  0  0
  152.8901  143.5023  160.4215 C   0  0  0  0  0  0  0  0  0  0  0  0
  152.7610  142.2279  159.8393 C   0  0  0  0  0  0  0  0  0  0  0  0
  152.0009  141.9869  158.7501 N   0  0  0  0  0  0  0  0  0  0  0  0
  149.3793  141.9977  155.3245 N   0  0  0  0  0  0  0  0  0  0  0  0
  148.8910  141.0074  154.3666 C   0  0  2  0  0  0  0  0  0  0  0  0
  147.6234  141.5236  153.6582 C   0  0  0  0  0  0  0  0  0  0  0  0
  147.0981  140.4987  152.6396 C   0  0  0  0  0  0  0  0  0  0  0  0
  146.8415  139.1343  153.2989 C   0  0  0  0  0  0  0  0  0  0  0  0
  148.0965  138.6111  154.0211 C   0  0  0  0  0  0  0  0  0  0  0  0
  148.6539  139.6300  155.0342 C   0  0  2  0  0  0  0  0  0  0  0  0
  147.7505  139.7434  156.1188 O   0  0  0  0  0  0  0  0  0  0  0  0
  150.0211  143.7062  156.7296 H   0  0  0  0  0  0  0  0  0  0  0  0
  150.8529  145.1336  158.2364 H   0  0  0  0  0  0  0  0  0  0  0  0
  152.2616  145.5673  160.2487 H   0  0  0  0  0  0  0  0  0  0  0  0
  153.5080  143.6540  161.2941 H   0  0  0  0  0  0  0  0  0  0  0  0
  153.2809  141.3793  160.2587 H   0  0  0  0  0  0  0  0  0  0  0  0
  149.0272  142.9379  155.2203 H   0  0  0  0  0  0  0  0  0  0  0  0
  149.6569  140.8810  153.5986 H   0  0  0  0  0  0  0  0  0  0  0  0
  146.8455  141.7399  154.3917 H   0  0  0  0  0  0  0  0  0  0  0  0
  147.8368  142.4644  153.1496 H   0  0  0  0  0  0  0  0  0  0  0  0
  146.1800  140.8676  152.1817 H   0  0  0  0  0  0  0  0  0  0  0  0
  147.8216  140.3830  151.8317 H   0  0  0  0  0  0  0  0  0  0  0  0
  146.0183  139.2219  154.0091 H   0  0  0  0  0  0  0  0  0  0  0  0
  146.5208  138.4136  152.5463 H   0  0  0  0  0  0  0  0  0  0  0  0
  147.8754  137.6659  154.5187 H   0  0  0  0  0  0  0  0  0  0  0  0
  148.8656  138.3909  153.2798 H   0  0  0  0  0  0  0  0  0  0  0  0
  149.5940  139.2483  155.4342 H   0  0  0  0  0  0  0  0  0  0  0  0
  146.8810  139.8655  155.7697 H   0  0  0  0  0  0  0  0  0  0  0  0
  1  2  2  0  0  0  0
  2  3  1  0  0  0  0
  2 10  1  0  0  0  0
  3  4  1  0  0  0  0
  3 18  1  0  0  0  0
  4  9  1  0  0  0  0
  4  5  2  0  0  0  0
  5  6  1  0  0  0  0
  5 19  1  0  0  0  0
  6  7  2  0  0  0  0
  6 20  1  0  0  0  0
  7  8  1  0  0  0  0
  7 21  1  0  0  0  0
  8  9  2  0  0  0  0
  8 22  1  0  0  0  0
 10 11  1  0  0  0  0
 10 23  1  0  0  0  0
 11 16  1  0  0  0  0
 11 12  1  0  0  0  0
 11 24  1  0  0  0  0
 12 13  1  0  0  0  0
 12 25  1  0  0  0  0
 12 26  1  0  0  0  0
 13 14  1  0  0  0  0
 13 27  1  0  0  0  0
 13 28  1  0  0  0  0
 14 15  1  0  0  0  0
 14 29  1  0  0  0  0
 14 30  1  0  0  0  0
 15 16  1  0  0  0  0
 15 31  1  0  0  0  0
 15 32  1  0  0  0  0
 16 17  1  0  0  0  0
 16 33  1  0  0  0  0
 17 34  1  0  0  0  0
M  END
> <s_m_source_file>
AV-unprocessed.smi

> <i_m_source_file_index>
1761

> <i_lp_mmshare_version>
43012

> <i_f3d_flags>
0

> <s_epik_input>
bjFbY0hdW2NIXVtjSF1bY0hdYzFbTkhdQyg9TylbTkhdW0NAQEhdMltDSDJdW0NIMl1bQ0gyXVtDSDJdW0NASF0yW09IXQ==

> <s_epik_cmdline>
J2VwaWtfcHl0aG9uJywgJy1waCcsICc3LjAnLCAnLXRuJywgJzgnLCAnLW1hJywgJzIwMCcsICctbWV0YWxfYmluZGluZycsICctaW1hZScsICc8aW5maWxlLm1hZT4nLCAnLW9tYWUnLCAnPG91dGZpbGUubWFlPic=

> <r_lp_tautomer_probability>
1

> <r_epik_Ionization_Penalty>
4.92589e-05

> <r_epik_Ionization_Penalty_Charging>
0

> <r_epik_Ionization_Penalty_Neutral>
4.92589e-05

> <r_epik_State_Penalty>
-0

> <r_epik_Charging_Adjusted_Penalty>
0

> <i_epik_Tot_Q>
0

> <i_epik_Tot_abs_Q>
0

> <r_epik_Metal_State_Penalty>
-0

> <b_epik_Metal_Only>
0

> <s_lp_Force_Field>
OPLS_2005

> <r_lp_Energy>
15.389

> <b_lp_Chiralities_Consistent>
1

> <s_lp_Variant>
AV-unprocessed.smi:1761-3

> <Gold.Version>
5.8.1

> <Gold.Id.Protein>
6NUR|6NUR_protein|mol2

> <Gold.PLP.Fitness>
39.7503

> <Gold.PLP.PLP>
-34.2812

> <Gold.PLP.part.hbond>
-2.0000

> <Gold.PLP.part.metal>
0.0000

> <Gold.PLP.part.buried>
-4.5450

> <Gold.PLP.part.nonpolar>
-28.7213

> <Gold.PLP.part.repulsive>
0.2174

> <Gold.PLP.ligand.clash>
0.0000

> <Gold.PLP.ligand.torsion>
0.2721

> <Gold.PLP.Chemscore.Hbond>
2.0000

> <Gold.PLP.Chemscore.CHOScore>
0.0000

> <Gold.PLP.Chemscore.Metal>
0.0000

> <Gold.Chemscore.Hbonds>
donor molecule, donor type, donor heavy atom, donor atom, acceptor molecule, acceptor atom, score
      L1  H     3    18       P1  8028  1.00
      L1  H    10    23       P1  8028  1.00

> <Gold.PLP.Chemscore.Internal.Correction>
0.0133

> <Gold.Rescore>
     Score         DG    S(hbond)    S(metal)    S(lipo)     H(rot)  DE(clash)    DE(int)     intcor
     15.38     -18.39       1.97        0.00      86.17       1.47       0.13       2.87       ----

> <Gold.Chemscore.Fitness>
15.3838

> <Gold.Chemscore.DG>
-18.3862

> <Gold.Chemscore.ZeroCoef>
-5.4800

> <Gold.Chemscore.Hbond>
1.9688

> <Gold.Chemscore.Metal>
0.0000

> <Gold.Chemscore.Lipo>
86.1670

> <Gold.Chemscore.Internal_Hbond>
0.0000

> <Gold.Chemscore.DEClash>
0.1297

> <Gold.Chemscore.DEInternal>
2.8727

> <Gold.Chemscore.Rot>
1.4653

> <Gold.Chemscore.Internal.Correction>
   9.000000E+99

> <Gold.Chemscore.Hbonds>
donor molecule, donor type, donor heavy atom, donor atom, acceptor molecule, acceptor atom, score
      L1  H     3    18       P1  8028  0.99
      L1  H    10    23       P1  8028  0.99

> <Gold.Chemscore.Hbond.Weighted>
-6.5757

> <Gold.Chemscore.Metal.Weighted>
-0.0000

> <Gold.Chemscore.Lipo.Weighted>
-10.0815

> <Gold.Chemscore.Internal_Hbond.Weighted>
0.0000

> <Gold.Chemscore.DEClash.Weighted>
0.1297

> <Gold.Chemscore.DEInternal.Weighted>
2.8727

> <Gold.Chemscore.Rot.Weighted>
3.7511

> <Gold.Chemscore.Internal.Correction.Weighted>
   9.000000E+99

> <Gold.Protein.RotatedTorsions>
[ 6907 6896 6895 6894 ] final  107.07 input  -60.11 | X-H torsion
[ 7974 7965 7964 7962 ] final  -97.77 input  175.53 | X-H torsion
[ 8008 7997 7996 7995 ] final  -28.29 input   59.86 | X-H torsion
[ 10167 10162 10161 10158 ] final -143.30 input  -65.29 | X-H torsion
[ 10718 10713 10712 10709 ] final -167.28 input   66.30 | X-H torsion
[ 10763 10752 10751 10750 ] final  135.49 input  -60.55 | X-H torsion
[ 11005 11000 10999 10996 ] final  102.02 input  -57.11 | X-H torsion

> <Gold.Protein.ActiveResidues>
 VAL166  LYS551  ARG553  GLY616  TRP617  ASP618  TYR619  PRO620  LYS621  CYS622 
 ASP623  PHE694  ASN695  SER759  ASP760  ASP761  ALA762  ILE779  LEU786  VAL792 
 PHE793  MET794  SER795  GLU796  ALA797  LYS798  CYS799  TRP800  GLU811  SER814 

> <Gold.Protein.RotatedAtoms>
  152.5169  133.9289  159.7570 H   0  0  0  0  0  0  0  0  0  0  0  0  # atno 6907 bound_to 6896
  150.9644  133.6403  159.2756 H   0  0  0  0  0  0  0  0  0  0  0  0  # atno 6908 bound_to 6896
  151.3636  135.0914  159.9495 H   0  0  0  0  0  0  0  0  0  0  0  0  # atno 6909 bound_to 6896
  145.3294  140.9438  143.2670 H   0  0  0  0  0  0  0  0  0  0  0  0  # atno 7974 bound_to 7965
  154.4339  140.1849  156.1066 H   0  0  0  0  0  0  0  0  0  0  0  0  # atno 8008 bound_to 7997
  156.0250  140.3336  155.7053 H   0  0  0  0  0  0  0  0  0  0  0  0  # atno 8009 bound_to 7997
  155.5921  140.0632  157.2746 H   0  0  0  0  0  0  0  0  0  0  0  0  # atno 8010 bound_to 7997
  139.8006  143.7838  152.2658 H   0  0  0  0  0  0  0  0  0  0  0  0  # atno 10167 bound_to 10162
  156.6800  130.9118  151.3055 H   0  0  0  0  0  0  0  0  0  0  0  0  # atno 10718 bound_to 10713
  153.8409  135.3091  155.3426 H   0  0  0  0  0  0  0  0  0  0  0  0  # atno 10763 bound_to 10752
  154.7933  135.4770  154.0105 H   0  0  0  0  0  0  0  0  0  0  0  0  # atno 10764 bound_to 10752
  153.1576  135.6855  153.8881 H   0  0  0  0  0  0  0  0  0  0  0  0  # atno 10765 bound_to 10752
  139.8775  134.9207  156.4995 H   0  0  0  0  0  0  0  0  0  0  0  0  # atno 11005 bound_to 11000
  144.8876  139.4818  143.6693 LP  0  0  0  0  0  0  0  0  0  0  0  0  # atno 17320 bound_to 7965
  146.3051  139.7554  142.9062 LP  0  0  0  0  0  0  0  0  0  0  0  0  # atno 17321 bound_to 7965
  139.7957  144.7393  150.9893 LP  0  0  0  0  0  0  0  0  0  0  0  0  # atno 17342 bound_to 10162
  140.7820  143.4396  151.0572 LP  0  0  0  0  0  0  0  0  0  0  0  0  # atno 17343 bound_to 10162
  157.7047  130.9371  150.0893 LP  0  0  0  0  0  0  0  0  0  0  0  0  # atno 17370 bound_to 10713
  156.1874  130.3653  149.8954 LP  0  0  0  0  0  0  0  0  0  0  0  0  # atno 17371 bound_to 10713
  140.8600  133.8067  155.9255 LP  0  0  0  0  0  0  0  0  0  0  0  0  # atno 17394 bound_to 11000
  140.9059  134.2321  157.5014 LP  0  0  0  0  0  0  0  0  0  0  0  0  # atno 17395 bound_to 11000

$$$$
