AV-unprocessed.smi:2751|AV-procd|sdf|10595|dock7
  -GOLD-   2272015 43D 1   1.00000     0.00000
 Structure written by MMmdl.
 34 35  0  0  0  0  0  0  0  0  1 V2000
  149.5954  140.5106  157.1121 O   0  0  0  0  0  0  0  0  0  0  0  0
  149.4260  141.6301  156.6279 C   0  0  0  0  0  0  0  0  0  0  0  0
  149.8144  142.7636  157.2302 N   0  0  0  0  0  0  0  0  0  0  0  0
  150.4955  142.8357  158.5177 C   0  0  0  0  0  0  0  0  0  0  0  0
  151.9058  143.4350  158.3816 C   0  0  0  0  0  0  0  0  0  0  0  0
  152.7594  143.2388  159.6443 C   0  0  2  0  0  0  0  0  0  0  0  0
  153.2860  141.7956  159.7669 C   0  0  0  0  0  0  0  0  0  0  0  0
  154.0726  141.6186  161.0705 C   0  0  0  0  0  0  0  0  0  0  0  0
  153.2174  142.0770  162.2565 C   0  0  0  0  0  0  0  0  0  0  0  0
  152.6842  143.4976  162.0120 C   0  0  0  0  0  0  0  0  0  0  0  0
  151.9594  143.5396  160.7865 O   0  0  0  0  0  0  0  0  0  0  0  0
  148.8390  141.8815  155.4458 N   0  0  0  0  0  0  0  0  0  0  0  0
  148.3153  140.9395  154.5247 C   0  0  0  0  0  0  0  0  0  0  0  0
  148.7642  139.7016  154.3115 N   0  0  0  0  0  0  0  0  0  0  0  0
  147.9310  139.1924  153.3261 C   0  0  0  0  0  0  0  0  0  0  0  0
  147.0171  140.1601  152.9964 C   0  0  0  0  0  0  0  0  0  0  0  0
  147.2488  141.2778  153.7526 O   0  0  0  0  0  0  0  0  0  0  0  0
  149.6331  143.6399  156.7625 H   0  0  0  0  0  0  0  0  0  0  0  0
  149.8996  143.4148  159.2252 H   0  0  0  0  0  0  0  0  0  0  0  0
  150.5566  141.8247  158.9210 H   0  0  0  0  0  0  0  0  0  0  0  0
  152.4141  142.9947  157.5226 H   0  0  0  0  0  0  0  0  0  0  0  0
  151.8222  144.5026  158.1741 H   0  0  0  0  0  0  0  0  0  0  0  0
  153.6046  143.9288  159.6060 H   0  0  0  0  0  0  0  0  0  0  0  0
  152.4499  141.0952  159.7475 H   0  0  0  0  0  0  0  0  0  0  0  0
  153.9200  141.5498  158.9143 H   0  0  0  0  0  0  0  0  0  0  0  0
  154.3735  140.5782  161.1965 H   0  0  0  0  0  0  0  0  0  0  0  0
  154.9890  142.2087  161.0288 H   0  0  0  0  0  0  0  0  0  0  0  0
  152.3794  141.3919  162.3907 H   0  0  0  0  0  0  0  0  0  0  0  0
  153.7998  142.0445  163.1776 H   0  0  0  0  0  0  0  0  0  0  0  0
  152.0204  143.7938  162.8243 H   0  0  0  0  0  0  0  0  0  0  0  0
  153.5002  144.2215  161.9886 H   0  0  0  0  0  0  0  0  0  0  0  0
  148.7669  142.8495  155.1698 H   0  0  0  0  0  0  0  0  0  0  0  0
  148.0532  138.1913  152.9396 H   0  0  0  0  0  0  0  0  0  0  0  0
  146.1967  140.2092  152.2960 H   0  0  0  0  0  0  0  0  0  0  0  0
  1  2  2  0  0  0  0
  2  3  1  0  0  0  0
  2 12  1  0  0  0  0
  3  4  1  0  0  0  0
  3 18  1  0  0  0  0
  4  5  1  0  0  0  0
  4 19  1  0  0  0  0
  4 20  1  0  0  0  0
  5  6  1  0  0  0  0
  5 21  1  0  0  0  0
  5 22  1  0  0  0  0
  6 11  1  0  0  0  0
  6  7  1  0  0  0  0
  6 23  1  0  0  0  0
  7  8  1  0  0  0  0
  7 24  1  0  0  0  0
  7 25  1  0  0  0  0
  8  9  1  0  0  0  0
  8 26  1  0  0  0  0
  8 27  1  0  0  0  0
  9 10  1  0  0  0  0
  9 28  1  0  0  0  0
  9 29  1  0  0  0  0
 10 11  1  0  0  0  0
 10 30  1  0  0  0  0
 10 31  1  0  0  0  0
 12 13  1  0  0  0  0
 12 32  1  0  0  0  0
 13 17  1  0  0  0  0
 13 14  2  0  0  0  0
 14 15  1  0  0  0  0
 15 16  2  0  0  0  0
 15 33  1  0  0  0  0
 16 17  1  0  0  0  0
 16 34  1  0  0  0  0
M  END
> <s_m_source_file>
AV-unprocessed.smi

> <i_m_source_file_index>
2751

> <i_lp_mmshare_version>
43012

> <i_f3d_flags>
0

> <s_epik_input>
bzFbY0hdW2NIXW5jMVtOSF1DKD1PKVtOSF1bQ0gyXVtDSDJdW0NAQEhdMltDSDJdW0NIMl1bQ0gyXVtDSDJdTzI=

> <s_epik_cmdline>
J2VwaWtfcHl0aG9uJywgJy1waCcsICc3LjAnLCAnLXRuJywgJzgnLCAnLW1hJywgJzIwMCcsICctbWV0YWxfYmluZGluZycsICctaW1hZScsICc8aW5maWxlLm1hZT4nLCAnLW9tYWUnLCAnPG91dGZpbGUubWFlPic=

> <r_lp_tautomer_probability>
0.785861

> <r_epik_Ionization_Penalty>
4.88827e-05

> <r_epik_Ionization_Penalty_Charging>
0

> <r_epik_Ionization_Penalty_Neutral>
4.88827e-05

> <r_epik_State_Penalty>
0.0434822

> <r_epik_Charging_Adjusted_Penalty>
0.0434822

> <i_epik_Tot_Q>
0

> <i_epik_Tot_abs_Q>
0

> <r_epik_Metal_State_Penalty>
0.0598982

> <b_epik_Metal_Only>
0

> <s_lp_Force_Field>
OPLS_2005

> <r_lp_Energy>
7.87484

> <b_lp_Chiralities_Consistent>
1

> <s_lp_Variant>
AV-unprocessed.smi:2751-1

> <Gold.Version>
5.8.1

> <Gold.Id.Protein>
6NUR|6NUR_protein|mol2

> <Gold.PLP.Fitness>
45.9547

> <Gold.PLP.PLP>
-34.9056

> <Gold.PLP.part.hbond>
-2.0000

> <Gold.PLP.part.metal>
0.0000

> <Gold.PLP.part.buried>
-3.6412

> <Gold.PLP.part.nonpolar>
-30.1613

> <Gold.PLP.part.repulsive>
0.5582

> <Gold.PLP.ligand.clash>
0.0000

> <Gold.PLP.ligand.torsion>
0.3730

> <Gold.PLP.Chemscore.Hbond>
1.9440

> <Gold.PLP.Chemscore.CHOScore>
1.9865

> <Gold.PLP.Chemscore.Metal>
0.0000

> <Gold.Chemscore.Hbonds>
donor molecule, donor type, donor heavy atom, donor atom, acceptor molecule, acceptor atom, score
      L1  H     3    18       P1  8028  1.00
      L1  H    12    32       P1  8028  0.99
      L1  C    15    33       P1  7948  1.00
      L1  C    16    34       P1 10175  1.00

> <Gold.PLP.Chemscore.Internal.Correction>
0.0036

> <Gold.Rescore>
     Score         DG    S(hbond)    S(metal)    S(lipo)     H(rot)  DE(clash)    DE(int)     intcor
     16.35     -18.22       1.90        0.00      90.33       1.63       0.47       1.40       ----

> <Gold.Chemscore.Fitness>
16.3450

> <Gold.Chemscore.DG>
-18.2233

> <Gold.Chemscore.ZeroCoef>
-5.4800

> <Gold.Chemscore.Hbond>
1.9026

> <Gold.Chemscore.Metal>
0.0000

> <Gold.Chemscore.Lipo>
90.3283

> <Gold.Chemscore.Internal_Hbond>
0.0000

> <Gold.Chemscore.DEClash>
0.4749

> <Gold.Chemscore.DEInternal>
1.4034

> <Gold.Chemscore.Rot>
1.6328

> <Gold.Chemscore.Internal.Correction>
   9.000000E+99

> <Gold.Chemscore.Hbonds>
donor molecule, donor type, donor heavy atom, donor atom, acceptor molecule, acceptor atom, score
      L1  H     3    18       P1  8028  0.98
      L1  H    12    32       P1  8028  0.94

> <Gold.Chemscore.Hbond.Weighted>
-6.3548

> <Gold.Chemscore.Metal.Weighted>
-0.0000

> <Gold.Chemscore.Lipo.Weighted>
-10.5684

> <Gold.Chemscore.Internal_Hbond.Weighted>
0.0000

> <Gold.Chemscore.DEClash.Weighted>
0.4749

> <Gold.Chemscore.DEInternal.Weighted>
1.4034

> <Gold.Chemscore.Rot.Weighted>
4.1799

> <Gold.Chemscore.Internal.Correction.Weighted>
   9.000000E+99

> <Gold.Protein.RotatedTorsions>
[ 6907 6896 6895 6894 ] final  -27.94 input  -60.11 | X-H torsion
[ 7974 7965 7964 7962 ] final   86.36 input  175.53 | X-H torsion
[ 8008 7997 7996 7995 ] final -179.44 input   59.86 | X-H torsion
[ 10167 10162 10161 10158 ] final -108.21 input  -65.29 | X-H torsion
[ 10718 10713 10712 10709 ] final -142.84 input   66.30 | X-H torsion
[ 10763 10752 10751 10750 ] final -172.00 input  -60.55 | X-H torsion
[ 11005 11000 10999 10996 ] final   -7.99 input  -57.11 | X-H torsion

> <Gold.Protein.ActiveResidues>
 VAL166  LYS551  ARG553  GLY616  TRP617  ASP618  TYR619  PRO620  LYS621  CYS622 
 ASP623  PHE694  ASN695  SER759  ASP760  ASP761  ALA762  ILE779  LEU786  VAL792 
 PHE793  MET794  SER795  GLU796  ALA797  LYS798  CYS799  TRP800  GLU811  SER814 

> <Gold.Protein.RotatedAtoms>
  151.1399  135.0174  159.8620 H   0  0  0  0  0  0  0  0  0  0  0  0  # atno 6907 bound_to 6896
  152.5452  134.1511  159.8529 H   0  0  0  0  0  0  0  0  0  0  0  0  # atno 6908 bound_to 6896
  151.1586  133.4815  159.2627 H   0  0  0  0  0  0  0  0  0  0  0  0  # atno 6909 bound_to 6896
  145.5733  139.2316  143.2394 H   0  0  0  0  0  0  0  0  0  0  0  0  # atno 7974 bound_to 7965
  156.0305  140.1281  157.0263 H   0  0  0  0  0  0  0  0  0  0  0  0  # atno 8008 bound_to 7997
  154.4348  140.1050  156.6163 H   0  0  0  0  0  0  0  0  0  0  0  0  # atno 8009 bound_to 7997
  155.5814  140.3468  155.4543 H   0  0  0  0  0  0  0  0  0  0  0  0  # atno 8010 bound_to 7997
  140.1686  143.4061  152.1371 H   0  0  0  0  0  0  0  0  0  0  0  0  # atno 10167 bound_to 10162
  156.3507  130.7686  151.1838 H   0  0  0  0  0  0  0  0  0  0  0  0  # atno 10718 bound_to 10713
  154.6242  135.2879  155.0291 H   0  0  0  0  0  0  0  0  0  0  0  0  # atno 10763 bound_to 10752
  154.1475  135.6509  153.4960 H   0  0  0  0  0  0  0  0  0  0  0  0  # atno 10764 bound_to 10752
  153.0250  135.5347  154.7044 H   0  0  0  0  0  0  0  0  0  0  0  0  # atno 10765 bound_to 10752
  140.7187  133.8847  155.8804 H   0  0  0  0  0  0  0  0  0  0  0  0  # atno 11005 bound_to 11000
  146.1769  140.6559  142.9207 LP  0  0  0  0  0  0  0  0  0  0  0  0  # atno 17320 bound_to 7965
  144.7427  140.4987  143.6857 LP  0  0  0  0  0  0  0  0  0  0  0  0  # atno 17321 bound_to 7965
  139.5348  144.7198  151.4931 LP  0  0  0  0  0  0  0  0  0  0  0  0  # atno 17342 bound_to 10162
  140.6597  143.8525  150.6874 LP  0  0  0  0  0  0  0  0  0  0  0  0  # atno 17343 bound_to 10162
  157.7460  131.0428  150.4714 LP  0  0  0  0  0  0  0  0  0  0  0  0  # atno 17370 bound_to 10713
  156.4908  130.4095  149.6407 LP  0  0  0  0  0  0  0  0  0  0  0  0  # atno 17371 bound_to 10713
  141.0022  134.1134  157.4305 LP  0  0  0  0  0  0  0  0  0  0  0  0  # atno 17394 bound_to 11000
  139.8853  135.0071  156.6429 LP  0  0  0  0  0  0  0  0  0  0  0  0  # atno 17395 bound_to 11000

$$$$
