AV-unprocessed.smi:1145|AV-procd|sdf|4883|dock3
  -GOLD-   22720 3453D 1   1.00000     0.00000
 Structure written by MMmdl.
 36 37  0  0  0  0  0  0  0  0  1 V2000
  145.0697  138.4112  154.6817 C   0  0  0  0  0  0  0  0  0  0  0  0
  145.4390  138.6659  153.2139 C   0  0  1  0  0  0  0  0  0  0  0  0
  146.9642  138.8298  153.0391 C   0  0  0  0  0  0  0  0  0  0  0  0
  147.4629  140.0808  153.5828 N   0  0  0  0  0  0  0  0  0  0  0  0
  146.7902  141.2741  153.7430 C   0  0  0  0  0  0  0  0  0  0  0  0
  147.6618  142.1590  154.3096 C   0  0  0  0  0  0  0  0  0  0  0  0
  148.8603  141.4057  154.4553 C   0  0  0  0  0  0  0  0  0  0  0  0
  148.7395  140.1635  154.0155 N   0  0  0  0  0  0  0  0  0  0  0  0
  144.9400  137.5578  152.4000 N   0  0  0  0  0  0  0  0  0  0  0  0
  144.9818  136.2578  152.7337 C   0  0  0  0  0  0  0  0  0  0  0  0
  145.4884  135.8419  153.7763 O   0  0  0  0  0  0  0  0  0  0  0  0
  144.3310  135.2800  151.7470 C   0  0  2  0  0  0  0  0  0  0  0  0
  144.2649  133.8659  152.3463 C   0  0  0  0  0  0  0  0  0  0  0  0
  143.5582  132.8931  151.3887 C   0  0  0  0  0  0  0  0  0  0  0  0
  144.0419  133.0073  149.9353 C   0  0  0  0  0  0  0  0  0  0  0  0
  143.8046  132.0956  149.1463 O   0  0  0  0  0  0  0  0  0  0  0  0
  144.6843  134.1230  149.5472 N   0  0  0  0  0  0  0  0  0  0  0  0
  145.0985  135.2311  150.4084 C   0  0  0  0  0  0  0  0  0  0  0  0
  145.4000  139.2334  155.3173 H   0  0  0  0  0  0  0  0  0  0  0  0
  145.5309  137.4964  155.0556 H   0  0  0  0  0  0  0  0  0  0  0  0
  143.9904  138.3153  154.8040 H   0  0  0  0  0  0  0  0  0  0  0  0
  144.9492  139.5952  152.9170 H   0  0  0  0  0  0  0  0  0  0  0  0
  147.4892  138.0136  153.5379 H   0  0  0  0  0  0  0  0  0  0  0  0
  147.2364  138.7745  151.9842 H   0  0  0  0  0  0  0  0  0  0  0  0
  145.7567  141.3898  153.4516 H   0  0  0  0  0  0  0  0  0  0  0  0
  147.4724  143.1871  154.5804 H   0  0  0  0  0  0  0  0  0  0  0  0
  149.8083  141.7225  154.8646 H   0  0  0  0  0  0  0  0  0  0  0  0
  144.5044  137.8030  151.5226 H   0  0  0  0  0  0  0  0  0  0  0  0
  143.3105  135.6126  151.5470 H   0  0  0  0  0  0  0  0  0  0  0  0
  145.2703  133.4984  152.5587 H   0  0  0  0  0  0  0  0  0  0  0  0
  143.7369  133.8828  153.3008 H   0  0  0  0  0  0  0  0  0  0  0  0
  143.6869  131.8675  151.7362 H   0  0  0  0  0  0  0  0  0  0  0  0
  142.4862  133.0921  151.3946 H   0  0  0  0  0  0  0  0  0  0  0  0
  144.9622  134.1815  148.5780 H   0  0  0  0  0  0  0  0  0  0  0  0
  144.9624  136.1653  149.8628 H   0  0  0  0  0  0  0  0  0  0  0  0
  146.1707  135.1233  150.5794 H   0  0  0  0  0  0  0  0  0  0  0  0
  1  2  1  0  0  0  0
  1 19  1  0  0  0  0
  1 20  1  0  0  0  0
  1 21  1  0  0  0  0
  2  3  1  0  0  0  0
  2  9  1  0  0  0  0
  2 22  1  0  0  0  0
  3  4  1  0  0  0  0
  3 23  1  0  0  0  0
  3 24  1  0  0  0  0
  4  8  1  0  0  0  0
  4  5  1  0  0  0  0
  5  6  2  0  0  0  0
  5 25  1  0  0  0  0
  6  7  1  0  0  0  0
  6 26  1  0  0  0  0
  7  8  2  0  0  0  0
  7 27  1  0  0  0  0
  9 10  1  0  0  0  0
  9 28  1  0  0  0  0
 10 11  2  0  0  0  0
 10 12  1  0  0  0  0
 12 18  1  0  0  0  0
 12 13  1  0  0  0  0
 12 29  1  0  0  0  0
 13 14  1  0  0  0  0
 13 30  1  0  0  0  0
 13 31  1  0  0  0  0
 14 15  1  0  0  0  0
 14 32  1  0  0  0  0
 14 33  1  0  0  0  0
 15 16  2  0  0  0  0
 15 17  1  0  0  0  0
 17 18  1  0  0  0  0
 17 34  1  0  0  0  0
 18 35  1  0  0  0  0
 18 36  1  0  0  0  0
M  END
> <s_m_source_file>
AV-unprocessed.smi

> <i_m_source_file_index>
1145

> <i_lp_mmshare_version>
43012

> <i_f3d_flags>
0

> <s_epik_input>
bjFbY0hdW2NIXVtjSF1uMVtDSDJdW0NAQEhdKFtDSDNdKVtOSF1DKD1PKVtDQEBIXTJbQ0gyXVtDSDJdQyg9TylbTkhdW0NIMl0y

> <s_epik_cmdline>
J2VwaWtfcHl0aG9uJywgJy1waCcsICc3LjAnLCAnLXRuJywgJzgnLCAnLW1hJywgJzIwMCcsICctbWV0YWxfYmluZGluZycsICctaW1hZScsICc8aW5maWxlLm1hZT4nLCAnLW9tYWUnLCAnPG91dGZpbGUubWFlPic=

> <r_lp_tautomer_probability>
1

> <r_epik_Ionization_Penalty>
0.000314064

> <r_epik_Ionization_Penalty_Charging>
0

> <r_epik_Ionization_Penalty_Neutral>
0.000314064

> <r_epik_State_Penalty>
-0

> <r_epik_Charging_Adjusted_Penalty>
0

> <i_epik_Tot_Q>
0

> <i_epik_Tot_abs_Q>
0

> <r_epik_Metal_State_Penalty>
-0

> <b_epik_Metal_Only>
0

> <s_lp_Force_Field>
OPLS_2005

> <r_lp_Energy>
11.8785

> <b_lp_Chiralities_Consistent>
1

> <s_lp_Variant>
AV-unprocessed.smi:1145-2

> <Gold.Version>
5.8.1

> <Gold.Id.Protein>
6NUR|6NUR_protein|mol2

> <Gold.PLP.Fitness>
37.2299

> <Gold.PLP.PLP>
-28.0950

> <Gold.PLP.part.hbond>
-3.4609

> <Gold.PLP.part.metal>
0.0000

> <Gold.PLP.part.buried>
-0.6931

> <Gold.PLP.part.nonpolar>
-25.8772

> <Gold.PLP.part.repulsive>
1.0351

> <Gold.PLP.ligand.clash>
0.0000

> <Gold.PLP.ligand.torsion>
0.8226

> <Gold.PLP.Chemscore.Hbond>
2.5920

> <Gold.PLP.Chemscore.CHOScore>
0.9968

> <Gold.PLP.Chemscore.Metal>
0.0000

> <Gold.Chemscore.Hbonds>
donor molecule, donor type, donor heavy atom, donor atom, acceptor molecule, acceptor atom, score
      L1  H     9    28       P1 10171  1.00
      L1  H    17    34       P1  7921  0.83
      P1  H 10785 10796       L1    16  0.70
      L1  C     5    25       P1 10175  0.96

> <Gold.PLP.Chemscore.Internal.Correction>
0.0137

> <Gold.Rescore>
     Score         DG    S(hbond)    S(metal)    S(lipo)     H(rot)  DE(clash)    DE(int)     intcor
     12.85     -16.57       2.68        0.00      57.54       1.80       1.60       2.13       ----

> <Gold.Chemscore.Fitness>
12.8470

> <Gold.Chemscore.DG>
-16.5749

> <Gold.Chemscore.ZeroCoef>
-5.4800

> <Gold.Chemscore.Hbond>
2.6847

> <Gold.Chemscore.Metal>
0.0000

> <Gold.Chemscore.Lipo>
57.5354

> <Gold.Chemscore.Internal_Hbond>
0.0000

> <Gold.Chemscore.DEClash>
1.5976

> <Gold.Chemscore.DEInternal>
2.1303

> <Gold.Chemscore.Rot>
1.7982

> <Gold.Chemscore.Internal.Correction>
   9.000000E+99

> <Gold.Chemscore.Hbonds>
donor molecule, donor type, donor heavy atom, donor atom, acceptor molecule, acceptor atom, score
      L1  H     9    28       P1 10171  0.97
      L1  H    17    34       P1  7921  0.83
      P1  H 10785 10796       L1    16  0.68

> <Gold.Chemscore.Hbond.Weighted>
-8.9667

> <Gold.Chemscore.Metal.Weighted>
-0.0000

> <Gold.Chemscore.Lipo.Weighted>
-6.7316

> <Gold.Chemscore.Internal_Hbond.Weighted>
0.0000

> <Gold.Chemscore.DEClash.Weighted>
1.5976

> <Gold.Chemscore.DEInternal.Weighted>
2.1303

> <Gold.Chemscore.Rot.Weighted>
4.6035

> <Gold.Chemscore.Internal.Correction.Weighted>
   9.000000E+99

> <Gold.Protein.RotatedTorsions>
[ 6907 6896 6895 6894 ] final   53.15 input  -60.11 | X-H torsion
[ 7974 7965 7964 7962 ] final  -57.75 input  175.53 | X-H torsion
[ 8008 7997 7996 7995 ] final   -9.70 input   59.86 | X-H torsion
[ 10167 10162 10161 10158 ] final   55.89 input  -65.29 | X-H torsion
[ 10718 10713 10712 10709 ] final  141.14 input   66.30 | X-H torsion
[ 10763 10752 10751 10750 ] final  144.45 input  -60.55 | X-H torsion
[ 11005 11000 10999 10996 ] final  -78.57 input  -57.11 | X-H torsion

> <Gold.Protein.ActiveResidues>
 VAL166  LYS551  ARG553  GLY616  TRP617  ASP618  TYR619  PRO620  LYS621  CYS622 
 ASP623  PHE694  ASN695  SER759  ASP760  ASP761  ALA762  ILE779  LEU786  VAL792 
 PHE793  MET794  SER795  GLU796  ALA797  LYS798  CYS799  TRP800  GLU811  SER814 

> <Gold.Protein.RotatedAtoms>
  152.3307  134.7263  160.0290 H   0  0  0  0  0  0  0  0  0  0  0  0  # atno 6907 bound_to 6896
  151.7681  133.3333  159.3445 H   0  0  0  0  0  0  0  0  0  0  0  0  # atno 6908 bound_to 6896
  150.7421  134.5976  159.6064 H   0  0  0  0  0  0  0  0  0  0  0  0  # atno 6909 bound_to 6896
  145.8474  140.8376  143.0003 H   0  0  0  0  0  0  0  0  0  0  0  0  # atno 7974 bound_to 7965
  154.5622  140.2348  155.8318 H   0  0  0  0  0  0  0  0  0  0  0  0  # atno 8008 bound_to 7997
  156.2039  140.3045  155.9544 H   0  0  0  0  0  0  0  0  0  0  0  0  # atno 8009 bound_to 7997
  155.2867  140.0425  157.3010 H   0  0  0  0  0  0  0  0  0  0  0  0  # atno 8010 bound_to 7997
  140.2146  144.3853  150.6475 H   0  0  0  0  0  0  0  0  0  0  0  0  # atno 10167 bound_to 10162
  157.3954  131.1010  151.0605 H   0  0  0  0  0  0  0  0  0  0  0  0  # atno 10718 bound_to 10713
  153.9890  135.2934  155.3413 H   0  0  0  0  0  0  0  0  0  0  0  0  # atno 10763 bound_to 10752
  154.7225  135.5103  153.8838 H   0  0  0  0  0  0  0  0  0  0  0  0  # atno 10764 bound_to 10752
  153.0818  135.6681  154.0144 H   0  0  0  0  0  0  0  0  0  0  0  0  # atno 10765 bound_to 10752
  141.1665  133.7069  156.7992 H   0  0  0  0  0  0  0  0  0  0  0  0  # atno 11005 bound_to 11000
  144.6730  140.0903  143.7465 LP  0  0  0  0  0  0  0  0  0  0  0  0  # atno 17320 bound_to 7965
  145.9396  139.2660  143.1276 LP  0  0  0  0  0  0  0  0  0  0  0  0  # atno 17321 bound_to 7965
  140.6299  143.2186  151.6518 LP  0  0  0  0  0  0  0  0  0  0  0  0  # atno 17342 bound_to 10162
  139.5167  144.3339  152.0801 LP  0  0  0  0  0  0  0  0  0  0  0  0  # atno 17343 bound_to 10162
  157.1623  130.6231  149.5614 LP  0  0  0  0  0  0  0  0  0  0  0  0  # atno 17370 bound_to 10713
  155.9809  130.4813  150.6798 LP  0  0  0  0  0  0  0  0  0  0  0  0  # atno 17371 bound_to 10713
  140.2269  134.8715  157.3435 LP  0  0  0  0  0  0  0  0  0  0  0  0  # atno 17394 bound_to 11000
  140.1931  134.4347  155.7704 LP  0  0  0  0  0  0  0  0  0  0  0  0  # atno 17395 bound_to 11000

$$$$
