AV-unprocessed.smi:2026|AV-procd|sdf|8205|dock9
  -GOLD-   2272010463D 1   1.00000     0.00000
 Structure written by MMmdl.
 45 47  0  0  0  0  0  0  0  0  2 V2000
  152.8602  143.1036  161.2072 C   0  0  0  0  0  0  0  0  0  0  0  0
  152.2353  142.7171  159.8785 C   0  0  0  0  0  0  0  0  0  0  0  0
  152.5584  141.4659  159.3046 C   0  0  0  0  0  0  0  0  0  0  0  0
  151.9982  141.0694  158.0700 C   0  0  0  0  0  0  0  0  0  0  0  0
  152.1674  139.9083  157.3336 N   0  0  0  0  0  0  0  0  0  0  0  0
  151.3819  140.1391  156.2843 C   0  0  0  0  0  0  0  0  0  0  0  0
  150.7248  141.3139  156.2552 N   0  0  0  0  0  0  0  0  0  0  0  0
  149.8213  141.8020  155.2317 C   0  0  0  0  0  0  0  0  0  0  0  0
  149.0310  140.6554  154.5685 C   0  0  2  0  0  0  0  0  0  0  0  0
  149.8831  139.9457  153.6921 O   0  0  0  0  0  0  0  0  0  0  0  0
  147.7923  141.1253  153.7780 C   0  0  0  0  0  0  0  0  0  0  0  0
  146.7544  141.6890  154.6514 N   0  0  0  0  0  0  0  0  0  0  0  0
  146.2695  141.1069  155.7654 C   0  0  0  0  0  0  0  0  0  0  0  0
  146.6782  140.0196  156.1717 O   0  0  0  0  0  0  0  0  0  0  0  0
  145.3022  141.8678  156.3297 N   0  5  0  0  0  0  0  0  0  0  0  0
  145.1128  143.0580  155.5251 C   0  0  0  0  0  0  0  0  0  0  0  0
  143.6802  143.0928  154.9589 C   0  0  0  0  0  0  0  0  0  0  0  0
  145.4266  144.3164  156.3556 C   0  0  0  0  0  0  0  0  0  0  0  0
  146.1364  142.8531  154.4232 C   0  0  0  0  0  0  0  0  0  0  0  0
  146.3290  143.6375  153.4931 O   0  0  0  0  0  0  0  0  0  0  0  0
  151.1018  141.9673  157.4216 C   0  0  0  0  0  0  0  0  0  0  0  0
  150.7724  143.2136  157.9816 C   0  0  0  0  0  0  0  0  0  0  0  0
  151.3392  143.5939  159.2152 C   0  0  0  0  0  0  0  0  0  0  0  0
  150.9737  144.9421  159.8106 C   0  0  0  0  0  0  0  0  0  0  0  0
  153.4799  142.2994  161.6049 H   0  0  0  0  0  0  0  0  0  0  0  0
  152.0880  143.3242  161.9442 H   0  0  0  0  0  0  0  0  0  0  0  0
  153.4900  143.9857  161.0893 H   0  0  0  0  0  0  0  0  0  0  0  0
  153.2404  140.7980  159.8097 H   0  0  0  0  0  0  0  0  0  0  0  0
  151.2764  139.4126  155.4919 H   0  0  0  0  0  0  0  0  0  0  0  0
  149.1461  142.5105  155.7113 H   0  0  0  0  0  0  0  0  0  0  0  0
  150.3876  142.3660  154.4891 H   0  0  0  0  0  0  0  0  0  0  0  0
  148.7094  139.9509  155.3365 H   0  0  0  0  0  0  0  0  0  0  0  0
  149.5159  139.9856  152.8225 H   0  0  0  0  0  0  0  0  0  0  0  0
  148.0896  141.8432  153.0120 H   0  0  0  0  0  0  0  0  0  0  0  0
  147.3625  140.2817  153.2349 H   0  0  0  0  0  0  0  0  0  0  0  0
  143.5196  143.9786  154.3434 H   0  0  0  0  0  0  0  0  0  0  0  0
  142.9403  143.1138  155.7597 H   0  0  0  0  0  0  0  0  0  0  0  0
  143.4673  142.2200  154.3397 H   0  0  0  0  0  0  0  0  0  0  0  0
  145.2817  145.2239  155.7681 H   0  0  0  0  0  0  0  0  0  0  0  0
  146.4574  144.3189  156.7143 H   0  0  0  0  0  0  0  0  0  0  0  0
  144.7759  144.3844  157.2282 H   0  0  0  0  0  0  0  0  0  0  0  0
  150.0860  143.8685  157.4650 H   0  0  0  0  0  0  0  0  0  0  0  0
  150.3011  145.4962  159.1548 H   0  0  0  0  0  0  0  0  0  0  0  0
  151.8666  145.5484  159.9632 H   0  0  0  0  0  0  0  0  0  0  0  0
  150.4734  144.8121  160.7704 H   0  0  0  0  0  0  0  0  0  0  0  0
  1  2  1  0  0  0  0
  1 25  1  0  0  0  0
  1 26  1  0  0  0  0
  1 27  1  0  0  0  0
  2 23  1  0  0  0  0
  2  3  2  0  0  0  0
  3  4  1  0  0  0  0
  3 28  1  0  0  0  0
  4 21  2  0  0  0  0
  4  5  1  0  0  0  0
  5  6  2  0  0  0  0
  6  7  1  0  0  0  0
  6 29  1  0  0  0  0
  7  8  1  0  0  0  0
  7 21  1  0  0  0  0
  8  9  1  0  0  0  0
  8 30  1  0  0  0  0
  8 31  1  0  0  0  0
  9 10  1  0  0  0  0
  9 11  1  0  0  0  0
  9 32  1  0  0  0  0
 10 33  1  0  0  0  0
 11 12  1  0  0  0  0
 11 34  1  0  0  0  0
 11 35  1  0  0  0  0
 12 19  1  0  0  0  0
 12 13  1  0  0  0  0
 13 14  2  0  0  0  0
 13 15  1  0  0  0  0
 15 16  1  0  0  0  0
 16 17  1  0  0  0  0
 16 18  1  0  0  0  0
 16 19  1  0  0  0  0
 17 36  1  0  0  0  0
 17 37  1  0  0  0  0
 17 38  1  0  0  0  0
 18 39  1  0  0  0  0
 18 40  1  0  0  0  0
 18 41  1  0  0  0  0
 19 20  2  0  0  0  0
 21 22  1  0  0  0  0
 22 23  2  0  0  0  0
 22 42  1  0  0  0  0
 23 24  1  0  0  0  0
 24 43  1  0  0  0  0
 24 44  1  0  0  0  0
 24 45  1  0  0  0  0
M  CHG  1  15  -1
M  END
> <s_m_source_file>
AV-unprocessed.smi

> <i_m_source_file_index>
2026

> <i_lp_mmshare_version>
43012

> <i_f3d_flags>
0

> <s_epik_input>
W0NIM11jKFtjSF0xKWMoW0NIM10pW2NIXWMoYzEyKW4oW2NIXW4yKVtDSDJdW0NASF0oW09IXSlbQ0gyXU4oQzM9TylDKD1PKVtOSF1DMyhbQ0gzXSlbQ0gzXQ==

> <s_epik_cmdline>
J2VwaWtfcHl0aG9uJywgJy1waCcsICc3LjAnLCAnLXRuJywgJzgnLCAnLW1hJywgJzIwMCcsICctbWV0YWxfYmluZGluZycsICctaW1hZScsICc8aW5maWxlLm1hZT4nLCAnLW9tYWUnLCAnPG91dGZpbGUubWFlPic=

> <r_lp_tautomer_probability>
1

> <r_epik_Ionization_Penalty>
5.78785

> <r_epik_Ionization_Penalty_Charging>
5.68049

> <r_epik_Ionization_Penalty_Neutral>
0.107354

> <r_epik_State_Penalty>
5.7743

> <r_epik_Charging_Adjusted_Penalty>
11.4548

> <i_epik_Tot_Q>
-1

> <i_epik_Tot_abs_Q>
1

> <r_epik_Metal_State_Penalty>
1.83778

> <b_epik_Metal_Only>
1

> <s_lp_Force_Field>
OPLS_2005

> <r_lp_Energy>
16.8856

> <b_lp_Chiralities_Consistent>
1

> <s_lp_Variant>
AV-unprocessed.smi:2026-5

> <Gold.Version>
5.8.1

> <Gold.Id.Protein>
6NUR|6NUR_protein|mol2

> <Gold.PLP.Fitness>
52.7650

> <Gold.PLP.PLP>
-45.9519

> <Gold.PLP.part.hbond>
-3.0105

> <Gold.PLP.part.metal>
0.0000

> <Gold.PLP.part.buried>
-5.5700

> <Gold.PLP.part.nonpolar>
-37.5673

> <Gold.PLP.part.repulsive>
0.2468

> <Gold.PLP.ligand.clash>
0.0000

> <Gold.PLP.ligand.torsion>
0.6298

> <Gold.PLP.Chemscore.Hbond>
2.6880

> <Gold.PLP.Chemscore.CHOScore>
0.0000

> <Gold.PLP.Chemscore.Metal>
0.0000

> <Gold.Chemscore.Hbonds>
donor molecule, donor type, donor heavy atom, donor atom, acceptor molecule, acceptor atom, score
      L1  H    10    33       P1  7957  1.00
      P1  H  7989  7998       L1    10  0.75
      P1  H  7997  8010       L1     5  0.28

> <Gold.PLP.Chemscore.Internal.Correction>
0.0088

> <Gold.Rescore>
     Score         DG    S(hbond)    S(metal)    S(lipo)     H(rot)  DE(clash)    DE(int)     intcor
     16.57     -18.95       2.21        0.00     104.00       2.38       0.73       1.66       ----

> <Gold.Chemscore.Fitness>
16.5706

> <Gold.Chemscore.DG>
-18.9514

> <Gold.Chemscore.ZeroCoef>
-5.4800

> <Gold.Chemscore.Hbond>
2.2131

> <Gold.Chemscore.Metal>
0.0000

> <Gold.Chemscore.Lipo>
103.9989

> <Gold.Chemscore.Internal_Hbond>
0.0000

> <Gold.Chemscore.DEClash>
0.7256

> <Gold.Chemscore.DEInternal>
1.6551

> <Gold.Chemscore.Rot>
2.3783

> <Gold.Chemscore.Internal.Correction>
   9.000000E+99

> <Gold.Chemscore.Hbonds>
donor molecule, donor type, donor heavy atom, donor atom, acceptor molecule, acceptor atom, score
      L1  H    10    33       P1  7957  0.97
      P1  H  7989  7998       L1    10  0.20
      P1  H  7997  8010       L1     5  0.07

> <Gold.Chemscore.Hbond.Weighted>
-7.3919

> <Gold.Chemscore.Metal.Weighted>
-0.0000

> <Gold.Chemscore.Lipo.Weighted>
-12.1679

> <Gold.Chemscore.Internal_Hbond.Weighted>
0.0000

> <Gold.Chemscore.DEClash.Weighted>
0.7256

> <Gold.Chemscore.DEInternal.Weighted>
1.6551

> <Gold.Chemscore.Rot.Weighted>
6.0884

> <Gold.Chemscore.Internal.Correction.Weighted>
   9.000000E+99

> <Gold.Protein.RotatedTorsions>
[ 6907 6896 6895 6894 ] final  120.21 input  -60.11 | X-H torsion
[ 7974 7965 7964 7962 ] final  155.33 input  175.53 | X-H torsion
[ 8008 7997 7996 7995 ] final   57.84 input   59.86 | X-H torsion
[ 10167 10162 10161 10158 ] final -174.06 input  -65.29 | X-H torsion
[ 10718 10713 10712 10709 ] final    9.04 input   66.30 | X-H torsion
[ 10763 10752 10751 10750 ] final  -44.00 input  -60.55 | X-H torsion
[ 11005 11000 10999 10996 ] final   -2.84 input  -57.11 | X-H torsion

> <Gold.Protein.ActiveResidues>
 VAL166  LYS551  ARG553  GLY616  TRP617  ASP618  TYR619  PRO620  LYS621  CYS622 
 ASP623  PHE694  ASN695  SER759  ASP760  ASP761  ALA762  ILE779  LEU786  VAL792 
 PHE793  MET794  SER795  GLU796  ALA797  LYS798  CYS799  TRP800  GLU811  SER814 

> <Gold.Protein.RotatedAtoms>
  152.4415  133.7456  159.6665 H   0  0  0  0  0  0  0  0  0  0  0  0  # atno 6907 bound_to 6896
  150.8306  133.8086  159.3106 H   0  0  0  0  0  0  0  0  0  0  0  0  # atno 6908 bound_to 6896
  151.5741  135.1064  160.0054 H   0  0  0  0  0  0  0  0  0  0  0  0  # atno 6909 bound_to 6896
  144.8031  139.7054  143.6173 H   0  0  0  0  0  0  0  0  0  0  0  0  # atno 7974 bound_to 7965
  155.5403  140.3484  155.4445 H   0  0  0  0  0  0  0  0  0  0  0  0  # atno 8008 bound_to 7997
  156.0656  140.1350  156.9916 H   0  0  0  0  0  0  0  0  0  0  0  0  # atno 8009 bound_to 7997
  154.4501  140.0976  156.6567 H   0  0  0  0  0  0  0  0  0  0  0  0  # atno 8010 bound_to 7997
  139.5654  144.1768  152.1304 H   0  0  0  0  0  0  0  0  0  0  0  0  # atno 10167 bound_to 10162
  156.9605  130.5931  149.5662 H   0  0  0  0  0  0  0  0  0  0  0  0  # atno 10718 bound_to 10713
  154.0048  135.6689  153.4761 H   0  0  0  0  0  0  0  0  0  0  0  0  # atno 10763 bound_to 10752
  153.0646  135.5008  154.8168 H   0  0  0  0  0  0  0  0  0  0  0  0  # atno 10764 bound_to 10752
  154.7031  135.3082  154.9274 H   0  0  0  0  0  0  0  0  0  0  0  0  # atno 10765 bound_to 10752
  140.6628  133.9305  155.8447 H   0  0  0  0  0  0  0  0  0  0  0  0  # atno 11005 bound_to 11000
  146.2317  139.5827  142.9551 LP  0  0  0  0  0  0  0  0  0  0  0  0  # atno 17320 bound_to 7965
  145.5503  141.0414  143.2282 LP  0  0  0  0  0  0  0  0  0  0  0  0  # atno 17321 bound_to 7965
  140.1290  144.5305  150.6814 LP  0  0  0  0  0  0  0  0  0  0  0  0  # atno 17342 bound_to 10162
  140.6937  143.2391  151.5060 LP  0  0  0  0  0  0  0  0  0  0  0  0  # atno 17343 bound_to 10162
  156.0324  130.5415  150.8569 LP  0  0  0  0  0  0  0  0  0  0  0  0  # atno 17370 bound_to 10713
  157.5661  131.0946  150.9487 LP  0  0  0  0  0  0  0  0  0  0  0  0  # atno 17371 bound_to 10713
  141.0452  134.0564  157.3853 LP  0  0  0  0  0  0  0  0  0  0  0  0  # atno 17394 bound_to 11000
  139.9007  135.0163  156.7254 LP  0  0  0  0  0  0  0  0  0  0  0  0  # atno 17395 bound_to 11000

$$$$
