AV-unprocessed.smi:2039|AV-procd|sdf|8285|dock8
  -GOLD-   2272010553D 1   1.00000     0.00000
 Structure written by MMmdl.
 32 33  0  0  0  0  0  0  0  0  2 V2000
  154.8698  134.0390  158.3160 C   0  0  0  0  0  0  0  0  0  0  0  0
  154.5401  135.4500  158.6639 C   0  0  0  0  0  0  0  0  0  0  0  0
  153.5182  135.7777  159.4583 N   0  0  0  0  0  0  0  0  0  0  0  0
  153.4145  137.1498  159.6369 N   0  0  0  0  0  0  0  0  0  0  0  0
  154.3622  137.8383  158.9847 C   0  0  0  0  0  0  0  0  0  0  0  0
  154.4359  139.1791  159.0254 N   0  5  0  0  0  0  0  0  0  0  0  0
  153.3155  139.9122  159.2185 C   0  0  0  0  0  0  0  0  0  0  0  0
  152.1714  139.4735  159.3584 O   0  0  0  0  0  0  0  0  0  0  0  0
  153.5348  141.2349  159.2524 N   0  0  0  0  0  0  0  0  0  0  0  0
  152.5243  142.2710  159.4496 C   0  0  2  0  0  0  0  0  0  0  0  0
  151.3371  142.0644  158.4875 C   0  0  0  0  0  0  0  0  0  0  0  0
  150.2885  143.1804  158.6374 C   0  0  0  0  0  0  0  0  0  0  0  0
  150.9003  144.5850  158.4744 C   0  0  2  0  0  0  0  0  0  0  0  0
  151.2693  144.8019  157.1267 O   0  0  0  0  0  0  0  0  0  0  0  0
  152.1198  144.7831  159.3942 C   0  0  0  0  0  0  0  0  0  0  0  0
  153.1579  143.6577  159.2382 C   0  0  0  0  0  0  0  0  0  0  0  0
  155.4662  136.8158  158.0648 S   0  0  0  0  0  0  0  0  0  0  0  0
  155.4092  133.5697  159.1387 H   0  0  0  0  0  0  0  0  0  0  0  0
  155.4936  134.0050  157.4227 H   0  0  0  0  0  0  0  0  0  0  0  0
  153.9573  133.4737  158.1249 H   0  0  0  0  0  0  0  0  0  0  0  0
  154.4872  141.5469  159.1316 H   0  0  0  0  0  0  0  0  0  0  0  0
  152.1604  142.2205  160.4777 H   0  0  0  0  0  0  0  0  0  0  0  0
  151.6967  142.0371  157.4578 H   0  0  0  0  0  0  0  0  0  0  0  0
  150.8665  141.0983  158.6727 H   0  0  0  0  0  0  0  0  0  0  0  0
  149.4793  143.0332  157.9212 H   0  0  0  0  0  0  0  0  0  0  0  0
  149.8350  143.1042  159.6265 H   0  0  0  0  0  0  0  0  0  0  0  0
  150.1452  145.3324  158.7196 H   0  0  0  0  0  0  0  0  0  0  0  0
  150.5319  144.5895  156.5754 H   0  0  0  0  0  0  0  0  0  0  0  0
  152.5843  145.7513  159.2036 H   0  0  0  0  0  0  0  0  0  0  0  0
  151.7815  144.8080  160.4308 H   0  0  0  0  0  0  0  0  0  0  0  0
  153.9693  143.8087  159.9512 H   0  0  0  0  0  0  0  0  0  0  0  0
  153.6079  143.7119  158.2457 H   0  0  0  0  0  0  0  0  0  0  0  0
  1  2  1  0  0  0  0
  1 18  1  0  0  0  0
  1 19  1  0  0  0  0
  1 20  1  0  0  0  0
  2 17  1  0  0  0  0
  2  3  2  0  0  0  0
  3  4  1  0  0  0  0
  4  5  2  0  0  0  0
  5  6  1  0  0  0  0
  5 17  1  0  0  0  0
  6  7  1  0  0  0  0
  7  8  2  0  0  0  0
  7  9  1  0  0  0  0
  9 10  1  0  0  0  0
  9 21  1  0  0  0  0
 10 16  1  0  0  0  0
 10 11  1  0  0  0  0
 10 22  1  0  0  0  0
 11 12  1  0  0  0  0
 11 23  1  0  0  0  0
 11 24  1  0  0  0  0
 12 13  1  0  0  0  0
 12 25  1  0  0  0  0
 12 26  1  0  0  0  0
 13 14  1  0  0  0  0
 13 15  1  0  0  0  0
 13 27  1  0  0  0  0
 14 28  1  0  0  0  0
 15 16  1  0  0  0  0
 15 29  1  0  0  0  0
 15 30  1  0  0  0  0
 16 31  1  0  0  0  0
 16 32  1  0  0  0  0
M  CHG  1   6  -1
M  END
> <s_m_source_file>
AV-unprocessed.smi

> <i_m_source_file_index>
2039

> <i_lp_mmshare_version>
43012

> <i_f3d_flags>
0

> <s_epik_input>
W0NIM11jMW5uYyhzMSlbTkhdQyg9TylbTkhdW0NAQEhdMltDSDJdW0NIMl1bQ0BASF0oW09IXSlbQ0gyXVtDSDJdMg==

> <s_epik_cmdline>
J2VwaWtfcHl0aG9uJywgJy1waCcsICc3LjAnLCAnLXRuJywgJzgnLCAnLW1hJywgJzIwMCcsICctbWV0YWxfYmluZGluZycsICctaW1hZScsICc8aW5maWxlLm1hZT4nLCAnLW9tYWUnLCAnPG91dGZpbGUubWFlPic=

> <r_lp_tautomer_probability>
1

> <r_epik_Ionization_Penalty>
4.54927

> <r_epik_Ionization_Penalty_Charging>
4.39069

> <r_epik_Ionization_Penalty_Neutral>
0.158583

> <r_epik_State_Penalty>
4.39033

> <r_epik_Charging_Adjusted_Penalty>
8.78102

> <i_epik_Tot_Q>
-1

> <i_epik_Tot_abs_Q>
1

> <r_epik_Metal_State_Penalty>
0.767247

> <b_epik_Metal_Only>
1

> <s_lp_Force_Field>
OPLS_2005

> <r_lp_Energy>
8.24255

> <b_lp_Chiralities_Consistent>
1

> <s_lp_Variant>
AV-unprocessed.smi:2039-4

> <Gold.Version>
5.8.1

> <Gold.Id.Protein>
6NUR|6NUR_protein|mol2

> <Gold.PLP.Fitness>
36.3790

> <Gold.PLP.PLP>
-24.8565

> <Gold.PLP.part.hbond>
-3.0000

> <Gold.PLP.part.metal>
0.0000

> <Gold.PLP.part.buried>
-2.4440

> <Gold.PLP.part.nonpolar>
-19.1696

> <Gold.PLP.part.repulsive>
0.0939

> <Gold.PLP.ligand.clash>
0.0000

> <Gold.PLP.ligand.torsion>
0.2420

> <Gold.PLP.Chemscore.Hbond>
4.0000

> <Gold.PLP.Chemscore.CHOScore>
0.0000

> <Gold.PLP.Chemscore.Metal>
0.0000

> <Gold.Chemscore.Hbonds>
donor molecule, donor type, donor heavy atom, donor atom, acceptor molecule, acceptor atom, score
      L1  H    14    28       P1  8028  1.00
      P1  H  6896  6908       L1     3  1.00
      P1  H  7997  8008       L1     6  1.85

> <Gold.PLP.Chemscore.Internal.Correction>
0.0065

> <Gold.Rescore>
     Score         DG    S(hbond)    S(metal)    S(lipo)     H(rot)  DE(clash)    DE(int)     intcor
     14.27     -17.40       2.35        0.00      67.43       1.49       0.21       2.92       ----

> <Gold.Chemscore.Fitness>
14.2715

> <Gold.Chemscore.DG>
-17.3962

> <Gold.Chemscore.ZeroCoef>
-5.4800

> <Gold.Chemscore.Hbond>
2.3455

> <Gold.Chemscore.Metal>
0.0000

> <Gold.Chemscore.Lipo>
67.4324

> <Gold.Chemscore.Internal_Hbond>
0.0000

> <Gold.Chemscore.DEClash>
0.2061

> <Gold.Chemscore.DEInternal>
2.9186

> <Gold.Chemscore.Rot>
1.4873

> <Gold.Chemscore.Internal.Correction>
   9.000000E+99

> <Gold.Chemscore.Hbonds>
donor molecule, donor type, donor heavy atom, donor atom, acceptor molecule, acceptor atom, score
      L1  H    14    28       P1  8028  0.96
      P1  H  6896  6908       L1     3  0.96
      P1  H  7997  8008       L1     6  0.34

> <Gold.Chemscore.Hbond.Weighted>
-7.8341

> <Gold.Chemscore.Metal.Weighted>
-0.0000

> <Gold.Chemscore.Lipo.Weighted>
-7.8896

> <Gold.Chemscore.Internal_Hbond.Weighted>
0.0000

> <Gold.Chemscore.DEClash.Weighted>
0.2061

> <Gold.Chemscore.DEInternal.Weighted>
2.9186

> <Gold.Chemscore.Rot.Weighted>
3.8075

> <Gold.Chemscore.Internal.Correction.Weighted>
   9.000000E+99

> <Gold.Protein.RotatedTorsions>
[ 6907 6896 6895 6894 ] final  -58.97 input  -60.11 | X-H torsion
[ 7974 7965 7964 7962 ] final  -53.29 input  175.53 | X-H torsion
[ 8008 7997 7996 7995 ] final -133.62 input   59.86 | X-H torsion
[ 10167 10162 10161 10158 ] final -127.25 input  -65.29 | X-H torsion
[ 10718 10713 10712 10709 ] final  -39.61 input   66.30 | X-H torsion
[ 10763 10752 10751 10750 ] final -126.63 input  -60.55 | X-H torsion
[ 11005 11000 10999 10996 ] final  -76.62 input  -57.11 | X-H torsion

> <Gold.Protein.ActiveResidues>
 VAL166  LYS551  ARG553  GLY616  TRP617  ASP618  TYR619  PRO620  LYS621  CYS622 
 ASP623  PHE694  ASN695  SER759  ASP760  ASP761  ALA762  ILE779  LEU786  VAL792 
 PHE793  MET794  SER795  GLU796  ALA797  LYS798  CYS799  TRP800  GLU811  SER814 

> <Gold.Protein.RotatedAtoms>
  150.7966  134.7030  159.6560 H   0  0  0  0  0  0  0  0  0  0  0  0  # atno 6907 bound_to 6896
  152.4079  134.6172  160.0051 H   0  0  0  0  0  0  0  0  0  0  0  0  # atno 6908 bound_to 6896
  151.6424  133.3288  159.3169 H   0  0  0  0  0  0  0  0  0  0  0  0  # atno 6909 bound_to 6896
  145.8985  140.8014  142.9755 H   0  0  0  0  0  0  0  0  0  0  0  0  # atno 7974 bound_to 7965
  155.3484  140.0476  157.3046 H   0  0  0  0  0  0  0  0  0  0  0  0  # atno 8008 bound_to 7997
  154.5240  140.2234  155.8888 H   0  0  0  0  0  0  0  0  0  0  0  0  # atno 8009 bound_to 7997
  156.1720  140.3094  155.8996 H   0  0  0  0  0  0  0  0  0  0  0  0  # atno 8010 bound_to 7997
  139.9629  143.5930  152.2439 H   0  0  0  0  0  0  0  0  0  0  0  0  # atno 10167 bound_to 10162
  156.2905  130.4228  149.8243 H   0  0  0  0  0  0  0  0  0  0  0  0  # atno 10718 bound_to 10713
  154.8747  135.3989  154.3463 H   0  0  0  0  0  0  0  0  0  0  0  0  # atno 10763 bound_to 10752
  153.4255  135.7024  153.6271 H   0  0  0  0  0  0  0  0  0  0  0  0  # atno 10764 bound_to 10752
  153.4915  135.3747  155.2464 H   0  0  0  0  0  0  0  0  0  0  0  0  # atno 10765 bound_to 10752
  141.1655  133.6991  156.7697 H   0  0  0  0  0  0  0  0  0  0  0  0  # atno 11005 bound_to 11000
  144.6734  140.1639  143.7420 LP  0  0  0  0  0  0  0  0  0  0  0  0  # atno 17320 bound_to 7965
  145.8821  139.2328  143.1599 LP  0  0  0  0  0  0  0  0  0  0  0  0  # atno 17321 bound_to 7965
  139.6540  144.7661  151.2092 LP  0  0  0  0  0  0  0  0  0  0  0  0  # atno 17342 bound_to 10162
  140.7547  143.6115  150.8601 LP  0  0  0  0  0  0  0  0  0  0  0  0  # atno 17343 bound_to 10162
  156.5658  130.8403  151.3342 LP  0  0  0  0  0  0  0  0  0  0  0  0  # atno 17370 bound_to 10713
  157.7341  130.9741  150.2011 LP  0  0  0  0  0  0  0  0  0  0  0  0  # atno 17371 bound_to 10713
  140.2473  134.8567  157.3633 LP  0  0  0  0  0  0  0  0  0  0  0  0  # atno 17394 bound_to 11000
  140.1737  134.4577  155.7815 LP  0  0  0  0  0  0  0  0  0  0  0  0  # atno 17395 bound_to 11000

$$$$
