AV-unprocessed.smi:2237|AV-procd|sdf|9051|dock10
  -GOLD-   2272012253D 1   1.00000     0.00000
 Structure written by MMmdl.
 54 56  0  0  0  0  0  0  0  0  2 V2000
  151.9902  145.9384  159.9380 C   0  0  0  0  0  0  0  0  0  0  0  0
  152.1168  144.4970  159.4915 C   0  0  0  0  0  0  0  0  0  0  0  0
  151.5478  144.0609  158.2788 C   0  0  0  0  0  0  0  0  0  0  0  0
  151.7044  142.7097  157.9215 C   0  0  0  0  0  0  0  0  0  0  0  0
  152.4192  141.8571  158.7846 C   0  0  0  0  0  0  0  0  0  0  0  0
  152.9593  142.3748  159.9835 C   0  0  0  0  0  0  0  0  0  0  0  0
  153.6658  141.4348  160.7793 N   0  0  0  0  0  0  0  0  0  0  0  0
  154.2898  140.3113  160.3839 C   0  0  0  0  0  0  0  0  0  0  0  0
  154.3787  139.9153  159.2211 O   0  0  0  0  0  0  0  0  0  0  0  0
  154.8206  139.6603  161.4292 N   0  0  0  0  0  0  0  0  0  0  0  0
  155.5592  138.4034  161.3531 C   0  0  0  0  0  0  0  0  0  0  0  0
  154.5867  137.2391  161.1483 C   0  0  0  0  0  0  0  0  0  0  0  0
  155.3182  135.8866  161.1920 C   0  0  0  0  0  0  0  0  0  0  0  0
  156.0105  135.6837  162.4756 N   0  0  0  0  0  0  0  0  0  0  0  0
  156.6420  134.3464  162.5614 C   0  0  2  0  0  0  0  0  0  0  0  0
  155.6548  133.1681  162.3558 C   0  0  0  0  0  0  0  0  0  0  0  0
  154.6554  133.0463  163.5204 C   0  0  0  0  0  0  0  0  0  0  0  0
  155.3606  132.8724  164.8139 N   0  3  2  0  0  0  0  0  0  0  0  0
  154.4259  132.6719  165.9418 C   0  0  0  0  0  0  0  0  0  0  0  0
  156.3354  133.9600  165.0737 C   0  0  0  0  0  0  0  0  0  0  0  0
  157.3454  134.0878  163.9190 C   0  0  0  0  0  0  0  0  0  0  0  0
  157.0062  136.7587  162.6260 C   0  0  0  0  0  0  0  0  0  0  0  0
  156.3476  138.1490  162.6431 C   0  0  0  0  0  0  0  0  0  0  0  0
  152.8024  143.6794  160.3194 N   0  0  0  0  0  0  0  0  0  0  0  0
  151.2890  146.4873  159.3086 H   0  0  0  0  0  0  0  0  0  0  0  0
  152.9589  146.4358  159.8849 H   0  0  0  0  0  0  0  0  0  0  0  0
  151.6337  145.9894  160.9672 H   0  0  0  0  0  0  0  0  0  0  0  0
  151.0060  144.7404  157.6374 H   0  0  0  0  0  0  0  0  0  0  0  0
  151.2847  142.3327  157.0008 H   0  0  0  0  0  0  0  0  0  0  0  0
  152.5495  140.8167  158.5240 H   0  0  0  0  0  0  0  0  0  0  0  0
  153.6917  141.6374  161.7675 H   0  0  0  0  0  0  0  0  0  0  0  0
  154.6997  140.0604  162.3481 H   0  0  0  0  0  0  0  0  0  0  0  0
  156.2487  138.4340  160.5071 H   0  0  0  0  0  0  0  0  0  0  0  0
  153.8135  137.2548  161.9180 H   0  0  0  0  0  0  0  0  0  0  0  0
  154.0731  137.3477  160.1923 H   0  0  0  0  0  0  0  0  0  0  0  0
  154.5545  135.1296  161.0336 H   0  0  0  0  0  0  0  0  0  0  0  0
  156.0271  135.8094  160.3660 H   0  0  0  0  0  0  0  0  0  0  0  0
  157.3932  134.2952  161.7715 H   0  0  0  0  0  0  0  0  0  0  0  0
  155.1369  133.2032  161.3995 H   0  0  0  0  0  0  0  0  0  0  0  0
  156.2309  132.2429  162.3054 H   0  0  0  0  0  0  0  0  0  0  0  0
  154.0173  133.9305  163.5637 H   0  0  0  0  0  0  0  0  0  0  0  0
  153.9998  132.1918  163.3488 H   0  0  0  0  0  0  0  0  0  0  0  0
  153.7963  133.5504  166.0892 H   0  0  0  0  0  0  0  0  0  0  0  0
  154.9721  132.4832  166.8666 H   0  0  0  0  0  0  0  0  0  0  0  0
  153.7785  131.8139  165.7572 H   0  0  0  0  0  0  0  0  0  0  0  0
  155.8063  134.9032  165.2196 H   0  0  0  0  0  0  0  0  0  0  0  0
  156.8698  133.7508  166.0012 H   0  0  0  0  0  0  0  0  0  0  0  0
  157.8985  133.1503  163.8459 H   0  0  0  0  0  0  0  0  0  0  0  0
  158.1093  134.8244  164.1569 H   0  0  0  0  0  0  0  0  0  0  0  0
  157.5469  136.6700  163.5642 H   0  0  0  0  0  0  0  0  0  0  0  0
  157.7452  136.6993  161.8254 H   0  0  0  0  0  0  0  0  0  0  0  0
  157.1138  138.9146  162.7709 H   0  0  0  0  0  0  0  0  0  0  0  0
  155.6875  138.2259  163.5085 H   0  0  0  0  0  0  0  0  0  0  0  0
  155.8988  132.0214  164.7334 H   0  0  0  0  0  0  0  0  0  0  0  0
  1  2  1  0  0  0  0
  1 25  1  0  0  0  0
  1 26  1  0  0  0  0
  1 27  1  0  0  0  0
  2 24  1  0  0  0  0
  2  3  2  0  0  0  0
  3  4  1  0  0  0  0
  3 28  1  0  0  0  0
  4  5  2  0  0  0  0
  4 29  1  0  0  0  0
  5  6  1  0  0  0  0
  5 30  1  0  0  0  0
  6  7  1  0  0  0  0
  6 24  2  0  0  0  0
  7  8  1  0  0  0  0
  7 31  1  0  0  0  0
  8  9  2  0  0  0  0
  8 10  1  0  0  0  0
 10 11  1  0  0  0  0
 10 32  1  0  0  0  0
 11 23  1  0  0  0  0
 11 12  1  0  0  0  0
 11 33  1  0  0  0  0
 12 13  1  0  0  0  0
 12 34  1  0  0  0  0
 12 35  1  0  0  0  0
 13 14  1  0  0  0  0
 13 36  1  0  0  0  0
 13 37  1  0  0  0  0
 14 15  1  0  0  0  0
 14 22  1  0  0  0  0
 15 21  1  0  0  0  0
 15 16  1  0  0  0  0
 15 38  1  0  0  0  0
 16 17  1  0  0  0  0
 16 39  1  0  0  0  0
 16 40  1  0  0  0  0
 17 18  1  0  0  0  0
 17 41  1  0  0  0  0
 17 42  1  0  0  0  0
 18 19  1  0  0  0  0
 18 20  1  0  0  0  0
 18 54  1  0  0  0  0
 19 43  1  0  0  0  0
 19 44  1  0  0  0  0
 19 45  1  0  0  0  0
 20 21  1  0  0  0  0
 20 46  1  0  0  0  0
 20 47  1  0  0  0  0
 21 48  1  0  0  0  0
 21 49  1  0  0  0  0
 22 23  1  0  0  0  0
 22 50  1  0  0  0  0
 22 51  1  0  0  0  0
 23 52  1  0  0  0  0
 23 53  1  0  0  0  0
M  CHG  1  18   1
M  END
> <s_m_source_file>
AV-unprocessed.smi

> <i_m_source_file_index>
2237

> <i_lp_mmshare_version>
43012

> <i_f3d_flags>
0

> <s_epik_input>
W0NIM11jMVtjSF1bY0hdW2NIXWMobjEpW05IXUMoPU8pW05IXVtDSF0yW0NIMl1bQ0gyXU4oW0NIMl1bQ0gyXTIpW0NIXTNbQ0gyXVtDSDJdTihbQ0gzXSlbQ0gyXVtDSDJdMw==

> <s_epik_cmdline>
J2VwaWtfcHl0aG9uJywgJy1waCcsICc3LjAnLCAnLXRuJywgJzgnLCAnLW1hJywgJzIwMCcsICctbWV0YWxfYmluZGluZycsICctaW1hZScsICc8aW5maWxlLm1hZT4nLCAnLW9tYWUnLCAnPG91dGZpbGUubWFlPic=

> <r_epik_Ionization_Penalty>
1.00983

> <r_epik_Ionization_Penalty_Charging>
0.000974969

> <r_epik_Ionization_Penalty_Neutral>
1.00886

> <r_epik_State_Penalty>
1.10286

> <r_epik_Charging_Adjusted_Penalty>
1.10383

> <i_epik_Tot_Q>
1

> <i_epik_Tot_abs_Q>
1

> <r_epik_Metal_State_Penalty>
1.10284

> <b_epik_Metal_Only>
0

> <s_lp_Force_Field>
OPLS_2005

> <r_lp_Energy>
36.6088

> <b_lp_Chiralities_Consistent>
1

> <s_lp_Variant>
AV-unprocessed.smi:2237-6

> <Gold.Version>
5.8.1

> <Gold.Id.Protein>
6NUR|6NUR_protein|mol2

> <Gold.PLP.Fitness>
39.3395

> <Gold.PLP.PLP>
-37.0514

> <Gold.PLP.part.hbond>
-1.0000

> <Gold.PLP.part.metal>
0.0000

> <Gold.PLP.part.buried>
-5.4341

> <Gold.PLP.part.nonpolar>
-29.5209

> <Gold.PLP.part.repulsive>
0.0935

> <Gold.PLP.ligand.clash>
0.0000

> <Gold.PLP.ligand.torsion>
0.3568

> <Gold.PLP.Chemscore.Hbond>
1.0000

> <Gold.PLP.Chemscore.CHOScore>
0.0000

> <Gold.PLP.Chemscore.Metal>
0.0000

> <Gold.Chemscore.Hbonds>
donor molecule, donor type, donor heavy atom, donor atom, acceptor molecule, acceptor atom, score
      P1  H  7997  8008       L1     9  1.00

> <Gold.PLP.Chemscore.Internal.Correction>
0.0018

> <Gold.Rescore>
     Score         DG    S(hbond)    S(metal)    S(lipo)     H(rot)  DE(clash)    DE(int)     intcor
     15.74     -17.48       1.00        0.00     100.69       1.22       0.03       1.71       ----

> <Gold.Chemscore.Fitness>
15.7412

> <Gold.Chemscore.DG>
-17.4783

> <Gold.Chemscore.ZeroCoef>
-5.4800

> <Gold.Chemscore.Hbond>
0.9986

> <Gold.Chemscore.Metal>
0.0000

> <Gold.Chemscore.Lipo>
100.6911

> <Gold.Chemscore.Internal_Hbond>
0.0000

> <Gold.Chemscore.DEClash>
0.0256

> <Gold.Chemscore.DEInternal>
1.7114

> <Gold.Chemscore.Rot>
1.2179

> <Gold.Chemscore.Internal.Correction>
   9.000000E+99

> <Gold.Chemscore.Hbonds>
donor molecule, donor type, donor heavy atom, donor atom, acceptor molecule, acceptor atom, score
      P1  H  7997  8008       L1     9  0.92

> <Gold.Chemscore.Hbond.Weighted>
-3.3352

> <Gold.Chemscore.Metal.Weighted>
-0.0000

> <Gold.Chemscore.Lipo.Weighted>
-11.7809

> <Gold.Chemscore.Internal_Hbond.Weighted>
0.0000

> <Gold.Chemscore.DEClash.Weighted>
0.0256

> <Gold.Chemscore.DEInternal.Weighted>
1.7114

> <Gold.Chemscore.Rot.Weighted>
3.1177

> <Gold.Chemscore.Internal.Correction.Weighted>
   9.000000E+99

> <Gold.Protein.RotatedTorsions>
[ 6907 6896 6895 6894 ] final -175.61 input  -60.11 | X-H torsion
[ 7974 7965 7964 7962 ] final -122.29 input  175.53 | X-H torsion
[ 8008 7997 7996 7995 ] final -120.59 input   59.86 | X-H torsion
[ 10167 10162 10161 10158 ] final  -40.05 input  -65.29 | X-H torsion
[ 10718 10713 10712 10709 ] final  -41.74 input   66.30 | X-H torsion
[ 10763 10752 10751 10750 ] final  -78.34 input  -60.55 | X-H torsion
[ 11005 11000 10999 10996 ] final  103.24 input  -57.11 | X-H torsion

> <Gold.Protein.ActiveResidues>
 VAL166  LYS551  ARG553  GLY616  TRP617  ASP618  TYR619  PRO620  LYS621  CYS622 
 ASP623  PHE694  ASN695  SER759  ASP760  ASP761  ALA762  ILE779  LEU786  VAL792 
 PHE793  MET794  SER795  GLU796  ALA797  LYS798  CYS799  TRP800  GLU811  SER814 

> <Gold.Protein.RotatedAtoms>
  151.5914  133.3366  159.3028 H   0  0  0  0  0  0  0  0  0  0  0  0  # atno 6907 bound_to 6896
  150.8258  134.7491  159.6823 H   0  0  0  0  0  0  0  0  0  0  0  0  # atno 6908 bound_to 6896
  152.4347  134.5715  159.9974 H   0  0  0  0  0  0  0  0  0  0  0  0  # atno 6909 bound_to 6896
  145.0310  140.8068  143.4323 H   0  0  0  0  0  0  0  0  0  0  0  0  # atno 7974 bound_to 7965
  155.1342  140.0400  157.2782 H   0  0  0  0  0  0  0  0  0  0  0  0  # atno 8008 bound_to 7997
  154.6520  140.2571  155.7177 H   0  0  0  0  0  0  0  0  0  0  0  0  # atno 8009 bound_to 7997
  156.2581  140.2834  156.0957 H   0  0  0  0  0  0  0  0  0  0  0  0  # atno 8010 bound_to 7997
  140.7046  143.3177  151.2869 H   0  0  0  0  0  0  0  0  0  0  0  0  # atno 10167 bound_to 10162
  156.2671  130.4203  149.8479 H   0  0  0  0  0  0  0  0  0  0  0  0  # atno 10718 bound_to 10713
  154.5246  135.5733  153.6709 H   0  0  0  0  0  0  0  0  0  0  0  0  # atno 10763 bound_to 10752
  152.9925  135.6190  154.2709 H   0  0  0  0  0  0  0  0  0  0  0  0  # atno 10764 bound_to 10752
  154.2632  135.2855  155.2749 H   0  0  0  0  0  0  0  0  0  0  0  0  # atno 10765 bound_to 10752
  139.8782  134.9255  156.5179 H   0  0  0  0  0  0  0  0  0  0  0  0  # atno 11005 bound_to 11000
  145.1770  139.2372  143.5312 LP  0  0  0  0  0  0  0  0  0  0  0  0  # atno 17320 bound_to 7965
  146.3498  140.1535  142.8592 LP  0  0  0  0  0  0  0  0  0  0  0  0  # atno 17321 bound_to 7965
  139.6621  144.0171  152.2699 LP  0  0  0  0  0  0  0  0  0  0  0  0  # atno 17342 bound_to 10162
  139.9742  144.6473  150.7961 LP  0  0  0  0  0  0  0  0  0  0  0  0  # atno 17343 bound_to 10162
  156.5973  130.8532  151.3423 LP  0  0  0  0  0  0  0  0  0  0  0  0  # atno 17370 bound_to 10713
  157.7271  130.9638  150.1684 LP  0  0  0  0  0  0  0  0  0  0  0  0  # atno 17371 bound_to 10713
  140.8472  133.8159  155.9133 LP  0  0  0  0  0  0  0  0  0  0  0  0  # atno 17394 bound_to 11000
  140.9180  134.2178  157.4945 LP  0  0  0  0  0  0  0  0  0  0  0  0  # atno 17395 bound_to 11000

$$$$
