AV-unprocessed.smi:1433|AV-procd|sdf|5839|dock4
  -GOLD-   22720 5503D 1   1.00000     0.00000
 Structure written by MMmdl.
 44 45  0  0  0  0  0  0  0  0  1 V2000
  151.6588  145.6207  159.5614 C   0  0  0  0  0  0  0  0  0  0  0  0
  151.8595  144.2483  158.9101 C   0  0  1  0  0  0  0  0  0  0  0  0
  152.3934  143.2053  159.9099 C   0  0  0  0  0  0  0  0  0  0  0  0
  152.5045  141.8724  159.3160 N   0  0  0  0  0  0  0  0  0  0  0  0
  153.0700  140.8650  160.2393 C   0  0  2  0  0  0  0  0  0  0  0  0
  154.5071  141.1888  160.7089 C   0  0  0  0  0  0  0  0  0  0  0  0
  153.0686  139.4240  159.6644 C   0  0  0  0  0  0  0  0  0  0  0  0
  153.7063  138.4760  160.5765 N   0  0  0  0  0  0  0  0  0  0  0  0
  153.3322  137.2022  160.7759 C   0  0  0  0  0  0  0  0  0  0  0  0
  152.3511  136.6854  160.2426 O   0  0  0  0  0  0  0  0  0  0  0  0
  154.2104  136.3748  161.7150 C   0  0  0  0  0  0  0  0  0  0  0  0
  153.5471  136.1349  162.9842 N   0  0  0  0  0  0  0  0  0  0  0  0
  152.9628  137.0526  163.8326 C   0  0  0  0  0  0  0  0  0  0  0  0
  152.4676  136.3610  164.9009 C   0  0  0  0  0  0  0  0  0  0  0  0
  152.8001  135.0080  164.6110 C   0  0  0  0  0  0  0  0  0  0  0  0
  153.4466  134.8757  163.4639 N   0  0  0  0  0  0  0  0  0  0  0  0
  151.1809  141.4941  158.8134 C   0  0  0  0  0  0  0  0  0  0  0  0
  150.6031  142.5142  157.8148 C   0  0  2  0  0  0  0  0  0  0  0  0
  151.3070  142.4855  156.4467 C   0  0  0  0  0  0  0  0  0  0  0  0
  150.6038  143.8195  158.3905 O   0  0  0  0  0  0  0  0  0  0  0  0
  152.5943  146.0007  159.9726 H   0  0  0  0  0  0  0  0  0  0  0  0
  150.9322  145.5700  160.3728 H   0  0  0  0  0  0  0  0  0  0  0  0
  151.2958  146.3472  158.8342 H   0  0  0  0  0  0  0  0  0  0  0  0
  152.5697  144.3602  158.0905 H   0  0  0  0  0  0  0  0  0  0  0  0
  153.3665  143.5543  160.2515 H   0  0  0  0  0  0  0  0  0  0  0  0
  151.7455  143.1662  160.7871 H   0  0  0  0  0  0  0  0  0  0  0  0
  152.4487  140.8452  161.1361 H   0  0  0  0  0  0  0  0  0  0  0  0
  154.9269  140.3689  161.2923 H   0  0  0  0  0  0  0  0  0  0  0  0
  154.5383  142.0647  161.3563 H   0  0  0  0  0  0  0  0  0  0  0  0
  155.1747  141.3682  159.8653 H   0  0  0  0  0  0  0  0  0  0  0  0
  152.0417  139.0908  159.5127 H   0  0  0  0  0  0  0  0  0  0  0  0
  153.5129  139.3907  158.6698 H   0  0  0  0  0  0  0  0  0  0  0  0
  154.5256  138.8046  161.0672 H   0  0  0  0  0  0  0  0  0  0  0  0
  154.4443  135.4131  161.2566 H   0  0  0  0  0  0  0  0  0  0  0  0
  155.1586  136.8878  161.8848 H   0  0  0  0  0  0  0  0  0  0  0  0
  152.9507  138.1092  163.6078 H   0  0  0  0  0  0  0  0  0  0  0  0
  151.9467  136.7604  165.7582 H   0  0  0  0  0  0  0  0  0  0  0  0
  152.5925  134.1241  165.1958 H   0  0  0  0  0  0  0  0  0  0  0  0
  151.2082  140.5258  158.3200 H   0  0  0  0  0  0  0  0  0  0  0  0
  150.4921  141.3889  159.6531 H   0  0  0  0  0  0  0  0  0  0  0  0
  149.5579  142.2577  157.6403 H   0  0  0  0  0  0  0  0  0  0  0  0
  151.1984  141.5080  155.9764 H   0  0  0  0  0  0  0  0  0  0  0  0
  152.3751  142.6863  156.5302 H   0  0  0  0  0  0  0  0  0  0  0  0
  150.8781  143.2265  155.7722 H   0  0  0  0  0  0  0  0  0  0  0  0
  1  2  1  0  0  0  0
  1 21  1  0  0  0  0
  1 22  1  0  0  0  0
  1 23  1  0  0  0  0
  2 20  1  0  0  0  0
  2  3  1  0  0  0  0
  2 24  1  0  0  0  0
  3  4  1  0  0  0  0
  3 25  1  0  0  0  0
  3 26  1  0  0  0  0
  4  5  1  0  0  0  0
  4 17  1  0  0  0  0
  5  6  1  0  0  0  0
  5  7  1  0  0  0  0
  5 27  1  0  0  0  0
  6 28  1  0  0  0  0
  6 29  1  0  0  0  0
  6 30  1  0  0  0  0
  7  8  1  0  0  0  0
  7 31  1  0  0  0  0
  7 32  1  0  0  0  0
  8  9  1  0  0  0  0
  8 33  1  0  0  0  0
  9 10  2  0  0  0  0
  9 11  1  0  0  0  0
 11 12  1  0  0  0  0
 11 34  1  0  0  0  0
 11 35  1  0  0  0  0
 12 16  1  0  0  0  0
 12 13  1  0  0  0  0
 13 14  2  0  0  0  0
 13 36  1  0  0  0  0
 14 15  1  0  0  0  0
 14 37  1  0  0  0  0
 15 16  2  0  0  0  0
 15 38  1  0  0  0  0
 17 18  1  0  0  0  0
 17 39  1  0  0  0  0
 17 40  1  0  0  0  0
 18 19  1  0  0  0  0
 18 20  1  0  0  0  0
 18 41  1  0  0  0  0
 19 42  1  0  0  0  0
 19 43  1  0  0  0  0
 19 44  1  0  0  0  0
M  END
> <s_m_source_file>
AV-unprocessed.smi

> <i_m_source_file_index>
1433

> <i_lp_mmshare_version>
43012

> <i_f3d_flags>
0

> <s_epik_input>
W0NIM11bQ0BASF0xW0NIMl1OKFtDSDJdW0NASF0oTzEpW0NIM10pW0NASF0oW0NIM10pW0NIMl1bTkhdQyg9TylbQ0gyXW4yW2NIXVtjSF1bY0hdbjI=

> <s_epik_cmdline>
J2VwaWtfcHl0aG9uJywgJy1waCcsICc3LjAnLCAnLXRuJywgJzgnLCAnLW1hJywgJzIwMCcsICctbWV0YWxfYmluZGluZycsICctaW1hZScsICc8aW5maWxlLm1hZT4nLCAnLW9tYWUnLCAnPG91dGZpbGUubWFlPic=

> <r_lp_tautomer_probability>
1

> <r_epik_Ionization_Penalty>
0.196927

> <r_epik_Ionization_Penalty_Charging>
0

> <r_epik_Ionization_Penalty_Neutral>
0.196927

> <r_epik_State_Penalty>
0.186684

> <r_epik_Charging_Adjusted_Penalty>
0.186684

> <i_epik_Tot_Q>
0

> <i_epik_Tot_abs_Q>
0

> <r_epik_Metal_State_Penalty>
0.186682

> <b_epik_Metal_Only>
0

> <s_lp_Force_Field>
OPLS_2005

> <r_lp_Energy>
34.0923

> <b_lp_Chiralities_Consistent>
1

> <s_lp_Variant>
AV-unprocessed.smi:1433-5

> <Gold.Version>
5.8.1

> <Gold.Id.Protein>
6NUR|6NUR_protein|mol2

> <Gold.PLP.Fitness>
44.8542

> <Gold.PLP.PLP>
-42.6579

> <Gold.PLP.part.hbond>
-1.0000

> <Gold.PLP.part.metal>
0.0000

> <Gold.PLP.part.buried>
-3.3892

> <Gold.PLP.part.nonpolar>
-37.4738

> <Gold.PLP.part.repulsive>
0.1889

> <Gold.PLP.ligand.clash>
0.0000

> <Gold.PLP.ligand.torsion>
0.4358

> <Gold.PLP.Chemscore.Hbond>
1.0000

> <Gold.PLP.Chemscore.CHOScore>
0.0000

> <Gold.PLP.Chemscore.Metal>
0.0000

> <Gold.Chemscore.Hbonds>
donor molecule, donor type, donor heavy atom, donor atom, acceptor molecule, acceptor atom, score
      P1  H  6896  6909       L1    10  1.00

> <Gold.PLP.Chemscore.Internal.Correction>
0.0680

> <Gold.Rescore>
     Score         DG    S(hbond)    S(metal)    S(lipo)     H(rot)  DE(clash)    DE(int)     intcor
     17.56     -17.89       0.99        0.00     117.33       1.80       0.05       0.29       ----

> <Gold.Chemscore.Fitness>
17.5564

> <Gold.Chemscore.DG>
-17.8940

> <Gold.Chemscore.ZeroCoef>
-5.4800

> <Gold.Chemscore.Hbond>
0.9893

> <Gold.Chemscore.Metal>
0.0000

> <Gold.Chemscore.Lipo>
117.3282

> <Gold.Chemscore.Internal_Hbond>
0.0000

> <Gold.Chemscore.DEClash>
0.0451

> <Gold.Chemscore.DEInternal>
0.2925

> <Gold.Chemscore.Rot>
1.8038

> <Gold.Chemscore.Internal.Correction>
   9.000000E+99

> <Gold.Chemscore.Hbonds>
donor molecule, donor type, donor heavy atom, donor atom, acceptor molecule, acceptor atom, score
      P1  H  6896  6909       L1    10  1.00

> <Gold.Chemscore.Hbond.Weighted>
-3.3044

> <Gold.Chemscore.Metal.Weighted>
-0.0000

> <Gold.Chemscore.Lipo.Weighted>
-13.7274

> <Gold.Chemscore.Internal_Hbond.Weighted>
0.0000

> <Gold.Chemscore.DEClash.Weighted>
0.0451

> <Gold.Chemscore.DEInternal.Weighted>
0.2925

> <Gold.Chemscore.Rot.Weighted>
4.6178

> <Gold.Chemscore.Internal.Correction.Weighted>
   9.000000E+99

> <Gold.Protein.RotatedTorsions>
[ 6907 6896 6895 6894 ] final  136.74 input  -60.11 | X-H torsion
[ 7974 7965 7964 7962 ] final  140.43 input  175.53 | X-H torsion
[ 8008 7997 7996 7995 ] final -115.45 input   59.86 | X-H torsion
[ 10167 10162 10161 10158 ] final  -83.52 input  -65.29 | X-H torsion
[ 10718 10713 10712 10709 ] final   25.30 input   66.30 | X-H torsion
[ 10763 10752 10751 10750 ] final  118.83 input  -60.55 | X-H torsion
[ 11005 11000 10999 10996 ] final  136.75 input  -57.11 | X-H torsion

> <Gold.Protein.ActiveResidues>
 VAL166  LYS551  ARG553  GLY616  TRP617  ASP618  TYR619  PRO620  LYS621  CYS622 
 ASP623  PHE694  ASN695  SER759  ASP760  ASP761  ALA762  ILE779  LEU786  VAL792 
 PHE793  MET794  SER795  GLU796  ALA797  LYS798  CYS799  TRP800  GLU811  SER814 

> <Gold.Protein.RotatedAtoms>
  152.2859  133.5515  159.5526 H   0  0  0  0  0  0  0  0  0  0  0  0  # atno 6907 bound_to 6896
  150.7215  134.0497  159.3803 H   0  0  0  0  0  0  0  0  0  0  0  0  # atno 6908 bound_to 6896
  151.8406  135.0592  160.0498 H   0  0  0  0  0  0  0  0  0  0  0  0  # atno 6909 bound_to 6896
  144.9187  139.5196  143.5674 H   0  0  0  0  0  0  0  0  0  0  0  0  # atno 7974 bound_to 7965
  155.0523  140.0393  157.2548 H   0  0  0  0  0  0  0  0  0  0  0  0  # atno 8008 bound_to 7997
  154.7127  140.2696  155.6590 H   0  0  0  0  0  0  0  0  0  0  0  0  # atno 8009 bound_to 7997
  156.2794  140.2718  156.1774 H   0  0  0  0  0  0  0  0  0  0  0  0  # atno 8010 bound_to 7997
  140.4219  143.2581  151.8878 H   0  0  0  0  0  0  0  0  0  0  0  0  # atno 10167 bound_to 10162
  157.1915  130.6848  149.6152 H   0  0  0  0  0  0  0  0  0  0  0  0  # atno 10718 bound_to 10713
  153.5737  135.3497  155.2848 H   0  0  0  0  0  0  0  0  0  0  0  0  # atno 10763 bound_to 10752
  154.8678  135.4165  154.2697 H   0  0  0  0  0  0  0  0  0  0  0  0  # atno 10764 bound_to 10752
  153.3468  135.7053  153.6891 H   0  0  0  0  0  0  0  0  0  0  0  0  # atno 10765 bound_to 10752
  140.0067  134.9456  157.0191 H   0  0  0  0  0  0  0  0  0  0  0  0  # atno 11005 bound_to 11000
  146.3194  139.8050  142.8957 LP  0  0  0  0  0  0  0  0  0  0  0  0  # atno 17320 bound_to 7965
  145.3332  141.0271  143.3434 LP  0  0  0  0  0  0  0  0  0  0  0  0  # atno 17321 bound_to 7965
  139.4783  144.5428  151.8502 LP  0  0  0  0  0  0  0  0  0  0  0  0  # atno 17342 bound_to 10162
  140.4524  144.1836  150.5898 LP  0  0  0  0  0  0  0  0  0  0  0  0  # atno 17343 bound_to 10162
  155.9711  130.4613  150.6104 LP  0  0  0  0  0  0  0  0  0  0  0  0  # atno 17370 bound_to 10713
  157.3855  131.0787  151.1439 LP  0  0  0  0  0  0  0  0  0  0  0  0  # atno 17371 bound_to 10713
  140.4628  134.1467  155.7193 LP  0  0  0  0  0  0  0  0  0  0  0  0  # atno 17394 bound_to 11000
  141.1682  133.8661  157.1651 LP  0  0  0  0  0  0  0  0  0  0  0  0  # atno 17395 bound_to 11000

$$$$
