AV-unprocessed.smi:3170|AV-procd|sdf|12110|dock8
  -GOLD-   2272017553D 1   1.00000     0.00000
 Structure written by MMmdl.
 35 36  0  0  0  0  0  0  0  0  1 V2000
  145.4390  136.1688  154.6310 O   0  0  0  0  0  0  0  0  0  0  0  0
  146.4327  136.1983  153.9050 C   0  0  0  0  0  0  0  0  0  0  0  0
  146.8320  135.1763  153.1356 N   0  0  0  0  0  0  0  0  0  0  0  0
  146.1519  133.8887  153.0316 C   0  0  0  0  0  0  0  0  0  0  0  0
  146.5081  133.1337  151.7366 C   0  0  0  0  0  0  0  0  0  0  0  0
  145.3318  132.7720  150.9684 N   0  0  0  0  0  0  0  0  0  0  0  0
  144.6770  133.5486  150.0222 C   0  0  0  0  0  0  0  0  0  0  0  0
  143.6182  132.7981  149.5627 C   0  0  0  0  0  0  0  0  0  0  0  0
  143.6020  131.5645  150.2093 N   0  0  0  0  0  0  0  0  0  0  0  0
  144.6473  131.6211  151.0243 C   0  0  0  0  0  0  0  0  0  0  0  0
  147.2415  137.2583  153.7838 N   0  0  0  0  0  0  0  0  0  0  0  0
  147.0536  138.5194  154.4888 C   0  0  0  0  0  0  0  0  0  0  0  0
  148.1549  139.5268  154.1206 C   0  0  1  0  0  0  0  0  0  0  0  0
  148.1236  140.7996  154.9410 C   0  0  0  0  0  0  0  0  0  0  0  0
  149.5273  141.3537  154.7172 C   0  0  0  0  0  0  0  0  0  0  0  0
  150.3697  140.2186  154.5370 O   0  0  0  0  0  0  0  0  0  0  0  0
  149.5809  139.0417  154.3875 C   0  0  0  0  0  0  0  0  0  0  0  0
  147.6610  135.2991  152.5729 H   0  0  0  0  0  0  0  0  0  0  0  0
  146.4223  133.2870  153.9000 H   0  0  0  0  0  0  0  0  0  0  0  0
  145.0733  134.0421  153.0888 H   0  0  0  0  0  0  0  0  0  0  0  0
  147.1452  133.7578  151.1091 H   0  0  0  0  0  0  0  0  0  0  0  0
  147.0793  132.2304  151.9549 H   0  0  0  0  0  0  0  0  0  0  0  0
  145.0086  134.5430  149.7622 H   0  0  0  0  0  0  0  0  0  0  0  0
  142.8723  133.0491  148.8231 H   0  0  0  0  0  0  0  0  0  0  0  0
  144.9183  130.8086  151.6825 H   0  0  0  0  0  0  0  0  0  0  0  0
  148.0334  137.1918  153.1614 H   0  0  0  0  0  0  0  0  0  0  0  0
  146.0755  138.9264  154.2290 H   0  0  0  0  0  0  0  0  0  0  0  0
  147.0507  138.3435  155.5659 H   0  0  0  0  0  0  0  0  0  0  0  0
  148.0663  139.7941  153.0659 H   0  0  0  0  0  0  0  0  0  0  0  0
  147.3397  141.4913  154.6311 H   0  0  0  0  0  0  0  0  0  0  0  0
  147.9786  140.5693  155.9975 H   0  0  0  0  0  0  0  0  0  0  0  0
  149.5583  141.9554  153.8081 H   0  0  0  0  0  0  0  0  0  0  0  0
  149.8663  141.9751  155.5462 H   0  0  0  0  0  0  0  0  0  0  0  0
  149.6294  138.4757  155.3188 H   0  0  0  0  0  0  0  0  0  0  0  0
  149.9630  138.4071  153.5875 H   0  0  0  0  0  0  0  0  0  0  0  0
  1  2  2  0  0  0  0
  2  3  1  0  0  0  0
  2 11  1  0  0  0  0
  3  4  1  0  0  0  0
  3 18  1  0  0  0  0
  4  5  1  0  0  0  0
  4 19  1  0  0  0  0
  4 20  1  0  0  0  0
  5  6  1  0  0  0  0
  5 21  1  0  0  0  0
  5 22  1  0  0  0  0
  6 10  1  0  0  0  0
  6  7  1  0  0  0  0
  7  8  2  0  0  0  0
  7 23  1  0  0  0  0
  8  9  1  0  0  0  0
  8 24  1  0  0  0  0
  9 10  2  0  0  0  0
 10 25  1  0  0  0  0
 11 12  1  0  0  0  0
 11 26  1  0  0  0  0
 12 13  1  0  0  0  0
 12 27  1  0  0  0  0
 12 28  1  0  0  0  0
 13 17  1  0  0  0  0
 13 14  1  0  0  0  0
 13 29  1  0  0  0  0
 14 15  1  0  0  0  0
 14 30  1  0  0  0  0
 14 31  1  0  0  0  0
 15 16  1  0  0  0  0
 15 32  1  0  0  0  0
 15 33  1  0  0  0  0
 16 17  1  0  0  0  0
 17 34  1  0  0  0  0
 17 35  1  0  0  0  0
M  END
> <s_m_source_file>
AV-unprocessed.smi

> <i_m_source_file_index>
3170

> <i_lp_mmshare_version>
43012

> <i_f3d_flags>
0

> <s_epik_input>
W0NIMl0xT1tDSDJdW0NIMl1bQ0BIXTFbQ0gyXVtOSF1DKD1PKVtOSF1bQ0gyXVtDSDJdbjJbY0hdW2NIXW5bY0hdMg==

> <s_epik_cmdline>
J2VwaWtfcHl0aG9uJywgJy1waCcsICc3LjAnLCAnLXRuJywgJzgnLCAnLW1hJywgJzIwMCcsICctbWV0YWxfYmluZGluZycsICctaW1hZScsICc8aW5maWxlLm1hZT4nLCAnLW9tYWUnLCAnPG91dGZpbGUubWFlPic=

> <r_lp_tautomer_probability>
1

> <r_epik_Ionization_Penalty>
0.621287

> <r_epik_Ionization_Penalty_Charging>
0.621234

> <r_epik_Ionization_Penalty_Neutral>
5.30999e-05

> <r_epik_State_Penalty>
0.637278

> <r_epik_Charging_Adjusted_Penalty>
1.25851

> <i_epik_Tot_Q>
0

> <i_epik_Tot_abs_Q>
0

> <r_epik_Metal_State_Penalty>
0.306756

> <b_epik_Metal_Only>
0

> <s_lp_Force_Field>
OPLS_2005

> <r_lp_Energy>
18.1747

> <b_lp_Chiralities_Consistent>
1

> <s_lp_Variant>
AV-unprocessed.smi:3170-4

> <Gold.Version>
5.8.1

> <Gold.Id.Protein>
6NUR|6NUR_protein|mol2

> <Gold.PLP.Fitness>
42.1389

> <Gold.PLP.PLP>
-27.8985

> <Gold.PLP.part.hbond>
-4.0000

> <Gold.PLP.part.metal>
0.0000

> <Gold.PLP.part.buried>
-2.7996

> <Gold.PLP.part.nonpolar>
-21.7120

> <Gold.PLP.part.repulsive>
0.2907

> <Gold.PLP.ligand.clash>
0.0000

> <Gold.PLP.ligand.torsion>
0.8998

> <Gold.PLP.Chemscore.Hbond>
3.8080

> <Gold.PLP.Chemscore.CHOScore>
1.5256

> <Gold.PLP.Chemscore.Metal>
0.0000

> <Gold.Chemscore.Hbonds>
donor molecule, donor type, donor heavy atom, donor atom, acceptor molecule, acceptor atom, score
      L1  H     3    18       P1  7948  1.00
      L1  H    11    26       P1  7948  0.98
      P1  H  7989  7998       L1    16  1.00
      P1  H 10785 10796       L1     9  0.79
      L1  C     7    23       P1  7921  0.75
      L1  C     8    24       P1 10186  0.76

> <Gold.PLP.Chemscore.Internal.Correction>
0.0392

> <Gold.Rescore>
     Score         DG    S(hbond)    S(metal)    S(lipo)     H(rot)  DE(clash)    DE(int)     intcor
     16.25     -18.44       3.56        0.00      58.31       2.25       1.31       0.88       ----

> <Gold.Chemscore.Fitness>
16.2498

> <Gold.Chemscore.DG>
-18.4441

> <Gold.Chemscore.ZeroCoef>
-5.4800

> <Gold.Chemscore.Hbond>
3.5613

> <Gold.Chemscore.Metal>
0.0000

> <Gold.Chemscore.Lipo>
58.3122

> <Gold.Chemscore.Internal_Hbond>
0.0000

> <Gold.Chemscore.DEClash>
1.3113

> <Gold.Chemscore.DEInternal>
0.8830

> <Gold.Chemscore.Rot>
2.2474

> <Gold.Chemscore.Internal.Correction>
   9.000000E+99

> <Gold.Chemscore.Hbonds>
donor molecule, donor type, donor heavy atom, donor atom, acceptor molecule, acceptor atom, score
      L1  H     3    18       P1  7948  0.98
      L1  H    11    26       P1  7948  0.93
      P1  H  7989  7998       L1    16  0.30
      P1  H 10785 10796       L1     9  0.45

> <Gold.Chemscore.Hbond.Weighted>
-11.8948

> <Gold.Chemscore.Metal.Weighted>
-0.0000

> <Gold.Chemscore.Lipo.Weighted>
-6.8225

> <Gold.Chemscore.Internal_Hbond.Weighted>
0.0000

> <Gold.Chemscore.DEClash.Weighted>
1.3113

> <Gold.Chemscore.DEInternal.Weighted>
0.8830

> <Gold.Chemscore.Rot.Weighted>
5.7532

> <Gold.Chemscore.Internal.Correction.Weighted>
   9.000000E+99

> <Gold.Protein.RotatedTorsions>
[ 6907 6896 6895 6894 ] final -172.66 input  -60.11 | X-H torsion
[ 7974 7965 7964 7962 ] final  -14.74 input  175.53 | X-H torsion
[ 8008 7997 7996 7995 ] final   97.31 input   59.86 | X-H torsion
[ 10167 10162 10161 10158 ] final -137.36 input  -65.29 | X-H torsion
[ 10718 10713 10712 10709 ] final   97.18 input   66.30 | X-H torsion
[ 10763 10752 10751 10750 ] final  154.09 input  -60.55 | X-H torsion
[ 11005 11000 10999 10996 ] final  -82.11 input  -57.11 | X-H torsion

> <Gold.Protein.ActiveResidues>
 VAL166  LYS551  ARG553  GLY616  TRP617  ASP618  TYR619  PRO620  LYS621  CYS622 
 ASP623  PHE694  ASN695  SER759  ASP760  ASP761  ALA762  ILE779  LEU786  VAL792 
 PHE793  MET794  SER795  GLU796  ALA797  LYS798  CYS799  TRP800  GLU811  SER814 

> <Gold.Protein.RotatedAtoms>
  151.5436  133.3428  159.2939 H   0  0  0  0  0  0  0  0  0  0  0  0  # atno 6907 bound_to 6896
  150.8520  134.7851  159.7027 H   0  0  0  0  0  0  0  0  0  0  0  0  # atno 6908 bound_to 6896
  152.4564  134.5290  159.9857 H   0  0  0  0  0  0  0  0  0  0  0  0  # atno 6909 bound_to 6896
  146.2061  140.3392  142.8406 H   0  0  0  0  0  0  0  0  0  0  0  0  # atno 7974 bound_to 7965
  156.0888  140.3260  155.7788 H   0  0  0  0  0  0  0  0  0  0  0  0  # atno 8008 bound_to 7997
  155.5031  140.0571  157.2953 H   0  0  0  0  0  0  0  0  0  0  0  0  # atno 8009 bound_to 7997
  154.4625  140.1973  156.0222 H   0  0  0  0  0  0  0  0  0  0  0  0  # atno 8010 bound_to 7997
  139.8585  143.7107  152.2652 H   0  0  0  0  0  0  0  0  0  0  0  0  # atno 10167 bound_to 10162
  157.6916  131.0601  150.4604 H   0  0  0  0  0  0  0  0  0  0  0  0  # atno 10718 bound_to 10713
  154.1468  135.2817  155.3146 H   0  0  0  0  0  0  0  0  0  0  0  0  # atno 10763 bound_to 10752
  154.6247  135.5455  153.7617 H   0  0  0  0  0  0  0  0  0  0  0  0  # atno 10764 bound_to 10752
  153.0233  135.6447  154.1613 H   0  0  0  0  0  0  0  0  0  0  0  0  # atno 10765 bound_to 10752
  141.1664  133.7228  156.8522 H   0  0  0  0  0  0  0  0  0  0  0  0  # atno 11005 bound_to 11000
  144.8797  140.7384  143.5994 LP  0  0  0  0  0  0  0  0  0  0  0  0  # atno 17320 bound_to 7965
  145.3312  139.1759  143.4536 LP  0  0  0  0  0  0  0  0  0  0  0  0  # atno 17321 bound_to 7965
  139.7396  144.7562  151.0673 LP  0  0  0  0  0  0  0  0  0  0  0  0  # atno 17342 bound_to 10162
  140.7778  143.4988  150.9798 LP  0  0  0  0  0  0  0  0  0  0  0  0  # atno 17343 bound_to 10162
  156.4949  130.4104  149.6386 LP  0  0  0  0  0  0  0  0  0  0  0  0  # atno 17370 bound_to 10713
  156.3382  130.7368  151.2309 LP  0  0  0  0  0  0  0  0  0  0  0  0  # atno 17371 bound_to 10713
  140.1907  134.8967  157.3057 LP  0  0  0  0  0  0  0  0  0  0  0  0  # atno 17394 bound_to 11000
  140.2293  134.3928  155.7529 LP  0  0  0  0  0  0  0  0  0  0  0  0  # atno 17395 bound_to 11000

$$$$
