AV-unprocessed.smi:1076|AV-procd|sdf|4698|dock6
  -GOLD-   22720 3223D 1   1.00000     0.00000
 Structure written by MMmdl.
 45 46  0  0  0  0  0  0  0  0  2 V2000
  143.7801  132.4062  149.0487 C   0  0  0  0  0  0  0  0  0  0  0  0
  144.6805  132.6203  150.2311 C   0  0  0  0  0  0  0  0  0  0  0  0
  144.3315  133.1332  151.5127 C   0  0  0  0  0  0  0  0  0  0  0  0
  145.3623  133.1935  152.3399 N   0  0  0  0  0  0  0  0  0  0  0  0
  146.4024  132.7255  151.6169 N   0  0  0  0  0  0  0  0  0  0  0  0
  147.7190  132.6363  152.2228 C   0  0  0  0  0  0  0  0  0  0  0  0
  147.7187  133.0304  153.7145 C   0  0  1  0  0  0  0  0  0  0  0  0
  147.8502  131.7895  154.6073 C   0  0  0  0  0  0  0  0  0  0  0  0
  148.8214  133.9703  154.0156 N   0  3  0  0  0  0  0  0  0  0  0  0
  148.8576  134.4680  155.4093 C   0  0  0  0  0  0  0  0  0  0  0  0
  149.0436  135.9969  155.4737 C   0  0  0  0  0  0  0  0  0  0  0  0
  150.5029  136.4785  155.3656 C   0  0  0  0  0  0  0  0  0  0  0  0
  151.4005  135.7713  155.8266 O   0  0  0  0  0  0  0  0  0  0  0  0
  150.7587  137.6607  154.7559 N   0  0  0  0  0  0  0  0  0  0  0  0
  149.7064  138.5751  154.3047 C   0  0  0  0  0  0  0  0  0  0  0  0
  149.7904  139.8586  155.1515 C   0  0  0  0  0  0  0  0  0  0  0  0
  151.0893  140.4342  155.0279 O   0  0  0  0  0  0  0  0  0  0  0  0
  152.1368  139.5516  155.4242 C   0  0  0  0  0  0  0  0  0  0  0  0
  152.0790  138.2710  154.5729 C   0  0  0  0  0  0  0  0  0  0  0  0
  146.0197  132.3733  150.3404 C   0  0  0  0  0  0  0  0  0  0  0  0
  142.9271  133.0849  149.0617 H   0  0  0  0  0  0  0  0  0  0  0  0
  143.3830  131.3912  149.0255 H   0  0  0  0  0  0  0  0  0  0  0  0
  144.3044  132.5688  148.1069 H   0  0  0  0  0  0  0  0  0  0  0  0
  143.3639  133.4597  151.8651 H   0  0  0  0  0  0  0  0  0  0  0  0
  148.0701  131.6098  152.1086 H   0  0  0  0  0  0  0  0  0  0  0  0
  148.4118  133.2633  151.6589 H   0  0  0  0  0  0  0  0  0  0  0  0
  146.7649  133.5037  153.9549 H   0  0  0  0  0  0  0  0  0  0  0  0
  147.0396  131.0838  154.4226 H   0  0  0  0  0  0  0  0  0  0  0  0
  147.8145  132.0604  155.6630 H   0  0  0  0  0  0  0  0  0  0  0  0
  148.7916  131.2682  154.4290 H   0  0  0  0  0  0  0  0  0  0  0  0
  149.6976  133.4992  153.8385 H   0  0  0  0  0  0  0  0  0  0  0  0
  147.9252  134.2057  155.9097 H   0  0  0  0  0  0  0  0  0  0  0  0
  149.6552  133.9618  155.9555 H   0  0  0  0  0  0  0  0  0  0  0  0
  148.4554  136.4522  154.6757 H   0  0  0  0  0  0  0  0  0  0  0  0
  148.6352  136.3593  156.4178 H   0  0  0  0  0  0  0  0  0  0  0  0
  149.8546  138.8087  153.2495 H   0  0  0  0  0  0  0  0  0  0  0  0
  148.7063  138.1469  154.3823 H   0  0  0  0  0  0  0  0  0  0  0  0
  149.0494  140.5836  154.8142 H   0  0  0  0  0  0  0  0  0  0  0  0
  149.5763  139.6464  156.2003 H   0  0  0  0  0  0  0  0  0  0  0  0
  153.0940  140.0545  155.2863 H   0  0  0  0  0  0  0  0  0  0  0  0
  152.0473  139.3178  156.4862 H   0  0  0  0  0  0  0  0  0  0  0  0
  152.9095  137.6154  154.8294 H   0  0  0  0  0  0  0  0  0  0  0  0
  152.2159  138.5185  153.5192 H   0  0  0  0  0  0  0  0  0  0  0  0
  146.7240  131.9772  149.6234 H   0  0  0  0  0  0  0  0  0  0  0  0
  148.7474  134.7572  153.3864 H   0  0  0  0  0  0  0  0  0  0  0  0
  1  2  1  0  0  0  0
  1 21  1  0  0  0  0
  1 22  1  0  0  0  0
  1 23  1  0  0  0  0
  2 20  2  0  0  0  0
  2  3  1  0  0  0  0
  3  4  2  0  0  0  0
  3 24  1  0  0  0  0
  4  5  1  0  0  0  0
  5  6  1  0  0  0  0
  5 20  1  0  0  0  0
  6  7  1  0  0  0  0
  6 25  1  0  0  0  0
  6 26  1  0  0  0  0
  7  8  1  0  0  0  0
  7  9  1  0  0  0  0
  7 27  1  0  0  0  0
  8 28  1  0  0  0  0
  8 29  1  0  0  0  0
  8 30  1  0  0  0  0
  9 10  1  0  0  0  0
  9 31  1  0  0  0  0
  9 45  1  0  0  0  0
 10 11  1  0  0  0  0
 10 32  1  0  0  0  0
 10 33  1  0  0  0  0
 11 12  1  0  0  0  0
 11 34  1  0  0  0  0
 11 35  1  0  0  0  0
 12 13  2  0  0  0  0
 12 14  1  0  0  0  0
 14 19  1  0  0  0  0
 14 15  1  0  0  0  0
 15 16  1  0  0  0  0
 15 36  1  0  0  0  0
 15 37  1  0  0  0  0
 16 17  1  0  0  0  0
 16 38  1  0  0  0  0
 16 39  1  0  0  0  0
 17 18  1  0  0  0  0
 18 19  1  0  0  0  0
 18 40  1  0  0  0  0
 18 41  1  0  0  0  0
 19 42  1  0  0  0  0
 19 43  1  0  0  0  0
 20 44  1  0  0  0  0
M  CHG  1   9   1
M  END
> <s_m_source_file>
AV-unprocessed.smi

> <i_m_source_file_index>
1076

> <i_lp_mmshare_version>
43012

> <i_f3d_flags>
0

> <s_epik_input>
W0NIM11jMVtjSF1ubihbY0hdMSlbQ0gyXVtDQEhdKFtDSDNdKVtOSF1bQ0gyXVtDSDJdQyg9TylOMltDSDJdW0NIMl1PW0NIMl1bQ0gyXTI=

> <s_epik_cmdline>
J2VwaWtfcHl0aG9uJywgJy1waCcsICc3LjAnLCAnLXRuJywgJzgnLCAnLW1hJywgJzIwMCcsICctbWV0YWxfYmluZGluZycsICctaW1hZScsICc8aW5maWxlLm1hZT4nLCAnLW9tYWUnLCAnPG91dGZpbGUubWFlPic=

> <r_lp_tautomer_probability>
1

> <r_epik_Ionization_Penalty>
0.00797518

> <r_epik_Ionization_Penalty_Charging>
0.0079672

> <r_epik_Ionization_Penalty_Neutral>
7.97619e-06

> <r_epik_State_Penalty>
0.00597998

> <r_epik_Charging_Adjusted_Penalty>
0.0139472

> <i_epik_Tot_Q>
1

> <i_epik_Tot_abs_Q>
1

> <r_epik_Metal_State_Penalty>
0.00598062

> <b_epik_Metal_Only>
0

> <s_lp_Force_Field>
OPLS_2005

> <r_lp_Energy>
23.7914

> <b_lp_Chiralities_Consistent>
1

> <s_lp_Variant>
AV-unprocessed.smi:1076-2

> <Gold.Version>
5.8.1

> <Gold.Id.Protein>
6NUR|6NUR_protein|mol2

> <Gold.PLP.Fitness>
49.6228

> <Gold.PLP.PLP>
-39.2367

> <Gold.PLP.part.hbond>
-2.9714

> <Gold.PLP.part.metal>
0.0000

> <Gold.PLP.part.buried>
-0.9777

> <Gold.PLP.part.nonpolar>
-34.4831

> <Gold.PLP.part.repulsive>
0.2107

> <Gold.PLP.ligand.clash>
0.0000

> <Gold.PLP.ligand.torsion>
1.5160

> <Gold.PLP.Chemscore.Hbond>
3.9920

> <Gold.PLP.Chemscore.CHOScore>
0.4472

> <Gold.PLP.Chemscore.Metal>
0.0000

> <Gold.Chemscore.Hbonds>
donor molecule, donor type, donor heavy atom, donor atom, acceptor molecule, acceptor atom, score
      L1  H     9    45       P1  7948  1.69
      P1  H  7989  7998       L1    17  1.00
      P1  H 10752 10763       L1    13  1.00
      L1  C    20    44       P1 10747  0.79

> <Gold.PLP.Chemscore.Internal.Correction>
0.1007

> <Gold.Rescore>
     Score         DG    S(hbond)    S(metal)    S(lipo)     H(rot)  DE(clash)    DE(int)     intcor
     16.22     -17.87       2.00        0.00      92.32       1.98       0.22       1.43       ----

> <Gold.Chemscore.Fitness>
16.2153

> <Gold.Chemscore.DG>
-17.8677

> <Gold.Chemscore.ZeroCoef>
-5.4800

> <Gold.Chemscore.Hbond>
1.9953

> <Gold.Chemscore.Metal>
0.0000

> <Gold.Chemscore.Lipo>
92.3226

> <Gold.Chemscore.Internal_Hbond>
0.0000

> <Gold.Chemscore.DEClash>
0.2230

> <Gold.Chemscore.DEInternal>
1.4294

> <Gold.Chemscore.Rot>
1.9837

> <Gold.Chemscore.Internal.Correction>
   9.000000E+99

> <Gold.Chemscore.Hbonds>
donor molecule, donor type, donor heavy atom, donor atom, acceptor molecule, acceptor atom, score
      L1  H     9    45       P1  7948  0.33
      P1  H  7989  7998       L1    17  0.24
      P1  H 10752 10763       L1    13  0.92

> <Gold.Chemscore.Hbond.Weighted>
-6.6642

> <Gold.Chemscore.Metal.Weighted>
-0.0000

> <Gold.Chemscore.Lipo.Weighted>
-10.8017

> <Gold.Chemscore.Internal_Hbond.Weighted>
0.0000

> <Gold.Chemscore.DEClash.Weighted>
0.2230

> <Gold.Chemscore.DEInternal.Weighted>
1.4294

> <Gold.Chemscore.Rot.Weighted>
5.0782

> <Gold.Chemscore.Internal.Correction.Weighted>
   9.000000E+99

> <Gold.Protein.RotatedTorsions>
[ 6907 6896 6895 6894 ] final  110.06 input  -60.11 | X-H torsion
[ 7974 7965 7964 7962 ] final  -52.60 input  175.53 | X-H torsion
[ 8008 7997 7996 7995 ] final  113.02 input   59.86 | X-H torsion
[ 10167 10162 10161 10158 ] final   74.44 input  -65.29 | X-H torsion
[ 10718 10713 10712 10709 ] final -160.00 input   66.30 | X-H torsion
[ 10763 10752 10751 10750 ] final   65.84 input  -60.55 | X-H torsion
[ 11005 11000 10999 10996 ] final   -0.74 input  -57.11 | X-H torsion

> <Gold.Protein.ActiveResidues>
 VAL166  LYS551  ARG553  GLY616  TRP617  ASP618  TYR619  PRO620  LYS621  CYS622 
 ASP623  PHE694  ASN695  SER759  ASP760  ASP761  ALA762  ILE779  LEU786  VAL792 
 PHE793  MET794  SER795  GLU796  ALA797  LYS798  CYS799  TRP800  GLU811  SER814 

> <Gold.Protein.RotatedAtoms>
  152.5038  133.8855  159.7367 H   0  0  0  0  0  0  0  0  0  0  0  0  # atno 6907 bound_to 6896
  150.9306  133.6762  159.2818 H   0  0  0  0  0  0  0  0  0  0  0  0  # atno 6908 bound_to 6896
  151.4108  135.0989  159.9637 H   0  0  0  0  0  0  0  0  0  0  0  0  # atno 6909 bound_to 6896
  145.9062  140.7954  142.9718 H   0  0  0  0  0  0  0  0  0  0  0  0  # atno 7974 bound_to 7965
  156.2231  140.2988  156.0000 H   0  0  0  0  0  0  0  0  0  0  0  0  # atno 8008 bound_to 7997
  155.2429  140.0423  157.2994 H   0  0  0  0  0  0  0  0  0  0  0  0  # atno 8009 bound_to 7997
  154.5871  140.2391  155.7979 H   0  0  0  0  0  0  0  0  0  0  0  0  # atno 8010 bound_to 7997
  140.0137  144.5594  150.7638 H   0  0  0  0  0  0  0  0  0  0  0  0  # atno 10167 bound_to 10162
  156.5759  130.8709  151.2851 H   0  0  0  0  0  0  0  0  0  0  0  0  # atno 10718 bound_to 10713
  153.0113  135.5342  154.6730 H   0  0  0  0  0  0  0  0  0  0  0  0  # atno 10763 bound_to 10752
  154.5909  135.2859  155.0638 H   0  0  0  0  0  0  0  0  0  0  0  0  # atno 10764 bound_to 10752
  154.1731  135.6528  153.5067 H   0  0  0  0  0  0  0  0  0  0  0  0  # atno 10765 bound_to 10752
  140.6396  133.9501  155.8319 H   0  0  0  0  0  0  0  0  0  0  0  0  # atno 11005 bound_to 11000
  144.6739  140.1753  143.7410 LP  0  0  0  0  0  0  0  0  0  0  0  0  # atno 17320 bound_to 7965
  145.8729  139.2282  143.1650 LP  0  0  0  0  0  0  0  0  0  0  0  0  # atno 17321 bound_to 7965
  140.7371  143.2761  151.3737 LP  0  0  0  0  0  0  0  0  0  0  0  0  # atno 17342 bound_to 10162
  139.6187  144.0950  152.2371 LP  0  0  0  0  0  0  0  0  0  0  0  0  # atno 17343 bound_to 10162
  157.7337  130.9735  150.1994 LP  0  0  0  0  0  0  0  0  0  0  0  0  # atno 17370 bound_to 10713
  156.2673  130.3717  149.8067 LP  0  0  0  0  0  0  0  0  0  0  0  0  # atno 17371 bound_to 10713
  141.0616  134.0338  157.3651 LP  0  0  0  0  0  0  0  0  0  0  0  0  # atno 17394 bound_to 11000
  139.9085  135.0185  156.7590 LP  0  0  0  0  0  0  0  0  0  0  0  0  # atno 17395 bound_to 11000

$$$$
