AV-unprocessed.smi:1312|AV-procd|sdf|5448|dock3
  -GOLD-   22720 5 13D 1   1.00000     0.00000
 Structure written by MMmdl.
 50 51  0  0  0  0  0  0  0  0  2 V2000
  149.7327  133.3428  155.3549 C   0  0  0  0  0  0  0  0  0  0  0  0
  150.1658  134.6958  154.7688 C   0  0  0  0  0  0  0  0  0  0  0  0
  149.2206  135.8810  155.1068 C   0  0  2  0  0  0  0  0  0  0  0  0
  147.7378  135.5630  154.7850 C   0  0  0  0  0  0  0  0  0  0  0  0
  147.5802  134.9720  153.4608 N   0  0  0  0  0  0  0  0  0  0  0  0
  146.5338  134.2265  153.0780 C   0  0  0  0  0  0  0  0  0  0  0  0
  145.5940  133.9559  153.8270 O   0  0  0  0  0  0  0  0  0  0  0  0
  146.5612  133.7307  151.6273 C   0  0  0  0  0  0  0  0  0  0  0  0
  146.0611  132.3106  151.5148 C   0  0  0  0  0  0  0  0  0  0  0  0
  145.0338  131.8204  150.6561 C   0  0  0  0  0  0  0  0  0  0  0  0
  144.2017  132.5925  149.6726 C   0  0  0  0  0  0  0  0  0  0  0  0
  144.8354  130.5201  150.7964 N   0  0  0  0  0  0  0  0  0  0  0  0
  145.7169  130.1378  151.7421 N   0  0  0  0  0  0  0  0  0  0  0  0
  145.7685  128.7459  152.1458 C   0  0  0  0  0  0  0  0  0  0  0  0
  146.4734  131.1990  152.2001 C   0  0  0  0  0  0  0  0  0  0  0  0
  147.5188  131.0347  153.2553 C   0  0  0  0  0  0  0  0  0  0  0  0
  149.6743  137.1406  154.4457 N   0  3  0  0  0  0  0  0  0  0  0  0
  148.9617  138.3744  154.8441 C   0  0  0  0  0  0  0  0  0  0  0  0
  149.8917  139.5144  154.4468 C   0  0  0  0  0  0  0  0  0  0  0  0
  151.2728  138.9488  154.7531 C   0  0  0  0  0  0  0  0  0  0  0  0
  151.1264  137.4331  154.5622 C   0  0  0  0  0  0  0  0  0  0  0  0
  150.4216  132.5552  155.0487 H   0  0  0  0  0  0  0  0  0  0  0  0
  148.7376  133.0579  155.0135 H   0  0  0  0  0  0  0  0  0  0  0  0
  149.7246  133.3601  156.4446 H   0  0  0  0  0  0  0  0  0  0  0  0
  151.1742  134.9182  155.1183 H   0  0  0  0  0  0  0  0  0  0  0  0
  150.2700  134.5911  153.6891 H   0  0  0  0  0  0  0  0  0  0  0  0
  149.2850  136.0500  156.1831 H   0  0  0  0  0  0  0  0  0  0  0  0
  147.3283  134.8494  155.5003 H   0  0  0  0  0  0  0  0  0  0  0  0
  147.1353  136.4689  154.8682 H   0  0  0  0  0  0  0  0  0  0  0  0
  148.3105  135.1482  152.7859 H   0  0  0  0  0  0  0  0  0  0  0  0
  145.9547  134.4093  151.0272 H   0  0  0  0  0  0  0  0  0  0  0  0
  147.5772  133.8165  151.2403 H   0  0  0  0  0  0  0  0  0  0  0  0
  144.8324  133.1549  148.9843 H   0  0  0  0  0  0  0  0  0  0  0  0
  143.5554  133.3039  150.1870 H   0  0  0  0  0  0  0  0  0  0  0  0
  143.5661  131.9370  149.0761 H   0  0  0  0  0  0  0  0  0  0  0  0
  146.7609  128.3427  151.9433 H   0  0  0  0  0  0  0  0  0  0  0  0
  145.0302  128.1574  151.5995 H   0  0  0  0  0  0  0  0  0  0  0  0
  145.5619  128.6658  153.2131 H   0  0  0  0  0  0  0  0  0  0  0  0
  147.9371  131.9964  153.5514 H   0  0  0  0  0  0  0  0  0  0  0  0
  148.3360  130.4093  152.8957 H   0  0  0  0  0  0  0  0  0  0  0  0
  147.1006  130.5668  154.1466 H   0  0  0  0  0  0  0  0  0  0  0  0
  147.9871  138.4578  154.3621 H   0  0  0  0  0  0  0  0  0  0  0  0
  148.8121  138.3823  155.9253 H   0  0  0  0  0  0  0  0  0  0  0  0
  149.7999  139.7137  153.3782 H   0  0  0  0  0  0  0  0  0  0  0  0
  149.6826  140.4405  154.9829 H   0  0  0  0  0  0  0  0  0  0  0  0
  152.0499  139.3796  154.1212 H   0  0  0  0  0  0  0  0  0  0  0  0
  151.5335  139.1632  155.7902 H   0  0  0  0  0  0  0  0  0  0  0  0
  151.5801  136.9139  155.4075 H   0  0  0  0  0  0  0  0  0  0  0  0
  151.6310  137.0974  153.6557 H   0  0  0  0  0  0  0  0  0  0  0  0
  149.4940  137.0324  153.4577 H   0  0  0  0  0  0  0  0  0  0  0  0
  1  2  1  0  0  0  0
  1 22  1  0  0  0  0
  1 23  1  0  0  0  0
  1 24  1  0  0  0  0
  2  3  1  0  0  0  0
  2 25  1  0  0  0  0
  2 26  1  0  0  0  0
  3  4  1  0  0  0  0
  3 17  1  0  0  0  0
  3 27  1  0  0  0  0
  4  5  1  0  0  0  0
  4 28  1  0  0  0  0
  4 29  1  0  0  0  0
  5  6  1  0  0  0  0
  5 30  1  0  0  0  0
  6  7  2  0  0  0  0
  6  8  1  0  0  0  0
  8  9  1  0  0  0  0
  8 31  1  0  0  0  0
  8 32  1  0  0  0  0
  9 15  2  0  0  0  0
  9 10  1  0  0  0  0
 10 11  1  0  0  0  0
 10 12  2  0  0  0  0
 11 33  1  0  0  0  0
 11 34  1  0  0  0  0
 11 35  1  0  0  0  0
 12 13  1  0  0  0  0
 13 14  1  0  0  0  0
 13 15  1  0  0  0  0
 14 36  1  0  0  0  0
 14 37  1  0  0  0  0
 14 38  1  0  0  0  0
 15 16  1  0  0  0  0
 16 39  1  0  0  0  0
 16 40  1  0  0  0  0
 16 41  1  0  0  0  0
 17 21  1  0  0  0  0
 17 18  1  0  0  0  0
 17 50  1  0  0  0  0
 18 19  1  0  0  0  0
 18 42  1  0  0  0  0
 18 43  1  0  0  0  0
 19 20  1  0  0  0  0
 19 44  1  0  0  0  0
 19 45  1  0  0  0  0
 20 21  1  0  0  0  0
 20 46  1  0  0  0  0
 20 47  1  0  0  0  0
 21 48  1  0  0  0  0
 21 49  1  0  0  0  0
M  CHG  1  17   1
M  END
> <s_m_source_file>
AV-unprocessed.smi

> <i_m_source_file_index>
1312

> <i_lp_mmshare_version>
43012

> <i_f3d_flags>
0

> <s_epik_input>
W0NIMl0xW0NIMl1bQ0gyXVtDSDJdTjFbQ0BIXShbQ0gyXVtDSDNdKVtDSDJdW05IXUMoPU8pW0NIMl1jMmMoW0NIM10pbm4oW0NIM10pYzJbQ0gzXQ==

> <s_epik_cmdline>
J2VwaWtfcHl0aG9uJywgJy1waCcsICc3LjAnLCAnLXRuJywgJzgnLCAnLW1hJywgJzIwMCcsICctbWV0YWxfYmluZGluZycsICctaW1hZScsICc8aW5maWxlLm1hZT4nLCAnLW9tYWUnLCAnPG91dGZpbGUubWFlPic=

> <r_lp_tautomer_probability>
1

> <r_epik_Ionization_Penalty>
0.00585463

> <r_epik_Ionization_Penalty_Charging>
0.00366302

> <r_epik_Ionization_Penalty_Neutral>
0.00219161

> <r_epik_State_Penalty>
-0

> <r_epik_Charging_Adjusted_Penalty>
0.00366302

> <i_epik_Tot_Q>
1

> <i_epik_Tot_abs_Q>
1

> <r_epik_Metal_State_Penalty>
-0

> <b_epik_Metal_Only>
0

> <s_lp_Force_Field>
OPLS_2005

> <r_lp_Energy>
29.647

> <b_lp_Chiralities_Consistent>
1

> <s_lp_Variant>
AV-unprocessed.smi:1312-1

> <Gold.Version>
5.8.1

> <Gold.Id.Protein>
6NUR|6NUR_protein|mol2

> <Gold.PLP.Fitness>
46.6715

> <Gold.PLP.PLP>
-38.8504

> <Gold.PLP.part.hbond>
-2.7320

> <Gold.PLP.part.metal>
0.0000

> <Gold.PLP.part.buried>
-1.8963

> <Gold.PLP.part.nonpolar>
-33.9700

> <Gold.PLP.part.repulsive>
0.2389

> <Gold.PLP.ligand.clash>
0.0000

> <Gold.PLP.ligand.torsion>
0.7075

> <Gold.PLP.Chemscore.Hbond>
2.9913

> <Gold.PLP.Chemscore.CHOScore>
0.0000

> <Gold.PLP.Chemscore.Metal>
0.0000

> <Gold.Chemscore.Hbonds>
donor molecule, donor type, donor heavy atom, donor atom, acceptor molecule, acceptor atom, score
      L1  H     5    30       P1  7948  0.93
      L1  H    17    50       P1  7948  2.00

> <Gold.PLP.Chemscore.Internal.Correction>
0.2623

> <Gold.Rescore>
     Score         DG    S(hbond)    S(metal)    S(lipo)     H(rot)  DE(clash)    DE(int)     intcor
     17.26     -18.43       1.87        0.00      94.86       1.72       0.53       0.64       ----

> <Gold.Chemscore.Fitness>
17.2585

> <Gold.Chemscore.DG>
-18.4266

> <Gold.Chemscore.ZeroCoef>
-5.4800

> <Gold.Chemscore.Hbond>
1.8727

> <Gold.Chemscore.Metal>
0.0000

> <Gold.Chemscore.Lipo>
94.8567

> <Gold.Chemscore.Internal_Hbond>
0.0000

> <Gold.Chemscore.DEClash>
0.5299

> <Gold.Chemscore.DEInternal>
0.6382

> <Gold.Chemscore.Rot>
1.7213

> <Gold.Chemscore.Internal.Correction>
   9.000000E+99

> <Gold.Chemscore.Hbonds>
donor molecule, donor type, donor heavy atom, donor atom, acceptor molecule, acceptor atom, score
      L1  H     5    30       P1  7948  0.74
      L1  H    17    50       P1  7948  0.88

> <Gold.Chemscore.Hbond.Weighted>
-6.2549

> <Gold.Chemscore.Metal.Weighted>
-0.0000

> <Gold.Chemscore.Lipo.Weighted>
-11.0982

> <Gold.Chemscore.Internal_Hbond.Weighted>
0.0000

> <Gold.Chemscore.DEClash.Weighted>
0.5299

> <Gold.Chemscore.DEInternal.Weighted>
0.6382

> <Gold.Chemscore.Rot.Weighted>
4.4065

> <Gold.Chemscore.Internal.Correction.Weighted>
   9.000000E+99

> <Gold.Protein.RotatedTorsions>
[ 6907 6896 6895 6894 ] final   60.87 input  -60.11 | X-H torsion
[ 7974 7965 7964 7962 ] final -138.31 input  175.53 | X-H torsion
[ 8008 7997 7996 7995 ] final -109.54 input   59.86 | X-H torsion
[ 10167 10162 10161 10158 ] final  151.25 input  -65.29 | X-H torsion
[ 10718 10713 10712 10709 ] final    6.76 input   66.30 | X-H torsion
[ 10763 10752 10751 10750 ] final -177.27 input  -60.55 | X-H torsion
[ 11005 11000 10999 10996 ] final -147.21 input  -57.11 | X-H torsion

> <Gold.Protein.ActiveResidues>
 VAL166  LYS551  ARG553  GLY616  TRP617  ASP618  TYR619  PRO620  LYS621  CYS622 
 ASP623  PHE694  ASN695  SER759  ASP760  ASP761  ALA762  ILE779  LEU786  VAL792 
 PHE793  MET794  SER795  GLU796  ALA797  LYS798  CYS799  TRP800  GLU811  SER814 

> <Gold.Protein.RotatedAtoms>
  152.4040  134.6238  160.0057 H   0  0  0  0  0  0  0  0  0  0  0  0  # atno 6907 bound_to 6896
  151.6435  133.3319  159.3143 H   0  0  0  0  0  0  0  0  0  0  0  0  # atno 6908 bound_to 6896
  150.7937  134.7022  159.6601 H   0  0  0  0  0  0  0  0  0  0  0  0  # atno 6909 bound_to 6896
  144.8769  140.6450  143.5231 H   0  0  0  0  0  0  0  0  0  0  0  0  # atno 7974 bound_to 7965
  154.9609  140.0399  157.2189 H   0  0  0  0  0  0  0  0  0  0  0  0  # atno 8008 bound_to 7997
  154.7890  140.2832  155.5983 H   0  0  0  0  0  0  0  0  0  0  0  0  # atno 8009 bound_to 7997
  156.2947  140.2577  156.2733 H   0  0  0  0  0  0  0  0  0  0  0  0  # atno 8010 bound_to 7997
  139.4842  144.5456  151.7490 H   0  0  0  0  0  0  0  0  0  0  0  0  # atno 10167 bound_to 10162
  156.9270  130.5812  149.5649 H   0  0  0  0  0  0  0  0  0  0  0  0  # atno 10718 bound_to 10713
  154.5622  135.2821  155.0908 H   0  0  0  0  0  0  0  0  0  0  0  0  # atno 10763 bound_to 10752
  154.2312  135.6374  153.5180 H   0  0  0  0  0  0  0  0  0  0  0  0  # atno 10764 bound_to 10752
  153.0032  135.5537  154.6220 H   0  0  0  0  0  0  0  0  0  0  0  0  # atno 10765 bound_to 10752
  140.7740  134.3156  157.5066 H   0  0  0  0  0  0  0  0  0  0  0  0  # atno 11005 bound_to 11000
  145.4026  139.1595  143.4169 LP  0  0  0  0  0  0  0  0  0  0  0  0  # atno 17320 bound_to 7965
  146.2969  140.4124  142.8718 LP  0  0  0  0  0  0  0  0  0  0  0  0  # atno 17321 bound_to 7965
  140.5002  144.1181  150.5969 LP  0  0  0  0  0  0  0  0  0  0  0  0  # atno 17342 bound_to 10162
  140.4071  143.2675  151.9878 LP  0  0  0  0  0  0  0  0  0  0  0  0  # atno 17343 bound_to 10162
  156.0465  130.5540  150.8892 LP  0  0  0  0  0  0  0  0  0  0  0  0  # atno 17370 bound_to 10713
  157.5871  131.0945  150.9178 LP  0  0  0  0  0  0  0  0  0  0  0  0  # atno 17371 bound_to 10713
  139.8751  134.9278  156.3435 LP  0  0  0  0  0  0  0  0  0  0  0  0  # atno 17394 bound_to 11000
  140.9546  133.7428  156.0318 LP  0  0  0  0  0  0  0  0  0  0  0  0  # atno 17395 bound_to 11000

$$$$
