AV-unprocessed.smi:560|AV-procd|sdf|2929|dock5
  -GOLD-   2262023423D 1   1.00000     0.00000
 Structure written by MMmdl.
 42 43  0  0  0  0  0  0  0  0  2 V2000
  152.1591  139.6064  155.7610 C   0  0  0  0  0  0  0  0  0  0  0  0
  151.2736  140.8685  155.8039 C   0  0  1  0  0  0  0  0  0  0  0  0
  149.8184  140.5977  155.3849 C   0  0  0  0  0  0  0  0  0  0  0  0
  149.0207  141.5239  155.2326 O   0  0  0  0  0  0  0  0  0  0  0  0
  149.4818  139.3098  155.2075 N   0  0  0  0  0  0  0  0  0  0  0  0
  148.1679  138.8327  154.7886 C   0  0  2  0  0  0  0  0  0  0  0  0
  148.0750  137.3000  154.9053 C   0  0  0  0  0  0  0  0  0  0  0  0
  146.7336  136.7802  154.3616 C   0  0  0  0  0  0  0  0  0  0  0  0
  146.5208  137.2125  152.9568 N   0  3  1  0  0  0  0  0  0  0  0  0
  145.3046  136.6084  152.3542 C   0  0  0  0  0  0  0  0  0  0  0  0
  145.5954  135.8440  151.0583 C   0  0  0  0  0  0  0  0  0  0  0  0
  145.3567  136.4873  149.9132 N   0  0  0  0  0  0  0  0  0  0  0  0
  146.0141  134.6878  151.0859 O   0  0  0  0  0  0  0  0  0  0  0  0
  146.5617  138.6944  152.8305 C   0  0  0  0  0  0  0  0  0  0  0  0
  147.9011  139.2557  153.3351 C   0  0  0  0  0  0  0  0  0  0  0  0
  151.3192  141.5208  157.1082 N   0  0  0  0  0  0  0  0  0  0  0  0
  150.6911  142.6870  157.4968 C   0  0  0  0  0  0  0  0  0  0  0  0
  150.9919  142.8974  158.8119 C   0  0  0  0  0  0  0  0  0  0  0  0
  151.8144  141.7876  159.1519 C   0  0  0  0  0  0  0  0  0  0  0  0
  152.0021  140.9628  158.1349 N   0  0  0  0  0  0  0  0  0  0  0  0
  152.1714  139.1678  154.7624 H   0  0  0  0  0  0  0  0  0  0  0  0
  151.8134  138.8393  156.4553 H   0  0  0  0  0  0  0  0  0  0  0  0
  153.1896  139.8472  156.0230 H   0  0  0  0  0  0  0  0  0  0  0  0
  151.6841  141.5727  155.0787 H   0  0  0  0  0  0  0  0  0  0  0  0
  150.1967  138.6120  155.3542 H   0  0  0  0  0  0  0  0  0  0  0  0
  147.4043  139.2872  155.4232 H   0  0  0  0  0  0  0  0  0  0  0  0
  148.8936  136.8358  154.3533 H   0  0  0  0  0  0  0  0  0  0  0  0
  148.1907  136.9918  155.9451 H   0  0  0  0  0  0  0  0  0  0  0  0
  146.7248  135.6909  154.4178 H   0  0  0  0  0  0  0  0  0  0  0  0
  145.9104  137.1372  154.9828 H   0  0  0  0  0  0  0  0  0  0  0  0
  144.8701  135.8879  153.0487 H   0  0  0  0  0  0  0  0  0  0  0  0
  144.5481  137.3769  152.1853 H   0  0  0  0  0  0  0  0  0  0  0  0
  145.5345  136.0344  149.0282 H   0  0  0  0  0  0  0  0  0  0  0  0
  145.0013  137.4327  149.9355 H   0  0  0  0  0  0  0  0  0  0  0  0
  146.4223  138.9881  151.7898 H   0  0  0  0  0  0  0  0  0  0  0  0
  145.7359  139.1323  153.3938 H   0  0  0  0  0  0  0  0  0  0  0  0
  147.8969  140.3439  153.2572 H   0  0  0  0  0  0  0  0  0  0  0  0
  148.7069  138.9023  152.6895 H   0  0  0  0  0  0  0  0  0  0  0  0
  150.0885  143.2653  156.8120 H   0  0  0  0  0  0  0  0  0  0  0  0
  150.6717  143.7179  159.4369 H   0  0  0  0  0  0  0  0  0  0  0  0
  152.2741  141.5561  160.1015 H   0  0  0  0  0  0  0  0  0  0  0  0
  147.3016  136.8506  152.4274 H   0  0  0  0  0  0  0  0  0  0  0  0
  1  2  1  0  0  0  0
  1 21  1  0  0  0  0
  1 22  1  0  0  0  0
  1 23  1  0  0  0  0
  2  3  1  0  0  0  0
  2 16  1  0  0  0  0
  2 24  1  0  0  0  0
  3  4  2  0  0  0  0
  3  5  1  0  0  0  0
  5  6  1  0  0  0  0
  5 25  1  0  0  0  0
  6 15  1  0  0  0  0
  6  7  1  0  0  0  0
  6 26  1  0  0  0  0
  7  8  1  0  0  0  0
  7 27  1  0  0  0  0
  7 28  1  0  0  0  0
  8  9  1  0  0  0  0
  8 29  1  0  0  0  0
  8 30  1  0  0  0  0
  9 10  1  0  0  0  0
  9 14  1  0  0  0  0
  9 42  1  0  0  0  0
 10 11  1  0  0  0  0
 10 31  1  0  0  0  0
 10 32  1  0  0  0  0
 11 12  1  0  0  0  0
 11 13  2  0  0  0  0
 12 33  1  0  0  0  0
 12 34  1  0  0  0  0
 14 15  1  0  0  0  0
 14 35  1  0  0  0  0
 14 36  1  0  0  0  0
 15 37  1  0  0  0  0
 15 38  1  0  0  0  0
 16 20  1  0  0  0  0
 16 17  1  0  0  0  0
 17 18  2  0  0  0  0
 17 39  1  0  0  0  0
 18 19  1  0  0  0  0
 18 40  1  0  0  0  0
 19 20  2  0  0  0  0
 19 41  1  0  0  0  0
M  CHG  1   9   1
M  END
> <s_m_source_file>
AV-unprocessed.smi

> <i_m_source_file_index>
560

> <i_lp_mmshare_version>
43012

> <i_f3d_flags>
0

> <s_epik_input>
bjFbY0hdW2NIXVtjSF1uMVtDQEhdKFtDSDNdKUMoPU8pW05IXVtDSF0yW0NIMl1bQ0gyXU4oW0NIMl1bQ0gyXTIpW0NIMl1DKD1PKVtOSDJd

> <s_epik_cmdline>
J2VwaWtfcHl0aG9uJywgJy1waCcsICc3LjAnLCAnLXRuJywgJzgnLCAnLW1hJywgJzIwMCcsICctbWV0YWxfYmluZGluZycsICctaW1hZScsICc8aW5maWxlLm1hZT4nLCAnLW9tYWUnLCAnPG91dGZpbGUubWFlPic=

> <r_lp_tautomer_probability>
1

> <r_epik_Ionization_Penalty>
1.02943

> <r_epik_Ionization_Penalty_Charging>
1.02936

> <r_epik_Ionization_Penalty_Neutral>
7.4537e-05

> <r_epik_State_Penalty>
1.08036

> <r_epik_Charging_Adjusted_Penalty>
2.10972

> <i_epik_Tot_Q>
1

> <i_epik_Tot_abs_Q>
1

> <r_epik_Metal_State_Penalty>
1.09347

> <b_epik_Metal_Only>
0

> <s_lp_Force_Field>
OPLS_2005

> <r_lp_Energy>
15.5023

> <b_lp_Chiralities_Consistent>
1

> <s_lp_Variant>
AV-unprocessed.smi:560-4

> <Gold.Version>
5.8.1

> <Gold.Id.Protein>
6NUR|6NUR_protein|mol2

> <Gold.PLP.Fitness>
42.4996

> <Gold.PLP.PLP>
-29.7176

> <Gold.PLP.part.hbond>
-2.9251

> <Gold.PLP.part.metal>
0.0000

> <Gold.PLP.part.buried>
-3.6810

> <Gold.PLP.part.nonpolar>
-24.3257

> <Gold.PLP.part.repulsive>
0.5343

> <Gold.PLP.ligand.clash>
0.0000

> <Gold.PLP.ligand.torsion>
1.1806

> <Gold.PLP.Chemscore.Hbond>
4.0000

> <Gold.PLP.Chemscore.CHOScore>
1.0000

> <Gold.PLP.Chemscore.Metal>
0.0000

> <Gold.Chemscore.Hbonds>
donor molecule, donor type, donor heavy atom, donor atom, acceptor molecule, acceptor atom, score
      L1  H     9    42       P1  7948  2.00
      L1  H    12    33       P1  7921  1.00
      L1  H    12    34       P1 10171  1.00
      L1  C    17    39       P1  8028  1.00

> <Gold.PLP.Chemscore.Internal.Correction>
0.1431

> <Gold.Rescore>
     Score         DG    S(hbond)    S(metal)    S(lipo)     H(rot)  DE(clash)    DE(int)     intcor
     13.57     -16.56       2.98        0.00      64.75       2.52       1.02       1.97       ----

> <Gold.Chemscore.Fitness>
13.5697

> <Gold.Chemscore.DG>
-16.5616

> <Gold.Chemscore.ZeroCoef>
-5.4800

> <Gold.Chemscore.Hbond>
2.9846

> <Gold.Chemscore.Metal>
0.0000

> <Gold.Chemscore.Lipo>
64.7451

> <Gold.Chemscore.Internal_Hbond>
0.0000

> <Gold.Chemscore.DEClash>
1.0211

> <Gold.Chemscore.DEInternal>
1.9708

> <Gold.Chemscore.Rot>
2.5243

> <Gold.Chemscore.Internal.Correction>
   9.000000E+99

> <Gold.Chemscore.Hbonds>
donor molecule, donor type, donor heavy atom, donor atom, acceptor molecule, acceptor atom, score
      L1  H     9    42       P1  7948  1.00
      L1  H    12    33       P1  7921  0.99
      L1  H    12    34       P1 10171  0.97

> <Gold.Chemscore.Hbond.Weighted>
-9.9686

> <Gold.Chemscore.Metal.Weighted>
-0.0000

> <Gold.Chemscore.Lipo.Weighted>
-7.5752

> <Gold.Chemscore.Internal_Hbond.Weighted>
0.0000

> <Gold.Chemscore.DEClash.Weighted>
1.0211

> <Gold.Chemscore.DEInternal.Weighted>
1.9708

> <Gold.Chemscore.Rot.Weighted>
6.4622

> <Gold.Chemscore.Internal.Correction.Weighted>
   9.000000E+99

> <Gold.Protein.RotatedTorsions>
[ 6907 6896 6895 6894 ] final  156.51 input  -60.11 | X-H torsion
[ 7974 7965 7964 7962 ] final -177.48 input  175.53 | X-H torsion
[ 8008 7997 7996 7995 ] final   33.50 input   59.86 | X-H torsion
[ 10167 10162 10161 10158 ] final  160.57 input  -65.29 | X-H torsion
[ 10718 10713 10712 10709 ] final -126.66 input   66.30 | X-H torsion
[ 10763 10752 10751 10750 ] final    2.97 input  -60.55 | X-H torsion
[ 11005 11000 10999 10996 ] final  -71.73 input  -57.11 | X-H torsion

> <Gold.Protein.ActiveResidues>
 VAL166  LYS551  ARG553  GLY616  TRP617  ASP618  TYR619  PRO620  LYS621  CYS622 
 ASP623  PHE694  ASN695  SER759  ASP760  ASP761  ALA762  ILE779  LEU786  VAL792 
 PHE793  MET794  SER795  GLU796  ALA797  LYS798  CYS799  TRP800  GLU811  SER814 

> <Gold.Protein.RotatedAtoms>
  152.0286  133.3928  159.4287 H   0  0  0  0  0  0  0  0  0  0  0  0  # atno 6907 bound_to 6896
  150.6884  134.3546  159.4933 H   0  0  0  0  0  0  0  0  0  0  0  0  # atno 6908 bound_to 6896
  152.1329  134.9120  160.0608 H   0  0  0  0  0  0  0  0  0  0  0  0  # atno 6909 bound_to 6896
  144.7128  140.1013  143.6416 H   0  0  0  0  0  0  0  0  0  0  0  0  # atno 7974 bound_to 7965
  155.1396  140.3265  155.4455 H   0  0  0  0  0  0  0  0  0  0  0  0  # atno 8008 bound_to 7997
  156.2609  140.1996  156.6461 H   0  0  0  0  0  0  0  0  0  0  0  0  # atno 8009 bound_to 7997
  154.6552  140.0553  156.9987 H   0  0  0  0  0  0  0  0  0  0  0  0  # atno 8010 bound_to 7997
  139.4841  144.4621  151.8690 H   0  0  0  0  0  0  0  0  0  0  0  0  # atno 10167 bound_to 10162
  156.1786  130.6716  151.0274 H   0  0  0  0  0  0  0  0  0  0  0  0  # atno 10718 bound_to 10713
  153.2890  135.6947  153.7311 H   0  0  0  0  0  0  0  0  0  0  0  0  # atno 10763 bound_to 10752
  153.6269  135.3417  155.3030 H   0  0  0  0  0  0  0  0  0  0  0  0  # atno 10764 bound_to 10752
  154.8518  135.4400  154.1967 H   0  0  0  0  0  0  0  0  0  0  0  0  # atno 10765 bound_to 10752
  141.1597  133.6826  156.6951 H   0  0  0  0  0  0  0  0  0  0  0  0  # atno 11005 bound_to 11000
  145.9535  139.2750  143.1198 LP  0  0  0  0  0  0  0  0  0  0  0  0  # atno 17320 bound_to 7965
  145.9298  140.9057  143.0362 LP  0  0  0  0  0  0  0  0  0  0  0  0  # atno 17321 bound_to 7965
  140.4084  144.2401  150.5890 LP  0  0  0  0  0  0  0  0  0  0  0  0  # atno 17342 bound_to 10162
  140.4990  143.2324  151.8707 LP  0  0  0  0  0  0  0  0  0  0  0  0  # atno 17343 bound_to 10162
  157.6852  131.0827  150.7261 LP  0  0  0  0  0  0  0  0  0  0  0  0  # atno 17370 bound_to 10713
  156.7318  130.4712  149.5498 LP  0  0  0  0  0  0  0  0  0  0  0  0  # atno 17371 bound_to 10713
  140.3001  134.8170  157.4090 LP  0  0  0  0  0  0  0  0  0  0  0  0  # atno 17394 bound_to 11000
  140.1269  134.5146  155.8137 LP  0  0  0  0  0  0  0  0  0  0  0  0  # atno 17395 bound_to 11000

$$$$
