AV-unprocessed.smi:3303|AV-procd|sdf|12658|dock1
  -GOLD-   2272018593D 1   1.00000     0.00000
 Structure written by MMmdl.
 45 46  0  0  0  0  0  0  0  0  3 V2000
  146.0673  142.8342  153.8194 C   0  0  0  0  0  0  0  0  0  0  0  0
  145.6017  143.1015  155.2663 C   0  0  1  0  0  0  0  0  0  0  0  0
  144.0800  142.9048  155.4105 C   0  0  0  0  0  0  0  0  0  0  0  0
  143.6862  141.4741  155.3048 N   0  3  2  0  0  0  0  0  0  0  0  0
  142.2096  141.3332  155.2979 C   0  0  0  0  0  0  0  0  0  0  0  0
  144.3730  140.6218  156.3228 C   0  0  1  0  0  0  0  0  0  0  0  0
  144.0091  139.1297  156.1890 C   0  0  0  0  0  0  0  0  0  0  0  0
  145.9070  140.7879  156.2353 C   0  0  0  0  0  0  0  0  0  0  0  0
  146.3343  142.2650  156.3374 C   0  0  1  0  0  0  0  0  0  0  0  0
  147.8029  142.4458  156.2439 N   0  3  0  0  0  0  0  0  0  0  0  0
  148.5257  141.4063  155.4819 C   0  0  0  0  0  0  0  0  0  0  0  0
  150.0345  141.4740  155.7556 C   0  0  0  0  0  0  0  0  0  0  0  0
  150.7574  140.2264  155.2850 C   0  0  0  0  0  0  0  0  0  0  0  0
  151.9519  139.8057  155.9076 C   0  0  0  0  0  0  0  0  0  0  0  0
  152.5834  138.6416  155.4279 C   0  0  0  0  0  0  0  0  0  0  0  0
  152.0003  137.9488  154.3495 C   0  0  0  0  0  0  0  0  0  0  0  0
  150.8065  138.4526  153.7958 C   0  0  0  0  0  0  0  0  0  0  0  0
  150.1929  139.5680  154.2480 N   0  0  0  0  0  0  0  0  0  0  0  0
  145.8869  141.8042  153.5118 H   0  0  0  0  0  0  0  0  0  0  0  0
  147.1313  143.0359  153.6943 H   0  0  0  0  0  0  0  0  0  0  0  0
  145.5380  143.4792  153.1174 H   0  0  0  0  0  0  0  0  0  0  0  0
  145.8117  144.1526  155.4702 H   0  0  0  0  0  0  0  0  0  0  0  0
  143.7449  143.2950  156.3732 H   0  0  0  0  0  0  0  0  0  0  0  0
  143.5643  143.4882  154.6463 H   0  0  0  0  0  0  0  0  0  0  0  0
  141.7904  141.5498  156.2814 H   0  0  0  0  0  0  0  0  0  0  0  0
  141.9035  140.3300  155.0027 H   0  0  0  0  0  0  0  0  0  0  0  0
  141.7584  142.0186  154.5799 H   0  0  0  0  0  0  0  0  0  0  0  0
  144.0508  140.9583  157.3099 H   0  0  0  0  0  0  0  0  0  0  0  0
  144.5938  138.5231  156.8811 H   0  0  0  0  0  0  0  0  0  0  0  0
  144.2053  138.7599  155.1821 H   0  0  0  0  0  0  0  0  0  0  0  0
  142.9617  138.9394  156.4225 H   0  0  0  0  0  0  0  0  0  0  0  0
  146.3654  140.2114  157.0388 H   0  0  0  0  0  0  0  0  0  0  0  0
  146.2760  140.3535  155.3055 H   0  0  0  0  0  0  0  0  0  0  0  0
  146.0257  142.6430  157.3138 H   0  0  0  0  0  0  0  0  0  0  0  0
  147.9995  143.3497  155.8380 H   0  0  0  0  0  0  0  0  0  0  0  0
  148.1432  140.4235  155.7609 H   0  0  0  0  0  0  0  0  0  0  0  0
  148.3436  141.5349  154.4149 H   0  0  0  0  0  0  0  0  0  0  0  0
  150.4651  142.3461  155.2614 H   0  0  0  0  0  0  0  0  0  0  0  0
  150.2173  141.6048  156.8234 H   0  0  0  0  0  0  0  0  0  0  0  0
  152.3761  140.3574  156.7337 H   0  0  0  0  0  0  0  0  0  0  0  0
  153.4983  138.2868  155.8788 H   0  0  0  0  0  0  0  0  0  0  0  0
  152.4563  137.0523  153.9562 H   0  0  0  0  0  0  0  0  0  0  0  0
  150.3329  137.9476  152.9670 H   0  0  0  0  0  0  0  0  0  0  0  0
  148.1712  142.4335  157.1847 H   0  0  0  0  0  0  0  0  0  0  0  0
  144.0030  141.1578  154.3993 H   0  0  0  0  0  0  0  0  0  0  0  0
  1  2  1  0  0  0  0
  1 19  1  0  0  0  0
  1 20  1  0  0  0  0
  1 21  1  0  0  0  0
  2  9  1  0  0  0  0
  2  3  1  0  0  0  0
  2 22  1  0  0  0  0
  3  4  1  0  0  0  0
  3 23  1  0  0  0  0
  3 24  1  0  0  0  0
  4  5  1  0  0  0  0
  4  6  1  0  0  0  0
  4 45  1  0  0  0  0
  5 25  1  0  0  0  0
  5 26  1  0  0  0  0
  5 27  1  0  0  0  0
  6  7  1  0  0  0  0
  6  8  1  0  0  0  0
  6 28  1  0  0  0  0
  7 29  1  0  0  0  0
  7 30  1  0  0  0  0
  7 31  1  0  0  0  0
  8  9  1  0  0  0  0
  8 32  1  0  0  0  0
  8 33  1  0  0  0  0
  9 10  1  0  0  0  0
  9 34  1  0  0  0  0
 10 11  1  0  0  0  0
 10 35  1  0  0  0  0
 10 44  1  0  0  0  0
 11 12  1  0  0  0  0
 11 36  1  0  0  0  0
 11 37  1  0  0  0  0
 12 13  1  0  0  0  0
 12 38  1  0  0  0  0
 12 39  1  0  0  0  0
 13 18  1  0  0  0  0
 13 14  2  0  0  0  0
 14 15  1  0  0  0  0
 14 40  1  0  0  0  0
 15 16  2  0  0  0  0
 15 41  1  0  0  0  0
 16 17  1  0  0  0  0
 16 42  1  0  0  0  0
 17 18  2  0  0  0  0
 17 43  1  0  0  0  0
M  CHG  1   4   1
M  CHG  1  10   1
M  END
> <s_m_source_file>
AV-unprocessed.smi

> <i_m_source_file_index>
3303

> <i_lp_mmshare_version>
43012

> <i_f3d_flags>
0

> <s_epik_input>
W0NIM11bQ0BASF0xW0NIMl1OKFtDSDNdKVtDQEBIXShbQ0gzXSlbQ0gyXVtDQEhdMVtOSF1bQ0gyXVtDSDJdYzJbY0hdW2NIXVtjSF1bY0hdbjI=

> <s_epik_cmdline>
J2VwaWtfcHl0aG9uJywgJy1waCcsICc3LjAnLCAnLXRuJywgJzgnLCAnLW1hJywgJzIwMCcsICctbWV0YWxfYmluZGluZycsICctaW1hZScsICc8aW5maWxlLm1hZT4nLCAnLW9tYWUnLCAnPG91dGZpbGUubWFlPic=

> <r_epik_Ionization_Penalty>
0.0769462

> <r_epik_Ionization_Penalty_Charging>
0.0759813

> <r_epik_Ionization_Penalty_Neutral>
0.000964829

> <r_epik_State_Penalty>
0.0654373

> <r_epik_Charging_Adjusted_Penalty>
0.141419

> <i_epik_Tot_Q>
2

> <i_epik_Tot_abs_Q>
2

> <r_epik_Metal_State_Penalty>
0.0656439

> <b_epik_Metal_Only>
0

> <s_lp_Force_Field>
OPLS_2005

> <r_lp_Energy>
30.9153

> <b_lp_Chiralities_Consistent>
1

> <s_lp_Variant>
AV-unprocessed.smi:3303-2

> <Gold.Version>
5.8.1

> <Gold.Id.Protein>
6NUR|6NUR_protein|mol2

> <Gold.PLP.Fitness>
42.6358

> <Gold.PLP.PLP>
-29.2083

> <Gold.PLP.part.hbond>
-2.9746

> <Gold.PLP.part.metal>
0.0000

> <Gold.PLP.part.buried>
-2.0718

> <Gold.PLP.part.nonpolar>
-25.0178

> <Gold.PLP.part.repulsive>
0.1824

> <Gold.PLP.ligand.clash>
0.0000

> <Gold.PLP.ligand.torsion>
0.9461

> <Gold.PLP.Chemscore.Hbond>
4.0000

> <Gold.PLP.Chemscore.CHOScore>
1.1016

> <Gold.PLP.Chemscore.Metal>
0.0000

> <Gold.Chemscore.Hbonds>
donor molecule, donor type, donor heavy atom, donor atom, acceptor molecule, acceptor atom, score
      L1  H     4    45       P1 10175  2.00
      L1  H    10    35       P1  8028  2.00
      L1  C    17    43       P1  7948  0.73
      L1  C    17    43       P1  7949  0.28
      L1  C    17    43       P1  7957  0.10

> <Gold.PLP.Chemscore.Internal.Correction>
0.0149

> <Gold.Rescore>
     Score         DG    S(hbond)    S(metal)    S(lipo)     H(rot)  DE(clash)    DE(int)     intcor
     14.29     -15.30       1.48        0.00      71.84       1.37       0.07       0.93       ----

> <Gold.Chemscore.Fitness>
14.2921

> <Gold.Chemscore.DG>
-15.2985

> <Gold.Chemscore.ZeroCoef>
-5.4800

> <Gold.Chemscore.Hbond>
1.4764

> <Gold.Chemscore.Metal>
0.0000

> <Gold.Chemscore.Lipo>
71.8433

> <Gold.Chemscore.Internal_Hbond>
0.0000

> <Gold.Chemscore.DEClash>
0.0747

> <Gold.Chemscore.DEInternal>
0.9317

> <Gold.Chemscore.Rot>
1.3744

> <Gold.Chemscore.Internal.Correction>
   9.000000E+99

> <Gold.Chemscore.Hbonds>
donor molecule, donor type, donor heavy atom, donor atom, acceptor molecule, acceptor atom, score
      L1  H     4    45       P1 10175  0.66
      L1  H    10    35       P1  8028  0.39

> <Gold.Chemscore.Hbond.Weighted>
-4.9313

> <Gold.Chemscore.Metal.Weighted>
-0.0000

> <Gold.Chemscore.Lipo.Weighted>
-8.4057

> <Gold.Chemscore.Internal_Hbond.Weighted>
0.0000

> <Gold.Chemscore.DEClash.Weighted>
0.0747

> <Gold.Chemscore.DEInternal.Weighted>
0.9317

> <Gold.Chemscore.Rot.Weighted>
3.5185

> <Gold.Chemscore.Internal.Correction.Weighted>
   9.000000E+99

> <Gold.Protein.RotatedTorsions>
[ 6907 6896 6895 6894 ] final  123.55 input  -60.11 | X-H torsion
[ 7974 7965 7964 7962 ] final    1.71 input  175.53 | X-H torsion
[ 8008 7997 7996 7995 ] final  -87.52 input   59.86 | X-H torsion
[ 10167 10162 10161 10158 ] final   10.53 input  -65.29 | X-H torsion
[ 10718 10713 10712 10709 ] final  -71.57 input   66.30 | X-H torsion
[ 10763 10752 10751 10750 ] final -122.01 input  -60.55 | X-H torsion
[ 11005 11000 10999 10996 ] final  -68.70 input  -57.11 | X-H torsion

> <Gold.Protein.ActiveResidues>
 VAL166  LYS551  ARG553  GLY616  TRP617  ASP618  TYR619  PRO620  LYS621  CYS622 
 ASP623  PHE694  ASN695  SER759  ASP760  ASP761  ALA762  ILE779  LEU786  VAL792 
 PHE793  MET794  SER795  GLU796  ALA797  LYS798  CYS799  TRP800  GLU811  SER814 

> <Gold.Protein.RotatedAtoms>
  152.4153  133.7027  159.6433 H   0  0  0  0  0  0  0  0  0  0  0  0  # atno 6907 bound_to 6896
  150.8030  133.8552  159.3225 H   0  0  0  0  0  0  0  0  0  0  0  0  # atno 6908 bound_to 6896
  151.6283  135.1027  160.0168 H   0  0  0  0  0  0  0  0  0  0  0  0  # atno 6909 bound_to 6896
  146.2441  140.0946  142.8350 H   0  0  0  0  0  0  0  0  0  0  0  0  # atno 7974 bound_to 7965
  154.6642  140.0565  157.0095 H   0  0  0  0  0  0  0  0  0  0  0  0  # atno 8008 bound_to 7997
  155.1184  140.3245  155.4485 H   0  0  0  0  0  0  0  0  0  0  0  0  # atno 8009 bound_to 7997
  156.2631  140.2002  156.6307 H   0  0  0  0  0  0  0  0  0  0  0  0  # atno 8010 bound_to 7997
  140.6188  143.8249  150.7150 H   0  0  0  0  0  0  0  0  0  0  0  0  # atno 10167 bound_to 10162
  156.0357  130.4354  150.2463 H   0  0  0  0  0  0  0  0  0  0  0  0  # atno 10718 bound_to 10713
  154.8680  135.4148  154.2713 H   0  0  0  0  0  0  0  0  0  0  0  0  # atno 10763 bound_to 10752
  153.3622  135.7004  153.6708 H   0  0  0  0  0  0  0  0  0  0  0  0  # atno 10764 bound_to 10752
  153.5604  135.3611  155.2769 H   0  0  0  0  0  0  0  0  0  0  0  0  # atno 10765 bound_to 10752
  141.1538  133.6747  156.6485 H   0  0  0  0  0  0  0  0  0  0  0  0  # atno 11005 bound_to 11000
  145.0621  140.9095  143.4932 LP  0  0  0  0  0  0  0  0  0  0  0  0  # atno 17320 bound_to 7965
  145.1063  139.2787  143.5660 LP  0  0  0  0  0  0  0  0  0  0  0  0  # atno 17321 bound_to 7965
  140.1834  143.4096  152.1916 LP  0  0  0  0  0  0  0  0  0  0  0  0  # atno 17342 bound_to 10162
  139.5421  144.7266  151.4700 LP  0  0  0  0  0  0  0  0  0  0  0  0  # atno 17343 bound_to 10162
  157.0563  131.0077  151.3237 LP  0  0  0  0  0  0  0  0  0  0  0  0  # atno 17370 bound_to 10713
  157.5103  130.7934  149.7698 LP  0  0  0  0  0  0  0  0  0  0  0  0  # atno 17371 bound_to 10713
  140.3338  134.7906  157.4346 LP  0  0  0  0  0  0  0  0  0  0  0  0  # atno 17394 bound_to 11000
  140.0994  134.5493  155.8367 LP  0  0  0  0  0  0  0  0  0  0  0  0  # atno 17395 bound_to 11000

$$$$
