AV-unprocessed.smi:1301|AV-procd|sdf|5422|dock3
  -GOLD-   22720 4583D 1   1.00000     0.00000
 Structure written by MMmdl.
 45 46  0  0  0  0  0  0  0  0  2 V2000
  152.9804  140.6825  159.3792 C   0  0  0  0  0  0  0  0  0  0  0  0
  152.5122  140.3811  157.9966 C   0  0  0  0  0  0  0  0  0  0  0  0
  151.3503  140.6506  157.3292 C   0  0  0  0  0  0  0  0  0  0  0  0
  151.5753  140.0761  156.0501 C   0  0  0  0  0  0  0  0  0  0  0  0
  150.5841  140.1411  155.0375 N   0  0  0  0  0  0  0  0  0  0  0  0
  149.2623  140.3241  155.1985 C   0  0  0  0  0  0  0  0  0  0  0  0
  148.6919  140.4646  156.2804 O   0  0  0  0  0  0  0  0  0  0  0  0
  148.6227  140.3376  154.0193 N   0  0  0  0  0  0  0  0  0  0  0  0
  147.1859  140.5490  153.8434 C   0  0  2  0  0  0  0  0  0  0  0  0
  146.3506  139.5903  154.7152 C   0  0  0  0  0  0  0  0  0  0  0  0
  146.4110  138.1411  154.2020 C   0  0  0  0  0  0  0  0  0  0  0  0
  145.9868  138.0595  152.7811 N   0  3  2  0  0  0  0  0  0  0  0  0
  145.8754  136.6567  152.3039 C   0  0  0  0  0  0  0  0  0  0  0  0
  144.7690  135.8575  153.0268 C   0  0  0  0  0  0  0  0  0  0  0  0
  144.5281  134.4871  152.3712 C   0  0  0  0  0  0  0  0  0  0  0  0
  143.4630  136.6648  153.0734 C   0  0  0  0  0  0  0  0  0  0  0  0
  146.8366  138.9151  151.9111 C   0  0  0  0  0  0  0  0  0  0  0  0
  146.7924  140.3858  152.3650 C   0  0  0  0  0  0  0  0  0  0  0  0
  152.7669  139.5083  155.9453 N   0  0  0  0  0  0  0  0  0  0  0  0
  153.3729  139.6996  157.1925 O   0  0  0  0  0  0  0  0  0  0  0  0
  152.5439  141.6129  159.7423 H   0  0  0  0  0  0  0  0  0  0  0  0
  154.0654  140.7847  159.4107 H   0  0  0  0  0  0  0  0  0  0  0  0
  152.6958  139.8843  160.0644 H   0  0  0  0  0  0  0  0  0  0  0  0
  150.4815  141.1734  157.7007 H   0  0  0  0  0  0  0  0  0  0  0  0
  150.9199  140.0466  154.0906 H   0  0  0  0  0  0  0  0  0  0  0  0
  149.1730  140.2184  153.1814 H   0  0  0  0  0  0  0  0  0  0  0  0
  146.9623  141.5759  154.1385 H   0  0  0  0  0  0  0  0  0  0  0  0
  146.6736  139.6330  155.7559 H   0  0  0  0  0  0  0  0  0  0  0  0
  145.3117  139.9227  154.7118 H   0  0  0  0  0  0  0  0  0  0  0  0
  147.4199  137.7392  154.3085 H   0  0  0  0  0  0  0  0  0  0  0  0
  145.7576  137.5223  154.8184 H   0  0  0  0  0  0  0  0  0  0  0  0
  145.7101  136.6563  151.2253 H   0  0  0  0  0  0  0  0  0  0  0  0
  146.8236  136.1410  152.4639 H   0  0  0  0  0  0  0  0  0  0  0  0
  145.0670  135.6857  154.0607 H   0  0  0  0  0  0  0  0  0  0  0  0
  144.2339  134.5929  151.3266 H   0  0  0  0  0  0  0  0  0  0  0  0
  143.7360  133.9411  152.8845 H   0  0  0  0  0  0  0  0  0  0  0  0
  145.4224  133.8645  152.4046 H   0  0  0  0  0  0  0  0  0  0  0  0
  143.0874  136.8718  152.0706 H   0  0  0  0  0  0  0  0  0  0  0  0
  143.6080  137.6202  153.5784 H   0  0  0  0  0  0  0  0  0  0  0  0
  142.6853  136.1242  153.6138 H   0  0  0  0  0  0  0  0  0  0  0  0
  147.8628  138.5453  151.9250 H   0  0  0  0  0  0  0  0  0  0  0  0
  146.4994  138.8596  150.8769 H   0  0  0  0  0  0  0  0  0  0  0  0
  145.7813  140.7694  152.2210 H   0  0  0  0  0  0  0  0  0  0  0  0
  147.4388  140.9948  151.7316 H   0  0  0  0  0  0  0  0  0  0  0  0
  145.0523  138.4418  152.7481 H   0  0  0  0  0  0  0  0  0  0  0  0
  1  2  1  0  0  0  0
  1 21  1  0  0  0  0
  1 22  1  0  0  0  0
  1 23  1  0  0  0  0
  2 20  1  0  0  0  0
  2  3  2  0  0  0  0
  3  4  1  0  0  0  0
  3 24  1  0  0  0  0
  4  5  1  0  0  0  0
  4 19  2  0  0  0  0
  5  6  1  0  0  0  0
  5 25  1  0  0  0  0
  6  7  2  0  0  0  0
  6  8  1  0  0  0  0
  8  9  1  0  0  0  0
  8 26  1  0  0  0  0
  9 18  1  0  0  0  0
  9 10  1  0  0  0  0
  9 27  1  0  0  0  0
 10 11  1  0  0  0  0
 10 28  1  0  0  0  0
 10 29  1  0  0  0  0
 11 12  1  0  0  0  0
 11 30  1  0  0  0  0
 11 31  1  0  0  0  0
 12 13  1  0  0  0  0
 12 17  1  0  0  0  0
 12 45  1  0  0  0  0
 13 14  1  0  0  0  0
 13 32  1  0  0  0  0
 13 33  1  0  0  0  0
 14 15  1  0  0  0  0
 14 16  1  0  0  0  0
 14 34  1  0  0  0  0
 15 35  1  0  0  0  0
 15 36  1  0  0  0  0
 15 37  1  0  0  0  0
 16 38  1  0  0  0  0
 16 39  1  0  0  0  0
 16 40  1  0  0  0  0
 17 18  1  0  0  0  0
 17 41  1  0  0  0  0
 17 42  1  0  0  0  0
 18 43  1  0  0  0  0
 18 44  1  0  0  0  0
 19 20  1  0  0  0  0
M  CHG  1  12   1
M  END
> <s_m_source_file>
AV-unprocessed.smi

> <i_m_source_file_index>
1301

> <i_lp_mmshare_version>
43012

> <i_f3d_flags>
0

> <s_epik_input>
W0NIM11jMVtjSF1jKG5vMSlbTkhdQyg9TylbTkhdW0NIXTJbQ0gyXVtDSDJdTihbQ0gyXVtDSDJdMilbQ0gyXVtDSF0oW0NIM10pW0NIM10=

> <s_epik_cmdline>
J2VwaWtfcHl0aG9uJywgJy1waCcsICc3LjAnLCAnLXRuJywgJzgnLCAnLW1hJywgJzIwMCcsICctbWV0YWxfYmluZGluZycsICctaW1hZScsICc8aW5maWxlLm1hZT4nLCAnLW9tYWUnLCAnPG91dGZpbGUubWFlPic=

> <r_epik_Ionization_Penalty>
0.0020743

> <r_epik_Ionization_Penalty_Charging>
0.0020412

> <r_epik_Ionization_Penalty_Neutral>
3.31029e-05

> <r_epik_State_Penalty>
0.00139626

> <r_epik_Charging_Adjusted_Penalty>
0.00343746

> <i_epik_Tot_Q>
1

> <i_epik_Tot_abs_Q>
1

> <r_epik_Metal_State_Penalty>
0.0141509

> <b_epik_Metal_Only>
0

> <s_lp_Force_Field>
OPLS_2005

> <r_lp_Energy>
16.729

> <b_lp_Chiralities_Consistent>
1

> <s_lp_Variant>
AV-unprocessed.smi:1301-2

> <Gold.Version>
5.8.1

> <Gold.Id.Protein>
6NUR|6NUR_protein|mol2

> <Gold.PLP.Fitness>
41.1148

> <Gold.PLP.PLP>
-29.5387

> <Gold.PLP.part.hbond>
-4.0423

> <Gold.PLP.part.metal>
0.0000

> <Gold.PLP.part.buried>
-0.1664

> <Gold.PLP.part.nonpolar>
-26.0970

> <Gold.PLP.part.repulsive>
1.4449

> <Gold.PLP.ligand.clash>
0.0000

> <Gold.PLP.ligand.torsion>
0.2435

> <Gold.PLP.Chemscore.Hbond>
4.0000

> <Gold.PLP.Chemscore.CHOScore>
0.0000

> <Gold.PLP.Chemscore.Metal>
0.0000

> <Gold.Chemscore.Hbonds>
donor molecule, donor type, donor heavy atom, donor atom, acceptor molecule, acceptor atom, score
      L1  H     8    26       P1  7957  0.89
      P1  H  7997  8010       L1    20  0.23

> <Gold.PLP.Chemscore.Internal.Correction>
0.0630

> <Gold.Rescore>
     Score         DG    S(hbond)    S(metal)    S(lipo)     H(rot)  DE(clash)    DE(int)     intcor
     12.50     -17.40       2.31        0.00      67.37       1.43       2.12       2.78       ----

> <Gold.Chemscore.Fitness>
12.5029

> <Gold.Chemscore.DG>
-17.4033

> <Gold.Chemscore.ZeroCoef>
-5.4800

> <Gold.Chemscore.Hbond>
2.3060

> <Gold.Chemscore.Metal>
0.0000

> <Gold.Chemscore.Lipo>
67.3656

> <Gold.Chemscore.Internal_Hbond>
0.0000

> <Gold.Chemscore.DEClash>
2.1192

> <Gold.Chemscore.DEInternal>
2.7812

> <Gold.Chemscore.Rot>
1.4298

> <Gold.Chemscore.Internal.Correction>
   9.000000E+99

> <Gold.Chemscore.Hbonds>
donor molecule, donor type, donor heavy atom, donor atom, acceptor molecule, acceptor atom, score
      L1  H     8    26       P1  7957  0.85
      L1  H    12    45       P1 10175  0.04
      P1  H  7997  8010       L1    20  0.10

> <Gold.Chemscore.Hbond.Weighted>
-7.7019

> <Gold.Chemscore.Metal.Weighted>
-0.0000

> <Gold.Chemscore.Lipo.Weighted>
-7.8818

> <Gold.Chemscore.Internal_Hbond.Weighted>
0.0000

> <Gold.Chemscore.DEClash.Weighted>
2.1192

> <Gold.Chemscore.DEInternal.Weighted>
2.7812

> <Gold.Chemscore.Rot.Weighted>
3.6604

> <Gold.Chemscore.Internal.Correction.Weighted>
   9.000000E+99

> <Gold.Protein.RotatedTorsions>
[ 6907 6896 6895 6894 ] final -171.61 input  -60.11 | X-H torsion
[ 7974 7965 7964 7962 ] final   76.61 input  175.53 | X-H torsion
[ 8008 7997 7996 7995 ] final   41.24 input   59.86 | X-H torsion
[ 10167 10162 10161 10158 ] final  -26.59 input  -65.29 | X-H torsion
[ 10718 10713 10712 10709 ] final  -59.74 input   66.30 | X-H torsion
[ 10763 10752 10751 10750 ] final  -56.41 input  -60.55 | X-H torsion
[ 11005 11000 10999 10996 ] final   59.08 input  -57.11 | X-H torsion

> <Gold.Protein.ActiveResidues>
 VAL166  LYS551  ARG553  GLY616  TRP617  ASP618  TYR619  PRO620  LYS621  CYS622 
 ASP623  PHE694  ASN695  SER759  ASP760  ASP761  ALA762  ILE779  LEU786  VAL792 
 PHE793  MET794  SER795  GLU796  ALA797  LYS798  CYS799  TRP800  GLU811  SER814 

> <Gold.Protein.RotatedAtoms>
  151.5266  133.3456  159.2910 H   0  0  0  0  0  0  0  0  0  0  0  0  # atno 6907 bound_to 6896
  150.8619  134.7975  159.7100 H   0  0  0  0  0  0  0  0  0  0  0  0  # atno 6908 bound_to 6896
  152.4636  134.5137  159.9813 H   0  0  0  0  0  0  0  0  0  0  0  0  # atno 6909 bound_to 6896
  145.7007  139.2581  143.1707 H   0  0  0  0  0  0  0  0  0  0  0  0  # atno 7974 bound_to 7965
  155.2663  140.3363  155.4269 H   0  0  0  0  0  0  0  0  0  0  0  0  # atno 8008 bound_to 7997
  156.2152  140.1786  156.7647 H   0  0  0  0  0  0  0  0  0  0  0  0  # atno 8009 bound_to 7997
  154.5743  140.0664  156.8996 H   0  0  0  0  0  0  0  0  0  0  0  0  # atno 8010 bound_to 7997
  140.7282  143.4165  151.1019 H   0  0  0  0  0  0  0  0  0  0  0  0  # atno 10167 bound_to 10162
  156.1040  130.4183  150.0758 H   0  0  0  0  0  0  0  0  0  0  0  0  # atno 10718 bound_to 10713
  154.2062  135.6402  153.5101 H   0  0  0  0  0  0  0  0  0  0  0  0  # atno 10763 bound_to 10752
  153.0000  135.5463  154.6263 H   0  0  0  0  0  0  0  0  0  0  0  0  # atno 10764 bound_to 10752
  154.5689  135.2915  155.0820 H   0  0  0  0  0  0  0  0  0  0  0  0  # atno 10765 bound_to 10752
  140.0330  134.5984  155.9481 H   0  0  0  0  0  0  0  0  0  0  0  0  # atno 11005 bound_to 11000
  146.0801  140.7774  142.9646 LP  0  0  0  0  0  0  0  0  0  0  0  0  # atno 17320 bound_to 7965
  144.6969  140.3475  143.7188 LP  0  0  0  0  0  0  0  0  0  0  0  0  # atno 17321 bound_to 7965
  139.7806  143.8361  152.3137 LP  0  0  0  0  0  0  0  0  0  0  0  0  # atno 17342 bound_to 10162
  139.8311  144.7253  150.9449 LP  0  0  0  0  0  0  0  0  0  0  0  0  # atno 17343 bound_to 10162
  156.8738  130.9533  151.3606 LP  0  0  0  0  0  0  0  0  0  0  0  0  # atno 17370 bound_to 10713
  157.6214  130.8658  149.9115 LP  0  0  0  0  0  0  0  0  0  0  0  0  # atno 17371 bound_to 10713
  141.1842  133.6552  156.5146 LP  0  0  0  0  0  0  0  0  0  0  0  0  # atno 17394 bound_to 11000
  140.4193  134.7201  157.4881 LP  0  0  0  0  0  0  0  0  0  0  0  0  # atno 17395 bound_to 11000

$$$$
