AV-unprocessed.smi:1102|AV-procd|sdf|4770|dock6
  -GOLD-   22720 3313D 1   1.00000     0.00000
 Structure written by MMmdl.
 39 40  0  0  0  0  0  0  0  0  1 V2000
  152.0853  144.3459  157.6449 C   0  0  0  0  0  0  0  0  0  0  0  0
  151.6742  144.3974  159.0425 N   0  0  0  0  0  0  0  0  0  0  0  0
  150.6069  145.3042  159.4527 C   0  0  0  0  0  0  0  0  0  0  0  0
  152.3618  143.6350  160.0145 C   0  0  0  0  0  0  0  0  0  0  0  0
  152.1202  143.8114  161.3996 C   0  0  0  0  0  0  0  0  0  0  0  0
  152.8286  143.0270  162.3301 C   0  0  0  0  0  0  0  0  0  0  0  0
  153.7601  142.0749  161.8570 C   0  0  0  0  0  0  0  0  0  0  0  0
  154.5486  141.2384  162.6925 N   0  0  0  0  0  0  0  0  0  0  0  0
  155.3277  140.2005  162.3431 C   0  0  0  0  0  0  0  0  0  0  0  0
  155.5143  139.8038  161.1928 O   0  0  0  0  0  0  0  0  0  0  0  0
  155.9054  139.6461  163.4178 N   0  0  0  0  0  0  0  0  0  0  0  0
  156.8091  138.5017  163.3860 C   0  0  0  0  0  0  0  0  0  0  0  0
  156.0386  137.1711  163.4057 C   0  0  1  0  0  0  0  0  0  0  0  0
  155.0480  137.0463  164.5617 C   0  0  0  0  0  0  0  0  0  0  0  0
  154.0035  136.0732  164.0355 C   0  0  0  0  0  0  0  0  0  0  0  0
  154.2810  136.0014  162.5309 C   0  0  0  0  0  0  0  0  0  0  0  0
  155.1927  137.0593  162.2721 O   0  0  0  0  0  0  0  0  0  0  0  0
  153.9446  141.9814  160.4641 C   0  0  0  0  0  0  0  0  0  0  0  0
  153.2675  142.7301  159.5692 N   0  0  0  0  0  0  0  0  0  0  0  0
  151.9561  143.3401  157.2444 H   0  0  0  0  0  0  0  0  0  0  0  0
  153.1323  144.6325  157.5416 H   0  0  0  0  0  0  0  0  0  0  0  0
  151.4936  145.0258  157.0317 H   0  0  0  0  0  0  0  0  0  0  0  0
  149.8233  144.7610  159.9819 H   0  0  0  0  0  0  0  0  0  0  0  0
  150.1484  145.7940  158.5938 H   0  0  0  0  0  0  0  0  0  0  0  0
  150.9969  146.0801  160.1121 H   0  0  0  0  0  0  0  0  0  0  0  0
  151.4103  144.5358  161.7690 H   0  0  0  0  0  0  0  0  0  0  0  0
  152.6520  143.1835  163.3825 H   0  0  0  0  0  0  0  0  0  0  0  0
  154.5611  141.4924  163.6694 H   0  0  0  0  0  0  0  0  0  0  0  0
  155.6976  140.0352  164.3259 H   0  0  0  0  0  0  0  0  0  0  0  0
  157.4437  138.5576  162.5000 H   0  0  0  0  0  0  0  0  0  0  0  0
  157.4741  138.5643  164.2476 H   0  0  0  0  0  0  0  0  0  0  0  0
  156.7273  136.3240  163.4223 H   0  0  0  0  0  0  0  0  0  0  0  0
  155.5212  136.7052  165.4829 H   0  0  0  0  0  0  0  0  0  0  0  0
  154.5777  138.0098  164.7628 H   0  0  0  0  0  0  0  0  0  0  0  0
  154.1040  135.0886  164.4935 H   0  0  0  0  0  0  0  0  0  0  0  0
  152.9969  136.4380  164.2417 H   0  0  0  0  0  0  0  0  0  0  0  0
  154.7524  135.0520  162.2729 H   0  0  0  0  0  0  0  0  0  0  0  0
  153.3764  136.1060  161.9315 H   0  0  0  0  0  0  0  0  0  0  0  0
  154.6550  141.2804  160.0504 H   0  0  0  0  0  0  0  0  0  0  0  0
  1  2  1  0  0  0  0
  1 20  1  0  0  0  0
  1 21  1  0  0  0  0
  1 22  1  0  0  0  0
  2  3  1  0  0  0  0
  2  4  1  0  0  0  0
  3 23  1  0  0  0  0
  3 24  1  0  0  0  0
  3 25  1  0  0  0  0
  4 19  1  0  0  0  0
  4  5  2  0  0  0  0
  5  6  1  0  0  0  0
  5 26  1  0  0  0  0
  6  7  2  0  0  0  0
  6 27  1  0  0  0  0
  7  8  1  0  0  0  0
  7 18  1  0  0  0  0
  8  9  1  0  0  0  0
  8 28  1  0  0  0  0
  9 10  2  0  0  0  0
  9 11  1  0  0  0  0
 11 12  1  0  0  0  0
 11 29  1  0  0  0  0
 12 13  1  0  0  0  0
 12 30  1  0  0  0  0
 12 31  1  0  0  0  0
 13 17  1  0  0  0  0
 13 14  1  0  0  0  0
 13 32  1  0  0  0  0
 14 15  1  0  0  0  0
 14 33  1  0  0  0  0
 14 34  1  0  0  0  0
 15 16  1  0  0  0  0
 15 35  1  0  0  0  0
 15 36  1  0  0  0  0
 16 17  1  0  0  0  0
 16 37  1  0  0  0  0
 16 38  1  0  0  0  0
 18 19  2  0  0  0  0
 18 39  1  0  0  0  0
M  END
> <s_m_source_file>
AV-unprocessed.smi

> <i_m_source_file_index>
1102

> <i_lp_mmshare_version>
43012

> <i_f3d_flags>
0

> <s_epik_input>
W0NIM11OKFtDSDNdKWMxW2NIXVtjSF1jKFtjSF1uMSlbTkhdQyg9TylbTkhdW0NIMl1bQ0BASF0yW0NIMl1bQ0gyXVtDSDJdTzI=

> <s_epik_cmdline>
J2VwaWtfcHl0aG9uJywgJy1waCcsICc3LjAnLCAnLXRuJywgJzgnLCAnLW1hJywgJzIwMCcsICctbWV0YWxfYmluZGluZycsICctaW1hZScsICc8aW5maWxlLm1hZT4nLCAnLW9tYWUnLCAnPG91dGZpbGUubWFlPic=

> <r_lp_tautomer_probability>
1

> <r_epik_Ionization_Penalty>
0.605145

> <r_epik_Ionization_Penalty_Charging>
0

> <r_epik_Ionization_Penalty_Neutral>
0.605145

> <r_epik_State_Penalty>
0.618734

> <r_epik_Charging_Adjusted_Penalty>
0.618734

> <i_epik_Tot_Q>
0

> <i_epik_Tot_abs_Q>
0

> <r_epik_Metal_State_Penalty>
0.302184

> <b_epik_Metal_Only>
0

> <s_lp_Force_Field>
OPLS_2005

> <r_lp_Energy>
20.895

> <b_lp_Chiralities_Consistent>
1

> <s_lp_Variant>
AV-unprocessed.smi:1102-4

> <Gold.Version>
5.8.1

> <Gold.Id.Protein>
6NUR|6NUR_protein|mol2

> <Gold.PLP.Fitness>
44.9241

> <Gold.PLP.PLP>
-45.3599

> <Gold.PLP.part.hbond>
-1.0000

> <Gold.PLP.part.metal>
0.0000

> <Gold.PLP.part.buried>
-4.9530

> <Gold.PLP.part.nonpolar>
-38.3975

> <Gold.PLP.part.repulsive>
0.0073

> <Gold.PLP.ligand.clash>
0.0000

> <Gold.PLP.ligand.torsion>
0.2377

> <Gold.PLP.Chemscore.Hbond>
0.0000

> <Gold.PLP.Chemscore.CHOScore>
0.0000

> <Gold.PLP.Chemscore.Metal>
0.0000

> <Gold.PLP.Chemscore.Internal.Correction>
0.0395

> <Gold.Rescore>
     Score         DG    S(hbond)    S(metal)    S(lipo)     H(rot)  DE(clash)    DE(int)     intcor
     11.95     -13.66       0.00        0.00      96.45       1.21       0.07       1.64       ----

> <Gold.Chemscore.Fitness>
11.9456

> <Gold.Chemscore.DG>
-13.6550

> <Gold.Chemscore.ZeroCoef>
-5.4800

> <Gold.Chemscore.Hbond>
0.0000

> <Gold.Chemscore.Metal>
0.0000

> <Gold.Chemscore.Lipo>
96.4477

> <Gold.Chemscore.Internal_Hbond>
0.0000

> <Gold.Chemscore.DEClash>
0.0732

> <Gold.Chemscore.DEInternal>
1.6362

> <Gold.Chemscore.Rot>
1.2146

> <Gold.Chemscore.Internal.Correction>
   9.000000E+99

> <Gold.Chemscore.Hbond.Weighted>
-0.0000

> <Gold.Chemscore.Metal.Weighted>
-0.0000

> <Gold.Chemscore.Lipo.Weighted>
-11.2844

> <Gold.Chemscore.Internal_Hbond.Weighted>
0.0000

> <Gold.Chemscore.DEClash.Weighted>
0.0732

> <Gold.Chemscore.DEInternal.Weighted>
1.6362

> <Gold.Chemscore.Rot.Weighted>
3.1093

> <Gold.Chemscore.Internal.Correction.Weighted>
   9.000000E+99

> <Gold.Protein.RotatedTorsions>
[ 6907 6896 6895 6894 ] final -129.83 input  -60.11 | X-H torsion
[ 7974 7965 7964 7962 ] final  -84.83 input  175.53 | X-H torsion
[ 8008 7997 7996 7995 ] final    3.05 input   59.86 | X-H torsion
[ 10167 10162 10161 10158 ] final  -37.00 input  -65.29 | X-H torsion
[ 10718 10713 10712 10709 ] final -111.45 input   66.30 | X-H torsion
[ 10763 10752 10751 10750 ] final   10.34 input  -60.55 | X-H torsion
[ 11005 11000 10999 10996 ] final   73.87 input  -57.11 | X-H torsion

> <Gold.Protein.ActiveResidues>
 VAL166  LYS551  ARG553  GLY616  TRP617  ASP618  TYR619  PRO620  LYS621  CYS622 
 ASP623  PHE694  ASN695  SER759  ASP760  ASP761  ALA762  ILE779  LEU786  VAL792 
 PHE793  MET794  SER795  GLU796  ALA797  LYS798  CYS799  TRP800  GLU811  SER814 

> <Gold.Protein.RotatedAtoms>
  150.9331  133.6744  159.2806 H   0  0  0  0  0  0  0  0  0  0  0  0  # atno 6907 bound_to 6896
  151.4159  135.0990  159.9609 H   0  0  0  0  0  0  0  0  0  0  0  0  # atno 6908 bound_to 6896
  152.5035  133.8793  159.7393 H   0  0  0  0  0  0  0  0  0  0  0  0  # atno 6909 bound_to 6896
  145.5014  140.9547  143.1757 H   0  0  0  0  0  0  0  0  0  0  0  0  # atno 7974 bound_to 7965
  154.6990  140.2669  155.6738 H   0  0  0  0  0  0  0  0  0  0  0  0  # atno 8008 bound_to 7997
  156.2758  140.2776  156.1517 H   0  0  0  0  0  0  0  0  0  0  0  0  # atno 8009 bound_to 7997
  155.0791  140.0372  157.2623 H   0  0  0  0  0  0  0  0  0  0  0  0  # atno 8010 bound_to 7997
  140.7129  143.3371  151.2439 H   0  0  0  0  0  0  0  0  0  0  0  0  # atno 10167 bound_to 10162
  156.0648  130.5868  150.8375 H   0  0  0  0  0  0  0  0  0  0  0  0  # atno 10718 bound_to 10713
  153.2043  135.6860  153.8192 H   0  0  0  0  0  0  0  0  0  0  0  0  # atno 10763 bound_to 10752
  153.7448  135.3233  155.3311 H   0  0  0  0  0  0  0  0  0  0  0  0  # atno 10764 bound_to 10752
  154.8188  135.4667  154.0823 H   0  0  0  0  0  0  0  0  0  0  0  0  # atno 10765 bound_to 10752
  139.9419  134.7384  156.1078 H   0  0  0  0  0  0  0  0  0  0  0  0  # atno 11005 bound_to 11000
  144.7778  139.6592  143.7167 LP  0  0  0  0  0  0  0  0  0  0  0  0  # atno 17320 bound_to 7965
  146.2223  139.5659  142.9610 LP  0  0  0  0  0  0  0  0  0  0  0  0  # atno 17321 bound_to 7965
  139.6869  143.9759  152.2839 LP  0  0  0  0  0  0  0  0  0  0  0  0  # atno 17342 bound_to 10162
  139.9407  144.6683  150.8269 LP  0  0  0  0  0  0  0  0  0  0  0  0  # atno 17343 bound_to 10162
  157.5682  131.0946  150.9458 LP  0  0  0  0  0  0  0  0  0  0  0  0  # atno 17370 bound_to 10713
  156.9680  130.5480  149.5289 LP  0  0  0  0  0  0  0  0  0  0  0  0  # atno 17371 bound_to 10713
  141.1056  133.6661  156.2856 LP  0  0  0  0  0  0  0  0  0  0  0  0  # atno 17394 bound_to 11000
  140.5931  134.5630  157.5503 LP  0  0  0  0  0  0  0  0  0  0  0  0  # atno 17395 bound_to 11000

$$$$
