AV-unprocessed.smi:1947|AV-procd|sdf|7868|dock10
  -GOLD-   2272010 23D 1   1.00000     0.00000
 Structure written by MMmdl.
 39 40  0  0  0  0  0  0  0  0  1 V2000
  153.2392  141.2999  160.0613 C   0  0  0  0  0  0  0  0  0  0  0  0
  152.2475  142.4671  159.9296 C   0  0  1  0  0  0  0  0  0  0  0  0
  152.8518  143.7619  160.5089 C   0  0  0  0  0  0  0  0  0  0  0  0
  151.8821  144.9469  160.3884 C   0  0  0  0  0  0  0  0  0  0  0  0
  151.4506  145.1586  158.9308 C   0  0  0  0  0  0  0  0  0  0  0  0
  150.8385  143.8777  158.3450 C   0  0  0  0  0  0  0  0  0  0  0  0
  151.8037  142.6785  158.4641 C   0  0  2  0  0  0  0  0  0  0  0  0
  151.1409  141.4957  158.0364 O   0  0  0  0  0  0  0  0  0  0  0  0
  150.4492  141.6204  156.8023 C   0  0  0  0  0  0  0  0  0  0  0  0
  148.9614  141.3244  157.0388 C   0  0  0  0  0  0  0  0  0  0  0  0
  148.2354  142.5226  157.4454 N   0  0  0  0  0  0  0  0  0  0  0  0
  147.1678  142.5392  158.2554 C   0  0  0  0  0  0  0  0  0  0  0  0
  146.6994  141.5293  158.7803 O   0  0  0  0  0  0  0  0  0  0  0  0
  146.6896  143.7852  158.4021 N   0  0  0  0  0  0  0  0  0  0  0  0
  145.5682  144.2045  159.1602 C   0  0  0  0  0  0  0  0  0  0  0  0
  144.9758  143.3058  159.9555 N   0  0  0  0  0  0  0  0  0  0  0  0
  143.8943  143.8481  160.6387 N   0  0  0  0  0  0  0  0  0  0  0  0
  143.7131  145.1360  160.3312 C   0  0  0  0  0  0  0  0  0  0  0  0
  144.8451  145.8159  159.1757 S   0  0  0  0  0  0  0  0  0  0  0  0
  154.1405  141.4775  159.4739 H   0  0  0  0  0  0  0  0  0  0  0  0
  152.7988  140.3633  159.7186 H   0  0  0  0  0  0  0  0  0  0  0  0
  153.5410  141.1571  161.0990 H   0  0  0  0  0  0  0  0  0  0  0  0
  151.3634  142.2189  160.5189 H   0  0  0  0  0  0  0  0  0  0  0  0
  153.1155  143.6138  161.5566 H   0  0  0  0  0  0  0  0  0  0  0  0
  153.7805  144.0002  159.9885 H   0  0  0  0  0  0  0  0  0  0  0  0
  151.0036  144.7669  161.0094 H   0  0  0  0  0  0  0  0  0  0  0  0
  152.3524  145.8525  160.7725 H   0  0  0  0  0  0  0  0  0  0  0  0
  150.7310  145.9757  158.8712 H   0  0  0  0  0  0  0  0  0  0  0  0
  152.3119  145.4597  158.3332 H   0  0  0  0  0  0  0  0  0  0  0  0
  149.9084  143.6493  158.8670 H   0  0  0  0  0  0  0  0  0  0  0  0
  150.5698  144.0544  157.3039 H   0  0  0  0  0  0  0  0  0  0  0  0
  152.6915  142.8569  157.8539 H   0  0  0  0  0  0  0  0  0  0  0  0
  150.5724  142.6161  156.3762 H   0  0  0  0  0  0  0  0  0  0  0  0
  150.8567  140.9097  156.0824 H   0  0  0  0  0  0  0  0  0  0  0  0
  148.5113  140.9048  156.1379 H   0  0  0  0  0  0  0  0  0  0  0  0
  148.8521  140.5723  157.8205 H   0  0  0  0  0  0  0  0  0  0  0  0
  148.5524  143.3980  157.0554 H   0  0  0  0  0  0  0  0  0  0  0  0
  147.1767  144.5173  157.9065 H   0  0  0  0  0  0  0  0  0  0  0  0
  142.9062  145.6895  160.7877 H   0  0  0  0  0  0  0  0  0  0  0  0
  1  2  1  0  0  0  0
  1 20  1  0  0  0  0
  1 21  1  0  0  0  0
  1 22  1  0  0  0  0
  2  7  1  0  0  0  0
  2  3  1  0  0  0  0
  2 23  1  0  0  0  0
  3  4  1  0  0  0  0
  3 24  1  0  0  0  0
  3 25  1  0  0  0  0
  4  5  1  0  0  0  0
  4 26  1  0  0  0  0
  4 27  1  0  0  0  0
  5  6  1  0  0  0  0
  5 28  1  0  0  0  0
  5 29  1  0  0  0  0
  6  7  1  0  0  0  0
  6 30  1  0  0  0  0
  6 31  1  0  0  0  0
  7  8  1  0  0  0  0
  7 32  1  0  0  0  0
  8  9  1  0  0  0  0
  9 10  1  0  0  0  0
  9 33  1  0  0  0  0
  9 34  1  0  0  0  0
 10 11  1  0  0  0  0
 10 35  1  0  0  0  0
 10 36  1  0  0  0  0
 11 12  1  0  0  0  0
 11 37  1  0  0  0  0
 12 13  2  0  0  0  0
 12 14  1  0  0  0  0
 14 15  1  0  0  0  0
 14 38  1  0  0  0  0
 15 19  1  0  0  0  0
 15 16  2  0  0  0  0
 16 17  1  0  0  0  0
 17 18  2  0  0  0  0
 18 19  1  0  0  0  0
 18 39  1  0  0  0  0
M  END
> <s_m_source_file>
AV-unprocessed.smi

> <i_m_source_file_index>
1947

> <i_lp_mmshare_version>
43012

> <i_f3d_flags>
0

> <s_epik_input>
W0NIM11bQ0BASF0xW0NIMl1bQ0gyXVtDSDJdW0NIMl1bQ0BIXTFPW0NIMl1bQ0gyXVtOSF1DKD1PKVtOSF1jMm5uW2NIXXMy

> <s_epik_cmdline>
J2VwaWtfcHl0aG9uJywgJy1waCcsICc3LjAnLCAnLXRuJywgJzgnLCAnLW1hJywgJzIwMCcsICctbWV0YWxfYmluZGluZycsICctaW1hZScsICc8aW5maWxlLm1hZT4nLCAnLW9tYWUnLCAnPG91dGZpbGUubWFlPic=

> <r_lp_tautomer_probability>
1

> <r_epik_Ionization_Penalty>
0.00220897

> <r_epik_Ionization_Penalty_Charging>
0

> <r_epik_Ionization_Penalty_Neutral>
0.00220897

> <r_epik_State_Penalty>
-0

> <r_epik_Charging_Adjusted_Penalty>
0

> <i_epik_Tot_Q>
0

> <i_epik_Tot_abs_Q>
0

> <r_epik_Metal_State_Penalty>
0.345002

> <b_epik_Metal_Only>
0

> <s_lp_Force_Field>
OPLS_2005

> <r_lp_Energy>
7.32574

> <b_lp_Chiralities_Consistent>
1

> <s_lp_Variant>
AV-unprocessed.smi:1947-4

> <Gold.Version>
5.8.1

> <Gold.Id.Protein>
6NUR|6NUR_protein|mol2

> <Gold.PLP.Fitness>
38.8878

> <Gold.PLP.PLP>
-33.0662

> <Gold.PLP.part.hbond>
-3.0000

> <Gold.PLP.part.metal>
0.0000

> <Gold.PLP.part.buried>
-4.8076

> <Gold.PLP.part.nonpolar>
-25.2688

> <Gold.PLP.part.repulsive>
0.1769

> <Gold.PLP.ligand.clash>
0.0000

> <Gold.PLP.ligand.torsion>
0.8046

> <Gold.PLP.Chemscore.Hbond>
2.4680

> <Gold.PLP.Chemscore.CHOScore>
0.0000

> <Gold.PLP.Chemscore.Metal>
0.0000

> <Gold.Chemscore.Hbonds>
donor molecule, donor type, donor heavy atom, donor atom, acceptor molecule, acceptor atom, score
      L1  H    11    37       P1  8028  1.00
      L1  H    14    38       P1  8029  1.00
      P1  H  6934  6946       L1    13  0.57

> <Gold.PLP.Chemscore.Internal.Correction>
0.0268

> <Gold.Rescore>
     Score         DG    S(hbond)    S(metal)    S(lipo)     H(rot)  DE(clash)    DE(int)     intcor
     14.43     -16.75       1.41        0.00      98.58       1.94       0.14       2.18       ----

> <Gold.Chemscore.Fitness>
14.4334

> <Gold.Chemscore.DG>
-16.7531

> <Gold.Chemscore.ZeroCoef>
-5.4800

> <Gold.Chemscore.Hbond>
1.4076

> <Gold.Chemscore.Metal>
0.0000

> <Gold.Chemscore.Lipo>
98.5836

> <Gold.Chemscore.Internal_Hbond>
0.0000

> <Gold.Chemscore.DEClash>
0.1380

> <Gold.Chemscore.DEInternal>
2.1817

> <Gold.Chemscore.Rot>
1.9385

> <Gold.Chemscore.Internal.Correction>
   9.000000E+99

> <Gold.Chemscore.Hbonds>
donor molecule, donor type, donor heavy atom, donor atom, acceptor molecule, acceptor atom, score
      L1  H    11    37       P1  8028  0.25
      L1  H    14    38       P1  8029  0.35
      P1  H  6934  6946       L1    13  0.54

> <Gold.Chemscore.Hbond.Weighted>
-4.7013

> <Gold.Chemscore.Metal.Weighted>
-0.0000

> <Gold.Chemscore.Lipo.Weighted>
-11.5343

> <Gold.Chemscore.Internal_Hbond.Weighted>
0.0000

> <Gold.Chemscore.DEClash.Weighted>
0.1380

> <Gold.Chemscore.DEInternal.Weighted>
2.1817

> <Gold.Chemscore.Rot.Weighted>
4.9625

> <Gold.Chemscore.Internal.Correction.Weighted>
   9.000000E+99

> <Gold.Protein.RotatedTorsions>
[ 6907 6896 6895 6894 ] final   25.98 input  -60.11 | X-H torsion
[ 7974 7965 7964 7962 ] final -158.14 input  175.53 | X-H torsion
[ 8008 7997 7996 7995 ] final   63.80 input   59.86 | X-H torsion
[ 10167 10162 10161 10158 ] final -142.69 input  -65.29 | X-H torsion
[ 10718 10713 10712 10709 ] final  142.89 input   66.30 | X-H torsion
[ 10763 10752 10751 10750 ] final   41.90 input  -60.55 | X-H torsion
[ 11005 11000 10999 10996 ] final -106.83 input  -57.11 | X-H torsion

> <Gold.Protein.ActiveResidues>
 VAL166  LYS551  ARG553  GLY616  TRP617  ASP618  TYR619  PRO620  LYS621  CYS622 
 ASP623  PHE694  ASN695  SER759  ASP760  ASP761  ALA762  ILE779  LEU786  VAL792 
 PHE793  MET794  SER795  GLU796  ALA797  LYS798  CYS799  TRP800  GLU811  SER814 

> <Gold.Protein.RotatedAtoms>
  151.9807  135.0030  160.0556 H   0  0  0  0  0  0  0  0  0  0  0  0  # atno 6907 bound_to 6896
  152.1699  133.4632  159.4912 H   0  0  0  0  0  0  0  0  0  0  0  0  # atno 6908 bound_to 6896
  150.6900  134.1883  159.4318 H   0  0  0  0  0  0  0  0  0  0  0  0  # atno 6909 bound_to 6896
  144.7518  140.3869  143.6042 H   0  0  0  0  0  0  0  0  0  0  0  0  # atno 7974 bound_to 7965
  155.6360  140.3496  155.4698 H   0  0  0  0  0  0  0  0  0  0  0  0  # atno 8008 bound_to 7997
  155.9965  140.1204  157.0612 H   0  0  0  0  0  0  0  0  0  0  0  0  # atno 8009 bound_to 7997
  154.4235  140.1109  156.5623 H   0  0  0  0  0  0  0  0  0  0  0  0  # atno 8010 bound_to 7997
  139.8065  143.7762  152.2661 H   0  0  0  0  0  0  0  0  0  0  0  0  # atno 10167 bound_to 10162
  157.3753  131.0984  151.0790 H   0  0  0  0  0  0  0  0  0  0  0  0  # atno 10718 bound_to 10713
  152.9896  135.6148  154.2862 H   0  0  0  0  0  0  0  0  0  0  0  0  # atno 10763 bound_to 10752
  154.2589  135.2783  155.2788 H   0  0  0  0  0  0  0  0  0  0  0  0  # atno 10764 bound_to 10752
  154.5223  135.5811  153.6748 H   0  0  0  0  0  0  0  0  0  0  0  0  # atno 10765 bound_to 10752
  141.0985  133.8928  157.1903 H   0  0  0  0  0  0  0  0  0  0  0  0  # atno 11005 bound_to 11000
  145.6918  139.1641  143.2642 LP  0  0  0  0  0  0  0  0  0  0  0  0  # atno 17320 bound_to 7965
  146.1478  140.6968  142.9336 LP  0  0  0  0  0  0  0  0  0  0  0  0  # atno 17321 bound_to 7965
  139.7897  144.7414  150.9972 LP  0  0  0  0  0  0  0  0  0  0  0  0  # atno 17342 bound_to 10162
  140.7819  143.4455  151.0489 LP  0  0  0  0  0  0  0  0  0  0  0  0  # atno 17343 bound_to 10162
  157.1879  130.6338  149.5694 LP  0  0  0  0  0  0  0  0  0  0  0  0  # atno 17370 bound_to 10713
  155.9764  130.4732  150.6525 LP  0  0  0  0  0  0  0  0  0  0  0  0  # atno 17371 bound_to 10713
  139.9828  135.0092  156.9792 LP  0  0  0  0  0  0  0  0  0  0  0  0  # atno 17394 bound_to 11000
  140.5081  134.1029  155.7264 LP  0  0  0  0  0  0  0  0  0  0  0  0  # atno 17395 bound_to 11000

$$$$
