AV-unprocessed.smi:2204|AV-procd|sdf|8937|dock1
  -GOLD-   2272012153D 1   1.00000     0.00000
 Structure written by MMmdl.
 39 40  0  0  0  0  0  0  0  0  1 V2000
  147.2361  140.2717  153.4219 C   0  0  0  0  0  0  0  0  0  0  0  0
  148.5730  140.0701  154.0717 C   0  0  0  0  0  0  0  0  0  0  0  0
  149.2423  140.9229  154.9933 C   0  0  0  0  0  0  0  0  0  0  0  0
  150.4163  140.2768  155.2602 C   0  0  0  0  0  0  0  0  0  0  0  0
  151.5496  140.6681  156.1507 C   0  0  0  0  0  0  0  0  0  0  0  0
  150.4061  139.1055  154.5227 N   0  0  0  0  0  0  0  0  0  0  0  0
  151.4145  138.0593  154.4434 C   0  0  0  0  0  0  0  0  0  0  0  0
  150.9525  136.7643  155.1193 C   0  0  0  0  0  0  0  0  0  0  0  0
  151.5799  136.3002  156.0719 O   0  0  0  0  0  0  0  0  0  0  0  0
  149.8401  136.2009  154.6215 N   0  0  0  0  0  0  0  0  0  0  0  0
  149.2086  134.9731  155.1030 C   0  0  2  0  0  0  0  0  0  0  0  0
  148.7516  135.1914  156.5530 C   0  0  0  0  0  0  0  0  0  0  0  0
  150.1780  133.7776  154.9829 C   0  0  2  0  0  0  0  0  0  0  0  0
  149.5179  132.3968  155.0102 C   0  0  0  0  0  0  0  0  0  0  0  0
  150.6579  131.5202  155.4724 C   0  0  0  0  0  0  0  0  0  0  0  0
  151.3404  132.4181  156.4991 C   0  0  0  0  0  0  0  0  0  0  0  0
  151.0874  133.7576  156.0817 O   0  0  0  0  0  0  0  0  0  0  0  0
  149.2739  138.9825  153.7958 N   0  0  0  0  0  0  0  0  0  0  0  0
  146.7460  141.1693  153.7994 H   0  0  0  0  0  0  0  0  0  0  0  0
  146.5737  139.4270  153.6135 H   0  0  0  0  0  0  0  0  0  0  0  0
  147.3381  140.3787  152.3418 H   0  0  0  0  0  0  0  0  0  0  0  0
  148.9115  141.8689  155.3957 H   0  0  0  0  0  0  0  0  0  0  0  0
  151.3937  141.6649  156.5638 H   0  0  0  0  0  0  0  0  0  0  0  0
  152.4916  140.6776  155.6026 H   0  0  0  0  0  0  0  0  0  0  0  0
  151.6471  139.9715  156.9834 H   0  0  0  0  0  0  0  0  0  0  0  0
  151.6402  137.8567  153.3965 H   0  0  0  0  0  0  0  0  0  0  0  0
  152.3366  138.4229  154.9001 H   0  0  0  0  0  0  0  0  0  0  0  0
  149.3947  136.6580  153.8392 H   0  0  0  0  0  0  0  0  0  0  0  0
  148.3191  134.7593  154.5076 H   0  0  0  0  0  0  0  0  0  0  0  0
  148.2446  134.3092  156.9444 H   0  0  0  0  0  0  0  0  0  0  0  0
  148.0538  136.0264  156.6236 H   0  0  0  0  0  0  0  0  0  0  0  0
  149.5964  135.4066  157.2084 H   0  0  0  0  0  0  0  0  0  0  0  0
  150.7687  133.8657  154.0694 H   0  0  0  0  0  0  0  0  0  0  0  0
  148.7096  132.3696  155.7426 H   0  0  0  0  0  0  0  0  0  0  0  0
  149.1144  132.0972  154.0426 H   0  0  0  0  0  0  0  0  0  0  0  0
  150.3275  130.5685  155.8899 H   0  0  0  0  0  0  0  0  0  0  0  0
  151.3337  131.3153  154.6410 H   0  0  0  0  0  0  0  0  0  0  0  0
  150.8967  132.2750  157.4850 H   0  0  0  0  0  0  0  0  0  0  0  0
  152.4097  132.2200  156.5767 H   0  0  0  0  0  0  0  0  0  0  0  0
  1  2  1  0  0  0  0
  1 19  1  0  0  0  0
  1 20  1  0  0  0  0
  1 21  1  0  0  0  0
  2 18  2  0  0  0  0
  2  3  1  0  0  0  0
  3  4  2  0  0  0  0
  3 22  1  0  0  0  0
  4  5  1  0  0  0  0
  4  6  1  0  0  0  0
  5 23  1  0  0  0  0
  5 24  1  0  0  0  0
  5 25  1  0  0  0  0
  6  7  1  0  0  0  0
  6 18  1  0  0  0  0
  7  8  1  0  0  0  0
  7 26  1  0  0  0  0
  7 27  1  0  0  0  0
  8  9  2  0  0  0  0
  8 10  1  0  0  0  0
 10 11  1  0  0  0  0
 10 28  1  0  0  0  0
 11 12  1  0  0  0  0
 11 13  1  0  0  0  0
 11 29  1  0  0  0  0
 12 30  1  0  0  0  0
 12 31  1  0  0  0  0
 12 32  1  0  0  0  0
 13 17  1  0  0  0  0
 13 14  1  0  0  0  0
 13 33  1  0  0  0  0
 14 15  1  0  0  0  0
 14 34  1  0  0  0  0
 14 35  1  0  0  0  0
 15 16  1  0  0  0  0
 15 36  1  0  0  0  0
 15 37  1  0  0  0  0
 16 17  1  0  0  0  0
 16 38  1  0  0  0  0
 16 39  1  0  0  0  0
M  END
> <s_m_source_file>
AV-unprocessed.smi

> <i_m_source_file_index>
2204

> <i_lp_mmshare_version>
43012

> <i_f3d_flags>
0

> <s_epik_input>
W0NIM11jMVtjSF1jKFtDSDNdKW4objEpW0NIMl1DKD1PKVtOSF1bQ0BIXShbQ0gzXSlbQ0BASF0yW0NIMl1bQ0gyXVtDSDJdTzI=

> <s_epik_cmdline>
J2VwaWtfcHl0aG9uJywgJy1waCcsICc3LjAnLCAnLXRuJywgJzgnLCAnLW1hJywgJzIwMCcsICctbWV0YWxfYmluZGluZycsICctaW1hZScsICc8aW5maWxlLm1hZT4nLCAnLW9tYWUnLCAnPG91dGZpbGUubWFlPic=

> <r_lp_tautomer_probability>
1

> <r_epik_Ionization_Penalty>
0.000433354

> <r_epik_Ionization_Penalty_Charging>
0

> <r_epik_Ionization_Penalty_Neutral>
0.000433354

> <r_epik_State_Penalty>
-0

> <r_epik_Charging_Adjusted_Penalty>
0

> <i_epik_Tot_Q>
0

> <i_epik_Tot_abs_Q>
0

> <r_epik_Metal_State_Penalty>
-0

> <b_epik_Metal_Only>
0

> <s_lp_Force_Field>
OPLS_2005

> <r_lp_Energy>
17.0674

> <b_lp_Chiralities_Consistent>
1

> <s_lp_Variant>
AV-unprocessed.smi:2204-1

> <Gold.Version>
5.8.1

> <Gold.Id.Protein>
6NUR|6NUR_protein|mol2

> <Gold.PLP.Fitness>
35.2692

> <Gold.PLP.PLP>
-31.1528

> <Gold.PLP.part.hbond>
-2.0000

> <Gold.PLP.part.metal>
0.0000

> <Gold.PLP.part.buried>
-2.8736

> <Gold.PLP.part.nonpolar>
-27.4129

> <Gold.PLP.part.repulsive>
2.0935

> <Gold.PLP.ligand.clash>
0.0000

> <Gold.PLP.ligand.torsion>
0.4581

> <Gold.PLP.Chemscore.Hbond>
1.6720

> <Gold.PLP.Chemscore.CHOScore>
0.0000

> <Gold.PLP.Chemscore.Metal>
0.0000

> <Gold.Chemscore.Hbonds>
donor molecule, donor type, donor heavy atom, donor atom, acceptor molecule, acceptor atom, score
      L1  H    10    28       P1  7948  0.71
      P1  H 10752 10765       L1     9  0.93

> <Gold.PLP.Chemscore.Internal.Correction>
0.0165

> <Gold.Rescore>
     Score         DG    S(hbond)    S(metal)    S(lipo)     H(rot)  DE(clash)    DE(int)     intcor
      9.75     -14.38       1.40        0.00      68.98       1.50       0.30       4.33       ----

> <Gold.Chemscore.Fitness>
9.7491

> <Gold.Chemscore.DG>
-14.3823

> <Gold.Chemscore.ZeroCoef>
-5.4800

> <Gold.Chemscore.Hbond>
1.3991

> <Gold.Chemscore.Metal>
0.0000

> <Gold.Chemscore.Lipo>
68.9799

> <Gold.Chemscore.Internal_Hbond>
0.0000

> <Gold.Chemscore.DEClash>
0.3025

> <Gold.Chemscore.DEInternal>
4.3307

> <Gold.Chemscore.Rot>
1.5005

> <Gold.Chemscore.Internal.Correction>
   9.000000E+99

> <Gold.Chemscore.Hbonds>
donor molecule, donor type, donor heavy atom, donor atom, acceptor molecule, acceptor atom, score
      L1  H    10    28       P1  7948  0.61
      P1  H 10752 10765       L1     9  0.20

> <Gold.Chemscore.Hbond.Weighted>
-4.6729

> <Gold.Chemscore.Metal.Weighted>
-0.0000

> <Gold.Chemscore.Lipo.Weighted>
-8.0707

> <Gold.Chemscore.Internal_Hbond.Weighted>
0.0000

> <Gold.Chemscore.DEClash.Weighted>
0.3025

> <Gold.Chemscore.DEInternal.Weighted>
4.3307

> <Gold.Chemscore.Rot.Weighted>
3.8412

> <Gold.Chemscore.Internal.Correction.Weighted>
   9.000000E+99

> <Gold.Protein.RotatedTorsions>
[ 6907 6896 6895 6894 ] final   -8.57 input  -60.11 | X-H torsion
[ 7974 7965 7964 7962 ] final   81.01 input  175.53 | X-H torsion
[ 8008 7997 7996 7995 ] final    3.39 input   59.86 | X-H torsion
[ 10167 10162 10161 10158 ] final   48.68 input  -65.29 | X-H torsion
[ 10718 10713 10712 10709 ] final   98.26 input   66.30 | X-H torsion
[ 10763 10752 10751 10750 ] final -149.52 input  -60.55 | X-H torsion
[ 11005 11000 10999 10996 ] final   65.26 input  -57.11 | X-H torsion

> <Gold.Protein.ActiveResidues>
 VAL166  LYS551  ARG553  GLY616  TRP617  ASP618  TYR619  PRO620  LYS621  CYS622 
 ASP623  PHE694  ASN695  SER759  ASP760  ASP761  ALA762  ILE779  LEU786  VAL792 
 PHE793  MET794  SER795  GLU796  ALA797  LYS798  CYS799  TRP800  GLU811  SER814 

> <Gold.Protein.RotatedAtoms>
  151.4315  135.1010  159.9643 H   0  0  0  0  0  0  0  0  0  0  0  0  # atno 6907 bound_to 6896
  152.4954  133.8613  159.7262 H   0  0  0  0  0  0  0  0  0  0  0  0  # atno 6908 bound_to 6896
  150.9151  133.6890  159.2873 H   0  0  0  0  0  0  0  0  0  0  0  0  # atno 6909 bound_to 6896
  145.6437  139.2431  143.2016 H   0  0  0  0  0  0  0  0  0  0  0  0  # atno 7974 bound_to 7965
  154.7031  140.2677  155.6700 H   0  0  0  0  0  0  0  0  0  0  0  0  # atno 8008 bound_to 7997
  156.2771  140.2768  156.1572 H   0  0  0  0  0  0  0  0  0  0  0  0  # atno 8009 bound_to 7997
  155.0737  140.0372  157.2607 H   0  0  0  0  0  0  0  0  0  0  0  0  # atno 8010 bound_to 7997
  140.2908  144.3048  150.6241 H   0  0  0  0  0  0  0  0  0  0  0  0  # atno 10167 bound_to 10162
  157.6898  131.0634  150.4769 H   0  0  0  0  0  0  0  0  0  0  0  0  # atno 10718 bound_to 10713
  154.8172  135.3307  154.7141 H   0  0  0  0  0  0  0  0  0  0  0  0  # atno 10763 bound_to 10752
  153.7780  135.6920  153.4898 H   0  0  0  0  0  0  0  0  0  0  0  0  # atno 10764 bound_to 10752
  153.1999  135.4520  155.0202 H   0  0  0  0  0  0  0  0  0  0  0  0  # atno 10765 bound_to 10752
  139.9906  134.6598  156.0098 H   0  0  0  0  0  0  0  0  0  0  0  0  # atno 11005 bound_to 11000
  146.1260  140.7247  142.9435 LP  0  0  0  0  0  0  0  0  0  0  0  0  # atno 17320 bound_to 7965
  144.7148  140.4170  143.7053 LP  0  0  0  0  0  0  0  0  0  0  0  0  # atno 17321 bound_to 7965
  140.5734  143.2178  151.7559 LP  0  0  0  0  0  0  0  0  0  0  0  0  # atno 17342 bound_to 10162
  139.4938  144.4184  152.0004 LP  0  0  0  0  0  0  0  0  0  0  0  0  # atno 17343 bound_to 10162
  156.5104  130.4138  149.6304 LP  0  0  0  0  0  0  0  0  0  0  0  0  # atno 17370 bound_to 10713
  156.3246  130.7299  151.2217 LP  0  0  0  0  0  0  0  0  0  0  0  0  # atno 17371 bound_to 10713
  141.1562  133.6542  156.4170 LP  0  0  0  0  0  0  0  0  0  0  0  0  # atno 17394 bound_to 11000
  140.4916  134.6570  157.5213 LP  0  0  0  0  0  0  0  0  0  0  0  0  # atno 17395 bound_to 11000

$$$$
