AV-unprocessed.smi:114|AV-procd|sdf|1116|dock1
  -GOLD-   2262018233D 1   1.00000     0.00000
 Structure written by MMmdl.
 32 34  0  0  0  0  0  0  0  0  1 V2000
  154.8330  139.4811  160.5660 N   0  0  0  0  0  0  0  0  0  0  0  0
  153.9092  140.4113  160.2872 C   0  0  0  0  0  0  0  0  0  0  0  0
  153.6778  141.3851  161.1990 N   0  0  0  0  0  0  0  0  0  0  0  0
  152.7616  142.3322  160.9604 C   0  0  0  0  0  0  0  0  0  0  0  0
  152.5956  143.2647  161.9273 F   0  0  0  0  0  0  0  0  0  0  0  0
  151.9903  142.4604  159.8747 N   0  0  0  0  0  0  0  0  0  0  0  0
  152.2243  141.4806  158.9546 C   0  0  0  0  0  0  0  0  0  0  0  0
  153.1619  140.4228  159.0843 C   0  0  0  0  0  0  0  0  0  0  0  0
  153.1222  139.6155  157.9554 N   0  0  0  0  0  0  0  0  0  0  0  0
  152.2080  140.1699  157.2038 C   0  0  0  0  0  0  0  0  0  0  0  0
  151.6143  141.2974  157.7337 N   0  0  0  0  0  0  0  0  0  0  0  0
  150.5442  142.1736  157.1557 C   0  0  1  0  0  0  0  0  0  0  0  0
  150.3147  141.7765  155.8364 O   0  0  0  0  0  0  0  0  0  0  0  0
  149.1085  141.0239  155.7610 C   0  0  2  0  0  0  0  0  0  0  0  0
  148.5697  141.0469  154.3229 C   0  0  0  0  0  0  0  0  0  0  0  0
  149.6131  140.7660  153.4146 O   0  0  0  0  0  0  0  0  0  0  0  0
  148.2301  141.7722  156.7632 C   0  0  1  0  0  0  0  0  0  0  0  0
  147.0833  141.0391  157.1523 O   0  0  0  0  0  0  0  0  0  0  0  0
  149.1989  142.0465  157.9107 C   0  0  1  0  0  0  0  0  0  0  0  0
  149.1820  141.0153  158.8876 O   0  0  0  0  0  0  0  0  0  0  0  0
  150.9680  143.1785  157.1761 H   0  0  0  0  0  0  0  0  0  0  0  0
  149.2771  140.0018  156.1063 H   0  0  0  0  0  0  0  0  0  0  0  0
  147.9116  142.7218  156.3301 H   0  0  0  0  0  0  0  0  0  0  0  0
  148.9692  142.9914  158.4041 H   0  0  0  0  0  0  0  0  0  0  0  0
  155.0200  138.7451  159.9000 H   0  0  0  0  0  0  0  0  0  0  0  0
  155.3388  139.5167  161.4393 H   0  0  0  0  0  0  0  0  0  0  0  0
  151.9443  139.7647  156.2379 H   0  0  0  0  0  0  0  0  0  0  0  0
  147.8082  140.2772  154.1943 H   0  0  0  0  0  0  0  0  0  0  0  0
  148.1062  142.0050  154.0862 H   0  0  0  0  0  0  0  0  0  0  0  0
  149.2916  140.1586  152.7661 H   0  0  0  0  0  0  0  0  0  0  0  0
  147.3568  140.1748  157.4192 H   0  0  0  0  0  0  0  0  0  0  0  0
  148.3900  141.0996  159.3967 H   0  0  0  0  0  0  0  0  0  0  0  0
  1  2  1  0  0  0  0
  1 25  1  0  0  0  0
  1 26  1  0  0  0  0
  2  8  1  0  0  0  0
  2  3  2  0  0  0  0
  3  4  1  0  0  0  0
  4  5  1  0  0  0  0
  4  6  2  0  0  0  0
  6  7  1  0  0  0  0
  7 11  1  0  0  0  0
  7  8  2  0  0  0  0
  8  9  1  0  0  0  0
  9 10  2  0  0  0  0
 10 11  1  0  0  0  0
 10 27  1  0  0  0  0
 11 12  1  0  0  0  0
 12 21  1  0  0  0  0
 12 19  1  0  0  0  0
 12 13  1  0  0  0  0
 13 14  1  0  0  0  0
 14 22  1  0  0  0  0
 14 15  1  0  0  0  0
 14 17  1  0  0  0  0
 15 16  1  0  0  0  0
 15 28  1  0  0  0  0
 15 29  1  0  0  0  0
 16 30  1  0  0  0  0
 17 23  1  0  0  0  0
 17 18  1  0  0  0  0
 17 19  1  0  0  0  0
 18 31  1  0  0  0  0
 19 24  1  0  0  0  0
 19 20  1  0  0  0  0
 20 32  1  0  0  0  0
M  END
> <s_m_source_file>
AV-unprocessed.smi

> <i_m_source_file_index>
114

> <i_lp_mmshare_version>
43012

> <i_f3d_flags>
0

> <s_epik_input>
RmMobjEpbmMoW05IMl0pYyhjMTIpbltjSF1uMltDQEBIXTNPW0NASF0oW0NIMl1bT0hdKVtDQEBIXShbT0hdKVtDQEBIXTNbT0hd

> <s_epik_cmdline>
J2VwaWtfcHl0aG9uJywgJy1waCcsICc3LjAnLCAnLXRuJywgJzgnLCAnLW1hJywgJzIwMCcsICctbWV0YWxfYmluZGluZycsICctaW1hZScsICc8aW5maWxlLm1hZT4nLCAnLW9tYWUnLCAnPG91dGZpbGUubWFlPic=

> <r_lp_tautomer_probability>
1

> <r_epik_Ionization_Penalty>
1.13199e-05

> <r_epik_Ionization_Penalty_Charging>
0

> <r_epik_Ionization_Penalty_Neutral>
1.13199e-05

> <r_epik_State_Penalty>
-0

> <r_epik_Charging_Adjusted_Penalty>
0

> <i_epik_Tot_Q>
0

> <i_epik_Tot_abs_Q>
0

> <r_epik_Metal_State_Penalty>
-0

> <b_epik_Metal_Only>
0

> <s_epik_Chemistry_Notes>
This compound contains an acetal/aminal-like group ( X-CH(R)-Y where X, Y are N, S, or O) that may be acid/base labile, releasing an aldehyde.

> <s_lp_Force_Field>
OPLS_2005

> <r_lp_Energy>
42.7446

> <b_lp_Chiralities_Consistent>
1

> <s_lp_Variant>
AV-unprocessed.smi:114-10

> <Gold.Version>
5.8.1

> <Gold.Id.Protein>
6NUR|6NUR_protein|mol2

> <Gold.PLP.Fitness>
40.1874

> <Gold.PLP.PLP>
-31.7542

> <Gold.PLP.part.hbond>
-5.4743

> <Gold.PLP.part.metal>
0.0000

> <Gold.PLP.part.buried>
-2.3280

> <Gold.PLP.part.nonpolar>
-24.0086

> <Gold.PLP.part.repulsive>
0.1283

> <Gold.PLP.ligand.clash>
0.0000

> <Gold.PLP.ligand.torsion>
0.2858

> <Gold.PLP.Chemscore.Hbond>
2.9760

> <Gold.PLP.Chemscore.CHOScore>
0.0000

> <Gold.PLP.Chemscore.Metal>
0.0000

> <Gold.Chemscore.Hbonds>
donor molecule, donor type, donor heavy atom, donor atom, acceptor molecule, acceptor atom, score
      L1  H    16    30       P1  7957  0.61
      P1  H  7989  7998       L1    16  0.32
      P1  H  7997  8008       L1     9  1.00
      P1  H  8011  8017       L1    16  1.00

> <Gold.PLP.Chemscore.Internal.Correction>
0.0767

> <Gold.Rescore>
     Score         DG    S(hbond)    S(metal)    S(lipo)     H(rot)  DE(clash)    DE(int)     intcor
      1.92      -3.50       1.60        0.00      25.70       4.03       1.29       0.30       ----

> <Gold.Chemscore.Fitness>
1.9190

> <Gold.Chemscore.DG>
-3.5043

> <Gold.Chemscore.ZeroCoef>
-5.4800

> <Gold.Chemscore.Hbond>
1.5955

> <Gold.Chemscore.Metal>
0.0000

> <Gold.Chemscore.Lipo>
25.6954

> <Gold.Chemscore.Internal_Hbond>
0.0000

> <Gold.Chemscore.DEClash>
1.2851

> <Gold.Chemscore.DEInternal>
0.3002

> <Gold.Chemscore.Rot>
4.0277

> <Gold.Chemscore.Internal.Correction>
   9.000000E+99

> <Gold.Chemscore.Hbonds>
donor molecule, donor type, donor heavy atom, donor atom, acceptor molecule, acceptor atom, score
      L1  H    16    30       P1  7957  0.62
      P1  H  7989  7998       L1    16  0.27
      P1  H  7997  8008       L1     9  0.17
      P1  H  8011  8017       L1    16  0.15

> <Gold.Chemscore.Hbond.Weighted>
-5.3289

> <Gold.Chemscore.Metal.Weighted>
-0.0000

> <Gold.Chemscore.Lipo.Weighted>
-3.0064

> <Gold.Chemscore.Internal_Hbond.Weighted>
0.0000

> <Gold.Chemscore.DEClash.Weighted>
1.2851

> <Gold.Chemscore.DEInternal.Weighted>
0.3002

> <Gold.Chemscore.Rot.Weighted>
10.3110

> <Gold.Chemscore.Internal.Correction.Weighted>
   9.000000E+99

> <Gold.Protein.RotatedTorsions>
[ 6907 6896 6895 6894 ] final -179.03 input  -60.11 | X-H torsion
[ 7974 7965 7964 7962 ] final -104.79 input  175.53 | X-H torsion
[ 8008 7997 7996 7995 ] final  -96.97 input   59.86 | X-H torsion
[ 10167 10162 10161 10158 ] final -177.19 input  -65.29 | X-H torsion
[ 10718 10713 10712 10709 ] final  -37.53 input   66.30 | X-H torsion
[ 10763 10752 10751 10750 ] final   35.15 input  -60.55 | X-H torsion
[ 11005 11000 10999 10996 ] final  103.96 input  -57.11 | X-H torsion

> <Gold.Protein.ActiveResidues>
 VAL166  LYS551  ARG553  GLY616  TRP617  ASP618  TYR619  PRO620  LYS621  CYS622 
 ASP623  PHE694  ASN695  SER759  ASP760  ASP761  ALA762  ILE779  LEU786  VAL792 
 PHE793  MET794  SER795  GLU796  ALA797  LYS798  CYS799  TRP800  GLU811  SER814 

> <Gold.Protein.RotatedAtoms>
  151.6469  133.3323  159.3142 H   0  0  0  0  0  0  0  0  0  0  0  0  # atno 6907 bound_to 6896
  150.7980  134.7057  159.6584 H   0  0  0  0  0  0  0  0  0  0  0  0  # atno 6908 bound_to 6896
  152.4069  134.6196  160.0098 H   0  0  0  0  0  0  0  0  0  0  0  0  # atno 6909 bound_to 6896
  145.2387  140.9197  143.3163 H   0  0  0  0  0  0  0  0  0  0  0  0  # atno 7974 bound_to 7965
  154.7815  140.0467  157.1130 H   0  0  0  0  0  0  0  0  0  0  0  0  # atno 8008 bound_to 7997
  154.9699  140.3088  155.4973 H   0  0  0  0  0  0  0  0  0  0  0  0  # atno 8009 bound_to 7997
  156.2937  140.2255  156.4791 H   0  0  0  0  0  0  0  0  0  0  0  0  # atno 8010 bound_to 7997
  139.5492  144.2154  152.1046 H   0  0  0  0  0  0  0  0  0  0  0  0  # atno 10167 bound_to 10162
  156.3142  130.4256  149.8021 H   0  0  0  0  0  0  0  0  0  0  0  0  # atno 10718 bound_to 10713
  153.0132  135.6341  154.1782 H   0  0  0  0  0  0  0  0  0  0  0  0  # atno 10763 bound_to 10752
  154.1522  135.2828  155.3134 H   0  0  0  0  0  0  0  0  0  0  0  0  # atno 10764 bound_to 10752
  154.6044  135.5577  153.7469 H   0  0  0  0  0  0  0  0  0  0  0  0  # atno 10765 bound_to 10752
  139.8788  134.9283  156.5289 H   0  0  0  0  0  0  0  0  0  0  0  0  # atno 11005 bound_to 11000
  144.9609  139.3980  143.6356 LP  0  0  0  0  0  0  0  0  0  0  0  0  # atno 17320 bound_to 7965
  146.3334  139.8662  142.8848 LP  0  0  0  0  0  0  0  0  0  0  0  0  # atno 17321 bound_to 7965
  140.1646  144.4993  150.6613 LP  0  0  0  0  0  0  0  0  0  0  0  0  # atno 17342 bound_to 10162
  140.6750  143.2301  151.5530 LP  0  0  0  0  0  0  0  0  0  0  0  0  # atno 17343 bound_to 10162
  156.5353  130.8276  151.3251 LP  0  0  0  0  0  0  0  0  0  0  0  0  # atno 17370 bound_to 10713
  157.7398  130.9838  150.2335 LP  0  0  0  0  0  0  0  0  0  0  0  0  # atno 17371 bound_to 10713
  140.8395  133.8216  155.9061 LP  0  0  0  0  0  0  0  0  0  0  0  0  # atno 17394 bound_to 11000
  140.9251  134.2092  157.4901 LP  0  0  0  0  0  0  0  0  0  0  0  0  # atno 17395 bound_to 11000

$$$$
