AV-unprocessed.smi:1817|AV-procd|sdf|7371|dock1
  -GOLD-   22720 9 33D 1   1.00000     0.00000
 Structure written by MMmdl.
 43 44  0  0  0  0  0  0  0  0  2 V2000
  153.0394  142.7061  161.2432 C   0  0  0  0  0  0  0  0  0  0  0  0
  153.2550  143.0855  159.7711 C   0  0  0  0  0  0  0  0  0  0  0  0
  152.2780  144.0753  159.3112 N   0  0  0  0  0  0  0  0  0  0  0  0
  152.4594  144.5377  157.9341 C   0  0  0  0  0  0  0  0  0  0  0  0
  152.1449  143.4405  156.8956 C   0  0  0  0  0  0  0  0  0  0  0  0
  150.7576  142.9174  157.0513 N   0  3  0  0  0  0  0  0  0  0  0  0
  150.3590  141.8678  156.0531 C   0  0  1  0  0  0  0  0  0  0  0  0
  151.1968  140.5815  156.2496 C   0  0  0  0  0  0  0  0  0  0  0  0
  148.8389  141.5398  156.0881 C   0  0  0  0  0  0  0  0  0  0  0  0
  148.0496  142.5326  156.8147 N   0  0  0  0  0  0  0  0  0  0  0  0
  147.3923  142.3184  157.9642 C   0  0  0  0  0  0  0  0  0  0  0  0
  147.3539  141.2262  158.5299 O   0  0  0  0  0  0  0  0  0  0  0  0
  146.7922  143.4395  158.3954 N   0  0  0  0  0  0  0  0  0  0  0  0
  145.9974  143.6129  159.5561 C   0  0  0  0  0  0  0  0  0  0  0  0
  145.7919  142.5485  160.3402 N   0  0  0  0  0  0  0  0  0  0  0  0
  145.0005  142.8571  161.4400 N   0  0  0  0  0  0  0  0  0  0  0  0
  144.6412  144.1443  161.4425 C   0  0  0  0  0  0  0  0  0  0  0  0
  145.2335  145.1088  160.1016 S   0  0  0  0  0  0  0  0  0  0  0  0
  150.5557  142.4842  158.4629 C   0  0  0  0  0  0  0  0  0  0  0  0
  150.8989  143.6127  159.4571 C   0  0  0  0  0  0  0  0  0  0  0  0
  153.6870  141.8739  161.5200 H   0  0  0  0  0  0  0  0  0  0  0  0
  152.0102  142.3964  161.4265 H   0  0  0  0  0  0  0  0  0  0  0  0
  153.2715  143.5305  161.9169 H   0  0  0  0  0  0  0  0  0  0  0  0
  154.2784  143.4255  159.6174 H   0  0  0  0  0  0  0  0  0  0  0  0
  153.1364  142.1824  159.1710 H   0  0  0  0  0  0  0  0  0  0  0  0
  151.7982  145.3897  157.7687 H   0  0  0  0  0  0  0  0  0  0  0  0
  153.4706  144.9166  157.7897 H   0  0  0  0  0  0  0  0  0  0  0  0
  152.2675  143.9047  155.9182 H   0  0  0  0  0  0  0  0  0  0  0  0
  152.8649  142.6234  156.9530 H   0  0  0  0  0  0  0  0  0  0  0  0
  150.5766  142.2639  155.0597 H   0  0  0  0  0  0  0  0  0  0  0  0
  150.9424  139.8152  155.5185 H   0  0  0  0  0  0  0  0  0  0  0  0
  151.0368  140.1554  157.2405 H   0  0  0  0  0  0  0  0  0  0  0  0
  152.2651  140.7453  156.1250 H   0  0  0  0  0  0  0  0  0  0  0  0
  148.4568  141.4001  155.0753 H   0  0  0  0  0  0  0  0  0  0  0  0
  148.6577  140.6061  156.6189 H   0  0  0  0  0  0  0  0  0  0  0  0
  148.0221  143.4630  156.4233 H   0  0  0  0  0  0  0  0  0  0  0  0
  146.9163  144.2664  157.8300 H   0  0  0  0  0  0  0  0  0  0  0  0
  144.0228  144.5281  162.2404 H   0  0  0  0  0  0  0  0  0  0  0  0
  149.5179  142.2123  158.6403 H   0  0  0  0  0  0  0  0  0  0  0  0
  151.1460  141.5902  158.6678 H   0  0  0  0  0  0  0  0  0  0  0  0
  150.7325  143.2774  160.4815 H   0  0  0  0  0  0  0  0  0  0  0  0
  150.2263  144.4570  159.2995 H   0  0  0  0  0  0  0  0  0  0  0  0
  150.1460  143.7064  156.8975 H   0  0  0  0  0  0  0  0  0  0  0  0
  1  2  1  0  0  0  0
  1 21  1  0  0  0  0
  1 22  1  0  0  0  0
  1 23  1  0  0  0  0
  2  3  1  0  0  0  0
  2 24  1  0  0  0  0
  2 25  1  0  0  0  0
  3 20  1  0  0  0  0
  3  4  1  0  0  0  0
  4  5  1  0  0  0  0
  4 26  1  0  0  0  0
  4 27  1  0  0  0  0
  5  6  1  0  0  0  0
  5 28  1  0  0  0  0
  5 29  1  0  0  0  0
  6  7  1  0  0  0  0
  6 19  1  0  0  0  0
  6 43  1  0  0  0  0
  7  8  1  0  0  0  0
  7  9  1  0  0  0  0
  7 30  1  0  0  0  0
  8 31  1  0  0  0  0
  8 32  1  0  0  0  0
  8 33  1  0  0  0  0
  9 10  1  0  0  0  0
  9 34  1  0  0  0  0
  9 35  1  0  0  0  0
 10 11  1  0  0  0  0
 10 36  1  0  0  0  0
 11 12  2  0  0  0  0
 11 13  1  0  0  0  0
 13 14  1  0  0  0  0
 13 37  1  0  0  0  0
 14 18  1  0  0  0  0
 14 15  2  0  0  0  0
 15 16  1  0  0  0  0
 16 17  2  0  0  0  0
 17 18  1  0  0  0  0
 17 38  1  0  0  0  0
 19 20  1  0  0  0  0
 19 39  1  0  0  0  0
 19 40  1  0  0  0  0
 20 41  1  0  0  0  0
 20 42  1  0  0  0  0
M  CHG  1   6   1
M  END
> <s_m_source_file>
AV-unprocessed.smi

> <i_m_source_file_index>
1817

> <i_lp_mmshare_version>
43012

> <i_f3d_flags>
0

> <s_epik_input>
W0NIM11bQ0gyXU4xW0NIMl1bQ0gyXU4oW0NIMl1bQ0gyXTEpW0NASF0oW0NIM10pW0NIMl1bTkhdQyg9TylbTkhdYzJubltjSF1zMg==

> <s_epik_cmdline>
J2VwaWtfcHl0aG9uJywgJy1waCcsICc3LjAnLCAnLXRuJywgJzgnLCAnLW1hJywgJzIwMCcsICctbWV0YWxfYmluZGluZycsICctaW1hZScsICc8aW5maWxlLm1hZT4nLCAnLW9tYWUnLCAnPG91dGZpbGUubWFlPic=

> <r_epik_Ionization_Penalty>
0.153808

> <r_epik_Ionization_Penalty_Charging>
0.148467

> <r_epik_Ionization_Penalty_Neutral>
0.00534086

> <r_epik_State_Penalty>
0.974087

> <r_epik_Charging_Adjusted_Penalty>
1.12255

> <i_epik_Tot_Q>
1

> <i_epik_Tot_abs_Q>
1

> <r_epik_Metal_State_Penalty>
1.30894

> <b_epik_Metal_Only>
0

> <s_lp_Force_Field>
OPLS_2005

> <r_lp_Energy>
21.4774

> <b_lp_Chiralities_Consistent>
1

> <s_lp_Variant>
AV-unprocessed.smi:1817-4

> <Gold.Version>
5.8.1

> <Gold.Id.Protein>
6NUR|6NUR_protein|mol2

> <Gold.PLP.Fitness>
46.0239

> <Gold.PLP.PLP>
-33.5005

> <Gold.PLP.part.hbond>
-5.0000

> <Gold.PLP.part.metal>
0.0000

> <Gold.PLP.part.buried>
-5.9481

> <Gold.PLP.part.nonpolar>
-23.2727

> <Gold.PLP.part.repulsive>
0.1214

> <Gold.PLP.ligand.clash>
0.0011

> <Gold.PLP.ligand.torsion>
0.6679

> <Gold.PLP.Chemscore.Hbond>
4.5994

> <Gold.PLP.Chemscore.CHOScore>
0.0000

> <Gold.PLP.Chemscore.Metal>
0.0000

> <Gold.Chemscore.Hbonds>
donor molecule, donor type, donor heavy atom, donor atom, acceptor molecule, acceptor atom, score
      L1  H     6    43       P1  8028  1.98
      L1  H    10    36       P1  8028  0.73
      L1  H    13    37       P1  8029  0.90
      P1  H  6934  6946       L1    15  0.94

> <Gold.PLP.Chemscore.Internal.Correction>
0.0622

> <Gold.Rescore>
     Score         DG    S(hbond)    S(metal)    S(lipo)     H(rot)  DE(clash)    DE(int)     intcor
     14.49     -18.18       1.92        0.00      95.77       1.92       1.57       2.13       ----

> <Gold.Chemscore.Fitness>
14.4876

> <Gold.Chemscore.DG>
-18.1832

> <Gold.Chemscore.ZeroCoef>
-5.4800

> <Gold.Chemscore.Hbond>
1.9199

> <Gold.Chemscore.Metal>
0.0000

> <Gold.Chemscore.Lipo>
95.7672

> <Gold.Chemscore.Internal_Hbond>
0.0000

> <Gold.Chemscore.DEClash>
1.5700

> <Gold.Chemscore.DEInternal>
2.1256

> <Gold.Chemscore.Rot>
1.9196

> <Gold.Chemscore.Internal.Correction>
   9.000000E+99

> <Gold.Chemscore.Hbonds>
donor molecule, donor type, donor heavy atom, donor atom, acceptor molecule, acceptor atom, score
      L1  H     6    43       P1  8028  0.88
      L1  H    10    36       P1  8028  0.09
      L1  H    13    37       P1  8029  0.17
      P1  H  6934  6946       L1    15  0.67

> <Gold.Chemscore.Hbond.Weighted>
-6.4125

> <Gold.Chemscore.Metal.Weighted>
-0.0000

> <Gold.Chemscore.Lipo.Weighted>
-11.2048

> <Gold.Chemscore.Internal_Hbond.Weighted>
0.0000

> <Gold.Chemscore.DEClash.Weighted>
1.5700

> <Gold.Chemscore.DEInternal.Weighted>
2.1256

> <Gold.Chemscore.Rot.Weighted>
4.9141

> <Gold.Chemscore.Internal.Correction.Weighted>
   9.000000E+99

> <Gold.Protein.RotatedTorsions>
[ 6907 6896 6895 6894 ] final -144.18 input  -60.11 | X-H torsion
[ 7974 7965 7964 7962 ] final  -48.47 input  175.53 | X-H torsion
[ 8008 7997 7996 7995 ] final   65.74 input   59.86 | X-H torsion
[ 10167 10162 10161 10158 ] final   24.88 input  -65.29 | X-H torsion
[ 10718 10713 10712 10709 ] final  -46.45 input   66.30 | X-H torsion
[ 10763 10752 10751 10750 ] final   79.05 input  -60.55 | X-H torsion
[ 11005 11000 10999 10996 ] final   87.53 input  -57.11 | X-H torsion

> <Gold.Protein.ActiveResidues>
 VAL166  LYS551  ARG553  GLY616  TRP617  ASP618  TYR619  PRO620  LYS621  CYS622 
 ASP623  PHE694  ASN695  SER759  ASP760  ASP761  ALA762  ILE779  LEU786  VAL792 
 PHE793  MET794  SER795  GLU796  ALA797  LYS798  CYS799  TRP800  GLU811  SER814 

> <Gold.Protein.RotatedAtoms>
  151.1106  133.5176  159.2605 H   0  0  0  0  0  0  0  0  0  0  0  0  # atno 6907 bound_to 6896
  151.1972  135.0427  159.8867 H   0  0  0  0  0  0  0  0  0  0  0  0  # atno 6908 bound_to 6896
  152.5450  134.0939  159.8342 H   0  0  0  0  0  0  0  0  0  0  0  0  # atno 6909 bound_to 6896
  145.9508  140.7574  142.9505 H   0  0  0  0  0  0  0  0  0  0  0  0  # atno 7974 bound_to 7965
  155.6664  140.3497  155.4802 H   0  0  0  0  0  0  0  0  0  0  0  0  # atno 8008 bound_to 7997
  155.9725  140.1158  157.0822 H   0  0  0  0  0  0  0  0  0  0  0  0  # atno 8009 bound_to 7997
  154.4170  140.1154  156.5312 H   0  0  0  0  0  0  0  0  0  0  0  0  # atno 8010 bound_to 7997
  140.5152  144.0094  150.6391 H   0  0  0  0  0  0  0  0  0  0  0  0  # atno 10167 bound_to 10162
  156.2182  130.4164  149.9027 H   0  0  0  0  0  0  0  0  0  0  0  0  # atno 10718 bound_to 10713
  153.0922  135.4854  154.8711 H   0  0  0  0  0  0  0  0  0  0  0  0  # atno 10763 bound_to 10752
  154.7283  135.3054  154.8937 H   0  0  0  0  0  0  0  0  0  0  0  0  # atno 10764 bound_to 10752
  153.9580  135.6815  153.4798 H   0  0  0  0  0  0  0  0  0  0  0  0  # atno 10765 bound_to 10752
  139.8917  134.8428  156.2872 H   0  0  0  0  0  0  0  0  0  0  0  0  # atno 11005 bound_to 11000
  144.6795  140.2432  143.7341 LP  0  0  0  0  0  0  0  0  0  0  0  0  # atno 17320 bound_to 7965
  145.8173  139.2028  143.1958 LP  0  0  0  0  0  0  0  0  0  0  0  0  # atno 17321 bound_to 7965
  140.3428  143.3009  152.0570 LP  0  0  0  0  0  0  0  0  0  0  0  0  # atno 17342 bound_to 10162
  139.4907  144.6430  151.6837 LP  0  0  0  0  0  0  0  0  0  0  0  0  # atno 17343 bound_to 10162
  156.6683  130.8810  151.3558 LP  0  0  0  0  0  0  0  0  0  0  0  0  # atno 17370 bound_to 10713
  157.7074  130.9400  150.0975 LP  0  0  0  0  0  0  0  0  0  0  0  0  # atno 17371 bound_to 10713
  141.0000  133.7157  156.0945 LP  0  0  0  0  0  0  0  0  0  0  0  0  # atno 17394 bound_to 11000
  140.7511  134.4044  157.5541 LP  0  0  0  0  0  0  0  0  0  0  0  0  # atno 17395 bound_to 11000

$$$$
