AV-unprocessed.smi:265|AV-procd|sdf|2019|dock8
  -GOLD-   2262021223D 1   1.00000     0.00000
 Structure written by MMmdl.
 52 56  0  0  0  0  0  0  0  0  1 V2000
  152.0238  144.3731  159.9435 C   0  0  0  0  0  0  0  0  0  0  0  0
  151.9972  143.1998  160.9358 C   0  0  2  0  0  0  0  0  0  0  0  0
  152.7671  143.5759  162.0747 O   0  0  0  0  0  0  0  0  0  0  0  0
  153.3296  142.4108  162.6506 C   0  0  0  0  0  0  0  0  0  0  0  0
  153.7478  141.6134  161.4250 C   0  0  0  0  0  0  0  0  0  0  0  0
  152.5992  141.8512  160.4474 C   0  0  1  0  0  0  0  0  0  0  0  0
  151.6286  140.8412  160.6655 O   0  0  0  0  0  0  0  0  0  0  0  0
  153.0305  141.7894  158.9583 C   0  0  0  0  0  0  0  0  0  0  0  0
  151.9135  141.6529  158.0351 N   0  0  0  0  0  0  0  0  0  0  0  0
  150.7112  142.3235  158.0849 C   0  0  0  0  0  0  0  0  0  0  0  0
  149.8649  142.0248  157.1367 N   0  0  0  0  0  0  0  0  0  0  0  0
  150.5313  141.0669  156.3839 C   0  0  0  0  0  0  0  0  0  0  0  0
  150.1975  140.3139  155.2285 C   0  0  0  0  0  0  0  0  0  0  0  0
  149.0101  140.4564  154.6017 N   0  0  0  0  0  0  0  0  0  0  0  0
  148.1443  139.2918  154.7529 C   0  0  0  0  0  0  0  0  0  0  0  0
  146.9357  139.3906  153.8090 C   0  0  0  0  0  0  0  0  0  0  0  0
  146.1805  140.7199  153.9817 C   0  0  1  0  0  0  0  0  0  0  0  0
  145.5281  140.7566  155.2445 O   0  0  0  0  0  0  0  0  0  0  0  0
  144.6549  141.8758  155.4097 C   0  0  0  0  0  0  0  0  0  0  0  0
  145.3279  143.2064  155.0242 C   0  0  0  0  0  0  0  0  0  0  0  0
  144.8241  144.2716  155.3727 O   0  0  0  0  0  0  0  0  0  0  0  0
  146.4388  143.1589  154.2716 N   0  0  0  0  0  0  0  0  0  0  0  0
  147.1400  141.9290  153.9180 C   0  0  1  0  0  0  0  0  0  0  0  0
  148.3516  141.7350  154.8526 C   0  0  0  0  0  0  0  0  0  0  0  0
  151.1183  139.4358  154.7507 N   0  0  0  0  0  0  0  0  0  0  0  0
  152.2953  139.3028  155.3705 C   0  0  0  0  0  0  0  0  0  0  0  0
  152.7434  139.9359  156.4574 N   0  0  0  0  0  0  0  0  0  0  0  0
  151.8191  140.8186  156.9348 C   0  0  0  0  0  0  0  0  0  0  0  0
  145.4262  140.7944  153.1958 H   0  0  0  0  0  0  0  0  0  0  0  0
  147.5030  142.0339  152.8948 H   0  0  0  0  0  0  0  0  0  0  0  0
  151.4339  144.1557  159.0530 H   0  0  0  0  0  0  0  0  0  0  0  0
  153.0405  144.6120  159.6313 H   0  0  0  0  0  0  0  0  0  0  0  0
  151.6045  145.2702  160.3993 H   0  0  0  0  0  0  0  0  0  0  0  0
  150.9677  143.0574  161.2703 H   0  0  0  0  0  0  0  0  0  0  0  0
  154.1668  142.6495  163.3067 H   0  0  0  0  0  0  0  0  0  0  0  0
  152.5727  141.8793  163.2294 H   0  0  0  0  0  0  0  0  0  0  0  0
  154.6701  142.0420  161.0307 H   0  0  0  0  0  0  0  0  0  0  0  0
  153.9363  140.5605  161.6403 H   0  0  0  0  0  0  0  0  0  0  0  0
  150.9015  140.9928  160.0812 H   0  0  0  0  0  0  0  0  0  0  0  0
  153.5878  142.6870  158.6873 H   0  0  0  0  0  0  0  0  0  0  0  0
  153.7015  140.9470  158.7889 H   0  0  0  0  0  0  0  0  0  0  0  0
  150.4798  143.0491  158.8508 H   0  0  0  0  0  0  0  0  0  0  0  0
  148.7048  138.3801  154.5409 H   0  0  0  0  0  0  0  0  0  0  0  0
  147.8039  139.2244  155.7873 H   0  0  0  0  0  0  0  0  0  0  0  0
  147.2835  139.3103  152.7784 H   0  0  0  0  0  0  0  0  0  0  0  0
  146.2612  138.5498  153.9728 H   0  0  0  0  0  0  0  0  0  0  0  0
  143.7673  141.7380  154.7912 H   0  0  0  0  0  0  0  0  0  0  0  0
  144.3223  141.9175  156.4472 H   0  0  0  0  0  0  0  0  0  0  0  0
  146.8612  144.0307  153.9875 H   0  0  0  0  0  0  0  0  0  0  0  0
  148.0281  141.7738  155.8940 H   0  0  0  0  0  0  0  0  0  0  0  0
  149.0646  142.5484  154.7102 H   0  0  0  0  0  0  0  0  0  0  0  0
  152.9760  138.5874  154.9328 H   0  0  0  0  0  0  0  0  0  0  0  0
  1  2  1  0  0  0  0
  1 31  1  0  0  0  0
  1 32  1  0  0  0  0
  1 33  1  0  0  0  0
  2  6  1  0  0  0  0
  2  3  1  0  0  0  0
  2 34  1  0  0  0  0
  3  4  1  0  0  0  0
  4  5  1  0  0  0  0
  4 35  1  0  0  0  0
  4 36  1  0  0  0  0
  5  6  1  0  0  0  0
  5 37  1  0  0  0  0
  5 38  1  0  0  0  0
  6  7  1  0  0  0  0
  6  8  1  0  0  0  0
  7 39  1  0  0  0  0
  8  9  1  0  0  0  0
  8 40  1  0  0  0  0
  8 41  1  0  0  0  0
  9 28  1  0  0  0  0
  9 10  1  0  0  0  0
 10 11  2  0  0  0  0
 10 42  1  0  0  0  0
 11 12  1  0  0  0  0
 12 28  2  0  0  0  0
 12 13  1  0  0  0  0
 13 14  1  0  0  0  0
 13 25  2  0  0  0  0
 14 24  1  0  0  0  0
 14 15  1  0  0  0  0
 15 16  1  0  0  0  0
 15 43  1  0  0  0  0
 15 44  1  0  0  0  0
 16 17  1  0  0  0  0
 16 45  1  0  0  0  0
 16 46  1  0  0  0  0
 17 29  1  0  0  0  0
 17 23  1  0  0  0  0
 17 18  1  0  0  0  0
 18 19  1  0  0  0  0
 19 20  1  0  0  0  0
 19 47  1  0  0  0  0
 19 48  1  0  0  0  0
 20 21  2  0  0  0  0
 20 22  1  0  0  0  0
 22 23  1  0  0  0  0
 22 49  1  0  0  0  0
 23 30  1  0  0  0  0
 23 24  1  0  0  0  0
 24 50  1  0  0  0  0
 24 51  1  0  0  0  0
 25 26  1  0  0  0  0
 26 27  2  0  0  0  0
 26 52  1  0  0  0  0
 27 28  1  0  0  0  0
M  END
> <s_m_source_file>
AV-unprocessed.smi

> <i_m_source_file_index>
265

> <i_lp_mmshare_version>
43012

> <i_f3d_flags>
0

> <s_epik_input>
W0NIMl0xW0NIMl1PW0NAQEhdKFtDSDNdKVtDQEBdMShbT0hdKVtDSDJdbihbY0hdbjIpYyhjMjMpbltjSF1uYzNOKFtDSDJdW0NIMl00KVtDSDJdW0NAQEhdKFtDQEhdNDUpW05IXUMoPU8pW0NIMl1PNQ==

> <s_epik_cmdline>
J2VwaWtfcHl0aG9uJywgJy1waCcsICc3LjAnLCAnLXRuJywgJzgnLCAnLW1hJywgJzIwMCcsICctbWV0YWxfYmluZGluZycsICctaW1hZScsICc8aW5maWxlLm1hZT4nLCAnLW9tYWUnLCAnPG91dGZpbGUubWFlPic=

> <r_lp_tautomer_probability>
1

> <r_epik_Ionization_Penalty>
0.00221504

> <r_epik_Ionization_Penalty_Charging>
0

> <r_epik_Ionization_Penalty_Neutral>
0.00221504

> <r_epik_State_Penalty>
-0

> <r_epik_Charging_Adjusted_Penalty>
0

> <i_epik_Tot_Q>
0

> <i_epik_Tot_abs_Q>
0

> <r_epik_Metal_State_Penalty>
-0

> <b_epik_Metal_Only>
0

> <s_lp_Force_Field>
OPLS_2005

> <r_lp_Energy>
45.6992

> <b_lp_Chiralities_Consistent>
1

> <s_lp_Variant>
AV-unprocessed.smi:265-5

> <Gold.Version>
5.8.1

> <Gold.Id.Protein>
6NUR|6NUR_protein|mol2

> <Gold.PLP.Fitness>
42.5606

> <Gold.PLP.PLP>
-40.4579

> <Gold.PLP.part.hbond>
-4.3276

> <Gold.PLP.part.metal>
0.0000

> <Gold.PLP.part.buried>
4.4459

> <Gold.PLP.part.nonpolar>
-40.5689

> <Gold.PLP.part.repulsive>
0.8695

> <Gold.PLP.ligand.clash>
0.1321

> <Gold.PLP.ligand.torsion>
0.8084

> <Gold.PLP.Chemscore.Hbond>
1.2261

> <Gold.PLP.Chemscore.CHOScore>
0.0000

> <Gold.PLP.Chemscore.Metal>
0.0000

> <Gold.Chemscore.Hbonds>
donor molecule, donor type, donor heavy atom, donor atom, acceptor molecule, acceptor atom, score
      P1  H  7989  7998       L1    25  0.32
      P1  H  7997  8010       L1    27  1.00

> <Gold.PLP.Chemscore.Internal.Correction>
0.1734

> <Gold.Rescore>
     Score         DG    S(hbond)    S(metal)    S(lipo)     H(rot)  DE(clash)    DE(int)     intcor
      9.49     -14.69       0.95        0.00     100.62       2.25       3.00       2.20       ----

> <Gold.Chemscore.Fitness>
9.4926

> <Gold.Chemscore.DG>
-14.6927

> <Gold.Chemscore.ZeroCoef>
-5.4800

> <Gold.Chemscore.Hbond>
0.9544

> <Gold.Chemscore.Metal>
0.0000

> <Gold.Chemscore.Lipo>
100.6250

> <Gold.Chemscore.Internal_Hbond>
0.0000

> <Gold.Chemscore.DEClash>
2.9985

> <Gold.Chemscore.DEInternal>
2.2016

> <Gold.Chemscore.Rot>
2.2453

> <Gold.Chemscore.Internal.Correction>
   9.000000E+99

> <Gold.Chemscore.Hbonds>
donor molecule, donor type, donor heavy atom, donor atom, acceptor molecule, acceptor atom, score
      P1  H  7997  8010       L1    27  0.89

> <Gold.Chemscore.Hbond.Weighted>
-3.1875

> <Gold.Chemscore.Metal.Weighted>
-0.0000

> <Gold.Chemscore.Lipo.Weighted>
-11.7731

> <Gold.Chemscore.Internal_Hbond.Weighted>
0.0000

> <Gold.Chemscore.DEClash.Weighted>
2.9985

> <Gold.Chemscore.DEInternal.Weighted>
2.2016

> <Gold.Chemscore.Rot.Weighted>
5.7479

> <Gold.Chemscore.Internal.Correction.Weighted>
   9.000000E+99

> <Gold.Protein.RotatedTorsions>
[ 6907 6896 6895 6894 ] final   53.43 input  -60.11 | X-H torsion
[ 7974 7965 7964 7962 ] final  -43.52 input  175.53 | X-H torsion
[ 8008 7997 7996 7995 ] final   65.24 input   59.86 | X-H torsion
[ 10167 10162 10161 10158 ] final  -55.92 input  -65.29 | X-H torsion
[ 10718 10713 10712 10709 ] final  -88.66 input   66.30 | X-H torsion
[ 10763 10752 10751 10750 ] final  -26.23 input  -60.55 | X-H torsion
[ 11005 11000 10999 10996 ] final  -37.10 input  -57.11 | X-H torsion

> <Gold.Protein.ActiveResidues>
 VAL166  LYS551  ARG553  GLY616  TRP617  ASP618  TYR619  PRO620  LYS621  CYS622 
 ASP623  PHE694  ASN695  SER759  ASP760  ASP761  ALA762  ILE779  LEU786  VAL792 
 PHE793  MET794  SER795  GLU796  ALA797  LYS798  CYS799  TRP800  GLU811  SER814 

> <Gold.Protein.RotatedAtoms>
  152.3336  134.7227  160.0282 H   0  0  0  0  0  0  0  0  0  0  0  0  # atno 6907 bound_to 6896
  151.7636  133.3330  159.3432 H   0  0  0  0  0  0  0  0  0  0  0  0  # atno 6908 bound_to 6896
  150.7437  134.6015  159.6083 H   0  0  0  0  0  0  0  0  0  0  0  0  # atno 6909 bound_to 6896
  146.0011  140.7073  142.9270 H   0  0  0  0  0  0  0  0  0  0  0  0  # atno 7974 bound_to 7965
  155.6586  140.3497  155.4774 H   0  0  0  0  0  0  0  0  0  0  0  0  # atno 8008 bound_to 7997
  155.9787  140.1170  157.0769 H   0  0  0  0  0  0  0  0  0  0  0  0  # atno 8009 bound_to 7997
  154.4186  140.1142  156.5392 H   0  0  0  0  0  0  0  0  0  0  0  0  # atno 8010 bound_to 7997
  140.6347  143.2476  151.5149 H   0  0  0  0  0  0  0  0  0  0  0  0  # atno 10167 bound_to 10162
  155.9983  130.4844  150.5053 H   0  0  0  0  0  0  0  0  0  0  0  0  # atno 10718 bound_to 10713
  153.7126  135.6950  153.5033 H   0  0  0  0  0  0  0  0  0  0  0  0  # atno 10763 bound_to 10752
  153.2261  135.4353  155.0543 H   0  0  0  0  0  0  0  0  0  0  0  0  # atno 10764 bound_to 10752
  154.8310  135.3472  154.6662 H   0  0  0  0  0  0  0  0  0  0  0  0  # atno 10765 bound_to 10752
  140.9926  133.6997  156.1877 H   0  0  0  0  0  0  0  0  0  0  0  0  # atno 11005 bound_to 11000
  144.6919  140.3234  143.7228 LP  0  0  0  0  0  0  0  0  0  0  0  0  # atno 17320 bound_to 7965
  145.7486  139.1786  143.2334 LP  0  0  0  0  0  0  0  0  0  0  0  0  # atno 17321 bound_to 7965
  139.5558  144.2279  152.1610 LP  0  0  0  0  0  0  0  0  0  0  0  0  # atno 17342 bound_to 10162
  140.1532  144.5095  150.6675 LP  0  0  0  0  0  0  0  0  0  0  0  0  # atno 17343 bound_to 10162
  157.3033  131.0649  151.2053 LP  0  0  0  0  0  0  0  0  0  0  0  0  # atno 17370 bound_to 10713
  157.3025  130.6849  149.6171 LP  0  0  0  0  0  0  0  0  0  0  0  0  # atno 17371 bound_to 10713
  140.7016  134.4558  157.5586 LP  0  0  0  0  0  0  0  0  0  0  0  0  # atno 17394 bound_to 11000
  139.8999  134.8580  156.1939 LP  0  0  0  0  0  0  0  0  0  0  0  0  # atno 17395 bound_to 11000

$$$$
