AV-unprocessed.smi:1439|AV-procd|sdf|5869|dock7
  -GOLD-   22720 5543D 1   1.00000     0.00000
 Structure written by MMmdl.
 36 37  0  0  0  0  0  0  0  0  1 V2000
  144.9525  139.0611  151.6423 N   0  0  0  0  0  0  0  0  0  0  0  0
  145.9834  139.0633  152.4917 C   0  0  0  0  0  0  0  0  0  0  0  0
  145.8976  138.6085  153.6305 O   0  0  0  0  0  0  0  0  0  0  0  0
  147.2984  139.6672  151.9948 C   0  0  0  0  0  0  0  0  0  0  0  0
  147.7119  140.8144  152.8712 C   0  0  0  0  0  0  0  0  0  0  0  0
  147.2044  142.0918  152.8497 C   0  0  0  0  0  0  0  0  0  0  0  0
  147.9626  143.1189  154.0357 S   0  0  0  0  0  0  0  0  0  0  0  0
  148.9653  141.7493  154.5180 C   0  0  0  0  0  0  0  0  0  0  0  0
  149.9650  141.7249  155.5220 N   0  0  0  0  0  0  0  0  0  0  0  0
  150.9349  140.8114  155.7017 C   0  0  0  0  0  0  0  0  0  0  0  0
  151.1015  139.8215  154.9895 O   0  0  0  0  0  0  0  0  0  0  0  0
  151.8673  141.0598  156.8916 C   0  0  0  0  0  0  0  0  0  0  0  0
  151.2812  142.0491  157.9154 C   0  0  0  0  0  0  0  0  0  0  0  0
  152.3188  142.5137  158.9476 C   0  0  2  0  0  0  0  0  0  0  0  0
  153.0028  141.3733  159.6953 C   0  0  0  0  0  0  0  0  0  0  0  0
  153.5127  142.0553  160.9520 C   0  0  0  0  0  0  0  0  0  0  0  0
  152.6049  143.2812  161.1010 C   0  0  0  0  0  0  0  0  0  0  0  0
  151.7012  143.2343  160.0025 O   0  0  0  0  0  0  0  0  0  0  0  0
  148.7198  140.6354  153.8260 N   0  0  0  0  0  0  0  0  0  0  0  0
  144.0688  138.6650  151.9283 H   0  0  0  0  0  0  0  0  0  0  0  0
  145.0614  139.4478  150.7159 H   0  0  0  0  0  0  0  0  0  0  0  0
  148.0660  138.8920  151.9730 H   0  0  0  0  0  0  0  0  0  0  0  0
  147.1728  140.0016  150.9644 H   0  0  0  0  0  0  0  0  0  0  0  0
  146.4280  142.4869  152.2114 H   0  0  0  0  0  0  0  0  0  0  0  0
  149.9425  142.4925  156.1773 H   0  0  0  0  0  0  0  0  0  0  0  0
  152.0874  140.1122  157.3858 H   0  0  0  0  0  0  0  0  0  0  0  0
  152.8153  141.4384  156.5081 H   0  0  0  0  0  0  0  0  0  0  0  0
  150.8675  142.9193  157.4036 H   0  0  0  0  0  0  0  0  0  0  0  0
  150.4496  141.5744  158.4384 H   0  0  0  0  0  0  0  0  0  0  0  0
  153.0707  143.1486  158.4753 H   0  0  0  0  0  0  0  0  0  0  0  0
  152.2743  140.6071  159.9644 H   0  0  0  0  0  0  0  0  0  0  0  0
  153.7953  140.8992  159.1155 H   0  0  0  0  0  0  0  0  0  0  0  0
  153.4651  141.3950  161.8184 H   0  0  0  0  0  0  0  0  0  0  0  0
  154.5495  142.3692  160.8247 H   0  0  0  0  0  0  0  0  0  0  0  0
  152.0548  143.2755  162.0423 H   0  0  0  0  0  0  0  0  0  0  0  0
  153.1892  144.2009  161.0553 H   0  0  0  0  0  0  0  0  0  0  0  0
  1  2  1  0  0  0  0
  1 20  1  0  0  0  0
  1 21  1  0  0  0  0
  2  3  2  0  0  0  0
  2  4  1  0  0  0  0
  4  5  1  0  0  0  0
  4 22  1  0  0  0  0
  4 23  1  0  0  0  0
  5 19  1  0  0  0  0
  5  6  2  0  0  0  0
  6  7  1  0  0  0  0
  6 24  1  0  0  0  0
  7  8  1  0  0  0  0
  8  9  1  0  0  0  0
  8 19  2  0  0  0  0
  9 10  1  0  0  0  0
  9 25  1  0  0  0  0
 10 11  2  0  0  0  0
 10 12  1  0  0  0  0
 12 13  1  0  0  0  0
 12 26  1  0  0  0  0
 12 27  1  0  0  0  0
 13 14  1  0  0  0  0
 13 28  1  0  0  0  0
 13 29  1  0  0  0  0
 14 18  1  0  0  0  0
 14 15  1  0  0  0  0
 14 30  1  0  0  0  0
 15 16  1  0  0  0  0
 15 31  1  0  0  0  0
 15 32  1  0  0  0  0
 16 17  1  0  0  0  0
 16 33  1  0  0  0  0
 16 34  1  0  0  0  0
 17 18  1  0  0  0  0
 17 35  1  0  0  0  0
 17 36  1  0  0  0  0
M  END
> <s_m_source_file>
AV-unprocessed.smi

> <i_m_source_file_index>
1439

> <i_lp_mmshare_version>
43012

> <i_f3d_flags>
0

> <s_epik_input>
W05IMl1DKD1PKVtDSDJdYzFbY0hdc2MobjEpW05IXUMoPU8pW0NIMl1bQ0gyXVtDQEBIXTJbQ0gyXVtDSDJdW0NIMl1PMg==

> <s_epik_cmdline>
J2VwaWtfcHl0aG9uJywgJy1waCcsICc3LjAnLCAnLXRuJywgJzgnLCAnLW1hJywgJzIwMCcsICctbWV0YWxfYmluZGluZycsICctaW1hZScsICc8aW5maWxlLm1hZT4nLCAnLW9tYWUnLCAnPG91dGZpbGUubWFlPic=

> <r_lp_tautomer_probability>
1

> <r_epik_Ionization_Penalty>
0.000300833

> <r_epik_Ionization_Penalty_Charging>
0

> <r_epik_Ionization_Penalty_Neutral>
0.000300833

> <r_epik_State_Penalty>
-0

> <r_epik_Charging_Adjusted_Penalty>
0

> <i_epik_Tot_Q>
0

> <i_epik_Tot_abs_Q>
0

> <r_epik_Metal_State_Penalty>
0.167159

> <b_epik_Metal_Only>
0

> <s_lp_Force_Field>
OPLS_2005

> <r_lp_Energy>
15.8288

> <b_lp_Chiralities_Consistent>
1

> <s_lp_Variant>
AV-unprocessed.smi:1439-1

> <Gold.Version>
5.8.1

> <Gold.Id.Protein>
6NUR|6NUR_protein|mol2

> <Gold.PLP.Fitness>
42.6399

> <Gold.PLP.PLP>
-36.0193

> <Gold.PLP.part.hbond>
-3.9055

> <Gold.PLP.part.metal>
0.0000

> <Gold.PLP.part.buried>
-2.1119

> <Gold.PLP.part.nonpolar>
-30.7214

> <Gold.PLP.part.repulsive>
0.4183

> <Gold.PLP.ligand.clash>
0.0000

> <Gold.PLP.ligand.torsion>
0.6119

> <Gold.PLP.Chemscore.Hbond>
2.0000

> <Gold.PLP.Chemscore.CHOScore>
0.5986

> <Gold.PLP.Chemscore.Metal>
0.0000

> <Gold.Chemscore.Hbonds>
donor molecule, donor type, donor heavy atom, donor atom, acceptor molecule, acceptor atom, score
      L1  H     1    21       P1 10171  0.08
      P1  H  7989  7998       L1    11  0.65

> <Gold.PLP.Chemscore.Internal.Correction>
0.0486

> <Gold.Rescore>
     Score         DG    S(hbond)    S(metal)    S(lipo)     H(rot)  DE(clash)    DE(int)     intcor
     11.03     -13.25       1.41        0.00      82.24       2.56       0.29       1.92       ----

> <Gold.Chemscore.Fitness>
11.0310

> <Gold.Chemscore.DG>
-13.2465

> <Gold.Chemscore.ZeroCoef>
-5.4800

> <Gold.Chemscore.Hbond>
1.4064

> <Gold.Chemscore.Metal>
0.0000

> <Gold.Chemscore.Lipo>
82.2420

> <Gold.Chemscore.Internal_Hbond>
0.0000

> <Gold.Chemscore.DEClash>
0.2909

> <Gold.Chemscore.DEInternal>
1.9246

> <Gold.Chemscore.Rot>
2.5598

> <Gold.Chemscore.Internal.Correction>
   9.000000E+99

> <Gold.Chemscore.Hbonds>
donor molecule, donor type, donor heavy atom, donor atom, acceptor molecule, acceptor atom, score
      L1  H     1    21       P1 10171  0.10
      P1  H  7989  7998       L1    11  0.06

> <Gold.Chemscore.Hbond.Weighted>
-4.6974

> <Gold.Chemscore.Metal.Weighted>
-0.0000

> <Gold.Chemscore.Lipo.Weighted>
-9.6223

> <Gold.Chemscore.Internal_Hbond.Weighted>
0.0000

> <Gold.Chemscore.DEClash.Weighted>
0.2909

> <Gold.Chemscore.DEInternal.Weighted>
1.9246

> <Gold.Chemscore.Rot.Weighted>
6.5532

> <Gold.Chemscore.Internal.Correction.Weighted>
   9.000000E+99

> <Gold.Protein.RotatedTorsions>
[ 6907 6896 6895 6894 ] final   -9.56 input  -60.11 | X-H torsion
[ 7974 7965 7964 7962 ] final  171.78 input  175.53 | X-H torsion
[ 8008 7997 7996 7995 ] final  -82.84 input   59.86 | X-H torsion
[ 10167 10162 10161 10158 ] final   20.06 input  -65.29 | X-H torsion
[ 10718 10713 10712 10709 ] final -174.75 input   66.30 | X-H torsion
[ 10763 10752 10751 10750 ] final -142.69 input  -60.55 | X-H torsion
[ 11005 11000 10999 10996 ] final -172.05 input  -57.11 | X-H torsion

> <Gold.Protein.ActiveResidues>
 VAL166  LYS551  ARG553  GLY616  TRP617  ASP618  TYR619  PRO620  LYS621  CYS622 
 ASP623  PHE694  ASN695  SER759  ASP760  ASP761  ALA762  ILE779  LEU786  VAL792 
 PHE793  MET794  SER795  GLU796  ALA797  LYS798  CYS799  TRP800  GLU811  SER814 

> <Gold.Protein.RotatedAtoms>
  151.4158  135.0991  159.9598 H   0  0  0  0  0  0  0  0  0  0  0  0  # atno 6907 bound_to 6896
  152.5005  133.8754  159.7330 H   0  0  0  0  0  0  0  0  0  0  0  0  # atno 6908 bound_to 6896
  150.9259  133.6768  159.2849 H   0  0  0  0  0  0  0  0  0  0  0  0  # atno 6909 bound_to 6896
  144.7285  139.9400  143.6428 H   0  0  0  0  0  0  0  0  0  0  0  0  # atno 7974 bound_to 7965
  154.6128  140.0627  156.9515 H   0  0  0  0  0  0  0  0  0  0  0  0  # atno 8008 bound_to 7997
  155.1945  140.3310  155.4334 H   0  0  0  0  0  0  0  0  0  0  0  0  # atno 8009 bound_to 7997
  156.2386  140.1875  156.7033 H   0  0  0  0  0  0  0  0  0  0  0  0  # atno 8010 bound_to 7997
  140.5532  143.9471  150.6592 H   0  0  0  0  0  0  0  0  0  0  0  0  # atno 10167 bound_to 10162
  156.7897  130.9513  151.3120 H   0  0  0  0  0  0  0  0  0  0  0  0  # atno 10718 bound_to 10713
  154.8499  135.3489  154.6068 H   0  0  0  0  0  0  0  0  0  0  0  0  # atno 10763 bound_to 10752
  153.6677  135.6986  153.5161 H   0  0  0  0  0  0  0  0  0  0  0  0  # atno 10764 bound_to 10752
  153.2767  135.4276  155.0997 H   0  0  0  0  0  0  0  0  0  0  0  0  # atno 10765 bound_to 10752
  140.5014  134.5890  157.4989 H   0  0  0  0  0  0  0  0  0  0  0  0  # atno 11005 bound_to 11000
  146.0792  139.3779  143.0475 LP  0  0  0  0  0  0  0  0  0  0  0  0  # atno 17320 bound_to 7965
  145.7864  140.9834  143.1072 LP  0  0  0  0  0  0  0  0  0  0  0  0  # atno 17321 bound_to 7965
  140.2902  143.3329  152.1069 LP  0  0  0  0  0  0  0  0  0  0  0  0  # atno 17342 bound_to 10162
  139.5036  144.6760  151.6128 LP  0  0  0  0  0  0  0  0  0  0  0  0  # atno 17343 bound_to 10162
  157.6606  130.8963  149.9823 LP  0  0  0  0  0  0  0  0  0  0  0  0  # atno 17370 bound_to 10713
  156.1167  130.3647  149.9957 LP  0  0  0  0  0  0  0  0  0  0  0  0  # atno 17371 bound_to 10713
  139.9711  134.7291  156.0039 LP  0  0  0  0  0  0  0  0  0  0  0  0  # atno 17394 bound_to 11000
  141.1433  133.6560  156.3794 LP  0  0  0  0  0  0  0  0  0  0  0  0  # atno 17395 bound_to 11000

$$$$
