AV-unprocessed.smi:198|AV-procd|sdf|1558|dock4
  -GOLD-   2262019433D 1   1.00000     0.00000
 Structure written by MMmdl.
 59 63  0  0  0  0  0  0  0  0  2 V2000
  148.8518  141.4556  155.1309 C   0  0  0  0  0  0  0  0  0  0  0  0
  147.6800  142.1109  155.7573 N   0  3  1  0  0  0  0  0  0  0  0  0
  146.5712  142.3875  154.8097 C   0  0  0  0  0  0  0  0  0  0  0  0
  145.7971  141.1101  154.4432 C   0  0  0  0  0  0  0  0  0  0  0  0
  145.2786  140.3929  155.7098 C   0  0  2  0  0  0  0  0  0  0  0  0
  146.4360  140.1334  156.7029 C   0  0  2  0  0  0  0  0  0  0  0  0
  145.8817  139.5103  157.9988 C   0  0  0  0  0  0  0  0  0  0  0  0
  145.0741  138.2385  157.6973 C   0  0  0  0  0  0  0  0  0  0  0  0
  143.9823  138.5036  156.6406 C   0  0  0  0  0  0  0  0  0  0  0  0
  144.5139  139.1652  155.4480 N   0  0  0  0  0  0  0  0  0  0  0  0
  144.9409  138.3450  154.4571 C   0  0  0  0  0  0  0  0  0  0  0  0
  146.2173  138.4283  154.0008 N   0  0  0  0  0  0  0  0  0  0  0  0
  146.6282  137.6298  153.0110 C   0  0  0  0  0  0  0  0  0  0  0  0
  145.9365  136.7023  152.3449 N   0  0  0  0  0  0  0  0  0  0  0  0
  144.6534  136.6185  152.8007 C   0  0  0  0  0  0  0  0  0  0  0  0
  144.0811  137.3930  153.8471 C   0  0  0  0  0  0  0  0  0  0  0  0
  142.7546  137.0301  154.0375 N   0  0  0  0  0  0  0  0  0  0  0  0
  142.5518  136.0945  153.1499 C   0  0  0  0  0  0  0  0  0  0  0  0
  143.6382  135.7893  152.3577 N   0  0  0  0  0  0  0  0  0  0  0  0
  143.7202  134.8122  151.3099 C   0  0  0  0  0  0  0  0  0  0  0  0
  143.4416  133.3236  151.5381 C   0  0  0  0  0  0  0  0  0  0  0  0
  144.4799  132.9773  150.4450 C   0  0  0  0  0  0  0  0  0  0  0  0
  145.4182  131.7957  150.7470 C   0  0  0  0  0  0  0  0  0  0  0  0
  146.4660  131.6967  149.8041 O   0  0  0  0  0  0  0  0  0  0  0  0
  143.9460  132.8439  149.0030 C   0  0  0  0  0  0  0  0  0  0  0  0
  142.7273  132.1313  148.9534 O   0  0  0  0  0  0  0  0  0  0  0  0
  145.0776  134.3670  150.7666 C   0  0  0  0  0  0  0  0  0  0  0  0
  147.2087  141.4383  156.9952 C   0  0  0  0  0  0  0  0  0  0  0  0
  148.6186  140.4520  154.7752 H   0  0  0  0  0  0  0  0  0  0  0  0
  149.6721  141.3785  155.8450 H   0  0  0  0  0  0  0  0  0  0  0  0
  149.2079  142.0406  154.2825 H   0  0  0  0  0  0  0  0  0  0  0  0
  145.8921  143.1040  155.2737 H   0  0  0  0  0  0  0  0  0  0  0  0
  146.9591  142.8699  153.9116 H   0  0  0  0  0  0  0  0  0  0  0  0
  144.9605  141.3695  153.7942 H   0  0  0  0  0  0  0  0  0  0  0  0
  146.4463  140.4544  153.8622 H   0  0  0  0  0  0  0  0  0  0  0  0
  144.5783  141.0767  156.1923 H   0  0  0  0  0  0  0  0  0  0  0  0
  147.1278  139.4179  156.2572 H   0  0  0  0  0  0  0  0  0  0  0  0
  146.6967  139.2768  158.6847 H   0  0  0  0  0  0  0  0  0  0  0  0
  145.2417  140.2301  158.5109 H   0  0  0  0  0  0  0  0  0  0  0  0
  145.7485  137.4538  157.3554 H   0  0  0  0  0  0  0  0  0  0  0  0
  144.6167  137.8622  158.6127 H   0  0  0  0  0  0  0  0  0  0  0  0
  143.4884  137.5699  156.3669 H   0  0  0  0  0  0  0  0  0  0  0  0
  143.2095  139.1449  157.0655 H   0  0  0  0  0  0  0  0  0  0  0  0
  147.6571  137.7538  152.7069 H   0  0  0  0  0  0  0  0  0  0  0  0
  141.5933  135.6064  153.0547 H   0  0  0  0  0  0  0  0  0  0  0  0
  143.0883  135.1874  150.5025 H   0  0  0  0  0  0  0  0  0  0  0  0
  143.7495  132.9678  152.5223 H   0  0  0  0  0  0  0  0  0  0  0  0
  142.4181  133.0189  151.3183 H   0  0  0  0  0  0  0  0  0  0  0  0
  145.8476  131.8763  151.7461 H   0  0  0  0  0  0  0  0  0  0  0  0
  144.8708  130.8531  150.7249 H   0  0  0  0  0  0  0  0  0  0  0  0
  147.2747  131.5419  150.2684 H   0  0  0  0  0  0  0  0  0  0  0  0
  143.7719  133.8212  148.5527 H   0  0  0  0  0  0  0  0  0  0  0  0
  144.6700  132.3420  148.3606 H   0  0  0  0  0  0  0  0  0  0  0  0
  142.0188  132.7459  149.0725 H   0  0  0  0  0  0  0  0  0  0  0  0
  145.4240  134.9333  149.9013 H   0  0  0  0  0  0  0  0  0  0  0  0
  145.8436  134.3388  151.5439 H   0  0  0  0  0  0  0  0  0  0  0  0
  148.0564  141.2425  157.6531 H   0  0  0  0  0  0  0  0  0  0  0  0
  146.5614  142.1343  157.5306 H   0  0  0  0  0  0  0  0  0  0  0  0
  148.0184  143.0161  156.0511 H   0  0  0  0  0  0  0  0  0  0  0  0
  1  2  1  0  0  0  0
  1 29  1  0  0  0  0
  1 30  1  0  0  0  0
  1 31  1  0  0  0  0
  2 28  1  0  0  0  0
  2  3  1  0  0  0  0
  2 59  1  0  0  0  0
  3  4  1  0  0  0  0
  3 32  1  0  0  0  0
  3 33  1  0  0  0  0
  4  5  1  0  0  0  0
  4 34  1  0  0  0  0
  4 35  1  0  0  0  0
  5 10  1  0  0  0  0
  5  6  1  0  0  0  0
  5 36  1  0  0  0  0
  6  7  1  0  0  0  0
  6 28  1  0  0  0  0
  6 37  1  0  0  0  0
  7  8  1  0  0  0  0
  7 38  1  0  0  0  0
  7 39  1  0  0  0  0
  8  9  1  0  0  0  0
  8 40  1  0  0  0  0
  8 41  1  0  0  0  0
  9 10  1  0  0  0  0
  9 42  1  0  0  0  0
  9 43  1  0  0  0  0
 10 11  1  0  0  0  0
 11 16  1  0  0  0  0
 11 12  2  0  0  0  0
 12 13  1  0  0  0  0
 13 14  2  0  0  0  0
 13 44  1  0  0  0  0
 14 15  1  0  0  0  0
 15 19  1  0  0  0  0
 15 16  2  0  0  0  0
 16 17  1  0  0  0  0
 17 18  2  0  0  0  0
 18 19  1  0  0  0  0
 18 45  1  0  0  0  0
 19 20  1  0  0  0  0
 20 27  1  0  0  0  0
 20 21  1  0  0  0  0
 20 46  1  0  0  0  0
 21 22  1  0  0  0  0
 21 47  1  0  0  0  0
 21 48  1  0  0  0  0
 22 23  1  0  0  0  0
 22 25  1  0  0  0  0
 22 27  1  0  0  0  0
 23 24  1  0  0  0  0
 23 49  1  0  0  0  0
 23 50  1  0  0  0  0
 24 51  1  0  0  0  0
 25 26  1  0  0  0  0
 25 52  1  0  0  0  0
 25 53  1  0  0  0  0
 26 54  1  0  0  0  0
 27 55  1  0  0  0  0
 27 56  1  0  0  0  0
 28 57  1  0  0  0  0
 28 58  1  0  0  0  0
M  CHG  1   2   1
M  END
> <s_m_source_file>
AV-unprocessed.smi

> <i_m_source_file_index>
198

> <i_lp_mmshare_version>
43012

> <i_f3d_flags>
0

> <s_epik_input>
W0NIMl0xW0NIMl1OKFtDSDNdKVtDSDJdW0NAQEhdKFtDQEhdMTIpW0NIMl1bQ0gyXVtDSDJdTjJjKG5bY0hdbjMpYyhjMzQpbltjSF1uNFtDSF0oW0NIMl01KVtDSDJdQzUoW0NIMl1bT0hdKVtDSDJdW09IXQ==

> <s_epik_cmdline>
J2VwaWtfcHl0aG9uJywgJy1waCcsICc3LjAnLCAnLXRuJywgJzgnLCAnLW1hJywgJzIwMCcsICctbWV0YWxfYmluZGluZycsICctaW1hZScsICc8aW5maWxlLm1hZT4nLCAnLW9tYWUnLCAnPG91dGZpbGUubWFlPic=

> <r_lp_tautomer_probability>
1

> <r_epik_Ionization_Penalty>
0.00239938

> <r_epik_Ionization_Penalty_Charging>
0.00138697

> <r_epik_Ionization_Penalty_Neutral>
0.00101241

> <r_epik_State_Penalty>
-0

> <r_epik_Charging_Adjusted_Penalty>
0.00138697

> <i_epik_Tot_Q>
1

> <i_epik_Tot_abs_Q>
1

> <r_epik_Metal_State_Penalty>
-0

> <b_epik_Metal_Only>
0

> <s_lp_Force_Field>
OPLS_2005

> <r_lp_Energy>
58.8774

> <b_lp_Chiralities_Consistent>
1

> <s_lp_Variant>
AV-unprocessed.smi:198-7

> <Gold.Version>
5.8.1

> <Gold.Id.Protein>
6NUR|6NUR_protein|mol2

> <Gold.PLP.Fitness>
50.4772

> <Gold.PLP.PLP>
-34.0400

> <Gold.PLP.part.hbond>
-5.0000

> <Gold.PLP.part.metal>
0.0000

> <Gold.PLP.part.buried>
-3.3774

> <Gold.PLP.part.nonpolar>
-28.0073

> <Gold.PLP.part.repulsive>
0.8319

> <Gold.PLP.ligand.clash>
0.0000

> <Gold.PLP.ligand.torsion>
1.0978

> <Gold.PLP.Chemscore.Hbond>
4.9920

> <Gold.PLP.Chemscore.CHOScore>
0.9142

> <Gold.PLP.Chemscore.Metal>
0.0000

> <Gold.Chemscore.Hbonds>
donor molecule, donor type, donor heavy atom, donor atom, acceptor molecule, acceptor atom, score
      L1  H     2    59       P1  8028  2.00
      L1  H    24    51       P1 10747  0.96
      L1  H    26    54       P1 10186  1.00
      P1  H 10785 10796       L1    26  0.94
      L1  C    13    44       P1  7948  0.95

> <Gold.PLP.Chemscore.Internal.Correction>
0.9144

> <Gold.Rescore>
     Score         DG    S(hbond)    S(metal)    S(lipo)     H(rot)  DE(clash)    DE(int)     intcor
     12.74     -17.17       3.41        0.00      70.02       3.08       0.80       3.63       ----

> <Gold.Chemscore.Fitness>
12.7416

> <Gold.Chemscore.DG>
-17.1745

> <Gold.Chemscore.ZeroCoef>
-5.4800

> <Gold.Chemscore.Hbond>
3.4077

> <Gold.Chemscore.Metal>
0.0000

> <Gold.Chemscore.Lipo>
70.0249

> <Gold.Chemscore.Internal_Hbond>
0.0000

> <Gold.Chemscore.DEClash>
0.7992

> <Gold.Chemscore.DEInternal>
3.6338

> <Gold.Chemscore.Rot>
3.0781

> <Gold.Chemscore.Internal.Correction>
   9.000000E+99

> <Gold.Chemscore.Hbonds>
donor molecule, donor type, donor heavy atom, donor atom, acceptor molecule, acceptor atom, score
      L1  H     2    59       P1  8028  0.57
      L1  H    24    51       P1 10747  0.92
      L1  H    26    54       P1 10186  0.96
      P1  H 10785 10796       L1    26  0.58

> <Gold.Chemscore.Hbond.Weighted>
-11.3816

> <Gold.Chemscore.Metal.Weighted>
-0.0000

> <Gold.Chemscore.Lipo.Weighted>
-8.1929

> <Gold.Chemscore.Internal_Hbond.Weighted>
0.0000

> <Gold.Chemscore.DEClash.Weighted>
0.7992

> <Gold.Chemscore.DEInternal.Weighted>
3.6338

> <Gold.Chemscore.Rot.Weighted>
7.8800

> <Gold.Chemscore.Internal.Correction.Weighted>
   9.000000E+99

> <Gold.Protein.RotatedTorsions>
[ 6907 6896 6895 6894 ] final  102.13 input  -60.11 | X-H torsion
[ 7974 7965 7964 7962 ] final  -35.18 input  175.53 | X-H torsion
[ 8008 7997 7996 7995 ] final   92.68 input   59.86 | X-H torsion
[ 10167 10162 10161 10158 ] final -118.33 input  -65.29 | X-H torsion
[ 10718 10713 10712 10709 ] final -128.10 input   66.30 | X-H torsion
[ 10763 10752 10751 10750 ] final  -56.17 input  -60.55 | X-H torsion
[ 11005 11000 10999 10996 ] final -126.24 input  -57.11 | X-H torsion

> <Gold.Protein.ActiveResidues>
 VAL166  LYS551  ARG553  GLY616  TRP617  ASP618  TYR619  PRO620  LYS621  CYS622 
 ASP623  PHE694  ASN695  SER759  ASP760  ASP761  ALA762  ILE779  LEU786  VAL792 
 PHE793  MET794  SER795  GLU796  ALA797  LYS798  CYS799  TRP800  GLU811  SER814 

> <Gold.Protein.RotatedAtoms>
  152.5332  134.0021  159.7899 H   0  0  0  0  0  0  0  0  0  0  0  0  # atno 6907 bound_to 6896
  151.0238  133.5844  159.2675 H   0  0  0  0  0  0  0  0  0  0  0  0  # atno 6908 bound_to 6896
  151.2874  135.0739  159.9245 H   0  0  0  0  0  0  0  0  0  0  0  0  # atno 6909 bound_to 6896
  146.0768  140.6128  142.8927 H   0  0  0  0  0  0  0  0  0  0  0  0  # atno 7974 bound_to 7965
  156.0381  140.3322  155.7213 H   0  0  0  0  0  0  0  0  0  0  0  0  # atno 8008 bound_to 7997
  155.5785  140.0634  157.2806 H   0  0  0  0  0  0  0  0  0  0  0  0  # atno 8009 bound_to 7997
  154.4381  140.1848  156.0941 H   0  0  0  0  0  0  0  0  0  0  0  0  # atno 8010 bound_to 7997
  140.0587  143.4989  152.2043 H   0  0  0  0  0  0  0  0  0  0  0  0  # atno 10167 bound_to 10162
  156.1919  130.6801  151.0434 H   0  0  0  0  0  0  0  0  0  0  0  0  # atno 10718 bound_to 10713
  154.2024  135.6408  153.5091 H   0  0  0  0  0  0  0  0  0  0  0  0  # atno 10763 bound_to 10752
  153.0009  135.5454  154.6301 H   0  0  0  0  0  0  0  0  0  0  0  0  # atno 10764 bound_to 10752
  154.5717  135.2917  155.0794 H   0  0  0  0  0  0  0  0  0  0  0  0  # atno 10765 bound_to 10752
  140.9697  134.0822  157.3882 H   0  0  0  0  0  0  0  0  0  0  0  0  # atno 11005 bound_to 11000
  144.7267  140.4546  143.6968 LP  0  0  0  0  0  0  0  0  0  0  0  0  # atno 17320 bound_to 7965
  145.6291  139.1534  143.2979 LP  0  0  0  0  0  0  0  0  0  0  0  0  # atno 17321 bound_to 7965
  139.5907  144.7549  151.3407 LP  0  0  0  0  0  0  0  0  0  0  0  0  # atno 17342 bound_to 10162
  140.7182  143.7208  150.7697 LP  0  0  0  0  0  0  0  0  0  0  0  0  # atno 17343 bound_to 10162
  157.6934  131.0802  150.7041 LP  0  0  0  0  0  0  0  0  0  0  0  0  # atno 17370 bound_to 10713
  156.7097  130.4648  149.5550 LP  0  0  0  0  0  0  0  0  0  0  0  0  # atno 17371 bound_to 10713
  139.8908  135.0114  156.6755 LP  0  0  0  0  0  0  0  0  0  0  0  0  # atno 17394 bound_to 11000
  140.7346  133.9029  155.8235 LP  0  0  0  0  0  0  0  0  0  0  0  0  # atno 17395 bound_to 11000

$$$$
