AV-unprocessed.smi:1845|AV-procd|sdf|7513|dock1
  -GOLD-   22720 9223D 1   1.00000     0.00000
 Structure written by MMmdl.
 44 45  0  0  0  0  0  0  0  0  2 V2000
  144.5546  144.8551  153.6456 C   0  0  0  0  0  0  0  0  0  0  0  0
  144.2419  143.9261  155.2077 S   0  0  0  0  0  0  0  0  0  0  0  0
  144.5009  144.8940  156.2842 O   0  0  0  0  0  0  0  0  0  0  0  0
  142.8699  143.4003  155.1076 O   0  0  0  0  0  0  0  0  0  0  0  0
  145.3925  142.7763  155.1683 N   0  5  0  0  0  0  0  0  0  0  0  0
  146.4647  142.8048  154.1824 C   0  0  0  0  0  0  0  0  0  0  0  0
  146.7593  141.3707  153.6907 C   0  0  0  0  0  0  0  0  0  0  0  0
  147.8600  140.6595  154.4927 C   0  0  0  0  0  0  0  0  0  0  0  0
  147.6490  140.2753  155.6454 O   0  0  0  0  0  0  0  0  0  0  0  0
  149.0243  140.4532  153.8537 N   0  0  0  0  0  0  0  0  0  0  0  0
  150.2066  139.8139  154.4241 C   0  0  0  0  0  0  0  0  0  0  0  0
  150.7533  140.4858  155.6764 C   0  0  0  0  0  0  0  0  0  0  0  0
  151.6306  139.8355  156.5706 C   0  0  0  0  0  0  0  0  0  0  0  0
  152.0814  140.5262  157.7120 C   0  0  0  0  0  0  0  0  0  0  0  0
  151.6447  141.8539  157.9354 C   0  0  0  0  0  0  0  0  0  0  0  0
  152.0868  142.5696  159.0704 N   0  0  0  0  0  0  0  0  0  0  0  0
  151.4010  143.8327  159.3341 C   0  0  0  0  0  0  0  0  0  0  0  0
  152.1657  144.6489  160.3905 C   0  0  0  0  0  0  0  0  0  0  0  0
  152.3510  143.8659  161.5648 O   0  0  0  0  0  0  0  0  0  0  0  0
  153.1221  142.6982  161.3042 C   0  0  0  0  0  0  0  0  0  0  0  0
  152.3899  141.8111  160.2834 C   0  0  0  0  0  0  0  0  0  0  0  0
  150.7907  142.4695  157.0807 N   0  0  0  0  0  0  0  0  0  0  0  0
  150.3608  141.8023  155.9895 C   0  0  0  0  0  0  0  0  0  0  0  0
  143.8918  145.7187  153.6053 H   0  0  0  0  0  0  0  0  0  0  0  0
  144.3600  144.2162  152.7847 H   0  0  0  0  0  0  0  0  0  0  0  0
  145.5898  145.1944  153.6240 H   0  0  0  0  0  0  0  0  0  0  0  0
  146.2105  143.4211  153.3194 H   0  0  0  0  0  0  0  0  0  0  0  0
  147.3721  143.2436  154.5986 H   0  0  0  0  0  0  0  0  0  0  0  0
  145.8530  140.7662  153.7496 H   0  0  0  0  0  0  0  0  0  0  0  0
  147.0426  141.3918  152.6368 H   0  0  0  0  0  0  0  0  0  0  0  0
  149.1045  140.7897  152.9050 H   0  0  0  0  0  0  0  0  0  0  0  0
  149.9330  138.7872  154.6694 H   0  0  0  0  0  0  0  0  0  0  0  0
  151.0074  139.7447  153.6862 H   0  0  0  0  0  0  0  0  0  0  0  0
  151.9554  138.8201  156.4003 H   0  0  0  0  0  0  0  0  0  0  0  0
  152.7392  140.0244  158.4055 H   0  0  0  0  0  0  0  0  0  0  0  0
  151.2972  144.4344  158.4327 H   0  0  0  0  0  0  0  0  0  0  0  0
  150.3924  143.6167  159.6887 H   0  0  0  0  0  0  0  0  0  0  0  0
  153.1315  144.9776  160.0031 H   0  0  0  0  0  0  0  0  0  0  0  0
  151.6049  145.5472  160.6486 H   0  0  0  0  0  0  0  0  0  0  0  0
  154.1122  142.9764  160.9393 H   0  0  0  0  0  0  0  0  0  0  0  0
  153.2685  142.1536  162.2372 H   0  0  0  0  0  0  0  0  0  0  0  0
  151.4616  141.4341  160.7148 H   0  0  0  0  0  0  0  0  0  0  0  0
  153.0138  140.9487  160.0448 H   0  0  0  0  0  0  0  0  0  0  0  0
  149.6815  142.3401  155.3447 H   0  0  0  0  0  0  0  0  0  0  0  0
  1  2  1  0  0  0  0
  1 24  1  0  0  0  0
  1 25  1  0  0  0  0
  1 26  1  0  0  0  0
  2  3  2  0  0  0  0
  2  4  2  0  0  0  0
  2  5  1  0  0  0  0
  5  6  1  0  0  0  0
  6  7  1  0  0  0  0
  6 27  1  0  0  0  0
  6 28  1  0  0  0  0
  7  8  1  0  0  0  0
  7 29  1  0  0  0  0
  7 30  1  0  0  0  0
  8  9  2  0  0  0  0
  8 10  1  0  0  0  0
 10 11  1  0  0  0  0
 10 31  1  0  0  0  0
 11 12  1  0  0  0  0
 11 32  1  0  0  0  0
 11 33  1  0  0  0  0
 12 23  1  0  0  0  0
 12 13  2  0  0  0  0
 13 14  1  0  0  0  0
 13 34  1  0  0  0  0
 14 15  2  0  0  0  0
 14 35  1  0  0  0  0
 15 16  1  0  0  0  0
 15 22  1  0  0  0  0
 16 21  1  0  0  0  0
 16 17  1  0  0  0  0
 17 18  1  0  0  0  0
 17 36  1  0  0  0  0
 17 37  1  0  0  0  0
 18 19  1  0  0  0  0
 18 38  1  0  0  0  0
 18 39  1  0  0  0  0
 19 20  1  0  0  0  0
 20 21  1  0  0  0  0
 20 40  1  0  0  0  0
 20 41  1  0  0  0  0
 21 42  1  0  0  0  0
 21 43  1  0  0  0  0
 22 23  2  0  0  0  0
 23 44  1  0  0  0  0
M  CHG  1   5  -1
M  END
> <s_m_source_file>
AV-unprocessed.smi

> <i_m_source_file_index>
1845

> <i_lp_mmshare_version>
43012

> <i_f3d_flags>
0

> <s_epik_input>
W0NIM11TKD1PKSg9TylbTkhdW0NIMl1bQ0gyXUMoPU8pW05IXVtDSDJdYzFbY0hdW2NIXWMobltjSF0xKU4yW0NIMl1bQ0gyXU9bQ0gyXVtDSDJdMg==

> <s_epik_cmdline>
J2VwaWtfcHl0aG9uJywgJy1waCcsICc3LjAnLCAnLXRuJywgJzgnLCAnLW1hJywgJzIwMCcsICctbWV0YWxfYmluZGluZycsICctaW1hZScsICc8aW5maWxlLm1hZT4nLCAnLW9tYWUnLCAnPG91dGZpbGUubWFlPic=

> <r_lp_tautomer_probability>
1

> <r_epik_Ionization_Penalty>
6.31253

> <r_epik_Ionization_Penalty_Charging>
6.30704

> <r_epik_Ionization_Penalty_Neutral>
0.00548995

> <r_epik_State_Penalty>
6.31049

> <r_epik_Charging_Adjusted_Penalty>
12.6175

> <i_epik_Tot_Q>
-1

> <i_epik_Tot_abs_Q>
1

> <r_epik_Metal_State_Penalty>
2.24651

> <b_epik_Metal_Only>
1

> <s_lp_Force_Field>
OPLS_2005

> <r_lp_Energy>
11.4109

> <b_lp_Chiralities_Consistent>
1

> <s_lp_Variant>
AV-unprocessed.smi:1845-2

> <Gold.Version>
5.8.1

> <Gold.Id.Protein>
6NUR|6NUR_protein|mol2

> <Gold.PLP.Fitness>
45.4425

> <Gold.PLP.PLP>
-42.3240

> <Gold.PLP.part.hbond>
-1.0000

> <Gold.PLP.part.metal>
0.0000

> <Gold.PLP.part.buried>
-5.7795

> <Gold.PLP.part.nonpolar>
-36.4685

> <Gold.PLP.part.repulsive>
1.4550

> <Gold.PLP.ligand.clash>
0.0000

> <Gold.PLP.ligand.torsion>
1.7985

> <Gold.PLP.Chemscore.Hbond>
0.7520

> <Gold.PLP.Chemscore.CHOScore>
0.9362

> <Gold.PLP.Chemscore.Metal>
0.0000

> <Gold.Chemscore.Hbonds>
donor molecule, donor type, donor heavy atom, donor atom, acceptor molecule, acceptor atom, score
      L1  H    10    31       P1  7957  0.75
      L1  C    23    44       P1  8028  0.94

> <Gold.PLP.Chemscore.Internal.Correction>
1.6511

> <Gold.Rescore>
     Score         DG    S(hbond)    S(metal)    S(lipo)     H(rot)  DE(clash)    DE(int)     intcor
     11.80     -13.96       0.89        0.00     100.88       2.46       0.28       1.88       ----

> <Gold.Chemscore.Fitness>
11.8036

> <Gold.Chemscore.DG>
-13.9622

> <Gold.Chemscore.ZeroCoef>
-5.4800

> <Gold.Chemscore.Hbond>
0.8933

> <Gold.Chemscore.Metal>
0.0000

> <Gold.Chemscore.Lipo>
100.8778

> <Gold.Chemscore.Internal_Hbond>
0.0000

> <Gold.Chemscore.DEClash>
0.2762

> <Gold.Chemscore.DEInternal>
1.8825

> <Gold.Chemscore.Rot>
2.4625

> <Gold.Chemscore.Internal.Correction>
   9.000000E+99

> <Gold.Chemscore.Hbonds>
donor molecule, donor type, donor heavy atom, donor atom, acceptor molecule, acceptor atom, score
      L1  H    10    31       P1  7957  0.73

> <Gold.Chemscore.Hbond.Weighted>
-2.9835

> <Gold.Chemscore.Metal.Weighted>
-0.0000

> <Gold.Chemscore.Lipo.Weighted>
-11.8027

> <Gold.Chemscore.Internal_Hbond.Weighted>
0.0000

> <Gold.Chemscore.DEClash.Weighted>
0.2762

> <Gold.Chemscore.DEInternal.Weighted>
1.8825

> <Gold.Chemscore.Rot.Weighted>
6.3040

> <Gold.Chemscore.Internal.Correction.Weighted>
   9.000000E+99

> <Gold.Protein.RotatedTorsions>
[ 6907 6896 6895 6894 ] final   70.64 input  -60.11 | X-H torsion
[ 7974 7965 7964 7962 ] final -166.17 input  175.53 | X-H torsion
[ 8008 7997 7996 7995 ] final  -75.29 input   59.86 | X-H torsion
[ 10167 10162 10161 10158 ] final   28.83 input  -65.29 | X-H torsion
[ 10718 10713 10712 10709 ] final -113.44 input   66.30 | X-H torsion
[ 10763 10752 10751 10750 ] final -130.77 input  -60.55 | X-H torsion
[ 11005 11000 10999 10996 ] final   56.14 input  -57.11 | X-H torsion

> <Gold.Protein.ActiveResidues>
 VAL166  LYS551  ARG553  GLY616  TRP617  ASP618  TYR619  PRO620  LYS621  CYS622 
 ASP623  PHE694  ASN695  SER759  ASP760  ASP761  ALA762  ILE779  LEU786  VAL792 
 PHE793  MET794  SER795  GLU796  ALA797  LYS798  CYS799  TRP800  GLU811  SER814 

> <Gold.Protein.RotatedAtoms>
  152.4762  134.4838  159.9673 H   0  0  0  0  0  0  0  0  0  0  0  0  # atno 6907 bound_to 6896
  151.4854  133.3531  159.2852 H   0  0  0  0  0  0  0  0  0  0  0  0  # atno 6908 bound_to 6896
  150.8802  134.8218  159.7280 H   0  0  0  0  0  0  0  0  0  0  0  0  # atno 6909 bound_to 6896
  144.7252  140.2706  143.6251 H   0  0  0  0  0  0  0  0  0  0  0  0  # atno 7974 bound_to 7965
  154.5404  140.0746  156.8500 H   0  0  0  0  0  0  0  0  0  0  0  0  # atno 8008 bound_to 7997
  155.3192  140.3395  155.4223 H   0  0  0  0  0  0  0  0  0  0  0  0  # atno 8009 bound_to 7997
  156.1869  140.1672  156.8155 H   0  0  0  0  0  0  0  0  0  0  0  0  # atno 8010 bound_to 7997
  140.4818  144.0603  150.6268 H   0  0  0  0  0  0  0  0  0  0  0  0  # atno 10167 bound_to 10162
  156.0767  130.5973  150.8642 H   0  0  0  0  0  0  0  0  0  0  0  0  # atno 10718 bound_to 10713
  154.8754  135.3852  154.4137 H   0  0  0  0  0  0  0  0  0  0  0  0  # atno 10763 bound_to 10752
  153.4848  135.7030  153.5923 H   0  0  0  0  0  0  0  0  0  0  0  0  # atno 10764 bound_to 10752
  153.4322  135.3876  155.2145 H   0  0  0  0  0  0  0  0  0  0  0  0  # atno 10765 bound_to 10752
  140.0552  134.5680  155.9216 H   0  0  0  0  0  0  0  0  0  0  0  0  # atno 11005 bound_to 11000
  145.8047  139.1978  143.2028 LP  0  0  0  0  0  0  0  0  0  0  0  0  # atno 17320 bound_to 7965
  146.0647  140.7933  142.9717 LP  0  0  0  0  0  0  0  0  0  0  0  0  # atno 17321 bound_to 7965
  140.3848  143.2784  152.0129 LP  0  0  0  0  0  0  0  0  0  0  0  0  # atno 17342 bound_to 10162
  139.4835  144.6126  151.7406 LP  0  0  0  0  0  0  0  0  0  0  0  0  # atno 17343 bound_to 10162
  157.5865  131.0945  150.9188 LP  0  0  0  0  0  0  0  0  0  0  0  0  # atno 17370 bound_to 10713
  156.9373  130.5371  149.5279 LP  0  0  0  0  0  0  0  0  0  0  0  0  # atno 17371 bound_to 10713
  141.1949  133.6585  156.5616 LP  0  0  0  0  0  0  0  0  0  0  0  0  # atno 17394 bound_to 11000
  140.3854  134.7486  157.4688 LP  0  0  0  0  0  0  0  0  0  0  0  0  # atno 17395 bound_to 11000

$$$$
