AV-unprocessed.smi:1228|AV-procd|sdf|5148|dock10
  -GOLD-   22720 4223D 1   1.00000     0.00000
 Structure written by MMmdl.
 44 46  0  0  0  0  0  0  0  0  2 V2000
  151.0180  141.0026  156.5357 C   0  0  0  0  0  0  0  0  0  0  0  0
  149.9890  140.5033  155.5650 C   0  0  0  0  0  0  0  0  0  0  0  0
  149.8410  139.1849  155.0444 C   0  0  0  0  0  0  0  0  0  0  0  0
  148.7567  139.3072  154.2191 C   0  0  0  0  0  0  0  0  0  0  0  0
  148.1519  138.3591  153.4549 N   0  0  0  0  0  0  0  0  0  0  0  0
  146.8381  138.1471  153.2638 C   0  0  0  0  0  0  0  0  0  0  0  0
  145.9268  138.7913  153.7837 O   0  0  0  0  0  0  0  0  0  0  0  0
  146.6291  137.1225  152.4238 N   0  0  0  0  0  0  0  0  0  0  0  0
  145.3179  136.6376  152.0023 C   0  0  2  0  0  0  0  0  0  0  0  0
  144.7418  135.6468  153.0311 C   0  0  0  0  0  0  0  0  0  0  0  0
  143.4050  135.0549  152.5459 C   0  0  0  0  0  0  0  0  0  0  0  0
  143.5250  134.4233  151.2067 N   0  3  2  0  0  0  0  0  0  0  0  0
  144.2201  133.1150  151.2350 C   0  0  0  0  0  0  0  0  0  0  0  0
  144.8306  132.7256  149.9090 C   0  0  0  0  0  0  0  0  0  0  0  0
  143.5587  132.0580  150.3815 C   0  0  0  0  0  0  0  0  0  0  0  0
  144.0752  135.3605  150.1933 C   0  0  0  0  0  0  0  0  0  0  0  0
  145.4273  135.9573  150.6278 C   0  0  0  0  0  0  0  0  0  0  0  0
  148.3082  140.6085  154.2636 N   0  0  0  0  0  0  0  0  0  0  0  0
  147.1938  141.2226  153.5685 C   0  0  0  0  0  0  0  0  0  0  0  0
  149.0750  141.3454  155.0960 N   0  0  0  0  0  0  0  0  0  0  0  0
  151.6150  140.1816  156.9336 H   0  0  0  0  0  0  0  0  0  0  0  0
  150.5503  141.5109  157.3793 H   0  0  0  0  0  0  0  0  0  0  0  0
  151.6990  141.7062  156.0567 H   0  0  0  0  0  0  0  0  0  0  0  0
  150.4400  138.3120  155.2562 H   0  0  0  0  0  0  0  0  0  0  0  0
  148.7798  137.7338  152.9720 H   0  0  0  0  0  0  0  0  0  0  0  0
  147.4354  136.6479  152.0441 H   0  0  0  0  0  0  0  0  0  0  0  0
  144.6373  137.4859  151.9073 H   0  0  0  0  0  0  0  0  0  0  0  0
  145.4567  134.8441  153.2166 H   0  0  0  0  0  0  0  0  0  0  0  0
  144.5905  136.1456  153.9892 H   0  0  0  0  0  0  0  0  0  0  0  0
  143.0257  134.3300  153.2672 H   0  0  0  0  0  0  0  0  0  0  0  0
  142.6575  135.8470  152.4859 H   0  0  0  0  0  0  0  0  0  0  0  0
  144.7092  132.8379  152.1666 H   0  0  0  0  0  0  0  0  0  0  0  0
  144.7513  133.4252  149.0787 H   0  0  0  0  0  0  0  0  0  0  0  0
  145.7425  132.1323  149.9304 H   0  0  0  0  0  0  0  0  0  0  0  0
  143.6324  131.0251  150.7155 H   0  0  0  0  0  0  0  0  0  0  0  0
  142.6360  132.3141  149.8637 H   0  0  0  0  0  0  0  0  0  0  0  0
  144.1739  134.8546  149.2322 H   0  0  0  0  0  0  0  0  0  0  0  0
  143.3545  136.1654  150.0433 H   0  0  0  0  0  0  0  0  0  0  0  0
  145.7637  136.6784  149.8819 H   0  0  0  0  0  0  0  0  0  0  0  0
  146.1853  135.1733  150.6566 H   0  0  0  0  0  0  0  0  0  0  0  0
  147.3431  141.1383  152.4918 H   0  0  0  0  0  0  0  0  0  0  0  0
  147.1103  142.2777  153.8328 H   0  0  0  0  0  0  0  0  0  0  0  0
  146.2677  140.7159  153.8415 H   0  0  0  0  0  0  0  0  0  0  0  0
  142.5818  134.2148  150.9108 H   0  0  0  0  0  0  0  0  0  0  0  0
  1  2  1  0  0  0  0
  1 21  1  0  0  0  0
  1 22  1  0  0  0  0
  1 23  1  0  0  0  0
  2 20  2  0  0  0  0
  2  3  1  0  0  0  0
  3  4  2  0  0  0  0
  3 24  1  0  0  0  0
  4  5  1  0  0  0  0
  4 18  1  0  0  0  0
  5  6  1  0  0  0  0
  5 25  1  0  0  0  0
  6  7  2  0  0  0  0
  6  8  1  0  0  0  0
  8  9  1  0  0  0  0
  8 26  1  0  0  0  0
  9 17  1  0  0  0  0
  9 10  1  0  0  0  0
  9 27  1  0  0  0  0
 10 11  1  0  0  0  0
 10 28  1  0  0  0  0
 10 29  1  0  0  0  0
 11 12  1  0  0  0  0
 11 30  1  0  0  0  0
 11 31  1  0  0  0  0
 12 13  1  0  0  0  0
 12 16  1  0  0  0  0
 12 44  1  0  0  0  0
 13 15  1  0  0  0  0
 13 14  1  0  0  0  0
 13 32  1  0  0  0  0
 14 15  1  0  0  0  0
 14 33  1  0  0  0  0
 14 34  1  0  0  0  0
 15 35  1  0  0  0  0
 15 36  1  0  0  0  0
 16 17  1  0  0  0  0
 16 37  1  0  0  0  0
 16 38  1  0  0  0  0
 17 39  1  0  0  0  0
 17 40  1  0  0  0  0
 18 19  1  0  0  0  0
 18 20  1  0  0  0  0
 19 41  1  0  0  0  0
 19 42  1  0  0  0  0
 19 43  1  0  0  0  0
M  CHG  1  12   1
M  END
> <s_m_source_file>
AV-unprocessed.smi

> <i_m_source_file_index>
1228

> <i_lp_mmshare_version>
43012

> <i_f3d_flags>
0

> <s_epik_input>
W0NIM11jMVtjSF1jKG4objEpW0NIM10pW05IXUMoPU8pW05IXVtDSF0yW0NIMl1bQ0gyXU4oW0NIMl1bQ0gyXTIpW0NIXTNbQ0gyXVtDSDJdMw==

> <s_epik_cmdline>
J2VwaWtfcHl0aG9uJywgJy1waCcsICc3LjAnLCAnLXRuJywgJzgnLCAnLW1hJywgJzIwMCcsICctbWV0YWxfYmluZGluZycsICctaW1hZScsICc8aW5maWxlLm1hZT4nLCAnLW9tYWUnLCAnPG91dGZpbGUubWFlPic=

> <r_lp_tautomer_probability>
1

> <r_epik_Ionization_Penalty>
0.11882

> <r_epik_Ionization_Penalty_Charging>
0.11874

> <r_epik_Ionization_Penalty_Neutral>
8.03064e-05

> <r_epik_State_Penalty>
0.108313

> <r_epik_Charging_Adjusted_Penalty>
0.227053

> <i_epik_Tot_Q>
1

> <i_epik_Tot_abs_Q>
1

> <r_epik_Metal_State_Penalty>
0.108316

> <b_epik_Metal_Only>
0

> <s_lp_Force_Field>
OPLS_2005

> <r_lp_Energy>
29.8379

> <b_lp_Chiralities_Consistent>
1

> <s_lp_Variant>
AV-unprocessed.smi:1228-2

> <Gold.Version>
5.8.1

> <Gold.Id.Protein>
6NUR|6NUR_protein|mol2

> <Gold.PLP.Fitness>
44.7597

> <Gold.PLP.PLP>
-34.7520

> <Gold.PLP.part.hbond>
-3.7653

> <Gold.PLP.part.metal>
0.0000

> <Gold.PLP.part.buried>
-2.2602

> <Gold.PLP.part.nonpolar>
-30.6661

> <Gold.PLP.part.repulsive>
1.1394

> <Gold.PLP.ligand.clash>
0.0000

> <Gold.PLP.ligand.torsion>
1.5426

> <Gold.PLP.Chemscore.Hbond>
3.9425

> <Gold.PLP.Chemscore.CHOScore>
0.0000

> <Gold.PLP.Chemscore.Metal>
0.0000

> <Gold.Chemscore.Hbonds>
donor molecule, donor type, donor heavy atom, donor atom, acceptor molecule, acceptor atom, score
      L1  H     5    25       P1  7948  0.96
      L1  H     8    26       P1  7948  1.00
      L1  H    12    44       P1 10186  1.76

> <Gold.PLP.Chemscore.Internal.Correction>
1.2653

> <Gold.Rescore>
     Score         DG    S(hbond)    S(metal)    S(lipo)     H(rot)  DE(clash)    DE(int)     intcor
     18.23     -20.29       2.63        0.00      78.07       1.21       0.43       1.63       ----

> <Gold.Chemscore.Fitness>
18.2309

> <Gold.Chemscore.DG>
-20.2932

> <Gold.Chemscore.ZeroCoef>
-5.4800

> <Gold.Chemscore.Hbond>
2.6275

> <Gold.Chemscore.Metal>
0.0000

> <Gold.Chemscore.Lipo>
78.0710

> <Gold.Chemscore.Internal_Hbond>
0.0000

> <Gold.Chemscore.DEClash>
0.4309

> <Gold.Chemscore.DEInternal>
1.6314

> <Gold.Chemscore.Rot>
1.2097

> <Gold.Chemscore.Internal.Correction>
   9.000000E+99

> <Gold.Chemscore.Hbonds>
donor molecule, donor type, donor heavy atom, donor atom, acceptor molecule, acceptor atom, score
      L1  H     5    25       P1  7948  0.92
      L1  H     8    26       P1  7948  0.96
      L1  H    12    44       P1 10186  0.28

> <Gold.Chemscore.Hbond.Weighted>
-8.7758

> <Gold.Chemscore.Metal.Weighted>
-0.0000

> <Gold.Chemscore.Lipo.Weighted>
-9.1343

> <Gold.Chemscore.Internal_Hbond.Weighted>
0.0000

> <Gold.Chemscore.DEClash.Weighted>
0.4309

> <Gold.Chemscore.DEInternal.Weighted>
1.6314

> <Gold.Chemscore.Rot.Weighted>
3.0969

> <Gold.Chemscore.Internal.Correction.Weighted>
   9.000000E+99

> <Gold.Protein.RotatedTorsions>
[ 6907 6896 6895 6894 ] final  -97.77 input  -60.11 | X-H torsion
[ 7974 7965 7964 7962 ] final  -15.65 input  175.53 | X-H torsion
[ 8008 7997 7996 7995 ] final  -79.75 input   59.86 | X-H torsion
[ 10167 10162 10161 10158 ] final -106.90 input  -65.29 | X-H torsion
[ 10718 10713 10712 10709 ] final   99.01 input   66.30 | X-H torsion
[ 10763 10752 10751 10750 ] final  -66.86 input  -60.55 | X-H torsion
[ 11005 11000 10999 10996 ] final -119.40 input  -57.11 | X-H torsion

> <Gold.Protein.ActiveResidues>
 VAL166  LYS551  ARG553  GLY616  TRP617  ASP618  TYR619  PRO620  LYS621  CYS622 
 ASP623  PHE694  ASN695  SER759  ASP760  ASP761  ALA762  ILE779  LEU786  VAL792 
 PHE793  MET794  SER795  GLU796  ALA797  LYS798  CYS799  TRP800  GLU811  SER814 

> <Gold.Protein.RotatedAtoms>
  150.7026  134.1297  159.4064 H   0  0  0  0  0  0  0  0  0  0  0  0  # atno 6907 bound_to 6896
  151.9283  135.0265  160.0536 H   0  0  0  0  0  0  0  0  0  0  0  0  # atno 6908 bound_to 6896
  152.2198  133.4939  159.5192 H   0  0  0  0  0  0  0  0  0  0  0  0  # atno 6909 bound_to 6896
  146.2022  140.3524  142.8419 H   0  0  0  0  0  0  0  0  0  0  0  0  # atno 7974 bound_to 7965
  154.5815  140.0673  156.9111 H   0  0  0  0  0  0  0  0  0  0  0  0  # atno 8008 bound_to 7997
  155.2454  140.3348  155.4269 H   0  0  0  0  0  0  0  0  0  0  0  0  # atno 8009 bound_to 7997
  156.2193  140.1791  156.7501 H   0  0  0  0  0  0  0  0  0  0  0  0  # atno 8010 bound_to 7997
  140.1828  143.3953  152.1268 H   0  0  0  0  0  0  0  0  0  0  0  0  # atno 10167 bound_to 10162
  157.6884  131.0657  150.4884 H   0  0  0  0  0  0  0  0  0  0  0  0  # atno 10718 bound_to 10713
  154.3660  135.6105  153.5715 H   0  0  0  0  0  0  0  0  0  0  0  0  # atno 10763 bound_to 10752
  152.9792  135.5826  154.4577 H   0  0  0  0  0  0  0  0  0  0  0  0  # atno 10764 bound_to 10752
  154.4323  135.2848  155.1882 H   0  0  0  0  0  0  0  0  0  0  0  0  # atno 10765 bound_to 10752
  141.0218  134.0113  157.3272 H   0  0  0  0  0  0  0  0  0  0  0  0  # atno 11005 bound_to 11000
  144.8710  140.7272  143.6047 LP  0  0  0  0  0  0  0  0  0  0  0  0  # atno 17320 bound_to 7965
  145.3443  139.1723  143.4469 LP  0  0  0  0  0  0  0  0  0  0  0  0  # atno 17321 bound_to 7965
  139.5289  144.7135  151.5128 LP  0  0  0  0  0  0  0  0  0  0  0  0  # atno 17342 bound_to 10162
  140.6508  143.8700  150.6784 LP  0  0  0  0  0  0  0  0  0  0  0  0  # atno 17343 bound_to 10162
  156.5212  130.4162  149.6250 LP  0  0  0  0  0  0  0  0  0  0  0  0  # atno 17370 bound_to 10713
  156.3153  130.7251  151.2152 LP  0  0  0  0  0  0  0  0  0  0  0  0  # atno 17371 bound_to 10713
  139.9151  135.0195  156.7847 LP  0  0  0  0  0  0  0  0  0  0  0  0  # atno 17394 bound_to 11000
  140.6560  133.9688  155.7780 LP  0  0  0  0  0  0  0  0  0  0  0  0  # atno 17395 bound_to 11000

$$$$
