AV-unprocessed.smi:234|AV-procd|sdf|1793|dock7
  -GOLD-   2262020353D 1   1.00000     0.00000
 Structure written by MMmdl.
 59 62  0  0  0  0  0  0  0  0  1 V2000
  151.6940  141.5700  158.1382 C   0  0  0  0  0  0  0  0  0  0  0  0
  150.3455  142.2293  157.8417 C   0  0  0  0  0  0  0  0  0  0  0  0
  149.6925  141.4971  156.8176 O   0  0  0  0  0  0  0  0  0  0  0  0
  148.2982  141.7687  156.7403 C   0  0  2  0  0  0  0  0  0  0  0  0
  147.4611  140.6911  157.4360 C   0  0  0  0  0  0  0  0  0  0  0  0
  147.4633  139.9515  156.0906 C   0  0  1  0  0  0  0  0  0  0  0  0
  146.1974  139.2842  155.7675 N   0  0  0  0  0  0  0  0  0  0  0  0
  144.9686  139.8532  156.3110 C   0  0  0  0  0  0  0  0  0  0  0  0
  146.0287  138.8093  154.5078 C   0  0  0  0  0  0  0  0  0  0  0  0
  146.7358  139.3411  153.4749 N   0  0  0  0  0  0  0  0  0  0  0  0
  146.5611  138.8809  152.2328 C   0  0  0  0  0  0  0  0  0  0  0  0
  145.7453  137.9141  151.8080 N   0  0  0  0  0  0  0  0  0  0  0  0
  145.0315  137.3796  152.8399 C   0  0  0  0  0  0  0  0  0  0  0  0
  145.1058  137.7704  154.2064 C   0  0  0  0  0  0  0  0  0  0  0  0
  144.2298  137.0064  154.9675 N   0  0  0  0  0  0  0  0  0  0  0  0
  143.6714  136.2067  154.1002 C   0  0  0  0  0  0  0  0  0  0  0  0
  144.1037  136.3533  152.8010 N   0  0  0  0  0  0  0  0  0  0  0  0
  143.6632  135.5866  151.6454 C   0  0  0  0  0  0  0  0  0  0  0  0
  144.8290  134.9838  150.8229 C   0  0  1  0  0  0  0  0  0  0  0  0
  145.1031  135.8527  149.7363 O   0  0  0  0  0  0  0  0  0  0  0  0
  146.1092  134.8423  151.6537 C   0  0  0  0  0  0  0  0  0  0  0  0
  146.2978  133.3360  151.7934 C   0  0  0  0  0  0  0  0  0  0  0  0
  145.7692  132.8372  150.5779 O   0  0  0  0  0  0  0  0  0  0  0  0
  144.5567  133.5360  150.3369 C   0  0  2  0  0  0  0  0  0  0  0  0
  144.1085  133.3565  148.8769 C   0  0  0  0  0  0  0  0  0  0  0  0
  147.6755  141.3242  155.3919 C   0  0  0  0  0  0  0  0  0  0  0  0
  146.4238  142.1220  154.9897 C   0  0  0  0  0  0  0  0  0  0  0  0
  148.6151  141.3438  154.1829 C   0  0  0  0  0  0  0  0  0  0  0  0
  152.2275  142.1096  158.9209 H   0  0  0  0  0  0  0  0  0  0  0  0
  152.3261  141.5568  157.2499 H   0  0  0  0  0  0  0  0  0  0  0  0
  151.5611  140.5404  158.4715 H   0  0  0  0  0  0  0  0  0  0  0  0
  149.7372  142.2507  158.7466 H   0  0  0  0  0  0  0  0  0  0  0  0
  150.4989  143.2616  157.5240 H   0  0  0  0  0  0  0  0  0  0  0  0
  148.0421  142.7920  157.0205 H   0  0  0  0  0  0  0  0  0  0  0  0
  147.9616  140.1583  158.2447 H   0  0  0  0  0  0  0  0  0  0  0  0
  146.4769  141.0495  157.7424 H   0  0  0  0  0  0  0  0  0  0  0  0
  148.3363  139.3039  155.9897 H   0  0  0  0  0  0  0  0  0  0  0  0
  144.2882  140.1829  155.5239 H   0  0  0  0  0  0  0  0  0  0  0  0
  145.1785  140.7169  156.9409 H   0  0  0  0  0  0  0  0  0  0  0  0
  144.4516  139.1108  156.9191 H   0  0  0  0  0  0  0  0  0  0  0  0
  147.1612  139.3554  151.4704 H   0  0  0  0  0  0  0  0  0  0  0  0
  142.9306  135.4742  154.3874 H   0  0  0  0  0  0  0  0  0  0  0  0
  142.9973  134.7965  151.9951 H   0  0  0  0  0  0  0  0  0  0  0  0
  143.0566  136.2375  151.0142 H   0  0  0  0  0  0  0  0  0  0  0  0
  145.4755  135.3415  149.0339 H   0  0  0  0  0  0  0  0  0  0  0  0
  146.9692  135.2578  151.1255 H   0  0  0  0  0  0  0  0  0  0  0  0
  146.0555  135.3389  152.6231 H   0  0  0  0  0  0  0  0  0  0  0  0
  147.3419  133.0518  151.9271 H   0  0  0  0  0  0  0  0  0  0  0  0
  145.7221  132.9452  152.6342 H   0  0  0  0  0  0  0  0  0  0  0  0
  143.8118  133.0735  150.9854 H   0  0  0  0  0  0  0  0  0  0  0  0
  143.1905  133.9085  148.6744 H   0  0  0  0  0  0  0  0  0  0  0  0
  143.9146  132.3058  148.6613 H   0  0  0  0  0  0  0  0  0  0  0  0
  144.8706  133.6988  148.1764 H   0  0  0  0  0  0  0  0  0  0  0  0
  145.9547  141.7165  154.0931 H   0  0  0  0  0  0  0  0  0  0  0  0
  146.6690  143.1642  154.7835 H   0  0  0  0  0  0  0  0  0  0  0  0
  145.6666  142.1221  155.7740 H   0  0  0  0  0  0  0  0  0  0  0  0
  148.1213  140.9879  153.2786 H   0  0  0  0  0  0  0  0  0  0  0  0
  149.4873  140.7085  154.3394 H   0  0  0  0  0  0  0  0  0  0  0  0
  148.9806  142.3510  153.9815 H   0  0  0  0  0  0  0  0  0  0  0  0
  1  2  1  0  0  0  0
  1 29  1  0  0  0  0
  1 30  1  0  0  0  0
  1 31  1  0  0  0  0
  2  3  1  0  0  0  0
  2 32  1  0  0  0  0
  2 33  1  0  0  0  0
  3  4  1  0  0  0  0
  4 26  1  0  0  0  0
  4  5  1  0  0  0  0
  4 34  1  0  0  0  0
  5  6  1  0  0  0  0
  5 35  1  0  0  0  0
  5 36  1  0  0  0  0
  6  7  1  0  0  0  0
  6 26  1  0  0  0  0
  6 37  1  0  0  0  0
  7  8  1  0  0  0  0
  7  9  1  0  0  0  0
  8 38  1  0  0  0  0
  8 39  1  0  0  0  0
  8 40  1  0  0  0  0
  9 14  1  0  0  0  0
  9 10  2  0  0  0  0
 10 11  1  0  0  0  0
 11 12  2  0  0  0  0
 11 41  1  0  0  0  0
 12 13  1  0  0  0  0
 13 17  1  0  0  0  0
 13 14  2  0  0  0  0
 14 15  1  0  0  0  0
 15 16  2  0  0  0  0
 16 17  1  0  0  0  0
 16 42  1  0  0  0  0
 17 18  1  0  0  0  0
 18 19  1  0  0  0  0
 18 43  1  0  0  0  0
 18 44  1  0  0  0  0
 19 24  1  0  0  0  0
 19 20  1  0  0  0  0
 19 21  1  0  0  0  0
 20 45  1  0  0  0  0
 21 22  1  0  0  0  0
 21 46  1  0  0  0  0
 21 47  1  0  0  0  0
 22 23  1  0  0  0  0
 22 48  1  0  0  0  0
 22 49  1  0  0  0  0
 23 24  1  0  0  0  0
 24 25  1  0  0  0  0
 24 50  1  0  0  0  0
 25 51  1  0  0  0  0
 25 52  1  0  0  0  0
 25 53  1  0  0  0  0
 26 27  1  0  0  0  0
 26 28  1  0  0  0  0
 27 54  1  0  0  0  0
 27 55  1  0  0  0  0
 27 56  1  0  0  0  0
 28 57  1  0  0  0  0
 28 58  1  0  0  0  0
 28 59  1  0  0  0  0
M  END
> <s_m_source_file>
AV-unprocessed.smi

> <i_m_source_file_index>
234

> <i_lp_mmshare_version>
43012

> <i_f3d_flags>
0

> <s_epik_input>
W0NIM11bQ0gyXU9bQ0BASF0oQzEoW0NIM10pW0NIM10pW0NIMl1bQ0BIXTFOKFtDSDNdKWMobltjSF1uMiljKGMyMyluW2NIXW4zW0NIMl1bQ0BAXTQoW09IXSlbQ0gyXVtDSDJdT1tDQEhdNFtDSDNd

> <s_epik_cmdline>
J2VwaWtfcHl0aG9uJywgJy1waCcsICc3LjAnLCAnLXRuJywgJzgnLCAnLW1hJywgJzIwMCcsICctbWV0YWxfYmluZGluZycsICctaW1hZScsICc8aW5maWxlLm1hZT4nLCAnLW9tYWUnLCAnPG91dGZpbGUubWFlPic=

> <r_lp_tautomer_probability>
1

> <r_epik_Ionization_Penalty>
0.00349132

> <r_epik_Ionization_Penalty_Charging>
0

> <r_epik_Ionization_Penalty_Neutral>
0.00349132

> <r_epik_State_Penalty>
0.00242418

> <r_epik_Charging_Adjusted_Penalty>
0.00242418

> <i_epik_Tot_Q>
0

> <i_epik_Tot_abs_Q>
0

> <r_epik_Metal_State_Penalty>
-0

> <b_epik_Metal_Only>
0

> <s_lp_Force_Field>
OPLS_2005

> <r_lp_Energy>
48.0221

> <b_lp_Chiralities_Consistent>
1

> <s_lp_Variant>
AV-unprocessed.smi:234-9

> <Gold.Version>
5.8.1

> <Gold.Id.Protein>
6NUR|6NUR_protein|mol2

> <Gold.PLP.Fitness>
39.9594

> <Gold.PLP.PLP>
-36.5576

> <Gold.PLP.part.hbond>
-1.2367

> <Gold.PLP.part.metal>
0.0000

> <Gold.PLP.part.buried>
-5.1048

> <Gold.PLP.part.nonpolar>
-31.5015

> <Gold.PLP.part.repulsive>
1.7779

> <Gold.PLP.ligand.clash>
0.0000

> <Gold.PLP.ligand.torsion>
1.9073

> <Gold.PLP.Chemscore.Hbond>
1.0000

> <Gold.PLP.Chemscore.CHOScore>
1.0000

> <Gold.PLP.Chemscore.Metal>
0.0000

> <Gold.Chemscore.Hbonds>
donor molecule, donor type, donor heavy atom, donor atom, acceptor molecule, acceptor atom, score
      L1  H    20    45       P1  7921  1.00
      L1  C    11    41       P1  7957  1.00

> <Gold.PLP.Chemscore.Internal.Correction>
1.2164

> <Gold.Rescore>
     Score         DG    S(hbond)    S(metal)    S(lipo)     H(rot)  DE(clash)    DE(int)     intcor
      4.67     -11.19       0.94        0.00      79.19       2.62       1.12       5.40       ----

> <Gold.Chemscore.Fitness>
4.6708

> <Gold.Chemscore.DG>
-11.1866

> <Gold.Chemscore.ZeroCoef>
-5.4800

> <Gold.Chemscore.Hbond>
0.9443

> <Gold.Chemscore.Metal>
0.0000

> <Gold.Chemscore.Lipo>
79.1858

> <Gold.Chemscore.Internal_Hbond>
0.0000

> <Gold.Chemscore.DEClash>
1.1152

> <Gold.Chemscore.DEInternal>
5.4005

> <Gold.Chemscore.Rot>
2.6219

> <Gold.Chemscore.Internal.Correction>
   9.000000E+99

> <Gold.Chemscore.Hbonds>
donor molecule, donor type, donor heavy atom, donor atom, acceptor molecule, acceptor atom, score
      L1  H    20    45       P1  7921  0.99

> <Gold.Chemscore.Hbond.Weighted>
-3.1540

> <Gold.Chemscore.Metal.Weighted>
-0.0000

> <Gold.Chemscore.Lipo.Weighted>
-9.2647

> <Gold.Chemscore.Internal_Hbond.Weighted>
0.0000

> <Gold.Chemscore.DEClash.Weighted>
1.1152

> <Gold.Chemscore.DEInternal.Weighted>
5.4005

> <Gold.Chemscore.Rot.Weighted>
6.7121

> <Gold.Chemscore.Internal.Correction.Weighted>
   9.000000E+99

> <Gold.Protein.RotatedTorsions>
[ 6907 6896 6895 6894 ] final   12.41 input  -60.11 | X-H torsion
[ 7974 7965 7964 7962 ] final  105.44 input  175.53 | X-H torsion
[ 8008 7997 7996 7995 ] final  -47.08 input   59.86 | X-H torsion
[ 10167 10162 10161 10158 ] final  -70.72 input  -65.29 | X-H torsion
[ 10718 10713 10712 10709 ] final   72.59 input   66.30 | X-H torsion
[ 10763 10752 10751 10750 ] final  144.75 input  -60.55 | X-H torsion
[ 11005 11000 10999 10996 ] final  164.01 input  -57.11 | X-H torsion

> <Gold.Protein.ActiveResidues>
 VAL166  LYS551  ARG553  GLY616  TRP617  ASP618  TYR619  PRO620  LYS621  CYS622 
 ASP623  PHE694  ASN695  SER759  ASP760  ASP761  ALA762  ILE779  LEU786  VAL792 
 PHE793  MET794  SER795  GLU796  ALA797  LYS798  CYS799  TRP800  GLU811  SER814 

> <Gold.Protein.RotatedAtoms>
  151.7699  135.0789  160.0358 H   0  0  0  0  0  0  0  0  0  0  0  0  # atno 6907 bound_to 6896
  152.3295  133.5938  159.5808 H   0  0  0  0  0  0  0  0  0  0  0  0  # atno 6908 bound_to 6896
  150.7415  133.9805  159.3616 H   0  0  0  0  0  0  0  0  0  0  0  0  # atno 6909 bound_to 6896
  145.3196  139.2516  143.3719 H   0  0  0  0  0  0  0  0  0  0  0  0  # atno 7974 bound_to 7965
  154.4013  140.1355  156.4116 H   0  0  0  0  0  0  0  0  0  0  0  0  # atno 8008 bound_to 7997
  155.7728  140.3483  155.5236 H   0  0  0  0  0  0  0  0  0  0  0  0  # atno 8009 bound_to 7997
  155.8750  140.0978  157.1515 H   0  0  0  0  0  0  0  0  0  0  0  0  # atno 8010 bound_to 7997
  140.5330  143.2320  151.7227 H   0  0  0  0  0  0  0  0  0  0  0  0  # atno 10167 bound_to 10162
  157.6508  130.9586  150.0950 H   0  0  0  0  0  0  0  0  0  0  0  0  # atno 10718 bound_to 10713
  153.9940  135.2929  155.3409 H   0  0  0  0  0  0  0  0  0  0  0  0  # atno 10763 bound_to 10752
  154.7198  135.5114  153.8798 H   0  0  0  0  0  0  0  0  0  0  0  0  # atno 10764 bound_to 10752
  153.0797  135.6675  154.0189 H   0  0  0  0  0  0  0  0  0  0  0  0  # atno 10765 bound_to 10752
  140.2416  134.8046  157.3416 H   0  0  0  0  0  0  0  0  0  0  0  0  # atno 11005 bound_to 11000
  146.3087  140.3750  142.8678 LP  0  0  0  0  0  0  0  0  0  0  0  0  # atno 17320 bound_to 7965
  144.8950  140.7571  143.5903 LP  0  0  0  0  0  0  0  0  0  0  0  0  # atno 17321 bound_to 7965
  139.4961  144.4085  152.0106 LP  0  0  0  0  0  0  0  0  0  0  0  0  # atno 17342 bound_to 10162
  140.3188  144.3452  150.6014 LP  0  0  0  0  0  0  0  0  0  0  0  0  # atno 17343 bound_to 10162
  156.1889  130.3653  149.8936 LP  0  0  0  0  0  0  0  0  0  0  0  0  # atno 17370 bound_to 10713
  156.6870  130.8880  151.3583 LP  0  0  0  0  0  0  0  0  0  0  0  0  # atno 17371 bound_to 10713
  140.1648  134.4683  155.7871 LP  0  0  0  0  0  0  0  0  0  0  0  0  # atno 17394 bound_to 11000
  141.2210  133.6916  156.7606 LP  0  0  0  0  0  0  0  0  0  0  0  0  # atno 17395 bound_to 11000

$$$$
