AV-unprocessed.smi:2148|AV-procd|sdf|8749|dock7
  -GOLD-   2272011523D 1   1.00000     0.00000
 Structure written by MMmdl.
 44 45  0  0  0  0  0  0  0  0  1 V2000
  153.8050  135.8126  164.3598 C   0  0  0  0  0  0  0  0  0  0  0  0
  154.6360  134.4007  163.5835 S   0  0  0  0  0  0  0  0  0  0  0  0
  155.6418  135.2480  162.3282 C   0  0  1  0  0  0  0  0  0  0  0  0
  156.4026  134.2369  161.4503 C   0  0  0  0  0  0  0  0  0  0  0  0
  154.7879  136.2207  161.5018 C   0  0  0  0  0  0  0  0  0  0  0  0
  153.9393  135.7924  160.7194 O   0  0  0  0  0  0  0  0  0  0  0  0
  155.0609  137.5259  161.6891 N   0  0  0  0  0  0  0  0  0  0  0  0
  154.4579  138.6615  161.0834 C   0  0  0  0  0  0  0  0  0  0  0  0
  154.7640  140.0035  161.4130 C   0  0  0  0  0  0  0  0  0  0  0  0
  154.1039  141.0406  160.7267 C   0  0  0  0  0  0  0  0  0  0  0  0
  153.1626  140.7050  159.7269 C   0  0  0  0  0  0  0  0  0  0  0  0
  152.4694  141.6890  159.0100 N   0  0  0  0  0  0  0  0  0  0  0  0
  152.6227  143.0247  159.5671 C   0  0  0  0  0  0  0  0  0  0  0  0
  151.9903  144.0640  158.6234 C   0  0  2  0  0  0  0  0  0  0  0  0
  152.0214  145.4740  159.2225 C   0  0  0  0  0  0  0  0  0  0  0  0
  150.6265  143.7171  158.3770 O   0  0  0  0  0  0  0  0  0  0  0  0
  150.4269  142.4100  157.8306 C   0  0  1  0  0  0  0  0  0  0  0  0
  150.8816  142.3185  156.3628 C   0  0  0  0  0  0  0  0  0  0  0  0
  151.0775  141.3516  158.7431 C   0  0  0  0  0  0  0  0  0  0  0  0
  152.8796  139.4270  159.3960 N   0  0  0  0  0  0  0  0  0  0  0  0
  153.5165  138.4379  160.0574 C   0  0  0  0  0  0  0  0  0  0  0  0
  153.1234  135.4633  165.1351 H   0  0  0  0  0  0  0  0  0  0  0  0
  153.2287  136.3699  163.6211 H   0  0  0  0  0  0  0  0  0  0  0  0
  154.5291  136.4855  164.8181 H   0  0  0  0  0  0  0  0  0  0  0  0
  156.3788  135.8538  162.8574 H   0  0  0  0  0  0  0  0  0  0  0  0
  156.9738  134.7388  160.6682 H   0  0  0  0  0  0  0  0  0  0  0  0
  155.7209  133.5347  160.9685 H   0  0  0  0  0  0  0  0  0  0  0  0
  157.1107  133.6557  162.0402 H   0  0  0  0  0  0  0  0  0  0  0  0
  155.8318  137.7272  162.3093 H   0  0  0  0  0  0  0  0  0  0  0  0
  155.4957  140.2604  162.1625 H   0  0  0  0  0  0  0  0  0  0  0  0
  154.3241  142.0710  160.9641 H   0  0  0  0  0  0  0  0  0  0  0  0
  152.1465  143.0698  160.5475 H   0  0  0  0  0  0  0  0  0  0  0  0
  153.6814  143.2443  159.7119 H   0  0  0  0  0  0  0  0  0  0  0  0
  152.5390  144.0851  157.6816 H   0  0  0  0  0  0  0  0  0  0  0  0
  153.0451  145.7946  159.4168 H   0  0  0  0  0  0  0  0  0  0  0  0
  151.4728  145.5155  160.1638 H   0  0  0  0  0  0  0  0  0  0  0  0
  151.5706  146.1965  158.5417 H   0  0  0  0  0  0  0  0  0  0  0  0
  149.3502  142.2380  157.8384 H   0  0  0  0  0  0  0  0  0  0  0  0
  150.6095  141.3534  155.9349 H   0  0  0  0  0  0  0  0  0  0  0  0
  151.9607  142.4255  156.2556 H   0  0  0  0  0  0  0  0  0  0  0  0
  150.4065  143.0922  155.7596 H   0  0  0  0  0  0  0  0  0  0  0  0
  151.0117  140.3627  158.2871 H   0  0  0  0  0  0  0  0  0  0  0  0
  150.5306  141.3045  159.6857 H   0  0  0  0  0  0  0  0  0  0  0  0
  153.2604  137.4315  159.7591 H   0  0  0  0  0  0  0  0  0  0  0  0
  1  2  1  0  0  0  0
  1 22  1  0  0  0  0
  1 23  1  0  0  0  0
  1 24  1  0  0  0  0
  2  3  1  0  0  0  0
  3  4  1  0  0  0  0
  3  5  1  0  0  0  0
  3 25  1  0  0  0  0
  4 26  1  0  0  0  0
  4 27  1  0  0  0  0
  4 28  1  0  0  0  0
  5  6  2  0  0  0  0
  5  7  1  0  0  0  0
  7  8  1  0  0  0  0
  7 29  1  0  0  0  0
  8 21  1  0  0  0  0
  8  9  2  0  0  0  0
  9 10  1  0  0  0  0
  9 30  1  0  0  0  0
 10 11  2  0  0  0  0
 10 31  1  0  0  0  0
 11 12  1  0  0  0  0
 11 20  1  0  0  0  0
 12 19  1  0  0  0  0
 12 13  1  0  0  0  0
 13 14  1  0  0  0  0
 13 32  1  0  0  0  0
 13 33  1  0  0  0  0
 14 15  1  0  0  0  0
 14 16  1  0  0  0  0
 14 34  1  0  0  0  0
 15 35  1  0  0  0  0
 15 36  1  0  0  0  0
 15 37  1  0  0  0  0
 16 17  1  0  0  0  0
 17 18  1  0  0  0  0
 17 19  1  0  0  0  0
 17 38  1  0  0  0  0
 18 39  1  0  0  0  0
 18 40  1  0  0  0  0
 18 41  1  0  0  0  0
 19 42  1  0  0  0  0
 19 43  1  0  0  0  0
 20 21  2  0  0  0  0
 21 44  1  0  0  0  0
M  END
> <s_m_source_file>
AV-unprocessed.smi

> <i_m_source_file_index>
2148

> <i_lp_mmshare_version>
43012

> <i_f3d_flags>
0

> <s_epik_input>
W0NIM11TW0NASF0oW0NIM10pQyg9TylbTkhdYzFbY0hdW2NIXWMobltjSF0xKU4yW0NIMl1bQ0BASF0oW0NIM10pT1tDQEBIXShbQ0gzXSlbQ0gyXTI=

> <s_epik_cmdline>
J2VwaWtfcHl0aG9uJywgJy1waCcsICc3LjAnLCAnLXRuJywgJzgnLCAnLW1hJywgJzIwMCcsICctbWV0YWxfYmluZGluZycsICctaW1hZScsICc8aW5maWxlLm1hZT4nLCAnLW9tYWUnLCAnPG91dGZpbGUubWFlPic=

> <r_lp_tautomer_probability>
1

> <r_epik_Ionization_Penalty>
0.000646494

> <r_epik_Ionization_Penalty_Charging>
0

> <r_epik_Ionization_Penalty_Neutral>
0.000646494

> <r_epik_State_Penalty>
0.000408447

> <r_epik_Charging_Adjusted_Penalty>
0.000408447

> <i_epik_Tot_Q>
0

> <i_epik_Tot_abs_Q>
0

> <r_epik_Metal_State_Penalty>
-0

> <b_epik_Metal_Only>
0

> <s_lp_Force_Field>
OPLS_2005

> <r_lp_Energy>
27.0114

> <b_lp_Chiralities_Consistent>
1

> <s_lp_Variant>
AV-unprocessed.smi:2148-4

> <Gold.Version>
5.8.1

> <Gold.Id.Protein>
6NUR|6NUR_protein|mol2

> <Gold.PLP.Fitness>
40.7297

> <Gold.PLP.PLP>
-39.2052

> <Gold.PLP.part.hbond>
-1.0000

> <Gold.PLP.part.metal>
0.0000

> <Gold.PLP.part.buried>
-4.5468

> <Gold.PLP.part.nonpolar>
-33.7384

> <Gold.PLP.part.repulsive>
0.1535

> <Gold.PLP.ligand.clash>
0.5772

> <Gold.PLP.ligand.torsion>
0.5256

> <Gold.PLP.Chemscore.Hbond>
1.0000

> <Gold.PLP.Chemscore.CHOScore>
0.0000

> <Gold.PLP.Chemscore.Metal>
0.0000

> <Gold.Chemscore.Hbonds>
donor molecule, donor type, donor heavy atom, donor atom, acceptor molecule, acceptor atom, score
      P1  H  6896  6907       L1     6  1.00

> <Gold.PLP.Chemscore.Internal.Correction>
0.1528

> <Gold.Rescore>
     Score         DG    S(hbond)    S(metal)    S(lipo)     H(rot)  DE(clash)    DE(int)     intcor
     16.58     -18.38       1.00        0.00     109.46       1.27       0.02       1.77       ----

> <Gold.Chemscore.Fitness>
16.5846

> <Gold.Chemscore.DG>
-18.3759

> <Gold.Chemscore.ZeroCoef>
-5.4800

> <Gold.Chemscore.Hbond>
0.9968

> <Gold.Chemscore.Metal>
0.0000

> <Gold.Chemscore.Lipo>
109.4631

> <Gold.Chemscore.Internal_Hbond>
0.0000

> <Gold.Chemscore.DEClash>
0.0170

> <Gold.Chemscore.DEInternal>
1.7743

> <Gold.Chemscore.Rot>
1.2659

> <Gold.Chemscore.Internal.Correction>
   9.000000E+99

> <Gold.Chemscore.Hbonds>
donor molecule, donor type, donor heavy atom, donor atom, acceptor molecule, acceptor atom, score
      P1  H  6896  6907       L1     6  0.97

> <Gold.Chemscore.Hbond.Weighted>
-3.3293

> <Gold.Chemscore.Metal.Weighted>
-0.0000

> <Gold.Chemscore.Lipo.Weighted>
-12.8072

> <Gold.Chemscore.Internal_Hbond.Weighted>
0.0000

> <Gold.Chemscore.DEClash.Weighted>
0.0170

> <Gold.Chemscore.DEInternal.Weighted>
1.7743

> <Gold.Chemscore.Rot.Weighted>
3.2406

> <Gold.Chemscore.Internal.Correction.Weighted>
   9.000000E+99

> <Gold.Protein.RotatedTorsions>
[ 6907 6896 6895 6894 ] final   49.28 input  -60.11 | X-H torsion
[ 7974 7965 7964 7962 ] final   48.80 input  175.53 | X-H torsion
[ 8008 7997 7996 7995 ] final   -0.20 input   59.86 | X-H torsion
[ 10167 10162 10161 10158 ] final  147.67 input  -65.29 | X-H torsion
[ 10718 10713 10712 10709 ] final  162.62 input   66.30 | X-H torsion
[ 10763 10752 10751 10750 ] final  -65.44 input  -60.55 | X-H torsion
[ 11005 11000 10999 10996 ] final  -44.31 input  -57.11 | X-H torsion

> <Gold.Protein.ActiveResidues>
 VAL166  LYS551  ARG553  GLY616  TRP617  ASP618  TYR619  PRO620  LYS621  CYS622 
 ASP623  PHE694  ASN695  SER759  ASP760  ASP761  ALA762  ILE779  LEU786  VAL792 
 PHE793  MET794  SER795  GLU796  ALA797  LYS798  CYS799  TRP800  GLU811  SER814 

> <Gold.Protein.RotatedAtoms>
  152.2890  134.7743  160.0381 H   0  0  0  0  0  0  0  0  0  0  0  0  # atno 6907 bound_to 6896
  151.8296  133.3401  159.3617 H   0  0  0  0  0  0  0  0  0  0  0  0  # atno 6908 bound_to 6896
  150.7222  134.5424  159.5798 H   0  0  0  0  0  0  0  0  0  0  0  0  # atno 6909 bound_to 6896
  146.0170  139.4607  142.9921 H   0  0  0  0  0  0  0  0  0  0  0  0  # atno 7974 bound_to 7965
  154.6607  140.2590  155.7112 H   0  0  0  0  0  0  0  0  0  0  0  0  # atno 8008 bound_to 7997
  156.2617  140.2849  156.1000 H   0  0  0  0  0  0  0  0  0  0  0  0  # atno 8009 bound_to 7997
  155.1312  140.0378  157.2765 H   0  0  0  0  0  0  0  0  0  0  0  0  # atno 8010 bound_to 7997
  139.4886  144.5737  151.7005 H   0  0  0  0  0  0  0  0  0  0  0  0  # atno 10167 bound_to 10162
  157.1200  131.0490  151.2419 H   0  0  0  0  0  0  0  0  0  0  0  0  # atno 10718 bound_to 10713
  154.3451  135.6148  153.5615 H   0  0  0  0  0  0  0  0  0  0  0  0  # atno 10763 bound_to 10752
  152.9801  135.5779  154.4808 H   0  0  0  0  0  0  0  0  0  0  0  0  # atno 10764 bound_to 10752
  154.4519  135.2853  155.1752 H   0  0  0  0  0  0  0  0  0  0  0  0  # atno 10765 bound_to 10752
  141.0442  133.6768  156.2855 H   0  0  0  0  0  0  0  0  0  0  0  0  # atno 11005 bound_to 11000
  145.7253  141.0061  143.1380 LP  0  0  0  0  0  0  0  0  0  0  0  0  # atno 17320 bound_to 7965
  144.6975  139.8919  143.7453 LP  0  0  0  0  0  0  0  0  0  0  0  0  # atno 17321 bound_to 7965
  140.5330  144.0701  150.6060 LP  0  0  0  0  0  0  0  0  0  0  0  0  # atno 17342 bound_to 10162
  140.3697  143.2861  152.0292 LP  0  0  0  0  0  0  0  0  0  0  0  0  # atno 17343 bound_to 10162
  157.4484  130.7584  149.7130 LP  0  0  0  0  0  0  0  0  0  0  0  0  # atno 17370 bound_to 10713
  155.9831  130.4004  150.3383 LP  0  0  0  0  0  0  0  0  0  0  0  0  # atno 17371 bound_to 10713
  140.6178  134.5393  157.5543 LP  0  0  0  0  0  0  0  0  0  0  0  0  # atno 17394 bound_to 11000
  139.9299  134.7984  156.0961 LP  0  0  0  0  0  0  0  0  0  0  0  0  # atno 17395 bound_to 11000

$$$$
