AV-unprocessed.smi:2753|AV-procd|sdf|10613|dock8
  -GOLD-   2272015 63D 1   1.00000     0.00000
 Structure written by MMmdl.
 27 28  0  0  0  0  0  0  0  0  3 V2000
  152.8650  142.6461  158.9198 F   0  0  0  0  0  0  0  0  0  0  0  0
  151.7826  143.2423  158.4200 C   0  0  0  0  0  0  0  0  0  0  0  0
  151.0317  143.6860  159.4279 F   0  0  0  0  0  0  0  0  0  0  0  0
  152.1621  144.2809  157.6759 F   0  0  0  0  0  0  0  0  0  0  0  0
  150.9935  142.2610  157.5761 C   0  0  0  0  0  0  0  0  0  0  0  0
  150.5355  141.0445  158.1633 C   0  0  0  0  0  0  0  0  0  0  0  0
  149.8844  140.4064  157.1846 N   0  5  0  0  0  0  0  0  0  0  0  0
  149.9184  141.1456  156.0558 C   0  0  0  0  0  0  0  0  0  0  0  0
  149.2847  140.7570  154.7359 C   0  0  2  0  0  0  0  0  0  0  0  0
  147.8305  141.2494  154.6232 C   0  0  0  0  0  0  0  0  0  0  0  0
  147.2213  140.8155  153.2811 C   0  0  0  0  0  0  0  0  0  0  0  0
  147.3650  139.2977  153.0773 C   0  0  0  0  0  0  0  0  0  0  0  0
  148.7828  138.8873  153.1770 N   0  3  0  0  0  0  0  0  0  0  0  0
  149.3972  139.2439  154.4742 C   0  0  0  0  0  0  0  0  0  0  0  0
  150.5952  142.2857  156.2895 N   0  0  0  0  0  0  0  0  0  0  0  0
  150.6254  140.6183  159.1547 H   0  0  0  0  0  0  0  0  0  0  0  0
  149.8602  141.2650  153.9600 H   0  0  0  0  0  0  0  0  0  0  0  0
  147.2366  140.8396  155.4415 H   0  0  0  0  0  0  0  0  0  0  0  0
  147.7900  142.3350  154.7207 H   0  0  0  0  0  0  0  0  0  0  0  0
  146.1698  141.1009  153.2400 H   0  0  0  0  0  0  0  0  0  0  0  0
  147.7176  141.3437  152.4659 H   0  0  0  0  0  0  0  0  0  0  0  0
  146.7811  138.7574  153.8236 H   0  0  0  0  0  0  0  0  0  0  0  0
  146.9791  139.0092  152.0993 H   0  0  0  0  0  0  0  0  0  0  0  0
  148.8471  137.8876  153.0498 H   0  0  0  0  0  0  0  0  0  0  0  0
  150.4431  138.9358  154.4678 H   0  0  0  0  0  0  0  0  0  0  0  0
  148.9034  138.6814  155.2681 H   0  0  0  0  0  0  0  0  0  0  0  0
  149.3026  139.3452  152.4420 H   0  0  0  0  0  0  0  0  0  0  0  0
  1  2  1  0  0  0  0
  2  3  1  0  0  0  0
  2  4  1  0  0  0  0
  2  5  1  0  0  0  0
  5 15  1  0  0  0  0
  5  6  2  0  0  0  0
  6  7  1  0  0  0  0
  6 16  1  0  0  0  0
  7  8  1  0  0  0  0
  8  9  1  0  0  0  0
  8 15  2  0  0  0  0
  9 14  1  0  0  0  0
  9 10  1  0  0  0  0
  9 17  1  0  0  0  0
 10 11  1  0  0  0  0
 10 18  1  0  0  0  0
 10 19  1  0  0  0  0
 11 12  1  0  0  0  0
 11 20  1  0  0  0  0
 11 21  1  0  0  0  0
 12 13  1  0  0  0  0
 12 22  1  0  0  0  0
 12 23  1  0  0  0  0
 13 14  1  0  0  0  0
 13 24  1  0  0  0  0
 13 27  1  0  0  0  0
 14 25  1  0  0  0  0
 14 26  1  0  0  0  0
M  CHG  1   7  -1
M  CHG  1  13   1
M  END
> <s_m_source_file>
AV-unprocessed.smi

> <i_m_source_file_index>
2753

> <i_lp_mmshare_version>
43012

> <i_f3d_flags>
0

> <s_epik_input>
RkMoRikoRiljMVtjSF1bbkhdYyhuMSlbQ0BASF0yW0NIMl1bQ0gyXVtDSDJdW05IXVtDSDJdMg==

> <s_epik_cmdline>
J2VwaWtfcHl0aG9uJywgJy1waCcsICc3LjAnLCAnLXRuJywgJzgnLCAnLW1hJywgJzIwMCcsICctbWV0YWxfYmluZGluZycsICctaW1hZScsICc8aW5maWxlLm1hZT4nLCAnLW9tYWUnLCAnPG91dGZpbGUubWFlPic=

> <r_lp_tautomer_probability>
0.5

> <r_epik_Ionization_Penalty>
6.42345

> <r_epik_Ionization_Penalty_Charging>
5.19935

> <r_epik_Ionization_Penalty_Neutral>
1.22411

> <r_epik_State_Penalty>
5.30226

> <r_epik_Charging_Adjusted_Penalty>
10.5016

> <i_epik_Tot_Q>
0

> <i_epik_Tot_abs_Q>
2

> <r_epik_Metal_State_Penalty>
1.35744

> <b_epik_Metal_Only>
1

> <s_lp_Force_Field>
OPLS_2005

> <r_lp_Energy>
18.3827

> <b_lp_Chiralities_Consistent>
1

> <s_lp_Variant>
AV-unprocessed.smi:2753-5

> <Gold.Version>
5.8.1

> <Gold.Id.Protein>
6NUR|6NUR_protein|mol2

> <Gold.PLP.Fitness>
39.7039

> <Gold.PLP.PLP>
-32.2919

> <Gold.PLP.part.hbond>
-1.8429

> <Gold.PLP.part.metal>
0.0000

> <Gold.PLP.part.buried>
-4.2521

> <Gold.PLP.part.nonpolar>
-27.9276

> <Gold.PLP.part.repulsive>
0.8491

> <Gold.PLP.ligand.clash>
0.0000

> <Gold.PLP.ligand.torsion>
0.7288

> <Gold.PLP.Chemscore.Hbond>
2.9428

> <Gold.PLP.Chemscore.CHOScore>
0.0000

> <Gold.PLP.Chemscore.Metal>
0.0000

> <Gold.Chemscore.Hbonds>
donor molecule, donor type, donor heavy atom, donor atom, acceptor molecule, acceptor atom, score
      L1  H    13    24       P1  7948  2.00
      L1  H    13    27       P1  7957  0.88

> <Gold.PLP.Chemscore.Internal.Correction>
0.0414

> <Gold.Rescore>
     Score         DG    S(hbond)    S(metal)    S(lipo)     H(rot)  DE(clash)    DE(int)     intcor
     14.86     -15.77       1.92        0.00      55.00       1.00       0.13       0.77       ----

> <Gold.Chemscore.Fitness>
14.8607

> <Gold.Chemscore.DG>
-15.7669

> <Gold.Chemscore.ZeroCoef>
-5.4800

> <Gold.Chemscore.Hbond>
1.9196

> <Gold.Chemscore.Metal>
0.0000

> <Gold.Chemscore.Lipo>
55.0040

> <Gold.Chemscore.Internal_Hbond>
0.0000

> <Gold.Chemscore.DEClash>
0.1313

> <Gold.Chemscore.DEInternal>
0.7748

> <Gold.Chemscore.Rot>
1.0000

> <Gold.Chemscore.Internal.Correction>
   9.000000E+99

> <Gold.Chemscore.Hbonds>
donor molecule, donor type, donor heavy atom, donor atom, acceptor molecule, acceptor atom, score
      L1  H    13    24       P1  7948  0.90
      L1  H    13    27       P1  7957  0.85

> <Gold.Chemscore.Hbond.Weighted>
-6.4114

> <Gold.Chemscore.Metal.Weighted>
-0.0000

> <Gold.Chemscore.Lipo.Weighted>
-6.4355

> <Gold.Chemscore.Internal_Hbond.Weighted>
0.0000

> <Gold.Chemscore.DEClash.Weighted>
0.1313

> <Gold.Chemscore.DEInternal.Weighted>
0.7748

> <Gold.Chemscore.Rot.Weighted>
2.5600

> <Gold.Chemscore.Internal.Correction.Weighted>
   9.000000E+99

> <Gold.Protein.RotatedTorsions>
[ 6907 6896 6895 6894 ] final  149.71 input  -60.11 | X-H torsion
[ 7974 7965 7964 7962 ] final -145.09 input  175.53 | X-H torsion
[ 8008 7997 7996 7995 ] final   13.32 input   59.86 | X-H torsion
[ 10167 10162 10161 10158 ] final -136.36 input  -65.29 | X-H torsion
[ 10718 10713 10712 10709 ] final   43.55 input   66.30 | X-H torsion
[ 10763 10752 10751 10750 ] final  154.83 input  -60.55 | X-H torsion
[ 11005 11000 10999 10996 ] final  135.22 input  -57.11 | X-H torsion

> <Gold.Protein.ActiveResidues>
 VAL166  LYS551  ARG553  GLY616  TRP617  ASP618  TYR619  PRO620  LYS621  CYS622 
 ASP623  PHE694  ASN695  SER759  ASP760  ASP761  ALA762  ILE779  LEU786  VAL792 
 PHE793  MET794  SER795  GLU796  ALA797  LYS798  CYS799  TRP800  GLU811  SER814 

> <Gold.Protein.RotatedAtoms>
  152.1243  133.4371  159.4689 H   0  0  0  0  0  0  0  0  0  0  0  0  # atno 6907 bound_to 6896
  150.6874  134.2498  159.4515 H   0  0  0  0  0  0  0  0  0  0  0  0  # atno 6908 bound_to 6896
  152.0377  134.9730  160.0624 H   0  0  0  0  0  0  0  0  0  0  0  0  # atno 6909 bound_to 6896
  144.8252  140.5628  143.5552 H   0  0  0  0  0  0  0  0  0  0  0  0  # atno 7974 bound_to 7965
  154.8329  140.2902  155.5710 H   0  0  0  0  0  0  0  0  0  0  0  0  # atno 8008 bound_to 7997
  156.3006  140.2528  156.3188 H   0  0  0  0  0  0  0  0  0  0  0  0  # atno 8009 bound_to 7997
  154.9212  140.0386  157.1988 H   0  0  0  0  0  0  0  0  0  0  0  0  # atno 8010 bound_to 7997
  139.8686  143.6986  152.2642 H   0  0  0  0  0  0  0  0  0  0  0  0  # atno 10167 bound_to 10162
  157.4171  130.7948  149.7482 H   0  0  0  0  0  0  0  0  0  0  0  0  # atno 10718 bound_to 10713
  154.1586  135.2811  155.3115 H   0  0  0  0  0  0  0  0  0  0  0  0  # atno 10763 bound_to 10752
  154.6163  135.5482  153.7531 H   0  0  0  0  0  0  0  0  0  0  0  0  # atno 10764 bound_to 10752
  153.0199  135.6428  154.1729 H   0  0  0  0  0  0  0  0  0  0  0  0  # atno 10765 bound_to 10752
  139.9965  134.9495  156.9977 H   0  0  0  0  0  0  0  0  0  0  0  0  # atno 11005 bound_to 11000
  145.5017  139.1483  143.3654 LP  0  0  0  0  0  0  0  0  0  0  0  0  # atno 17320 bound_to 7965
  146.2557  140.5157  142.8874 LP  0  0  0  0  0  0  0  0  0  0  0  0  # atno 17321 bound_to 7965
  139.7305  144.7583  151.0809 LP  0  0  0  0  0  0  0  0  0  0  0  0  # atno 17342 bound_to 10162
  140.7764  143.5094  150.9672 LP  0  0  0  0  0  0  0  0  0  0  0  0  # atno 17343 bound_to 10162
  155.9869  130.3971  150.3192 LP  0  0  0  0  0  0  0  0  0  0  0  0  # atno 17370 bound_to 10713
  157.1336  131.0278  151.2958 LP  0  0  0  0  0  0  0  0  0  0  0  0  # atno 17371 bound_to 10713
  140.4808  134.1292  155.7216 LP  0  0  0  0  0  0  0  0  0  0  0  0  # atno 17394 bound_to 11000
  141.1609  133.8795  157.1851 LP  0  0  0  0  0  0  0  0  0  0  0  0  # atno 17395 bound_to 11000

$$$$
