AV-unprocessed.smi:907|AV-procd|sdf|4108|dock4
  -GOLD-   22720 2 03D 1   1.00000     0.00000
 Structure written by MMmdl.
 53 56  0  0  0  0  0  0  0  0  2 V2000
  148.6153  141.1656  155.5865 O   0  0  0  0  0  0  0  0  0  0  0  0
  149.6588  140.5828  155.2900 C   0  0  0  0  0  0  0  0  0  0  0  0
  150.8616  141.0270  155.6883 N   0  0  0  0  0  0  0  0  0  0  0  0
  151.0779  142.2033  156.5192 C   0  0  0  0  0  0  0  0  0  0  0  0
  151.4869  141.7909  157.9401 C   0  0  0  0  0  0  0  0  0  0  0  0
  151.7298  142.9879  158.8399 C   0  0  0  0  0  0  0  0  0  0  0  0
  152.0993  142.8114  160.1903 C   0  0  0  0  0  0  0  0  0  0  0  0
  152.3198  143.9563  160.9801 C   0  0  0  0  0  0  0  0  0  0  0  0
  152.1636  145.2264  160.3924 C   0  0  0  0  0  0  0  0  0  0  0  0
  151.7920  145.2955  159.0349 C   0  0  0  0  0  0  0  0  0  0  0  0
  151.5780  144.2041  158.2688 N   0  0  0  0  0  0  0  0  0  0  0  0
  149.6919  139.4667  154.5190 N   0  0  0  0  0  0  0  0  0  0  0  0
  150.8209  138.5406  154.3694 C   0  0  0  0  0  0  0  0  0  0  0  0
  150.4992  137.2462  155.1354 C   0  0  0  0  0  0  0  0  0  0  0  0
  149.2229  136.6223  154.6740 N   0  3  0  0  0  0  0  0  0  0  0  0
  148.9239  135.3622  155.4220 C   0  0  2  0  0  0  0  0  0  0  0  0
  150.1842  134.4680  155.5720 C   0  0  0  0  0  0  0  0  0  0  0  0
  149.7360  133.1088  155.0111 C   0  0  1  0  0  0  0  0  0  0  0  0
  148.7208  132.4661  155.9702 C   0  0  0  0  0  0  0  0  0  0  0  0
  147.4687  133.3340  155.7578 C   0  0  0  0  0  0  0  0  0  0  0  0
  147.9401  134.3788  154.7261 C   0  0  2  0  0  0  0  0  0  0  0  0
  148.8566  133.5384  153.8446 C   0  0  0  0  0  0  0  0  0  0  0  0
  148.0998  137.6058  154.6436 C   0  0  0  0  0  0  0  0  0  0  0  0
  148.4865  138.9038  153.9091 C   0  0  0  0  0  0  0  0  0  0  0  0
  151.6812  140.5142  155.3980 H   0  0  0  0  0  0  0  0  0  0  0  0
  151.8543  142.8234  156.0687 H   0  0  0  0  0  0  0  0  0  0  0  0
  150.1648  142.8003  156.5520 H   0  0  0  0  0  0  0  0  0  0  0  0
  150.7106  141.1671  158.3863 H   0  0  0  0  0  0  0  0  0  0  0  0
  152.3895  141.1793  157.9059 H   0  0  0  0  0  0  0  0  0  0  0  0
  152.2140  141.8238  160.6123 H   0  0  0  0  0  0  0  0  0  0  0  0
  152.6049  143.8620  162.0176 H   0  0  0  0  0  0  0  0  0  0  0  0
  152.3252  146.1260  160.9674 H   0  0  0  0  0  0  0  0  0  0  0  0
  151.6643  146.2527  158.5515 H   0  0  0  0  0  0  0  0  0  0  0  0
  150.9667  138.3208  153.3107 H   0  0  0  0  0  0  0  0  0  0  0  0
  151.7734  138.9434  154.7137 H   0  0  0  0  0  0  0  0  0  0  0  0
  151.3328  136.5551  155.0182 H   0  0  0  0  0  0  0  0  0  0  0  0
  150.4260  137.4649  156.2021 H   0  0  0  0  0  0  0  0  0  0  0  0
  148.5287  135.6393  156.4010 H   0  0  0  0  0  0  0  0  0  0  0  0
  151.0190  134.8350  154.9735 H   0  0  0  0  0  0  0  0  0  0  0  0
  150.5245  134.4004  156.6060 H   0  0  0  0  0  0  0  0  0  0  0  0
  150.5645  132.4512  154.7459 H   0  0  0  0  0  0  0  0  0  0  0  0
  148.5223  131.4305  155.6913 H   0  0  0  0  0  0  0  0  0  0  0  0
  149.0655  132.4752  157.0048 H   0  0  0  0  0  0  0  0  0  0  0  0
  146.6542  132.7321  155.3526 H   0  0  0  0  0  0  0  0  0  0  0  0
  147.1143  133.7891  156.6835 H   0  0  0  0  0  0  0  0  0  0  0  0
  147.0919  134.8252  154.2125 H   0  0  0  0  0  0  0  0  0  0  0  0
  149.3877  134.1221  153.0906 H   0  0  0  0  0  0  0  0  0  0  0  0
  148.3457  132.7051  153.3587 H   0  0  0  0  0  0  0  0  0  0  0  0
  147.2376  137.1918  154.1255 H   0  0  0  0  0  0  0  0  0  0  0  0
  147.7880  137.8328  155.6646 H   0  0  0  0  0  0  0  0  0  0  0  0
  147.6457  139.5991  153.9154 H   0  0  0  0  0  0  0  0  0  0  0  0
  148.6825  138.6927  152.8569 H   0  0  0  0  0  0  0  0  0  0  0  0
  149.3717  136.3516  153.7123 H   0  0  0  0  0  0  0  0  0  0  0  0
  1  2  2  0  0  0  0
  2  3  1  0  0  0  0
  2 12  1  0  0  0  0
  3  4  1  0  0  0  0
  3 25  1  0  0  0  0
  4  5  1  0  0  0  0
  4 26  1  0  0  0  0
  4 27  1  0  0  0  0
  5  6  1  0  0  0  0
  5 28  1  0  0  0  0
  5 29  1  0  0  0  0
  6 11  1  0  0  0  0
  6  7  2  0  0  0  0
  7  8  1  0  0  0  0
  7 30  1  0  0  0  0
  8  9  2  0  0  0  0
  8 31  1  0  0  0  0
  9 10  1  0  0  0  0
  9 32  1  0  0  0  0
 10 11  2  0  0  0  0
 10 33  1  0  0  0  0
 12 24  1  0  0  0  0
 12 13  1  0  0  0  0
 13 14  1  0  0  0  0
 13 34  1  0  0  0  0
 13 35  1  0  0  0  0
 14 15  1  0  0  0  0
 14 36  1  0  0  0  0
 14 37  1  0  0  0  0
 15 16  1  0  0  0  0
 15 23  1  0  0  0  0
 15 53  1  0  0  0  0
 16 21  1  0  0  0  0
 16 17  1  0  0  0  0
 16 38  1  0  0  0  0
 17 18  1  0  0  0  0
 17 39  1  0  0  0  0
 17 40  1  0  0  0  0
 18 22  1  0  0  0  0
 18 19  1  0  0  0  0
 18 41  1  0  0  0  0
 19 20  1  0  0  0  0
 19 42  1  0  0  0  0
 19 43  1  0  0  0  0
 20 21  1  0  0  0  0
 20 44  1  0  0  0  0
 20 45  1  0  0  0  0
 21 22  1  0  0  0  0
 21 46  1  0  0  0  0
 22 47  1  0  0  0  0
 22 48  1  0  0  0  0
 23 24  1  0  0  0  0
 23 49  1  0  0  0  0
 23 50  1  0  0  0  0
 24 51  1  0  0  0  0
 24 52  1  0  0  0  0
M  CHG  1  15   1
M  END
> <s_m_source_file>
AV-unprocessed.smi

> <i_m_source_file_index>
907

> <i_lp_mmshare_version>
43012

> <i_f3d_flags>
0

> <s_epik_input>
W0NIMl0xW0NIMl1bQ0BASF0oW0NIMl0yKVtDQEBIXShbQ0gyXVtDQEhdMTIpTihbQ0gyXVtDSDJdMylbQ0gyXVtDSDJdTjNDKD1PKVtOSF1bQ0gyXVtDSDJdYzRbY0hdW2NIXVtjSF1bY0hdbjQ=

> <s_epik_cmdline>
J2VwaWtfcHl0aG9uJywgJy1waCcsICc3LjAnLCAnLXRuJywgJzgnLCAnLW1hJywgJzIwMCcsICctbWV0YWxfYmluZGluZycsICctaW1hZScsICc8aW5maWxlLm1hZT4nLCAnLW9tYWUnLCAnPG91dGZpbGUubWFlPic=

> <r_epik_Ionization_Penalty>
0.0419258

> <r_epik_Ionization_Penalty_Charging>
0.00262064

> <r_epik_Ionization_Penalty_Neutral>
0.0393052

> <r_epik_State_Penalty>
0.0329887

> <r_epik_Charging_Adjusted_Penalty>
0.0356093

> <i_epik_Tot_Q>
1

> <i_epik_Tot_abs_Q>
1

> <r_epik_Metal_State_Penalty>
0.0309172

> <b_epik_Metal_Only>
0

> <s_lp_Force_Field>
OPLS_2005

> <r_lp_Energy>
96.3886

> <b_lp_Chiralities_Consistent>
1

> <s_lp_Variant>
AV-unprocessed.smi:907-3

> <Gold.Version>
5.8.1

> <Gold.Id.Protein>
6NUR|6NUR_protein|mol2

> <Gold.PLP.Fitness>
50.3819

> <Gold.PLP.PLP>
-44.9790

> <Gold.PLP.part.hbond>
-1.0000

> <Gold.PLP.part.metal>
0.0000

> <Gold.PLP.part.buried>
-6.9218

> <Gold.PLP.part.nonpolar>
-37.4249

> <Gold.PLP.part.repulsive>
0.4553

> <Gold.PLP.ligand.clash>
0.0000

> <Gold.PLP.ligand.torsion>
0.3468

> <Gold.PLP.Chemscore.Hbond>
2.0000

> <Gold.PLP.Chemscore.CHOScore>
0.0000

> <Gold.PLP.Chemscore.Metal>
0.0000

> <Gold.Chemscore.Hbonds>
donor molecule, donor type, donor heavy atom, donor atom, acceptor molecule, acceptor atom, score
      L1  H    15    53       P1  7948  2.00

> <Gold.PLP.Chemscore.Internal.Correction>
0.0966

> <Gold.Rescore>
     Score         DG    S(hbond)    S(metal)    S(lipo)     H(rot)  DE(clash)    DE(int)     intcor
     19.18     -19.81       0.86        0.00     128.03       1.37       0.34       0.29       ----

> <Gold.Chemscore.Fitness>
19.1822

> <Gold.Chemscore.DG>
-19.8105

> <Gold.Chemscore.ZeroCoef>
-5.4800

> <Gold.Chemscore.Hbond>
0.8582

> <Gold.Chemscore.Metal>
0.0000

> <Gold.Chemscore.Lipo>
128.0277

> <Gold.Chemscore.Internal_Hbond>
0.0000

> <Gold.Chemscore.DEClash>
0.3415

> <Gold.Chemscore.DEInternal>
0.2869

> <Gold.Chemscore.Rot>
1.3731

> <Gold.Chemscore.Internal.Correction>
   9.000000E+99

> <Gold.Chemscore.Hbonds>
donor molecule, donor type, donor heavy atom, donor atom, acceptor molecule, acceptor atom, score
      L1  H    15    53       P1  7948  0.84

> <Gold.Chemscore.Hbond.Weighted>
-2.8664

> <Gold.Chemscore.Metal.Weighted>
-0.0000

> <Gold.Chemscore.Lipo.Weighted>
-14.9792

> <Gold.Chemscore.Internal_Hbond.Weighted>
0.0000

> <Gold.Chemscore.DEClash.Weighted>
0.3415

> <Gold.Chemscore.DEInternal.Weighted>
0.2869

> <Gold.Chemscore.Rot.Weighted>
3.5152

> <Gold.Chemscore.Internal.Correction.Weighted>
   9.000000E+99

> <Gold.Protein.RotatedTorsions>
[ 6907 6896 6895 6894 ] final -141.84 input  -60.11 | X-H torsion
[ 7974 7965 7964 7962 ] final  113.59 input  175.53 | X-H torsion
[ 8008 7997 7996 7995 ] final  -80.31 input   59.86 | X-H torsion
[ 10167 10162 10161 10158 ] final -177.03 input  -65.29 | X-H torsion
[ 10718 10713 10712 10709 ] final  -63.34 input   66.30 | X-H torsion
[ 10763 10752 10751 10750 ] final   34.61 input  -60.55 | X-H torsion
[ 11005 11000 10999 10996 ] final  -25.55 input  -57.11 | X-H torsion

> <Gold.Protein.ActiveResidues>
 VAL166  LYS551  ARG553  GLY616  TRP617  ASP618  TYR619  PRO620  LYS621  CYS622 
 ASP623  PHE694  ASN695  SER759  ASP760  ASP761  ALA762  ILE779  LEU786  VAL792 
 PHE793  MET794  SER795  GLU796  ALA797  LYS798  CYS799  TRP800  GLU811  SER814 

> <Gold.Protein.RotatedAtoms>
  151.0792  133.5404  159.2621 H   0  0  0  0  0  0  0  0  0  0  0  0  # atno 6907 bound_to 6896
  151.2314  135.0555  159.8999 H   0  0  0  0  0  0  0  0  0  0  0  0  # atno 6908 bound_to 6896
  152.5421  134.0580  159.8193 H   0  0  0  0  0  0  0  0  0  0  0  0  # atno 6909 bound_to 6896
  145.2151  139.2888  143.4248 H   0  0  0  0  0  0  0  0  0  0  0  0  # atno 7974 bound_to 7965
  154.5870  140.0665  156.9185 H   0  0  0  0  0  0  0  0  0  0  0  0  # atno 8008 bound_to 7997
  155.2361  140.3341  155.4279 H   0  0  0  0  0  0  0  0  0  0  0  0  # atno 8009 bound_to 7997
  156.2230  140.1807  156.7417 H   0  0  0  0  0  0  0  0  0  0  0  0  # atno 8010 bound_to 7997
  139.5500  144.2134  152.1060 H   0  0  0  0  0  0  0  0  0  0  0  0  # atno 10167 bound_to 10162
  156.0797  130.4219  150.1263 H   0  0  0  0  0  0  0  0  0  0  0  0  # atno 10718 bound_to 10713
  153.0156  135.6355  154.1697 H   0  0  0  0  0  0  0  0  0  0  0  0  # atno 10763 bound_to 10752
  154.1436  135.2833  155.3156 H   0  0  0  0  0  0  0  0  0  0  0  0  # atno 10764 bound_to 10752
  154.6106  135.5557  153.7530 H   0  0  0  0  0  0  0  0  0  0  0  0  # atno 10765 bound_to 10752
  140.8948  133.7564  156.0467 H   0  0  0  0  0  0  0  0  0  0  0  0  # atno 11005 bound_to 11000
  146.3389  140.2439  142.8596 LP  0  0  0  0  0  0  0  0  0  0  0  0  # atno 17320 bound_to 7965
  144.9819  140.8467  143.5392 LP  0  0  0  0  0  0  0  0  0  0  0  0  # atno 17321 bound_to 7965
  140.1627  144.5010  150.6623 LP  0  0  0  0  0  0  0  0  0  0  0  0  # atno 17342 bound_to 10162
  140.6760  143.2305  151.5506 LP  0  0  0  0  0  0  0  0  0  0  0  0  # atno 17343 bound_to 10162
  156.9297  130.9710  151.3535 LP  0  0  0  0  0  0  0  0  0  0  0  0  # atno 17370 bound_to 10713
  157.5909  130.8443  149.8657 LP  0  0  0  0  0  0  0  0  0  0  0  0  # atno 17371 bound_to 10713
  140.8303  134.3186  157.5351 LP  0  0  0  0  0  0  0  0  0  0  0  0  # atno 17394 bound_to 11000
  139.8734  134.9359  156.3647 LP  0  0  0  0  0  0  0  0  0  0  0  0  # atno 17395 bound_to 11000

$$$$
