AV-unprocessed.smi:2962|AV-procd|sdf|11317|dock2
  -GOLD-   2272016223D 1   1.00000     0.00000
 Structure written by MMmdl.
 37 38  0  0  0  0  0  0  0  0  2 V2000
  150.8941  137.5658  154.3866 C   0  0  0  0  0  0  0  0  0  0  0  0
  152.2700  137.7500  154.6677 O   0  0  0  0  0  0  0  0  0  0  0  0
  152.5572  139.0518  155.1519 C   0  0  0  0  0  0  0  0  0  0  0  0
  151.9218  139.2343  156.5374 C   0  0  0  0  0  0  0  0  0  0  0  0
  151.5152  140.6252  156.7841 N   0  0  0  0  0  0  0  0  0  0  0  0
  150.6625  141.4394  156.1001 C   0  0  0  0  0  0  0  0  0  0  0  0
  149.7256  141.0321  154.6630 S   0  0  0  0  0  0  0  0  0  0  0  0
  148.0787  141.7545  154.9295 C   0  0  2  0  0  0  0  0  0  0  0  0
  147.6335  141.5436  156.3845 C   0  0  0  0  0  0  0  0  0  0  0  0
  147.0445  141.1926  153.9465 C   0  0  0  0  0  0  0  0  0  0  0  0
  145.7964  141.6589  154.0417 N   0  0  0  0  0  0  0  0  0  0  0  0
  147.3690  140.3640  153.0981 O   0  0  0  0  0  0  0  0  0  0  0  0
  150.6500  142.6474  156.7263 N   0  3  0  0  0  0  0  0  0  0  0  0
  151.5044  142.6088  157.8290 C   0  0  0  0  0  0  0  0  0  0  0  0
  151.8238  143.5841  158.7687 C   0  0  0  0  0  0  0  0  0  0  0  0
  152.7432  143.2176  159.7735 C   0  0  0  0  0  0  0  0  0  0  0  0
  153.3065  141.9257  159.8180 C   0  0  0  0  0  0  0  0  0  0  0  0
  152.9749  140.9445  158.8604 C   0  0  0  0  0  0  0  0  0  0  0  0
  152.0645  141.3141  157.8711 C   0  0  0  0  0  0  0  0  0  0  0  0
  150.7260  136.5490  154.0315 H   0  0  0  0  0  0  0  0  0  0  0  0
  150.5552  138.2534  153.6108 H   0  0  0  0  0  0  0  0  0  0  0  0
  150.2850  137.7162  155.2790 H   0  0  0  0  0  0  0  0  0  0  0  0
  153.6361  139.1987  155.2191 H   0  0  0  0  0  0  0  0  0  0  0  0
  152.1689  139.7994  154.4585 H   0  0  0  0  0  0  0  0  0  0  0  0
  151.0372  138.6046  156.6205 H   0  0  0  0  0  0  0  0  0  0  0  0
  152.6021  138.9181  157.3286 H   0  0  0  0  0  0  0  0  0  0  0  0
  148.1648  142.8281  154.7595 H   0  0  0  0  0  0  0  0  0  0  0  0
  146.6417  141.9619  156.5613 H   0  0  0  0  0  0  0  0  0  0  0  0
  148.3217  142.0322  157.0749 H   0  0  0  0  0  0  0  0  0  0  0  0
  147.6012  140.4848  156.6456 H   0  0  0  0  0  0  0  0  0  0  0  0
  145.0846  141.3330  153.4042 H   0  0  0  0  0  0  0  0  0  0  0  0
  145.5735  142.3521  154.7416 H   0  0  0  0  0  0  0  0  0  0  0  0
  151.3953  144.5750  158.7359 H   0  0  0  0  0  0  0  0  0  0  0  0
  153.0232  143.9425  160.5243 H   0  0  0  0  0  0  0  0  0  0  0  0
  154.0088  141.6822  160.6023 H   0  0  0  0  0  0  0  0  0  0  0  0
  153.4139  139.9586  158.9019 H   0  0  0  0  0  0  0  0  0  0  0  0
  150.0947  143.4361  156.4201 H   0  0  0  0  0  0  0  0  0  0  0  0
  1  2  1  0  0  0  0
  1 20  1  0  0  0  0
  1 21  1  0  0  0  0
  1 22  1  0  0  0  0
  2  3  1  0  0  0  0
  3  4  1  0  0  0  0
  3 23  1  0  0  0  0
  3 24  1  0  0  0  0
  4  5  1  0  0  0  0
  4 25  1  0  0  0  0
  4 26  1  0  0  0  0
  5 19  1  0  0  0  0
  5  6  1  0  0  0  0
  6  7  1  0  0  0  0
  6 13  2  0  0  0  0
  7  8  1  0  0  0  0
  8  9  1  0  0  0  0
  8 10  1  0  0  0  0
  8 27  1  0  0  0  0
  9 28  1  0  0  0  0
  9 29  1  0  0  0  0
  9 30  1  0  0  0  0
 10 11  1  0  0  0  0
 10 12  2  0  0  0  0
 11 31  1  0  0  0  0
 11 32  1  0  0  0  0
 13 14  1  0  0  0  0
 13 37  1  0  0  0  0
 14 19  2  0  0  0  0
 14 15  1  0  0  0  0
 15 16  2  0  0  0  0
 15 33  1  0  0  0  0
 16 17  1  0  0  0  0
 16 34  1  0  0  0  0
 17 18  2  0  0  0  0
 17 35  1  0  0  0  0
 18 19  1  0  0  0  0
 18 36  1  0  0  0  0
M  CHG  1  13   1
M  END
> <s_m_source_file>
AV-unprocessed.smi

> <i_m_source_file_index>
2962

> <i_lp_mmshare_version>
43012

> <i_f3d_flags>
0

> <s_epik_input>
W2NIXTFbY0hdW2NIXVtjSF1jKGMxMiluKFtDSDJdW0NIMl1PW0NIM10pYyhuMilTW0NASF0oW0NIM10pQyg9TylbTkgyXQ==

> <s_epik_cmdline>
J2VwaWtfcHl0aG9uJywgJy1waCcsICc3LjAnLCAnLXRuJywgJzgnLCAnLW1hJywgJzIwMCcsICctbWV0YWxfYmluZGluZycsICctaW1hZScsICc8aW5maWxlLm1hZT4nLCAnLW9tYWUnLCAnPG91dGZpbGUubWFlPic=

> <r_epik_Ionization_Penalty>
2.01771

> <r_epik_Ionization_Penalty_Charging>
2.01771

> <r_epik_Ionization_Penalty_Neutral>
3.318e-07

> <r_epik_State_Penalty>
2.14773

> <r_epik_Charging_Adjusted_Penalty>
4.16544

> <i_epik_Tot_Q>
1

> <i_epik_Tot_abs_Q>
1

> <r_epik_Metal_State_Penalty>
2.1675

> <b_epik_Metal_Only>
0

> <s_lp_Force_Field>
OPLS_2005

> <r_lp_Energy>
8.01651

> <b_lp_Chiralities_Consistent>
1

> <s_lp_Variant>
AV-unprocessed.smi:2962-3

> <Gold.Version>
5.8.1

> <Gold.Id.Protein>
6NUR|6NUR_protein|mol2

> <Gold.PLP.Fitness>
50.0194

> <Gold.PLP.PLP>
-40.5920

> <Gold.PLP.part.hbond>
-3.0000

> <Gold.PLP.part.metal>
0.0000

> <Gold.PLP.part.buried>
-4.8354

> <Gold.PLP.part.nonpolar>
-34.1166

> <Gold.PLP.part.repulsive>
0.8732

> <Gold.PLP.ligand.clash>
0.0000

> <Gold.PLP.ligand.torsion>
0.6123

> <Gold.PLP.Chemscore.Hbond>
3.4914

> <Gold.PLP.Chemscore.CHOScore>
0.0000

> <Gold.PLP.Chemscore.Metal>
0.0000

> <Gold.Chemscore.Hbonds>
donor molecule, donor type, donor heavy atom, donor atom, acceptor molecule, acceptor atom, score
      L1  H    11    31       P1 10175  0.90
      L1  H    13    37       P1  8028  2.00
      P1  H 10752 10763       L1     2  0.34

> <Gold.PLP.Chemscore.Internal.Correction>
0.1778

> <Gold.Rescore>
     Score         DG    S(hbond)    S(metal)    S(lipo)     H(rot)  DE(clash)    DE(int)     intcor
     18.34     -19.18       2.73        0.00      95.50       2.57       0.17       0.66       ----

> <Gold.Chemscore.Fitness>
18.3405

> <Gold.Chemscore.DG>
-19.1759

> <Gold.Chemscore.ZeroCoef>
-5.4800

> <Gold.Chemscore.Hbond>
2.7267

> <Gold.Chemscore.Metal>
0.0000

> <Gold.Chemscore.Lipo>
95.5008

> <Gold.Chemscore.Internal_Hbond>
0.0000

> <Gold.Chemscore.DEClash>
0.1708

> <Gold.Chemscore.DEInternal>
0.6646

> <Gold.Chemscore.Rot>
2.5723

> <Gold.Chemscore.Internal.Correction>
   9.000000E+99

> <Gold.Chemscore.Hbonds>
donor molecule, donor type, donor heavy atom, donor atom, acceptor molecule, acceptor atom, score
      L1  H    11    31       P1 10175  0.18
      L1  H    13    37       P1  8028  1.00
      P1  H 10752 10763       L1     2  0.08

> <Gold.Chemscore.Hbond.Weighted>
-9.1073

> <Gold.Chemscore.Metal.Weighted>
-0.0000

> <Gold.Chemscore.Lipo.Weighted>
-11.1736

> <Gold.Chemscore.Internal_Hbond.Weighted>
0.0000

> <Gold.Chemscore.DEClash.Weighted>
0.1708

> <Gold.Chemscore.DEInternal.Weighted>
0.6646

> <Gold.Chemscore.Rot.Weighted>
6.5850

> <Gold.Chemscore.Internal.Correction.Weighted>
   9.000000E+99

> <Gold.Protein.RotatedTorsions>
[ 6907 6896 6895 6894 ] final  139.25 input  -60.11 | X-H torsion
[ 7974 7965 7964 7962 ] final  -53.05 input  175.53 | X-H torsion
[ 8008 7997 7996 7995 ] final  101.33 input   59.86 | X-H torsion
[ 10167 10162 10161 10158 ] final -146.55 input  -65.29 | X-H torsion
[ 10718 10713 10712 10709 ] final -172.84 input   66.30 | X-H torsion
[ 10763 10752 10751 10750 ] final   48.89 input  -60.55 | X-H torsion
[ 11005 11000 10999 10996 ] final    3.67 input  -57.11 | X-H torsion

> <Gold.Protein.ActiveResidues>
 VAL166  LYS551  ARG553  GLY616  TRP617  ASP618  TYR619  PRO620  LYS621  CYS622 
 ASP623  PHE694  ASN695  SER759  ASP760  ASP761  ALA762  ILE779  LEU786  VAL792 
 PHE793  MET794  SER795  GLU796  ALA797  LYS798  CYS799  TRP800  GLU811  SER814 

> <Gold.Protein.RotatedAtoms>
  152.2571  133.5265  159.5359 H   0  0  0  0  0  0  0  0  0  0  0  0  # atno 6907 bound_to 6896
  150.7112  134.0881  159.3931 H   0  0  0  0  0  0  0  0  0  0  0  0  # atno 6908 bound_to 6896
  151.8799  135.0457  160.0538 H   0  0  0  0  0  0  0  0  0  0  0  0  # atno 6909 bound_to 6896
  145.9011  140.7993  142.9742 H   0  0  0  0  0  0  0  0  0  0  0  0  # atno 7974 bound_to 7965
  156.1289  140.3199  155.8319 H   0  0  0  0  0  0  0  0  0  0  0  0  # atno 8008 bound_to 7997
  155.4368  140.0522  157.3031 H   0  0  0  0  0  0  0  0  0  0  0  0  # atno 8009 bound_to 7997
  154.4884  140.2082  155.9616 H   0  0  0  0  0  0  0  0  0  0  0  0  # atno 8010 bound_to 7997
  139.7703  143.8248  152.2623 H   0  0  0  0  0  0  0  0  0  0  0  0  # atno 10167 bound_to 10162
  156.7615  130.9415  151.3118 H   0  0  0  0  0  0  0  0  0  0  0  0  # atno 10718 bound_to 10713
  152.9789  135.5929  154.3999 H   0  0  0  0  0  0  0  0  0  0  0  0  # atno 10763 bound_to 10752
  154.3646  135.2767  155.2303 H   0  0  0  0  0  0  0  0  0  0  0  0  # atno 10764 bound_to 10752
  154.4285  135.6042  153.6109 H   0  0  0  0  0  0  0  0  0  0  0  0  # atno 10765 bound_to 10752
  140.5905  133.9928  155.8087 H   0  0  0  0  0  0  0  0  0  0  0  0  # atno 11005 bound_to 11000
  144.6736  140.1679  143.7417 LP  0  0  0  0  0  0  0  0  0  0  0  0  # atno 17320 bound_to 7965
  145.8789  139.2312  143.1617 LP  0  0  0  0  0  0  0  0  0  0  0  0  # atno 17321 bound_to 7965
  139.8280  144.7266  150.9487 LP  0  0  0  0  0  0  0  0  0  0  0  0  # atno 17342 bound_to 10162
  140.7813  143.4096  151.1014 LP  0  0  0  0  0  0  0  0  0  0  0  0  # atno 17343 bound_to 10162
  157.6732  130.9070  150.0090 LP  0  0  0  0  0  0  0  0  0  0  0  0  # atno 17370 bound_to 10713
  156.1336  130.3643  149.9692 LP  0  0  0  0  0  0  0  0  0  0  0  0  # atno 17371 bound_to 10713
  141.0938  133.9876  157.3194 LP  0  0  0  0  0  0  0  0  0  0  0  0  # atno 17394 bound_to 11000
  139.9276  135.0201  156.8289 LP  0  0  0  0  0  0  0  0  0  0  0  0  # atno 17395 bound_to 11000

$$$$
