AV-unprocessed.smi:145|AV-procd|sdf|1198|dock5
  -GOLD-   2262018353D 1   1.00000     0.00000
 Structure written by MMmdl.
 40 42  0  0  0  0  0  0  0  0  1 V2000
  152.4825  136.3526  156.6896 O   0  0  0  0  0  0  0  0  0  0  0  0
  151.9460  137.2056  155.9811 C   0  0  0  0  0  0  0  0  0  0  0  0
  152.5985  138.5842  155.7887 C   0  0  0  0  0  0  0  0  0  0  0  0
  151.7147  139.7138  156.1517 N   0  0  0  0  0  0  0  0  0  0  0  0
  150.6718  140.0774  155.2640 C   0  0  0  0  0  0  0  0  0  0  0  0
  150.4884  139.4669  154.2100 O   0  0  0  0  0  0  0  0  0  0  0  0
  149.8538  141.2098  155.6836 C   0  0  0  0  0  0  0  0  0  0  0  0
  148.8321  141.6150  154.9103 F   0  0  0  0  0  0  0  0  0  0  0  0
  150.1047  141.8588  156.8393 C   0  0  0  0  0  0  0  0  0  0  0  0
  151.1385  141.5043  157.6879 N   0  0  0  0  0  0  0  0  0  0  0  0
  151.4120  142.2468  158.9792 C   0  0  1  0  0  0  0  0  0  0  0  0
  152.8157  142.8815  158.9535 C   0  0  0  0  0  0  0  0  0  0  0  0
  152.5391  144.3228  159.3320 C   0  0  0  0  0  0  0  0  0  0  0  0
  151.1267  144.5215  158.8032 C   0  0  0  0  0  0  0  0  0  0  0  0
  150.4936  143.2918  159.1315 O   0  0  0  0  0  0  0  0  0  0  0  0
  151.9668  140.4098  157.3578 C   0  0  0  0  0  0  0  0  0  0  0  0
  152.8919  140.0761  158.1019 O   0  0  0  0  0  0  0  0  0  0  0  0
  150.7744  137.0358  155.3419 N   0  0  0  0  0  0  0  0  0  0  0  0
  149.9380  135.8872  155.3198 C   0  0  0  0  0  0  0  0  0  0  0  0
  148.5268  135.9527  155.2202 C   0  0  0  0  0  0  0  0  0  0  0  0
  147.7602  134.7708  155.2253 C   0  0  0  0  0  0  0  0  0  0  0  0
  148.3926  133.5184  155.3389 C   0  0  0  0  0  0  0  0  0  0  0  0
  149.7936  133.4479  155.4553 C   0  0  0  0  0  0  0  0  0  0  0  0
  150.7362  131.5902  155.6367 I   0  0  0  0  0  0  0  0  0  0  0  0
  150.5613  134.6287  155.4517 C   0  0  0  0  0  0  0  0  0  0  0  0
  153.5249  138.6074  156.3644 H   0  0  0  0  0  0  0  0  0  0  0  0
  152.9311  138.6734  154.7530 H   0  0  0  0  0  0  0  0  0  0  0  0
  149.4595  142.6858  157.0926 H   0  0  0  0  0  0  0  0  0  0  0  0
  151.2652  141.5161  159.7765 H   0  0  0  0  0  0  0  0  0  0  0  0
  153.4871  142.3752  159.6476 H   0  0  0  0  0  0  0  0  0  0  0  0
  153.2377  142.8270  157.9485 H   0  0  0  0  0  0  0  0  0  0  0  0
  152.5511  144.4353  160.4169 H   0  0  0  0  0  0  0  0  0  0  0  0
  153.2579  145.0228  158.9057 H   0  0  0  0  0  0  0  0  0  0  0  0
  150.6188  145.3699  159.2620 H   0  0  0  0  0  0  0  0  0  0  0  0
  151.1332  144.6658  157.7219 H   0  0  0  0  0  0  0  0  0  0  0  0
  150.4040  137.8511  154.8755 H   0  0  0  0  0  0  0  0  0  0  0  0
  148.0110  136.8983  155.1539 H   0  0  0  0  0  0  0  0  0  0  0  0
  146.6845  134.8263  155.1474 H   0  0  0  0  0  0  0  0  0  0  0  0
  147.8023  132.6140  155.3430 H   0  0  0  0  0  0  0  0  0  0  0  0
  151.6358  134.5635  155.5437 H   0  0  0  0  0  0  0  0  0  0  0  0
  1  2  2  0  0  0  0
  2  3  1  0  0  0  0
  2 18  1  0  0  0  0
  3  4  1  0  0  0  0
  3 26  1  0  0  0  0
  3 27  1  0  0  0  0
  4 16  1  0  0  0  0
  4  5  1  0  0  0  0
  5  6  2  0  0  0  0
  5  7  1  0  0  0  0
  7  8  1  0  0  0  0
  7  9  2  0  0  0  0
  9 10  1  0  0  0  0
  9 28  1  0  0  0  0
 10 11  1  0  0  0  0
 10 16  1  0  0  0  0
 11 15  1  0  0  0  0
 11 12  1  0  0  0  0
 11 29  1  0  0  0  0
 12 13  1  0  0  0  0
 12 30  1  0  0  0  0
 12 31  1  0  0  0  0
 13 14  1  0  0  0  0
 13 32  1  0  0  0  0
 13 33  1  0  0  0  0
 14 15  1  0  0  0  0
 14 34  1  0  0  0  0
 14 35  1  0  0  0  0
 16 17  2  0  0  0  0
 18 19  1  0  0  0  0
 18 36  1  0  0  0  0
 19 25  1  0  0  0  0
 19 20  2  0  0  0  0
 20 21  1  0  0  0  0
 20 37  1  0  0  0  0
 21 22  2  0  0  0  0
 21 38  1  0  0  0  0
 22 23  1  0  0  0  0
 22 39  1  0  0  0  0
 23 24  1  0  0  0  0
 23 25  2  0  0  0  0
 25 40  1  0  0  0  0
M  END
> <s_m_source_file>
AV-unprocessed.smi

> <i_m_source_file_index>
145

> <i_lp_mmshare_version>
43012

> <i_f3d_flags>
0

> <s_epik_input>
SWMoW2NIXTEpW2NIXVtjSF1bY0hdYzFbTkhdQyg9TylbQ0gyXW4yYyg9TyljKEYpW2NIXW4oYzI9TylbQ0BASF0zW0NIMl1bQ0gyXVtDSDJdTzM=

> <s_epik_cmdline>
J2VwaWtfcHl0aG9uJywgJy1waCcsICc3LjAnLCAnLXRuJywgJzgnLCAnLW1hJywgJzIwMCcsICctbWV0YWxfYmluZGluZycsICctaW1hZScsICc8aW5maWxlLm1hZT4nLCAnLW9tYWUnLCAnPG91dGZpbGUubWFlPic=

> <r_lp_tautomer_probability>
1

> <r_epik_Ionization_Penalty>
9.72367e-07

> <r_epik_Ionization_Penalty_Charging>
3.88729e-08

> <r_epik_Ionization_Penalty_Neutral>
9.33494e-07

> <r_epik_State_Penalty>
-0

> <r_epik_Charging_Adjusted_Penalty>
3.88729e-08

> <i_epik_Tot_Q>
0

> <i_epik_Tot_abs_Q>
0

> <r_epik_Metal_State_Penalty>
-0

> <b_epik_Metal_Only>
0

> <s_epik_Chemistry_Notes>
This compound contains an acetal/aminal-like group ( X-CH(R)-Y where X, Y are N, S, or O) that may be acid/base labile, releasing an aldehyde.

> <s_lp_Force_Field>
OPLS_2005

> <r_lp_Energy>
33.5039

> <b_lp_Chiralities_Consistent>
1

> <s_lp_Variant>
AV-unprocessed.smi:145-2

> <Gold.Version>
5.8.1

> <Gold.Id.Protein>
6NUR|6NUR_protein|mol2

> <Gold.PLP.Fitness>
52.7054

> <Gold.PLP.PLP>
-44.2455

> <Gold.PLP.part.hbond>
-3.0000

> <Gold.PLP.part.metal>
0.0000

> <Gold.PLP.part.buried>
-1.5525

> <Gold.PLP.part.nonpolar>
-39.5733

> <Gold.PLP.part.repulsive>
0.7550

> <Gold.PLP.ligand.clash>
0.0000

> <Gold.PLP.ligand.torsion>
0.4118

> <Gold.PLP.Chemscore.Hbond>
2.1500

> <Gold.PLP.Chemscore.CHOScore>
0.9407

> <Gold.PLP.Chemscore.Metal>
0.0000

> <Gold.Chemscore.Hbonds>
donor molecule, donor type, donor heavy atom, donor atom, acceptor molecule, acceptor atom, score
      P1  H  7989  7998       L1     6  0.15
      P1  H  7997  8010       L1    17  1.00
      P1  H 10752 10764       L1     1  0.65
      L1  C     9    28       P1  8028  0.92

> <Gold.PLP.Chemscore.Internal.Correction>
0.0114

> <Gold.Rescore>
     Score         DG    S(hbond)    S(metal)    S(lipo)     H(rot)  DE(clash)    DE(int)     intcor
     13.96     -17.12       1.94        0.00      80.60       1.66       0.13       3.04       ----

> <Gold.Chemscore.Fitness>
13.9555

> <Gold.Chemscore.DG>
-17.1215

> <Gold.Chemscore.ZeroCoef>
-5.4800

> <Gold.Chemscore.Hbond>
1.9362

> <Gold.Chemscore.Metal>
0.0000

> <Gold.Chemscore.Lipo>
80.5954

> <Gold.Chemscore.Internal_Hbond>
0.0000

> <Gold.Chemscore.DEClash>
0.1256

> <Gold.Chemscore.DEInternal>
3.0404

> <Gold.Chemscore.Rot>
1.6621

> <Gold.Chemscore.Internal.Correction>
   9.000000E+99

> <Gold.Chemscore.Hbonds>
donor molecule, donor type, donor heavy atom, donor atom, acceptor molecule, acceptor atom, score
      P1  H  7997  8010       L1    17  0.46
      P1  H 10752 10764       L1     1  0.06

> <Gold.Chemscore.Hbond.Weighted>
-6.4668

> <Gold.Chemscore.Metal.Weighted>
-0.0000

> <Gold.Chemscore.Lipo.Weighted>
-9.4297

> <Gold.Chemscore.Internal_Hbond.Weighted>
0.0000

> <Gold.Chemscore.DEClash.Weighted>
0.1256

> <Gold.Chemscore.DEInternal.Weighted>
3.0404

> <Gold.Chemscore.Rot.Weighted>
4.2550

> <Gold.Chemscore.Internal.Correction.Weighted>
   9.000000E+99

> <Gold.Protein.RotatedTorsions>
[ 6907 6896 6895 6894 ] final -147.09 input  -60.11 | X-H torsion
[ 7974 7965 7964 7962 ] final -134.74 input  175.53 | X-H torsion
[ 8008 7997 7996 7995 ] final   42.28 input   59.86 | X-H torsion
[ 10167 10162 10161 10158 ] final -176.70 input  -65.29 | X-H torsion
[ 10718 10713 10712 10709 ] final  112.24 input   66.30 | X-H torsion
[ 10763 10752 10751 10750 ] final  -20.97 input  -60.55 | X-H torsion
[ 11005 11000 10999 10996 ] final -109.27 input  -57.11 | X-H torsion

> <Gold.Protein.ActiveResidues>
 VAL166  LYS551  ARG553  GLY616  TRP617  ASP618  TYR619  PRO620  LYS621  CYS622 
 ASP623  PHE694  ASN695  SER759  ASP760  ASP761  ALA762  ILE779  LEU786  VAL792 
 PHE793  MET794  SER795  GLU796  ALA797  LYS798  CYS799  TRP800  GLU811  SER814 

> <Gold.Protein.RotatedAtoms>
  151.1508  133.4908  159.2595 H   0  0  0  0  0  0  0  0  0  0  0  0  # atno 6907 bound_to 6896
  151.1556  135.0248  159.8697 H   0  0  0  0  0  0  0  0  0  0  0  0  # atno 6908 bound_to 6896
  152.5463  134.1388  159.8523 H   0  0  0  0  0  0  0  0  0  0  0  0  # atno 6909 bound_to 6896
  144.9075  140.6852  143.5046 H   0  0  0  0  0  0  0  0  0  0  0  0  # atno 7974 bound_to 7965
  155.2835  140.3374  155.4257 H   0  0  0  0  0  0  0  0  0  0  0  0  # atno 8008 bound_to 7997
  156.2079  140.1758  156.7801 H   0  0  0  0  0  0  0  0  0  0  0  0  # atno 8009 bound_to 7997
  154.5645  140.0681  156.8855 H   0  0  0  0  0  0  0  0  0  0  0  0  # atno 8010 bound_to 7997
  139.5517  144.2093  152.1088 H   0  0  0  0  0  0  0  0  0  0  0  0  # atno 10167 bound_to 10162
  157.6403  131.0964  150.6867 H   0  0  0  0  0  0  0  0  0  0  0  0  # atno 10718 bound_to 10713
  153.6287  135.6990  153.5283 H   0  0  0  0  0  0  0  0  0  0  0  0  # atno 10763 bound_to 10752
  153.2877  135.4166  155.1137 H   0  0  0  0  0  0  0  0  0  0  0  0  # atno 10764 bound_to 10752
  154.8527  135.3617  154.5829 H   0  0  0  0  0  0  0  0  0  0  0  0  # atno 10765 bound_to 10752
  141.0857  133.9143  157.2191 H   0  0  0  0  0  0  0  0  0  0  0  0  # atno 11005 bound_to 11000
  145.3510  139.1706  143.4434 LP  0  0  0  0  0  0  0  0  0  0  0  0  # atno 17320 bound_to 7965
  146.3141  140.3562  142.8660 LP  0  0  0  0  0  0  0  0  0  0  0  0  # atno 17321 bound_to 7965
  140.1590  144.5044  150.6643 LP  0  0  0  0  0  0  0  0  0  0  0  0  # atno 17342 bound_to 10162
  140.6781  143.2314  151.5456 LP  0  0  0  0  0  0  0  0  0  0  0  0  # atno 17343 bound_to 10162
  156.7191  130.4675  149.5527 LP  0  0  0  0  0  0  0  0  0  0  0  0  # atno 17370 bound_to 10713
  156.1677  130.6416  151.0799 LP  0  0  0  0  0  0  0  0  0  0  0  0  # atno 17371 bound_to 10713
  139.9675  135.0138  156.9425 LP  0  0  0  0  0  0  0  0  0  0  0  0  # atno 17394 bound_to 11000
  140.5369  134.0758  155.7331 LP  0  0  0  0  0  0  0  0  0  0  0  0  # atno 17395 bound_to 11000

$$$$
