AV-unprocessed.smi:2557|AV-procd|sdf|10030|dock6
  -GOLD-   2272014 73D 1   1.00000     0.00000
 Structure written by MMmdl.
 38 40  0  0  0  0  0  0  0  0  2 V2000
  151.5193  135.0692  156.1839 O   0  5  0  0  0  0  0  0  0  0  0  0
  150.5311  135.4825  155.5323 C   0  0  0  0  0  0  0  0  0  0  0  0
  149.5305  134.8219  154.8138 C   0  0  0  0  0  0  0  0  0  0  0  0
  149.4837  133.3382  154.7382 C   0  0  0  0  0  0  0  0  0  0  0  0
  150.3293  132.6246  155.2766 O   0  0  0  0  0  0  0  0  0  0  0  0
  148.4329  132.7400  154.0256 N   0  0  0  0  0  0  0  0  0  0  0  0
  147.5370  133.4811  153.4466 C   0  0  0  0  0  0  0  0  0  0  0  0
  146.3793  132.8699  152.6529 C   0  0  0  0  0  0  0  0  0  0  0  0
  146.4707  131.3317  152.5045 C   0  0  0  0  0  0  0  0  0  0  0  0
  145.2645  130.7653  151.7383 C   0  0  0  0  0  0  0  0  0  0  0  0
  145.1210  131.4295  150.3607 C   0  0  0  0  0  0  0  0  0  0  0  0
  145.0245  132.9570  150.4920 C   0  0  0  0  0  0  0  0  0  0  0  0
  146.2241  133.5312  151.2644 C   0  0  0  0  0  0  0  0  0  0  0  0
  147.5235  134.8640  153.4561 N   0  0  0  0  0  0  0  0  0  0  0  0
  148.5263  135.5278  154.1526 N   0  0  0  0  0  0  0  0  0  0  0  0
  150.5420  136.9584  155.5393 C   0  0  0  0  0  0  0  0  0  0  0  0
  150.4452  137.6808  156.7490 C   0  0  0  0  0  0  0  0  0  0  0  0
  150.4533  139.0885  156.7007 C   0  0  0  0  0  0  0  0  0  0  0  0
  150.5467  139.7916  155.5518 N   0  0  0  0  0  0  0  0  0  0  0  0
  150.6310  139.0984  154.3961 C   0  0  0  0  0  0  0  0  0  0  0  0
  150.6317  137.6911  154.3353 C   0  0  0  0  0  0  0  0  0  0  0  0
  145.4691  133.0776  153.2183 H   0  0  0  0  0  0  0  0  0  0  0  0
  147.3856  131.0573  151.9767 H   0  0  0  0  0  0  0  0  0  0  0  0
  146.5260  130.8608  153.4870 H   0  0  0  0  0  0  0  0  0  0  0  0
  145.3721  129.6867  151.6212 H   0  0  0  0  0  0  0  0  0  0  0  0
  144.3545  130.9246  152.3183 H   0  0  0  0  0  0  0  0  0  0  0  0
  145.9774  131.1689  149.7377 H   0  0  0  0  0  0  0  0  0  0  0  0
  144.2382  131.0427  149.8512 H   0  0  0  0  0  0  0  0  0  0  0  0
  144.9683  133.4116  149.5025 H   0  0  0  0  0  0  0  0  0  0  0  0
  144.0993  133.2212  151.0057 H   0  0  0  0  0  0  0  0  0  0  0  0
  146.0975  134.6099  151.3637 H   0  0  0  0  0  0  0  0  0  0  0  0
  147.1347  133.3813  150.6820 H   0  0  0  0  0  0  0  0  0  0  0  0
  146.8243  135.4302  152.9979 H   0  0  0  0  0  0  0  0  0  0  0  0
  148.5049  136.5373  154.1774 H   0  0  0  0  0  0  0  0  0  0  0  0
  150.3659  137.1631  157.6938 H   0  0  0  0  0  0  0  0  0  0  0  0
  150.3830  139.6659  157.6105 H   0  0  0  0  0  0  0  0  0  0  0  0
  150.7012  139.6831  153.4910 H   0  0  0  0  0  0  0  0  0  0  0  0
  150.7011  137.1822  153.3853 H   0  0  0  0  0  0  0  0  0  0  0  0
  1  2  1  0  0  0  0
  2  3  2  0  0  0  0
  2 16  1  0  0  0  0
  3 15  1  0  0  0  0
  3  4  1  0  0  0  0
  4  5  2  0  0  0  0
  4  6  1  0  0  0  0
  6  7  2  0  0  0  0
  7  8  1  0  0  0  0
  7 14  1  0  0  0  0
  8 13  1  0  0  0  0
  8  9  1  0  0  0  0
  8 22  1  0  0  0  0
  9 10  1  0  0  0  0
  9 23  1  0  0  0  0
  9 24  1  0  0  0  0
 10 11  1  0  0  0  0
 10 25  1  0  0  0  0
 10 26  1  0  0  0  0
 11 12  1  0  0  0  0
 11 27  1  0  0  0  0
 11 28  1  0  0  0  0
 12 13  1  0  0  0  0
 12 29  1  0  0  0  0
 12 30  1  0  0  0  0
 13 31  1  0  0  0  0
 13 32  1  0  0  0  0
 14 15  1  0  0  0  0
 14 33  1  0  0  0  0
 15 34  1  0  0  0  0
 16 21  1  0  0  0  0
 16 17  2  0  0  0  0
 17 18  1  0  0  0  0
 17 35  1  0  0  0  0
 18 19  2  0  0  0  0
 18 36  1  0  0  0  0
 19 20  1  0  0  0  0
 20 21  2  0  0  0  0
 20 37  1  0  0  0  0
 21 38  1  0  0  0  0
M  CHG  1   1  -1
M  END
> <s_m_source_file>
AV-unprocessed.smi

> <i_m_source_file_index>
2557

> <i_lp_mmshare_version>
43012

> <i_f3d_flags>
0

> <s_epik_input>
W2NIXTFbY0hdbltjSF1bY0hdYzFDKD1PKUMyPUMoW09IXSlOPUMoW05IXVtOSF0yKVtDSF0zW0NIMl1bQ0gyXVtDSDJdW0NIMl1bQ0gyXTM=

> <s_epik_cmdline>
J2VwaWtfcHl0aG9uJywgJy1waCcsICc3LjAnLCAnLXRuJywgJzgnLCAnLW1hJywgJzIwMCcsICctbWV0YWxfYmluZGluZycsICctaW1hZScsICc8aW5maWxlLm1hZT4nLCAnLW9tYWUnLCAnPG91dGZpbGUubWFlPic=

> <r_epik_Ionization_Penalty>
0.904364

> <r_epik_Ionization_Penalty_Charging>
0.00179702

> <r_epik_Ionization_Penalty_Neutral>
0.902567

> <r_epik_State_Penalty>
2.26092

> <r_epik_Charging_Adjusted_Penalty>
2.26271

> <i_epik_Tot_Q>
-1

> <i_epik_Tot_abs_Q>
1

> <r_epik_Metal_State_Penalty>
1.86017

> <b_epik_Metal_Only>
0

> <s_epik_Chemistry_Notes>
This compound has an imine and may undergo hydrolysis.

> <s_lp_Force_Field>
OPLS_2005

> <r_lp_Energy>
33.3792

> <b_lp_Chiralities_Consistent>
1

> <s_lp_Variant>
AV-unprocessed.smi:2557-4

> <Gold.Version>
5.8.1

> <Gold.Id.Protein>
6NUR|6NUR_protein|mol2

> <Gold.PLP.Fitness>
40.1842

> <Gold.PLP.PLP>
-31.5879

> <Gold.PLP.part.hbond>
-2.4491

> <Gold.PLP.part.metal>
0.0000

> <Gold.PLP.part.buried>
-2.5873

> <Gold.PLP.part.nonpolar>
-25.3386

> <Gold.PLP.part.repulsive>
0.1537

> <Gold.PLP.ligand.clash>
0.0000

> <Gold.PLP.ligand.torsion>
1.2813

> <Gold.PLP.Chemscore.Hbond>
2.0000

> <Gold.PLP.Chemscore.CHOScore>
1.0000

> <Gold.PLP.Chemscore.Metal>
0.0000

> <Gold.Chemscore.Hbonds>
donor molecule, donor type, donor heavy atom, donor atom, acceptor molecule, acceptor atom, score
      P1  H 10752 10763       L1     1  2.00
      L1  C    20    37       P1  7957  0.86

> <Gold.PLP.Chemscore.Internal.Correction>
2.1590

> <Gold.Rescore>
     Score         DG    S(hbond)    S(metal)    S(lipo)     H(rot)  DE(clash)    DE(int)     intcor
     13.95     -15.25       0.91        0.00      79.37       1.00       0.00       1.30       ----

> <Gold.Chemscore.Fitness>
13.9527

> <Gold.Chemscore.DG>
-15.2536

> <Gold.Chemscore.ZeroCoef>
-5.4800

> <Gold.Chemscore.Hbond>
0.9122

> <Gold.Chemscore.Metal>
0.0000

> <Gold.Chemscore.Lipo>
79.3734

> <Gold.Chemscore.Internal_Hbond>
0.0000

> <Gold.Chemscore.DEClash>
0.0009

> <Gold.Chemscore.DEInternal>
1.3000

> <Gold.Chemscore.Rot>
1.0000

> <Gold.Chemscore.Internal.Correction>
   9.000000E+99

> <Gold.Chemscore.Hbonds>
donor molecule, donor type, donor heavy atom, donor atom, acceptor molecule, acceptor atom, score
      P1  H 10752 10763       L1     1  0.36

> <Gold.Chemscore.Hbond.Weighted>
-3.0469

> <Gold.Chemscore.Metal.Weighted>
-0.0000

> <Gold.Chemscore.Lipo.Weighted>
-9.2867

> <Gold.Chemscore.Internal_Hbond.Weighted>
0.0000

> <Gold.Chemscore.DEClash.Weighted>
0.0009

> <Gold.Chemscore.DEInternal.Weighted>
1.3000

> <Gold.Chemscore.Rot.Weighted>
2.5600

> <Gold.Chemscore.Internal.Correction.Weighted>
   9.000000E+99

> <Gold.Protein.RotatedTorsions>
[ 6907 6896 6895 6894 ] final   48.60 input  -60.11 | X-H torsion
[ 7974 7965 7964 7962 ] final   30.78 input  175.53 | X-H torsion
[ 8008 7997 7996 7995 ] final  -90.48 input   59.86 | X-H torsion
[ 10167 10162 10161 10158 ] final  133.12 input  -65.29 | X-H torsion
[ 10718 10713 10712 10709 ] final  -65.76 input   66.30 | X-H torsion
[ 10763 10752 10751 10750 ] final   83.17 input  -60.55 | X-H torsion
[ 11005 11000 10999 10996 ] final   39.66 input  -57.11 | X-H torsion

> <Gold.Protein.ActiveResidues>
 VAL166  LYS551  ARG553  GLY616  TRP617  ASP618  TYR619  PRO620  LYS621  CYS622 
 ASP623  PHE694  ASN695  SER759  ASP760  ASP761  ALA762  ILE779  LEU786  VAL792 
 PHE793  MET794  SER795  GLU796  ALA797  LYS798  CYS799  TRP800  GLU811  SER814 

> <Gold.Protein.RotatedAtoms>
  152.2814  134.7825  160.0395 H   0  0  0  0  0  0  0  0  0  0  0  0  # atno 6907 bound_to 6896
  151.8403  133.3417  159.3649 H   0  0  0  0  0  0  0  0  0  0  0  0  # atno 6908 bound_to 6896
  150.7191  134.5326  159.5752 H   0  0  0  0  0  0  0  0  0  0  0  0  # atno 6909 bound_to 6896
  146.1591  139.6743  142.9046 H   0  0  0  0  0  0  0  0  0  0  0  0  # atno 7974 bound_to 7965
  154.6990  140.0530  157.0440 H   0  0  0  0  0  0  0  0  0  0  0  0  # atno 8008 bound_to 7997
  155.0710  140.3199  155.4611 H   0  0  0  0  0  0  0  0  0  0  0  0  # atno 8009 bound_to 7997
  156.2754  140.2082  156.5838 H   0  0  0  0  0  0  0  0  0  0  0  0  # atno 8010 bound_to 7997
  139.5310  144.6630  151.4950 H   0  0  0  0  0  0  0  0  0  0  0  0  # atno 10167 bound_to 10162
  156.0651  130.4252  150.1610 H   0  0  0  0  0  0  0  0  0  0  0  0  # atno 10718 bound_to 10713
  153.1267  135.4701  154.9284 H   0  0  0  0  0  0  0  0  0  0  0  0  # atno 10763 bound_to 10752
  154.7627  135.3136  154.8349 H   0  0  0  0  0  0  0  0  0  0  0  0  # atno 10764 bound_to 10752
  153.8901  135.6885  153.4815 H   0  0  0  0  0  0  0  0  0  0  0  0  # atno 10765 bound_to 10752
  140.2006  134.3874  155.8098 H   0  0  0  0  0  0  0  0  0  0  0  0  # atno 11005 bound_to 11000
  145.4635  141.0434  143.2738 LP  0  0  0  0  0  0  0  0  0  0  0  0  # atno 17320 bound_to 7965
  144.8002  139.6155  143.7075 LP  0  0  0  0  0  0  0  0  0  0  0  0  # atno 17321 bound_to 7965
  140.6488  143.8739  150.6765 LP  0  0  0  0  0  0  0  0  0  0  0  0  # atno 17342 bound_to 10162
  140.2097  143.3893  152.1728 LP  0  0  0  0  0  0  0  0  0  0  0  0  # atno 17343 bound_to 10162
  156.9671  130.9823  151.3467 LP  0  0  0  0  0  0  0  0  0  0  0  0  # atno 17370 bound_to 10713
  157.5687  130.8295  149.8362 LP  0  0  0  0  0  0  0  0  0  0  0  0  # atno 17371 bound_to 10713
  141.2227  133.7092  156.8252 LP  0  0  0  0  0  0  0  0  0  0  0  0  # atno 17394 bound_to 11000
  140.2058  134.8864  157.3220 LP  0  0  0  0  0  0  0  0  0  0  0  0  # atno 17395 bound_to 11000

$$$$
