AV-unprocessed.smi:2470|AV-procd|sdf|9735|dock3
  -GOLD-   2272013373D 1   1.00000     0.00000
 Structure written by MMmdl.
 33 34  0  0  0  0  0  0  0  0  1 V2000
  146.9738  138.5967  152.4029 C   0  0  0  0  0  0  0  0  0  0  0  0
  147.1756  139.8138  153.1123 O   0  0  0  0  0  0  0  0  0  0  0  0
  148.3624  139.9803  153.7955 C   0  0  0  0  0  0  0  0  0  0  0  0
  148.5686  141.1565  154.5453 C   0  0  0  0  0  0  0  0  0  0  0  0
  149.7958  141.2858  155.2335 C   0  0  0  0  0  0  0  0  0  0  0  0
  149.9630  142.4842  155.9765 N   0  0  0  0  0  0  0  0  0  0  0  0
  150.7474  142.6926  157.0483 C   0  0  0  0  0  0  0  0  0  0  0  0
  151.4529  141.8399  157.5882 O   0  0  0  0  0  0  0  0  0  0  0  0
  150.6636  143.9642  157.4684 N   0  0  0  0  0  0  0  0  0  0  0  0
  151.3784  144.5399  158.6045 C   0  0  2  0  0  0  0  0  0  0  0  0
  152.8597  144.7049  158.2365 C   0  0  0  0  0  0  0  0  0  0  0  0
  151.2186  143.7182  159.8695 C   0  0  0  0  0  0  0  0  0  0  0  0
  151.8108  144.1815  161.1786 C   0  0  0  0  0  0  0  0  0  0  0  0
  152.3901  142.9778  160.4693 C   0  0  0  0  0  0  0  0  0  0  0  0
  150.7228  140.2992  155.1544 N   0  0  0  0  0  0  0  0  0  0  0  0
  150.4324  139.2258  154.4169 C   0  0  0  0  0  0  0  0  0  0  0  0
  149.3070  139.0107  153.7345 N   0  0  0  0  0  0  0  0  0  0  0  0
  145.9903  138.6116  151.9335 H   0  0  0  0  0  0  0  0  0  0  0  0
  147.0081  137.7347  153.0707 H   0  0  0  0  0  0  0  0  0  0  0  0
  147.7159  138.4684  151.6136 H   0  0  0  0  0  0  0  0  0  0  0  0
  147.8106  141.9250  154.5884 H   0  0  0  0  0  0  0  0  0  0  0  0
  149.4266  143.2749  155.6519 H   0  0  0  0  0  0  0  0  0  0  0  0
  150.0553  144.5884  156.9594 H   0  0  0  0  0  0  0  0  0  0  0  0
  150.9836  145.5347  158.8188 H   0  0  0  0  0  0  0  0  0  0  0  0
  153.4166  145.1692  159.0509 H   0  0  0  0  0  0  0  0  0  0  0  0
  152.9780  145.3379  157.3563 H   0  0  0  0  0  0  0  0  0  0  0  0
  153.3256  143.7425  158.0212 H   0  0  0  0  0  0  0  0  0  0  0  0
  150.2583  143.2099  159.9396 H   0  0  0  0  0  0  0  0  0  0  0  0
  152.3963  145.0990  161.1727 H   0  0  0  0  0  0  0  0  0  0  0  0
  151.2316  144.0033  162.0823 H   0  0  0  0  0  0  0  0  0  0  0  0
  152.1973  141.9978  160.9005 H   0  0  0  0  0  0  0  0  0  0  0  0
  153.3628  143.0961  159.9957 H   0  0  0  0  0  0  0  0  0  0  0  0
  151.1853  138.4533  154.3675 H   0  0  0  0  0  0  0  0  0  0  0  0
  1  2  1  0  0  0  0
  1 18  1  0  0  0  0
  1 19  1  0  0  0  0
  1 20  1  0  0  0  0
  2  3  1  0  0  0  0
  3 17  1  0  0  0  0
  3  4  2  0  0  0  0
  4  5  1  0  0  0  0
  4 21  1  0  0  0  0
  5  6  1  0  0  0  0
  5 15  2  0  0  0  0
  6  7  1  0  0  0  0
  6 22  1  0  0  0  0
  7  8  2  0  0  0  0
  7  9  1  0  0  0  0
  9 10  1  0  0  0  0
  9 23  1  0  0  0  0
 10 11  1  0  0  0  0
 10 12  1  0  0  0  0
 10 24  1  0  0  0  0
 11 25  1  0  0  0  0
 11 26  1  0  0  0  0
 11 27  1  0  0  0  0
 12 14  1  0  0  0  0
 12 13  1  0  0  0  0
 12 28  1  0  0  0  0
 13 14  1  0  0  0  0
 13 29  1  0  0  0  0
 13 30  1  0  0  0  0
 14 31  1  0  0  0  0
 14 32  1  0  0  0  0
 15 16  1  0  0  0  0
 16 17  2  0  0  0  0
 16 33  1  0  0  0  0
M  END
> <s_m_source_file>
AV-unprocessed.smi

> <i_m_source_file_index>
2470

> <i_lp_mmshare_version>
43012

> <i_f3d_flags>
0

> <s_epik_input>
W0NIM11PYzFbY0hdYyhuW2NIXW4xKVtOSF1DKD1PKVtOSF1bQ0BIXShbQ0gzXSlbQ0hdMltDSDJdW0NIMl0y

> <s_epik_cmdline>
J2VwaWtfcHl0aG9uJywgJy1waCcsICc3LjAnLCAnLXRuJywgJzgnLCAnLW1hJywgJzIwMCcsICctbWV0YWxfYmluZGluZycsICctaW1hZScsICc8aW5maWxlLm1hZT4nLCAnLW9tYWUnLCAnPG91dGZpbGUubWFlPic=

> <r_lp_tautomer_probability>
1

> <r_epik_Ionization_Penalty>
2.81207e-05

> <r_epik_Ionization_Penalty_Charging>
0

> <r_epik_Ionization_Penalty_Neutral>
2.81207e-05

> <r_epik_State_Penalty>
-0

> <r_epik_Charging_Adjusted_Penalty>
0

> <i_epik_Tot_Q>
0

> <i_epik_Tot_abs_Q>
0

> <r_epik_Metal_State_Penalty>
-0

> <b_epik_Metal_Only>
0

> <s_lp_Force_Field>
OPLS_2005

> <r_lp_Energy>
11.3699

> <b_lp_Chiralities_Consistent>
1

> <s_lp_Variant>
AV-unprocessed.smi:2470-1

> <Gold.Version>
5.8.1

> <Gold.Id.Protein>
6NUR|6NUR_protein|mol2

> <Gold.PLP.Fitness>
43.8498

> <Gold.PLP.PLP>
-37.5461

> <Gold.PLP.part.hbond>
-3.0000

> <Gold.PLP.part.metal>
0.0000

> <Gold.PLP.part.buried>
-4.7157

> <Gold.PLP.part.nonpolar>
-31.8081

> <Gold.PLP.part.repulsive>
2.1242

> <Gold.PLP.ligand.clash>
0.0000

> <Gold.PLP.ligand.torsion>
0.9601

> <Gold.PLP.Chemscore.Hbond>
2.3810

> <Gold.PLP.Chemscore.CHOScore>
0.0000

> <Gold.PLP.Chemscore.Metal>
0.0000

> <Gold.Chemscore.Hbonds>
donor molecule, donor type, donor heavy atom, donor atom, acceptor molecule, acceptor atom, score
      L1  H     6    22       P1  8028  1.00
      L1  H     9    23       P1  8028  0.94
      P1  H  7989  7998       L1    15  0.14

> <Gold.PLP.Chemscore.Internal.Correction>
1.0809

> <Gold.Rescore>
     Score         DG    S(hbond)    S(metal)    S(lipo)     H(rot)  DE(clash)    DE(int)     intcor
     14.18     -16.45       1.85        0.00      76.31       1.61       0.31       1.96       ----

> <Gold.Chemscore.Fitness>
14.1833

> <Gold.Chemscore.DG>
-16.4542

> <Gold.Chemscore.ZeroCoef>
-5.4800

> <Gold.Chemscore.Hbond>
1.8472

> <Gold.Chemscore.Metal>
0.0000

> <Gold.Chemscore.Lipo>
76.3112

> <Gold.Chemscore.Internal_Hbond>
0.0000

> <Gold.Chemscore.DEClash>
0.3074

> <Gold.Chemscore.DEInternal>
1.9634

> <Gold.Chemscore.Rot>
1.6109

> <Gold.Chemscore.Internal.Correction>
   9.000000E+99

> <Gold.Chemscore.Hbonds>
donor molecule, donor type, donor heavy atom, donor atom, acceptor molecule, acceptor atom, score
      L1  H     6    22       P1  8028  0.93
      L1  H     9    23       P1  8028  0.50

> <Gold.Chemscore.Hbond.Weighted>
-6.1697

> <Gold.Chemscore.Metal.Weighted>
-0.0000

> <Gold.Chemscore.Lipo.Weighted>
-8.9284

> <Gold.Chemscore.Internal_Hbond.Weighted>
0.0000

> <Gold.Chemscore.DEClash.Weighted>
0.3074

> <Gold.Chemscore.DEInternal.Weighted>
1.9634

> <Gold.Chemscore.Rot.Weighted>
4.1240

> <Gold.Chemscore.Internal.Correction.Weighted>
   9.000000E+99

> <Gold.Protein.RotatedTorsions>
[ 6907 6896 6895 6894 ] final   -5.24 input  -60.11 | X-H torsion
[ 7974 7965 7964 7962 ] final   92.28 input  175.53 | X-H torsion
[ 8008 7997 7996 7995 ] final -177.09 input   59.86 | X-H torsion
[ 10167 10162 10161 10158 ] final  -41.92 input  -65.29 | X-H torsion
[ 10718 10713 10712 10709 ] final   96.59 input   66.30 | X-H torsion
[ 10763 10752 10751 10750 ] final  -57.40 input  -60.55 | X-H torsion
[ 11005 11000 10999 10996 ] final   58.10 input  -57.11 | X-H torsion

> <Gold.Protein.ActiveResidues>
 VAL166  LYS551  ARG553  GLY616  TRP617  ASP618  TYR619  PRO620  LYS621  CYS622 
 ASP623  PHE694  ASN695  SER759  ASP760  ASP761  ALA762  ILE779  LEU786  VAL792 
 PHE793  MET794  SER795  GLU796  ALA797  LYS798  CYS799  TRP800  GLU811  SER814 

> <Gold.Protein.RotatedAtoms>
  151.4847  135.1054  159.9787 H   0  0  0  0  0  0  0  0  0  0  0  0  # atno 6907 bound_to 6896
  152.4765  133.8147  159.7032 H   0  0  0  0  0  0  0  0  0  0  0  0  # atno 6908 bound_to 6896
  150.8806  133.7315  159.2959 H   0  0  0  0  0  0  0  0  0  0  0  0  # atno 6909 bound_to 6896
  145.4944  139.2276  143.2812 H   0  0  0  0  0  0  0  0  0  0  0  0  # atno 7974 bound_to 7965
  156.0027  140.1224  157.0531 H   0  0  0  0  0  0  0  0  0  0  0  0  # atno 8008 bound_to 7997
  154.4248  140.1103  156.5789 H   0  0  0  0  0  0  0  0  0  0  0  0  # atno 8009 bound_to 7997
  155.6190  140.3472  155.4648 H   0  0  0  0  0  0  0  0  0  0  0  0  # atno 8010 bound_to 7997
  140.6986  143.3067  151.3135 H   0  0  0  0  0  0  0  0  0  0  0  0  # atno 10167 bound_to 10162
  157.6925  131.0583  150.4514 H   0  0  0  0  0  0  0  0  0  0  0  0  # atno 10718 bound_to 10713
  154.2219  135.6376  153.5147 H   0  0  0  0  0  0  0  0  0  0  0  0  # atno 10763 bound_to 10752
  152.9967  135.5498  154.6105 H   0  0  0  0  0  0  0  0  0  0  0  0  # atno 10764 bound_to 10752
  154.5567  135.2906  155.0932 H   0  0  0  0  0  0  0  0  0  0  0  0  # atno 10765 bound_to 10752
  140.0403  134.5884  155.9391 H   0  0  0  0  0  0  0  0  0  0  0  0  # atno 11005 bound_to 11000
  146.2265  140.5740  142.8994 LP  0  0  0  0  0  0  0  0  0  0  0  0  # atno 17320 bound_to 7965
  144.7816  140.5851  143.6602 LP  0  0  0  0  0  0  0  0  0  0  0  0  # atno 17321 bound_to 7965
  139.6475  144.0424  152.2601 LP  0  0  0  0  0  0  0  0  0  0  0  0  # atno 17342 bound_to 10162
  139.9949  144.6335  150.7781 LP  0  0  0  0  0  0  0  0  0  0  0  0  # atno 17343 bound_to 10162
  156.4865  130.4085  149.6431 LP  0  0  0  0  0  0  0  0  0  0  0  0  # atno 17370 bound_to 10713
  156.3457  130.7405  151.2357 LP  0  0  0  0  0  0  0  0  0  0  0  0  # atno 17371 bound_to 10713
  141.1879  133.6561  156.5302 LP  0  0  0  0  0  0  0  0  0  0  0  0  # atno 17394 bound_to 11000
  140.4081  134.7297  157.4819 LP  0  0  0  0  0  0  0  0  0  0  0  0  # atno 17395 bound_to 11000

$$$$
