AV-unprocessed.smi:1769|AV-procd|sdf|7152|dock5
  -GOLD-   22720 8393D 1   1.00000     0.00000
 Structure written by MMmdl.
 41 42  0  0  0  0  0  0  0  0  1 V2000
  155.6598  140.5955  160.3341 C   0  0  0  0  0  0  0  0  0  0  0  0
  154.3533  140.2725  159.6053 C   0  0  0  0  0  0  0  0  0  0  0  0
  154.3472  139.3220  158.8227 O   0  0  0  0  0  0  0  0  0  0  0  0
  153.2586  141.0360  159.8386 N   0  0  0  0  0  0  0  0  0  0  0  0
  153.2217  142.2327  160.6889 C   0  0  0  0  0  0  0  0  0  0  0  0
  153.0756  143.4732  159.7890 C   0  0  0  0  0  0  0  0  0  0  0  0
  151.8309  143.3577  158.8874 C   0  0  0  0  0  0  0  0  0  0  0  0
  151.7949  142.0084  158.1311 C   0  0  2  0  0  0  0  0  0  0  0  0
  150.4884  141.8330  157.3474 C   0  0  0  0  0  0  0  0  0  0  0  0
  149.4072  141.8314  157.9367 O   0  0  0  0  0  0  0  0  0  0  0  0
  150.6072  141.6589  156.0211 N   0  0  0  0  0  0  0  0  0  0  0  0
  149.5086  141.3781  155.0998 C   0  0  0  0  0  0  0  0  0  0  0  0
  149.7796  140.1299  154.2371 C   0  0  0  0  0  0  0  0  0  0  0  0
  150.4319  138.9913  155.0021 C   0  0  0  0  0  0  0  0  0  0  0  0
  149.9182  138.5609  156.2432 C   0  0  0  0  0  0  0  0  0  0  0  0
  150.5384  137.4786  156.8958 C   0  0  0  0  0  0  0  0  0  0  0  0
  151.6529  136.8745  156.2805 C   0  0  0  0  0  0  0  0  0  0  0  0
  152.1578  137.2822  155.0963 N   0  0  0  0  0  0  0  0  0  0  0  0
  151.5546  138.3184  154.4752 C   0  0  0  0  0  0  0  0  0  0  0  0
  151.9911  140.8412  159.1245 C   0  0  0  0  0  0  0  0  0  0  0  0
  155.9859  141.6122  160.1124 H   0  0  0  0  0  0  0  0  0  0  0  0
  156.4535  139.9168  160.0201 H   0  0  0  0  0  0  0  0  0  0  0  0
  155.5373  140.4886  161.4121 H   0  0  0  0  0  0  0  0  0  0  0  0
  152.3699  142.1627  161.3667 H   0  0  0  0  0  0  0  0  0  0  0  0
  154.0945  142.3402  161.3314 H   0  0  0  0  0  0  0  0  0  0  0  0
  153.0110  144.3742  160.3995 H   0  0  0  0  0  0  0  0  0  0  0  0
  153.9674  143.5808  159.1703 H   0  0  0  0  0  0  0  0  0  0  0  0
  150.9405  143.4596  159.5100 H   0  0  0  0  0  0  0  0  0  0  0  0
  151.8078  144.1886  158.1811 H   0  0  0  0  0  0  0  0  0  0  0  0
  152.6254  141.9958  157.4223 H   0  0  0  0  0  0  0  0  0  0  0  0
  151.5364  141.6753  155.6262 H   0  0  0  0  0  0  0  0  0  0  0  0
  148.5695  141.2601  155.6432 H   0  0  0  0  0  0  0  0  0  0  0  0
  149.3755  142.2461  154.4539 H   0  0  0  0  0  0  0  0  0  0  0  0
  148.8431  139.7718  153.8082 H   0  0  0  0  0  0  0  0  0  0  0  0
  150.4148  140.3990  153.3923 H   0  0  0  0  0  0  0  0  0  0  0  0
  149.0550  139.0400  156.6815 H   0  0  0  0  0  0  0  0  0  0  0  0
  150.1656  137.1169  157.8428 H   0  0  0  0  0  0  0  0  0  0  0  0
  152.1521  136.0413  156.7525 H   0  0  0  0  0  0  0  0  0  0  0  0
  151.9750  138.6142  153.5253 H   0  0  0  0  0  0  0  0  0  0  0  0
  151.9527  139.8855  158.5996 H   0  0  0  0  0  0  0  0  0  0  0  0
  151.1746  140.8101  159.8481 H   0  0  0  0  0  0  0  0  0  0  0  0
  1  2  1  0  0  0  0
  1 21  1  0  0  0  0
  1 22  1  0  0  0  0
  1 23  1  0  0  0  0
  2  3  2  0  0  0  0
  2  4  1  0  0  0  0
  4 20  1  0  0  0  0
  4  5  1  0  0  0  0
  5  6  1  0  0  0  0
  5 24  1  0  0  0  0
  5 25  1  0  0  0  0
  6  7  1  0  0  0  0
  6 26  1  0  0  0  0
  6 27  1  0  0  0  0
  7  8  1  0  0  0  0
  7 28  1  0  0  0  0
  7 29  1  0  0  0  0
  8  9  1  0  0  0  0
  8 20  1  0  0  0  0
  8 30  1  0  0  0  0
  9 10  2  0  0  0  0
  9 11  1  0  0  0  0
 11 12  1  0  0  0  0
 11 31  1  0  0  0  0
 12 13  1  0  0  0  0
 12 32  1  0  0  0  0
 12 33  1  0  0  0  0
 13 14  1  0  0  0  0
 13 34  1  0  0  0  0
 13 35  1  0  0  0  0
 14 19  1  0  0  0  0
 14 15  2  0  0  0  0
 15 16  1  0  0  0  0
 15 36  1  0  0  0  0
 16 17  2  0  0  0  0
 16 37  1  0  0  0  0
 17 18  1  0  0  0  0
 17 38  1  0  0  0  0
 18 19  2  0  0  0  0
 19 39  1  0  0  0  0
 20 40  1  0  0  0  0
 20 41  1  0  0  0  0
M  END
> <s_m_source_file>
AV-unprocessed.smi

> <i_m_source_file_index>
1769

> <i_lp_mmshare_version>
43012

> <i_f3d_flags>
0

> <s_epik_input>
W0NIM11DKD1PKU4xW0NIMl1bQ0gyXVtDSDJdW0NASF0oW0NIMl0xKUMoPU8pW05IXVtDSDJdW0NIMl1jMltjSF1bY0hdW2NIXW5bY0hdMg==

> <s_epik_cmdline>
J2VwaWtfcHl0aG9uJywgJy1waCcsICc3LjAnLCAnLXRuJywgJzgnLCAnLW1hJywgJzIwMCcsICctbWV0YWxfYmluZGluZycsICctaW1hZScsICc8aW5maWxlLm1hZT4nLCAnLW9tYWUnLCAnPG91dGZpbGUubWFlPic=

> <r_epik_Ionization_Penalty>
0.0134099

> <r_epik_Ionization_Penalty_Charging>
0

> <r_epik_Ionization_Penalty_Neutral>
0.0134099

> <r_epik_State_Penalty>
0.010434

> <r_epik_Charging_Adjusted_Penalty>
0.010434

> <i_epik_Tot_Q>
0

> <i_epik_Tot_abs_Q>
0

> <r_epik_Metal_State_Penalty>
0.0102025

> <b_epik_Metal_Only>
0

> <s_lp_Force_Field>
OPLS_2005

> <r_lp_Energy>
22.8084

> <b_lp_Chiralities_Consistent>
1

> <s_lp_Variant>
AV-unprocessed.smi:1769-2

> <Gold.Version>
5.8.1

> <Gold.Id.Protein>
6NUR|6NUR_protein|mol2

> <Gold.PLP.Fitness>
42.7174

> <Gold.PLP.PLP>
-37.3715

> <Gold.PLP.part.hbond>
-2.0000

> <Gold.PLP.part.metal>
0.0000

> <Gold.PLP.part.buried>
-4.0914

> <Gold.PLP.part.nonpolar>
-31.6873

> <Gold.PLP.part.repulsive>
0.2850

> <Gold.PLP.ligand.clash>
0.0000

> <Gold.PLP.ligand.torsion>
0.2589

> <Gold.PLP.Chemscore.Hbond>
1.9440

> <Gold.PLP.Chemscore.CHOScore>
0.0000

> <Gold.PLP.Chemscore.Metal>
0.0000

> <Gold.Chemscore.Hbonds>
donor molecule, donor type, donor heavy atom, donor atom, acceptor molecule, acceptor atom, score
      P1  H  7997  8008       L1     3  1.00
      P1  H 10752 10764       L1    18  0.73

> <Gold.PLP.Chemscore.Internal.Correction>
0.0318

> <Gold.Rescore>
     Score         DG    S(hbond)    S(metal)    S(lipo)     H(rot)  DE(clash)    DE(int)     intcor
     16.75     -17.56       1.37        0.00      97.43       1.52       0.47       0.34       ----

> <Gold.Chemscore.Fitness>
16.7506

> <Gold.Chemscore.DG>
-17.5596

> <Gold.Chemscore.ZeroCoef>
-5.4800

> <Gold.Chemscore.Hbond>
1.3692

> <Gold.Chemscore.Metal>
0.0000

> <Gold.Chemscore.Lipo>
97.4273

> <Gold.Chemscore.Internal_Hbond>
0.0000

> <Gold.Chemscore.DEClash>
0.4660

> <Gold.Chemscore.DEInternal>
0.3429

> <Gold.Chemscore.Rot>
1.5205

> <Gold.Chemscore.Internal.Correction>
   9.000000E+99

> <Gold.Chemscore.Hbonds>
donor molecule, donor type, donor heavy atom, donor atom, acceptor molecule, acceptor atom, score
      P1  H  7997  8008       L1     3  0.40
      P1  H 10752 10764       L1    18  0.15

> <Gold.Chemscore.Hbond.Weighted>
-4.5731

> <Gold.Chemscore.Metal.Weighted>
-0.0000

> <Gold.Chemscore.Lipo.Weighted>
-11.3990

> <Gold.Chemscore.Internal_Hbond.Weighted>
0.0000

> <Gold.Chemscore.DEClash.Weighted>
0.4660

> <Gold.Chemscore.DEInternal.Weighted>
0.3429

> <Gold.Chemscore.Rot.Weighted>
3.8926

> <Gold.Chemscore.Internal.Correction.Weighted>
   9.000000E+99

> <Gold.Protein.RotatedTorsions>
[ 6907 6896 6895 6894 ] final -160.92 input  -60.11 | X-H torsion
[ 7974 7965 7964 7962 ] final -133.63 input  175.53 | X-H torsion
[ 8008 7997 7996 7995 ] final -122.75 input   59.86 | X-H torsion
[ 10167 10162 10161 10158 ] final -110.24 input  -65.29 | X-H torsion
[ 10718 10713 10712 10709 ] final  177.20 input   66.30 | X-H torsion
[ 10763 10752 10751 10750 ] final  -61.66 input  -60.55 | X-H torsion
[ 11005 11000 10999 10996 ] final -162.45 input  -57.11 | X-H torsion

> <Gold.Protein.ActiveResidues>
 VAL166  LYS551  ARG553  GLY616  TRP617  ASP618  TYR619  PRO620  LYS621  CYS622 
 ASP623  PHE694  ASN695  SER759  ASP760  ASP761  ALA762  ILE779  LEU786  VAL792 
 PHE793  MET794  SER795  GLU796  ALA797  LYS798  CYS799  TRP800  GLU811  SER814 

> <Gold.Protein.RotatedAtoms>
  151.3566  133.3905  159.2685 H   0  0  0  0  0  0  0  0  0  0  0  0  # atno 6907 bound_to 6896
  150.9759  134.9124  159.7826 H   0  0  0  0  0  0  0  0  0  0  0  0  # atno 6908 bound_to 6896
  152.5200  134.3529  159.9309 H   0  0  0  0  0  0  0  0  0  0  0  0  # atno 6909 bound_to 6896
  144.9176  140.6974  143.4985 H   0  0  0  0  0  0  0  0  0  0  0  0  # atno 7974 bound_to 7965
  155.1693  140.0408  157.2859 H   0  0  0  0  0  0  0  0  0  0  0  0  # atno 8008 bound_to 7997
  154.6280  140.2517  155.7440 H   0  0  0  0  0  0  0  0  0  0  0  0  # atno 8009 bound_to 7997
  156.2470  140.2881  156.0619 H   0  0  0  0  0  0  0  0  0  0  0  0  # atno 8010 bound_to 7997
  140.1466  143.4234  152.1524 H   0  0  0  0  0  0  0  0  0  0  0  0  # atno 10167 bound_to 10162
  156.9089  130.9903  151.3024 H   0  0  0  0  0  0  0  0  0  0  0  0  # atno 10718 bound_to 10713
  154.2880  135.6259  153.5373 H   0  0  0  0  0  0  0  0  0  0  0  0  # atno 10763 bound_to 10752
  152.9856  135.5649  154.5422 H   0  0  0  0  0  0  0  0  0  0  0  0  # atno 10764 bound_to 10752
  154.5027  135.2873  155.1383 H   0  0  0  0  0  0  0  0  0  0  0  0  # atno 10765 bound_to 10752
  140.6092  134.4867  157.5213 H   0  0  0  0  0  0  0  0  0  0  0  0  # atno 11005 bound_to 11000
  145.3350  139.1748  143.4516 LP  0  0  0  0  0  0  0  0  0  0  0  0  # atno 17320 bound_to 7965
  146.3189  140.3384  142.8646 LP  0  0  0  0  0  0  0  0  0  0  0  0  # atno 17321 bound_to 7965
  139.5446  144.7287  151.4625 LP  0  0  0  0  0  0  0  0  0  0  0  0  # atno 17342 bound_to 10162
  140.6728  143.8256  150.7020 LP  0  0  0  0  0  0  0  0  0  0  0  0  # atno 17343 bound_to 10162
  157.5980  130.8491  149.8758 LP  0  0  0  0  0  0  0  0  0  0  0  0  # atno 17370 bound_to 10713
  156.0545  130.3711  150.1122 LP  0  0  0  0  0  0  0  0  0  0  0  0  # atno 17371 bound_to 10713
  139.9199  134.8169  156.1244 LP  0  0  0  0  0  0  0  0  0  0  0  0  # atno 17394 bound_to 11000
  141.0820  133.6750  156.2356 LP  0  0  0  0  0  0  0  0  0  0  0  0  # atno 17395 bound_to 11000

$$$$
