AV-unprocessed.smi:1805|AV-procd|sdf|7298|dock9
  -GOLD-   22720 8553D 1   1.00000     0.00000
 Structure written by MMmdl.
 29 30  0  0  0  0  0  0  0  0  1 V2000
  150.6326  140.8432  155.2687 O   0  0  0  0  0  0  0  0  0  0  0  0
  150.0769  141.7734  155.8532 C   0  0  0  0  0  0  0  0  0  0  0  0
  150.6603  142.5010  156.8163 N   0  0  0  0  0  0  0  0  0  0  0  0
  152.0175  142.3093  157.3177 C   0  0  0  0  0  0  0  0  0  0  0  0
  152.3586  143.3049  158.4394 C   0  0  1  0  0  0  0  0  0  0  0  0
  151.5859  144.6240  158.3954 C   0  0  0  0  0  0  0  0  0  0  0  0
  151.6500  145.0600  159.8409 C   0  0  0  0  0  0  0  0  0  0  0  0
  151.4923  143.7300  160.5718 C   0  0  0  0  0  0  0  0  0  0  0  0
  152.0464  142.7389  159.7096 O   0  0  0  0  0  0  0  0  0  0  0  0
  148.8209  142.1893  155.6225 N   0  0  0  0  0  0  0  0  0  0  0  0
  147.9020  141.6693  154.6761 C   0  0  0  0  0  0  0  0  0  0  0  0
  148.2512  140.8206  153.5908 C   0  0  0  0  0  0  0  0  0  0  0  0
  147.1867  140.4895  152.8737 N   0  0  0  0  0  0  0  0  0  0  0  0
  146.1611  141.1171  153.4924 N   0  0  0  0  0  0  0  0  0  0  0  0
  146.5492  141.8467  154.5944 C   0  0  0  0  0  0  0  0  0  0  0  0
  145.2124  141.0378  153.1551 H   0  0  0  0  0  0  0  0  0  0  0  0
  150.1239  143.2439  157.2398 H   0  0  0  0  0  0  0  0  0  0  0  0
  152.1721  141.2835  157.6565 H   0  0  0  0  0  0  0  0  0  0  0  0
  152.7014  142.4587  156.4820 H   0  0  0  0  0  0  0  0  0  0  0  0
  153.4290  143.5174  158.4349 H   0  0  0  0  0  0  0  0  0  0  0  0
  152.0199  145.3514  157.7087 H   0  0  0  0  0  0  0  0  0  0  0  0
  150.5483  144.4540  158.1043 H   0  0  0  0  0  0  0  0  0  0  0  0
  152.6263  145.4956  160.0577 H   0  0  0  0  0  0  0  0  0  0  0  0
  150.8826  145.7873  160.1065 H   0  0  0  0  0  0  0  0  0  0  0  0
  151.9827  143.7306  161.5455 H   0  0  0  0  0  0  0  0  0  0  0  0
  150.4365  143.5026  160.7243 H   0  0  0  0  0  0  0  0  0  0  0  0
  148.4864  142.9599  156.1822 H   0  0  0  0  0  0  0  0  0  0  0  0
  149.2214  140.4417  153.3047 H   0  0  0  0  0  0  0  0  0  0  0  0
  145.8461  142.4033  155.1961 H   0  0  0  0  0  0  0  0  0  0  0  0
  1  2  2  0  0  0  0
  2  3  1  0  0  0  0
  2 10  1  0  0  0  0
  3  4  1  0  0  0  0
  3 17  1  0  0  0  0
  4  5  1  0  0  0  0
  4 18  1  0  0  0  0
  4 19  1  0  0  0  0
  5  9  1  0  0  0  0
  5  6  1  0  0  0  0
  5 20  1  0  0  0  0
  6  7  1  0  0  0  0
  6 21  1  0  0  0  0
  6 22  1  0  0  0  0
  7  8  1  0  0  0  0
  7 23  1  0  0  0  0
  7 24  1  0  0  0  0
  8  9  1  0  0  0  0
  8 25  1  0  0  0  0
  8 26  1  0  0  0  0
 10 11  1  0  0  0  0
 10 27  1  0  0  0  0
 11 15  2  0  0  0  0
 11 12  1  0  0  0  0
 12 13  2  0  0  0  0
 12 28  1  0  0  0  0
 13 14  1  0  0  0  0
 14 16  1  0  0  0  0
 14 15  1  0  0  0  0
 15 29  1  0  0  0  0
M  END
> <s_m_source_file>
AV-unprocessed.smi

> <i_m_source_file_index>
1805

> <i_lp_mmshare_version>
43012

> <i_f3d_flags>
0

> <s_epik_input>
W2NIXTFbbkhdbltjSF1jMVtOSF1DKD1PKVtOSF1bQ0gyXVtDQEBIXTJbQ0gyXVtDSDJdW0NIMl1PMg==

> <s_epik_cmdline>
J2VwaWtfcHl0aG9uJywgJy1waCcsICc3LjAnLCAnLXRuJywgJzgnLCAnLW1hJywgJzIwMCcsICctbWV0YWxfYmluZGluZycsICctaW1hZScsICc8aW5maWxlLm1hZT4nLCAnLW9tYWUnLCAnPG91dGZpbGUubWFlPic=

> <r_lp_tautomer_probability>
1

> <r_epik_Ionization_Penalty>
4.81496e-05

> <r_epik_Ionization_Penalty_Charging>
0

> <r_epik_Ionization_Penalty_Neutral>
4.81496e-05

> <r_epik_State_Penalty>
-0

> <r_epik_Charging_Adjusted_Penalty>
0

> <i_epik_Tot_Q>
0

> <i_epik_Tot_abs_Q>
0

> <r_epik_Metal_State_Penalty>
-0

> <b_epik_Metal_Only>
0

> <s_lp_Force_Field>
OPLS_2005

> <r_lp_Energy>
19.2876

> <b_lp_Chiralities_Consistent>
1

> <s_lp_Variant>
AV-unprocessed.smi:1805-2

> <Gold.Version>
5.8.1

> <Gold.Id.Protein>
6NUR|6NUR_protein|mol2

> <Gold.PLP.Fitness>
37.0524

> <Gold.PLP.PLP>
-28.7476

> <Gold.PLP.part.hbond>
-3.7369

> <Gold.PLP.part.metal>
0.0000

> <Gold.PLP.part.buried>
-3.7461

> <Gold.PLP.part.nonpolar>
-20.7235

> <Gold.PLP.part.repulsive>
1.2321

> <Gold.PLP.ligand.clash>
0.0000

> <Gold.PLP.ligand.torsion>
0.4791

> <Gold.PLP.Chemscore.Hbond>
2.3838

> <Gold.PLP.Chemscore.CHOScore>
0.7036

> <Gold.PLP.Chemscore.Metal>
0.0000

> <Gold.Chemscore.Hbonds>
donor molecule, donor type, donor heavy atom, donor atom, acceptor molecule, acceptor atom, score
      L1  H    10    27       P1  8028  0.40
      L1  H    14    16       P1 10175  1.00
      P1  H  7989  7998       L1     1  0.80
      L1  C    12    28       P1  7957  0.77

> <Gold.PLP.Chemscore.Internal.Correction>
0.0008

> <Gold.Rescore>
     Score         DG    S(hbond)    S(metal)    S(lipo)     H(rot)  DE(clash)    DE(int)     intcor
     15.83     -19.57       2.52        0.00      77.75       1.33       1.89       1.85       ----

> <Gold.Chemscore.Fitness>
15.8338

> <Gold.Chemscore.DG>
-19.5726

> <Gold.Chemscore.ZeroCoef>
-5.4800

> <Gold.Chemscore.Hbond>
2.5156

> <Gold.Chemscore.Metal>
0.0000

> <Gold.Chemscore.Lipo>
77.7504

> <Gold.Chemscore.Internal_Hbond>
0.0000

> <Gold.Chemscore.DEClash>
1.8855

> <Gold.Chemscore.DEInternal>
1.8532

> <Gold.Chemscore.Rot>
1.3306

> <Gold.Chemscore.Internal.Correction>
   9.000000E+99

> <Gold.Chemscore.Hbonds>
donor molecule, donor type, donor heavy atom, donor atom, acceptor molecule, acceptor atom, score
      L1  H     3    17       P1  8028  0.01
      L1  H    10    27       P1  8028  0.38
      L1  H    14    16       P1 10175  0.35
      P1  H  7989  7998       L1     1  0.74

> <Gold.Chemscore.Hbond.Weighted>
-8.4020

> <Gold.Chemscore.Metal.Weighted>
-0.0000

> <Gold.Chemscore.Lipo.Weighted>
-9.0968

> <Gold.Chemscore.Internal_Hbond.Weighted>
0.0000

> <Gold.Chemscore.DEClash.Weighted>
1.8855

> <Gold.Chemscore.DEInternal.Weighted>
1.8532

> <Gold.Chemscore.Rot.Weighted>
3.4063

> <Gold.Chemscore.Internal.Correction.Weighted>
   9.000000E+99

> <Gold.Protein.RotatedTorsions>
[ 6907 6896 6895 6894 ] final -160.21 input  -60.11 | X-H torsion
[ 7974 7965 7964 7962 ] final -149.69 input  175.53 | X-H torsion
[ 8008 7997 7996 7995 ] final -150.81 input   59.86 | X-H torsion
[ 10167 10162 10161 10158 ] final   -3.36 input  -65.29 | X-H torsion
[ 10718 10713 10712 10709 ] final  118.60 input   66.30 | X-H torsion
[ 10763 10752 10751 10750 ] final   64.24 input  -60.55 | X-H torsion
[ 11005 11000 10999 10996 ] final  106.88 input  -57.11 | X-H torsion

> <Gold.Protein.ActiveResidues>
 VAL166  LYS551  ARG553  GLY616  TRP617  ASP618  TYR619  PRO620  LYS621  CYS622 
 ASP623  PHE694  ASN695  SER759  ASP760  ASP761  ALA762  ILE779  LEU786  VAL792 
 PHE793  MET794  SER795  GLU796  ALA797  LYS798  CYS799  TRP800  GLU811  SER814 

> <Gold.Protein.RotatedAtoms>
  151.3455  133.3945  159.2674 H   0  0  0  0  0  0  0  0  0  0  0  0  # atno 6907 bound_to 6896
  150.9843  134.9192  159.7873 H   0  0  0  0  0  0  0  0  0  0  0  0  # atno 6908 bound_to 6896
  152.5227  134.3419  159.9272 H   0  0  0  0  0  0  0  0  0  0  0  0  # atno 6909 bound_to 6896
  144.7952  140.5032  143.5745 H   0  0  0  0  0  0  0  0  0  0  0  0  # atno 7974 bound_to 7965
  155.6294  140.0690  157.2653 H   0  0  0  0  0  0  0  0  0  0  0  0  # atno 8008 bound_to 7997
  154.4209  140.1770  156.1505 H   0  0  0  0  0  0  0  0  0  0  0  0  # atno 8009 bound_to 7997
  155.9945  140.3342  155.6788 H   0  0  0  0  0  0  0  0  0  0  0  0  # atno 8010 bound_to 7997
  140.6887  143.6549  150.8318 H   0  0  0  0  0  0  0  0  0  0  0  0  # atno 10167 bound_to 10162
  157.6019  131.1049  150.7779 H   0  0  0  0  0  0  0  0  0  0  0  0  # atno 10718 bound_to 10713
  153.0048  135.5400  154.6478 H   0  0  0  0  0  0  0  0  0  0  0  0  # atno 10763 bound_to 10752
  154.5718  135.2842  155.0822 H   0  0  0  0  0  0  0  0  0  0  0  0  # atno 10764 bound_to 10752
  154.1985  135.6488  153.5132 H   0  0  0  0  0  0  0  0  0  0  0  0  # atno 10765 bound_to 10752
  139.8820  134.9383  156.5733 H   0  0  0  0  0  0  0  0  0  0  0  0  # atno 11005 bound_to 11000
  145.5691  139.1482  143.3298 LP  0  0  0  0  0  0  0  0  0  0  0  0  # atno 17320 bound_to 7965
  146.2218  140.5825  142.9014 LP  0  0  0  0  0  0  0  0  0  0  0  0  # atno 17321 bound_to 7965
  140.0259  143.5494  152.2781 LP  0  0  0  0  0  0  0  0  0  0  0  0  # atno 17342 bound_to 10162
  139.6269  144.7638  151.2619 LP  0  0  0  0  0  0  0  0  0  0  0  0  # atno 17343 bound_to 10162
  156.8176  130.4973  149.5347 LP  0  0  0  0  0  0  0  0  0  0  0  0  # atno 17370 bound_to 10713
  156.1095  130.6029  151.0024 LP  0  0  0  0  0  0  0  0  0  0  0  0  # atno 17371 bound_to 10713
  140.8082  133.8451  155.8786 LP  0  0  0  0  0  0  0  0  0  0  0  0  # atno 17394 bound_to 11000
  140.9531  134.1753  157.4712 LP  0  0  0  0  0  0  0  0  0  0  0  0  # atno 17395 bound_to 11000

$$$$
