AV-unprocessed.smi:37|AV-procd|sdf|311|dock5
  -GOLD-   2262016123D 1   1.00000     0.00000
 Structure written by MMmdl.
 44 45  0  0  0  0  0  0  0  0  1 V2000
  148.9549  133.3088  154.1520 C   0  0  0  0  0  0  0  0  0  0  0  0
  149.6928  132.3302  155.0755 C   0  0  0  0  0  0  0  0  0  0  0  0
  149.7319  132.8209  156.5210 C   0  0  0  0  0  0  0  0  0  0  0  0
  150.7985  133.0129  157.1052 O   0  0  0  0  0  0  0  0  0  0  0  0
  148.5072  132.9994  157.0401 O   0  0  0  0  0  0  0  0  0  0  0  0
  148.3597  133.6947  158.2664 C   0  0  0  0  0  0  0  0  0  0  0  0
  148.5543  135.1953  158.0172 C   0  0  2  0  0  0  0  0  0  0  0  0
  149.8979  135.5893  158.2723 O   0  0  0  0  0  0  0  0  0  0  0  0
  149.9405  136.9434  158.6172 C   0  0  1  0  0  0  0  0  0  0  0  0
  150.7068  137.7147  157.5662 N   0  0  0  0  0  0  0  0  0  0  0  0
  150.4762  137.5422  156.2062 C   0  0  0  0  0  0  0  0  0  0  0  0
  151.1533  138.2260  155.2539 C   0  0  0  0  0  0  0  0  0  0  0  0
  150.8730  138.0103  153.9575 F   0  0  0  0  0  0  0  0  0  0  0  0
  152.1802  139.1971  155.6210 C   0  0  0  0  0  0  0  0  0  0  0  0
  152.8478  139.8617  154.8311 O   0  0  0  0  0  0  0  0  0  0  0  0
  152.3726  139.3409  156.9982 N   0  0  0  0  0  0  0  0  0  0  0  0
  151.6797  138.6455  157.9904 C   0  0  0  0  0  0  0  0  0  0  0  0
  151.9200  138.8589  159.1780 O   0  0  0  0  0  0  0  0  0  0  0  0
  148.4837  137.4291  158.7867 C   0  0  1  0  0  0  0  0  0  0  0  0
  147.7685  138.3910  157.1859 Br  0  0  0  0  0  0  0  0  0  0  0  0
  147.7338  136.1173  158.9235 C   0  0  2  0  0  0  0  0  0  0  0  0
  147.7946  135.6760  160.2780 O   0  0  0  0  0  0  0  0  0  0  0  0
  147.1540  136.3432  161.2551 C   0  0  0  0  0  0  0  0  0  0  0  0
  146.5096  137.3842  161.1172 O   0  0  0  0  0  0  0  0  0  0  0  0
  147.3084  135.6501  162.6105 C   0  0  0  0  0  0  0  0  0  0  0  0
  146.2081  134.6190  162.9032 C   0  0  0  0  0  0  0  0  0  0  0  0
  153.0695  140.0066  157.2995 H   0  0  0  0  0  0  0  0  0  0  0  0
  148.9803  132.9566  153.1209 H   0  0  0  0  0  0  0  0  0  0  0  0
  149.4143  134.2976  154.1744 H   0  0  0  0  0  0  0  0  0  0  0  0
  147.9079  133.4165  154.4373 H   0  0  0  0  0  0  0  0  0  0  0  0
  149.2107  131.3530  155.0467 H   0  0  0  0  0  0  0  0  0  0  0  0
  150.7151  132.1890  154.7235 H   0  0  0  0  0  0  0  0  0  0  0  0
  147.3593  133.5100  158.6598 H   0  0  0  0  0  0  0  0  0  0  0  0
  149.0775  133.3315  159.0035 H   0  0  0  0  0  0  0  0  0  0  0  0
  148.3157  135.4278  156.9780 H   0  0  0  0  0  0  0  0  0  0  0  0
  150.5260  137.0147  159.5359 H   0  0  0  0  0  0  0  0  0  0  0  0
  149.7224  136.8447  155.8726 H   0  0  0  0  0  0  0  0  0  0  0  0
  148.3849  138.0885  159.6497 H   0  0  0  0  0  0  0  0  0  0  0  0
  146.7053  136.2111  158.5730 H   0  0  0  0  0  0  0  0  0  0  0  0
  148.2837  135.1636  162.6398 H   0  0  0  0  0  0  0  0  0  0  0  0
  147.3130  136.4121  163.3902 H   0  0  0  0  0  0  0  0  0  0  0  0
  146.3646  134.1580  163.8785 H   0  0  0  0  0  0  0  0  0  0  0  0
  146.2016  133.8215  162.1593 H   0  0  0  0  0  0  0  0  0  0  0  0
  145.2206  135.0818  162.9126 H   0  0  0  0  0  0  0  0  0  0  0  0
  1  2  1  0  0  0  0
  1 28  1  0  0  0  0
  1 29  1  0  0  0  0
  1 30  1  0  0  0  0
  2  3  1  0  0  0  0
  2 31  1  0  0  0  0
  2 32  1  0  0  0  0
  3  4  2  0  0  0  0
  3  5  1  0  0  0  0
  5  6  1  0  0  0  0
  6  7  1  0  0  0  0
  6 33  1  0  0  0  0
  6 34  1  0  0  0  0
  7 21  1  0  0  0  0
  7  8  1  0  0  0  0
  7 35  1  0  0  0  0
  8  9  1  0  0  0  0
  9 10  1  0  0  0  0
  9 19  1  0  0  0  0
  9 36  1  0  0  0  0
 10 17  1  0  0  0  0
 10 11  1  0  0  0  0
 11 12  2  0  0  0  0
 11 37  1  0  0  0  0
 12 13  1  0  0  0  0
 12 14  1  0  0  0  0
 14 15  2  0  0  0  0
 14 16  1  0  0  0  0
 16 27  1  0  0  0  0
 16 17  1  0  0  0  0
 17 18  2  0  0  0  0
 19 20  1  0  0  0  0
 19 21  1  0  0  0  0
 19 38  1  0  0  0  0
 21 22  1  0  0  0  0
 21 39  1  0  0  0  0
 22 23  1  0  0  0  0
 23 24  2  0  0  0  0
 23 25  1  0  0  0  0
 25 26  1  0  0  0  0
 25 40  1  0  0  0  0
 25 41  1  0  0  0  0
 26 42  1  0  0  0  0
 26 43  1  0  0  0  0
 26 44  1  0  0  0  0
M  END
> <s_m_source_file>
AV-unprocessed.smi

> <i_m_source_file_index>
37

> <i_lp_mmshare_version>
43012

> <i_f3d_flags>
0

> <s_epik_input>
W0NIM11bQ0gyXUMoPU8pT1tDSDJdW0NAQEhdMU9bQ0BASF0objJbY0hdYyhGKWMoPU8pW25IXWMyPU8pW0NAQEhdKEJyKVtDQEhdMU9DKD1PKVtDSDJdW0NIM10=

> <s_epik_cmdline>
J2VwaWtfcHl0aG9uJywgJy1waCcsICc3LjAnLCAnLXRuJywgJzgnLCAnLW1hJywgJzIwMCcsICctbWV0YWxfYmluZGluZycsICctaW1hZScsICc8aW5maWxlLm1hZT4nLCAnLW9tYWUnLCAnPG91dGZpbGUubWFlPic=

> <r_lp_tautomer_probability>
0.999537

> <r_epik_Ionization_Penalty>
0.104106

> <r_epik_Ionization_Penalty_Charging>
0.104106

> <r_epik_Ionization_Penalty_Neutral>
3.94675e-16

> <r_epik_State_Penalty>
0.0940182

> <r_epik_Charging_Adjusted_Penalty>
0.198124

> <i_epik_Tot_Q>
0

> <i_epik_Tot_abs_Q>
0

> <r_epik_Metal_State_Penalty>
3.05314

> <b_epik_Metal_Only>
0

> <s_epik_Chemistry_Notes>
This compound has an ester and may undergo hydrolysis at high or low pH. This compound contains an acetal/aminal-like group ( X-CH(R)-Y where X, Y are N, S, or O) that may be acid/base labile, releasing an aldehyde.

> <s_lp_Force_Field>
OPLS_2005

> <r_lp_Energy>
26.7513

> <b_lp_Chiralities_Consistent>
1

> <s_lp_Variant>
AV-unprocessed.smi:37-9

> <Gold.Version>
5.8.1

> <Gold.Id.Protein>
6NUR|6NUR_protein|mol2

> <Gold.PLP.Fitness>
45.0873

> <Gold.PLP.PLP>
-35.3952

> <Gold.PLP.part.hbond>
-5.0000

> <Gold.PLP.part.metal>
0.0000

> <Gold.PLP.part.buried>
-2.9189

> <Gold.PLP.part.nonpolar>
-29.0711

> <Gold.PLP.part.repulsive>
0.1390

> <Gold.PLP.ligand.clash>
0.0000

> <Gold.PLP.ligand.torsion>
1.3642

> <Gold.PLP.Chemscore.Hbond>
4.0887

> <Gold.PLP.Chemscore.CHOScore>
0.0000

> <Gold.PLP.Chemscore.Metal>
0.0000

> <Gold.Chemscore.Hbonds>
donor molecule, donor type, donor heavy atom, donor atom, acceptor molecule, acceptor atom, score
      P1  H  6896  6908       L1     4  0.37
      P1  H  6896  6909       L1     8  0.86
      P1  H  6934  6947       L1    24  1.00
      P1  H  7989  7998       L1    15  0.42
      P1  H  7997  8008       L1    15  1.00

> <Gold.PLP.Chemscore.Internal.Correction>
0.1544

> <Gold.Rescore>
     Score         DG    S(hbond)    S(metal)    S(lipo)     H(rot)  DE(clash)    DE(int)     intcor
     11.24     -13.86       3.30        0.00      50.14       3.33       0.02       2.60       ----

> <Gold.Chemscore.Fitness>
11.2394

> <Gold.Chemscore.DG>
-13.8588

> <Gold.Chemscore.ZeroCoef>
-5.4800

> <Gold.Chemscore.Hbond>
3.3047

> <Gold.Chemscore.Metal>
0.0000

> <Gold.Chemscore.Lipo>
50.1435

> <Gold.Chemscore.Internal_Hbond>
0.0000

> <Gold.Chemscore.DEClash>
0.0196

> <Gold.Chemscore.DEInternal>
2.5999

> <Gold.Chemscore.Rot>
3.3303

> <Gold.Chemscore.Internal.Correction>
   9.000000E+99

> <Gold.Chemscore.Hbonds>
donor molecule, donor type, donor heavy atom, donor atom, acceptor molecule, acceptor atom, score
      P1  H  6896  6908       L1     4  0.38
      P1  H  6896  6909       L1     8  0.25
      P1  H  6934  6947       L1    24  1.00
      P1  H  7989  7998       L1    15  0.34
      P1  H  7997  8008       L1    15  0.25

> <Gold.Chemscore.Hbond.Weighted>
-11.0376

> <Gold.Chemscore.Metal.Weighted>
-0.0000

> <Gold.Chemscore.Lipo.Weighted>
-5.8668

> <Gold.Chemscore.Internal_Hbond.Weighted>
0.0000

> <Gold.Chemscore.DEClash.Weighted>
0.0196

> <Gold.Chemscore.DEInternal.Weighted>
2.5999

> <Gold.Chemscore.Rot.Weighted>
8.5256

> <Gold.Chemscore.Internal.Correction.Weighted>
   9.000000E+99

> <Gold.Protein.RotatedTorsions>
[ 6907 6896 6895 6894 ] final   70.60 input  -60.11 | X-H torsion
[ 7974 7965 7964 7962 ] final    2.07 input  175.53 | X-H torsion
[ 8008 7997 7996 7995 ] final  -19.13 input   59.86 | X-H torsion
[ 10167 10162 10161 10158 ] final -126.97 input  -65.29 | X-H torsion
[ 10718 10713 10712 10709 ] final -128.95 input   66.30 | X-H torsion
[ 10763 10752 10751 10750 ] final -146.50 input  -60.55 | X-H torsion
[ 11005 11000 10999 10996 ] final   71.63 input  -57.11 | X-H torsion

> <Gold.Protein.ActiveResidues>
 VAL166  LYS551  ARG553  GLY616  TRP617  ASP618  TYR619  PRO620  LYS621  CYS622 
 ASP623  PHE694  ASN695  SER759  ASP760  ASP761  ALA762  ILE779  LEU786  VAL792 
 PHE793  MET794  SER795  GLU796  ALA797  LYS798  CYS799  TRP800  GLU811  SER814 

> <Gold.Protein.RotatedAtoms>
  152.4759  134.4844  159.9675 H   0  0  0  0  0  0  0  0  0  0  0  0  # atno 6907 bound_to 6896
  151.4860  133.3529  159.2853 H   0  0  0  0  0  0  0  0  0  0  0  0  # atno 6908 bound_to 6896
  150.8798  134.8214  159.7278 H   0  0  0  0  0  0  0  0  0  0  0  0  # atno 6909 bound_to 6896
  146.2443  140.0891  142.8353 H   0  0  0  0  0  0  0  0  0  0  0  0  # atno 7974 bound_to 7965
  154.4858  140.2097  155.9659 H   0  0  0  0  0  0  0  0  0  0  0  0  # atno 8008 bound_to 7997
  156.1233  140.3209  155.8210 H   0  0  0  0  0  0  0  0  0  0  0  0  # atno 8009 bound_to 7997
  155.4428  140.0511  157.2999 H   0  0  0  0  0  0  0  0  0  0  0  0  # atno 8010 bound_to 7997
  139.9658  143.5900  152.2430 H   0  0  0  0  0  0  0  0  0  0  0  0  # atno 10167 bound_to 10162
  156.2000  130.6851  151.0527 H   0  0  0  0  0  0  0  0  0  0  0  0  # atno 10718 bound_to 10713
  154.8333  135.3385  154.6670 H   0  0  0  0  0  0  0  0  0  0  0  0  # atno 10763 bound_to 10752
  153.7288  135.6953  153.4999 H   0  0  0  0  0  0  0  0  0  0  0  0  # atno 10764 bound_to 10752
  153.2327  135.4411  155.0565 H   0  0  0  0  0  0  0  0  0  0  0  0  # atno 10765 bound_to 10752
  139.9533  134.7188  156.0811 H   0  0  0  0  0  0  0  0  0  0  0  0  # atno 11005 bound_to 11000
  145.0666  140.9126  143.4907 LP  0  0  0  0  0  0  0  0  0  0  0  0  # atno 17320 bound_to 7965
  145.1017  139.2818  143.5683 LP  0  0  0  0  0  0  0  0  0  0  0  0  # atno 17321 bound_to 7965
  139.6519  144.7661  151.2132 LP  0  0  0  0  0  0  0  0  0  0  0  0  # atno 17342 bound_to 10162
  140.7538  143.6148  150.8571 LP  0  0  0  0  0  0  0  0  0  0  0  0  # atno 17343 bound_to 10162
  157.6980  131.0787  150.6910 LP  0  0  0  0  0  0  0  0  0  0  0  0  # atno 17370 bound_to 10713
  156.6967  130.4611  149.5584 LP  0  0  0  0  0  0  0  0  0  0  0  0  # atno 17371 bound_to 10713
  141.1200  133.6615  156.3191 LP  0  0  0  0  0  0  0  0  0  0  0  0  # atno 17394 bound_to 11000
  140.5667  134.5880  157.5447 LP  0  0  0  0  0  0  0  0  0  0  0  0  # atno 17395 bound_to 11000

$$$$
