AV-unprocessed.smi:1629|AV-procd|sdf|6521|dock3
  -GOLD-   22720 7193D 1   1.00000     0.00000
 Structure written by MMmdl.
 44 45  0  0  0  0  0  0  0  0  1 V2000
  143.9354  136.7428  151.7012 C   0  0  0  0  0  0  0  0  0  0  0  0
  145.6840  136.5096  151.1868 S   0  0  0  0  0  0  0  0  0  0  0  0
  145.8811  135.1073  150.7892 O   0  0  0  0  0  0  0  0  0  0  0  0
  146.0478  137.6003  150.2695 O   0  0  0  0  0  0  0  0  0  0  0  0
  146.5381  136.7542  152.6662 N   0  0  0  0  0  0  0  0  0  0  0  0
  146.3727  138.0156  153.3955 C   0  0  0  0  0  0  0  0  0  0  0  0
  146.9188  139.2006  152.5611 C   0  0  0  0  0  0  0  0  0  0  0  0
  147.0407  140.4841  153.4015 C   0  0  0  0  0  0  0  0  0  0  0  0
  147.8648  140.1884  154.5830 N   0  0  0  0  0  0  0  0  0  0  0  0
  149.1876  140.4551  154.7260 C   0  0  0  0  0  0  0  0  0  0  0  0
  149.9222  140.7282  153.7757 O   0  0  0  0  0  0  0  0  0  0  0  0
  149.6332  140.4323  155.9953 N   0  0  0  0  0  0  0  0  0  0  0  0
  150.9614  140.8563  156.4365 C   0  0  0  0  0  0  0  0  0  0  0  0
  151.2749  140.3925  157.8746 C   0  0  0  0  0  0  0  0  0  0  0  0
  151.7916  141.4981  158.7820 C   0  0  0  0  0  0  0  0  0  0  0  0
  152.3736  141.1904  160.0304 C   0  0  0  0  0  0  0  0  0  0  0  0
  152.7871  142.2507  160.8593 C   0  0  0  0  0  0  0  0  0  0  0  0
  152.6109  143.5719  160.4068 C   0  0  0  0  0  0  0  0  0  0  0  0
  152.0337  143.7741  159.1371 C   0  0  0  0  0  0  0  0  0  0  0  0
  151.6338  142.7640  158.3347 N   0  0  0  0  0  0  0  0  0  0  0  0
  147.1685  139.2584  155.4772 C   0  0  0  0  0  0  0  0  0  0  0  0
  147.0757  137.8957  154.7669 C   0  0  0  0  0  0  0  0  0  0  0  0
  143.2837  136.6180  150.8366 H   0  0  0  0  0  0  0  0  0  0  0  0
  143.8067  137.7451  152.1093 H   0  0  0  0  0  0  0  0  0  0  0  0
  143.6760  136.0048  152.4598 H   0  0  0  0  0  0  0  0  0  0  0  0
  147.5256  136.5243  152.5582 H   0  0  0  0  0  0  0  0  0  0  0  0
  145.3092  138.1789  153.5738 H   0  0  0  0  0  0  0  0  0  0  0  0
  147.8981  138.9475  152.1584 H   0  0  0  0  0  0  0  0  0  0  0  0
  146.2743  139.3869  151.7017 H   0  0  0  0  0  0  0  0  0  0  0  0
  147.4274  141.3017  152.7930 H   0  0  0  0  0  0  0  0  0  0  0  0
  146.0507  140.8109  153.7227 H   0  0  0  0  0  0  0  0  0  0  0  0
  148.9737  140.1837  156.7179 H   0  0  0  0  0  0  0  0  0  0  0  0
  151.7039  140.4516  155.7486 H   0  0  0  0  0  0  0  0  0  0  0  0
  151.0576  141.9414  156.3756 H   0  0  0  0  0  0  0  0  0  0  0  0
  150.3731  139.9696  158.3189 H   0  0  0  0  0  0  0  0  0  0  0  0
  152.0050  139.5824  157.8502 H   0  0  0  0  0  0  0  0  0  0  0  0
  152.4841  140.1668  160.3565 H   0  0  0  0  0  0  0  0  0  0  0  0
  153.2246  142.0536  161.8269 H   0  0  0  0  0  0  0  0  0  0  0  0
  152.9129  144.4105  161.0162 H   0  0  0  0  0  0  0  0  0  0  0  0
  151.8869  144.7740  158.7569 H   0  0  0  0  0  0  0  0  0  0  0  0
  147.6672  139.1494  156.4414 H   0  0  0  0  0  0  0  0  0  0  0  0
  146.1702  139.6358  155.7029 H   0  0  0  0  0  0  0  0  0  0  0  0
  146.5466  137.1809  155.3981 H   0  0  0  0  0  0  0  0  0  0  0  0
  148.0838  137.4991  154.6323 H   0  0  0  0  0  0  0  0  0  0  0  0
  1  2  1  0  0  0  0
  1 23  1  0  0  0  0
  1 24  1  0  0  0  0
  1 25  1  0  0  0  0
  2  3  2  0  0  0  0
  2  4  2  0  0  0  0
  2  5  1  0  0  0  0
  5  6  1  0  0  0  0
  5 26  1  0  0  0  0
  6 22  1  0  0  0  0
  6  7  1  0  0  0  0
  6 27  1  0  0  0  0
  7  8  1  0  0  0  0
  7 28  1  0  0  0  0
  7 29  1  0  0  0  0
  8  9  1  0  0  0  0
  8 30  1  0  0  0  0
  8 31  1  0  0  0  0
  9 10  1  0  0  0  0
  9 21  1  0  0  0  0
 10 11  2  0  0  0  0
 10 12  1  0  0  0  0
 12 13  1  0  0  0  0
 12 32  1  0  0  0  0
 13 14  1  0  0  0  0
 13 33  1  0  0  0  0
 13 34  1  0  0  0  0
 14 15  1  0  0  0  0
 14 35  1  0  0  0  0
 14 36  1  0  0  0  0
 15 20  1  0  0  0  0
 15 16  2  0  0  0  0
 16 17  1  0  0  0  0
 16 37  1  0  0  0  0
 17 18  2  0  0  0  0
 17 38  1  0  0  0  0
 18 19  1  0  0  0  0
 18 39  1  0  0  0  0
 19 20  2  0  0  0  0
 19 40  1  0  0  0  0
 21 22  1  0  0  0  0
 21 41  1  0  0  0  0
 21 42  1  0  0  0  0
 22 43  1  0  0  0  0
 22 44  1  0  0  0  0
M  END
> <s_m_source_file>
AV-unprocessed.smi

> <i_m_source_file_index>
1629

> <i_lp_mmshare_version>
43012

> <i_f3d_flags>
0

> <s_epik_input>
W0NIM11TKD1PKSg9TylbTkhdW0NIXTFbQ0gyXVtDSDJdTihbQ0gyXVtDSDJdMSlDKD1PKVtOSF1bQ0gyXVtDSDJdYzJbY0hdW2NIXVtjSF1bY0hdbjI=

> <s_epik_cmdline>
J2VwaWtfcHl0aG9uJywgJy1waCcsICc3LjAnLCAnLXRuJywgJzgnLCAnLW1hJywgJzIwMCcsICctbWV0YWxfYmluZGluZycsICctaW1hZScsICc8aW5maWxlLm1hZT4nLCAnLW9tYWUnLCAnPG91dGZpbGUubWFlPic=

> <r_epik_Ionization_Penalty>
0.044864

> <r_epik_Ionization_Penalty_Charging>
0

> <r_epik_Ionization_Penalty_Neutral>
0.044864

> <r_epik_State_Penalty>
0.0379889

> <r_epik_Charging_Adjusted_Penalty>
0.0379889

> <i_epik_Tot_Q>
0

> <i_epik_Tot_abs_Q>
0

> <r_epik_Metal_State_Penalty>
0.04187

> <b_epik_Metal_Only>
0

> <s_lp_Force_Field>
OPLS_2005

> <r_lp_Energy>
21.9129

> <b_lp_Chiralities_Consistent>
1

> <s_lp_Variant>
AV-unprocessed.smi:1629-1

> <Gold.Version>
5.8.1

> <Gold.Id.Protein>
6NUR|6NUR_protein|mol2

> <Gold.PLP.Fitness>
41.8655

> <Gold.PLP.PLP>
-35.3905

> <Gold.PLP.part.hbond>
-3.5007

> <Gold.PLP.part.metal>
0.0000

> <Gold.PLP.part.buried>
-3.3363

> <Gold.PLP.part.nonpolar>
-34.0165

> <Gold.PLP.part.repulsive>
6.2167

> <Gold.PLP.ligand.clash>
0.0000

> <Gold.PLP.ligand.torsion>
0.9248

> <Gold.PLP.Chemscore.Hbond>
2.7099

> <Gold.PLP.Chemscore.CHOScore>
0.0000

> <Gold.PLP.Chemscore.Metal>
0.0000

> <Gold.Chemscore.Hbonds>
donor molecule, donor type, donor heavy atom, donor atom, acceptor molecule, acceptor atom, score
      L1  H     5    26       P1  7948  1.00
      P1  H  7954  7966       L1     4  0.53
      P1  H  7989  7998       L1    11  0.51
      P1  H  8011  8017       L1    11  0.52

> <Gold.PLP.Chemscore.Internal.Correction>
0.1949

> <Gold.Rescore>
     Score         DG    S(hbond)    S(metal)    S(lipo)     H(rot)  DE(clash)    DE(int)     intcor
     14.86     -20.45       2.79        0.00      92.93       2.03       3.65       1.94       ----

> <Gold.Chemscore.Fitness>
14.8586

> <Gold.Chemscore.DG>
-20.4512

> <Gold.Chemscore.ZeroCoef>
-5.4800

> <Gold.Chemscore.Hbond>
2.7860

> <Gold.Chemscore.Metal>
0.0000

> <Gold.Chemscore.Lipo>
92.9320

> <Gold.Chemscore.Internal_Hbond>
0.0000

> <Gold.Chemscore.DEClash>
3.6531

> <Gold.Chemscore.DEInternal>
1.9395

> <Gold.Chemscore.Rot>
2.0340

> <Gold.Chemscore.Internal.Correction>
   9.000000E+99

> <Gold.Chemscore.Hbonds>
donor molecule, donor type, donor heavy atom, donor atom, acceptor molecule, acceptor atom, score
      L1  H     5    26       P1  7948  0.98
      P1  H  7954  7966       L1     4  0.49
      P1  H  7989  7998       L1    11  0.50
      P1  H  8011  8017       L1    11  0.51

> <Gold.Chemscore.Hbond.Weighted>
-9.3052

> <Gold.Chemscore.Metal.Weighted>
-0.0000

> <Gold.Chemscore.Lipo.Weighted>
-10.8730

> <Gold.Chemscore.Internal_Hbond.Weighted>
0.0000

> <Gold.Chemscore.DEClash.Weighted>
3.6531

> <Gold.Chemscore.DEInternal.Weighted>
1.9395

> <Gold.Chemscore.Rot.Weighted>
5.2071

> <Gold.Chemscore.Internal.Correction.Weighted>
   9.000000E+99

> <Gold.Protein.RotatedTorsions>
[ 6907 6896 6895 6894 ] final  179.23 input  -60.11 | X-H torsion
[ 7974 7965 7964 7962 ] final -176.93 input  175.53 | X-H torsion
[ 8008 7997 7996 7995 ] final  135.85 input   59.86 | X-H torsion
[ 10167 10162 10161 10158 ] final  -52.07 input  -65.29 | X-H torsion
[ 10718 10713 10712 10709 ] final   36.55 input   66.30 | X-H torsion
[ 10763 10752 10751 10750 ] final  -64.95 input  -60.55 | X-H torsion
[ 11005 11000 10999 10996 ] final  127.29 input  -57.11 | X-H torsion

> <Gold.Protein.ActiveResidues>
 VAL166  LYS551  ARG553  GLY616  TRP617  ASP618  TYR619  PRO620  LYS621  CYS622 
 ASP623  PHE694  ASN695  SER759  ASP760  ASP761  ALA762  ILE779  LEU786  VAL792 
 PHE793  MET794  SER795  GLU796  ALA797  LYS798  CYS799  TRP800  GLU811  SER814 

> <Gold.Protein.RotatedAtoms>
  151.6750  133.3313  159.3205 H   0  0  0  0  0  0  0  0  0  0  0  0  # atno 6907 bound_to 6896
  150.7850  134.6830  159.6464 H   0  0  0  0  0  0  0  0  0  0  0  0  # atno 6908 bound_to 6896
  152.3917  134.6434  160.0157 H   0  0  0  0  0  0  0  0  0  0  0  0  # atno 6909 bound_to 6896
  144.7127  140.1096  143.6412 H   0  0  0  0  0  0  0  0  0  0  0  0  # atno 7974 bound_to 7965
  156.3003  140.2460  156.3650 H   0  0  0  0  0  0  0  0  0  0  0  0  # atno 8008 bound_to 7997
  154.8842  140.0411  157.1820 H   0  0  0  0  0  0  0  0  0  0  0  0  # atno 8009 bound_to 7997
  154.8664  140.2928  155.5511 H   0  0  0  0  0  0  0  0  0  0  0  0  # atno 8010 bound_to 7997
  140.6556  143.2597  151.4595 H   0  0  0  0  0  0  0  0  0  0  0  0  # atno 10167 bound_to 10162
  157.3362  130.7523  149.6880 H   0  0  0  0  0  0  0  0  0  0  0  0  # atno 10718 bound_to 10713
  154.3378  135.6163  153.5582 H   0  0  0  0  0  0  0  0  0  0  0  0  # atno 10763 bound_to 10752
  152.9806  135.5762  154.4888 H   0  0  0  0  0  0  0  0  0  0  0  0  # atno 10764 bound_to 10752
  154.4586  135.2855  155.1706 H   0  0  0  0  0  0  0  0  0  0  0  0  # atno 10765 bound_to 10752
  139.9500  134.9623  156.8832 H   0  0  0  0  0  0  0  0  0  0  0  0  # atno 11005 bound_to 11000
  145.9466  139.2705  143.1237 LP  0  0  0  0  0  0  0  0  0  0  0  0  # atno 17320 bound_to 7965
  145.9367  140.9009  143.0328 LP  0  0  0  0  0  0  0  0  0  0  0  0  # atno 17321 bound_to 7965
  139.5778  144.1778  152.1927 LP  0  0  0  0  0  0  0  0  0  0  0  0  # atno 17342 bound_to 10162
  140.1094  144.5470  150.6935 LP  0  0  0  0  0  0  0  0  0  0  0  0  # atno 17343 bound_to 10162
  155.9702  130.4181  150.4311 LP  0  0  0  0  0  0  0  0  0  0  0  0  # atno 17370 bound_to 10713
  157.2351  131.0513  151.2470 LP  0  0  0  0  0  0  0  0  0  0  0  0  # atno 17371 bound_to 10713
  140.5743  134.0413  155.7441 LP  0  0  0  0  0  0  0  0  0  0  0  0  # atno 17394 bound_to 11000
  141.1160  133.9539  157.2821 LP  0  0  0  0  0  0  0  0  0  0  0  0  # atno 17395 bound_to 11000

$$$$
