AV-unprocessed.smi:166|AV-procd|sdf|1390|dock6
  -GOLD-   2262019123D 1   1.00000     0.00000
 Structure written by MMmdl.
 54 58  0  0  0  0  0  0  0  0  1 V2000
  146.5329  140.1031  152.7400 O   0  0  0  0  0  0  0  0  0  0  0  0
  147.1025  140.2298  154.0299 C   0  0  1  0  0  0  0  0  0  0  0  0
  148.4066  141.0586  153.9247 C   0  0  0  0  0  0  0  0  0  0  0  0
  149.1306  141.1825  155.1815 N   0  0  0  0  0  0  0  0  0  0  0  0
  148.7497  141.9152  156.2836 C   0  0  0  0  0  0  0  0  0  0  0  0
  149.5739  141.8716  157.2945 N   0  0  0  0  0  0  0  0  0  0  0  0
  150.6124  141.0626  156.8500 C   0  0  0  0  0  0  0  0  0  0  0  0
  151.8317  140.6019  157.4225 C   0  0  0  0  0  0  0  0  0  0  0  0
  152.2620  140.9050  158.6649 N   0  0  0  0  0  0  0  0  0  0  0  0
  152.3564  142.3422  158.9013 C   0  0  0  0  0  0  0  0  0  0  0  0
  152.6066  142.6305  160.3907 C   0  0  0  0  0  0  0  0  0  0  0  0
  153.8319  141.8559  160.9016 C   0  0  0  0  0  0  0  0  0  0  0  0
  153.6811  140.3519  160.6133 C   0  0  2  0  0  0  0  0  0  0  0  0
  154.8848  139.7155  161.0218 O   0  0  0  0  0  0  0  0  0  0  0  0
  155.0832  139.6785  162.4269 C   0  0  0  0  0  0  0  0  0  0  0  0
  155.5968  138.3073  162.8098 C   0  0  0  0  0  0  0  0  0  0  0  0
  154.6686  137.1138  162.7929 C   0  0  0  0  0  0  0  0  0  0  0  0
  155.1722  137.6557  164.1064 C   0  0  0  0  0  0  0  0  0  0  0  0
  153.4155  140.1267  159.1103 C   0  0  0  0  0  0  0  0  0  0  0  0
  152.6200  139.7906  156.6759 N   0  0  0  0  0  0  0  0  0  0  0  0
  152.2489  139.4567  155.4361 C   0  0  0  0  0  0  0  0  0  0  0  0
  151.1490  139.8133  154.7686 N   0  0  0  0  0  0  0  0  0  0  0  0
  150.3493  140.6212  155.5227 C   0  0  0  0  0  0  0  0  0  0  0  0
  146.0778  140.8799  154.9611 C   0  0  0  0  0  0  0  0  0  0  0  0
  146.1286  140.0081  156.2089 C   0  0  0  0  0  0  0  0  0  0  0  0
  146.3250  138.7140  155.6690 O   0  0  0  0  0  0  0  0  0  0  0  0
  147.3042  138.8293  154.6460 C   0  0  0  0  0  0  0  0  0  0  0  0
  145.6352  140.3961  152.7772 H   0  0  0  0  0  0  0  0  0  0  0  0
  149.0770  140.6171  153.1859 H   0  0  0  0  0  0  0  0  0  0  0  0
  148.1797  142.0634  153.5660 H   0  0  0  0  0  0  0  0  0  0  0  0
  147.8335  142.4866  156.3170 H   0  0  0  0  0  0  0  0  0  0  0  0
  153.1674  142.7562  158.3003 H   0  0  0  0  0  0  0  0  0  0  0  0
  151.4365  142.8329  158.5799 H   0  0  0  0  0  0  0  0  0  0  0  0
  152.7470  143.7005  160.5455 H   0  0  0  0  0  0  0  0  0  0  0  0
  151.7279  142.3452  160.9706 H   0  0  0  0  0  0  0  0  0  0  0  0
  154.7311  142.2355  160.4144 H   0  0  0  0  0  0  0  0  0  0  0  0
  153.9619  142.0227  161.9714 H   0  0  0  0  0  0  0  0  0  0  0  0
  152.8429  139.9703  161.1996 H   0  0  0  0  0  0  0  0  0  0  0  0
  155.7997  140.4413  162.7359 H   0  0  0  0  0  0  0  0  0  0  0  0
  154.1498  139.8592  162.9592 H   0  0  0  0  0  0  0  0  0  0  0  0
  156.6165  138.1134  162.4818 H   0  0  0  0  0  0  0  0  0  0  0  0
  153.6229  137.2873  162.5461 H   0  0  0  0  0  0  0  0  0  0  0  0
  155.0770  136.1653  162.4502 H   0  0  0  0  0  0  0  0  0  0  0  0
  155.9175  137.0699  164.6406 H   0  0  0  0  0  0  0  0  0  0  0  0
  154.4633  138.1911  164.7347 H   0  0  0  0  0  0  0  0  0  0  0  0
  153.2342  139.0713  158.9057 H   0  0  0  0  0  0  0  0  0  0  0  0
  154.2985  140.4177  158.5411 H   0  0  0  0  0  0  0  0  0  0  0  0
  152.9311  138.8117  154.9020 H   0  0  0  0  0  0  0  0  0  0  0  0
  146.2854  141.9288  155.1753 H   0  0  0  0  0  0  0  0  0  0  0  0
  145.0741  140.8257  154.5358 H   0  0  0  0  0  0  0  0  0  0  0  0
  146.9742  140.2777  156.8440 H   0  0  0  0  0  0  0  0  0  0  0  0
  145.2160  140.0653  156.8022 H   0  0  0  0  0  0  0  0  0  0  0  0
  147.2169  138.0171  153.9232 H   0  0  0  0  0  0  0  0  0  0  0  0
  148.2812  138.7423  155.1212 H   0  0  0  0  0  0  0  0  0  0  0  0
  1  2  1  0  0  0  0
  1 28  1  0  0  0  0
  2 27  1  0  0  0  0
  2  3  1  0  0  0  0
  2 24  1  0  0  0  0
  3  4  1  0  0  0  0
  3 29  1  0  0  0  0
  3 30  1  0  0  0  0
  4 23  1  0  0  0  0
  4  5  1  0  0  0  0
  5  6  2  0  0  0  0
  5 31  1  0  0  0  0
  6  7  1  0  0  0  0
  7 23  2  0  0  0  0
  7  8  1  0  0  0  0
  8  9  1  0  0  0  0
  8 20  2  0  0  0  0
  9 19  1  0  0  0  0
  9 10  1  0  0  0  0
 10 11  1  0  0  0  0
 10 32  1  0  0  0  0
 10 33  1  0  0  0  0
 11 12  1  0  0  0  0
 11 34  1  0  0  0  0
 11 35  1  0  0  0  0
 12 13  1  0  0  0  0
 12 36  1  0  0  0  0
 12 37  1  0  0  0  0
 13 14  1  0  0  0  0
 13 19  1  0  0  0  0
 13 38  1  0  0  0  0
 14 15  1  0  0  0  0
 15 16  1  0  0  0  0
 15 39  1  0  0  0  0
 15 40  1  0  0  0  0
 16 18  1  0  0  0  0
 16 17  1  0  0  0  0
 16 41  1  0  0  0  0
 17 18  1  0  0  0  0
 17 42  1  0  0  0  0
 17 43  1  0  0  0  0
 18 44  1  0  0  0  0
 18 45  1  0  0  0  0
 19 46  1  0  0  0  0
 19 47  1  0  0  0  0
 20 21  1  0  0  0  0
 21 22  2  0  0  0  0
 21 48  1  0  0  0  0
 22 23  1  0  0  0  0
 24 25  1  0  0  0  0
 24 49  1  0  0  0  0
 24 50  1  0  0  0  0
 25 26  1  0  0  0  0
 25 51  1  0  0  0  0
 25 52  1  0  0  0  0
 26 27  1  0  0  0  0
 27 53  1  0  0  0  0
 27 54  1  0  0  0  0
M  END
> <s_m_source_file>
AV-unprocessed.smi

> <i_m_source_file_index>
166

> <i_lp_mmshare_version>
43012

> <i_f3d_flags>
0

> <s_epik_input>
W0NIMl0xT1tDSDJdW0NIMl1bQ0BAXTEoW09IXSlbQ0gyXW4oW2NIXW4yKWMoYzIzKW5bY0hdbmMzTjRbQ0gyXVtDSDJdW0NIMl1bQ0BIXShbQ0gyXTQpT1tDSDJdW0NIXTVbQ0gyXVtDSDJdNQ==

> <s_epik_cmdline>
J2VwaWtfcHl0aG9uJywgJy1waCcsICc3LjAnLCAnLXRuJywgJzgnLCAnLW1hJywgJzIwMCcsICctbWV0YWxfYmluZGluZycsICctaW1hZScsICc8aW5maWxlLm1hZT4nLCAnLW9tYWUnLCAnPG91dGZpbGUubWFlPic=

> <r_lp_tautomer_probability>
1

> <r_epik_Ionization_Penalty>
0.00342552

> <r_epik_Ionization_Penalty_Charging>
0

> <r_epik_Ionization_Penalty_Neutral>
0.00342552

> <r_epik_State_Penalty>
0.0022204

> <r_epik_Charging_Adjusted_Penalty>
0.0022204

> <i_epik_Tot_Q>
0

> <i_epik_Tot_abs_Q>
0

> <r_epik_Metal_State_Penalty>
-0

> <b_epik_Metal_Only>
0

> <s_lp_Force_Field>
OPLS_2005

> <r_lp_Energy>
47.3104

> <b_lp_Chiralities_Consistent>
1

> <s_lp_Variant>
AV-unprocessed.smi:166-3

> <Gold.Version>
5.8.1

> <Gold.Id.Protein>
6NUR|6NUR_protein|mol2

> <Gold.PLP.Fitness>
53.8790

> <Gold.PLP.PLP>
-44.5000

> <Gold.PLP.part.hbond>
-3.0000

> <Gold.PLP.part.metal>
0.0000

> <Gold.PLP.part.buried>
-2.1491

> <Gold.PLP.part.nonpolar>
-40.3916

> <Gold.PLP.part.repulsive>
0.2299

> <Gold.PLP.ligand.clash>
0.0000

> <Gold.PLP.ligand.torsion>
0.8644

> <Gold.PLP.Chemscore.Hbond>
3.0000

> <Gold.PLP.Chemscore.CHOScore>
0.4324

> <Gold.PLP.Chemscore.Metal>
0.0000

> <Gold.Chemscore.Hbonds>
donor molecule, donor type, donor heavy atom, donor atom, acceptor molecule, acceptor atom, score
      L1  H     1    28       P1 10175  1.00
      P1  H  7989  7998       L1    22  1.00
      P1  H  7997  8009       L1    20  1.00
      L1  C     5    31       P1  8028  0.34

> <Gold.PLP.Chemscore.Internal.Correction>
0.8105

> <Gold.Rescore>
     Score         DG    S(hbond)    S(metal)    S(lipo)     H(rot)  DE(clash)    DE(int)     intcor
     14.67     -16.11       1.84        0.00      97.12       2.68       0.59       0.85       ----

> <Gold.Chemscore.Fitness>
14.6686

> <Gold.Chemscore.DG>
-16.1116

> <Gold.Chemscore.ZeroCoef>
-5.4800

> <Gold.Chemscore.Hbond>
1.8365

> <Gold.Chemscore.Metal>
0.0000

> <Gold.Chemscore.Lipo>
97.1177

> <Gold.Chemscore.Internal_Hbond>
0.0000

> <Gold.Chemscore.DEClash>
0.5926

> <Gold.Chemscore.DEInternal>
0.8504

> <Gold.Chemscore.Rot>
2.6817

> <Gold.Chemscore.Internal.Correction>
   9.000000E+99

> <Gold.Chemscore.Hbonds>
donor molecule, donor type, donor heavy atom, donor atom, acceptor molecule, acceptor atom, score
      L1  H     1    28       P1 10175  0.80
      P1  H  7989  7998       L1    22  0.21
      P1  H  7997  8009       L1    20  0.39

> <Gold.Chemscore.Hbond.Weighted>
-6.1339

> <Gold.Chemscore.Metal.Weighted>
-0.0000

> <Gold.Chemscore.Lipo.Weighted>
-11.3628

> <Gold.Chemscore.Internal_Hbond.Weighted>
0.0000

> <Gold.Chemscore.DEClash.Weighted>
0.5926

> <Gold.Chemscore.DEInternal.Weighted>
0.8504

> <Gold.Chemscore.Rot.Weighted>
6.8651

> <Gold.Chemscore.Internal.Correction.Weighted>
   9.000000E+99

> <Gold.Protein.RotatedTorsions>
[ 6907 6896 6895 6894 ] final   -0.77 input  -60.11 | X-H torsion
[ 7974 7965 7964 7962 ] final  151.64 input  175.53 | X-H torsion
[ 8008 7997 7996 7995 ] final -172.21 input   59.86 | X-H torsion
[ 10167 10162 10161 10158 ] final -119.69 input  -65.29 | X-H torsion
[ 10718 10713 10712 10709 ] final  136.31 input   66.30 | X-H torsion
[ 10763 10752 10751 10750 ] final -149.18 input  -60.55 | X-H torsion
[ 11005 11000 10999 10996 ] final  -12.12 input  -57.11 | X-H torsion

> <Gold.Protein.ActiveResidues>
 VAL166  LYS551  ARG553  GLY616  TRP617  ASP618  TYR619  PRO620  LYS621  CYS622 
 ASP623  PHE694  ASN695  SER759  ASP760  ASP761  ALA762  ILE779  LEU786  VAL792 
 PHE793  MET794  SER795  GLU796  ALA797  LYS798  CYS799  TRP800  GLU811  SER814 

> <Gold.Protein.RotatedAtoms>
  151.5569  135.1066  159.9963 H   0  0  0  0  0  0  0  0  0  0  0  0  # atno 6907 bound_to 6896
  152.4465  133.7542  159.6721 H   0  0  0  0  0  0  0  0  0  0  0  0  # atno 6908 bound_to 6896
  150.8382  133.7912  159.3095 H   0  0  0  0  0  0  0  0  0  0  0  0  # atno 6909 bound_to 6896
  144.8278  139.6564  143.6072 H   0  0  0  0  0  0  0  0  0  0  0  0  # atno 7974 bound_to 7965
  155.9416  140.1110  157.1051 H   0  0  0  0  0  0  0  0  0  0  0  0  # atno 8008 bound_to 7997
  154.4090  140.1218  156.5001 H   0  0  0  0  0  0  0  0  0  0  0  0  # atno 8009 bound_to 7997
  155.6954  140.3472  155.4913 H   0  0  0  0  0  0  0  0  0  0  0  0  # atno 8010 bound_to 7997
  140.0440  143.5126  152.2116 H   0  0  0  0  0  0  0  0  0  0  0  0  # atno 10167 bound_to 10162
  157.4480  131.1063  151.0066 H   0  0  0  0  0  0  0  0  0  0  0  0  # atno 10718 bound_to 10713
  154.8192  135.3316  154.7088 H   0  0  0  0  0  0  0  0  0  0  0  0  # atno 10763 bound_to 10752
  153.7724  135.6924  153.4908 H   0  0  0  0  0  0  0  0  0  0  0  0  # atno 10764 bound_to 10752
  153.2036  135.4507  155.0244 H   0  0  0  0  0  0  0  0  0  0  0  0  # atno 10765 bound_to 10752
  140.7624  133.8504  155.9136 H   0  0  0  0  0  0  0  0  0  0  0  0  # atno 11005 bound_to 11000
  146.2582  139.6351  142.9380 LP  0  0  0  0  0  0  0  0  0  0  0  0  # atno 17320 bound_to 7965
  145.4962  141.0438  143.2566 LP  0  0  0  0  0  0  0  0  0  0  0  0  # atno 17321 bound_to 7965
  139.5996  144.7578  151.3204 LP  0  0  0  0  0  0  0  0  0  0  0  0  # atno 17342 bound_to 10162
  140.7247  143.7036  150.7825 LP  0  0  0  0  0  0  0  0  0  0  0  0  # atno 17343 bound_to 10162
  157.0906  130.5940  149.5439 LP  0  0  0  0  0  0  0  0  0  0  0  0  # atno 17370 bound_to 10713
  155.9975  130.5047  150.7538 LP  0  0  0  0  0  0  0  0  0  0  0  0  # atno 17371 bound_to 10713
  140.9650  134.1606  157.4623 LP  0  0  0  0  0  0  0  0  0  0  0  0  # atno 17394 bound_to 11000
  139.8768  134.9958  156.5764 LP  0  0  0  0  0  0  0  0  0  0  0  0  # atno 17395 bound_to 11000

$$$$
