AV-unprocessed.smi:2848|AV-procd|sdf|10955|dock2
  -GOLD-   2272015413D 1   1.00000     0.00000
 Structure written by MMmdl.
 27 28  0  0  0  0  0  0  0  0  2 V2000
  147.5052  142.2125  154.6526 Cl  0  0  0  0  0  0  0  0  0  0  0  0
  148.5760  140.8617  154.5165 C   0  0  0  0  0  0  0  0  0  0  0  0
  148.2531  139.8142  153.6293 C   0  0  0  0  0  0  0  0  0  0  0  0
  149.0765  138.7512  153.5108 N   0  3  0  0  0  0  0  0  0  0  0  0
  150.2227  138.6355  154.2139 C   0  0  0  0  0  0  0  0  0  0  0  0
  150.6002  139.6505  155.1162 C   0  0  0  0  0  0  0  0  0  0  0  0
  149.7685  140.7869  155.2784 C   0  0  0  0  0  0  0  0  0  0  0  0
  150.0839  141.8286  156.1640 N   0  0  0  0  0  0  0  0  0  0  0  0
  151.2411  141.7516  157.0436 C   0  0  0  0  0  0  0  0  0  0  0  0
  151.2555  142.8456  158.0923 C   0  0  0  0  0  0  0  0  0  0  0  0
  150.2846  143.7708  158.2386 C   0  0  0  0  0  0  0  0  0  0  0  0
  150.2758  144.7062  159.2420 O   0  0  0  0  0  0  0  0  0  0  0  0
  151.2020  144.4493  160.2919 C   0  0  0  0  0  0  0  0  0  0  0  0
  152.5469  143.9717  159.7196 C   0  0  0  0  0  0  0  0  0  0  0  0
  152.3699  142.8213  158.8981 O   0  0  0  0  0  0  0  0  0  0  0  0
  147.3649  139.7955  153.0147 H   0  0  0  0  0  0  0  0  0  0  0  0
  150.8003  137.7399  154.0357 H   0  0  0  0  0  0  0  0  0  0  0  0
  151.5205  139.5390  155.6698 H   0  0  0  0  0  0  0  0  0  0  0  0
  149.6321  142.7254  156.0492 H   0  0  0  0  0  0  0  0  0  0  0  0
  151.2441  140.7923  157.5619 H   0  0  0  0  0  0  0  0  0  0  0  0
  152.1536  141.8088  156.4486 H   0  0  0  0  0  0  0  0  0  0  0  0
  149.4003  143.8294  157.6211 H   0  0  0  0  0  0  0  0  0  0  0  0
  151.3380  145.3573  160.8796 H   0  0  0  0  0  0  0  0  0  0  0  0
  150.7851  143.6945  160.9601 H   0  0  0  0  0  0  0  0  0  0  0  0
  153.0082  144.7630  159.1271 H   0  0  0  0  0  0  0  0  0  0  0  0
  153.2401  143.7306  160.5255 H   0  0  0  0  0  0  0  0  0  0  0  0
  148.8218  138.0048  152.8633 H   0  0  0  0  0  0  0  0  0  0  0  0
  1  2  1  0  0  0  0
  2  7  1  0  0  0  0
  2  3  2  0  0  0  0
  3  4  1  0  0  0  0
  3 16  1  0  0  0  0
  4  5  2  0  0  0  0
  4 27  1  0  0  0  0
  5  6  1  0  0  0  0
  5 17  1  0  0  0  0
  6  7  2  0  0  0  0
  6 18  1  0  0  0  0
  7  8  1  0  0  0  0
  8  9  1  0  0  0  0
  8 19  1  0  0  0  0
  9 10  1  0  0  0  0
  9 20  1  0  0  0  0
  9 21  1  0  0  0  0
 10 15  1  0  0  0  0
 10 11  2  0  0  0  0
 11 12  1  0  0  0  0
 11 22  1  0  0  0  0
 12 13  1  0  0  0  0
 13 14  1  0  0  0  0
 13 23  1  0  0  0  0
 13 24  1  0  0  0  0
 14 15  1  0  0  0  0
 14 25  1  0  0  0  0
 14 26  1  0  0  0  0
M  CHG  1   4   1
M  END
> <s_m_source_file>
AV-unprocessed.smi

> <i_m_source_file_index>
2848

> <i_lp_mmshare_version>
43012

> <i_f3d_flags>
0

> <s_epik_input>
Q2xjMVtjSF1uW2NIXVtjSF1jMVtOSF1bQ0gyXUMyPVtDSF1PW0NIMl1bQ0gyXU8y

> <s_epik_cmdline>
J2VwaWtfcHl0aG9uJywgJy1waCcsICc3LjAnLCAnLXRuJywgJzgnLCAnLW1hJywgJzIwMCcsICctbWV0YWxfYmluZGluZycsICctaW1hZScsICc8aW5maWxlLm1hZT4nLCAnLW9tYWUnLCAnPG91dGZpbGUubWFlPic=

> <r_lp_tautomer_probability>
1

> <r_epik_Ionization_Penalty>
0.0834524

> <r_epik_Ionization_Penalty_Charging>
0.0831652

> <r_epik_Ionization_Penalty_Neutral>
0.000287151

> <r_epik_State_Penalty>
0.0738416

> <r_epik_Charging_Adjusted_Penalty>
0.157007

> <i_epik_Tot_Q>
1

> <i_epik_Tot_abs_Q>
1

> <r_epik_Metal_State_Penalty>
2.9007

> <b_epik_Metal_Only>
0

> <s_lp_Force_Field>
OPLS_2005

> <r_lp_Energy>
8.04075

> <b_lp_Chiralities_Consistent>
1

> <s_lp_Variant>
AV-unprocessed.smi:2848-1

> <Gold.Version>
5.8.1

> <Gold.Id.Protein>
6NUR|6NUR_protein|mol2

> <Gold.PLP.Fitness>
40.7271

> <Gold.PLP.PLP>
-29.4001

> <Gold.PLP.part.hbond>
-2.7058

> <Gold.PLP.part.metal>
0.0000

> <Gold.PLP.part.buried>
0.1126

> <Gold.PLP.part.nonpolar>
-26.6650

> <Gold.PLP.part.repulsive>
0.3500

> <Gold.PLP.ligand.clash>
0.0000

> <Gold.PLP.ligand.torsion>
0.0649

> <Gold.PLP.Chemscore.Hbond>
2.7638

> <Gold.PLP.Chemscore.CHOScore>
1.0548

> <Gold.PLP.Chemscore.Metal>
0.0000

> <Gold.Chemscore.Hbonds>
donor molecule, donor type, donor heavy atom, donor atom, acceptor molecule, acceptor atom, score
      L1  H     4    27       P1  7948  2.00
      L1  H     8    19       P1  8028  0.67
      L1  C    11    22       P1  8028  1.00
      L1  C    11    22       P1  8029  0.05

> <Gold.PLP.Chemscore.Internal.Correction>
0.0012

> <Gold.Rescore>
     Score         DG    S(hbond)    S(metal)    S(lipo)     H(rot)  DE(clash)    DE(int)     intcor
     18.09     -18.36       1.70        0.00      88.29       1.22       0.14       0.13       ----

> <Gold.Chemscore.Fitness>
18.0945

> <Gold.Chemscore.DG>
-18.3579

> <Gold.Chemscore.ZeroCoef>
-5.4800

> <Gold.Chemscore.Hbond>
1.6983

> <Gold.Chemscore.Metal>
0.0000

> <Gold.Chemscore.Lipo>
88.2934

> <Gold.Chemscore.Internal_Hbond>
0.0000

> <Gold.Chemscore.DEClash>
0.1360

> <Gold.Chemscore.DEInternal>
0.1274

> <Gold.Chemscore.Rot>
1.2206

> <Gold.Chemscore.Internal.Correction>
   9.000000E+99

> <Gold.Chemscore.Hbonds>
donor molecule, donor type, donor heavy atom, donor atom, acceptor molecule, acceptor atom, score
      L1  H     4    27       P1  7948  0.94
      L1  H     8    19       P1  8028  0.67

> <Gold.Chemscore.Hbond.Weighted>
-5.6723

> <Gold.Chemscore.Metal.Weighted>
-0.0000

> <Gold.Chemscore.Lipo.Weighted>
-10.3303

> <Gold.Chemscore.Internal_Hbond.Weighted>
0.0000

> <Gold.Chemscore.DEClash.Weighted>
0.1360

> <Gold.Chemscore.DEInternal.Weighted>
0.1274

> <Gold.Chemscore.Rot.Weighted>
3.1247

> <Gold.Chemscore.Internal.Correction.Weighted>
   9.000000E+99

> <Gold.Protein.RotatedTorsions>
[ 6907 6896 6895 6894 ] final  -70.54 input  -60.11 | X-H torsion
[ 7974 7965 7964 7962 ] final  -29.49 input  175.53 | X-H torsion
[ 8008 7997 7996 7995 ] final  -11.69 input   59.86 | X-H torsion
[ 10167 10162 10161 10158 ] final -115.17 input  -65.29 | X-H torsion
[ 10718 10713 10712 10709 ] final   -5.09 input   66.30 | X-H torsion
[ 10763 10752 10751 10750 ] final   59.51 input  -60.55 | X-H torsion
[ 11005 11000 10999 10996 ] final -107.32 input  -57.11 | X-H torsion

> <Gold.Protein.ActiveResidues>
 VAL166  LYS551  ARG553  GLY616  TRP617  ASP618  TYR619  PRO620  LYS621  CYS622 
 ASP623  PHE694  ASN695  SER759  ASP760  ASP761  ALA762  ILE779  LEU786  VAL792 
 PHE793  MET794  SER795  GLU796  ALA797  LYS798  CYS799  TRP800  GLU811  SER814 

> <Gold.Protein.RotatedAtoms>
  150.7253  134.5439  159.5760 H   0  0  0  0  0  0  0  0  0  0  0  0  # atno 6907 bound_to 6896
  152.2942  134.7683  160.0380 H   0  0  0  0  0  0  0  0  0  0  0  0  # atno 6908 bound_to 6896
  151.8286  133.3369  159.3643 H   0  0  0  0  0  0  0  0  0  0  0  0  # atno 6909 bound_to 6896
  146.1213  140.5418  142.8734 H   0  0  0  0  0  0  0  0  0  0  0  0  # atno 7974 bound_to 7965
  154.5442  140.2296  155.8590 H   0  0  0  0  0  0  0  0  0  0  0  0  # atno 8008 bound_to 7997
  156.1887  140.3082  155.9252 H   0  0  0  0  0  0  0  0  0  0  0  0  # atno 8009 bound_to 7997
  155.3196  140.0440  157.3029 H   0  0  0  0  0  0  0  0  0  0  0  0  # atno 8010 bound_to 7997
  140.0930  143.4682  152.1858 H   0  0  0  0  0  0  0  0  0  0  0  0  # atno 10167 bound_to 10162
  156.7517  130.5241  149.5802 H   0  0  0  0  0  0  0  0  0  0  0  0  # atno 10718 bound_to 10713
  152.9896  135.5569  154.5724 H   0  0  0  0  0  0  0  0  0  0  0  0  # atno 10763 bound_to 10752
  154.5122  135.2803  155.1335 H   0  0  0  0  0  0  0  0  0  0  0  0  # atno 10764 bound_to 10752
  154.2722  135.6361  153.5367 H   0  0  0  0  0  0  0  0  0  0  0  0  # atno 10765 bound_to 10752
  141.0960  133.8970  157.1962 H   0  0  0  0  0  0  0  0  0  0  0  0  # atno 11005 bound_to 11000
  144.7600  140.5398  143.6742 LP  0  0  0  0  0  0  0  0  0  0  0  0  # atno 17320 bound_to 7965
  145.5460  139.1476  143.3420 LP  0  0  0  0  0  0  0  0  0  0  0  0  # atno 17321 bound_to 7965
  139.5714  144.7464  151.3882 LP  0  0  0  0  0  0  0  0  0  0  0  0  # atno 17342 bound_to 10162
  140.7018  143.7612  150.7416 LP  0  0  0  0  0  0  0  0  0  0  0  0  # atno 17343 bound_to 10162
  156.1397  130.6235  151.0449 LP  0  0  0  0  0  0  0  0  0  0  0  0  # atno 17370 bound_to 10713
  157.6774  131.0847  150.7459 LP  0  0  0  0  0  0  0  0  0  0  0  0  # atno 17371 bound_to 10713
  139.9797  135.0102  156.9718 LP  0  0  0  0  0  0  0  0  0  0  0  0  # atno 17394 bound_to 11000
  140.5139  134.0974  155.7276 LP  0  0  0  0  0  0  0  0  0  0  0  0  # atno 17395 bound_to 11000

$$$$
