AV-unprocessed.smi:1254|AV-procd|sdf|5280|dock10
  -GOLD-   22720 4403D 1   1.00000     0.00000
 Structure written by MMmdl.
 44 45  0  0  0  0  0  0  0  0  2 V2000
  145.4501  132.8162  161.8937 C   0  0  0  0  0  0  0  0  0  0  0  0
  146.3603  133.7933  161.2323 C   0  0  0  0  0  0  0  0  0  0  0  0
  146.5309  135.1422  161.3644 C   0  0  0  0  0  0  0  0  0  0  0  0
  147.5690  135.4306  160.4368 C   0  0  0  0  0  0  0  0  0  0  0  0
  148.0883  136.6427  160.1879 N   0  5  0  0  0  0  0  0  0  0  0  0
  148.8593  136.8418  159.0937 C   0  0  0  0  0  0  0  0  0  0  0  0
  149.9547  136.3226  158.8677 O   0  0  0  0  0  0  0  0  0  0  0  0
  148.3272  137.6974  158.2094 N   0  0  0  0  0  0  0  0  0  0  0  0
  148.9185  138.0987  156.9368 C   0  0  0  0  0  0  0  0  0  0  0  0
  149.1722  139.6145  156.8831 C   0  0  1  0  0  0  0  0  0  0  0  0
  150.3575  140.0276  157.7776 C   0  0  0  0  0  0  0  0  0  0  0  0
  150.6406  141.4571  157.6961 N   0  0  0  0  0  0  0  0  0  0  0  0
  151.7627  141.8152  158.5654 C   0  0  0  0  0  0  0  0  0  0  0  0
  151.6573  143.1830  159.2736 C   0  0  0  0  0  0  0  0  0  0  0  0
  151.9312  144.3221  158.2805 C   0  0  0  0  0  0  0  0  0  0  0  0
  152.6104  143.2770  160.4761 C   0  0  0  0  0  0  0  0  0  0  0  0
  150.8714  141.8146  156.2981 C   0  0  0  0  0  0  0  0  0  0  0  0
  149.7010  141.3889  155.3958 C   0  0  0  0  0  0  0  0  0  0  0  0
  149.4735  139.9921  155.5419 O   0  0  0  0  0  0  0  0  0  0  0  0
  147.9791  134.3544  159.7862 N   0  0  0  0  0  0  0  0  0  0  0  0
  147.2133  133.2988  160.2955 O   0  0  0  0  0  0  0  0  0  0  0  0
  144.6611  132.5016  161.2108 H   0  0  0  0  0  0  0  0  0  0  0  0
  144.9810  133.2563  162.7738 H   0  0  0  0  0  0  0  0  0  0  0  0
  145.9983  131.9292  162.2115 H   0  0  0  0  0  0  0  0  0  0  0  0
  146.0018  135.8160  162.0217 H   0  0  0  0  0  0  0  0  0  0  0  0
  147.4278  138.0945  158.4378 H   0  0  0  0  0  0  0  0  0  0  0  0
  149.8654  137.5672  156.8405 H   0  0  0  0  0  0  0  0  0  0  0  0
  148.3019  137.7791  156.0950 H   0  0  0  0  0  0  0  0  0  0  0  0
  148.2723  140.1386  157.2110 H   0  0  0  0  0  0  0  0  0  0  0  0
  150.1375  139.7563  158.8108 H   0  0  0  0  0  0  0  0  0  0  0  0
  151.2435  139.4594  157.4889 H   0  0  0  0  0  0  0  0  0  0  0  0
  151.8700  141.0513  159.3371 H   0  0  0  0  0  0  0  0  0  0  0  0
  152.6871  141.7801  157.9869 H   0  0  0  0  0  0  0  0  0  0  0  0
  150.6396  143.3245  159.6362 H   0  0  0  0  0  0  0  0  0  0  0  0
  152.9420  144.2614  157.8760 H   0  0  0  0  0  0  0  0  0  0  0  0
  151.8216  145.2959  158.7585 H   0  0  0  0  0  0  0  0  0  0  0  0
  151.2350  144.2886  157.4420 H   0  0  0  0  0  0  0  0  0  0  0  0
  153.6487  143.1448  160.1703 H   0  0  0  0  0  0  0  0  0  0  0  0
  152.3840  142.5151  161.2225 H   0  0  0  0  0  0  0  0  0  0  0  0
  152.5290  144.2472  160.9669 H   0  0  0  0  0  0  0  0  0  0  0  0
  151.0106  142.8900  156.1977 H   0  0  0  0  0  0  0  0  0  0  0  0
  151.7892  141.3440  155.9421 H   0  0  0  0  0  0  0  0  0  0  0  0
  148.7949  141.9413  155.6492 H   0  0  0  0  0  0  0  0  0  0  0  0
  149.9274  141.6053  154.3518 H   0  0  0  0  0  0  0  0  0  0  0  0
  1  2  1  0  0  0  0
  1 22  1  0  0  0  0
  1 23  1  0  0  0  0
  1 24  1  0  0  0  0
  2 21  1  0  0  0  0
  2  3  2  0  0  0  0
  3  4  1  0  0  0  0
  3 25  1  0  0  0  0
  4  5  1  0  0  0  0
  4 20  2  0  0  0  0
  5  6  1  0  0  0  0
  6  7  2  0  0  0  0
  6  8  1  0  0  0  0
  8  9  1  0  0  0  0
  8 26  1  0  0  0  0
  9 10  1  0  0  0  0
  9 27  1  0  0  0  0
  9 28  1  0  0  0  0
 10 19  1  0  0  0  0
 10 11  1  0  0  0  0
 10 29  1  0  0  0  0
 11 12  1  0  0  0  0
 11 30  1  0  0  0  0
 11 31  1  0  0  0  0
 12 13  1  0  0  0  0
 12 17  1  0  0  0  0
 13 14  1  0  0  0  0
 13 32  1  0  0  0  0
 13 33  1  0  0  0  0
 14 15  1  0  0  0  0
 14 16  1  0  0  0  0
 14 34  1  0  0  0  0
 15 35  1  0  0  0  0
 15 36  1  0  0  0  0
 15 37  1  0  0  0  0
 16 38  1  0  0  0  0
 16 39  1  0  0  0  0
 16 40  1  0  0  0  0
 17 18  1  0  0  0  0
 17 41  1  0  0  0  0
 17 42  1  0  0  0  0
 18 19  1  0  0  0  0
 18 43  1  0  0  0  0
 18 44  1  0  0  0  0
 20 21  1  0  0  0  0
M  CHG  1   5  -1
M  END
> <s_m_source_file>
AV-unprocessed.smi

> <i_m_source_file_index>
1254

> <i_lp_mmshare_version>
43012

> <i_f3d_flags>
0

> <s_epik_input>
W0NIM11jMVtjSF1jKG5vMSlbTkhdQyg9TylbTkhdW0NIMl1bQ0BASF0yW0NIMl1OKFtDSDJdW0NIMl1PMilbQ0gyXVtDSF0oW0NIM10pW0NIM10=

> <s_epik_cmdline>
J2VwaWtfcHl0aG9uJywgJy1waCcsICc3LjAnLCAnLXRuJywgJzgnLCAnLW1hJywgJzIwMCcsICctbWV0YWxfYmluZGluZycsICctaW1hZScsICc8aW5maWxlLm1hZT4nLCAnLW9tYWUnLCAnPG91dGZpbGUubWFlPic=

> <r_epik_Ionization_Penalty>
7.56718

> <r_epik_Ionization_Penalty_Charging>
6.43435

> <r_epik_Ionization_Penalty_Neutral>
1.13283

> <r_epik_State_Penalty>
7.60314

> <r_epik_Charging_Adjusted_Penalty>
14.0375

> <i_epik_Tot_Q>
-1

> <i_epik_Tot_abs_Q>
1

> <r_epik_Metal_State_Penalty>
3.53636

> <b_epik_Metal_Only>
1

> <s_lp_Force_Field>
OPLS_2005

> <r_lp_Energy>
16.636

> <b_lp_Chiralities_Consistent>
1

> <s_lp_Variant>
AV-unprocessed.smi:1254-12

> <Gold.Version>
5.8.1

> <Gold.Id.Protein>
6NUR|6NUR_protein|mol2

> <Gold.PLP.Fitness>
47.2188

> <Gold.PLP.PLP>
-36.8635

> <Gold.PLP.part.hbond>
-2.9944

> <Gold.PLP.part.metal>
0.0000

> <Gold.PLP.part.buried>
-4.9302

> <Gold.PLP.part.nonpolar>
-29.1892

> <Gold.PLP.part.repulsive>
0.2334

> <Gold.PLP.ligand.clash>
0.0000

> <Gold.PLP.ligand.torsion>
1.3466

> <Gold.PLP.Chemscore.Hbond>
4.2820

> <Gold.PLP.Chemscore.CHOScore>
0.0000

> <Gold.PLP.Chemscore.Metal>
0.0000

> <Gold.Chemscore.Hbonds>
donor molecule, donor type, donor heavy atom, donor atom, acceptor molecule, acceptor atom, score
      P1  H  6896  6908       L1     7  1.00

> <Gold.PLP.Chemscore.Internal.Correction>
0.2025

> <Gold.Rescore>
     Score         DG    S(hbond)    S(metal)    S(lipo)     H(rot)  DE(clash)    DE(int)     intcor
     16.87     -18.29       1.85        0.00      92.90       1.65       0.06       1.36       ----

> <Gold.Chemscore.Fitness>
16.8654

> <Gold.Chemscore.DG>
-18.2882

> <Gold.Chemscore.ZeroCoef>
-5.4800

> <Gold.Chemscore.Hbond>
1.8474

> <Gold.Chemscore.Metal>
0.0000

> <Gold.Chemscore.Lipo>
92.8952

> <Gold.Chemscore.Internal_Hbond>
0.0000

> <Gold.Chemscore.DEClash>
0.0588

> <Gold.Chemscore.DEInternal>
1.3640

> <Gold.Chemscore.Rot>
1.6526

> <Gold.Chemscore.Internal.Correction>
   9.000000E+99

> <Gold.Chemscore.Hbonds>
donor molecule, donor type, donor heavy atom, donor atom, acceptor molecule, acceptor atom, score
      P1  H  6896  6908       L1     7  1.00

> <Gold.Chemscore.Hbond.Weighted>
-6.1702

> <Gold.Chemscore.Metal.Weighted>
-0.0000

> <Gold.Chemscore.Lipo.Weighted>
-10.8687

> <Gold.Chemscore.Internal_Hbond.Weighted>
0.0000

> <Gold.Chemscore.DEClash.Weighted>
0.0588

> <Gold.Chemscore.DEInternal.Weighted>
1.3640

> <Gold.Chemscore.Rot.Weighted>
4.2308

> <Gold.Chemscore.Internal.Correction.Weighted>
   9.000000E+99

> <Gold.Protein.RotatedTorsions>
[ 6907 6896 6895 6894 ] final -165.04 input  -60.11 | X-H torsion
[ 7974 7965 7964 7962 ] final  -30.77 input  175.53 | X-H torsion
[ 8008 7997 7996 7995 ] final  -74.77 input   59.86 | X-H torsion
[ 10167 10162 10161 10158 ] final  -78.21 input  -65.29 | X-H torsion
[ 10718 10713 10712 10709 ] final  131.33 input   66.30 | X-H torsion
[ 10763 10752 10751 10750 ] final -156.52 input  -60.55 | X-H torsion
[ 11005 11000 10999 10996 ] final   47.77 input  -57.11 | X-H torsion

> <Gold.Protein.ActiveResidues>
 VAL166  LYS551  ARG553  GLY616  TRP617  ASP618  TYR619  PRO620  LYS621  CYS622 
 ASP623  PHE694  ASN695  SER759  ASP760  ASP761  ALA762  ILE779  LEU786  VAL792 
 PHE793  MET794  SER795  GLU796  ALA797  LYS798  CYS799  TRP800  GLU811  SER814 

> <Gold.Protein.RotatedAtoms>
  151.4214  133.3697  159.2756 H   0  0  0  0  0  0  0  0  0  0  0  0  # atno 6907 bound_to 6896
  150.9291  134.8708  159.7550 H   0  0  0  0  0  0  0  0  0  0  0  0  # atno 6908 bound_to 6896
  152.5019  134.4157  159.9516 H   0  0  0  0  0  0  0  0  0  0  0  0  # atno 6909 bound_to 6896
  146.1118  140.5582  142.8774 H   0  0  0  0  0  0  0  0  0  0  0  0  # atno 7974 bound_to 7965
  154.5359  140.0755  156.8426 H   0  0  0  0  0  0  0  0  0  0  0  0  # atno 8008 bound_to 7997
  155.3279  140.3400  155.4222 H   0  0  0  0  0  0  0  0  0  0  0  0  # atno 8009 bound_to 7997
  156.1827  140.1658  156.8229 H   0  0  0  0  0  0  0  0  0  0  0  0  # atno 8010 bound_to 7997
  140.4702  143.2429  151.8217 H   0  0  0  0  0  0  0  0  0  0  0  0  # atno 10167 bound_to 10162
  157.4978  131.1093  150.9469 H   0  0  0  0  0  0  0  0  0  0  0  0  # atno 10718 bound_to 10713
  154.7706  135.3144  154.8197 H   0  0  0  0  0  0  0  0  0  0  0  0  # atno 10763 bound_to 10752
  153.8933  135.6823  153.4763 H   0  0  0  0  0  0  0  0  0  0  0  0  # atno 10764 bound_to 10752
  153.1319  135.4776  154.9297 H   0  0  0  0  0  0  0  0  0  0  0  0  # atno 10765 bound_to 10752
  140.1250  134.4780  155.8567 H   0  0  0  0  0  0  0  0  0  0  0  0  # atno 11005 bound_to 11000
  144.7518  140.5210  143.6796 LP  0  0  0  0  0  0  0  0  0  0  0  0  # atno 17320 bound_to 7965
  145.5648  139.1481  143.3321 LP  0  0  0  0  0  0  0  0  0  0  0  0  # atno 17321 bound_to 7965
  139.4817  144.4901  151.9196 LP  0  0  0  0  0  0  0  0  0  0  0  0  # atno 17342 bound_to 10162
  140.3986  144.2522  150.5894 LP  0  0  0  0  0  0  0  0  0  0  0  0  # atno 17343 bound_to 10162
  157.0150  130.5651  149.5325 LP  0  0  0  0  0  0  0  0  0  0  0  0  # atno 17370 bound_to 10713
  156.0211  130.5305  150.8277 LP  0  0  0  0  0  0  0  0  0  0  0  0  # atno 17371 bound_to 10713
  141.2159  133.6774  156.6960 LP  0  0  0  0  0  0  0  0  0  0  0  0  # atno 17394 bound_to 11000
  140.2916  134.8236  157.4021 LP  0  0  0  0  0  0  0  0  0  0  0  0  # atno 17395 bound_to 11000

$$$$
