AV-unprocessed.smi:3117|AV-procd|sdf|11881|dock10
  -GOLD-   2272017273D 1   1.00000     0.00000
 Structure written by MMmdl.
 37 37  0  0  0  0  0  0  0  0  2 V2000
  147.3589  134.6248  154.9743 C   0  0  0  0  0  0  0  0  0  0  0  0
  146.5057  134.6629  153.6958 C   0  0  1  0  0  0  0  0  0  0  0  0
  146.4420  136.0520  153.1874 N   0  3  0  0  0  0  0  0  0  0  0  0
  146.2959  137.0949  154.2246 C   0  0  0  0  0  0  0  0  0  0  0  0
  145.8844  138.4571  153.6266 C   0  0  0  0  0  0  0  0  0  0  0  0
  145.8979  139.5418  154.7166 C   0  0  0  0  0  0  0  0  0  0  0  0
  146.7797  138.8753  152.4459 C   0  0  0  0  0  0  0  0  0  0  0  0
  144.5507  138.3546  153.1662 O   0  0  0  0  0  0  0  0  0  0  0  0
  147.0127  133.6846  152.6043 C   0  0  1  0  0  0  0  0  0  0  0  0
  147.5924  132.3821  153.1883 C   0  0  0  0  0  0  0  0  0  0  0  0
  146.0218  133.4187  151.5655 N   0  0  0  0  0  0  0  0  0  0  0  0
  146.1804  132.6847  150.4073 C   0  0  0  0  0  0  0  0  0  0  0  0
  144.9943  132.7209  149.7323 C   0  0  0  0  0  0  0  0  0  0  0  0
  144.1566  133.5149  150.5634 C   0  0  0  0  0  0  0  0  0  0  0  0
  144.7743  133.9345  151.6556 N   0  0  0  0  0  0  0  0  0  0  0  0
  147.4214  133.6124  155.3739 H   0  0  0  0  0  0  0  0  0  0  0  0
  146.9277  135.2576  155.7508 H   0  0  0  0  0  0  0  0  0  0  0  0
  148.3757  134.9744  154.7928 H   0  0  0  0  0  0  0  0  0  0  0  0
  145.4995  134.3433  153.9727 H   0  0  0  0  0  0  0  0  0  0  0  0
  147.2783  136.2395  152.6536 H   0  0  0  0  0  0  0  0  0  0  0  0
  145.5499  136.7664  154.9502 H   0  0  0  0  0  0  0  0  0  0  0  0
  147.2407  137.1918  154.7615 H   0  0  0  0  0  0  0  0  0  0  0  0
  146.8999  139.6760  155.1253 H   0  0  0  0  0  0  0  0  0  0  0  0
  145.2372  139.2839  155.5452 H   0  0  0  0  0  0  0  0  0  0  0  0
  145.5720  140.5061  154.3248 H   0  0  0  0  0  0  0  0  0  0  0  0
  147.8239  138.9498  152.7516 H   0  0  0  0  0  0  0  0  0  0  0  0
  146.4846  139.8484  152.0512 H   0  0  0  0  0  0  0  0  0  0  0  0
  146.7271  138.1632  151.6219 H   0  0  0  0  0  0  0  0  0  0  0  0
  144.3419  139.1313  152.6690 H   0  0  0  0  0  0  0  0  0  0  0  0
  147.8449  134.1837  152.1052 H   0  0  0  0  0  0  0  0  0  0  0  0
  148.3947  132.5943  153.8954 H   0  0  0  0  0  0  0  0  0  0  0  0
  148.0082  131.7527  152.4011 H   0  0  0  0  0  0  0  0  0  0  0  0
  146.8368  131.7968  153.7132 H   0  0  0  0  0  0  0  0  0  0  0  0
  147.1150  132.2022  150.1611 H   0  0  0  0  0  0  0  0  0  0  0  0
  144.7605  132.2514  148.7882 H   0  0  0  0  0  0  0  0  0  0  0  0
  143.1267  133.7991  150.4052 H   0  0  0  0  0  0  0  0  0  0  0  0
  145.6491  136.1203  152.5642 H   0  0  0  0  0  0  0  0  0  0  0  0
  1  2  1  0  0  0  0
  1 16  1  0  0  0  0
  1 17  1  0  0  0  0
  1 18  1  0  0  0  0
  2  3  1  0  0  0  0
  2  9  1  0  0  0  0
  2 19  1  0  0  0  0
  3  4  1  0  0  0  0
  3 20  1  0  0  0  0
  3 37  1  0  0  0  0
  4  5  1  0  0  0  0
  4 21  1  0  0  0  0
  4 22  1  0  0  0  0
  5  6  1  0  0  0  0
  5  7  1  0  0  0  0
  5  8  1  0  0  0  0
  6 23  1  0  0  0  0
  6 24  1  0  0  0  0
  6 25  1  0  0  0  0
  7 26  1  0  0  0  0
  7 27  1  0  0  0  0
  7 28  1  0  0  0  0
  8 29  1  0  0  0  0
  9 10  1  0  0  0  0
  9 11  1  0  0  0  0
  9 30  1  0  0  0  0
 10 31  1  0  0  0  0
 10 32  1  0  0  0  0
 10 33  1  0  0  0  0
 11 15  1  0  0  0  0
 11 12  1  0  0  0  0
 12 13  2  0  0  0  0
 12 34  1  0  0  0  0
 13 14  1  0  0  0  0
 13 35  1  0  0  0  0
 14 15  2  0  0  0  0
 14 36  1  0  0  0  0
M  CHG  1   3   1
M  END
> <s_m_source_file>
AV-unprocessed.smi

> <i_m_source_file_index>
3117

> <i_lp_mmshare_version>
43012

> <i_f3d_flags>
0

> <s_epik_input>
W0NIM11DKFtDSDNdKShbT0hdKVtDSDJdW05IXVtDQEBIXShbQ0gzXSlbQ0BIXShbQ0gzXSluMVtjSF1bY0hdW2NIXW4x

> <s_epik_cmdline>
J2VwaWtfcHl0aG9uJywgJy1waCcsICc3LjAnLCAnLXRuJywgJzgnLCAnLW1hJywgJzIwMCcsICctbWV0YWxfYmluZGluZycsICctaW1hZScsICc8aW5maWxlLm1hZT4nLCAnLW9tYWUnLCAnPG91dGZpbGUubWFlPic=

> <r_lp_tautomer_probability>
1

> <r_epik_Ionization_Penalty>
0.0164263

> <r_epik_Ionization_Penalty_Charging>
0.0164138

> <r_epik_Ionization_Penalty_Neutral>
1.24697e-05

> <r_epik_State_Penalty>
0.0129543

> <r_epik_Charging_Adjusted_Penalty>
0.0293681

> <i_epik_Tot_Q>
1

> <i_epik_Tot_abs_Q>
1

> <r_epik_Metal_State_Penalty>
0.0129806

> <b_epik_Metal_Only>
0

> <s_lp_Force_Field>
OPLS_2005

> <r_lp_Energy>
13.722

> <b_lp_Chiralities_Consistent>
1

> <s_lp_Variant>
AV-unprocessed.smi:3117-4

> <Gold.Version>
5.8.1

> <Gold.Id.Protein>
6NUR|6NUR_protein|mol2

> <Gold.PLP.Fitness>
38.8257

> <Gold.PLP.PLP>
-24.9806

> <Gold.PLP.part.hbond>
-2.0000

> <Gold.PLP.part.metal>
0.0000

> <Gold.PLP.part.buried>
-1.2602

> <Gold.PLP.part.nonpolar>
-21.4109

> <Gold.PLP.part.repulsive>
0.1065

> <Gold.PLP.ligand.clash>
0.0000

> <Gold.PLP.ligand.torsion>
0.6523

> <Gold.PLP.Chemscore.Hbond>
3.0000

> <Gold.PLP.Chemscore.CHOScore>
2.0000

> <Gold.PLP.Chemscore.Metal>
0.0000

> <Gold.Chemscore.Hbonds>
donor molecule, donor type, donor heavy atom, donor atom, acceptor molecule, acceptor atom, score
      L1  H     3    20       P1  7948  2.00
      L1  H     8    29       P1 10175  0.91
      L1  C    12    34       P1 10747  1.00
      L1  C    14    36       P1 10186  1.00

> <Gold.PLP.Chemscore.Internal.Correction>
0.1497

> <Gold.Rescore>
     Score         DG    S(hbond)    S(metal)    S(lipo)     H(rot)  DE(clash)    DE(int)     intcor
     12.22     -12.78       1.99        0.00      55.32       2.27       0.02       0.54       ----

> <Gold.Chemscore.Fitness>
12.2179

> <Gold.Chemscore.DG>
-12.7789

> <Gold.Chemscore.ZeroCoef>
-5.4800

> <Gold.Chemscore.Hbond>
1.9894

> <Gold.Chemscore.Metal>
0.0000

> <Gold.Chemscore.Lipo>
55.3171

> <Gold.Chemscore.Internal_Hbond>
0.0000

> <Gold.Chemscore.DEClash>
0.0197

> <Gold.Chemscore.DEInternal>
0.5414

> <Gold.Chemscore.Rot>
2.2725

> <Gold.Chemscore.Internal.Correction>
   9.000000E+99

> <Gold.Chemscore.Hbonds>
donor molecule, donor type, donor heavy atom, donor atom, acceptor molecule, acceptor atom, score
      L1  H     3    20       P1  7948  1.00
      L1  H     8    29       P1 10175  0.85

> <Gold.Chemscore.Hbond.Weighted>
-6.6444

> <Gold.Chemscore.Metal.Weighted>
-0.0000

> <Gold.Chemscore.Lipo.Weighted>
-6.4721

> <Gold.Chemscore.Internal_Hbond.Weighted>
0.0000

> <Gold.Chemscore.DEClash.Weighted>
0.0197

> <Gold.Chemscore.DEInternal.Weighted>
0.5414

> <Gold.Chemscore.Rot.Weighted>
5.8176

> <Gold.Chemscore.Internal.Correction.Weighted>
   9.000000E+99

> <Gold.Protein.RotatedTorsions>
[ 6907 6896 6895 6894 ] final  -98.17 input  -60.11 | X-H torsion
[ 7974 7965 7964 7962 ] final  118.57 input  175.53 | X-H torsion
[ 8008 7997 7996 7995 ] final    7.98 input   59.86 | X-H torsion
[ 10167 10162 10161 10158 ] final -147.62 input  -65.29 | X-H torsion
[ 10718 10713 10712 10709 ] final  -50.37 input   66.30 | X-H torsion
[ 10763 10752 10751 10750 ] final -107.80 input  -60.55 | X-H torsion
[ 11005 11000 10999 10996 ] final -142.54 input  -57.11 | X-H torsion

> <Gold.Protein.ActiveResidues>
 VAL166  LYS551  ARG553  GLY616  TRP617  ASP618  TYR619  PRO620  LYS621  CYS622 
 ASP623  PHE694  ASN695  SER759  ASP760  ASP761  ALA762  ILE779  LEU786  VAL792 
 PHE793  MET794  SER795  GLU796  ALA797  LYS798  CYS799  TRP800  GLU811  SER814 

> <Gold.Protein.RotatedAtoms>
  150.7038  134.1235  159.4043 H   0  0  0  0  0  0  0  0  0  0  0  0  # atno 6907 bound_to 6896
  151.9221  135.0291  160.0532 H   0  0  0  0  0  0  0  0  0  0  0  0  # atno 6908 bound_to 6896
  152.2247  133.4976  159.5219 H   0  0  0  0  0  0  0  0  0  0  0  0  # atno 6909 bound_to 6896
  145.1536  139.3196  143.4554 H   0  0  0  0  0  0  0  0  0  0  0  0  # atno 7974 bound_to 7965
  154.7609  140.2784  155.6215 H   0  0  0  0  0  0  0  0  0  0  0  0  # atno 8008 bound_to 7997
  156.2915  140.2660  156.2314 H   0  0  0  0  0  0  0  0  0  0  0  0  # atno 8009 bound_to 7997
  155.0019  140.0372  157.2353 H   0  0  0  0  0  0  0  0  0  0  0  0  # atno 8010 bound_to 7997
  139.7605  143.8384  152.2606 H   0  0  0  0  0  0  0  0  0  0  0  0  # atno 10167 bound_to 10162
  156.1807  130.4150  149.9511 H   0  0  0  0  0  0  0  0  0  0  0  0  # atno 10718 bound_to 10713
  154.8097  135.4661  154.0484 H   0  0  0  0  0  0  0  0  0  0  0  0  # atno 10763 bound_to 10752
  153.1925  135.6857  153.8341 H   0  0  0  0  0  0  0  0  0  0  0  0  # atno 10764 bound_to 10752
  153.7854  135.3250  155.3349 H   0  0  0  0  0  0  0  0  0  0  0  0  # atno 10765 bound_to 10752
  140.8215  134.2626  157.4898 H   0  0  0  0  0  0  0  0  0  0  0  0  # atno 11005 bound_to 11000
  146.3491  140.1619  142.8590 LP  0  0  0  0  0  0  0  0  0  0  0  0  # atno 17320 bound_to 7965
  145.0405  140.8941  143.5055 LP  0  0  0  0  0  0  0  0  0  0  0  0  # atno 17321 bound_to 7965
  139.8388  144.7219  150.9357 LP  0  0  0  0  0  0  0  0  0  0  0  0  # atno 17342 bound_to 10162
  140.7806  143.4002  151.1162 LP  0  0  0  0  0  0  0  0  0  0  0  0  # atno 17343 bound_to 10162
  156.7282  130.9033  151.3623 LP  0  0  0  0  0  0  0  0  0  0  0  0  # atno 17370 bound_to 10713
  157.6866  130.9192  150.0403 LP  0  0  0  0  0  0  0  0  0  0  0  0  # atno 17371 bound_to 10713
  139.8708  134.9538  156.4155 LP  0  0  0  0  0  0  0  0  0  0  0  0  # atno 17394 bound_to 11000
  140.9094  133.7722  155.9774 LP  0  0  0  0  0  0  0  0  0  0  0  0  # atno 17395 bound_to 11000

$$$$
