AV-unprocessed.smi:108|AV-procd|sdf|1029|dock6
  -GOLD-   2262018 33D 1   1.00000     0.00000
 Structure written by MMmdl.
 59 62  0  0  0  0  0  0  0  0  1 V2000
  150.6923  137.2606  159.8627 O   0  0  0  0  0  0  0  0  0  0  0  0
  150.9879  137.5070  158.6912 C   0  0  0  0  0  0  0  0  0  0  0  0
  152.4000  138.0425  158.3679 C   0  0  0  0  0  0  0  0  0  0  0  0
  152.7241  139.3081  159.0625 N   0  0  0  0  0  0  0  0  0  0  0  0
  153.7363  139.2968  160.0532 C   0  0  0  0  0  0  0  0  0  0  0  0
  154.3620  138.2690  160.3174 O   0  0  0  0  0  0  0  0  0  0  0  0
  153.9587  140.5651  160.7363 C   0  0  0  0  0  0  0  0  0  0  0  0
  154.8674  140.6386  161.7238 F   0  0  0  0  0  0  0  0  0  0  0  0
  153.2520  141.6656  160.4066 C   0  0  0  0  0  0  0  0  0  0  0  0
  152.3001  141.6784  159.4016 N   0  0  0  0  0  0  0  0  0  0  0  0
  151.4454  142.8989  159.1241 C   0  0  2  0  0  0  0  0  0  0  0  0
  151.5320  143.4167  157.6777 C   0  0  0  0  0  0  0  0  0  0  0  0
  152.4240  144.6341  157.8227 C   0  0  0  0  0  0  0  0  0  0  0  0
  152.0596  145.1143  159.2219 C   0  0  0  0  0  0  0  0  0  0  0  0
  151.8845  143.9188  159.9718 O   0  0  0  0  0  0  0  0  0  0  0  0
  151.9775  140.4687  158.7450 C   0  0  0  0  0  0  0  0  0  0  0  0
  151.0639  140.4226  157.9177 O   0  0  0  0  0  0  0  0  0  0  0  0
  150.1044  137.3283  157.6772 N   0  0  0  0  0  0  0  0  0  0  0  0
  148.7311  136.8673  157.9440 C   0  0  0  0  0  0  0  0  0  0  0  0
  148.6767  135.4286  158.5027 C   0  0  0  0  0  0  0  0  0  0  0  0
  148.2997  135.3611  159.9732 C   0  0  0  0  0  0  0  0  0  0  0  0
  148.1162  136.5487  160.7137 C   0  0  0  0  0  0  0  0  0  0  0  0
  147.7435  136.4863  162.0702 C   0  0  0  0  0  0  0  0  0  0  0  0
  147.5561  135.2368  162.6920 C   0  0  0  0  0  0  0  0  0  0  0  0
  147.7417  134.0498  161.9569 C   0  0  0  0  0  0  0  0  0  0  0  0
  148.1128  134.1114  160.5995 C   0  0  0  0  0  0  0  0  0  0  0  0
  150.4252  137.5739  156.2602 C   0  0  0  0  0  0  0  0  0  0  0  0
  149.5685  138.6335  155.5757 C   0  0  0  0  0  0  0  0  0  0  0  0
  148.1983  138.4200  155.2981 C   0  0  0  0  0  0  0  0  0  0  0  0
  147.4381  139.4196  154.6609 C   0  0  0  0  0  0  0  0  0  0  0  0
  148.0379  140.6418  154.3031 C   0  0  0  0  0  0  0  0  0  0  0  0
  149.3988  140.8650  154.5860 C   0  0  0  0  0  0  0  0  0  0  0  0
  150.1597  139.8647  155.2213 C   0  0  0  0  0  0  0  0  0  0  0  0
  153.1374  137.2764  158.6091 H   0  0  0  0  0  0  0  0  0  0  0  0
  152.4918  138.1758  157.2895 H   0  0  0  0  0  0  0  0  0  0  0  0
  153.4502  142.5621  160.9714 H   0  0  0  0  0  0  0  0  0  0  0  0
  150.4204  142.6080  159.3598 H   0  0  0  0  0  0  0  0  0  0  0  0
  151.8799  142.6676  156.9666 H   0  0  0  0  0  0  0  0  0  0  0  0
  150.5330  143.7293  157.3709 H   0  0  0  0  0  0  0  0  0  0  0  0
  153.4763  144.3523  157.7859 H   0  0  0  0  0  0  0  0  0  0  0  0
  152.2469  145.3876  157.0548 H   0  0  0  0  0  0  0  0  0  0  0  0
  152.8237  145.7558  159.6615 H   0  0  0  0  0  0  0  0  0  0  0  0
  151.1182  145.6655  159.2046 H   0  0  0  0  0  0  0  0  0  0  0  0
  148.2425  137.5400  158.6498 H   0  0  0  0  0  0  0  0  0  0  0  0
  148.1299  136.9341  157.0356 H   0  0  0  0  0  0  0  0  0  0  0  0
  147.9632  134.8395  157.9258 H   0  0  0  0  0  0  0  0  0  0  0  0
  149.6424  134.9405  158.3650 H   0  0  0  0  0  0  0  0  0  0  0  0
  148.2502  137.5113  160.2411 H   0  0  0  0  0  0  0  0  0  0  0  0
  147.5996  137.3973  162.6322 H   0  0  0  0  0  0  0  0  0  0  0  0
  147.2695  135.1888  163.7321 H   0  0  0  0  0  0  0  0  0  0  0  0
  147.5968  133.0917  162.4337 H   0  0  0  0  0  0  0  0  0  0  0  0
  148.2474  133.1980  160.0387 H   0  0  0  0  0  0  0  0  0  0  0  0
  151.4663  137.8799  156.1528 H   0  0  0  0  0  0  0  0  0  0  0  0
  150.3666  136.6411  155.6990 H   0  0  0  0  0  0  0  0  0  0  0  0
  147.7174  137.4914  155.5673 H   0  0  0  0  0  0  0  0  0  0  0  0
  146.3935  139.2480  154.4467 H   0  0  0  0  0  0  0  0  0  0  0  0
  147.4542  141.4078  153.8140 H   0  0  0  0  0  0  0  0  0  0  0  0
  149.8596  141.8034  154.3154 H   0  0  0  0  0  0  0  0  0  0  0  0
  151.2034  140.0447  155.4341 H   0  0  0  0  0  0  0  0  0  0  0  0
  1  2  2  0  0  0  0
  2  3  1  0  0  0  0
  2 18  1  0  0  0  0
  3  4  1  0  0  0  0
  3 34  1  0  0  0  0
  3 35  1  0  0  0  0
  4 16  1  0  0  0  0
  4  5  1  0  0  0  0
  5  6  2  0  0  0  0
  5  7  1  0  0  0  0
  7  8  1  0  0  0  0
  7  9  2  0  0  0  0
  9 10  1  0  0  0  0
  9 36  1  0  0  0  0
 10 11  1  0  0  0  0
 10 16  1  0  0  0  0
 11 15  1  0  0  0  0
 11 12  1  0  0  0  0
 11 37  1  0  0  0  0
 12 13  1  0  0  0  0
 12 38  1  0  0  0  0
 12 39  1  0  0  0  0
 13 14  1  0  0  0  0
 13 40  1  0  0  0  0
 13 41  1  0  0  0  0
 14 15  1  0  0  0  0
 14 42  1  0  0  0  0
 14 43  1  0  0  0  0
 16 17  2  0  0  0  0
 18 19  1  0  0  0  0
 18 27  1  0  0  0  0
 19 20  1  0  0  0  0
 19 44  1  0  0  0  0
 19 45  1  0  0  0  0
 20 21  1  0  0  0  0
 20 46  1  0  0  0  0
 20 47  1  0  0  0  0
 21 26  1  0  0  0  0
 21 22  2  0  0  0  0
 22 23  1  0  0  0  0
 22 48  1  0  0  0  0
 23 24  2  0  0  0  0
 23 49  1  0  0  0  0
 24 25  1  0  0  0  0
 24 50  1  0  0  0  0
 25 26  2  0  0  0  0
 25 51  1  0  0  0  0
 26 52  1  0  0  0  0
 27 28  1  0  0  0  0
 27 53  1  0  0  0  0
 27 54  1  0  0  0  0
 28 33  1  0  0  0  0
 28 29  2  0  0  0  0
 29 30  1  0  0  0  0
 29 55  1  0  0  0  0
 30 31  2  0  0  0  0
 30 56  1  0  0  0  0
 31 32  1  0  0  0  0
 31 57  1  0  0  0  0
 32 33  2  0  0  0  0
 32 58  1  0  0  0  0
 33 59  1  0  0  0  0
M  END
> <s_m_source_file>
AV-unprocessed.smi

> <i_m_source_file_index>
108

> <i_lp_mmshare_version>
43012

> <i_f3d_flags>
0

> <s_epik_input>
W2NIXTFbY0hdW2NIXVtjSF1bY0hdYzFbQ0gyXVtDSDJdTihbQ0gyXWMyW2NIXVtjSF1bY0hdW2NIXVtjSF0yKUMoPU8pW0NIMl1uM2MoPU8pYyhGKVtjSF1uKGMzPU8pW0NAQEhdNFtDSDJdW0NIMl1bQ0gyXU80

> <s_epik_cmdline>
J2VwaWtfcHl0aG9uJywgJy1waCcsICc3LjAnLCAnLXRuJywgJzgnLCAnLW1hJywgJzIwMCcsICctbWV0YWxfYmluZGluZycsICctaW1hZScsICc8aW5maWxlLm1hZT4nLCAnLW9tYWUnLCAnPG91dGZpbGUubWFlPic=

> <r_lp_tautomer_probability>
1

> <r_epik_Ionization_Penalty>
5.46209e-09

> <r_epik_Ionization_Penalty_Charging>
4.22697e-09

> <r_epik_Ionization_Penalty_Neutral>
1.23512e-09

> <r_epik_State_Penalty>
-0

> <r_epik_Charging_Adjusted_Penalty>
4.22697e-09

> <i_epik_Tot_Q>
0

> <i_epik_Tot_abs_Q>
0

> <r_epik_Metal_State_Penalty>
-0

> <b_epik_Metal_Only>
0

> <s_epik_Chemistry_Notes>
This compound contains an acetal/aminal-like group ( X-CH(R)-Y where X, Y are N, S, or O) that may be acid/base labile, releasing an aldehyde.

> <s_lp_Force_Field>
OPLS_2005

> <r_lp_Energy>
39.1501

> <b_lp_Chiralities_Consistent>
1

> <s_lp_Variant>
AV-unprocessed.smi:108-1

> <Gold.Version>
5.8.1

> <Gold.Id.Protein>
6NUR|6NUR_protein|mol2

> <Gold.PLP.Fitness>
64.2377

> <Gold.PLP.PLP>
-63.3361

> <Gold.PLP.part.hbond>
-1.1241

> <Gold.PLP.part.metal>
0.0000

> <Gold.PLP.part.buried>
-8.3510

> <Gold.PLP.part.nonpolar>
-54.1346

> <Gold.PLP.part.repulsive>
0.0549

> <Gold.PLP.ligand.clash>
0.0000

> <Gold.PLP.ligand.torsion>
0.5655

> <Gold.PLP.Chemscore.Hbond>
0.6012

> <Gold.PLP.Chemscore.CHOScore>
0.0000

> <Gold.PLP.Chemscore.Metal>
0.0000

> <Gold.Chemscore.Hbonds>
donor molecule, donor type, donor heavy atom, donor atom, acceptor molecule, acceptor atom, score
      P1  H  6896  6907       L1     1  0.51

> <Gold.PLP.Chemscore.Internal.Correction>
0.2288

> <Gold.Rescore>
     Score         DG    S(hbond)    S(metal)    S(lipo)     H(rot)  DE(clash)    DE(int)     intcor
     16.61     -18.66       0.98        0.00     134.60       2.28       0.03       2.02       ----

> <Gold.Chemscore.Fitness>
16.6133

> <Gold.Chemscore.DG>
-18.6627

> <Gold.Chemscore.ZeroCoef>
-5.4800

> <Gold.Chemscore.Hbond>
0.9761

> <Gold.Chemscore.Metal>
0.0000

> <Gold.Chemscore.Lipo>
134.5974

> <Gold.Chemscore.Internal_Hbond>
0.0000

> <Gold.Chemscore.DEClash>
0.0256

> <Gold.Chemscore.DEInternal>
2.0238

> <Gold.Chemscore.Rot>
2.2756

> <Gold.Chemscore.Internal.Correction>
   9.000000E+99

> <Gold.Chemscore.Hbonds>
donor molecule, donor type, donor heavy atom, donor atom, acceptor molecule, acceptor atom, score
      P1  H  6896  6907       L1     1  0.11

> <Gold.Chemscore.Hbond.Weighted>
-3.2602

> <Gold.Chemscore.Metal.Weighted>
-0.0000

> <Gold.Chemscore.Lipo.Weighted>
-15.7479

> <Gold.Chemscore.Internal_Hbond.Weighted>
0.0000

> <Gold.Chemscore.DEClash.Weighted>
0.0256

> <Gold.Chemscore.DEInternal.Weighted>
2.0238

> <Gold.Chemscore.Rot.Weighted>
5.8255

> <Gold.Chemscore.Internal.Correction.Weighted>
   9.000000E+99

> <Gold.Protein.RotatedTorsions>
[ 6907 6896 6895 6894 ] final  -28.25 input  -60.11 | X-H torsion
[ 7974 7965 7964 7962 ] final  -60.07 input  175.53 | X-H torsion
[ 8008 7997 7996 7995 ] final  -33.13 input   59.86 | X-H torsion
[ 10167 10162 10161 10158 ] final  -37.17 input  -65.29 | X-H torsion
[ 10718 10713 10712 10709 ] final   52.20 input   66.30 | X-H torsion
[ 10763 10752 10751 10750 ] final   44.25 input  -60.55 | X-H torsion
[ 11005 11000 10999 10996 ] final   18.44 input  -57.11 | X-H torsion

> <Gold.Protein.ActiveResidues>
 VAL166  LYS551  ARG553  GLY616  TRP617  ASP618  TYR619  PRO620  LYS621  CYS622 
 ASP623  PHE694  ASN695  SER759  ASP760  ASP761  ALA762  ILE779  LEU786  VAL792 
 PHE793  MET794  SER795  GLU796  ALA797  LYS798  CYS799  TRP800  GLU811  SER814 

> <Gold.Protein.RotatedAtoms>
  151.1356  135.0153  159.8601 H   0  0  0  0  0  0  0  0  0  0  0  0  # atno 6907 bound_to 6896
  152.5452  134.1560  159.8548 H   0  0  0  0  0  0  0  0  0  0  0  0  # atno 6908 bound_to 6896
  151.1630  133.4787  159.2627 H   0  0  0  0  0  0  0  0  0  0  0  0  # atno 6909 bound_to 6896
  145.8199  140.8547  143.0138 H   0  0  0  0  0  0  0  0  0  0  0  0  # atno 7974 bound_to 7965
  154.4158  140.1719  156.1839 H   0  0  0  0  0  0  0  0  0  0  0  0  # atno 8008 bound_to 7997
  155.9659  140.3389  155.6508 H   0  0  0  0  0  0  0  0  0  0  0  0  # atno 8009 bound_to 7997
  155.6688  140.0709  157.2518 H   0  0  0  0  0  0  0  0  0  0  0  0  # atno 8010 bound_to 7997
  140.7125  143.3360  151.2463 H   0  0  0  0  0  0  0  0  0  0  0  0  # atno 10167 bound_to 10162
  157.5052  130.8464  149.8366 H   0  0  0  0  0  0  0  0  0  0  0  0  # atno 10718 bound_to 10713
  152.9845  135.6076  154.3243 H   0  0  0  0  0  0  0  0  0  0  0  0  # atno 10763 bound_to 10752
  154.2951  135.2774  155.2639 H   0  0  0  0  0  0  0  0  0  0  0  0  # atno 10764 bound_to 10752
  154.4917  135.5890  153.6520 H   0  0  0  0  0  0  0  0  0  0  0  0  # atno 10765 bound_to 10752
  140.4248  134.1481  155.7675 H   0  0  0  0  0  0  0  0  0  0  0  0  # atno 11005 bound_to 11000
  144.6749  140.0518  143.7478 LP  0  0  0  0  0  0  0  0  0  0  0  0  # atno 17320 bound_to 7965
  145.9686  139.2853  143.1112 LP  0  0  0  0  0  0  0  0  0  0  0  0  # atno 17321 bound_to 7965
  139.6855  143.9782  152.2831 LP  0  0  0  0  0  0  0  0  0  0  0  0  # atno 17342 bound_to 10162
  139.9426  144.6672  150.8251 LP  0  0  0  0  0  0  0  0  0  0  0  0  # atno 17343 bound_to 10162
  156.0254  130.3781  150.1839 LP  0  0  0  0  0  0  0  0  0  0  0  0  # atno 17370 bound_to 10713
  157.0029  130.9928  151.3386 LP  0  0  0  0  0  0  0  0  0  0  0  0  # atno 17371 bound_to 10713
  141.1769  133.8494  157.1390 LP  0  0  0  0  0  0  0  0  0  0  0  0  # atno 17394 bound_to 11000
  140.0175  134.9961  157.0523 LP  0  0  0  0  0  0  0  0  0  0  0  0  # atno 17395 bound_to 11000

$$$$
