AV-unprocessed.smi:2079|AV-procd|sdf|8477|dock4
  -GOLD-   2272011183D 1   1.00000     0.00000
 Structure written by MMmdl.
 42 43  0  0  0  0  0  0  0  0  2 V2000
  151.6086  141.0099  158.3358 C   0  0  0  0  0  0  0  0  0  0  0  0
  151.2901  140.2087  157.1202 C   0  0  0  0  0  0  0  0  0  0  0  0
  150.8270  138.9356  156.9400 C   0  0  0  0  0  0  0  0  0  0  0  0
  150.7582  138.8176  155.5264 C   0  0  0  0  0  0  0  0  0  0  0  0
  150.3178  137.6153  154.9163 N   0  0  0  0  0  0  0  0  0  0  0  0
  149.8303  136.5206  155.5248 C   0  0  0  0  0  0  0  0  0  0  0  0
  149.6876  136.3869  156.7405 O   0  0  0  0  0  0  0  0  0  0  0  0
  149.5122  135.5667  154.6374 N   0  0  0  0  0  0  0  0  0  0  0  0
  148.9498  134.2662  154.9823 C   0  0  0  0  0  0  0  0  0  0  0  0
  148.6136  133.4442  153.7220 C   0  0  0  0  0  0  0  0  0  0  0  0
  147.6350  134.1133  152.8230 N   0  3  2  0  0  0  0  0  0  0  0  0
  146.5719  134.8212  153.5871 C   0  0  0  0  0  0  0  0  0  0  0  0
  145.7014  135.6901  152.6658 C   0  0  0  0  0  0  0  0  0  0  0  0
  145.0957  134.8564  151.5315 C   0  0  0  0  0  0  0  0  0  0  0  0
  146.2096  134.1235  150.7719 C   0  0  0  0  0  0  0  0  0  0  0  0
  147.0933  133.2720  151.7088 C   0  0  2  0  0  0  0  0  0  0  0  0
  146.3705  131.9957  152.1911 C   0  0  0  0  0  0  0  0  0  0  0  0
  151.1394  139.9205  154.9001 N   0  0  0  0  0  0  0  0  0  0  0  0
  151.4836  140.8172  155.9185 O   0  0  0  0  0  0  0  0  0  0  0  0
  151.2092  140.5338  159.2315 H   0  0  0  0  0  0  0  0  0  0  0  0
  151.1799  142.0098  158.2645 H   0  0  0  0  0  0  0  0  0  0  0  0
  152.6868  141.1113  158.4589 H   0  0  0  0  0  0  0  0  0  0  0  0
  150.5811  138.2081  157.6995 H   0  0  0  0  0  0  0  0  0  0  0  0
  150.3765  137.5890  153.9090 H   0  0  0  0  0  0  0  0  0  0  0  0
  149.6602  135.7565  153.6566 H   0  0  0  0  0  0  0  0  0  0  0  0
  149.6403  133.7192  155.6268 H   0  0  0  0  0  0  0  0  0  0  0  0
  148.0537  134.4576  155.5715 H   0  0  0  0  0  0  0  0  0  0  0  0
  149.5214  133.1895  153.1746 H   0  0  0  0  0  0  0  0  0  0  0  0
  148.1802  132.4943  154.0378 H   0  0  0  0  0  0  0  0  0  0  0  0
  145.9555  134.1014  154.1264 H   0  0  0  0  0  0  0  0  0  0  0  0
  147.0289  135.4623  154.3420 H   0  0  0  0  0  0  0  0  0  0  0  0
  144.9085  136.1669  153.2431 H   0  0  0  0  0  0  0  0  0  0  0  0
  146.3052  136.4958  152.2461 H   0  0  0  0  0  0  0  0  0  0  0  0
  144.3806  134.1395  151.9361 H   0  0  0  0  0  0  0  0  0  0  0  0
  144.5377  135.4990  150.8500 H   0  0  0  0  0  0  0  0  0  0  0  0
  145.7792  133.5017  149.9862 H   0  0  0  0  0  0  0  0  0  0  0  0
  146.8343  134.8598  150.2637 H   0  0  0  0  0  0  0  0  0  0  0  0
  147.9353  132.9473  151.0989 H   0  0  0  0  0  0  0  0  0  0  0  0
  145.9793  131.4330  151.3431 H   0  0  0  0  0  0  0  0  0  0  0  0
  145.5288  132.2169  152.8468 H   0  0  0  0  0  0  0  0  0  0  0  0
  147.0434  131.3261  152.7258 H   0  0  0  0  0  0  0  0  0  0  0  0
  148.1587  134.8477  152.3682 H   0  0  0  0  0  0  0  0  0  0  0  0
  1  2  1  0  0  0  0
  1 20  1  0  0  0  0
  1 21  1  0  0  0  0
  1 22  1  0  0  0  0
  2 19  1  0  0  0  0
  2  3  2  0  0  0  0
  3  4  1  0  0  0  0
  3 23  1  0  0  0  0
  4  5  1  0  0  0  0
  4 18  2  0  0  0  0
  5  6  1  0  0  0  0
  5 24  1  0  0  0  0
  6  7  2  0  0  0  0
  6  8  1  0  0  0  0
  8  9  1  0  0  0  0
  8 25  1  0  0  0  0
  9 10  1  0  0  0  0
  9 26  1  0  0  0  0
  9 27  1  0  0  0  0
 10 11  1  0  0  0  0
 10 28  1  0  0  0  0
 10 29  1  0  0  0  0
 11 16  1  0  0  0  0
 11 12  1  0  0  0  0
 11 42  1  0  0  0  0
 12 13  1  0  0  0  0
 12 30  1  0  0  0  0
 12 31  1  0  0  0  0
 13 14  1  0  0  0  0
 13 32  1  0  0  0  0
 13 33  1  0  0  0  0
 14 15  1  0  0  0  0
 14 34  1  0  0  0  0
 14 35  1  0  0  0  0
 15 16  1  0  0  0  0
 15 36  1  0  0  0  0
 15 37  1  0  0  0  0
 16 17  1  0  0  0  0
 16 38  1  0  0  0  0
 17 39  1  0  0  0  0
 17 40  1  0  0  0  0
 17 41  1  0  0  0  0
 18 19  1  0  0  0  0
M  CHG  1  11   1
M  END
> <s_m_source_file>
AV-unprocessed.smi

> <i_m_source_file_index>
2079

> <i_lp_mmshare_version>
43012

> <i_f3d_flags>
0

> <s_epik_input>
W0NIM11jMVtjSF1jKG5vMSlbTkhdQyg9TylbTkhdW0NIMl1bQ0gyXU4yW0NIMl1bQ0gyXVtDSDJdW0NIMl1bQ0BIXTJbQ0gzXQ==

> <s_epik_cmdline>
J2VwaWtfcHl0aG9uJywgJy1waCcsICc3LjAnLCAnLXRuJywgJzgnLCAnLW1hJywgJzIwMCcsICctbWV0YWxfYmluZGluZycsICctaW1hZScsICc8aW5maWxlLm1hZT4nLCAnLW9tYWUnLCAnPG91dGZpbGUubWFlPic=

> <r_epik_Ionization_Penalty>
0.00265971

> <r_epik_Ionization_Penalty_Charging>
0.00262393

> <r_epik_Ionization_Penalty_Neutral>
3.57846e-05

> <r_epik_State_Penalty>
0.00182566

> <r_epik_Charging_Adjusted_Penalty>
0.00444959

> <i_epik_Tot_Q>
1

> <i_epik_Tot_abs_Q>
1

> <r_epik_Metal_State_Penalty>
0.0216344

> <b_epik_Metal_Only>
0

> <s_lp_Force_Field>
OPLS_2005

> <r_lp_Energy>
16.7127

> <b_lp_Chiralities_Consistent>
1

> <s_lp_Variant>
AV-unprocessed.smi:2079-3

> <Gold.Version>
5.8.1

> <Gold.Id.Protein>
6NUR|6NUR_protein|mol2

> <Gold.PLP.Fitness>
37.4297

> <Gold.PLP.PLP>
-26.1195

> <Gold.PLP.part.hbond>
-3.4698

> <Gold.PLP.part.metal>
0.0000

> <Gold.PLP.part.buried>
-3.7549

> <Gold.PLP.part.nonpolar>
-18.6169

> <Gold.PLP.part.repulsive>
0.1493

> <Gold.PLP.ligand.clash>
0.0000

> <Gold.PLP.ligand.torsion>
0.1447

> <Gold.PLP.Chemscore.Hbond>
3.8500

> <Gold.PLP.Chemscore.CHOScore>
0.0000

> <Gold.PLP.Chemscore.Metal>
0.0000

> <Gold.Chemscore.Hbonds>
donor molecule, donor type, donor heavy atom, donor atom, acceptor molecule, acceptor atom, score
      L1  H     8    25       P1  7948  0.90
      L1  H    11    42       P1  7948  2.00
      P1  H  7989  7998       L1    18  0.95

> <Gold.PLP.Chemscore.Internal.Correction>
0.0496

> <Gold.Rescore>
     Score         DG    S(hbond)    S(metal)    S(lipo)     H(rot)  DE(clash)    DE(int)     intcor
     14.37     -15.93       2.79        0.00      44.11       1.57       0.04       1.52       ----

> <Gold.Chemscore.Fitness>
14.3657

> <Gold.Chemscore.DG>
-15.9261

> <Gold.Chemscore.ZeroCoef>
-5.4800

> <Gold.Chemscore.Hbond>
2.7854

> <Gold.Chemscore.Metal>
0.0000

> <Gold.Chemscore.Lipo>
44.1133

> <Gold.Chemscore.Internal_Hbond>
0.0000

> <Gold.Chemscore.DEClash>
0.0402

> <Gold.Chemscore.DEInternal>
1.5201

> <Gold.Chemscore.Rot>
1.5697

> <Gold.Chemscore.Internal.Correction>
   9.000000E+99

> <Gold.Chemscore.Hbonds>
donor molecule, donor type, donor heavy atom, donor atom, acceptor molecule, acceptor atom, score
      L1  H     8    25       P1  7948  0.17
      L1  H    11    42       P1  7948  0.50
      P1  H  7989  7998       L1    18  0.22

> <Gold.Chemscore.Hbond.Weighted>
-9.3033

> <Gold.Chemscore.Metal.Weighted>
-0.0000

> <Gold.Chemscore.Lipo.Weighted>
-5.1613

> <Gold.Chemscore.Internal_Hbond.Weighted>
0.0000

> <Gold.Chemscore.DEClash.Weighted>
0.0402

> <Gold.Chemscore.DEInternal.Weighted>
1.5201

> <Gold.Chemscore.Rot.Weighted>
4.0185

> <Gold.Chemscore.Internal.Correction.Weighted>
   9.000000E+99

> <Gold.Protein.RotatedTorsions>
[ 6907 6896 6895 6894 ] final   43.45 input  -60.11 | X-H torsion
[ 7974 7965 7964 7962 ] final   31.04 input  175.53 | X-H torsion
[ 8008 7997 7996 7995 ] final -173.16 input   59.86 | X-H torsion
[ 10167 10162 10161 10158 ] final -145.73 input  -65.29 | X-H torsion
[ 10718 10713 10712 10709 ] final  -26.15 input   66.30 | X-H torsion
[ 10763 10752 10751 10750 ] final   75.36 input  -60.55 | X-H torsion
[ 11005 11000 10999 10996 ] final -173.31 input  -57.11 | X-H torsion

> <Gold.Protein.ActiveResidues>
 VAL166  LYS551  ARG553  GLY616  TRP617  ASP618  TYR619  PRO620  LYS621  CYS622 
 ASP623  PHE694  ASN695  SER759  ASP760  ASP761  ALA762  ILE779  LEU786  VAL792 
 PHE793  MET794  SER795  GLU796  ALA797  LYS798  CYS799  TRP800  GLU811  SER814 

> <Gold.Protein.RotatedAtoms>
  152.2204  134.8418  160.0486 H   0  0  0  0  0  0  0  0  0  0  0  0  # atno 6907 bound_to 6896
  151.9203  133.3579  159.3903 H   0  0  0  0  0  0  0  0  0  0  0  0  # atno 6908 bound_to 6896
  150.6998  134.4566  159.5405 H   0  0  0  0  0  0  0  0  0  0  0  0  # atno 6909 bound_to 6896
  146.1575  139.6709  142.9056 H   0  0  0  0  0  0  0  0  0  0  0  0  # atno 7974 bound_to 7965
  155.9538  140.1131  157.0954 H   0  0  0  0  0  0  0  0  0  0  0  0  # atno 8008 bound_to 7997
  154.4116  140.1195  156.5155 H   0  0  0  0  0  0  0  0  0  0  0  0  # atno 8009 bound_to 7997
  155.6808  140.3473  155.4857 H   0  0  0  0  0  0  0  0  0  0  0  0  # atno 8010 bound_to 7997
  139.7779  143.8143  152.2634 H   0  0  0  0  0  0  0  0  0  0  0  0  # atno 10167 bound_to 10162
  156.4549  130.4492  149.6965 H   0  0  0  0  0  0  0  0  0  0  0  0  # atno 10718 bound_to 10713
  153.0650  135.4991  154.8179 H   0  0  0  0  0  0  0  0  0  0  0  0  # atno 10763 bound_to 10752
  154.6939  135.2989  154.9442 H   0  0  0  0  0  0  0  0  0  0  0  0  # atno 10764 bound_to 10752
  154.0187  135.6745  153.4823 H   0  0  0  0  0  0  0  0  0  0  0  0  # atno 10765 bound_to 10752
  140.4872  134.6019  157.4941 H   0  0  0  0  0  0  0  0  0  0  0  0  # atno 11005 bound_to 11000
  145.4672  141.0435  143.2718 LP  0  0  0  0  0  0  0  0  0  0  0  0  # atno 17320 bound_to 7965
  144.7982  139.6192  143.7083 LP  0  0  0  0  0  0  0  0  0  0  0  0  # atno 17321 bound_to 7965
  139.8197  144.7301  150.9588 LP  0  0  0  0  0  0  0  0  0  0  0  0  # atno 17342 bound_to 10162
  140.7817  143.4171  151.0900 LP  0  0  0  0  0  0  0  0  0  0  0  0  # atno 17343 bound_to 10162
  156.3777  130.7563  151.2552 LP  0  0  0  0  0  0  0  0  0  0  0  0  # atno 17370 bound_to 10713
  157.7501  131.0305  150.4138 LP  0  0  0  0  0  0  0  0  0  0  0  0  # atno 17371 bound_to 10713
  139.9791  134.7167  155.9894 LP  0  0  0  0  0  0  0  0  0  0  0  0  # atno 17394 bound_to 11000
  141.1502  133.6549  156.3990 LP  0  0  0  0  0  0  0  0  0  0  0  0  # atno 17395 bound_to 11000

$$$$
