AV-unprocessed.smi:1851|AV-procd|sdf|7524|dock3
  -GOLD-   22720 9233D 1   1.00000     0.00000
 Structure written by MMmdl.
 40 42  0  0  0  0  0  0  0  0  2 V2000
  151.8953  135.3538  155.8239 O   0  0  0  0  0  0  0  0  0  0  0  0
  151.0752  135.1836  154.9232 C   0  0  0  0  0  0  0  0  0  0  0  0
  150.7183  136.1262  154.0394 N   0  0  0  0  0  0  0  0  0  0  0  0
  151.2832  137.4711  153.9782 C   0  0  0  0  0  0  0  0  0  0  0  0
  150.2644  138.5722  153.9796 C   0  0  0  0  0  0  0  0  0  0  0  0
  149.0599  138.5800  153.3371 N   0  3  0  0  0  0  0  0  0  0  0  0
  148.4000  139.7856  153.5778 C   0  0  0  0  0  0  0  0  0  0  0  0
  147.1639  140.2523  153.1416 C   0  0  0  0  0  0  0  0  0  0  0  0
  146.7871  141.5418  153.5717 C   0  0  0  0  0  0  0  0  0  0  0  0
  147.6263  142.3136  154.4017 C   0  0  0  0  0  0  0  0  0  0  0  0
  148.8765  141.8283  154.8391 C   0  0  0  0  0  0  0  0  0  0  0  0
  149.2399  140.5522  154.4101 C   0  0  0  0  0  0  0  0  0  0  0  0
  150.3723  139.7629  154.6362 N   0  0  0  0  0  0  0  0  0  0  0  0
  151.4499  140.2834  155.4869 C   0  0  0  0  0  0  0  0  0  0  0  0
  151.5288  139.5468  156.8293 C   0  0  0  0  0  0  0  0  0  0  0  0
  152.5280  140.1696  157.6230 O   0  0  0  0  0  0  0  0  0  0  0  0
  152.2159  141.3546  158.2538 C   0  0  0  0  0  0  0  0  0  0  0  0
  153.0778  141.7738  159.2884 C   0  0  0  0  0  0  0  0  0  0  0  0
  152.8356  142.9716  159.9879 C   0  0  0  0  0  0  0  0  0  0  0  0
  151.7222  143.7662  159.6573 C   0  0  0  0  0  0  0  0  0  0  0  0
  151.4229  145.2344  160.5127 Cl  0  0  0  0  0  0  0  0  0  0  0  0
  150.8538  143.3602  158.6268 C   0  0  0  0  0  0  0  0  0  0  0  0
  151.0968  142.1621  157.9270 C   0  0  0  0  0  0  0  0  0  0  0  0
  150.5347  134.2430  154.7362 H   0  0  0  0  0  0  0  0  0  0  0  0
  150.0309  135.8857  153.3396 H   0  0  0  0  0  0  0  0  0  0  0  0
  151.9774  137.6277  154.8052 H   0  0  0  0  0  0  0  0  0  0  0  0
  151.8718  137.5438  153.0634 H   0  0  0  0  0  0  0  0  0  0  0  0
  146.5199  139.6631  152.5053 H   0  0  0  0  0  0  0  0  0  0  0  0
  145.8359  141.9474  153.2582 H   0  0  0  0  0  0  0  0  0  0  0  0
  147.3050  143.2980  154.7100 H   0  0  0  0  0  0  0  0  0  0  0  0
  149.5127  142.4271  155.4740 H   0  0  0  0  0  0  0  0  0  0  0  0
  152.3928  140.2146  154.9433 H   0  0  0  0  0  0  0  0  0  0  0  0
  151.2645  141.3453  155.6508 H   0  0  0  0  0  0  0  0  0  0  0  0
  150.5622  139.5938  157.3335 H   0  0  0  0  0  0  0  0  0  0  0  0
  151.7783  138.4974  156.6645 H   0  0  0  0  0  0  0  0  0  0  0  0
  153.9346  141.1699  159.5490 H   0  0  0  0  0  0  0  0  0  0  0  0
  153.5055  143.2786  160.7777 H   0  0  0  0  0  0  0  0  0  0  0  0
  149.9987  143.9683  158.3704 H   0  0  0  0  0  0  0  0  0  0  0  0
  150.4085  141.8850  157.1432 H   0  0  0  0  0  0  0  0  0  0  0  0
  148.7165  137.8096  152.7781 H   0  0  0  0  0  0  0  0  0  0  0  0
  1  2  2  0  0  0  0
  2  3  1  0  0  0  0
  2 24  1  0  0  0  0
  3  4  1  0  0  0  0
  3 25  1  0  0  0  0
  4  5  1  0  0  0  0
  4 26  1  0  0  0  0
  4 27  1  0  0  0  0
  5 13  1  0  0  0  0
  5  6  2  0  0  0  0
  6  7  1  0  0  0  0
  6 40  1  0  0  0  0
  7 12  2  0  0  0  0
  7  8  1  0  0  0  0
  8  9  2  0  0  0  0
  8 28  1  0  0  0  0
  9 10  1  0  0  0  0
  9 29  1  0  0  0  0
 10 11  2  0  0  0  0
 10 30  1  0  0  0  0
 11 12  1  0  0  0  0
 11 31  1  0  0  0  0
 12 13  1  0  0  0  0
 13 14  1  0  0  0  0
 14 15  1  0  0  0  0
 14 32  1  0  0  0  0
 14 33  1  0  0  0  0
 15 16  1  0  0  0  0
 15 34  1  0  0  0  0
 15 35  1  0  0  0  0
 16 17  1  0  0  0  0
 17 23  1  0  0  0  0
 17 18  2  0  0  0  0
 18 19  1  0  0  0  0
 18 36  1  0  0  0  0
 19 20  2  0  0  0  0
 19 37  1  0  0  0  0
 20 21  1  0  0  0  0
 20 22  1  0  0  0  0
 22 23  2  0  0  0  0
 22 38  1  0  0  0  0
 23 39  1  0  0  0  0
M  CHG  1   6   1
M  END
> <s_m_source_file>
AV-unprocessed.smi

> <i_m_source_file_index>
1851

> <i_lp_mmshare_version>
43012

> <i_f3d_flags>
0

> <s_epik_input>
Tz1bQ0hdW05IXVtDSDJdYyhuMSluKGMoYzEyKVtjSF1bY0hdW2NIXVtjSF0yKVtDSDJdW0NIMl1PYzNbY0hdW2NIXWMoQ2wpW2NIXVtjSF0z

> <s_epik_cmdline>
J2VwaWtfcHl0aG9uJywgJy1waCcsICc3LjAnLCAnLXRuJywgJzgnLCAnLW1hJywgJzIwMCcsICctbWV0YWxfYmluZGluZycsICctaW1hZScsICc8aW5maWxlLm1hZT4nLCAnLW9tYWUnLCAnPG91dGZpbGUubWFlPic=

> <r_lp_tautomer_probability>
1

> <r_epik_Ionization_Penalty>
1.32442

> <r_epik_Ionization_Penalty_Charging>
1.32442

> <r_epik_Ionization_Penalty_Neutral>
7.38905e-08

> <r_epik_State_Penalty>
1.4003

> <r_epik_Charging_Adjusted_Penalty>
2.72472

> <i_epik_Tot_Q>
1

> <i_epik_Tot_abs_Q>
1

> <r_epik_Metal_State_Penalty>
1.46133

> <b_epik_Metal_Only>
0

> <s_lp_Force_Field>
OPLS_2005

> <r_lp_Energy>
15.621

> <b_lp_Chiralities_Consistent>
1

> <s_lp_Variant>
AV-unprocessed.smi:1851-2

> <Gold.Version>
5.8.1

> <Gold.Id.Protein>
6NUR|6NUR_protein|mol2

> <Gold.PLP.Fitness>
62.7019

> <Gold.PLP.PLP>
-51.5411

> <Gold.PLP.part.hbond>
-5.9355

> <Gold.PLP.part.metal>
0.0000

> <Gold.PLP.part.buried>
6.1269

> <Gold.PLP.part.nonpolar>
-49.4356

> <Gold.PLP.part.repulsive>
0.1458

> <Gold.PLP.ligand.clash>
0.0000

> <Gold.PLP.ligand.torsion>
0.7139

> <Gold.PLP.Chemscore.Hbond>
4.1702

> <Gold.PLP.Chemscore.CHOScore>
0.0000

> <Gold.PLP.Chemscore.Metal>
0.0000

> <Gold.Chemscore.Hbonds>
donor molecule, donor type, donor heavy atom, donor atom, acceptor molecule, acceptor atom, score
      L1  H     3    25       P1  7948  0.30
      L1  H     6    40       P1  7948  2.00
      P1  H  7997  8008       L1    16  0.88
      P1  H 10752 10765       L1     1  0.88

> <Gold.PLP.Chemscore.Internal.Correction>
0.0781

> <Gold.Rescore>
     Score         DG    S(hbond)    S(metal)    S(lipo)     H(rot)  DE(clash)    DE(int)     intcor
     20.13     -22.09       2.17        0.00     134.52       2.49       1.19       0.77       ----

> <Gold.Chemscore.Fitness>
20.1325

> <Gold.Chemscore.DG>
-22.0914

> <Gold.Chemscore.ZeroCoef>
-5.4800

> <Gold.Chemscore.Hbond>
2.1663

> <Gold.Chemscore.Metal>
0.0000

> <Gold.Chemscore.Lipo>
134.5191

> <Gold.Chemscore.Internal_Hbond>
0.0000

> <Gold.Chemscore.DEClash>
1.1858

> <Gold.Chemscore.DEInternal>
0.7731

> <Gold.Chemscore.Rot>
2.4854

> <Gold.Chemscore.Internal.Correction>
   9.000000E+99

> <Gold.Chemscore.Hbonds>
donor molecule, donor type, donor heavy atom, donor atom, acceptor molecule, acceptor atom, score
      L1  H     6    40       P1  7948  0.95
      P1  H  7997  8008       L1    16  0.66
      P1  H 10752 10765       L1     1  0.53

> <Gold.Chemscore.Hbond.Weighted>
-7.2353

> <Gold.Chemscore.Metal.Weighted>
-0.0000

> <Gold.Chemscore.Lipo.Weighted>
-15.7387

> <Gold.Chemscore.Internal_Hbond.Weighted>
0.0000

> <Gold.Chemscore.DEClash.Weighted>
1.1858

> <Gold.Chemscore.DEInternal.Weighted>
0.7731

> <Gold.Chemscore.Rot.Weighted>
6.3627

> <Gold.Chemscore.Internal.Correction.Weighted>
   9.000000E+99

> <Gold.Protein.RotatedTorsions>
[ 6907 6896 6895 6894 ] final -165.46 input  -60.11 | X-H torsion
[ 7974 7965 7964 7962 ] final  -37.71 input  175.53 | X-H torsion
[ 8008 7997 7996 7995 ] final  -69.54 input   59.86 | X-H torsion
[ 10167 10162 10161 10158 ] final -113.02 input  -65.29 | X-H torsion
[ 10718 10713 10712 10709 ] final  120.84 input   66.30 | X-H torsion
[ 10763 10752 10751 10750 ] final -136.20 input  -60.55 | X-H torsion
[ 11005 11000 10999 10996 ] final   43.80 input  -57.11 | X-H torsion

> <Gold.Protein.ActiveResidues>
 VAL166  LYS551  ARG553  GLY616  TRP617  ASP618  TYR619  PRO620  LYS621  CYS622 
 ASP623  PHE694  ASN695  SER759  ASP760  ASP761  ALA762  ILE779  LEU786  VAL792 
 PHE793  MET794  SER795  GLU796  ALA797  LYS798  CYS799  TRP800  GLU811  SER814 

> <Gold.Protein.RotatedAtoms>
  151.4281  133.3678  159.2764 H   0  0  0  0  0  0  0  0  0  0  0  0  # atno 6907 bound_to 6896
  150.9245  134.8663  159.7521 H   0  0  0  0  0  0  0  0  0  0  0  0  # atno 6908 bound_to 6896
  152.4998  134.4221  159.9536 H   0  0  0  0  0  0  0  0  0  0  0  0  # atno 6909 bound_to 6896
  146.0551  140.6428  142.9024 H   0  0  0  0  0  0  0  0  0  0  0  0  # atno 7974 bound_to 7965
  154.4946  140.0851  156.7668 H   0  0  0  0  0  0  0  0  0  0  0  0  # atno 8008 bound_to 7997
  155.4148  140.3443  155.4248 H   0  0  0  0  0  0  0  0  0  0  0  0  # atno 8009 bound_to 7997
  156.1376  140.1520  156.8958 H   0  0  0  0  0  0  0  0  0  0  0  0  # atno 8010 bound_to 7997
  140.1164  143.4482  152.1719 H   0  0  0  0  0  0  0  0  0  0  0  0  # atno 10167 bound_to 10162
  157.5861  131.1069  150.8091 H   0  0  0  0  0  0  0  0  0  0  0  0  # atno 10718 bound_to 10713
  154.8688  135.3680  154.5022 H   0  0  0  0  0  0  0  0  0  0  0  0  # atno 10763 bound_to 10752
  153.5662  135.7022  153.5530 H   0  0  0  0  0  0  0  0  0  0  0  0  # atno 10764 bound_to 10752
  153.3583  135.4053  155.1662 H   0  0  0  0  0  0  0  0  0  0  0  0  # atno 10765 bound_to 10752
  140.1611  134.4340  155.8317 H   0  0  0  0  0  0  0  0  0  0  0  0  # atno 11005 bound_to 11000
  144.7143  140.4154  143.7056 LP  0  0  0  0  0  0  0  0  0  0  0  0  # atno 17320 bound_to 7965
  145.6658  139.1590  143.2782 LP  0  0  0  0  0  0  0  0  0  0  0  0  # atno 17321 bound_to 7965
  139.5592  144.7394  151.4206 LP  0  0  0  0  0  0  0  0  0  0  0  0  # atno 17342 bound_to 10162
  140.6897  143.7892  150.7237 LP  0  0  0  0  0  0  0  0  0  0  0  0  # atno 17343 bound_to 10162
  156.8524  130.5085  149.5310 LP  0  0  0  0  0  0  0  0  0  0  0  0  # atno 17370 bound_to 10713
  156.0911  130.5896  150.9734 LP  0  0  0  0  0  0  0  0  0  0  0  0  # atno 17371 bound_to 10713
  141.2209  133.6914  156.7595 LP  0  0  0  0  0  0  0  0  0  0  0  0  # atno 17394 bound_to 11000
  140.2489  134.8556  157.3647 LP  0  0  0  0  0  0  0  0  0  0  0  0  # atno 17395 bound_to 11000

$$$$
