AV-unprocessed.smi:2507|AV-procd|sdf|9863|dock2
  -GOLD-   2272013493D 1   1.00000     0.00000
 Structure written by MMmdl.
 44 45  0  0  0  0  0  0  0  0  1 V2000
  144.7420  133.3593  150.3329 C   0  0  0  0  0  0  0  0  0  0  0  0
  145.9208  133.8268  151.1941 C   0  0  0  0  0  0  0  0  0  0  0  0
  146.5223  132.6996  151.9881 C   0  0  0  0  0  0  0  0  0  0  0  0
  146.0392  131.4707  151.8614 N   0  0  0  0  0  0  0  0  0  0  0  0
  146.7877  130.7065  152.6920 N   0  0  0  0  0  0  0  0  0  0  0  0
  146.5123  129.2894  152.7919 C   0  0  0  0  0  0  0  0  0  0  0  0
  147.7506  131.4409  153.3530 C   0  0  0  0  0  0  0  0  0  0  0  0
  147.5991  132.7267  152.9161 C   0  0  0  0  0  0  0  0  0  0  0  0
  148.3325  133.8862  153.2776 N   0  0  0  0  0  0  0  0  0  0  0  0
  149.0483  134.0835  154.3967 C   0  0  0  0  0  0  0  0  0  0  0  0
  149.2035  133.2554  155.2946 O   0  0  0  0  0  0  0  0  0  0  0  0
  149.5837  135.3110  154.4230 N   0  0  0  0  0  0  0  0  0  0  0  0
  150.4084  135.8251  155.5078 C   0  0  0  0  0  0  0  0  0  0  0  0
  151.1826  137.0721  155.0559 C   0  0  0  0  0  0  0  0  0  0  0  0
  150.7256  138.3511  155.7757 C   0  0  2  0  0  0  0  0  0  0  0  0
  151.5877  139.5698  155.3920 C   0  0  0  0  0  0  0  0  0  0  0  0
  151.1547  140.8078  156.1855 C   0  0  0  0  0  0  0  0  0  0  0  0
  151.1523  140.4871  157.6838 C   0  0  0  0  0  0  0  0  0  0  0  0
  150.3247  139.2214  157.9585 C   0  0  0  0  0  0  0  0  0  0  0  0
  150.8241  138.1365  157.1825 O   0  0  0  0  0  0  0  0  0  0  0  0
  144.3263  134.1889  149.7609 H   0  0  0  0  0  0  0  0  0  0  0  0
  143.9424  132.9478  150.9497 H   0  0  0  0  0  0  0  0  0  0  0  0
  145.0520  132.5888  149.6262 H   0  0  0  0  0  0  0  0  0  0  0  0
  146.6781  134.2781  150.5527 H   0  0  0  0  0  0  0  0  0  0  0  0
  145.5865  134.6186  151.8654 H   0  0  0  0  0  0  0  0  0  0  0  0
  147.2425  128.8117  153.4456 H   0  0  0  0  0  0  0  0  0  0  0  0
  146.5684  128.8305  151.8042 H   0  0  0  0  0  0  0  0  0  0  0  0
  145.5140  129.1365  153.2031 H   0  0  0  0  0  0  0  0  0  0  0  0
  148.4353  130.9885  154.0549 H   0  0  0  0  0  0  0  0  0  0  0  0
  148.2954  134.6517  152.6206 H   0  0  0  0  0  0  0  0  0  0  0  0
  149.4098  135.9292  153.6442 H   0  0  0  0  0  0  0  0  0  0  0  0
  149.7767  136.0702  156.3634 H   0  0  0  0  0  0  0  0  0  0  0  0
  151.0995  135.0446  155.8294 H   0  0  0  0  0  0  0  0  0  0  0  0
  152.2513  136.9240  155.2180 H   0  0  0  0  0  0  0  0  0  0  0  0
  151.0497  137.1997  153.9807 H   0  0  0  0  0  0  0  0  0  0  0  0
  149.6846  138.5496  155.5139 H   0  0  0  0  0  0  0  0  0  0  0  0
  152.6381  139.3564  155.5939 H   0  0  0  0  0  0  0  0  0  0  0  0
  151.5092  139.7682  154.3226 H   0  0  0  0  0  0  0  0  0  0  0  0
  151.8192  141.6464  155.9763 H   0  0  0  0  0  0  0  0  0  0  0  0
  150.1551  141.1131  155.8735 H   0  0  0  0  0  0  0  0  0  0  0  0
  152.1760  140.3340  158.0273 H   0  0  0  0  0  0  0  0  0  0  0  0
  150.7542  141.3294  158.2501 H   0  0  0  0  0  0  0  0  0  0  0  0
  150.3858  138.9559  159.0139 H   0  0  0  0  0  0  0  0  0  0  0  0
  149.2704  139.3880  157.7331 H   0  0  0  0  0  0  0  0  0  0  0  0
  1  2  1  0  0  0  0
  1 21  1  0  0  0  0
  1 22  1  0  0  0  0
  1 23  1  0  0  0  0
  2  3  1  0  0  0  0
  2 24  1  0  0  0  0
  2 25  1  0  0  0  0
  3  8  1  0  0  0  0
  3  4  2  0  0  0  0
  4  5  1  0  0  0  0
  5  6  1  0  0  0  0
  5  7  1  0  0  0  0
  6 26  1  0  0  0  0
  6 27  1  0  0  0  0
  6 28  1  0  0  0  0
  7  8  2  0  0  0  0
  7 29  1  0  0  0  0
  8  9  1  0  0  0  0
  9 10  1  0  0  0  0
  9 30  1  0  0  0  0
 10 11  2  0  0  0  0
 10 12  1  0  0  0  0
 12 13  1  0  0  0  0
 12 31  1  0  0  0  0
 13 14  1  0  0  0  0
 13 32  1  0  0  0  0
 13 33  1  0  0  0  0
 14 15  1  0  0  0  0
 14 34  1  0  0  0  0
 14 35  1  0  0  0  0
 15 20  1  0  0  0  0
 15 16  1  0  0  0  0
 15 36  1  0  0  0  0
 16 17  1  0  0  0  0
 16 37  1  0  0  0  0
 16 38  1  0  0  0  0
 17 18  1  0  0  0  0
 17 39  1  0  0  0  0
 17 40  1  0  0  0  0
 18 19  1  0  0  0  0
 18 41  1  0  0  0  0
 18 42  1  0  0  0  0
 19 20  1  0  0  0  0
 19 43  1  0  0  0  0
 19 44  1  0  0  0  0
M  END
> <s_m_source_file>
AV-unprocessed.smi

> <i_m_source_file_index>
2507

> <i_lp_mmshare_version>
43012

> <i_f3d_flags>
0

> <s_epik_input>
W0NIM11bQ0gyXWMxbm4oW0NIM10pW2NIXWMxW05IXUMoPU8pW05IXVtDSDJdW0NIMl1bQ0BASF0yW0NIMl1bQ0gyXVtDSDJdW0NIMl1PMg==

> <s_epik_cmdline>
J2VwaWtfcHl0aG9uJywgJy1waCcsICc3LjAnLCAnLXRuJywgJzgnLCAnLW1hJywgJzIwMCcsICctbWV0YWxfYmluZGluZycsICctaW1hZScsICc8aW5maWxlLm1hZT4nLCAnLW9tYWUnLCAnPG91dGZpbGUubWFlPic=

> <r_lp_tautomer_probability>
1

> <r_epik_Ionization_Penalty>
0.00072031

> <r_epik_Ionization_Penalty_Charging>
0

> <r_epik_Ionization_Penalty_Neutral>
0.00072031

> <r_epik_State_Penalty>
-0

> <r_epik_Charging_Adjusted_Penalty>
0

> <i_epik_Tot_Q>
0

> <i_epik_Tot_abs_Q>
0

> <r_epik_Metal_State_Penalty>
-0

> <b_epik_Metal_Only>
0

> <s_lp_Force_Field>
OPLS_2005

> <r_lp_Energy>
7.60695

> <b_lp_Chiralities_Consistent>
1

> <s_lp_Variant>
AV-unprocessed.smi:2507-1

> <Gold.Version>
5.8.1

> <Gold.Id.Protein>
6NUR|6NUR_protein|mol2

> <Gold.PLP.Fitness>
38.4338

> <Gold.PLP.PLP>
-33.5782

> <Gold.PLP.part.hbond>
-2.0000

> <Gold.PLP.part.metal>
0.0000

> <Gold.PLP.part.buried>
-3.1024

> <Gold.PLP.part.nonpolar>
-27.8094

> <Gold.PLP.part.repulsive>
0.2046

> <Gold.PLP.ligand.clash>
0.0000

> <Gold.PLP.ligand.torsion>
0.5928

> <Gold.PLP.Chemscore.Hbond>
2.0000

> <Gold.PLP.Chemscore.CHOScore>
0.0000

> <Gold.PLP.Chemscore.Metal>
0.0000

> <Gold.Chemscore.Hbonds>
donor molecule, donor type, donor heavy atom, donor atom, acceptor molecule, acceptor atom, score
      L1  H     9    30       P1  7948  1.00
      L1  H    12    31       P1  7948  1.00

> <Gold.PLP.Chemscore.Internal.Correction>
0.0412

> <Gold.Rescore>
     Score         DG    S(hbond)    S(metal)    S(lipo)     H(rot)  DE(clash)    DE(int)     intcor
     14.11     -14.79       1.45        0.00      71.17       1.50       0.01       0.67       ----

> <Gold.Chemscore.Fitness>
14.1142

> <Gold.Chemscore.DG>
-14.7909

> <Gold.Chemscore.ZeroCoef>
-5.4800

> <Gold.Chemscore.Hbond>
1.4476

> <Gold.Chemscore.Metal>
0.0000

> <Gold.Chemscore.Lipo>
71.1672

> <Gold.Chemscore.Internal_Hbond>
0.0000

> <Gold.Chemscore.DEClash>
0.0062

> <Gold.Chemscore.DEInternal>
0.6706

> <Gold.Chemscore.Rot>
1.5042

> <Gold.Chemscore.Internal.Correction>
   9.000000E+99

> <Gold.Chemscore.Hbonds>
donor molecule, donor type, donor heavy atom, donor atom, acceptor molecule, acceptor atom, score
      L1  H     9    30       P1  7948  0.34
      L1  H    12    31       P1  7948  0.53

> <Gold.Chemscore.Hbond.Weighted>
-4.8351

> <Gold.Chemscore.Metal.Weighted>
-0.0000

> <Gold.Chemscore.Lipo.Weighted>
-8.3266

> <Gold.Chemscore.Internal_Hbond.Weighted>
0.0000

> <Gold.Chemscore.DEClash.Weighted>
0.0062

> <Gold.Chemscore.DEInternal.Weighted>
0.6706

> <Gold.Chemscore.Rot.Weighted>
3.8507

> <Gold.Chemscore.Internal.Correction.Weighted>
   9.000000E+99

> <Gold.Protein.RotatedTorsions>
[ 6907 6896 6895 6894 ] final   26.18 input  -60.11 | X-H torsion
[ 7974 7965 7964 7962 ] final   26.97 input  175.53 | X-H torsion
[ 8008 7997 7996 7995 ] final -109.90 input   59.86 | X-H torsion
[ 10167 10162 10161 10158 ] final  -95.48 input  -65.29 | X-H torsion
[ 10718 10713 10712 10709 ] final   97.89 input   66.30 | X-H torsion
[ 10763 10752 10751 10750 ] final   70.60 input  -60.55 | X-H torsion
[ 11005 11000 10999 10996 ] final   29.15 input  -57.11 | X-H torsion

> <Gold.Protein.ActiveResidues>
 VAL166  LYS551  ARG553  GLY616  TRP617  ASP618  TYR619  PRO620  LYS621  CYS622 
 ASP623  PHE694  ASN695  SER759  ASP760  ASP761  ALA762  ILE779  LEU786  VAL792 
 PHE793  MET794  SER795  GLU796  ALA797  LYS798  CYS799  TRP800  GLU811  SER814 

> <Gold.Protein.RotatedAtoms>
  151.9836  135.0016  160.0558 H   0  0  0  0  0  0  0  0  0  0  0  0  # atno 6907 bound_to 6896
  152.1674  133.4616  159.4900 H   0  0  0  0  0  0  0  0  0  0  0  0  # atno 6908 bound_to 6896
  150.6896  134.1914  159.4329 H   0  0  0  0  0  0  0  0  0  0  0  0  # atno 6909 bound_to 6896
  146.1809  139.7255  142.8901 H   0  0  0  0  0  0  0  0  0  0  0  0  # atno 7974 bound_to 7965
  154.9664  140.0398  157.2214 H   0  0  0  0  0  0  0  0  0  0  0  0  # atno 8008 bound_to 7997
  154.7842  140.2824  155.6018 H   0  0  0  0  0  0  0  0  0  0  0  0  # atno 8009 bound_to 7997
  156.2940  140.2586  156.2674 H   0  0  0  0  0  0  0  0  0  0  0  0  # atno 8010 bound_to 7997
  140.3037  143.3147  152.0222 H   0  0  0  0  0  0  0  0  0  0  0  0  # atno 10167 bound_to 10162
  157.6905  131.0623  150.4713 H   0  0  0  0  0  0  0  0  0  0  0  0  # atno 10718 bound_to 10713
  153.0351  135.5168  154.7465 H   0  0  0  0  0  0  0  0  0  0  0  0  # atno 10763 bound_to 10752
  154.6449  135.2917  155.0061 H   0  0  0  0  0  0  0  0  0  0  0  0  # atno 10764 bound_to 10752
  154.0966  135.6642  153.4913 H   0  0  0  0  0  0  0  0  0  0  0  0  # atno 10765 bound_to 10752
  140.3080  134.2681  155.7740 H   0  0  0  0  0  0  0  0  0  0  0  0  # atno 11005 bound_to 11000
  145.4079  141.0393  143.3034 LP  0  0  0  0  0  0  0  0  0  0  0  0  # atno 17320 bound_to 7965
  144.8314  139.5623  143.6942 LP  0  0  0  0  0  0  0  0  0  0  0  0  # atno 17321 bound_to 7965
  139.4909  144.6437  151.6823 LP  0  0  0  0  0  0  0  0  0  0  0  0  # atno 17342 bound_to 10162
  140.5629  144.0238  150.6178 LP  0  0  0  0  0  0  0  0  0  0  0  0  # atno 17343 bound_to 10162
  156.5051  130.4126  149.6332 LP  0  0  0  0  0  0  0  0  0  0  0  0  # atno 17370 bound_to 10713
  156.3292  130.7322  151.2249 LP  0  0  0  0  0  0  0  0  0  0  0  0  # atno 17371 bound_to 10713
  141.2114  133.7689  156.9865 LP  0  0  0  0  0  0  0  0  0  0  0  0  # atno 17394 bound_to 11000
  140.1050  134.9512  157.1980 LP  0  0  0  0  0  0  0  0  0  0  0  0  # atno 17395 bound_to 11000

$$$$
