AV-unprocessed.smi:2068|AV-procd|sdf|8429|dock1
  -GOLD-   2272011123D 1   1.00000     0.00000
 Structure written by MMmdl.
 32 33  0  0  0  0  0  0  0  0  2 V2000
  148.2712  140.1616  152.0512 N   0  0  0  0  0  0  0  0  0  0  0  0
  148.1676  140.9505  153.1249 C   0  0  0  0  0  0  0  0  0  0  0  0
  147.0878  141.1871  153.6630 O   0  0  0  0  0  0  0  0  0  0  0  0
  149.4563  141.5768  153.6647 C   0  0  0  0  0  0  0  0  0  0  0  0
  150.3505  140.5266  154.2591 C   0  0  0  0  0  0  0  0  0  0  0  0
  150.5903  139.2695  153.7665 C   0  0  0  0  0  0  0  0  0  0  0  0
  151.7048  138.3868  154.7701 S   0  0  0  0  0  0  0  0  0  0  0  0
  151.8152  139.7768  155.8514 C   0  0  0  0  0  0  0  0  0  0  0  0
  152.5661  139.8283  156.9626 N   0  5  0  0  0  0  0  0  0  0  0  0
  152.0338  140.3224  158.1058 C   0  0  0  0  0  0  0  0  0  0  0  0
  150.9200  140.8201  158.2824 O   0  0  0  0  0  0  0  0  0  0  0  0
  153.0090  140.1919  159.2876 C   0  0  0  0  0  0  0  0  0  0  0  0
  153.4798  141.5414  159.8769 C   0  0  2  0  0  0  0  0  0  0  0  0
  153.3406  141.6324  161.3776 C   0  0  0  0  0  0  0  0  0  0  0  0
  152.6706  142.7144  161.7673 C   0  0  0  0  0  0  0  0  0  0  0  0
  152.2253  143.5638  160.6094 C   0  0  0  0  0  0  0  0  0  0  0  0
  152.6544  142.7509  159.3674 C   0  0  0  0  0  0  0  0  0  0  0  0
  151.0421  140.7897  155.4452 N   0  0  0  0  0  0  0  0  0  0  0  0
  147.4497  139.7107  151.6763 H   0  0  0  0  0  0  0  0  0  0  0  0
  149.1769  140.0021  151.6323 H   0  0  0  0  0  0  0  0  0  0  0  0
  149.9594  142.1045  152.8534 H   0  0  0  0  0  0  0  0  0  0  0  0
  149.2067  142.3303  154.4127 H   0  0  0  0  0  0  0  0  0  0  0  0
  150.1853  138.8135  152.8756 H   0  0  0  0  0  0  0  0  0  0  0  0
  152.5113  139.6117  160.0654 H   0  0  0  0  0  0  0  0  0  0  0  0
  153.8852  139.6130  158.9874 H   0  0  0  0  0  0  0  0  0  0  0  0
  154.5320  141.7016  159.6365 H   0  0  0  0  0  0  0  0  0  0  0  0
  153.7630  140.8933  162.0426 H   0  0  0  0  0  0  0  0  0  0  0  0
  152.4662  142.9844  162.7928 H   0  0  0  0  0  0  0  0  0  0  0  0
  151.1468  143.7214  160.6391 H   0  0  0  0  0  0  0  0  0  0  0  0
  152.7223  144.5335  160.6486 H   0  0  0  0  0  0  0  0  0  0  0  0
  153.2336  143.3612  158.6736 H   0  0  0  0  0  0  0  0  0  0  0  0
  151.7671  142.4146  158.8290 H   0  0  0  0  0  0  0  0  0  0  0  0
  1  2  1  0  0  0  0
  1 19  1  0  0  0  0
  1 20  1  0  0  0  0
  2  3  2  0  0  0  0
  2  4  1  0  0  0  0
  4  5  1  0  0  0  0
  4 21  1  0  0  0  0
  4 22  1  0  0  0  0
  5 18  1  0  0  0  0
  5  6  2  0  0  0  0
  6  7  1  0  0  0  0
  6 23  1  0  0  0  0
  7  8  1  0  0  0  0
  8  9  1  0  0  0  0
  8 18  2  0  0  0  0
  9 10  1  0  0  0  0
 10 11  2  0  0  0  0
 10 12  1  0  0  0  0
 12 13  1  0  0  0  0
 12 24  1  0  0  0  0
 12 25  1  0  0  0  0
 13 17  1  0  0  0  0
 13 14  1  0  0  0  0
 13 26  1  0  0  0  0
 14 15  2  0  0  0  0
 14 27  1  0  0  0  0
 15 16  1  0  0  0  0
 15 28  1  0  0  0  0
 16 17  1  0  0  0  0
 16 29  1  0  0  0  0
 16 30  1  0  0  0  0
 17 31  1  0  0  0  0
 17 32  1  0  0  0  0
M  CHG  1   9  -1
M  END
> <s_m_source_file>
AV-unprocessed.smi

> <i_m_source_file_index>
2068

> <i_lp_mmshare_version>
43012

> <i_f3d_flags>
0

> <s_epik_input>
W05IMl1DKD1PKVtDSDJdYzFbY0hdc2MobjEpW05IXUMoPU8pW0NIMl1bQ0BASF0yW0NIXT1bQ0hdW0NIMl1bQ0gyXTI=

> <s_epik_cmdline>
J2VwaWtfcHl0aG9uJywgJy1waCcsICc3LjAnLCAnLXRuJywgJzgnLCAnLW1hJywgJzIwMCcsICctbWV0YWxfYmluZGluZycsICctaW1hZScsICc8aW5maWxlLm1hZT4nLCAnLW9tYWUnLCAnPG91dGZpbGUubWFlPic=

> <r_lp_tautomer_probability>
1

> <r_epik_Ionization_Penalty>
4.99584

> <r_epik_Ionization_Penalty_Charging>
4.63763

> <r_epik_Ionization_Penalty_Neutral>
0.358213

> <r_epik_State_Penalty>
4.63739

> <r_epik_Charging_Adjusted_Penalty>
9.27502

> <i_epik_Tot_Q>
-1

> <i_epik_Tot_abs_Q>
1

> <r_epik_Metal_State_Penalty>
0.891949

> <b_epik_Metal_Only>
1

> <s_lp_Force_Field>
OPLS_2005

> <r_lp_Energy>
13.7628

> <b_lp_Chiralities_Consistent>
1

> <s_lp_Variant>
AV-unprocessed.smi:2068-3

> <Gold.Version>
5.8.1

> <Gold.Id.Protein>
6NUR|6NUR_protein|mol2

> <Gold.PLP.Fitness>
51.2149

> <Gold.PLP.PLP>
-42.0258

> <Gold.PLP.part.hbond>
-2.0000

> <Gold.PLP.part.metal>
0.0000

> <Gold.PLP.part.buried>
-3.8328

> <Gold.PLP.part.nonpolar>
-36.1901

> <Gold.PLP.part.repulsive>
0.1920

> <Gold.PLP.ligand.clash>
0.0000

> <Gold.PLP.ligand.torsion>
1.4289

> <Gold.PLP.Chemscore.Hbond>
3.0000

> <Gold.PLP.Chemscore.CHOScore>
0.9257

> <Gold.PLP.Chemscore.Metal>
0.0000

> <Gold.Chemscore.Hbonds>
donor molecule, donor type, donor heavy atom, donor atom, acceptor molecule, acceptor atom, score
      P1  H  7997  8009       L1     9  2.00
      L1  C     6    23       P1  7957  0.83

> <Gold.PLP.Chemscore.Internal.Correction>
0.2699

> <Gold.Rescore>
     Score         DG    S(hbond)    S(metal)    S(lipo)     H(rot)  DE(clash)    DE(int)     intcor
     15.10     -18.03       1.94        0.00      99.21       2.17       0.06       2.87       ----

> <Gold.Chemscore.Fitness>
15.0969

> <Gold.Chemscore.DG>
-18.0279

> <Gold.Chemscore.ZeroCoef>
-5.4800

> <Gold.Chemscore.Hbond>
1.9410

> <Gold.Chemscore.Metal>
0.0000

> <Gold.Chemscore.Lipo>
99.2077

> <Gold.Chemscore.Internal_Hbond>
0.0000

> <Gold.Chemscore.DEClash>
0.0614

> <Gold.Chemscore.DEInternal>
2.8696

> <Gold.Chemscore.Rot>
2.1650

> <Gold.Chemscore.Internal.Correction>
   9.000000E+99

> <Gold.Chemscore.Hbonds>
donor molecule, donor type, donor heavy atom, donor atom, acceptor molecule, acceptor atom, score
      P1  H  7997  8009       L1     9  0.69

> <Gold.Chemscore.Hbond.Weighted>
-6.4831

> <Gold.Chemscore.Metal.Weighted>
-0.0000

> <Gold.Chemscore.Lipo.Weighted>
-11.6073

> <Gold.Chemscore.Internal_Hbond.Weighted>
0.0000

> <Gold.Chemscore.DEClash.Weighted>
0.0614

> <Gold.Chemscore.DEInternal.Weighted>
2.8696

> <Gold.Chemscore.Rot.Weighted>
5.5425

> <Gold.Chemscore.Internal.Correction.Weighted>
   9.000000E+99

> <Gold.Protein.RotatedTorsions>
[ 6907 6896 6895 6894 ] final  -28.41 input  -60.11 | X-H torsion
[ 7974 7965 7964 7962 ] final  144.51 input  175.53 | X-H torsion
[ 8008 7997 7996 7995 ] final -170.83 input   59.86 | X-H torsion
[ 10167 10162 10161 10158 ] final -148.42 input  -65.29 | X-H torsion
[ 10718 10713 10712 10709 ] final  -54.87 input   66.30 | X-H torsion
[ 10763 10752 10751 10750 ] final  -10.09 input  -60.55 | X-H torsion
[ 11005 11000 10999 10996 ] final   29.21 input  -57.11 | X-H torsion

> <Gold.Protein.ActiveResidues>
 VAL166  LYS551  ARG553  GLY616  TRP617  ASP618  TYR619  PRO620  LYS621  CYS622 
 ASP623  PHE694  ASN695  SER759  ASP760  ASP761  ALA762  ILE779  LEU786  VAL792 
 PHE793  MET794  SER795  GLU796  ALA797  LYS798  CYS799  TRP800  GLU811  SER814 

> <Gold.Protein.RotatedAtoms>
  151.1333  135.0142  159.8592 H   0  0  0  0  0  0  0  0  0  0  0  0  # atno 6907 bound_to 6896
  152.5451  134.1584  159.8558 H   0  0  0  0  0  0  0  0  0  0  0  0  # atno 6908 bound_to 6896
  151.1653  133.4773  159.2627 H   0  0  0  0  0  0  0  0  0  0  0  0  # atno 6909 bound_to 6896
  144.8829  139.5672  143.5834 H   0  0  0  0  0  0  0  0  0  0  0  0  # atno 7974 bound_to 7965
  155.9235  140.1078  157.1188 H   0  0  0  0  0  0  0  0  0  0  0  0  # atno 8008 bound_to 7997
  154.4058  140.1251  156.4776 H   0  0  0  0  0  0  0  0  0  0  0  0  # atno 8009 bound_to 7997
  155.7166  140.3470  155.5000 H   0  0  0  0  0  0  0  0  0  0  0  0  # atno 8010 bound_to 7997
  139.7533  143.8486  152.2591 H   0  0  0  0  0  0  0  0  0  0  0  0  # atno 10167 bound_to 10162
  156.1415  130.4154  150.0096 H   0  0  0  0  0  0  0  0  0  0  0  0  # atno 10718 bound_to 10713
  153.4642  135.7016  153.6032 H   0  0  0  0  0  0  0  0  0  0  0  0  # atno 10763 bound_to 10752
  153.4313  135.3802  155.2172 H   0  0  0  0  0  0  0  0  0  0  0  0  # atno 10764 bound_to 10752
  154.8727  135.3951  154.4072 H   0  0  0  0  0  0  0  0  0  0  0  0  # atno 10765 bound_to 10752
  140.3074  134.2688  155.7741 H   0  0  0  0  0  0  0  0  0  0  0  0  # atno 11005 bound_to 11000
  146.3006  139.7415  142.9094 LP  0  0  0  0  0  0  0  0  0  0  0  0  # atno 17320 bound_to 7965
  145.3921  141.0374  143.3118 LP  0  0  0  0  0  0  0  0  0  0  0  0  # atno 17321 bound_to 7965
  139.8470  144.7182  150.9260 LP  0  0  0  0  0  0  0  0  0  0  0  0  # atno 17342 bound_to 10162
  140.7800  143.3932  151.1274 LP  0  0  0  0  0  0  0  0  0  0  0  0  # atno 17343 bound_to 10162
  156.7980  130.9280  151.3646 LP  0  0  0  0  0  0  0  0  0  0  0  0  # atno 17370 bound_to 10713
  157.6579  130.8941  149.9768 LP  0  0  0  0  0  0  0  0  0  0  0  0  # atno 17371 bound_to 10713
  141.2115  133.7686  156.9857 LP  0  0  0  0  0  0  0  0  0  0  0  0  # atno 17394 bound_to 11000
  140.1055  134.9509  157.1987 LP  0  0  0  0  0  0  0  0  0  0  0  0  # atno 17395 bound_to 11000

$$$$
