AV-unprocessed.smi:646|AV-procd|sdf|3166|dock8
  -GOLD-   22720 0 83D 1   1.00000     0.00000
 Structure written by MMmdl.
 44 45  0  0  0  0  0  0  0  0  1 V2000
  152.2253  143.8239  161.5566 C   0  0  0  0  0  0  0  0  0  0  0  0
  151.7462  143.0097  160.4936 O   0  0  0  0  0  0  0  0  0  0  0  0
  151.5123  143.6474  159.2305 C   0  0  2  0  0  0  0  0  0  0  0  0
  152.7877  144.3358  158.7278 C   0  0  0  0  0  0  0  0  0  0  0  0
  150.1925  144.4417  159.2735 C   0  0  0  0  0  0  0  0  0  0  0  0
  149.4768  143.1270  158.9693 C   0  0  1  0  0  0  0  0  0  0  0  0
  148.3523  143.2949  158.0578 N   0  0  0  0  0  0  0  0  0  0  0  0
  147.1043  142.8729  158.3077 C   0  0  0  0  0  0  0  0  0  0  0  0
  146.7516  142.3895  159.3832 O   0  0  0  0  0  0  0  0  0  0  0  0
  146.1120  142.9762  157.1510 C   0  0  0  0  0  0  0  0  0  0  0  0
  146.6282  142.1679  155.9879 C   0  0  0  0  0  0  0  0  0  0  0  0
  147.3593  140.9461  156.0286 C   0  0  0  0  0  0  0  0  0  0  0  0
  147.7928  140.1585  157.2314 C   0  0  0  0  0  0  0  0  0  0  0  0
  147.6725  140.5167  154.8178 N   0  0  0  0  0  0  0  0  0  0  0  0
  147.1496  141.4612  153.9295 O   0  0  0  0  0  0  0  0  0  0  0  0
  146.5363  142.4346  154.6491 C   0  0  0  0  0  0  0  0  0  0  0  0
  145.9231  143.5500  153.8723 C   0  0  0  0  0  0  0  0  0  0  0  0
  150.7814  142.6319  158.2930 C   0  0  0  0  0  0  0  0  0  0  0  0
  150.9195  142.8921  156.7796 C   0  0  0  0  0  0  0  0  0  0  0  0
  151.1158  141.1494  158.4911 C   0  0  0  0  0  0  0  0  0  0  0  0
  152.1900  143.2537  162.4849 H   0  0  0  0  0  0  0  0  0  0  0  0
  151.6244  144.7218  161.6971 H   0  0  0  0  0  0  0  0  0  0  0  0
  153.2630  144.1170  161.3989 H   0  0  0  0  0  0  0  0  0  0  0  0
  152.6599  144.7446  157.7261 H   0  0  0  0  0  0  0  0  0  0  0  0
  153.6256  143.6392  158.6919 H   0  0  0  0  0  0  0  0  0  0  0  0
  153.0758  145.1748  159.3607 H   0  0  0  0  0  0  0  0  0  0  0  0
  149.9290  144.8821  160.2346 H   0  0  0  0  0  0  0  0  0  0  0  0
  150.1148  145.1781  158.4715 H   0  0  0  0  0  0  0  0  0  0  0  0
  149.2329  142.5788  159.8823 H   0  0  0  0  0  0  0  0  0  0  0  0
  148.5524  143.6813  157.1469 H   0  0  0  0  0  0  0  0  0  0  0  0
  145.1361  142.6191  157.4821 H   0  0  0  0  0  0  0  0  0  0  0  0
  145.9770  144.0251  156.8846 H   0  0  0  0  0  0  0  0  0  0  0  0
  146.9749  140.0510  157.9438 H   0  0  0  0  0  0  0  0  0  0  0  0
  148.6159  140.6565  157.7442 H   0  0  0  0  0  0  0  0  0  0  0  0
  148.1269  139.1563  156.9599 H   0  0  0  0  0  0  0  0  0  0  0  0
  145.8527  144.4548  154.4757 H   0  0  0  0  0  0  0  0  0  0  0  0
  144.9189  143.2829  153.5437 H   0  0  0  0  0  0  0  0  0  0  0  0
  146.5189  143.7824  152.9894 H   0  0  0  0  0  0  0  0  0  0  0  0
  150.2546  142.2532  156.1972 H   0  0  0  0  0  0  0  0  0  0  0  0
  151.9347  142.6980  156.4321 H   0  0  0  0  0  0  0  0  0  0  0  0
  150.6805  143.9221  156.5141 H   0  0  0  0  0  0  0  0  0  0  0  0
  150.5117  140.5121  157.8443 H   0  0  0  0  0  0  0  0  0  0  0  0
  150.9282  140.8217  159.5137 H   0  0  0  0  0  0  0  0  0  0  0  0
  152.1639  140.9448  158.2714 H   0  0  0  0  0  0  0  0  0  0  0  0
  1  2  1  0  0  0  0
  1 21  1  0  0  0  0
  1 22  1  0  0  0  0
  1 23  1  0  0  0  0
  2  3  1  0  0  0  0
  3 18  1  0  0  0  0
  3  4  1  0  0  0  0
  3  5  1  0  0  0  0
  4 24  1  0  0  0  0
  4 25  1  0  0  0  0
  4 26  1  0  0  0  0
  5  6  1  0  0  0  0
  5 27  1  0  0  0  0
  5 28  1  0  0  0  0
  6  7  1  0  0  0  0
  6 18  1  0  0  0  0
  6 29  1  0  0  0  0
  7  8  1  0  0  0  0
  7 30  1  0  0  0  0
  8  9  2  0  0  0  0
  8 10  1  0  0  0  0
 10 11  1  0  0  0  0
 10 31  1  0  0  0  0
 10 32  1  0  0  0  0
 11 16  2  0  0  0  0
 11 12  1  0  0  0  0
 12 13  1  0  0  0  0
 12 14  2  0  0  0  0
 13 33  1  0  0  0  0
 13 34  1  0  0  0  0
 13 35  1  0  0  0  0
 14 15  1  0  0  0  0
 15 16  1  0  0  0  0
 16 17  1  0  0  0  0
 17 36  1  0  0  0  0
 17 37  1  0  0  0  0
 17 38  1  0  0  0  0
 18 19  1  0  0  0  0
 18 20  1  0  0  0  0
 19 39  1  0  0  0  0
 19 40  1  0  0  0  0
 19 41  1  0  0  0  0
 20 42  1  0  0  0  0
 20 43  1  0  0  0  0
 20 44  1  0  0  0  0
M  END
> <s_m_source_file>
AV-unprocessed.smi

> <i_m_source_file_index>
646

> <i_lp_mmshare_version>
43012

> <i_f3d_flags>
0

> <s_epik_input>
W0NIM11PW0NAQF0xKFtDSDNdKVtDSDJdW0NASF0oQzEoW0NIM10pW0NIM10pW05IXUMoPU8pW0NIMl1jMmMoW0NIM10pbm9jMltDSDNd

> <s_epik_cmdline>
J2VwaWtfcHl0aG9uJywgJy1waCcsICc3LjAnLCAnLXRuJywgJzgnLCAnLW1hJywgJzIwMCcsICctbWV0YWxfYmluZGluZycsICctaW1hZScsICc8aW5maWxlLm1hZT4nLCAnLW9tYWUnLCAnPG91dGZpbGUubWFlPic=

> <r_lp_tautomer_probability>
1

> <r_epik_Ionization_Penalty>
2.13169e-08

> <r_epik_Ionization_Penalty_Charging>
0

> <r_epik_Ionization_Penalty_Neutral>
2.13169e-08

> <r_epik_State_Penalty>
-0

> <r_epik_Charging_Adjusted_Penalty>
0

> <i_epik_Tot_Q>
0

> <i_epik_Tot_abs_Q>
0

> <r_epik_Metal_State_Penalty>
-0

> <b_epik_Metal_Only>
0

> <s_lp_Force_Field>
OPLS_2005

> <r_lp_Energy>
15.8314

> <b_lp_Chiralities_Consistent>
1

> <s_lp_Variant>
AV-unprocessed.smi:646-2

> <Gold.Version>
5.8.1

> <Gold.Id.Protein>
6NUR|6NUR_protein|mol2

> <Gold.PLP.Fitness>
39.2430

> <Gold.PLP.PLP>
-34.4234

> <Gold.PLP.part.hbond>
-3.3757

> <Gold.PLP.part.metal>
0.0000

> <Gold.PLP.part.buried>
-3.8061

> <Gold.PLP.part.nonpolar>
-27.9399

> <Gold.PLP.part.repulsive>
0.3990

> <Gold.PLP.ligand.clash>
0.0000

> <Gold.PLP.ligand.torsion>
0.5514

> <Gold.PLP.Chemscore.Hbond>
1.8460

> <Gold.PLP.Chemscore.CHOScore>
0.0000

> <Gold.PLP.Chemscore.Metal>
0.0000

> <Gold.Chemscore.Hbonds>
donor molecule, donor type, donor heavy atom, donor atom, acceptor molecule, acceptor atom, score
      L1  H     7    30       P1  8028  0.65
      P1  H  6934  6946       L1     9  0.93

> <Gold.PLP.Chemscore.Internal.Correction>
0.3844

> <Gold.Rescore>
     Score         DG    S(hbond)    S(metal)    S(lipo)     H(rot)  DE(clash)    DE(int)     intcor
     15.11     -16.31       1.17        0.00      91.93       1.49       0.73       0.47       ----

> <Gold.Chemscore.Fitness>
15.1109

> <Gold.Chemscore.DG>
-16.3106

> <Gold.Chemscore.ZeroCoef>
-5.4800

> <Gold.Chemscore.Hbond>
1.1665

> <Gold.Chemscore.Metal>
0.0000

> <Gold.Chemscore.Lipo>
91.9327

> <Gold.Chemscore.Internal_Hbond>
0.0000

> <Gold.Chemscore.DEClash>
0.7253

> <Gold.Chemscore.DEInternal>
0.4744

> <Gold.Chemscore.Rot>
1.4928

> <Gold.Chemscore.Internal.Correction>
   9.000000E+99

> <Gold.Chemscore.Hbonds>
donor molecule, donor type, donor heavy atom, donor atom, acceptor molecule, acceptor atom, score
      L1  H     7    30       P1  8028  0.06
      P1  H  6934  6946       L1     9  0.84

> <Gold.Chemscore.Hbond.Weighted>
-3.8961

> <Gold.Chemscore.Metal.Weighted>
-0.0000

> <Gold.Chemscore.Lipo.Weighted>
-10.7561

> <Gold.Chemscore.Internal_Hbond.Weighted>
0.0000

> <Gold.Chemscore.DEClash.Weighted>
0.7253

> <Gold.Chemscore.DEInternal.Weighted>
0.4744

> <Gold.Chemscore.Rot.Weighted>
3.8217

> <Gold.Chemscore.Internal.Correction.Weighted>
   9.000000E+99

> <Gold.Protein.RotatedTorsions>
[ 6907 6896 6895 6894 ] final  -83.47 input  -60.11 | X-H torsion
[ 7974 7965 7964 7962 ] final  154.62 input  175.53 | X-H torsion
[ 8008 7997 7996 7995 ] final  -35.30 input   59.86 | X-H torsion
[ 10167 10162 10161 10158 ] final  -60.72 input  -65.29 | X-H torsion
[ 10718 10713 10712 10709 ] final  -86.47 input   66.30 | X-H torsion
[ 10763 10752 10751 10750 ] final   72.61 input  -60.55 | X-H torsion
[ 11005 11000 10999 10996 ] final  -59.85 input  -57.11 | X-H torsion

> <Gold.Protein.ActiveResidues>
 VAL166  LYS551  ARG553  GLY616  TRP617  ASP618  TYR619  PRO620  LYS621  CYS622 
 ASP623  PHE694  ASN695  SER759  ASP760  ASP761  ALA762  ILE779  LEU786  VAL792 
 PHE793  MET794  SER795  GLU796  ALA797  LYS798  CYS799  TRP800  GLU811  SER814 

> <Gold.Protein.RotatedAtoms>
  150.6885  134.3507  159.4907 H   0  0  0  0  0  0  0  0  0  0  0  0  # atno 6907 bound_to 6896
  152.1348  134.9104  160.0566 H   0  0  0  0  0  0  0  0  0  0  0  0  # atno 6908 bound_to 6896
  152.0260  133.3883  159.4314 H   0  0  0  0  0  0  0  0  0  0  0  0  # atno 6909 bound_to 6896
  144.8077  139.6958  143.6155 H   0  0  0  0  0  0  0  0  0  0  0  0  # atno 7974 bound_to 7965
  154.4099  140.1661  156.2188 H   0  0  0  0  0  0  0  0  0  0  0  0  # atno 8008 bound_to 7997
  155.9381  140.3410  155.6281 H   0  0  0  0  0  0  0  0  0  0  0  0  # atno 8009 bound_to 7997
  155.7023  140.0746  157.2396 H   0  0  0  0  0  0  0  0  0  0  0  0  # atno 8010 bound_to 7997
  140.6053  143.2372  151.5836 H   0  0  0  0  0  0  0  0  0  0  0  0  # atno 10167 bound_to 10162
  155.9989  130.4766  150.4719 H   0  0  0  0  0  0  0  0  0  0  0  0  # atno 10718 bound_to 10713
  153.0469  135.5093  154.7769 H   0  0  0  0  0  0  0  0  0  0  0  0  # atno 10763 bound_to 10752
  154.6662  135.2946  154.9804 H   0  0  0  0  0  0  0  0  0  0  0  0  # atno 10764 bound_to 10752
  154.0638  135.6687  153.4868 H   0  0  0  0  0  0  0  0  0  0  0  0  # atno 10765 bound_to 10752
  141.1264  133.6618  156.5134 H   0  0  0  0  0  0  0  0  0  0  0  0  # atno 11005 bound_to 11000
  146.2371  139.5927  142.9516 LP  0  0  0  0  0  0  0  0  0  0  0  0  # atno 17320 bound_to 7965
  145.5398  141.0421  143.2337 LP  0  0  0  0  0  0  0  0  0  0  0  0  # atno 17321 bound_to 7965
  139.5320  144.2888  152.1169 LP  0  0  0  0  0  0  0  0  0  0  0  0  # atno 17342 bound_to 10162
  140.2077  144.4594  150.6401 LP  0  0  0  0  0  0  0  0  0  0  0  0  # atno 17343 bound_to 10162
  157.2733  131.0592  151.2245 LP  0  0  0  0  0  0  0  0  0  0  0  0  # atno 17370 bound_to 10713
  157.3318  130.6989  149.6329 LP  0  0  0  0  0  0  0  0  0  0  0  0  # atno 17371 bound_to 10713
  140.4350  134.7067  157.4962 LP  0  0  0  0  0  0  0  0  0  0  0  0  # atno 17394 bound_to 11000
  140.0268  134.6466  155.9162 LP  0  0  0  0  0  0  0  0  0  0  0  0  # atno 17395 bound_to 11000

$$$$
