AV-unprocessed.smi:907|AV-procd|sdf|4111|dock1
  -GOLD-   22720 2 03D 1   1.00000     0.00000
 Structure written by MMmdl.
 54 57  0  0  0  0  0  0  0  0  3 V2000
  150.0962  140.0944  154.1457 O   0  0  0  0  0  0  0  0  0  0  0  0
  149.3105  140.9855  154.4693 C   0  0  0  0  0  0  0  0  0  0  0  0
  149.6308  141.9206  155.3784 N   0  0  0  0  0  0  0  0  0  0  0  0
  150.9108  141.9958  156.0696 C   0  0  0  0  0  0  0  0  0  0  0  0
  150.7385  141.6963  157.5650 C   0  0  0  0  0  0  0  0  0  0  0  0
  151.2144  142.8405  158.4398 C   0  0  0  0  0  0  0  0  0  0  0  0
  152.1942  142.6628  159.4406 C   0  0  0  0  0  0  0  0  0  0  0  0
  152.5949  143.7700  160.2172 C   0  0  0  0  0  0  0  0  0  0  0  0
  152.0099  145.0304  159.9758 C   0  0  0  0  0  0  0  0  0  0  0  0
  151.0372  145.1517  158.9626 C   0  0  0  0  0  0  0  0  0  0  0  0
  150.6790  144.0669  158.2408 N   0  3  0  0  0  0  0  0  0  0  0  0
  148.0490  141.0770  153.9780 N   0  0  0  0  0  0  0  0  0  0  0  0
  147.2031  139.9636  153.5319 C   0  0  0  0  0  0  0  0  0  0  0  0
  146.0878  139.7223  154.5675 C   0  0  0  0  0  0  0  0  0  0  0  0
  145.2953  140.9573  154.8448 N   0  3  0  0  0  0  0  0  0  0  0  0
  144.2378  140.7903  155.8897 C   0  0  1  0  0  0  0  0  0  0  0  0
  144.8456  140.6242  157.3084 C   0  0  0  0  0  0  0  0  0  0  0  0
  144.1345  141.7052  158.1388 C   0  0  2  0  0  0  0  0  0  0  0  0
  142.6567  141.3237  158.3262 C   0  0  0  0  0  0  0  0  0  0  0  0
  142.0733  141.5568  156.9220 C   0  0  0  0  0  0  0  0  0  0  0  0
  143.3002  142.0125  156.1069 C   0  0  1  0  0  0  0  0  0  0  0  0
  144.0513  142.8488  157.1368 C   0  0  0  0  0  0  0  0  0  0  0  0
  146.1738  142.1306  155.1331 C   0  0  0  0  0  0  0  0  0  0  0  0
  147.2657  142.3101  154.0652 C   0  0  0  0  0  0  0  0  0  0  0  0
  148.9361  142.6133  155.6169 H   0  0  0  0  0  0  0  0  0  0  0  0
  151.6006  141.2797  155.6199 H   0  0  0  0  0  0  0  0  0  0  0  0
  151.3419  142.9893  155.9343 H   0  0  0  0  0  0  0  0  0  0  0  0
  149.6900  141.4935  157.7883 H   0  0  0  0  0  0  0  0  0  0  0  0
  151.2904  140.7934  157.8306 H   0  0  0  0  0  0  0  0  0  0  0  0
  152.6352  141.6915  159.6127 H   0  0  0  0  0  0  0  0  0  0  0  0
  153.3421  143.6540  160.9886 H   0  0  0  0  0  0  0  0  0  0  0  0
  152.3034  145.8911  160.5590 H   0  0  0  0  0  0  0  0  0  0  0  0
  150.5385  146.0759  158.7096 H   0  0  0  0  0  0  0  0  0  0  0  0
  146.7627  140.2199  152.5670 H   0  0  0  0  0  0  0  0  0  0  0  0
  147.7475  139.0350  153.3611 H   0  0  0  0  0  0  0  0  0  0  0  0
  145.4498  138.9358  154.1698 H   0  0  0  0  0  0  0  0  0  0  0  0
  146.5188  139.3519  155.4989 H   0  0  0  0  0  0  0  0  0  0  0  0
  143.6400  139.9172  155.6223 H   0  0  0  0  0  0  0  0  0  0  0  0
  144.6921  139.6221  157.7111 H   0  0  0  0  0  0  0  0  0  0  0  0
  145.9180  140.8236  157.3192 H   0  0  0  0  0  0  0  0  0  0  0  0
  144.6453  141.9460  159.0718 H   0  0  0  0  0  0  0  0  0  0  0  0
  142.5350  140.2938  158.6639 H   0  0  0  0  0  0  0  0  0  0  0  0
  142.1740  141.9756  159.0556 H   0  0  0  0  0  0  0  0  0  0  0  0
  141.6058  140.6617  156.5099 H   0  0  0  0  0  0  0  0  0  0  0  0
  141.3163  142.3418  156.9511 H   0  0  0  0  0  0  0  0  0  0  0  0
  142.9928  142.5525  155.2145 H   0  0  0  0  0  0  0  0  0  0  0  0
  143.4786  143.7029  157.5030 H   0  0  0  0  0  0  0  0  0  0  0  0
  145.0260  143.1940  156.7877 H   0  0  0  0  0  0  0  0  0  0  0  0
  145.5889  143.0475  155.1913 H   0  0  0  0  0  0  0  0  0  0  0  0
  146.6413  141.9981  156.1102 H   0  0  0  0  0  0  0  0  0  0  0  0
  147.8778  143.1820  154.3005 H   0  0  0  0  0  0  0  0  0  0  0  0
  146.8124  142.5224  153.0957 H   0  0  0  0  0  0  0  0  0  0  0  0
  144.8126  141.1712  153.9837 H   0  0  0  0  0  0  0  0  0  0  0  0
  149.9732  144.1793  157.5126 H   0  0  0  0  0  0  0  0  0  0  0  0
  1  2  2  0  0  0  0
  2  3  1  0  0  0  0
  2 12  1  0  0  0  0
  3  4  1  0  0  0  0
  3 25  1  0  0  0  0
  4  5  1  0  0  0  0
  4 26  1  0  0  0  0
  4 27  1  0  0  0  0
  5  6  1  0  0  0  0
  5 28  1  0  0  0  0
  5 29  1  0  0  0  0
  6 11  1  0  0  0  0
  6  7  2  0  0  0  0
  7  8  1  0  0  0  0
  7 30  1  0  0  0  0
  8  9  2  0  0  0  0
  8 31  1  0  0  0  0
  9 10  1  0  0  0  0
  9 32  1  0  0  0  0
 10 11  2  0  0  0  0
 10 33  1  0  0  0  0
 11 54  1  0  0  0  0
 12 24  1  0  0  0  0
 12 13  1  0  0  0  0
 13 14  1  0  0  0  0
 13 34  1  0  0  0  0
 13 35  1  0  0  0  0
 14 15  1  0  0  0  0
 14 36  1  0  0  0  0
 14 37  1  0  0  0  0
 15 16  1  0  0  0  0
 15 23  1  0  0  0  0
 15 53  1  0  0  0  0
 16 21  1  0  0  0  0
 16 17  1  0  0  0  0
 16 38  1  0  0  0  0
 17 18  1  0  0  0  0
 17 39  1  0  0  0  0
 17 40  1  0  0  0  0
 18 22  1  0  0  0  0
 18 19  1  0  0  0  0
 18 41  1  0  0  0  0
 19 20  1  0  0  0  0
 19 42  1  0  0  0  0
 19 43  1  0  0  0  0
 20 21  1  0  0  0  0
 20 44  1  0  0  0  0
 20 45  1  0  0  0  0
 21 22  1  0  0  0  0
 21 46  1  0  0  0  0
 22 47  1  0  0  0  0
 22 48  1  0  0  0  0
 23 24  1  0  0  0  0
 23 49  1  0  0  0  0
 23 50  1  0  0  0  0
 24 51  1  0  0  0  0
 24 52  1  0  0  0  0
M  CHG  1  11   1
M  CHG  1  15   1
M  END
> <s_m_source_file>
AV-unprocessed.smi

> <i_m_source_file_index>
907

> <i_lp_mmshare_version>
43012

> <i_f3d_flags>
0

> <s_epik_input>
W0NIMl0xW0NIMl1bQ0BASF0oW0NIMl0yKVtDQEBIXShbQ0gyXVtDQEhdMTIpTihbQ0gyXVtDSDJdMylbQ0gyXVtDSDJdTjNDKD1PKVtOSF1bQ0gyXVtDSDJdYzRbY0hdW2NIXVtjSF1bY0hdbjQ=

> <s_epik_cmdline>
J2VwaWtfcHl0aG9uJywgJy1waCcsICc3LjAnLCAnLXRuJywgJzgnLCAnLW1hJywgJzIwMCcsICctbWV0YWxfYmluZGluZycsICctaW1hZScsICc8aW5maWxlLm1hZT4nLCAnLW9tYWUnLCAnPG91dGZpbGUubWFlPic=

> <r_epik_Ionization_Penalty>
1.63018

> <r_epik_Ionization_Penalty_Charging>
1.63015

> <r_epik_Ionization_Penalty_Neutral>
2.64641e-05

> <r_epik_State_Penalty>
1.72761

> <r_epik_Charging_Adjusted_Penalty>
3.35777

> <i_epik_Tot_Q>
2

> <i_epik_Tot_abs_Q>
2

> <r_epik_Metal_State_Penalty>
1.76501

> <b_epik_Metal_Only>
0

> <s_lp_Force_Field>
OPLS_2005

> <r_lp_Energy>
104.704

> <b_lp_Chiralities_Consistent>
1

> <s_lp_Variant>
AV-unprocessed.smi:907-6

> <Gold.Version>
5.8.1

> <Gold.Id.Protein>
6NUR|6NUR_protein|mol2

> <Gold.PLP.Fitness>
56.1666

> <Gold.PLP.PLP>
-41.3571

> <Gold.PLP.part.hbond>
-4.0633

> <Gold.PLP.part.metal>
0.0000

> <Gold.PLP.part.buried>
-6.9043

> <Gold.PLP.part.nonpolar>
-31.5576

> <Gold.PLP.part.repulsive>
1.0192

> <Gold.PLP.ligand.clash>
0.6134

> <Gold.PLP.ligand.torsion>
0.7268

> <Gold.PLP.Chemscore.Hbond>
5.5798

> <Gold.PLP.Chemscore.CHOScore>
0.0000

> <Gold.PLP.Chemscore.Metal>
0.0000

> <Gold.Chemscore.Hbonds>
donor molecule, donor type, donor heavy atom, donor atom, acceptor molecule, acceptor atom, score
      L1  H     3    25       P1  8028  0.57
      L1  H    11    54       P1  8028  1.20
      L1  H    15    53       P1 10175  1.92
      P1  H  7989  7998       L1     1  0.96

> <Gold.PLP.Chemscore.Internal.Correction>
0.1371

> <Gold.Rescore>
     Score         DG    S(hbond)    S(metal)    S(lipo)     H(rot)  DE(clash)    DE(int)     intcor
     19.62     -22.05       2.69        0.00      96.73       1.46       0.77       1.66       ----

> <Gold.Chemscore.Fitness>
19.6185

> <Gold.Chemscore.DG>
-22.0451

> <Gold.Chemscore.ZeroCoef>
-5.4800

> <Gold.Chemscore.Hbond>
2.6881

> <Gold.Chemscore.Metal>
0.0000

> <Gold.Chemscore.Lipo>
96.7290

> <Gold.Chemscore.Internal_Hbond>
0.0000

> <Gold.Chemscore.DEClash>
0.7703

> <Gold.Chemscore.DEInternal>
1.6563

> <Gold.Chemscore.Rot>
1.4572

> <Gold.Chemscore.Internal.Correction>
   9.000000E+99

> <Gold.Chemscore.Hbonds>
donor molecule, donor type, donor heavy atom, donor atom, acceptor molecule, acceptor atom, score
      L1  H     3    25       P1  8028  0.56
      L1  H    11    54       P1  8028  0.27
      L1  H    15    53       P1 10175  0.63
      P1  H  7989  7998       L1     1  0.60

> <Gold.Chemscore.Hbond.Weighted>
-8.9784

> <Gold.Chemscore.Metal.Weighted>
-0.0000

> <Gold.Chemscore.Lipo.Weighted>
-11.3173

> <Gold.Chemscore.Internal_Hbond.Weighted>
0.0000

> <Gold.Chemscore.DEClash.Weighted>
0.7703

> <Gold.Chemscore.DEInternal.Weighted>
1.6563

> <Gold.Chemscore.Rot.Weighted>
3.7305

> <Gold.Chemscore.Internal.Correction.Weighted>
   9.000000E+99

> <Gold.Protein.RotatedTorsions>
[ 6907 6896 6895 6894 ] final   84.83 input  -60.11 | X-H torsion
[ 7974 7965 7964 7962 ] final   62.95 input  175.53 | X-H torsion
[ 8008 7997 7996 7995 ] final   78.97 input   59.86 | X-H torsion
[ 10167 10162 10161 10158 ] final -114.27 input  -65.29 | X-H torsion
[ 10718 10713 10712 10709 ] final  -89.47 input   66.30 | X-H torsion
[ 10763 10752 10751 10750 ] final  -51.25 input  -60.55 | X-H torsion
[ 11005 11000 10999 10996 ] final  174.61 input  -57.11 | X-H torsion

> <Gold.Protein.ActiveResidues>
 VAL166  LYS551  ARG553  GLY616  TRP617  ASP618  TYR619  PRO620  LYS621  CYS622 
 ASP623  PHE694  ASN695  SER759  ASP760  ASP761  ALA762  ILE779  LEU786  VAL792 
 PHE793  MET794  SER795  GLU796  ALA797  LYS798  CYS799  TRP800  GLU811  SER814 

> <Gold.Protein.RotatedAtoms>
  152.5361  134.2680  159.8960 H   0  0  0  0  0  0  0  0  0  0  0  0  # atno 6907 bound_to 6896
  151.2637  133.4282  159.2625 H   0  0  0  0  0  0  0  0  0  0  0  0  # atno 6908 bound_to 6896
  151.0429  134.9635  159.8228 H   0  0  0  0  0  0  0  0  0  0  0  0  # atno 6909 bound_to 6896
  145.8675  139.3355  143.0782 H   0  0  0  0  0  0  0  0  0  0  0  0  # atno 7974 bound_to 7965
  155.8632  140.3452  155.5770 H   0  0  0  0  0  0  0  0  0  0  0  0  # atno 8008 bound_to 7997
  155.7910  140.0871  157.2028 H   0  0  0  0  0  0  0  0  0  0  0  0  # atno 8009 bound_to 7997
  154.4013  140.1483  156.3150 H   0  0  0  0  0  0  0  0  0  0  0  0  # atno 8010 bound_to 7997
  140.1028  143.4597  152.1801 H   0  0  0  0  0  0  0  0  0  0  0  0  # atno 10167 bound_to 10162
  155.9984  130.4873  150.5176 H   0  0  0  0  0  0  0  0  0  0  0  0  # atno 10718 bound_to 10713
  154.1236  135.6531  153.4908 H   0  0  0  0  0  0  0  0  0  0  0  0  # atno 10763 bound_to 10752
  153.0217  135.5276  154.7072 H   0  0  0  0  0  0  0  0  0  0  0  0  # atno 10764 bound_to 10752
  154.6286  135.2973  155.0213 H   0  0  0  0  0  0  0  0  0  0  0  0  # atno 10765 bound_to 10752
  140.3532  134.7177  157.4282 H   0  0  0  0  0  0  0  0  0  0  0  0  # atno 11005 bound_to 11000
  145.9176  140.9137  143.0422 LP  0  0  0  0  0  0  0  0  0  0  0  0  # atno 17320 bound_to 7965
  144.6726  140.1245  143.7447 LP  0  0  0  0  0  0  0  0  0  0  0  0  # atno 17321 bound_to 7965
  139.5662  144.7436  151.4017 LP  0  0  0  0  0  0  0  0  0  0  0  0  # atno 17342 bound_to 10162
  140.6968  143.7729  150.7339 LP  0  0  0  0  0  0  0  0  0  0  0  0  # atno 17343 bound_to 10162
  157.3142  131.0669  151.1979 LP  0  0  0  0  0  0  0  0  0  0  0  0  # atno 17370 bound_to 10713
  157.2915  130.6798  149.6116 LP  0  0  0  0  0  0  0  0  0  0  0  0  # atno 17371 bound_to 10713
  140.0686  134.5894  155.8667 LP  0  0  0  0  0  0  0  0  0  0  0  0  # atno 17394 bound_to 11000
  141.2006  133.6613  156.5906 LP  0  0  0  0  0  0  0  0  0  0  0  0  # atno 17395 bound_to 11000

$$$$
