AV-unprocessed.smi:1398|AV-procd|sdf|5680|dock9
  -GOLD-   22720 5303D 1   1.00000     0.00000
 Structure written by MMmdl.
 41 42  0  0  0  0  0  0  0  0  1 V2000
  145.9488  132.9555  151.4590 C   0  0  0  0  0  0  0  0  0  0  0  0
  147.0828  133.3047  152.2451 O   0  0  0  0  0  0  0  0  0  0  0  0
  147.8292  132.2902  152.8136 C   0  0  0  0  0  0  0  0  0  0  0  0
  147.4287  131.0082  152.6209 N   0  0  0  0  0  0  0  0  0  0  0  0
  148.1588  130.0172  153.1725 C   0  0  0  0  0  0  0  0  0  0  0  0
  149.3202  130.2468  153.9327 C   0  0  0  0  0  0  0  0  0  0  0  0
  149.7371  131.5753  154.1348 C   0  0  0  0  0  0  0  0  0  0  0  0
  148.9724  132.6271  153.5753 C   0  0  0  0  0  0  0  0  0  0  0  0
  149.3171  134.0004  153.7035 N   0  0  0  0  0  0  0  0  0  0  0  0
  150.0945  134.5804  154.6332 C   0  0  0  0  0  0  0  0  0  0  0  0
  150.6555  133.9940  155.5589 O   0  0  0  0  0  0  0  0  0  0  0  0
  150.1670  135.9052  154.4439 N   0  0  0  0  0  0  0  0  0  0  0  0
  150.8914  136.8364  155.3012 C   0  0  0  0  0  0  0  0  0  0  0  0
  151.7079  137.8455  154.4684 C   0  0  0  0  0  0  0  0  0  0  0  0
  151.5791  139.2986  154.9542 C   0  0  0  0  0  0  0  0  0  0  0  0
  152.5701  139.8944  155.3790 O   0  0  0  0  0  0  0  0  0  0  0  0
  150.3648  139.8836  154.8926 N   0  0  0  0  0  0  0  0  0  0  0  0
  150.0594  141.2609  155.2796 C   0  0  0  0  0  0  0  0  0  0  0  0
  148.6254  141.5144  154.8127 C   0  0  0  0  0  0  0  0  0  0  0  0
  147.9966  140.1288  154.7663 C   0  0  0  0  0  0  0  0  0  0  0  0
  149.1616  139.2008  154.4210 C   0  0  0  0  0  0  0  0  0  0  0  0
  145.4737  133.8640  151.0892 H   0  0  0  0  0  0  0  0  0  0  0  0
  145.2079  132.4109  152.0460 H   0  0  0  0  0  0  0  0  0  0  0  0
  146.2327  132.3552  150.5935 H   0  0  0  0  0  0  0  0  0  0  0  0
  147.8100  129.0104  152.9967 H   0  0  0  0  0  0  0  0  0  0  0  0
  149.8813  129.4223  154.3467 H   0  0  0  0  0  0  0  0  0  0  0  0
  150.6383  131.7608  154.6987 H   0  0  0  0  0  0  0  0  0  0  0  0
  148.8496  134.6240  153.0617 H   0  0  0  0  0  0  0  0  0  0  0  0
  149.6727  136.3012  153.6578 H   0  0  0  0  0  0  0  0  0  0  0  0
  150.1954  137.3533  155.9645 H   0  0  0  0  0  0  0  0  0  0  0  0
  151.5531  136.2490  155.9390 H   0  0  0  0  0  0  0  0  0  0  0  0
  152.7605  137.5616  154.4985 H   0  0  0  0  0  0  0  0  0  0  0  0
  151.3945  137.7986  153.4250 H   0  0  0  0  0  0  0  0  0  0  0  0
  150.1274  141.3511  156.3646 H   0  0  0  0  0  0  0  0  0  0  0  0
  150.7475  141.9793  154.8323 H   0  0  0  0  0  0  0  0  0  0  0  0
  148.0846  142.2031  155.4625 H   0  0  0  0  0  0  0  0  0  0  0  0
  148.6380  141.9424  153.8094 H   0  0  0  0  0  0  0  0  0  0  0  0
  147.6055  139.8730  155.7520 H   0  0  0  0  0  0  0  0  0  0  0  0
  147.1751  140.0603  154.0528 H   0  0  0  0  0  0  0  0  0  0  0  0
  149.2336  139.0603  153.3413 H   0  0  0  0  0  0  0  0  0  0  0  0
  149.0369  138.2202  154.8834 H   0  0  0  0  0  0  0  0  0  0  0  0
  1  2  1  0  0  0  0
  1 22  1  0  0  0  0
  1 23  1  0  0  0  0
  1 24  1  0  0  0  0
  2  3  1  0  0  0  0
  3  8  1  0  0  0  0
  3  4  2  0  0  0  0
  4  5  1  0  0  0  0
  5  6  2  0  0  0  0
  5 25  1  0  0  0  0
  6  7  1  0  0  0  0
  6 26  1  0  0  0  0
  7  8  2  0  0  0  0
  7 27  1  0  0  0  0
  8  9  1  0  0  0  0
  9 10  1  0  0  0  0
  9 28  1  0  0  0  0
 10 11  2  0  0  0  0
 10 12  1  0  0  0  0
 12 13  1  0  0  0  0
 12 29  1  0  0  0  0
 13 14  1  0  0  0  0
 13 30  1  0  0  0  0
 13 31  1  0  0  0  0
 14 15  1  0  0  0  0
 14 32  1  0  0  0  0
 14 33  1  0  0  0  0
 15 16  2  0  0  0  0
 15 17  1  0  0  0  0
 17 21  1  0  0  0  0
 17 18  1  0  0  0  0
 18 19  1  0  0  0  0
 18 34  1  0  0  0  0
 18 35  1  0  0  0  0
 19 20  1  0  0  0  0
 19 36  1  0  0  0  0
 19 37  1  0  0  0  0
 20 21  1  0  0  0  0
 20 38  1  0  0  0  0
 20 39  1  0  0  0  0
 21 40  1  0  0  0  0
 21 41  1  0  0  0  0
M  END
> <s_m_source_file>
AV-unprocessed.smi

> <i_m_source_file_index>
1398

> <i_lp_mmshare_version>
43012

> <i_f3d_flags>
0

> <s_epik_input>
W0NIM11PYzFuW2NIXVtjSF1bY0hdYzFbTkhdQyg9TylbTkhdW0NIMl1bQ0gyXUMoPU8pTjJbQ0gyXVtDSDJdW0NIMl1bQ0gyXTI=

> <s_epik_cmdline>
J2VwaWtfcHl0aG9uJywgJy1waCcsICc3LjAnLCAnLXRuJywgJzgnLCAnLW1hJywgJzIwMCcsICctbWV0YWxfYmluZGluZycsICctaW1hZScsICc8aW5maWxlLm1hZT4nLCAnLW9tYWUnLCAnPG91dGZpbGUubWFlPic=

> <r_lp_tautomer_probability>
1

> <r_epik_Ionization_Penalty>
8.61088e-05

> <r_epik_Ionization_Penalty_Charging>
0

> <r_epik_Ionization_Penalty_Neutral>
8.61088e-05

> <r_epik_State_Penalty>
-0

> <r_epik_Charging_Adjusted_Penalty>
0

> <i_epik_Tot_Q>
0

> <i_epik_Tot_abs_Q>
0

> <r_epik_Metal_State_Penalty>
-0

> <b_epik_Metal_Only>
0

> <s_lp_Force_Field>
OPLS_2005

> <r_lp_Energy>
29.8369

> <b_lp_Chiralities_Consistent>
1

> <s_lp_Variant>
AV-unprocessed.smi:1398-1

> <Gold.Version>
5.8.1

> <Gold.Id.Protein>
6NUR|6NUR_protein|mol2

> <Gold.PLP.Fitness>
45.9296

> <Gold.PLP.PLP>
-38.4114

> <Gold.PLP.part.hbond>
-4.3167

> <Gold.PLP.part.metal>
0.0000

> <Gold.PLP.part.buried>
-1.5976

> <Gold.PLP.part.nonpolar>
-32.8982

> <Gold.PLP.part.repulsive>
1.4128

> <Gold.PLP.ligand.clash>
0.0000

> <Gold.PLP.ligand.torsion>
0.5309

> <Gold.PLP.Chemscore.Hbond>
2.8496

> <Gold.PLP.Chemscore.CHOScore>
0.0000

> <Gold.PLP.Chemscore.Metal>
0.0000

> <Gold.Chemscore.Hbonds>
donor molecule, donor type, donor heavy atom, donor atom, acceptor molecule, acceptor atom, score
      L1  H     9    28       P1  7948  0.71
      L1  H    12    29       P1  7948  1.00
      P1  H  7997  8010       L1    16  1.00

> <Gold.PLP.Chemscore.Internal.Correction>
0.0313

> <Gold.Rescore>
     Score         DG    S(hbond)    S(metal)    S(lipo)     H(rot)  DE(clash)    DE(int)     intcor
     12.95     -15.46       2.07        0.00      66.19       1.83       0.06       2.44       ----

> <Gold.Chemscore.Fitness>
12.9529

> <Gold.Chemscore.DG>
-15.4610

> <Gold.Chemscore.ZeroCoef>
-5.4800

> <Gold.Chemscore.Hbond>
2.0691

> <Gold.Chemscore.Metal>
0.0000

> <Gold.Chemscore.Lipo>
66.1930

> <Gold.Chemscore.Internal_Hbond>
0.0000

> <Gold.Chemscore.DEClash>
0.0644

> <Gold.Chemscore.DEInternal>
2.4437

> <Gold.Chemscore.Rot>
1.8260

> <Gold.Chemscore.Internal.Correction>
   9.000000E+99

> <Gold.Chemscore.Hbonds>
donor molecule, donor type, donor heavy atom, donor atom, acceptor molecule, acceptor atom, score
      L1  H     9    28       P1  7948  0.08
      L1  H    12    29       P1  7948  0.43
      P1  H  7997  8010       L1    16  0.99

> <Gold.Chemscore.Hbond.Weighted>
-6.9109

> <Gold.Chemscore.Metal.Weighted>
-0.0000

> <Gold.Chemscore.Lipo.Weighted>
-7.7446

> <Gold.Chemscore.Internal_Hbond.Weighted>
0.0000

> <Gold.Chemscore.DEClash.Weighted>
0.0644

> <Gold.Chemscore.DEInternal.Weighted>
2.4437

> <Gold.Chemscore.Rot.Weighted>
4.6744

> <Gold.Chemscore.Internal.Correction.Weighted>
   9.000000E+99

> <Gold.Protein.RotatedTorsions>
[ 6907 6896 6895 6894 ] final  159.98 input  -60.11 | X-H torsion
[ 7974 7965 7964 7962 ] final -136.19 input  175.53 | X-H torsion
[ 8008 7997 7996 7995 ] final   95.71 input   59.86 | X-H torsion
[ 10167 10162 10161 10158 ] final  -67.46 input  -65.29 | X-H torsion
[ 10718 10713 10712 10709 ] final -128.75 input   66.30 | X-H torsion
[ 10763 10752 10751 10750 ] final   81.73 input  -60.55 | X-H torsion
[ 11005 11000 10999 10996 ] final -145.47 input  -57.11 | X-H torsion

> <Gold.Protein.ActiveResidues>
 VAL166  LYS551  ARG553  GLY616  TRP617  ASP618  TYR619  PRO620  LYS621  CYS622 
 ASP623  PHE694  ASN695  SER759  ASP760  ASP761  ALA762  ILE779  LEU786  VAL792 
 PHE793  MET794  SER795  GLU796  ALA797  LYS798  CYS799  TRP800  GLU811  SER814 

> <Gold.Protein.RotatedAtoms>
  151.9775  133.3746  159.4094 H   0  0  0  0  0  0  0  0  0  0  0  0  # atno 6907 bound_to 6896
  150.6939  134.4074  159.5155 H   0  0  0  0  0  0  0  0  0  0  0  0  # atno 6908 bound_to 6896
  152.1788  134.8772  160.0579 H   0  0  0  0  0  0  0  0  0  0  0  0  # atno 6909 bound_to 6896
  144.8949  140.6692  143.5122 H   0  0  0  0  0  0  0  0  0  0  0  0  # atno 7974 bound_to 7965
  156.0718  140.3282  155.7585 H   0  0  0  0  0  0  0  0  0  0  0  0  # atno 8008 bound_to 7997
  155.5293  140.0592  157.2909 H   0  0  0  0  0  0  0  0  0  0  0  0  # atno 8009 bound_to 7997
  154.4534  140.1930  156.0468 H   0  0  0  0  0  0  0  0  0  0  0  0  # atno 8010 bound_to 7997
  140.5581  143.2312  151.6782 H   0  0  0  0  0  0  0  0  0  0  0  0  # atno 10167 bound_to 10162
  156.1980  130.6839  151.0505 H   0  0  0  0  0  0  0  0  0  0  0  0  # atno 10718 bound_to 10713
  153.1142  135.4754  154.9087 H   0  0  0  0  0  0  0  0  0  0  0  0  # atno 10763 bound_to 10752
  154.7512  135.3106  154.8557 H   0  0  0  0  0  0  0  0  0  0  0  0  # atno 10764 bound_to 10752
  153.9138  135.6862  153.4803 H   0  0  0  0  0  0  0  0  0  0  0  0  # atno 10765 bound_to 10752
  140.7920  134.2958  157.5010 H   0  0  0  0  0  0  0  0  0  0  0  0  # atno 11005 bound_to 11000
  145.3718  139.1657  143.4328 LP  0  0  0  0  0  0  0  0  0  0  0  0  # atno 17320 bound_to 7965
  146.3075  140.3790  142.8682 LP  0  0  0  0  0  0  0  0  0  0  0  0  # atno 17321 bound_to 7965
  139.5057  144.3708  152.0472 LP  0  0  0  0  0  0  0  0  0  0  0  0  # atno 17342 bound_to 10162
  140.2831  144.3837  150.6112 LP  0  0  0  0  0  0  0  0  0  0  0  0  # atno 17343 bound_to 10162
  157.6969  131.0790  150.6941 LP  0  0  0  0  0  0  0  0  0  0  0  0  # atno 17370 bound_to 10713
  156.6998  130.4620  149.5576 LP  0  0  0  0  0  0  0  0  0  0  0  0  # atno 17371 bound_to 10713
  139.8730  134.9380  156.3702 LP  0  0  0  0  0  0  0  0  0  0  0  0  # atno 17394 bound_to 11000
  140.9380  133.7534  156.0110 LP  0  0  0  0  0  0  0  0  0  0  0  0  # atno 17395 bound_to 11000

$$$$
