AV-unprocessed.smi:1865|AV-procd|sdf|7555|dock9
  -GOLD-   22720 9273D 1   1.00000     0.00000
 Structure written by MMmdl.
 41 42  0  0  0  0  0  0  0  0  2 V2000
  155.4975  140.4806  162.0591 O   0  0  0  0  0  0  0  0  0  0  0  0
  154.8439  140.2602  161.0391 C   0  0  0  0  0  0  0  0  0  0  0  0
  154.4034  141.4129  160.1318 C   0  0  0  0  0  0  0  0  0  0  0  0
  153.3994  142.3644  160.8102 C   0  0  0  0  0  0  0  0  0  0  0  0
  153.2250  143.6944  160.0552 C   0  0  0  0  0  0  0  0  0  0  0  0
  152.2562  144.6613  160.7389 C   0  0  0  0  0  0  0  0  0  0  0  0
  151.8786  145.6666  159.6480 C   0  0  0  0  0  0  0  0  0  0  0  0
  152.0247  144.9195  158.3142 C   0  0  0  0  0  0  0  0  0  0  0  0
  152.6350  143.5516  158.6474 C   0  0  0  0  0  0  0  0  0  0  0  0
  154.4690  139.0284  160.6606 N   0  0  0  0  0  0  0  0  0  0  0  0
  154.7559  137.8033  161.3975 C   0  0  0  0  0  0  0  0  0  0  0  0
  153.5441  137.3322  162.2189 C   0  0  0  0  0  0  0  0  0  0  0  0
  153.8953  136.1815  163.1417 C   0  0  0  0  0  0  0  0  0  0  0  0
  154.3705  134.9581  162.6197 C   0  0  0  0  0  0  0  0  0  0  0  0
  154.6829  133.9043  163.5039 C   0  0  0  0  0  0  0  0  0  0  0  0
  154.5127  134.0979  164.8903 C   0  0  0  0  0  0  0  0  0  0  0  0
  154.0551  135.2822  165.3527 N   0  3  0  0  0  0  0  0  0  0  0  0
  153.7449  136.3155  164.5392 C   0  0  0  0  0  0  0  0  0  0  0  0
  155.2808  141.9772  159.8116 H   0  0  0  0  0  0  0  0  0  0  0  0
  153.9634  140.9822  159.2320 H   0  0  0  0  0  0  0  0  0  0  0  0
  152.4292  141.8756  160.9126 H   0  0  0  0  0  0  0  0  0  0  0  0
  153.7410  142.5780  161.8242 H   0  0  0  0  0  0  0  0  0  0  0  0
  154.1937  144.1906  159.9759 H   0  0  0  0  0  0  0  0  0  0  0  0
  151.3633  144.1260  161.0654 H   0  0  0  0  0  0  0  0  0  0  0  0
  152.6922  145.1424  161.6149 H   0  0  0  0  0  0  0  0  0  0  0  0
  150.8730  146.0626  159.7918 H   0  0  0  0  0  0  0  0  0  0  0  0
  152.5686  146.5109  159.6703 H   0  0  0  0  0  0  0  0  0  0  0  0
  151.0631  144.8028  157.8131 H   0  0  0  0  0  0  0  0  0  0  0  0
  152.6762  145.4786  157.6414 H   0  0  0  0  0  0  0  0  0  0  0  0
  153.3796  143.2427  157.9131 H   0  0  0  0  0  0  0  0  0  0  0  0
  151.8464  142.7978  158.6507 H   0  0  0  0  0  0  0  0  0  0  0  0
  153.9320  138.9365  159.8102 H   0  0  0  0  0  0  0  0  0  0  0  0
  155.0767  137.0231  160.7049 H   0  0  0  0  0  0  0  0  0  0  0  0
  155.6006  137.9970  162.0594 H   0  0  0  0  0  0  0  0  0  0  0  0
  153.1477  138.1588  162.8104 H   0  0  0  0  0  0  0  0  0  0  0  0
  152.7369  137.0140  161.5576 H   0  0  0  0  0  0  0  0  0  0  0  0
  154.4925  134.8256  161.5545 H   0  0  0  0  0  0  0  0  0  0  0  0
  155.0468  132.9610  163.1237 H   0  0  0  0  0  0  0  0  0  0  0  0
  154.7261  133.3470  165.6370 H   0  0  0  0  0  0  0  0  0  0  0  0
  153.3862  137.2103  165.0271 H   0  0  0  0  0  0  0  0  0  0  0  0
  153.9380  135.4009  166.3594 H   0  0  0  0  0  0  0  0  0  0  0  0
  1  2  2  0  0  0  0
  2  3  1  0  0  0  0
  2 10  1  0  0  0  0
  3  4  1  0  0  0  0
  3 19  1  0  0  0  0
  3 20  1  0  0  0  0
  4  5  1  0  0  0  0
  4 21  1  0  0  0  0
  4 22  1  0  0  0  0
  5  9  1  0  0  0  0
  5  6  1  0  0  0  0
  5 23  1  0  0  0  0
  6  7  1  0  0  0  0
  6 24  1  0  0  0  0
  6 25  1  0  0  0  0
  7  8  1  0  0  0  0
  7 26  1  0  0  0  0
  7 27  1  0  0  0  0
  8  9  1  0  0  0  0
  8 28  1  0  0  0  0
  8 29  1  0  0  0  0
  9 30  1  0  0  0  0
  9 31  1  0  0  0  0
 10 11  1  0  0  0  0
 10 32  1  0  0  0  0
 11 12  1  0  0  0  0
 11 33  1  0  0  0  0
 11 34  1  0  0  0  0
 12 13  1  0  0  0  0
 12 35  1  0  0  0  0
 12 36  1  0  0  0  0
 13 18  1  0  0  0  0
 13 14  2  0  0  0  0
 14 15  1  0  0  0  0
 14 37  1  0  0  0  0
 15 16  2  0  0  0  0
 15 38  1  0  0  0  0
 16 17  1  0  0  0  0
 16 39  1  0  0  0  0
 17 18  2  0  0  0  0
 17 41  1  0  0  0  0
 18 40  1  0  0  0  0
M  CHG  1  17   1
M  END
> <s_m_source_file>
AV-unprocessed.smi

> <i_m_source_file_index>
1865

> <i_lp_mmshare_version>
43012

> <i_f3d_flags>
0

> <s_epik_input>
W0NIMl0xW0NIMl1bQ0gyXVtDSDJdW0NIXTFbQ0gyXVtDSDJdQyg9TylbTkhdW0NIMl1bQ0gyXWMyW2NIXVtjSF1bY0hdbltjSF0y

> <s_epik_cmdline>
J2VwaWtfcHl0aG9uJywgJy1waCcsICc3LjAnLCAnLXRuJywgJzgnLCAnLW1hJywgJzIwMCcsICctbWV0YWxfYmluZGluZycsICctaW1hZScsICc8aW5maWxlLm1hZT4nLCAnLW9tYWUnLCAnPG91dGZpbGUubWFlPic=

> <r_epik_Ionization_Penalty>
2.25234

> <r_epik_Ionization_Penalty_Charging>
2.25234

> <r_epik_Ionization_Penalty_Neutral>
2.26352e-08

> <r_epik_State_Penalty>
2.39956

> <r_epik_Charging_Adjusted_Penalty>
4.6519

> <i_epik_Tot_Q>
1

> <i_epik_Tot_abs_Q>
1

> <r_epik_Metal_State_Penalty>
2.41271

> <b_epik_Metal_Only>
0

> <s_lp_Force_Field>
OPLS_2005

> <r_lp_Energy>
27.3415

> <b_lp_Chiralities_Consistent>
1

> <s_lp_Variant>
AV-unprocessed.smi:1865-2

> <Gold.Version>
5.8.1

> <Gold.Id.Protein>
6NUR|6NUR_protein|mol2

> <Gold.PLP.Fitness>
48.5759

> <Gold.PLP.PLP>
-49.0088

> <Gold.PLP.part.hbond>
-2.0000

> <Gold.PLP.part.metal>
0.0000

> <Gold.PLP.part.buried>
-5.5599

> <Gold.PLP.part.nonpolar>
-42.0578

> <Gold.PLP.part.repulsive>
0.1178

> <Gold.PLP.ligand.clash>
0.0000

> <Gold.PLP.ligand.torsion>
0.2446

> <Gold.PLP.Chemscore.Hbond>
0.0000

> <Gold.PLP.Chemscore.CHOScore>
0.0000

> <Gold.PLP.Chemscore.Metal>
0.0000

> <Gold.PLP.Chemscore.Internal.Correction>
0.0563

> <Gold.Rescore>
     Score         DG    S(hbond)    S(metal)    S(lipo)     H(rot)  DE(clash)    DE(int)     intcor
     15.86     -16.17       0.00        0.00     128.28       1.69       0.13       0.17       ----

> <Gold.Chemscore.Fitness>
15.8643

> <Gold.Chemscore.DG>
-16.1703

> <Gold.Chemscore.ZeroCoef>
-5.4800

> <Gold.Chemscore.Hbond>
0.0000

> <Gold.Chemscore.Metal>
0.0000

> <Gold.Chemscore.Lipo>
128.2789

> <Gold.Chemscore.Internal_Hbond>
0.0000

> <Gold.Chemscore.DEClash>
0.1331

> <Gold.Chemscore.DEInternal>
0.1729

> <Gold.Chemscore.Rot>
1.6868

> <Gold.Chemscore.Internal.Correction>
   9.000000E+99

> <Gold.Chemscore.Hbond.Weighted>
-0.0000

> <Gold.Chemscore.Metal.Weighted>
-0.0000

> <Gold.Chemscore.Lipo.Weighted>
-15.0086

> <Gold.Chemscore.Internal_Hbond.Weighted>
0.0000

> <Gold.Chemscore.DEClash.Weighted>
0.1331

> <Gold.Chemscore.DEInternal.Weighted>
0.1729

> <Gold.Chemscore.Rot.Weighted>
4.3183

> <Gold.Chemscore.Internal.Correction.Weighted>
   9.000000E+99

> <Gold.Protein.RotatedTorsions>
[ 6907 6896 6895 6894 ] final  -84.94 input  -60.11 | X-H torsion
[ 7974 7965 7964 7962 ] final -164.11 input  175.53 | X-H torsion
[ 8008 7997 7996 7995 ] final  -26.45 input   59.86 | X-H torsion
[ 10167 10162 10161 10158 ] final  -77.26 input  -65.29 | X-H torsion
[ 10718 10713 10712 10709 ] final  178.48 input   66.30 | X-H torsion
[ 10763 10752 10751 10750 ] final   44.05 input  -60.55 | X-H torsion
[ 11005 11000 10999 10996 ] final -134.06 input  -57.11 | X-H torsion

> <Gold.Protein.ActiveResidues>
 VAL166  LYS551  ARG553  GLY616  TRP617  ASP618  TYR619  PRO620  LYS621  CYS622 
 ASP623  PHE694  ASN695  SER759  ASP760  ASP761  ALA762  ILE779  LEU786  VAL792 
 PHE793  MET794  SER795  GLU796  ALA797  LYS798  CYS799  TRP800  GLU811  SER814 

> <Gold.Protein.RotatedAtoms>
  150.6873  134.3282  159.4815 H   0  0  0  0  0  0  0  0  0  0  0  0  # atno 6907 bound_to 6896
  152.1149  134.9245  160.0574 H   0  0  0  0  0  0  0  0  0  0  0  0  # atno 6908 bound_to 6896
  152.0473  133.3969  159.4399 H   0  0  0  0  0  0  0  0  0  0  0  0  # atno 6909 bound_to 6896
  144.7306  140.3009  143.6204 H   0  0  0  0  0  0  0  0  0  0  0  0  # atno 7974 bound_to 7965
  154.4424  140.1899  156.0777 H   0  0  0  0  0  0  0  0  0  0  0  0  # atno 8008 bound_to 7997
  156.0462  140.3314  155.7273 H   0  0  0  0  0  0  0  0  0  0  0  0  # atno 8009 bound_to 7997
  155.5625  140.0605  157.2816 H   0  0  0  0  0  0  0  0  0  0  0  0  # atno 8010 bound_to 7997
  140.4785  143.2408  151.8094 H   0  0  0  0  0  0  0  0  0  0  0  0  # atno 10167 bound_to 10162
  156.8900  130.9844  151.3051 H   0  0  0  0  0  0  0  0  0  0  0  0  # atno 10718 bound_to 10713
  152.9848  135.6083  154.3210 H   0  0  0  0  0  0  0  0  0  0  0  0  # atno 10763 bound_to 10752
  154.2920  135.2774  155.2652 H   0  0  0  0  0  0  0  0  0  0  0  0  # atno 10764 bound_to 10752
  154.4943  135.5884  153.6539 H   0  0  0  0  0  0  0  0  0  0  0  0  # atno 10765 bound_to 10752
  140.9024  134.1673  157.4451 H   0  0  0  0  0  0  0  0  0  0  0  0  # atno 11005 bound_to 11000
  145.7761  139.1874  143.2184 LP  0  0  0  0  0  0  0  0  0  0  0  0  # atno 17320 bound_to 7965
  146.0872  140.7697  142.9613 LP  0  0  0  0  0  0  0  0  0  0  0  0  # atno 17321 bound_to 7965
  139.4829  144.4802  151.9316 LP  0  0  0  0  0  0  0  0  0  0  0  0  # atno 17342 bound_to 10162
  140.3887  144.2643  150.5901 LP  0  0  0  0  0  0  0  0  0  0  0  0  # atno 17343 bound_to 10162
  157.6089  130.8568  149.8920 LP  0  0  0  0  0  0  0  0  0  0  0  0  # atno 17370 bound_to 10713
  156.0634  130.3696  150.0932 LP  0  0  0  0  0  0  0  0  0  0  0  0  # atno 17371 bound_to 10713
  139.8744  134.9903  156.5497 LP  0  0  0  0  0  0  0  0  0  0  0  0  # atno 17394 bound_to 11000
  140.8213  133.8351  155.8899 LP  0  0  0  0  0  0  0  0  0  0  0  0  # atno 17395 bound_to 11000

$$$$
