AV-unprocessed.smi:2695|AV-procd|sdf|10410|dock5
  -GOLD-   2272014443D 1   1.00000     0.00000
 Structure written by MMmdl.
 42 43  0  0  0  0  0  0  0  0  1 V2000
  145.7585  135.5670  150.9437 C   0  0  0  0  0  0  0  0  0  0  0  0
  145.3656  134.1081  150.7446 C   0  0  0  0  0  0  0  0  0  0  0  0
  144.2722  133.7738  150.0351 C   0  0  0  0  0  0  0  0  0  0  0  0
  143.9061  132.3862  149.8933 C   0  0  0  0  0  0  0  0  0  0  0  0
  142.8247  132.0476  149.1805 O   0  0  0  0  0  0  0  0  0  0  0  0
  144.6522  131.4371  150.4880 C   0  0  0  0  0  0  0  0  0  0  0  0
  145.8425  131.7679  151.2750 C   0  0  0  0  0  0  0  0  0  0  0  0
  146.5078  130.8908  151.8280 O   0  0  0  0  0  0  0  0  0  0  0  0
  146.1684  133.0987  151.3534 N   0  0  0  0  0  0  0  0  0  0  0  0
  147.3907  133.4808  152.0984 C   0  0  0  0  0  0  0  0  0  0  0  0
  147.1341  133.8172  153.5757 C   0  0  0  0  0  0  0  0  0  0  0  0
  146.5637  133.0177  154.3190 O   0  0  0  0  0  0  0  0  0  0  0  0
  147.5660  135.0215  153.9792 N   0  0  0  0  0  0  0  0  0  0  0  0
  147.4322  135.5794  155.3265 C   0  0  1  0  0  0  0  0  0  0  0  0
  148.8398  135.8921  155.8956 C   0  0  0  0  0  0  0  0  0  0  0  0
  149.7293  136.7191  154.9579 C   0  0  0  0  0  0  0  0  0  0  0  0
  151.1470  136.5344  155.5002 C   0  0  0  0  0  0  0  0  0  0  0  0
  151.1642  135.1513  156.1635 C   0  0  0  0  0  0  0  0  0  0  0  0
  149.7100  134.6617  156.1878 C   0  0  0  0  0  0  0  0  0  0  0  0
  146.4931  136.8059  155.2654 C   0  0  0  0  0  0  0  0  0  0  0  0
  146.9429  137.6747  154.3589 F   0  0  0  0  0  0  0  0  0  0  0  0
  145.2604  136.4486  154.9078 F   0  0  0  0  0  0  0  0  0  0  0  0
  146.4404  137.4153  156.4505 F   0  0  0  0  0  0  0  0  0  0  0  0
  144.9410  136.2278  150.6533 H   0  0  0  0  0  0  0  0  0  0  0  0
  146.6212  135.8197  150.3269 H   0  0  0  0  0  0  0  0  0  0  0  0
  145.9869  135.7905  151.9854 H   0  0  0  0  0  0  0  0  0  0  0  0
  143.6594  134.5402  149.5826 H   0  0  0  0  0  0  0  0  0  0  0  0
  142.1644  132.7056  149.3348 H   0  0  0  0  0  0  0  0  0  0  0  0
  144.3729  130.3985  150.3841 H   0  0  0  0  0  0  0  0  0  0  0  0
  148.1313  132.6798  152.0602 H   0  0  0  0  0  0  0  0  0  0  0  0
  147.9061  134.3159  151.6260 H   0  0  0  0  0  0  0  0  0  0  0  0
  148.0195  135.6100  153.2954 H   0  0  0  0  0  0  0  0  0  0  0  0
  146.9630  134.8441  155.9826 H   0  0  0  0  0  0  0  0  0  0  0  0
  148.7285  136.4536  156.8248 H   0  0  0  0  0  0  0  0  0  0  0  0
  149.6722  136.3208  153.9437 H   0  0  0  0  0  0  0  0  0  0  0  0
  149.4395  137.7696  154.9170 H   0  0  0  0  0  0  0  0  0  0  0  0
  151.8997  136.6283  154.7168 H   0  0  0  0  0  0  0  0  0  0  0  0
  151.3561  137.3002  156.2482 H   0  0  0  0  0  0  0  0  0  0  0  0
  151.7947  134.4539  155.6108 H   0  0  0  0  0  0  0  0  0  0  0  0
  151.5679  135.2236  157.1741 H   0  0  0  0  0  0  0  0  0  0  0  0
  149.4584  134.1924  157.1393 H   0  0  0  0  0  0  0  0  0  0  0  0
  149.5709  133.9135  155.4060 H   0  0  0  0  0  0  0  0  0  0  0  0
  1  2  1  0  0  0  0
  1 24  1  0  0  0  0
  1 25  1  0  0  0  0
  1 26  1  0  0  0  0
  2  9  1  0  0  0  0
  2  3  2  0  0  0  0
  3  4  1  0  0  0  0
  3 27  1  0  0  0  0
  4  5  1  0  0  0  0
  4  6  2  0  0  0  0
  5 28  1  0  0  0  0
  6  7  1  0  0  0  0
  6 29  1  0  0  0  0
  7  8  2  0  0  0  0
  7  9  1  0  0  0  0
  9 10  1  0  0  0  0
 10 11  1  0  0  0  0
 10 30  1  0  0  0  0
 10 31  1  0  0  0  0
 11 12  2  0  0  0  0
 11 13  1  0  0  0  0
 13 14  1  0  0  0  0
 13 32  1  0  0  0  0
 14 15  1  0  0  0  0
 14 20  1  0  0  0  0
 14 33  1  0  0  0  0
 15 19  1  0  0  0  0
 15 16  1  0  0  0  0
 15 34  1  0  0  0  0
 16 17  1  0  0  0  0
 16 35  1  0  0  0  0
 16 36  1  0  0  0  0
 17 18  1  0  0  0  0
 17 37  1  0  0  0  0
 17 38  1  0  0  0  0
 18 19  1  0  0  0  0
 18 39  1  0  0  0  0
 18 40  1  0  0  0  0
 19 41  1  0  0  0  0
 19 42  1  0  0  0  0
 20 21  1  0  0  0  0
 20 22  1  0  0  0  0
 20 23  1  0  0  0  0
M  END
> <s_m_source_file>
AV-unprocessed.smi

> <i_m_source_file_index>
2695

> <i_lp_mmshare_version>
43012

> <i_f3d_flags>
0

> <s_epik_input>
W0NIM11jMVtjSF1jKFtPSF0pW2NIXWMoPU8pbjFbQ0gyXUMoPU8pW05IXVtDQEBIXShDKEYpKEYpRilbQ0hdMltDSDJdW0NIMl1bQ0gyXVtDSDJdMg==

> <s_epik_cmdline>
J2VwaWtfcHl0aG9uJywgJy1waCcsICc3LjAnLCAnLXRuJywgJzgnLCAnLW1hJywgJzIwMCcsICctbWV0YWxfYmluZGluZycsICctaW1hZScsICc8aW5maWxlLm1hZT4nLCAnLW9tYWUnLCAnPG91dGZpbGUubWFlPic=

> <r_lp_tautomer_probability>
0.999984

> <r_epik_Ionization_Penalty>
0.843628

> <r_epik_Ionization_Penalty_Charging>
1.18449e-07

> <r_epik_Ionization_Penalty_Neutral>
0.843628

> <r_epik_State_Penalty>
0.886913

> <r_epik_Charging_Adjusted_Penalty>
0.886913

> <i_epik_Tot_Q>
0

> <i_epik_Tot_abs_Q>
0

> <r_epik_Metal_State_Penalty>
0.886913

> <b_epik_Metal_Only>
0

> <s_lp_Force_Field>
OPLS_2005

> <r_lp_Energy>
35.4527

> <b_lp_Chiralities_Consistent>
1

> <s_lp_Variant>
AV-unprocessed.smi:2695-4

> <Gold.Version>
5.8.1

> <Gold.Id.Protein>
6NUR|6NUR_protein|mol2

> <Gold.PLP.Fitness>
39.7206

> <Gold.PLP.PLP>
-31.5276

> <Gold.PLP.part.hbond>
-4.0000

> <Gold.PLP.part.metal>
0.0000

> <Gold.PLP.part.buried>
-4.5930

> <Gold.PLP.part.nonpolar>
-23.7128

> <Gold.PLP.part.repulsive>
0.6194

> <Gold.PLP.ligand.clash>
0.0000

> <Gold.PLP.ligand.torsion>
0.5681

> <Gold.PLP.Chemscore.Hbond>
3.0000

> <Gold.PLP.Chemscore.CHOScore>
0.0000

> <Gold.PLP.Chemscore.Metal>
0.0000

> <Gold.Chemscore.Hbonds>
donor molecule, donor type, donor heavy atom, donor atom, acceptor molecule, acceptor atom, score
      L1  H     5    28       P1 10186  0.91
      L1  H    13    32       P1  7948  1.00
      P1  H 10785 10796       L1     5  1.00

> <Gold.PLP.Chemscore.Internal.Correction>
0.3291

> <Gold.Rescore>
     Score         DG    S(hbond)    S(metal)    S(lipo)     H(rot)  DE(clash)    DE(int)     intcor
     14.17     -14.99       2.29        0.00      67.60       2.36       0.00       0.81       ----

> <Gold.Chemscore.Fitness>
14.1746

> <Gold.Chemscore.DG>
-14.9854

> <Gold.Chemscore.ZeroCoef>
-5.4800

> <Gold.Chemscore.Hbond>
2.2865

> <Gold.Chemscore.Metal>
0.0000

> <Gold.Chemscore.Lipo>
67.6046

> <Gold.Chemscore.Internal_Hbond>
0.0000

> <Gold.Chemscore.DEClash>
0.0024

> <Gold.Chemscore.DEInternal>
0.8084

> <Gold.Chemscore.Rot>
2.3599

> <Gold.Chemscore.Internal.Correction>
   9.000000E+99

> <Gold.Chemscore.Hbonds>
donor molecule, donor type, donor heavy atom, donor atom, acceptor molecule, acceptor atom, score
      L1  H     5    28       P1 10186  0.87
      L1  H    13    32       P1  7948  1.00
      P1  H 10785 10796       L1     5  0.34

> <Gold.Chemscore.Hbond.Weighted>
-7.6369

> <Gold.Chemscore.Metal.Weighted>
-0.0000

> <Gold.Chemscore.Lipo.Weighted>
-7.9097

> <Gold.Chemscore.Internal_Hbond.Weighted>
0.0000

> <Gold.Chemscore.DEClash.Weighted>
0.0024

> <Gold.Chemscore.DEInternal.Weighted>
0.8084

> <Gold.Chemscore.Rot.Weighted>
6.0413

> <Gold.Chemscore.Internal.Correction.Weighted>
   9.000000E+99

> <Gold.Protein.RotatedTorsions>
[ 6907 6896 6895 6894 ] final   15.20 input  -60.11 | X-H torsion
[ 7974 7965 7964 7962 ] final  -73.61 input  175.53 | X-H torsion
[ 8008 7997 7996 7995 ] final  -41.09 input   59.86 | X-H torsion
[ 10167 10162 10161 10158 ] final -116.70 input  -65.29 | X-H torsion
[ 10718 10713 10712 10709 ] final  157.44 input   66.30 | X-H torsion
[ 10763 10752 10751 10750 ] final -170.02 input  -60.55 | X-H torsion
[ 11005 11000 10999 10996 ] final -113.31 input  -57.11 | X-H torsion

> <Gold.Protein.ActiveResidues>
 VAL166  LYS551  ARG553  GLY616  TRP617  ASP618  TYR619  PRO620  LYS621  CYS622 
 ASP623  PHE694  ASN695  SER759  ASP760  ASP761  ALA762  ILE779  LEU786  VAL792 
 PHE793  MET794  SER795  GLU796  ALA797  LYS798  CYS799  TRP800  GLU811  SER814 

> <Gold.Protein.RotatedAtoms>
  151.8144  135.0671  160.0416 H   0  0  0  0  0  0  0  0  0  0  0  0  # atno 6907 bound_to 6896
  152.2997  133.5638  159.5619 H   0  0  0  0  0  0  0  0  0  0  0  0  # atno 6908 bound_to 6896
  150.7268  134.0225  159.3748 H   0  0  0  0  0  0  0  0  0  0  0  0  # atno 6909 bound_to 6896
  145.6499  140.9285  143.0990 H   0  0  0  0  0  0  0  0  0  0  0  0  # atno 7974 bound_to 7965
  154.4006  140.1508  156.3134 H   0  0  0  0  0  0  0  0  0  0  0  0  # atno 8008 bound_to 7997
  155.8595  140.3454  155.5725 H   0  0  0  0  0  0  0  0  0  0  0  0  # atno 8009 bound_to 7997
  155.7896  140.0855  157.2006 H   0  0  0  0  0  0  0  0  0  0  0  0  # atno 8010 bound_to 7997
  140.0764  143.4829  152.1951 H   0  0  0  0  0  0  0  0  0  0  0  0  # atno 10167 bound_to 10162
  157.1914  131.0655  151.2077 H   0  0  0  0  0  0  0  0  0  0  0  0  # atno 10718 bound_to 10713
  154.6460  135.2905  155.0045 H   0  0  0  0  0  0  0  0  0  0  0  0  # atno 10763 bound_to 10752
  154.1155  135.6556  153.4897 H   0  0  0  0  0  0  0  0  0  0  0  0  # atno 10764 bound_to 10752
  153.0351  135.5275  154.7347 H   0  0  0  0  0  0  0  0  0  0  0  0  # atno 10765 bound_to 10752
  141.0622  133.9517  157.2645 H   0  0  0  0  0  0  0  0  0  0  0  0  # atno 11005 bound_to 11000
  144.7126  139.8314  143.7409 LP  0  0  0  0  0  0  0  0  0  0  0  0  # atno 17320 bound_to 7965
  146.1212  139.4230  143.0227 LP  0  0  0  0  0  0  0  0  0  0  0  0  # atno 17321 bound_to 7965
  139.5805  144.7508  151.3652 LP  0  0  0  0  0  0  0  0  0  0  0  0  # atno 17342 bound_to 10162
  140.7100  143.7416  150.7549 LP  0  0  0  0  0  0  0  0  0  0  0  0  # atno 17343 bound_to 10162
  157.3857  130.7255  149.6661 LP  0  0  0  0  0  0  0  0  0  0  0  0  # atno 17370 bound_to 10713
  155.9711  130.4160  150.4210 LP  0  0  0  0  0  0  0  0  0  0  0  0  # atno 17371 bound_to 10713
  139.9443  135.0186  156.8805 LP  0  0  0  0  0  0  0  0  0  0  0  0  # atno 17394 bound_to 11000
  140.5845  134.0320  155.7476 LP  0  0  0  0  0  0  0  0  0  0  0  0  # atno 17395 bound_to 11000

$$$$
