AV-unprocessed.smi:226|AV-procd|sdf|1725|dock2
  -GOLD-   2262020203D 1   1.00000     0.00000
 Structure written by MMmdl.
 54 58  0  0  0  0  0  0  0  0  1 V2000
  150.2784  140.2902  154.7641 O   0  0  0  0  0  0  0  0  0  0  0  0
  149.3906  139.5967  154.2655 C   0  0  0  0  0  0  0  0  0  0  0  0
  149.4941  138.2694  154.1061 N   0  0  0  0  0  0  0  0  0  0  0  0
  150.6108  137.4715  154.4950 C   0  0  0  0  0  0  0  0  0  0  0  0
  151.3086  137.8199  155.7919 C   0  0  0  0  0  0  0  0  0  0  0  0
  151.9756  138.1248  154.4790 C   0  0  0  0  0  0  0  0  0  0  0  0
  148.0753  140.2306  153.7767 C   0  0  2  0  0  0  0  0  0  0  0  0
  148.0826  141.7593  153.9527 C   0  0  0  0  0  0  0  0  0  0  0  0
  147.4873  141.9873  155.3410 C   0  0  0  0  0  0  0  0  0  0  0  0
  146.4544  140.8675  155.4627 C   0  0  0  0  0  0  0  0  0  0  0  0
  146.9252  139.8078  154.5761 N   0  0  0  0  0  0  0  0  0  0  0  0
  146.2920  138.6059  154.4725 C   0  0  0  0  0  0  0  0  0  0  0  0
  145.8296  138.0347  155.6166 N   0  0  0  0  0  0  0  0  0  0  0  0
  145.2008  136.8575  155.5893 C   0  0  0  0  0  0  0  0  0  0  0  0
  144.9305  136.0829  154.5396 N   0  0  0  0  0  0  0  0  0  0  0  0
  145.3887  136.6410  153.3836 C   0  0  0  0  0  0  0  0  0  0  0  0
  146.0664  137.8897  153.2561 C   0  0  0  0  0  0  0  0  0  0  0  0
  146.3503  138.1202  151.9134 N   0  0  0  0  0  0  0  0  0  0  0  0
  145.8726  137.0787  151.2911 C   0  0  0  0  0  0  0  0  0  0  0  0
  145.3033  136.1254  152.1019 N   0  0  0  0  0  0  0  0  0  0  0  0
  144.6683  134.9091  151.6846 C   0  0  0  0  0  0  0  0  0  0  0  0
  145.2743  133.5456  152.0288 C   0  0  0  0  0  0  0  0  0  0  0  0
  144.8234  132.9845  150.6621 C   0  0  0  0  0  0  0  0  0  0  0  0
  145.8920  132.1846  149.9012 C   0  0  0  0  0  0  0  0  0  0  0  0
  147.1890  132.6846  150.1561 O   0  0  0  0  0  0  0  0  0  0  0  0
  143.5256  132.1462  150.6371 C   0  0  0  0  0  0  0  0  0  0  0  0
  142.9504  132.0435  149.3501 O   0  0  0  0  0  0  0  0  0  0  0  0
  144.6942  134.4597  150.2198 C   0  0  0  0  0  0  0  0  0  0  0  0
  148.7141  137.7843  153.6866 H   0  0  0  0  0  0  0  0  0  0  0  0
  150.5853  136.4140  154.2353 H   0  0  0  0  0  0  0  0  0  0  0  0
  150.9246  138.6598  156.3677 H   0  0  0  0  0  0  0  0  0  0  0  0
  151.7109  136.9979  156.3807 H   0  0  0  0  0  0  0  0  0  0  0  0
  152.8229  137.5066  154.1895 H   0  0  0  0  0  0  0  0  0  0  0  0
  152.0366  139.1687  154.1768 H   0  0  0  0  0  0  0  0  0  0  0  0
  147.9189  139.9991  152.7226 H   0  0  0  0  0  0  0  0  0  0  0  0
  149.0717  142.2072  153.8449 H   0  0  0  0  0  0  0  0  0  0  0  0
  147.4368  142.2156  153.2011 H   0  0  0  0  0  0  0  0  0  0  0  0
  148.2619  141.8623  156.0989 H   0  0  0  0  0  0  0  0  0  0  0  0
  147.0538  142.9802  155.4631 H   0  0  0  0  0  0  0  0  0  0  0  0
  146.3633  140.5282  156.4954 H   0  0  0  0  0  0  0  0  0  0  0  0
  145.4755  141.2101  155.1242 H   0  0  0  0  0  0  0  0  0  0  0  0
  144.8681  136.4824  156.5460 H   0  0  0  0  0  0  0  0  0  0  0  0
  145.9295  136.9766  150.2170 H   0  0  0  0  0  0  0  0  0  0  0  0
  143.6424  134.9736  152.0487 H   0  0  0  0  0  0  0  0  0  0  0  0
  146.3599  133.5908  152.1308 H   0  0  0  0  0  0  0  0  0  0  0  0
  144.8227  133.0602  152.8947 H   0  0  0  0  0  0  0  0  0  0  0  0
  145.8611  131.1280  150.1691 H   0  0  0  0  0  0  0  0  0  0  0  0
  145.7237  132.2341  148.8248 H   0  0  0  0  0  0  0  0  0  0  0  0
  147.8176  132.0166  149.9275 H   0  0  0  0  0  0  0  0  0  0  0  0
  143.7139  131.1336  150.9954 H   0  0  0  0  0  0  0  0  0  0  0  0
  142.7704  132.5749  151.2966 H   0  0  0  0  0  0  0  0  0  0  0  0
  142.3198  132.7399  149.2463 H   0  0  0  0  0  0  0  0  0  0  0  0
  143.7863  134.6943  149.6635 H   0  0  0  0  0  0  0  0  0  0  0  0
  145.5767  134.8223  149.6899 H   0  0  0  0  0  0  0  0  0  0  0  0
  1  2  2  0  0  0  0
  2  3  1  0  0  0  0
  2  7  1  0  0  0  0
  3  4  1  0  0  0  0
  3 29  1  0  0  0  0
  4  6  1  0  0  0  0
  4  5  1  0  0  0  0
  4 30  1  0  0  0  0
  5  6  1  0  0  0  0
  5 31  1  0  0  0  0
  5 32  1  0  0  0  0
  6 33  1  0  0  0  0
  6 34  1  0  0  0  0
  7 11  1  0  0  0  0
  7  8  1  0  0  0  0
  7 35  1  0  0  0  0
  8  9  1  0  0  0  0
  8 36  1  0  0  0  0
  8 37  1  0  0  0  0
  9 10  1  0  0  0  0
  9 38  1  0  0  0  0
  9 39  1  0  0  0  0
 10 11  1  0  0  0  0
 10 40  1  0  0  0  0
 10 41  1  0  0  0  0
 11 12  1  0  0  0  0
 12 17  1  0  0  0  0
 12 13  2  0  0  0  0
 13 14  1  0  0  0  0
 14 15  2  0  0  0  0
 14 42  1  0  0  0  0
 15 16  1  0  0  0  0
 16 20  1  0  0  0  0
 16 17  2  0  0  0  0
 17 18  1  0  0  0  0
 18 19  2  0  0  0  0
 19 20  1  0  0  0  0
 19 43  1  0  0  0  0
 20 21  1  0  0  0  0
 21 28  1  0  0  0  0
 21 22  1  0  0  0  0
 21 44  1  0  0  0  0
 22 23  1  0  0  0  0
 22 45  1  0  0  0  0
 22 46  1  0  0  0  0
 23 24  1  0  0  0  0
 23 26  1  0  0  0  0
 23 28  1  0  0  0  0
 24 25  1  0  0  0  0
 24 47  1  0  0  0  0
 24 48  1  0  0  0  0
 25 49  1  0  0  0  0
 26 27  1  0  0  0  0
 26 50  1  0  0  0  0
 26 51  1  0  0  0  0
 27 52  1  0  0  0  0
 28 53  1  0  0  0  0
 28 54  1  0  0  0  0
M  END
> <s_m_source_file>
AV-unprocessed.smi

> <i_m_source_file_index>
226

> <i_lp_mmshare_version>
43012

> <i_f3d_flags>
0

> <s_epik_input>
W0NIMl0xW0NIMl1bQ0hdMVtOSF1DKD1PKVtDQEBIXTJbQ0gyXVtDSDJdW0NIMl1OMmMobltjSF1uMyljKGMzNCluW2NIXW40W0NIXShbQ0gyXTUpW0NIMl1DNShbQ0gyXVtPSF0pW0NIMl1bT0hd

> <s_epik_cmdline>
J2VwaWtfcHl0aG9uJywgJy1waCcsICc3LjAnLCAnLXRuJywgJzgnLCAnLW1hJywgJzIwMCcsICctbWV0YWxfYmluZGluZycsICctaW1hZScsICc8aW5maWxlLm1hZT4nLCAnLW9tYWUnLCAnPG91dGZpbGUubWFlPic=

> <r_lp_tautomer_probability>
1

> <r_epik_Ionization_Penalty>
0.000818715

> <r_epik_Ionization_Penalty_Charging>
0

> <r_epik_Ionization_Penalty_Neutral>
0.000818715

> <r_epik_State_Penalty>
0.000426447

> <r_epik_Charging_Adjusted_Penalty>
0.000426447

> <i_epik_Tot_Q>
0

> <i_epik_Tot_abs_Q>
0

> <r_epik_Metal_State_Penalty>
-0

> <b_epik_Metal_Only>
0

> <s_lp_Force_Field>
OPLS_2005

> <r_lp_Energy>
61.6174

> <b_lp_Chiralities_Consistent>
1

> <s_lp_Variant>
AV-unprocessed.smi:226-1

> <Gold.Version>
5.8.1

> <Gold.Id.Protein>
6NUR|6NUR_protein|mol2

> <Gold.PLP.Fitness>
53.7376

> <Gold.PLP.PLP>
-43.2047

> <Gold.PLP.part.hbond>
-7.0704

> <Gold.PLP.part.metal>
0.0000

> <Gold.PLP.part.buried>
0.2305

> <Gold.PLP.part.nonpolar>
-36.9917

> <Gold.PLP.part.repulsive>
0.4709

> <Gold.PLP.ligand.clash>
0.0000

> <Gold.PLP.ligand.torsion>
1.4183

> <Gold.PLP.Chemscore.Hbond>
3.9530

> <Gold.PLP.Chemscore.CHOScore>
0.2869

> <Gold.PLP.Chemscore.Metal>
0.0000

> <Gold.Chemscore.Hbonds>
donor molecule, donor type, donor heavy atom, donor atom, acceptor molecule, acceptor atom, score
      L1  H     3    29       P1  7948  0.04
      L1  H    25    49       P1 10747  1.00
      L1  H    27    52       P1 10186  0.71
      P1  H  7989  7998       L1     1  1.00
      P1  H 10785 10796       L1    27  1.00
      L1  C    19    43       P1 10171  0.21

> <Gold.PLP.Chemscore.Internal.Correction>
0.6499

> <Gold.Rescore>
     Score         DG    S(hbond)    S(metal)    S(lipo)     H(rot)  DE(clash)    DE(int)     intcor
     13.13     -18.49       3.51        0.00      88.03       3.52       1.35       4.01       ----

> <Gold.Chemscore.Fitness>
13.1290

> <Gold.Chemscore.DG>
-18.4903

> <Gold.Chemscore.ZeroCoef>
-5.4800

> <Gold.Chemscore.Hbond>
3.5128

> <Gold.Chemscore.Metal>
0.0000

> <Gold.Chemscore.Lipo>
88.0340

> <Gold.Chemscore.Internal_Hbond>
0.0000

> <Gold.Chemscore.DEClash>
1.3511

> <Gold.Chemscore.DEInternal>
4.0102

> <Gold.Chemscore.Rot>
3.5244

> <Gold.Chemscore.Internal.Correction>
   9.000000E+99

> <Gold.Chemscore.Hbonds>
donor molecule, donor type, donor heavy atom, donor atom, acceptor molecule, acceptor atom, score
      L1  H     3    29       P1  7948  0.06
      L1  H    25    49       P1 10747  0.98
      L1  H    27    52       P1 10186  0.71
      P1  H  7989  7998       L1     1  0.85
      P1  H 10785 10796       L1    27  0.57

> <Gold.Chemscore.Hbond.Weighted>
-11.7328

> <Gold.Chemscore.Metal.Weighted>
-0.0000

> <Gold.Chemscore.Lipo.Weighted>
-10.3000

> <Gold.Chemscore.Internal_Hbond.Weighted>
0.0000

> <Gold.Chemscore.DEClash.Weighted>
1.3511

> <Gold.Chemscore.DEInternal.Weighted>
4.0102

> <Gold.Chemscore.Rot.Weighted>
9.0225

> <Gold.Chemscore.Internal.Correction.Weighted>
   9.000000E+99

> <Gold.Protein.RotatedTorsions>
[ 6907 6896 6895 6894 ] final  -75.92 input  -60.11 | X-H torsion
[ 7974 7965 7964 7962 ] final  -38.49 input  175.53 | X-H torsion
[ 8008 7997 7996 7995 ] final   73.05 input   59.86 | X-H torsion
[ 10167 10162 10161 10158 ] final  109.15 input  -65.29 | X-H torsion
[ 10718 10713 10712 10709 ] final   29.53 input   66.30 | X-H torsion
[ 10763 10752 10751 10750 ] final  171.03 input  -60.55 | X-H torsion
[ 11005 11000 10999 10996 ] final -130.28 input  -57.11 | X-H torsion

> <Gold.Protein.ActiveResidues>
 VAL166  LYS551  ARG553  GLY616  TRP617  ASP618  TYR619  PRO620  LYS621  CYS622 
 ASP623  PHE694  ASN695  SER759  ASP760  ASP761  ALA762  ILE779  LEU786  VAL792 
 PHE793  MET794  SER795  GLU796  ALA797  LYS798  CYS799  TRP800  GLU811  SER814 

> <Gold.Protein.RotatedAtoms>
  150.7043  134.4649  159.5397 H   0  0  0  0  0  0  0  0  0  0  0  0  # atno 6907 bound_to 6896
  152.2317  134.8313  160.0482 H   0  0  0  0  0  0  0  0  0  0  0  0  # atno 6908 bound_to 6896
  151.9126  133.3530  159.3906 H   0  0  0  0  0  0  0  0  0  0  0  0  # atno 6909 bound_to 6896
  146.0481  140.6518  142.9055 H   0  0  0  0  0  0  0  0  0  0  0  0  # atno 7974 bound_to 7965
  155.7779  140.3482  155.5282 H   0  0  0  0  0  0  0  0  0  0  0  0  # atno 8008 bound_to 7997
  155.8757  140.0994  157.1540 H   0  0  0  0  0  0  0  0  0  0  0  0  # atno 8009 bound_to 7997
  154.4021  140.1332  156.4121 H   0  0  0  0  0  0  0  0  0  0  0  0  # atno 8010 bound_to 7997
  139.6789  144.7120  151.1551 H   0  0  0  0  0  0  0  0  0  0  0  0  # atno 10167 bound_to 10162
  157.2477  130.7100  149.6390 H   0  0  0  0  0  0  0  0  0  0  0  0  # atno 10718 bound_to 10713
  154.4060  135.2755  155.2067 H   0  0  0  0  0  0  0  0  0  0  0  0  # atno 10763 bound_to 10752
  154.4072  135.6031  153.5935 H   0  0  0  0  0  0  0  0  0  0  0  0  # atno 10764 bound_to 10752
  152.9831  135.5941  154.4335 H   0  0  0  0  0  0  0  0  0  0  0  0  # atno 10765 bound_to 10752
  140.9359  134.1257  157.4194 H   0  0  0  0  0  0  0  0  0  0  0  0  # atno 11005 bound_to 11000
  144.7108  140.4032  143.7082 LP  0  0  0  0  0  0  0  0  0  0  0  0  # atno 17320 bound_to 7965
  145.6770  139.1610  143.2722 LP  0  0  0  0  0  0  0  0  0  0  0  0  # atno 17321 bound_to 7965
  140.7645  143.5729  150.8977 LP  0  0  0  0  0  0  0  0  0  0  0  0  # atno 17342 bound_to 10162
  139.9399  143.6394  152.3056 LP  0  0  0  0  0  0  0  0  0  0  0  0  # atno 17343 bound_to 10162
  155.9667  130.4437  150.5434 LP  0  0  0  0  0  0  0  0  0  0  0  0  # atno 17370 bound_to 10713
  157.3311  131.0699  151.1860 LP  0  0  0  0  0  0  0  0  0  0  0  0  # atno 17371 bound_to 10713
  139.8808  135.0021  156.6104 LP  0  0  0  0  0  0  0  0  0  0  0  0  # atno 17394 bound_to 11000
  140.7800  133.8668  155.8560 LP  0  0  0  0  0  0  0  0  0  0  0  0  # atno 17395 bound_to 11000

$$$$
