AV-unprocessed.smi:1031|AV-procd|sdf|4481|dock1
  -GOLD-   22720 2453D 1   1.00000     0.00000
 Structure written by MMmdl.
 35 36  0  0  0  0  0  0  0  0  1 V2000
  151.2583  140.5961  158.0808 C   0  0  0  0  0  0  0  0  0  0  0  0
  150.3644  141.7868  157.7086 C   0  0  1  0  0  0  0  0  0  0  0  0
  151.2042  143.0459  157.4039 C   0  0  0  0  0  0  0  0  0  0  0  0
  151.4258  143.8728  158.5769 N   0  0  0  0  0  0  0  0  0  0  0  0
  150.9344  145.1341  158.8419 C   0  0  0  0  0  0  0  0  0  0  0  0
  151.3983  145.5003  160.0725 C   0  0  0  0  0  0  0  0  0  0  0  0
  152.1786  144.3841  160.4851 C   0  0  0  0  0  0  0  0  0  0  0  0
  152.1967  143.4134  159.5860 N   0  0  0  0  0  0  0  0  0  0  0  0
  149.5420  141.4180  156.5568 N   0  0  0  0  0  0  0  0  0  0  0  0
  149.9782  140.8073  155.4433 C   0  0  0  0  0  0  0  0  0  0  0  0
  151.1548  140.4928  155.2604 O   0  0  0  0  0  0  0  0  0  0  0  0
  148.9158  140.4944  154.3775 C   0  0  0  0  0  0  0  0  0  0  0  0
  148.1701  141.7688  153.9158 C   0  0  0  0  0  0  0  0  0  0  0  0
  146.6864  141.5642  154.2491 C   0  0  0  0  0  0  0  0  0  0  0  0
  146.6583  140.4691  155.3111 C   0  0  0  0  0  0  0  0  0  0  0  0
  147.8214  139.5575  154.9243 C   0  0  0  0  0  0  0  0  0  0  0  0
  151.8652  140.8206  158.9582 H   0  0  0  0  0  0  0  0  0  0  0  0
  151.9349  140.3361  157.2660 H   0  0  0  0  0  0  0  0  0  0  0  0
  150.6607  139.7138  158.3126 H   0  0  0  0  0  0  0  0  0  0  0  0
  149.7266  141.9901  158.5707 H   0  0  0  0  0  0  0  0  0  0  0  0
  152.1788  142.7588  157.0061 H   0  0  0  0  0  0  0  0  0  0  0  0
  150.7227  143.6517  156.6349 H   0  0  0  0  0  0  0  0  0  0  0  0
  150.2963  145.6561  158.1440 H   0  0  0  0  0  0  0  0  0  0  0  0
  151.2077  146.4236  160.5990 H   0  0  0  0  0  0  0  0  0  0  0  0
  152.7293  144.2516  161.4048 H   0  0  0  0  0  0  0  0  0  0  0  0
  148.5582  141.6376  156.6159 H   0  0  0  0  0  0  0  0  0  0  0  0
  149.4011  140.0180  153.5237 H   0  0  0  0  0  0  0  0  0  0  0  0
  148.5399  142.6626  154.4217 H   0  0  0  0  0  0  0  0  0  0  0  0
  148.3044  141.9404  152.8473 H   0  0  0  0  0  0  0  0  0  0  0  0
  146.2023  142.4819  154.5848 H   0  0  0  0  0  0  0  0  0  0  0  0
  146.1582  141.2193  153.3593 H   0  0  0  0  0  0  0  0  0  0  0  0
  146.8369  140.9031  156.2959 H   0  0  0  0  0  0  0  0  0  0  0  0
  145.7045  139.9419  155.3462 H   0  0  0  0  0  0  0  0  0  0  0  0
  147.5032  138.8735  154.1366 H   0  0  0  0  0  0  0  0  0  0  0  0
  148.1518  138.9438  155.7640 H   0  0  0  0  0  0  0  0  0  0  0  0
  1  2  1  0  0  0  0
  1 17  1  0  0  0  0
  1 18  1  0  0  0  0
  1 19  1  0  0  0  0
  2  3  1  0  0  0  0
  2  9  1  0  0  0  0
  2 20  1  0  0  0  0
  3  4  1  0  0  0  0
  3 21  1  0  0  0  0
  3 22  1  0  0  0  0
  4  8  1  0  0  0  0
  4  5  1  0  0  0  0
  5  6  2  0  0  0  0
  5 23  1  0  0  0  0
  6  7  1  0  0  0  0
  6 24  1  0  0  0  0
  7  8  2  0  0  0  0
  7 25  1  0  0  0  0
  9 10  1  0  0  0  0
  9 26  1  0  0  0  0
 10 11  2  0  0  0  0
 10 12  1  0  0  0  0
 12 16  1  0  0  0  0
 12 13  1  0  0  0  0
 12 27  1  0  0  0  0
 13 14  1  0  0  0  0
 13 28  1  0  0  0  0
 13 29  1  0  0  0  0
 14 15  1  0  0  0  0
 14 30  1  0  0  0  0
 14 31  1  0  0  0  0
 15 16  1  0  0  0  0
 15 32  1  0  0  0  0
 15 33  1  0  0  0  0
 16 34  1  0  0  0  0
 16 35  1  0  0  0  0
M  END
> <s_m_source_file>
AV-unprocessed.smi

> <i_m_source_file_index>
1031

> <i_lp_mmshare_version>
43012

> <i_f3d_flags>
0

> <s_epik_input>
bjFbY0hdW2NIXVtjSF1uMVtDSDJdW0NAQEhdKFtDSDNdKVtOSF1DKD1PKVtDSF0yW0NIMl1bQ0gyXVtDSDJdW0NIMl0y

> <s_epik_cmdline>
J2VwaWtfcHl0aG9uJywgJy1waCcsICc3LjAnLCAnLXRuJywgJzgnLCAnLW1hJywgJzIwMCcsICctbWV0YWxfYmluZGluZycsICctaW1hZScsICc8aW5maWxlLm1hZT4nLCAnLW9tYWUnLCAnPG91dGZpbGUubWFlPic=

> <r_lp_tautomer_probability>
1

> <r_epik_Ionization_Penalty>
0.000326659

> <r_epik_Ionization_Penalty_Charging>
0

> <r_epik_Ionization_Penalty_Neutral>
0.000326659

> <r_epik_State_Penalty>
-0

> <r_epik_Charging_Adjusted_Penalty>
0

> <i_epik_Tot_Q>
0

> <i_epik_Tot_abs_Q>
0

> <r_epik_Metal_State_Penalty>
-0

> <b_epik_Metal_Only>
0

> <s_lp_Force_Field>
OPLS_2005

> <r_lp_Energy>
19.4397

> <b_lp_Chiralities_Consistent>
1

> <s_lp_Variant>
AV-unprocessed.smi:1031-2

> <Gold.Version>
5.8.1

> <Gold.Id.Protein>
6NUR|6NUR_protein|mol2

> <Gold.PLP.Fitness>
39.1885

> <Gold.PLP.PLP>
-34.6022

> <Gold.PLP.part.hbond>
-1.0000

> <Gold.PLP.part.metal>
0.0000

> <Gold.PLP.part.buried>
-5.7893

> <Gold.PLP.part.nonpolar>
-28.7853

> <Gold.PLP.part.repulsive>
0.0630

> <Gold.PLP.ligand.clash>
0.0000

> <Gold.PLP.ligand.torsion>
0.6637

> <Gold.PLP.Chemscore.Hbond>
0.9600

> <Gold.PLP.Chemscore.CHOScore>
1.0000

> <Gold.PLP.Chemscore.Metal>
0.0000

> <Gold.Chemscore.Hbonds>
donor molecule, donor type, donor heavy atom, donor atom, acceptor molecule, acceptor atom, score
      P1  H  7989  7998       L1    11  0.94
      L1  C     5    23       P1  8029  0.95

> <Gold.PLP.Chemscore.Internal.Correction>
0.0337

> <Gold.Rescore>
     Score         DG    S(hbond)    S(metal)    S(lipo)     H(rot)  DE(clash)    DE(int)     intcor
     12.71     -14.45       0.95        0.00      82.65       1.51       0.00       1.74       ----

> <Gold.Chemscore.Fitness>
12.7131

> <Gold.Chemscore.DG>
-14.4517

> <Gold.Chemscore.ZeroCoef>
-5.4800

> <Gold.Chemscore.Hbond>
0.9516

> <Gold.Chemscore.Metal>
0.0000

> <Gold.Chemscore.Lipo>
82.6547

> <Gold.Chemscore.Internal_Hbond>
0.0000

> <Gold.Chemscore.DEClash>
0.0019

> <Gold.Chemscore.DEInternal>
1.7367

> <Gold.Chemscore.Rot>
1.5146

> <Gold.Chemscore.Internal.Correction>
   9.000000E+99

> <Gold.Chemscore.Hbonds>
donor molecule, donor type, donor heavy atom, donor atom, acceptor molecule, acceptor atom, score
      P1  H  7989  7998       L1    11  0.68

> <Gold.Chemscore.Hbond.Weighted>
-3.1784

> <Gold.Chemscore.Metal.Weighted>
-0.0000

> <Gold.Chemscore.Lipo.Weighted>
-9.6706

> <Gold.Chemscore.Internal_Hbond.Weighted>
0.0000

> <Gold.Chemscore.DEClash.Weighted>
0.0019

> <Gold.Chemscore.DEInternal.Weighted>
1.7367

> <Gold.Chemscore.Rot.Weighted>
3.8773

> <Gold.Chemscore.Internal.Correction.Weighted>
   9.000000E+99

> <Gold.Protein.RotatedTorsions>
[ 6907 6896 6895 6894 ] final -160.45 input  -60.11 | X-H torsion
[ 7974 7965 7964 7962 ] final   52.62 input  175.53 | X-H torsion
[ 8008 7997 7996 7995 ] final   12.49 input   59.86 | X-H torsion
[ 10167 10162 10161 10158 ] final  -48.49 input  -65.29 | X-H torsion
[ 10718 10713 10712 10709 ] final   32.51 input   66.30 | X-H torsion
[ 10763 10752 10751 10750 ] final   95.43 input  -60.55 | X-H torsion
[ 11005 11000 10999 10996 ] final  -64.22 input  -57.11 | X-H torsion

> <Gold.Protein.ActiveResidues>
 VAL166  LYS551  ARG553  GLY616  TRP617  ASP618  TYR619  PRO620  LYS621  CYS622 
 ASP623  PHE694  ASN695  SER759  ASP760  ASP761  ALA762  ILE779  LEU786  VAL792 
 PHE793  MET794  SER795  GLU796  ALA797  LYS798  CYS799  TRP800  GLU811  SER814 

> <Gold.Protein.RotatedAtoms>
  151.3492  133.3932  159.2678 H   0  0  0  0  0  0  0  0  0  0  0  0  # atno 6907 bound_to 6896
  150.9815  134.9170  159.7857 H   0  0  0  0  0  0  0  0  0  0  0  0  # atno 6908 bound_to 6896
  152.5218  134.3456  159.9285 H   0  0  0  0  0  0  0  0  0  0  0  0  # atno 6909 bound_to 6896
  145.9795  139.4228  143.0141 H   0  0  0  0  0  0  0  0  0  0  0  0  # atno 7974 bound_to 7965
  154.8214  140.2884  155.5784 H   0  0  0  0  0  0  0  0  0  0  0  0  # atno 8008 bound_to 7997
  156.2998  140.2549  156.3052 H   0  0  0  0  0  0  0  0  0  0  0  0  # atno 8009 bound_to 7997
  154.9334  140.0383  157.2049 H   0  0  0  0  0  0  0  0  0  0  0  0  # atno 8010 bound_to 7997
  140.6729  143.2738  151.4078 H   0  0  0  0  0  0  0  0  0  0  0  0  # atno 10167 bound_to 10162
  157.2862  130.7279  149.6584 H   0  0  0  0  0  0  0  0  0  0  0  0  # atno 10718 bound_to 10713
  153.2531  135.4254  155.0818 H   0  0  0  0  0  0  0  0  0  0  0  0  # atno 10763 bound_to 10752
  154.8390  135.3431  154.6484 H   0  0  0  0  0  0  0  0  0  0  0  0  # atno 10764 bound_to 10752
  153.6905  135.7034  153.5148 H   0  0  0  0  0  0  0  0  0  0  0  0  # atno 10765 bound_to 10752
  141.1418  133.6663  156.5800 H   0  0  0  0  0  0  0  0  0  0  0  0  # atno 11005 bound_to 11000
  145.7790  140.9864  143.1109 LP  0  0  0  0  0  0  0  0  0  0  0  0  # atno 17320 bound_to 7965
  144.6857  139.9541  143.7478 LP  0  0  0  0  0  0  0  0  0  0  0  0  # atno 17321 bound_to 7965
  139.6005  144.1305  152.2193 LP  0  0  0  0  0  0  0  0  0  0  0  0  # atno 17342 bound_to 10162
  140.0687  144.5797  150.7208 LP  0  0  0  0  0  0  0  0  0  0  0  0  # atno 17343 bound_to 10162
  155.9665  130.4323  150.4957 LP  0  0  0  0  0  0  0  0  0  0  0  0  # atno 17370 bound_to 10713
  157.2910  131.0626  151.2134 LP  0  0  0  0  0  0  0  0  0  0  0  0  # atno 17371 bound_to 10713
  140.3845  134.7494  157.4682 LP  0  0  0  0  0  0  0  0  0  0  0  0  # atno 17394 bound_to 11000
  140.0612  134.5992  155.8746 LP  0  0  0  0  0  0  0  0  0  0  0  0  # atno 17395 bound_to 11000

$$$$
