AV-unprocessed.smi:165|AV-procd|sdf|1387|dock8
  -GOLD-   2262019123D 1   1.00000     0.00000
 Structure written by MMmdl.
 55 59  0  0  0  0  0  0  0  0  1 V2000
  147.0700  132.2912  150.0920 O   0  0  0  0  0  0  0  0  0  0  0  0
  145.7321  131.8427  150.1621 C   0  0  0  0  0  0  0  0  0  0  0  0
  144.7968  132.9041  150.7680 C   0  0  0  0  0  0  0  0  0  0  0  0
  143.3480  132.3724  150.7640 C   0  0  0  0  0  0  0  0  0  0  0  0
  142.8833  132.0880  149.4604 O   0  0  0  0  0  0  0  0  0  0  0  0
  145.2565  133.4442  152.1419 C   0  0  0  0  0  0  0  0  0  0  0  0
  144.8628  134.8576  151.7099 C   0  0  0  0  0  0  0  0  0  0  0  0
  145.5836  136.0095  152.1761 N   0  0  0  0  0  0  0  0  0  0  0  0
  145.8578  137.1481  151.4513 C   0  0  0  0  0  0  0  0  0  0  0  0
  146.5275  138.0685  152.0888 N   0  0  0  0  0  0  0  0  0  0  0  0
  146.7277  137.5278  153.3532 C   0  0  0  0  0  0  0  0  0  0  0  0
  147.3772  137.9885  154.5330 C   0  0  0  0  0  0  0  0  0  0  0  0
  147.9617  139.2099  154.6131 N   0  0  0  0  0  0  0  0  0  0  0  0
  147.7446  140.1549  153.5241 C   0  0  0  0  0  0  0  0  0  0  0  0
  148.1940  141.5577  153.9562 C   0  0  0  0  0  0  0  0  0  0  0  0
  149.5392  141.5194  154.4302 O   0  0  0  0  0  0  0  0  0  0  0  0
  149.7946  140.6137  155.5130 C   0  0  1  0  0  0  0  0  0  0  0  0
  151.3175  140.6186  155.7425 C   0  0  0  0  0  0  0  0  0  0  0  0
  151.7839  141.9613  156.3170 C   0  0  0  0  0  0  0  0  0  0  0  0
  150.9723  142.3163  157.5700 C   0  0  0  0  0  0  0  0  0  0  0  0
  149.5852  142.3294  157.2564 O   0  0  0  0  0  0  0  0  0  0  0  0
  149.0939  141.0649  156.8221 C   0  0  0  0  0  0  0  0  0  0  0  0
  149.3413  139.1992  155.0868 C   0  0  0  0  0  0  0  0  0  0  0  0
  147.3942  137.1533  155.6059 N   0  0  0  0  0  0  0  0  0  0  0  0
  146.8057  135.9557  155.5364 C   0  0  0  0  0  0  0  0  0  0  0  0
  146.1580  135.4031  154.5094 N   0  0  0  0  0  0  0  0  0  0  0  0
  146.1462  136.2301  153.4243 C   0  0  0  0  0  0  0  0  0  0  0  0
  144.9982  134.3553  150.2719 C   0  0  0  0  0  0  0  0  0  0  0  0
  147.6024  131.5949  149.7390 H   0  0  0  0  0  0  0  0  0  0  0  0
  145.4042  131.5471  149.1650 H   0  0  0  0  0  0  0  0  0  0  0  0
  145.7280  130.9351  150.7666 H   0  0  0  0  0  0  0  0  0  0  0  0
  143.2593  131.4709  151.3711 H   0  0  0  0  0  0  0  0  0  0  0  0
  142.6628  133.0987  151.2018 H   0  0  0  0  0  0  0  0  0  0  0  0
  142.2048  132.7078  149.2409 H   0  0  0  0  0  0  0  0  0  0  0  0
  144.6953  133.0630  152.9957 H   0  0  0  0  0  0  0  0  0  0  0  0
  146.3293  133.3378  152.3087 H   0  0  0  0  0  0  0  0  0  0  0  0
  143.8107  135.0366  151.9395 H   0  0  0  0  0  0  0  0  0  0  0  0
  145.5442  137.2787  150.4257 H   0  0  0  0  0  0  0  0  0  0  0  0
  148.3116  139.8352  152.6488 H   0  0  0  0  0  0  0  0  0  0  0  0
  146.6910  140.1767  153.2424 H   0  0  0  0  0  0  0  0  0  0  0  0
  148.1440  142.2401  153.1079 H   0  0  0  0  0  0  0  0  0  0  0  0
  147.5267  141.9655  154.7150 H   0  0  0  0  0  0  0  0  0  0  0  0
  151.5858  139.8230  156.4389 H   0  0  0  0  0  0  0  0  0  0  0  0
  151.8451  140.4049  154.8120 H   0  0  0  0  0  0  0  0  0  0  0  0
  152.8462  141.9173  156.5578 H   0  0  0  0  0  0  0  0  0  0  0  0
  151.6647  142.7464  155.5693 H   0  0  0  0  0  0  0  0  0  0  0  0
  151.1675  141.6069  158.3757 H   0  0  0  0  0  0  0  0  0  0  0  0
  151.2602  143.3018  157.9364 H   0  0  0  0  0  0  0  0  0  0  0  0
  148.0131  141.1276  156.7049 H   0  0  0  0  0  0  0  0  0  0  0  0
  149.2614  140.3291  157.6103 H   0  0  0  0  0  0  0  0  0  0  0  0
  149.4766  138.5046  155.9153 H   0  0  0  0  0  0  0  0  0  0  0  0
  149.9735  138.8358  154.2753 H   0  0  0  0  0  0  0  0  0  0  0  0
  146.8610  135.3551  156.4322 H   0  0  0  0  0  0  0  0  0  0  0  0
  145.9908  134.5219  149.8510 H   0  0  0  0  0  0  0  0  0  0  0  0
  144.2266  134.7226  149.5947 H   0  0  0  0  0  0  0  0  0  0  0  0
  1  2  1  0  0  0  0
  1 29  1  0  0  0  0
  2  3  1  0  0  0  0
  2 30  1  0  0  0  0
  2 31  1  0  0  0  0
  3 28  1  0  0  0  0
  3  4  1  0  0  0  0
  3  6  1  0  0  0  0
  4  5  1  0  0  0  0
  4 32  1  0  0  0  0
  4 33  1  0  0  0  0
  5 34  1  0  0  0  0
  6  7  1  0  0  0  0
  6 35  1  0  0  0  0
  6 36  1  0  0  0  0
  7  8  1  0  0  0  0
  7 28  1  0  0  0  0
  7 37  1  0  0  0  0
  8 27  1  0  0  0  0
  8  9  1  0  0  0  0
  9 10  2  0  0  0  0
  9 38  1  0  0  0  0
 10 11  1  0  0  0  0
 11 27  2  0  0  0  0
 11 12  1  0  0  0  0
 12 13  1  0  0  0  0
 12 24  2  0  0  0  0
 13 23  1  0  0  0  0
 13 14  1  0  0  0  0
 14 15  1  0  0  0  0
 14 39  1  0  0  0  0
 14 40  1  0  0  0  0
 15 16  1  0  0  0  0
 15 41  1  0  0  0  0
 15 42  1  0  0  0  0
 16 17  1  0  0  0  0
 17 22  1  0  0  0  0
 17 18  1  0  0  0  0
 17 23  1  0  0  0  0
 18 19  1  0  0  0  0
 18 43  1  0  0  0  0
 18 44  1  0  0  0  0
 19 20  1  0  0  0  0
 19 45  1  0  0  0  0
 19 46  1  0  0  0  0
 20 21  1  0  0  0  0
 20 47  1  0  0  0  0
 20 48  1  0  0  0  0
 21 22  1  0  0  0  0
 22 49  1  0  0  0  0
 22 50  1  0  0  0  0
 23 51  1  0  0  0  0
 23 52  1  0  0  0  0
 24 25  1  0  0  0  0
 25 26  2  0  0  0  0
 25 53  1  0  0  0  0
 26 27  1  0  0  0  0
 28 54  1  0  0  0  0
 28 55  1  0  0  0  0
M  END
> <s_m_source_file>
AV-unprocessed.smi

> <i_m_source_file_index>
165

> <i_lp_mmshare_version>
43012

> <i_f3d_flags>
0

> <s_epik_input>
W09IXVtDSDJdQzEoW0NIMl1bT0hdKVtDSDJdW0NIXShbQ0gyXTEpbihbY0hdbjIpYyhjMjMpbltjSF1uYzNOKFtDSDJdNClbQ0gyXVtDSDJdT1tDQEBdNDVbQ0gyXVtDSDJdW0NIMl1PW0NIMl01

> <s_epik_cmdline>
J2VwaWtfcHl0aG9uJywgJy1waCcsICc3LjAnLCAnLXRuJywgJzgnLCAnLW1hJywgJzIwMCcsICctbWV0YWxfYmluZGluZycsICctaW1hZScsICc8aW5maWxlLm1hZT4nLCAnLW9tYWUnLCAnPG91dGZpbGUubWFlPic=

> <r_lp_tautomer_probability>
1

> <r_epik_Ionization_Penalty>
0.00466923

> <r_epik_Ionization_Penalty_Charging>
0

> <r_epik_Ionization_Penalty_Neutral>
0.00466923

> <r_epik_State_Penalty>
0.0032353

> <r_epik_Charging_Adjusted_Penalty>
0.0032353

> <i_epik_Tot_Q>
0

> <i_epik_Tot_abs_Q>
0

> <r_epik_Metal_State_Penalty>
-0

> <b_epik_Metal_Only>
0

> <s_lp_Force_Field>
OPLS_2005

> <r_lp_Energy>
53.1571

> <b_lp_Chiralities_Consistent>
1

> <s_lp_Variant>
AV-unprocessed.smi:165-2

> <Gold.Version>
5.8.1

> <Gold.Id.Protein>
6NUR|6NUR_protein|mol2

> <Gold.PLP.Fitness>
46.5055

> <Gold.PLP.PLP>
-37.6726

> <Gold.PLP.part.hbond>
-4.6770

> <Gold.PLP.part.metal>
0.0000

> <Gold.PLP.part.buried>
-5.1502

> <Gold.PLP.part.nonpolar>
-31.1938

> <Gold.PLP.part.repulsive>
2.3208

> <Gold.PLP.ligand.clash>
0.0000

> <Gold.PLP.ligand.torsion>
0.9577

> <Gold.PLP.Chemscore.Hbond>
2.4095

> <Gold.PLP.Chemscore.CHOScore>
0.9290

> <Gold.PLP.Chemscore.Metal>
0.0000

> <Gold.Chemscore.Hbonds>
donor molecule, donor type, donor heavy atom, donor atom, acceptor molecule, acceptor atom, score
      L1  H     1    29       P1 10747  0.69
      L1  H     5    34       P1 10186  0.83
      P1  H  7989  7998       L1    16  0.03
      P1  H 10785 10796       L1     5  0.83
      L1  C     9    38       P1 10171  0.89

> <Gold.PLP.Chemscore.Internal.Correction>
0.7329

> <Gold.Rescore>
     Score         DG    S(hbond)    S(metal)    S(lipo)     H(rot)  DE(clash)    DE(int)     intcor
     11.59     -15.81       2.27        0.00      92.11       3.14       1.88       2.35       ----

> <Gold.Chemscore.Fitness>
11.5872

> <Gold.Chemscore.DG>
-15.8149

> <Gold.Chemscore.ZeroCoef>
-5.4800

> <Gold.Chemscore.Hbond>
2.2707

> <Gold.Chemscore.Metal>
0.0000

> <Gold.Chemscore.Lipo>
92.1083

> <Gold.Chemscore.Internal_Hbond>
0.0000

> <Gold.Chemscore.DEClash>
1.8762

> <Gold.Chemscore.DEInternal>
2.3515

> <Gold.Chemscore.Rot>
3.1351

> <Gold.Chemscore.Internal.Correction>
   9.000000E+99

> <Gold.Chemscore.Hbonds>
donor molecule, donor type, donor heavy atom, donor atom, acceptor molecule, acceptor atom, score
      L1  H     1    29       P1 10747  0.68
      L1  H     5    34       P1 10186  0.79
      P1  H 10785 10796       L1     5  0.78

> <Gold.Chemscore.Hbond.Weighted>
-7.5842

> <Gold.Chemscore.Metal.Weighted>
-0.0000

> <Gold.Chemscore.Lipo.Weighted>
-10.7767

> <Gold.Chemscore.Internal_Hbond.Weighted>
0.0000

> <Gold.Chemscore.DEClash.Weighted>
1.8762

> <Gold.Chemscore.DEInternal.Weighted>
2.3515

> <Gold.Chemscore.Rot.Weighted>
8.0260

> <Gold.Chemscore.Internal.Correction.Weighted>
   9.000000E+99

> <Gold.Protein.RotatedTorsions>
[ 6907 6896 6895 6894 ] final  -99.37 input  -60.11 | X-H torsion
[ 7974 7965 7964 7962 ] final  -44.43 input  175.53 | X-H torsion
[ 8008 7997 7996 7995 ] final    3.33 input   59.86 | X-H torsion
[ 10167 10162 10161 10158 ] final   33.30 input  -65.29 | X-H torsion
[ 10718 10713 10712 10709 ] final  169.09 input   66.30 | X-H torsion
[ 10763 10752 10751 10750 ] final  169.77 input  -60.55 | X-H torsion
[ 11005 11000 10999 10996 ] final   34.29 input  -57.11 | X-H torsion

> <Gold.Protein.ActiveResidues>
 VAL166  LYS551  ARG553  GLY616  TRP617  ASP618  TYR619  PRO620  LYS621  CYS622 
 ASP623  PHE694  ASN695  SER759  ASP760  ASP761  ALA762  ILE779  LEU786  VAL792 
 PHE793  MET794  SER795  GLU796  ALA797  LYS798  CYS799  TRP800  GLU811  SER814 

> <Gold.Protein.RotatedAtoms>
  150.7078  134.1051  159.3979 H   0  0  0  0  0  0  0  0  0  0  0  0  # atno 6907 bound_to 6896
  151.9037  135.0365  160.0518 H   0  0  0  0  0  0  0  0  0  0  0  0  # atno 6908 bound_to 6896
  152.2393  133.5087  159.5297 H   0  0  0  0  0  0  0  0  0  0  0  0  # atno 6909 bound_to 6896
  145.9921  140.7169  142.9311 H   0  0  0  0  0  0  0  0  0  0  0  0  # atno 7974 bound_to 7965
  154.7023  140.2675  155.6708 H   0  0  0  0  0  0  0  0  0  0  0  0  # atno 8008 bound_to 7997
  156.2769  140.2769  156.1561 H   0  0  0  0  0  0  0  0  0  0  0  0  # atno 8009 bound_to 7997
  155.0747  140.0372  157.2610 H   0  0  0  0  0  0  0  0  0  0  0  0  # atno 8010 bound_to 7997
  140.4420  144.1173  150.6175 H   0  0  0  0  0  0  0  0  0  0  0  0  # atno 10167 bound_to 10162
  157.0277  131.0250  151.2754 H   0  0  0  0  0  0  0  0  0  0  0  0  # atno 10718 bound_to 10713
  154.3879  135.2754  155.2172 H   0  0  0  0  0  0  0  0  0  0  0  0  # atno 10763 bound_to 10752
  154.4251  135.5991  153.6037 H   0  0  0  0  0  0  0  0  0  0  0  0  # atno 10764 bound_to 10752
  152.9833  135.5982  154.4130 H   0  0  0  0  0  0  0  0  0  0  0  0  # atno 10765 bound_to 10752
  140.2544  134.3266  155.7879 H   0  0  0  0  0  0  0  0  0  0  0  0  # atno 11005 bound_to 11000
  144.6892  140.3088  143.7251 LP  0  0  0  0  0  0  0  0  0  0  0  0  # atno 17320 bound_to 7965
  145.7614  139.1826  143.2265 LP  0  0  0  0  0  0  0  0  0  0  0  0  # atno 17321 bound_to 7965
  140.4307  143.2569  151.9599 LP  0  0  0  0  0  0  0  0  0  0  0  0  # atno 17342 bound_to 10162
  139.4790  144.5746  151.8032 LP  0  0  0  0  0  0  0  0  0  0  0  0  # atno 17343 bound_to 10162
  157.5201  130.7993  149.7800 LP  0  0  0  0  0  0  0  0  0  0  0  0  # atno 17370 bound_to 10713
  156.0080  130.3846  150.2362 LP  0  0  0  0  0  0  0  0  0  0  0  0  # atno 17371 bound_to 10713
  141.2198  133.7372  156.9087 LP  0  0  0  0  0  0  0  0  0  0  0  0  # atno 17394 bound_to 11000
  140.1526  134.9219  157.2613 LP  0  0  0  0  0  0  0  0  0  0  0  0  # atno 17395 bound_to 11000

$$$$
