AV-unprocessed.smi:867|AV-procd|sdf|3995|dock3
  -GOLD-   22720 1473D 1   1.00000     0.00000
 Structure written by MMmdl.
 53 56  0  0  0  0  0  0  0  0  2 V2000
  151.7906  139.5556  156.6627 O   0  0  0  0  0  0  0  0  0  0  0  0
  150.7960  139.6795  155.9472 C   0  0  0  0  0  0  0  0  0  0  0  0
  149.8689  140.6276  156.1647 N   0  0  0  0  0  0  0  0  0  0  0  0
  149.9205  141.6267  157.2254 C   0  0  0  0  0  0  0  0  0  0  0  0
  151.1417  142.5472  157.0728 C   0  0  0  0  0  0  0  0  0  0  0  0
  151.4670  143.2779  158.3603 C   0  0  0  0  0  0  0  0  0  0  0  0
  152.5970  142.9252  159.1262 C   0  0  0  0  0  0  0  0  0  0  0  0
  152.8558  143.6301  160.3175 C   0  0  0  0  0  0  0  0  0  0  0  0
  151.9703  144.6599  160.6935 C   0  0  0  0  0  0  0  0  0  0  0  0
  150.8842  145.0050  159.9689 N   0  0  0  0  0  0  0  0  0  0  0  0
  150.6436  144.3243  158.8275 C   0  0  0  0  0  0  0  0  0  0  0  0
  150.5054  138.8304  154.9306 N   0  0  0  0  0  0  0  0  0  0  0  0
  151.3868  137.7804  154.4062 C   0  0  0  0  0  0  0  0  0  0  0  0
  150.8848  136.4023  154.8815 C   0  0  0  0  0  0  0  0  0  0  0  0
  149.4532  136.1697  154.5274 N   0  3  0  0  0  0  0  0  0  0  0  0
  148.8967  134.8655  155.0040 C   0  0  1  0  0  0  0  0  0  0  0  0
  147.4840  134.5963  154.4196 C   0  0  0  0  0  0  0  0  0  0  0  0
  147.6156  133.2089  153.7700 C   0  0  2  0  0  0  0  0  0  0  0  0
  147.7617  132.1397  154.8647 C   0  0  0  0  0  0  0  0  0  0  0  0
  149.1860  132.3930  155.3873 C   0  0  0  0  0  0  0  0  0  0  0  0
  149.6598  133.5917  154.5404 C   0  0  1  0  0  0  0  0  0  0  0  0
  149.0226  133.2774  153.1917 C   0  0  0  0  0  0  0  0  0  0  0  0
  148.5874  137.3170  154.9310 C   0  0  0  0  0  0  0  0  0  0  0  0
  149.1424  138.6587  154.4265 C   0  0  0  0  0  0  0  0  0  0  0  0
  149.0620  140.6501  155.5586 H   0  0  0  0  0  0  0  0  0  0  0  0
  149.0036  142.2151  157.1791 H   0  0  0  0  0  0  0  0  0  0  0  0
  149.9269  141.1392  158.2019 H   0  0  0  0  0  0  0  0  0  0  0  0
  152.0152  141.9710  156.7647 H   0  0  0  0  0  0  0  0  0  0  0  0
  150.9622  143.2797  156.2845 H   0  0  0  0  0  0  0  0  0  0  0  0
  153.2534  142.1281  158.8090 H   0  0  0  0  0  0  0  0  0  0  0  0
  153.7115  143.3867  160.9295 H   0  0  0  0  0  0  0  0  0  0  0  0
  152.1386  145.2204  161.6012 H   0  0  0  0  0  0  0  0  0  0  0  0
  149.7660  144.6220  158.2726 H   0  0  0  0  0  0  0  0  0  0  0  0
  151.3760  137.8229  153.3159 H   0  0  0  0  0  0  0  0  0  0  0  0
  152.4322  137.9010  154.6903 H   0  0  0  0  0  0  0  0  0  0  0  0
  151.5231  135.6543  154.4162 H   0  0  0  0  0  0  0  0  0  0  0  0
  151.0101  136.3115  155.9616 H   0  0  0  0  0  0  0  0  0  0  0  0
  148.8648  134.8933  156.0947 H   0  0  0  0  0  0  0  0  0  0  0  0
  146.7063  134.6254  155.1838 H   0  0  0  0  0  0  0  0  0  0  0  0
  147.2162  135.3205  153.6492 H   0  0  0  0  0  0  0  0  0  0  0  0
  146.8302  132.9889  153.0462 H   0  0  0  0  0  0  0  0  0  0  0  0
  147.0057  132.2401  155.6445 H   0  0  0  0  0  0  0  0  0  0  0  0
  147.6795  131.1367  154.4441 H   0  0  0  0  0  0  0  0  0  0  0  0
  149.2069  132.6021  156.4576 H   0  0  0  0  0  0  0  0  0  0  0  0
  149.8165  131.5208  155.2088 H   0  0  0  0  0  0  0  0  0  0  0  0
  150.7455  133.6537  154.5320 H   0  0  0  0  0  0  0  0  0  0  0  0
  149.3594  132.3320  152.7623 H   0  0  0  0  0  0  0  0  0  0  0  0
  149.1525  134.0721  152.4550 H   0  0  0  0  0  0  0  0  0  0  0  0
  147.5748  137.1914  154.5490 H   0  0  0  0  0  0  0  0  0  0  0  0
  148.5075  137.3427  156.0191 H   0  0  0  0  0  0  0  0  0  0  0  0
  148.4808  139.4743  154.7234 H   0  0  0  0  0  0  0  0  0  0  0  0
  149.1558  138.6735  153.3357 H   0  0  0  0  0  0  0  0  0  0  0  0
  149.4256  136.1367  153.5183 H   0  0  0  0  0  0  0  0  0  0  0  0
  1  2  2  0  0  0  0
  2  3  1  0  0  0  0
  2 12  1  0  0  0  0
  3  4  1  0  0  0  0
  3 25  1  0  0  0  0
  4  5  1  0  0  0  0
  4 26  1  0  0  0  0
  4 27  1  0  0  0  0
  5  6  1  0  0  0  0
  5 28  1  0  0  0  0
  5 29  1  0  0  0  0
  6 11  1  0  0  0  0
  6  7  2  0  0  0  0
  7  8  1  0  0  0  0
  7 30  1  0  0  0  0
  8  9  2  0  0  0  0
  8 31  1  0  0  0  0
  9 10  1  0  0  0  0
  9 32  1  0  0  0  0
 10 11  2  0  0  0  0
 11 33  1  0  0  0  0
 12 24  1  0  0  0  0
 12 13  1  0  0  0  0
 13 14  1  0  0  0  0
 13 34  1  0  0  0  0
 13 35  1  0  0  0  0
 14 15  1  0  0  0  0
 14 36  1  0  0  0  0
 14 37  1  0  0  0  0
 15 16  1  0  0  0  0
 15 23  1  0  0  0  0
 15 53  1  0  0  0  0
 16 21  1  0  0  0  0
 16 17  1  0  0  0  0
 16 38  1  0  0  0  0
 17 18  1  0  0  0  0
 17 39  1  0  0  0  0
 17 40  1  0  0  0  0
 18 22  1  0  0  0  0
 18 19  1  0  0  0  0
 18 41  1  0  0  0  0
 19 20  1  0  0  0  0
 19 42  1  0  0  0  0
 19 43  1  0  0  0  0
 20 21  1  0  0  0  0
 20 44  1  0  0  0  0
 20 45  1  0  0  0  0
 21 22  1  0  0  0  0
 21 46  1  0  0  0  0
 22 47  1  0  0  0  0
 22 48  1  0  0  0  0
 23 24  1  0  0  0  0
 23 49  1  0  0  0  0
 23 50  1  0  0  0  0
 24 51  1  0  0  0  0
 24 52  1  0  0  0  0
M  CHG  1  15   1
M  END
> <s_m_source_file>
AV-unprocessed.smi

> <i_m_source_file_index>
867

> <i_lp_mmshare_version>
43012

> <i_f3d_flags>
0

> <s_epik_input>
W0NIMl0xW0NIMl1bQ0BASF0oW0NIMl0yKVtDQEBIXShbQ0gyXVtDQEhdMTIpTihbQ0gyXVtDSDJdMylbQ0gyXVtDSDJdTjNDKD1PKVtOSF1bQ0gyXVtDSDJdYzRbY0hdW2NIXVtjSF1uW2NIXTQ=

> <s_epik_cmdline>
J2VwaWtfcHl0aG9uJywgJy1waCcsICc3LjAnLCAnLXRuJywgJzgnLCAnLW1hJywgJzIwMCcsICctbWV0YWxfYmluZGluZycsICctaW1hZScsICc8aW5maWxlLm1hZT4nLCAnLW9tYWUnLCAnPG91dGZpbGUubWFlPic=

> <r_epik_Ionization_Penalty>
0.0161279

> <r_epik_Ionization_Penalty_Charging>
0.00262064

> <r_epik_Ionization_Penalty_Neutral>
0.0135072

> <r_epik_State_Penalty>
0.0104914

> <r_epik_Charging_Adjusted_Penalty>
0.013112

> <i_epik_Tot_Q>
1

> <i_epik_Tot_abs_Q>
1

> <r_epik_Metal_State_Penalty>
0.0102536

> <b_epik_Metal_Only>
0

> <s_lp_Force_Field>
OPLS_2005

> <r_lp_Energy>
96.0256

> <b_lp_Chiralities_Consistent>
1

> <s_lp_Variant>
AV-unprocessed.smi:867-2

> <Gold.Version>
5.8.1

> <Gold.Id.Protein>
6NUR|6NUR_protein|mol2

> <Gold.PLP.Fitness>
51.1791

> <Gold.PLP.PLP>
-43.2104

> <Gold.PLP.part.hbond>
-1.0000

> <Gold.PLP.part.metal>
0.0000

> <Gold.PLP.part.buried>
-5.6214

> <Gold.PLP.part.nonpolar>
-37.4913

> <Gold.PLP.part.repulsive>
0.2508

> <Gold.PLP.ligand.clash>
0.9055

> <Gold.PLP.ligand.torsion>
0.3612

> <Gold.PLP.Chemscore.Hbond>
2.0000

> <Gold.PLP.Chemscore.CHOScore>
1.1405

> <Gold.PLP.Chemscore.Metal>
0.0000

> <Gold.Chemscore.Hbonds>
donor molecule, donor type, donor heavy atom, donor atom, acceptor molecule, acceptor atom, score
      L1  H    15    53       P1  7948  2.00
      L1  C    11    33       P1  8028  0.20
      L1  C    11    33       P1  8029  0.91

> <Gold.PLP.Chemscore.Internal.Correction>
0.1753

> <Gold.Rescore>
     Score         DG    S(hbond)    S(metal)    S(lipo)     H(rot)  DE(clash)    DE(int)     intcor
     18.95     -19.61       0.90        0.00     125.05       1.37       0.31       0.36       ----

> <Gold.Chemscore.Fitness>
18.9453

> <Gold.Chemscore.DG>
-19.6092

> <Gold.Chemscore.ZeroCoef>
-5.4800

> <Gold.Chemscore.Hbond>
0.9021

> <Gold.Chemscore.Metal>
0.0000

> <Gold.Chemscore.Lipo>
125.0536

> <Gold.Chemscore.Internal_Hbond>
0.0000

> <Gold.Chemscore.DEClash>
0.3059

> <Gold.Chemscore.DEInternal>
0.3581

> <Gold.Chemscore.Rot>
1.3731

> <Gold.Chemscore.Internal.Correction>
   9.000000E+99

> <Gold.Chemscore.Hbonds>
donor molecule, donor type, donor heavy atom, donor atom, acceptor molecule, acceptor atom, score
      L1  H    15    53       P1  7948  0.60

> <Gold.Chemscore.Hbond.Weighted>
-3.0131

> <Gold.Chemscore.Metal.Weighted>
-0.0000

> <Gold.Chemscore.Lipo.Weighted>
-14.6313

> <Gold.Chemscore.Internal_Hbond.Weighted>
0.0000

> <Gold.Chemscore.DEClash.Weighted>
0.3059

> <Gold.Chemscore.DEInternal.Weighted>
0.3581

> <Gold.Chemscore.Rot.Weighted>
3.5152

> <Gold.Chemscore.Internal.Correction.Weighted>
   9.000000E+99

> <Gold.Protein.RotatedTorsions>
[ 6907 6896 6895 6894 ] final  -57.48 input  -60.11 | X-H torsion
[ 7974 7965 7964 7962 ] final  -18.64 input  175.53 | X-H torsion
[ 8008 7997 7996 7995 ] final  -23.51 input   59.86 | X-H torsion
[ 10167 10162 10161 10158 ] final   60.24 input  -65.29 | X-H torsion
[ 10718 10713 10712 10709 ] final  -21.61 input   66.30 | X-H torsion
[ 10763 10752 10751 10750 ] final  -89.62 input  -60.55 | X-H torsion
[ 11005 11000 10999 10996 ] final   99.67 input  -57.11 | X-H torsion

> <Gold.Protein.ActiveResidues>
 VAL166  LYS551  ARG553  GLY616  TRP617  ASP618  TYR619  PRO620  LYS621  CYS622 
 ASP623  PHE694  ASN695  SER759  ASP760  ASP761  ALA762  ILE779  LEU786  VAL792 
 PHE793  MET794  SER795  GLU796  ALA797  LYS798  CYS799  TRP800  GLU811  SER814 

> <Gold.Protein.RotatedAtoms>
  150.8083  134.7222  159.6664 H   0  0  0  0  0  0  0  0  0  0  0  0  # atno 6907 bound_to 6896
  152.4203  134.5964  159.9998 H   0  0  0  0  0  0  0  0  0  0  0  0  # atno 6908 bound_to 6896
  151.6182  133.3304  159.3118 H   0  0  0  0  0  0  0  0  0  0  0  0  # atno 6909 bound_to 6896
  146.1882  140.3949  142.8468 H   0  0  0  0  0  0  0  0  0  0  0  0  # atno 7974 bound_to 7965
  154.4581  140.1979  156.0321 H   0  0  0  0  0  0  0  0  0  0  0  0  # atno 8008 bound_to 7997
  156.0787  140.3274  155.7638 H   0  0  0  0  0  0  0  0  0  0  0  0  # atno 8009 bound_to 7997
  155.5147  140.0564  157.2908 H   0  0  0  0  0  0  0  0  0  0  0  0  # atno 8010 bound_to 7997
  140.1677  144.4308  150.6677 H   0  0  0  0  0  0  0  0  0  0  0  0  # atno 10167 bound_to 10162
  156.5158  130.4621  149.6623 H   0  0  0  0  0  0  0  0  0  0  0  0  # atno 10718 bound_to 10713
  154.6571  135.5334  153.7973 H   0  0  0  0  0  0  0  0  0  0  0  0  # atno 10763 bound_to 10752
  153.0420  135.6497  154.0928 H   0  0  0  0  0  0  0  0  0  0  0  0  # atno 10764 bound_to 10752
  154.0840  135.2945  155.3264 H   0  0  0  0  0  0  0  0  0  0  0  0  # atno 10765 bound_to 10752
  139.8770  134.9106  156.4641 H   0  0  0  0  0  0  0  0  0  0  0  0  # atno 11005 bound_to 11000
  144.8436  140.6896  143.6213 LP  0  0  0  0  0  0  0  0  0  0  0  0  # atno 17320 bound_to 7965
  145.3874  139.1624  143.4247 LP  0  0  0  0  0  0  0  0  0  0  0  0  # atno 17321 bound_to 7965
  140.6602  143.2250  151.5873 LP  0  0  0  0  0  0  0  0  0  0  0  0  # atno 17342 bound_to 10162
  139.5352  144.2801  152.1236 LP  0  0  0  0  0  0  0  0  0  0  0  0  # atno 17343 bound_to 10162
  156.3196  130.7273  151.2183 LP  0  0  0  0  0  0  0  0  0  0  0  0  # atno 17370 bound_to 10713
  157.7444  131.0459  150.4867 LP  0  0  0  0  0  0  0  0  0  0  0  0  # atno 17371 bound_to 10713
  140.8843  133.7895  155.9500 LP  0  0  0  0  0  0  0  0  0  0  0  0  # atno 17394 bound_to 11000
  140.8821  134.2598  157.5138 LP  0  0  0  0  0  0  0  0  0  0  0  0  # atno 17395 bound_to 11000

$$$$
