AV-unprocessed.smi:157|AV-procd|sdf|1312|dock7
  -GOLD-   2262019 03D 1   1.00000     0.00000
 Structure written by MMmdl.
 36 38  0  0  0  0  0  0  0  0  2 V2000
  155.3437  139.1116  154.1449 O   0  0  0  0  0  0  0  0  0  0  0  0
  154.3218  138.1537  154.3212 C   0  0  0  0  0  0  0  0  0  0  0  0
  152.9751  138.8525  154.5784 C   0  0  2  0  0  0  0  0  0  0  0  0
  152.9448  139.4473  155.8735 O   0  0  0  0  0  0  0  0  0  0  0  0
  151.6504  139.4026  156.3988 C   0  0  1  0  0  0  0  0  0  0  0  0
  151.2175  140.7976  156.7135 N   0  0  0  0  0  0  0  0  0  0  0  0
  150.2348  141.4869  156.0965 C   0  0  0  0  0  0  0  0  0  0  0  0
  150.0455  142.7072  156.5690 N   0  3  0  0  0  0  0  0  0  0  0  0
  150.9602  142.8783  157.5867 C   0  0  0  0  0  0  0  0  0  0  0  0
  151.6702  141.6776  157.6697 C   0  0  0  0  0  0  0  0  0  0  0  0
  152.7044  141.3026  158.5411 N   0  0  0  0  0  0  0  0  0  0  0  0
  152.9839  141.9522  159.6241 C   0  0  0  0  0  0  0  0  0  0  0  0
  152.4390  143.1329  160.1005 N   0  0  0  0  0  0  0  0  0  0  0  0
  152.2287  144.3037  159.2677 C   0  0  0  0  0  0  0  0  0  0  0  0
  151.0253  144.1795  158.3240 C   0  0  2  0  0  0  0  0  0  0  0  0
  149.8473  144.4484  159.0561 O   0  0  0  0  0  0  0  0  0  0  0  0
  150.7368  138.7907  155.3335 C   0  0  0  0  0  0  0  0  0  0  0  0
  151.7152  137.9763  154.5135 C   0  0  2  0  0  0  0  0  0  0  0  0
  151.9120  136.6999  155.0919 O   0  0  0  0  0  0  0  0  0  0  0  0
  152.8585  139.6710  153.8656 H   0  0  0  0  0  0  0  0  0  0  0  0
  151.6483  138.8620  157.3459 H   0  0  0  0  0  0  0  0  0  0  0  0
  151.1049  144.9750  157.5823 H   0  0  0  0  0  0  0  0  0  0  0  0
  151.3702  137.8405  153.4879 H   0  0  0  0  0  0  0  0  0  0  0  0
  156.0577  138.7062  153.6767 H   0  0  0  0  0  0  0  0  0  0  0  0
  154.2750  137.4985  153.4512 H   0  0  0  0  0  0  0  0  0  0  0  0
  154.5838  137.5277  155.1746 H   0  0  0  0  0  0  0  0  0  0  0  0
  149.6586  141.0737  155.2880 H   0  0  0  0  0  0  0  0  0  0  0  0
  153.7555  141.5616  160.2890 H   0  0  0  0  0  0  0  0  0  0  0  0
  152.6084  143.3895  161.0628 H   0  0  0  0  0  0  0  0  0  0  0  0
  152.1376  145.1896  159.8973 H   0  0  0  0  0  0  0  0  0  0  0  0
  153.1317  144.4472  158.6722 H   0  0  0  0  0  0  0  0  0  0  0  0
  149.2408  144.9098  158.4977 H   0  0  0  0  0  0  0  0  0  0  0  0
  149.9289  138.2125  155.7836 H   0  0  0  0  0  0  0  0  0  0  0  0
  150.3042  139.5809  154.7174 H   0  0  0  0  0  0  0  0  0  0  0  0
  151.8782  136.7890  156.0324 H   0  0  0  0  0  0  0  0  0  0  0  0
  149.3658  143.3808  156.2393 H   0  0  0  0  0  0  0  0  0  0  0  0
  1  2  1  0  0  0  0
  1 24  1  0  0  0  0
  2  3  1  0  0  0  0
  2 25  1  0  0  0  0
  2 26  1  0  0  0  0
  3 20  1  0  0  0  0
  3 18  1  0  0  0  0
  3  4  1  0  0  0  0
  4  5  1  0  0  0  0
  5 21  1  0  0  0  0
  5  6  1  0  0  0  0
  5 17  1  0  0  0  0
  6 10  1  0  0  0  0
  6  7  1  0  0  0  0
  7  8  2  0  0  0  0
  7 27  1  0  0  0  0
  8  9  1  0  0  0  0
  8 36  1  0  0  0  0
  9 15  1  0  0  0  0
  9 10  2  0  0  0  0
 10 11  1  0  0  0  0
 11 12  2  0  0  0  0
 12 13  1  0  0  0  0
 12 28  1  0  0  0  0
 13 14  1  0  0  0  0
 13 29  1  0  0  0  0
 14 15  1  0  0  0  0
 14 30  1  0  0  0  0
 14 31  1  0  0  0  0
 15 22  1  0  0  0  0
 15 16  1  0  0  0  0
 16 32  1  0  0  0  0
 17 18  1  0  0  0  0
 17 33  1  0  0  0  0
 17 34  1  0  0  0  0
 18 23  1  0  0  0  0
 18 19  1  0  0  0  0
 19 35  1  0  0  0  0
M  CHG  1   8   1
M  END
> <s_m_source_file>
AV-unprocessed.smi

> <i_m_source_file_index>
157

> <i_lp_mmshare_version>
43012

> <i_f3d_flags>
0

> <s_epik_input>
W09IXVtDSDJdW0NASF0xT1tDQEhdKFtDSDJdW0NAQEhdMVtPSF0pbihbY0hdbjIpYyhjMjMpTj1bQ0hdW05IXVtDSDJdW0NASF0zW09IXQ==

> <s_epik_cmdline>
J2VwaWtfcHl0aG9uJywgJy1waCcsICc3LjAnLCAnLXRuJywgJzgnLCAnLW1hJywgJzIwMCcsICctbWV0YWxfYmluZGluZycsICctaW1hZScsICc8aW5maWxlLm1hZT4nLCAnLW9tYWUnLCAnPG91dGZpbGUubWFlPic=

> <r_epik_Ionization_Penalty>
1.68594

> <r_epik_Ionization_Penalty_Charging>
0

> <r_epik_Ionization_Penalty_Neutral>
1.68594

> <r_epik_State_Penalty>
1.79006

> <r_epik_Charging_Adjusted_Penalty>
1.79006

> <i_epik_Tot_Q>
1

> <i_epik_Tot_abs_Q>
1

> <r_epik_Metal_State_Penalty>
5.85324

> <b_epik_Metal_Only>
0

> <s_epik_Chemistry_Notes>
This compound has an imine and may undergo hydrolysis. This compound contains an acetal/aminal-like group ( X-CH(R)-Y where X, Y are N, S, or O) that may be acid/base labile, releasing an aldehyde.

> <s_lp_Force_Field>
OPLS_2005

> <r_lp_Energy>
55.0153

> <b_lp_Chiralities_Consistent>
1

> <s_lp_Variant>
AV-unprocessed.smi:157-22

> <Gold.Version>
5.8.1

> <Gold.Id.Protein>
6NUR|6NUR_protein|mol2

> <Gold.PLP.Fitness>
53.7043

> <Gold.PLP.PLP>
-37.2331

> <Gold.PLP.part.hbond>
-4.7569

> <Gold.PLP.part.metal>
0.0000

> <Gold.PLP.part.buried>
-4.8460

> <Gold.PLP.part.nonpolar>
-30.8685

> <Gold.PLP.part.repulsive>
0.1235

> <Gold.PLP.ligand.clash>
0.0000

> <Gold.PLP.ligand.torsion>
0.1514

> <Gold.PLP.Chemscore.Hbond>
5.5893

> <Gold.PLP.Chemscore.CHOScore>
0.0000

> <Gold.PLP.Chemscore.Metal>
0.0000

> <Gold.Chemscore.Hbonds>
donor molecule, donor type, donor heavy atom, donor atom, acceptor molecule, acceptor atom, score
      L1  H     8    36       P1  8028  2.00
      L1  H    16    32       P1  8029  0.86
      P1  H  7997  8009       L1     4  0.83
      P1  H  7997  8010       L1     1  0.85
      P1  H 10752 10764       L1    19  0.98

> <Gold.PLP.Chemscore.Internal.Correction>
0.0063

> <Gold.Rescore>
     Score         DG    S(hbond)    S(metal)    S(lipo)     H(rot)  DE(clash)    DE(int)     intcor
     16.80     -17.96       4.32        0.00      63.59       3.67       0.92       0.24       ----

> <Gold.Chemscore.Fitness>
16.7952

> <Gold.Chemscore.DG>
-17.9552

> <Gold.Chemscore.ZeroCoef>
-5.4800

> <Gold.Chemscore.Hbond>
4.3175

> <Gold.Chemscore.Metal>
0.0000

> <Gold.Chemscore.Lipo>
63.5851

> <Gold.Chemscore.Internal_Hbond>
0.0000

> <Gold.Chemscore.DEClash>
0.9231

> <Gold.Chemscore.DEInternal>
0.2369

> <Gold.Chemscore.Rot>
3.6659

> <Gold.Chemscore.Internal.Correction>
   9.000000E+99

> <Gold.Chemscore.Hbonds>
donor molecule, donor type, donor heavy atom, donor atom, acceptor molecule, acceptor atom, score
      L1  H     8    36       P1  8028  0.92
      L1  H    16    32       P1  8029  0.62
      P1  H  7997  8009       L1     4  0.82
      P1  H  7997  8010       L1     1  0.78
      P1  H 10752 10764       L1    19  0.42

> <Gold.Chemscore.Hbond.Weighted>
-14.4205

> <Gold.Chemscore.Metal.Weighted>
-0.0000

> <Gold.Chemscore.Lipo.Weighted>
-7.4395

> <Gold.Chemscore.Internal_Hbond.Weighted>
0.0000

> <Gold.Chemscore.DEClash.Weighted>
0.9231

> <Gold.Chemscore.DEInternal.Weighted>
0.2369

> <Gold.Chemscore.Rot.Weighted>
9.3848

> <Gold.Chemscore.Internal.Correction.Weighted>
   9.000000E+99

> <Gold.Protein.RotatedTorsions>
[ 6907 6896 6895 6894 ] final   56.45 input  -60.11 | X-H torsion
[ 7974 7965 7964 7962 ] final   24.76 input  175.53 | X-H torsion
[ 8008 7997 7996 7995 ] final  178.78 input   59.86 | X-H torsion
[ 10167 10162 10161 10158 ] final  140.56 input  -65.29 | X-H torsion
[ 10718 10713 10712 10709 ] final  -25.87 input   66.30 | X-H torsion
[ 10763 10752 10751 10750 ] final  -41.96 input  -60.55 | X-H torsion
[ 11005 11000 10999 10996 ] final  -37.87 input  -57.11 | X-H torsion

> <Gold.Protein.ActiveResidues>
 VAL166  LYS551  ARG553  GLY616  TRP617  ASP618  TYR619  PRO620  LYS621  CYS622 
 ASP623  PHE694  ASN695  SER759  ASP760  ASP761  ALA762  ILE779  LEU786  VAL792 
 PHE793  MET794  SER795  GLU796  ALA797  LYS798  CYS799  TRP800  GLU811  SER814 

> <Gold.Protein.RotatedAtoms>
  152.3637  134.6835  160.0198 H   0  0  0  0  0  0  0  0  0  0  0  0  # atno 6907 bound_to 6896
  151.7151  133.3307  159.3308 H   0  0  0  0  0  0  0  0  0  0  0  0  # atno 6908 bound_to 6896
  150.7623  134.6432  159.6293 H   0  0  0  0  0  0  0  0  0  0  0  0  # atno 6909 bound_to 6896
  146.1922  139.7559  142.8824 H   0  0  0  0  0  0  0  0  0  0  0  0  # atno 7974 bound_to 7965
  156.0508  140.1325  157.0052 H   0  0  0  0  0  0  0  0  0  0  0  0  # atno 8008 bound_to 7997
  154.4434  140.1011  156.6445 H   0  0  0  0  0  0  0  0  0  0  0  0  # atno 8009 bound_to 7997
  155.5525  140.3463  155.4474 H   0  0  0  0  0  0  0  0  0  0  0  0  # atno 8010 bound_to 7997
  139.5045  144.6226  151.6014 H   0  0  0  0  0  0  0  0  0  0  0  0  # atno 10167 bound_to 10162
  156.4587  130.4499  149.6943 H   0  0  0  0  0  0  0  0  0  0  0  0  # atno 10718 bound_to 10713
  153.9712  135.6728  153.4747 H   0  0  0  0  0  0  0  0  0  0  0  0  # atno 10763 bound_to 10752
  153.0792  135.4932  154.8464 H   0  0  0  0  0  0  0  0  0  0  0  0  # atno 10764 bound_to 10752
  154.7218  135.3119  154.8996 H   0  0  0  0  0  0  0  0  0  0  0  0  # atno 10765 bound_to 10752
  140.9984  133.6968  156.1978 H   0  0  0  0  0  0  0  0  0  0  0  0  # atno 11005 bound_to 11000
  145.3758  141.0350  143.3205 LP  0  0  0  0  0  0  0  0  0  0  0  0  # atno 17320 bound_to 7965
  144.8508  139.5325  143.6857 LP  0  0  0  0  0  0  0  0  0  0  0  0  # atno 17321 bound_to 7965
  140.5933  143.9740  150.6338 LP  0  0  0  0  0  0  0  0  0  0  0  0  # atno 17342 bound_to 10162
  140.2928  143.3312  152.1046 LP  0  0  0  0  0  0  0  0  0  0  0  0  # atno 17343 bound_to 10162
  156.3740  130.7545  151.2531 LP  0  0  0  0  0  0  0  0  0  0  0  0  # atno 17370 bound_to 10713
  157.7499  131.0315  150.4184 LP  0  0  0  0  0  0  0  0  0  0  0  0  # atno 17371 bound_to 10713
  140.6928  134.4647  157.5588 LP  0  0  0  0  0  0  0  0  0  0  0  0  # atno 17394 bound_to 11000
  139.9026  134.8520  156.1832 LP  0  0  0  0  0  0  0  0  0  0  0  0  # atno 17395 bound_to 11000

$$$$
