AV-unprocessed.smi:837|AV-procd|sdf|3903|dock8
  -GOLD-   22720 1363D 1   1.00000     0.00000
 Structure written by MMmdl.
 48 50  0  0  0  0  0  0  0  0  2 V2000
  153.3413  138.7395  159.9318 C   0  0  0  0  0  0  0  0  0  0  0  0
  152.7065  140.1336  159.7350 C   0  0  1  0  0  0  0  0  0  0  0  0
  153.7832  141.2384  159.8081 C   0  0  0  0  0  0  0  0  0  0  0  0
  153.1688  142.6436  159.7243 C   0  0  0  0  0  0  0  0  0  0  0  0
  152.3273  142.8052  158.4519 C   0  0  0  0  0  0  0  0  0  0  0  0
  151.2403  141.7202  158.3611 C   0  0  0  0  0  0  0  0  0  0  0  0
  151.8185  140.2838  158.4565 C   0  0  1  0  0  0  0  0  0  0  0  0
  152.5544  139.9592  157.2443 N   0  5  0  0  0  0  0  0  0  0  0  0
  151.9304  138.9396  156.6106 C   0  0  0  0  0  0  0  0  0  0  0  0
  152.2674  138.4183  155.5479 O   0  0  0  0  0  0  0  0  0  0  0  0
  150.8459  138.5334  157.2979 N   0  0  0  0  0  0  0  0  0  0  0  0
  149.9381  137.4604  156.8715 C   0  0  0  0  0  0  0  0  0  0  0  0
  149.8050  136.3464  157.9182 C   0  0  0  0  0  0  0  0  0  0  0  0
  150.5341  136.3243  158.9107 O   0  0  0  0  0  0  0  0  0  0  0  0
  148.8815  135.4069  157.6662 N   0  0  0  0  0  0  0  0  0  0  0  0
  148.5999  134.2592  158.5225 C   0  0  0  0  0  0  0  0  0  0  0  0
  147.2662  134.3997  159.2807 C   0  0  0  0  0  0  0  0  0  0  0  0
  147.3942  135.1704  160.5832 C   0  0  0  0  0  0  0  0  0  0  0  0
  147.2203  134.5294  161.8275 C   0  0  0  0  0  0  0  0  0  0  0  0
  147.3410  135.2918  163.0053 C   0  0  0  0  0  0  0  0  0  0  0  0
  147.6314  136.6657  162.8882 C   0  0  0  0  0  0  0  0  0  0  0  0
  147.8000  137.2897  161.7025 N   0  0  0  0  0  0  0  0  0  0  0  0
  147.6837  136.5513  160.5780 C   0  0  0  0  0  0  0  0  0  0  0  0
  150.6869  139.2662  158.4057 C   0  0  0  0  0  0  0  0  0  0  0  0
  149.7974  139.1643  159.2521 O   0  0  0  0  0  0  0  0  0  0  0  0
  154.0301  138.4949  159.1230 H   0  0  0  0  0  0  0  0  0  0  0  0
  152.5895  137.9520  159.9796 H   0  0  0  0  0  0  0  0  0  0  0  0
  153.9058  138.6988  160.8633 H   0  0  0  0  0  0  0  0  0  0  0  0
  152.0516  140.2887  160.5943 H   0  0  0  0  0  0  0  0  0  0  0  0
  154.3459  141.1482  160.7378 H   0  0  0  0  0  0  0  0  0  0  0  0
  154.5054  141.1072  159.0011 H   0  0  0  0  0  0  0  0  0  0  0  0
  152.5459  142.8242  160.6012 H   0  0  0  0  0  0  0  0  0  0  0  0
  153.9582  143.3954  159.7444 H   0  0  0  0  0  0  0  0  0  0  0  0
  151.8665  143.7930  158.4352 H   0  0  0  0  0  0  0  0  0  0  0  0
  152.9747  142.7543  157.5756 H   0  0  0  0  0  0  0  0  0  0  0  0
  150.5270  141.8804  159.1713 H   0  0  0  0  0  0  0  0  0  0  0  0
  150.6743  141.8479  157.4364 H   0  0  0  0  0  0  0  0  0  0  0  0
  148.9556  137.8797  156.6474 H   0  0  0  0  0  0  0  0  0  0  0  0
  150.2870  137.0139  155.9391 H   0  0  0  0  0  0  0  0  0  0  0  0
  148.3305  135.4966  156.8249 H   0  0  0  0  0  0  0  0  0  0  0  0
  148.6078  133.3397  157.9354 H   0  0  0  0  0  0  0  0  0  0  0  0
  149.4190  134.1732  159.2371 H   0  0  0  0  0  0  0  0  0  0  0  0
  146.5296  134.8931  158.6453 H   0  0  0  0  0  0  0  0  0  0  0  0
  146.8617  133.4101  159.4962 H   0  0  0  0  0  0  0  0  0  0  0  0
  146.9937  133.4744  161.8800 H   0  0  0  0  0  0  0  0  0  0  0  0
  147.2126  134.8350  163.9754 H   0  0  0  0  0  0  0  0  0  0  0  0
  147.7297  137.2805  163.7705 H   0  0  0  0  0  0  0  0  0  0  0  0
  147.8210  137.0791  159.6457 H   0  0  0  0  0  0  0  0  0  0  0  0
  1  2  1  0  0  0  0
  1 26  1  0  0  0  0
  1 27  1  0  0  0  0
  1 28  1  0  0  0  0
  2  7  1  0  0  0  0
  2  3  1  0  0  0  0
  2 29  1  0  0  0  0
  3  4  1  0  0  0  0
  3 30  1  0  0  0  0
  3 31  1  0  0  0  0
  4  5  1  0  0  0  0
  4 32  1  0  0  0  0
  4 33  1  0  0  0  0
  5  6  1  0  0  0  0
  5 34  1  0  0  0  0
  5 35  1  0  0  0  0
  6  7  1  0  0  0  0
  6 36  1  0  0  0  0
  6 37  1  0  0  0  0
  7 24  1  0  0  0  0
  7  8  1  0  0  0  0
  8  9  1  0  0  0  0
  9 10  2  0  0  0  0
  9 11  1  0  0  0  0
 11 12  1  0  0  0  0
 11 24  1  0  0  0  0
 12 13  1  0  0  0  0
 12 38  1  0  0  0  0
 12 39  1  0  0  0  0
 13 14  2  0  0  0  0
 13 15  1  0  0  0  0
 15 16  1  0  0  0  0
 15 40  1  0  0  0  0
 16 17  1  0  0  0  0
 16 41  1  0  0  0  0
 16 42  1  0  0  0  0
 17 18  1  0  0  0  0
 17 43  1  0  0  0  0
 17 44  1  0  0  0  0
 18 23  1  0  0  0  0
 18 19  2  0  0  0  0
 19 20  1  0  0  0  0
 19 45  1  0  0  0  0
 20 21  2  0  0  0  0
 20 46  1  0  0  0  0
 21 22  1  0  0  0  0
 21 47  1  0  0  0  0
 22 23  2  0  0  0  0
 23 48  1  0  0  0  0
 24 25  2  0  0  0  0
M  CHG  1   8  -1
M  END
> <s_m_source_file>
AV-unprocessed.smi

> <i_m_source_file_index>
837

> <i_lp_mmshare_version>
43012

> <i_f3d_flags>
0

> <s_epik_input>
W0NIMl0xW0NIMl1bQ0gyXVtDSDJdW0NAQEhdKFtDSDNdKVtDQEBdMTJbTkhdQyg9TylOKEMyPU8pW0NIMl1DKD1PKVtOSF1bQ0gyXVtDSDJdYzNbY0hdW2NIXVtjSF1uW2NIXTM=

> <s_epik_cmdline>
J2VwaWtfcHl0aG9uJywgJy1waCcsICc3LjAnLCAnLXRuJywgJzgnLCAnLW1hJywgJzIwMCcsICctbWV0YWxfYmluZGluZycsICctaW1hZScsICc8aW5maWxlLm1hZT4nLCAnLW9tYWUnLCAnPG91dGZpbGUubWFlPic=

> <r_lp_tautomer_probability>
1

> <r_epik_Ionization_Penalty>
6.03002

> <r_epik_Ionization_Penalty_Charging>
6.01728

> <r_epik_Ionization_Penalty_Neutral>
0.0127382

> <r_epik_State_Penalty>
6.02713

> <r_epik_Charging_Adjusted_Penalty>
12.0444

> <i_epik_Tot_Q>
-1

> <i_epik_Tot_abs_Q>
1

> <r_epik_Metal_State_Penalty>
1.99078

> <b_epik_Metal_Only>
1

> <s_lp_Force_Field>
OPLS_2005

> <r_lp_Energy>
20.5142

> <b_lp_Chiralities_Consistent>
1

> <s_lp_Variant>
AV-unprocessed.smi:837-12

> <Gold.Version>
5.8.1

> <Gold.Id.Protein>
6NUR|6NUR_protein|mol2

> <Gold.PLP.Fitness>
54.4351

> <Gold.PLP.PLP>
-40.9982

> <Gold.PLP.part.hbond>
-5.9538

> <Gold.PLP.part.metal>
0.0000

> <Gold.PLP.part.buried>
-2.1902

> <Gold.PLP.part.nonpolar>
-32.1731

> <Gold.PLP.part.repulsive>
0.0702

> <Gold.PLP.ligand.clash>
0.0000

> <Gold.PLP.ligand.torsion>
0.3524

> <Gold.PLP.Chemscore.Hbond>
4.7040

> <Gold.PLP.Chemscore.CHOScore>
0.0000

> <Gold.PLP.Chemscore.Metal>
0.0000

> <Gold.Chemscore.Hbonds>
donor molecule, donor type, donor heavy atom, donor atom, acceptor molecule, acceptor atom, score
      P1  H  6896  6909       L1    14  1.00
      P1  H  6931  6943       L1    22  1.00
      P1  H  6934  6947       L1    22  0.58
      P1  H  7997  8009       L1     8  2.00

> <Gold.PLP.Chemscore.Internal.Correction>
0.0297

> <Gold.Rescore>
     Score         DG    S(hbond)    S(metal)    S(lipo)     H(rot)  DE(clash)    DE(int)     intcor
     19.44     -22.52       3.05        0.00      98.19       1.81       0.43       2.65       ----

> <Gold.Chemscore.Fitness>
19.4372

> <Gold.Chemscore.DG>
-22.5183

> <Gold.Chemscore.ZeroCoef>
-5.4800

> <Gold.Chemscore.Hbond>
3.0482

> <Gold.Chemscore.Metal>
0.0000

> <Gold.Chemscore.Lipo>
98.1911

> <Gold.Chemscore.Internal_Hbond>
0.0000

> <Gold.Chemscore.DEClash>
0.4286

> <Gold.Chemscore.DEInternal>
2.6524

> <Gold.Chemscore.Rot>
1.8090

> <Gold.Chemscore.Internal.Correction>
   9.000000E+99

> <Gold.Chemscore.Hbonds>
donor molecule, donor type, donor heavy atom, donor atom, acceptor molecule, acceptor atom, score
      P1  H  6896  6909       L1    14  0.97
      P1  H  6931  6943       L1    22  0.46
      P1  H  6934  6947       L1    22  0.11
      P1  H  7997  8009       L1     8  0.64

> <Gold.Chemscore.Hbond.Weighted>
-10.1810

> <Gold.Chemscore.Metal.Weighted>
-0.0000

> <Gold.Chemscore.Lipo.Weighted>
-11.4884

> <Gold.Chemscore.Internal_Hbond.Weighted>
0.0000

> <Gold.Chemscore.DEClash.Weighted>
0.4286

> <Gold.Chemscore.DEInternal.Weighted>
2.6524

> <Gold.Chemscore.Rot.Weighted>
4.6310

> <Gold.Chemscore.Internal.Correction.Weighted>
   9.000000E+99

> <Gold.Protein.RotatedTorsions>
[ 6907 6896 6895 6894 ] final   82.60 input  -60.11 | X-H torsion
[ 7974 7965 7964 7962 ] final  139.57 input  175.53 | X-H torsion
[ 8008 7997 7996 7995 ] final -172.46 input   59.86 | X-H torsion
[ 10167 10162 10161 10158 ] final  107.15 input  -65.29 | X-H torsion
[ 10718 10713 10712 10709 ] final   86.54 input   66.30 | X-H torsion
[ 10763 10752 10751 10750 ] final -139.75 input  -60.55 | X-H torsion
[ 11005 11000 10999 10996 ] final  -26.75 input  -57.11 | X-H torsion

> <Gold.Protein.ActiveResidues>
 VAL166  LYS551  ARG553  GLY616  TRP617  ASP618  TYR619  PRO620  LYS621  CYS622 
 ASP623  PHE694  ASN695  SER759  ASP760  ASP761  ALA762  ILE779  LEU786  VAL792 
 PHE793  MET794  SER795  GLU796  ALA797  LYS798  CYS799  TRP800  GLU811  SER814 

> <Gold.Protein.RotatedAtoms>
  152.5304  134.3025  159.9083 H   0  0  0  0  0  0  0  0  0  0  0  0  # atno 6907 bound_to 6896
  151.2976  133.4130  159.2645 H   0  0  0  0  0  0  0  0  0  0  0  0  # atno 6908 bound_to 6896
  151.0147  134.9440  159.8083 H   0  0  0  0  0  0  0  0  0  0  0  0  # atno 6909 bound_to 6896
  144.9267  139.5099  143.5637 H   0  0  0  0  0  0  0  0  0  0  0  0  # atno 7974 bound_to 7965
  155.9449  140.1115  157.1025 H   0  0  0  0  0  0  0  0  0  0  0  0  # atno 8008 bound_to 7997
  154.4097  140.1212  156.5042 H   0  0  0  0  0  0  0  0  0  0  0  0  # atno 8009 bound_to 7997
  155.6915  140.3472  155.4898 H   0  0  0  0  0  0  0  0  0  0  0  0  # atno 8010 bound_to 7997
  139.6950  144.7102  151.1282 H   0  0  0  0  0  0  0  0  0  0  0  0  # atno 10167 bound_to 10162
  157.6930  131.0220  150.2988 H   0  0  0  0  0  0  0  0  0  0  0  0  # atno 10718 bound_to 10713
  154.8600  135.3573  154.5597 H   0  0  0  0  0  0  0  0  0  0  0  0  # atno 10763 bound_to 10752
  153.6213  135.7006  153.5314 H   0  0  0  0  0  0  0  0  0  0  0  0  # atno 10764 bound_to 10752
  153.3127  135.4174  155.1309 H   0  0  0  0  0  0  0  0  0  0  0  0  # atno 10765 bound_to 10752
  140.9057  133.7494  156.0603 H   0  0  0  0  0  0  0  0  0  0  0  0  # atno 11005 bound_to 11000
  146.3229  139.8187  142.8931 LP  0  0  0  0  0  0  0  0  0  0  0  0  # atno 17320 bound_to 7965
  145.3208  141.0243  143.3501 LP  0  0  0  0  0  0  0  0  0  0  0  0  # atno 17321 bound_to 7965
  140.7694  143.5504  150.9211 LP  0  0  0  0  0  0  0  0  0  0  0  0  # atno 17342 bound_to 10162
  139.9184  143.6636  152.3102 LP  0  0  0  0  0  0  0  0  0  0  0  0  # atno 17343 bound_to 10162
  156.3507  130.3830  149.7331 LP  0  0  0  0  0  0  0  0  0  0  0  0  # atno 17370 bound_to 10713
  156.4810  130.8041  151.3055 LP  0  0  0  0  0  0  0  0  0  0  0  0  # atno 17371 bound_to 10713
  140.8174  134.3329  157.5393 LP  0  0  0  0  0  0  0  0  0  0  0  0  # atno 17394 bound_to 11000
  139.8749  134.9289  156.3463 LP  0  0  0  0  0  0  0  0  0  0  0  0  # atno 17395 bound_to 11000

$$$$
