AV-unprocessed.smi:380|AV-procd|sdf|2460|dock6
  -GOLD-   2262022403D 1   1.00000     0.00000
 Structure written by MMmdl.
 39 40  0  0  0  0  0  0  0  0  1 V2000
  146.7777  140.3698  154.4986 C   0  0  0  0  0  0  0  0  0  0  0  0
  146.1394  141.6239  155.1210 C   0  0  0  0  0  0  0  0  0  0  0  0
  146.2588  142.8235  154.1700 C   0  0  0  0  0  0  0  0  0  0  0  0
  146.7352  141.9639  156.5046 C   0  0  0  0  0  0  0  0  0  0  0  0
  148.1852  142.1242  156.4701 N   0  0  0  0  0  0  0  0  0  0  0  0
  149.0719  141.1201  156.4054 C   0  0  0  0  0  0  0  0  0  0  0  0
  148.7444  139.9326  156.3874 O   0  0  0  0  0  0  0  0  0  0  0  0
  150.5505  141.5338  156.3610 C   0  0  0  0  0  0  0  0  0  0  0  0
  151.3089  141.1198  157.5621 N   0  0  0  0  0  0  0  0  0  0  0  0
  151.4378  139.7337  157.8340 C   0  0  0  0  0  0  0  0  0  0  0  0
  150.9315  138.8913  157.0905 O   0  0  0  0  0  0  0  0  0  0  0  0
  152.1991  139.3963  159.0344 C   0  0  0  0  0  0  0  0  0  0  0  0
  152.3890  138.0120  159.3168 C   0  0  0  0  0  0  0  0  0  0  0  0
  152.5187  136.8849  159.5453 N   0  0  0  0  0  0  0  0  0  0  0  0
  152.6998  140.3607  159.8335 C   0  0  0  0  0  0  0  0  0  0  0  0
  152.5147  141.7025  159.5811 N   0  0  0  0  0  0  0  0  0  0  0  0
  153.1712  142.7103  160.3652 C   0  0  0  0  0  0  0  0  0  0  0  0
  152.9520  142.7347  161.8625 C   0  0  0  0  0  0  0  0  0  0  0  0
  152.3679  143.8278  161.0021 C   0  0  0  0  0  0  0  0  0  0  0  0
  151.8509  142.1192  158.4065 C   0  0  0  0  0  0  0  0  0  0  0  0
  151.7462  143.3151  158.1233 O   0  0  0  0  0  0  0  0  0  0  0  0
  147.8533  140.4957  154.3714 H   0  0  0  0  0  0  0  0  0  0  0  0
  146.3499  140.1580  153.5184 H   0  0  0  0  0  0  0  0  0  0  0  0
  146.6155  139.4872  155.1176 H   0  0  0  0  0  0  0  0  0  0  0  0
  145.0750  141.4216  155.2488 H   0  0  0  0  0  0  0  0  0  0  0  0
  147.3021  143.0835  153.9884 H   0  0  0  0  0  0  0  0  0  0  0  0
  145.7635  143.7028  154.5831 H   0  0  0  0  0  0  0  0  0  0  0  0
  145.7961  142.6095  153.2062 H   0  0  0  0  0  0  0  0  0  0  0  0
  146.3039  142.8942  156.8755 H   0  0  0  0  0  0  0  0  0  0  0  0
  146.4717  141.1942  157.2322 H   0  0  0  0  0  0  0  0  0  0  0  0
  148.5395  143.0697  156.4844 H   0  0  0  0  0  0  0  0  0  0  0  0
  151.0072  141.1216  155.4594 H   0  0  0  0  0  0  0  0  0  0  0  0
  150.5975  142.6130  156.2091 H   0  0  0  0  0  0  0  0  0  0  0  0
  153.2611  140.0729  160.7110 H   0  0  0  0  0  0  0  0  0  0  0  0
  154.1713  142.9792  160.0299 H   0  0  0  0  0  0  0  0  0  0  0  0
  152.2566  142.0157  162.2919 H   0  0  0  0  0  0  0  0  0  0  0  0
  153.8033  142.9901  162.4899 H   0  0  0  0  0  0  0  0  0  0  0  0
  152.8311  144.8110  161.0525 H   0  0  0  0  0  0  0  0  0  0  0  0
  151.2878  143.8285  160.8668 H   0  0  0  0  0  0  0  0  0  0  0  0
  1  2  1  0  0  0  0
  1 22  1  0  0  0  0
  1 23  1  0  0  0  0
  1 24  1  0  0  0  0
  2  3  1  0  0  0  0
  2  4  1  0  0  0  0
  2 25  1  0  0  0  0
  3 26  1  0  0  0  0
  3 27  1  0  0  0  0
  3 28  1  0  0  0  0
  4  5  1  0  0  0  0
  4 29  1  0  0  0  0
  4 30  1  0  0  0  0
  5  6  1  0  0  0  0
  5 31  1  0  0  0  0
  6  7  2  0  0  0  0
  6  8  1  0  0  0  0
  8  9  1  0  0  0  0
  8 32  1  0  0  0  0
  8 33  1  0  0  0  0
  9 20  1  0  0  0  0
  9 10  1  0  0  0  0
 10 11  2  0  0  0  0
 10 12  1  0  0  0  0
 12 13  1  0  0  0  0
 12 15  2  0  0  0  0
 13 14  3  0  0  0  0
 15 16  1  0  0  0  0
 15 34  1  0  0  0  0
 16 17  1  0  0  0  0
 16 20  1  0  0  0  0
 17 19  1  0  0  0  0
 17 18  1  0  0  0  0
 17 35  1  0  0  0  0
 18 19  1  0  0  0  0
 18 36  1  0  0  0  0
 18 37  1  0  0  0  0
 19 38  1  0  0  0  0
 19 39  1  0  0  0  0
 20 21  2  0  0  0  0
M  END
> <s_m_source_file>
AV-unprocessed.smi

> <i_m_source_file_index>
380

> <i_lp_mmshare_version>
43012

> <i_f3d_flags>
0

> <s_epik_input>
W0NIM11bQ0hdKFtDSDNdKVtDSDJdW05IXUMoPU8pW0NIMl1uMWMoPU8pYyhDI04pW2NIXW4oYzE9TylbQ0hdMltDSDJdW0NIMl0y

> <s_epik_cmdline>
J2VwaWtfcHl0aG9uJywgJy1waCcsICc3LjAnLCAnLXRuJywgJzgnLCAnLW1hJywgJzIwMCcsICctbWV0YWxfYmluZGluZycsICctaW1hZScsICc8aW5maWxlLm1hZT4nLCAnLW9tYWUnLCAnPG91dGZpbGUubWFlPic=

> <r_lp_tautomer_probability>
1

> <r_epik_Ionization_Penalty>
1.93825e-08

> <r_epik_Ionization_Penalty_Charging>
8.0817e-11

> <r_epik_Ionization_Penalty_Neutral>
1.93017e-08

> <r_epik_State_Penalty>
-0

> <r_epik_Charging_Adjusted_Penalty>
8.0817e-11

> <i_epik_Tot_Q>
0

> <i_epik_Tot_abs_Q>
0

> <r_epik_Metal_State_Penalty>
-0

> <b_epik_Metal_Only>
0

> <s_lp_Force_Field>
OPLS_2005

> <r_lp_Energy>
29.2237

> <b_lp_Chiralities_Consistent>
1

> <s_lp_Variant>
AV-unprocessed.smi:380-1

> <Gold.Version>
5.8.1

> <Gold.Id.Protein>
6NUR|6NUR_protein|mol2

> <Gold.PLP.Fitness>
46.4402

> <Gold.PLP.PLP>
-40.7914

> <Gold.PLP.part.hbond>
-2.0000

> <Gold.PLP.part.metal>
0.0000

> <Gold.PLP.part.buried>
-7.0832

> <Gold.PLP.part.nonpolar>
-33.2020

> <Gold.PLP.part.repulsive>
0.0980

> <Gold.PLP.ligand.clash>
0.0000

> <Gold.PLP.ligand.torsion>
0.2841

> <Gold.PLP.Chemscore.Hbond>
2.0000

> <Gold.PLP.Chemscore.CHOScore>
0.0000

> <Gold.PLP.Chemscore.Metal>
0.0000

> <Gold.Chemscore.Hbonds>
donor molecule, donor type, donor heavy atom, donor atom, acceptor molecule, acceptor atom, score
      L1  H     5    31       P1  8028  1.00
      P1  H  6896  6909       L1    14  1.00

> <Gold.PLP.Chemscore.Internal.Correction>
0.2171

> <Gold.Rescore>
     Score         DG    S(hbond)    S(metal)    S(lipo)     H(rot)  DE(clash)    DE(int)     intcor
     11.06     -15.48       1.97        0.00      72.70       1.99       0.04       4.39       ----

> <Gold.Chemscore.Fitness>
11.0552

> <Gold.Chemscore.DG>
-15.4760

> <Gold.Chemscore.ZeroCoef>
-5.4800

> <Gold.Chemscore.Hbond>
1.9738

> <Gold.Chemscore.Metal>
0.0000

> <Gold.Chemscore.Lipo>
72.6967

> <Gold.Chemscore.Internal_Hbond>
0.0000

> <Gold.Chemscore.DEClash>
0.0354

> <Gold.Chemscore.DEInternal>
4.3854

> <Gold.Chemscore.Rot>
1.9930

> <Gold.Chemscore.Internal.Correction>
   9.000000E+99

> <Gold.Chemscore.Hbonds>
donor molecule, donor type, donor heavy atom, donor atom, acceptor molecule, acceptor atom, score
      L1  H     5    31       P1  8028  0.79
      P1  H  6896  6909       L1    14  0.98

> <Gold.Chemscore.Hbond.Weighted>
-6.5924

> <Gold.Chemscore.Metal.Weighted>
-0.0000

> <Gold.Chemscore.Lipo.Weighted>
-8.5055

> <Gold.Chemscore.Internal_Hbond.Weighted>
0.0000

> <Gold.Chemscore.DEClash.Weighted>
0.0354

> <Gold.Chemscore.DEInternal.Weighted>
4.3854

> <Gold.Chemscore.Rot.Weighted>
5.1020

> <Gold.Chemscore.Internal.Correction.Weighted>
   9.000000E+99

> <Gold.Protein.RotatedTorsions>
[ 6907 6896 6895 6894 ] final  145.41 input  -60.11 | X-H torsion
[ 7974 7965 7964 7962 ] final  150.85 input  175.53 | X-H torsion
[ 8008 7997 7996 7995 ] final   54.75 input   59.86 | X-H torsion
[ 10167 10162 10161 10158 ] final   12.20 input  -65.29 | X-H torsion
[ 10718 10713 10712 10709 ] final  117.43 input   66.30 | X-H torsion
[ 10763 10752 10751 10750 ] final   63.29 input  -60.55 | X-H torsion
[ 11005 11000 10999 10996 ] final   51.18 input  -57.11 | X-H torsion

> <Gold.Protein.ActiveResidues>
 VAL166  LYS551  ARG553  GLY616  TRP617  ASP618  TYR619  PRO620  LYS621  CYS622 
 ASP623  PHE694  ASN695  SER759  ASP760  ASP761  ALA762  ILE779  LEU786  VAL792 
 PHE793  MET794  SER795  GLU796  ALA797  LYS798  CYS799  TRP800  GLU811  SER814 

> <Gold.Protein.RotatedAtoms>
  152.1812  133.4708  159.4958 H   0  0  0  0  0  0  0  0  0  0  0  0  # atno 6907 bound_to 6896
  150.6935  134.1831  159.4265 H   0  0  0  0  0  0  0  0  0  0  0  0  # atno 6908 bound_to 6896
  151.9742  135.0061  160.0605 H   0  0  0  0  0  0  0  0  0  0  0  0  # atno 6909 bound_to 6896
  144.8334  139.6462  143.6048 H   0  0  0  0  0  0  0  0  0  0  0  0  # atno 7974 bound_to 7965
  155.4898  140.3471  155.4353 H   0  0  0  0  0  0  0  0  0  0  0  0  # atno 8008 bound_to 7997
  156.0984  140.1429  156.9528 H   0  0  0  0  0  0  0  0  0  0  0  0  # atno 8009 bound_to 7997
  154.4678  140.0911  156.7044 H   0  0  0  0  0  0  0  0  0  0  0  0  # atno 8010 bound_to 7997
  140.6083  143.8461  150.7038 H   0  0  0  0  0  0  0  0  0  0  0  0  # atno 10167 bound_to 10162
  157.6097  131.1037  150.7614 H   0  0  0  0  0  0  0  0  0  0  0  0  # atno 10718 bound_to 10713
  153.0012  135.5434  154.6329 H   0  0  0  0  0  0  0  0  0  0  0  0  # atno 10763 bound_to 10752
  154.5602  135.2833  155.0928 H   0  0  0  0  0  0  0  0  0  0  0  0  # atno 10764 bound_to 10752
  154.2134  135.6463  153.5175 H   0  0  0  0  0  0  0  0  0  0  0  0  # atno 10765 bound_to 10752
  140.0954  134.5152  155.8812 H   0  0  0  0  0  0  0  0  0  0  0  0  # atno 11005 bound_to 11000
  146.2635  139.6466  142.9345 LP  0  0  0  0  0  0  0  0  0  0  0  0  # atno 17320 bound_to 7965
  145.4846  141.0438  143.2627 LP  0  0  0  0  0  0  0  0  0  0  0  0  # atno 17321 bound_to 7965
  140.2023  143.3949  152.1782 LP  0  0  0  0  0  0  0  0  0  0  0  0  # atno 17342 bound_to 10162
  139.5342  144.7192  151.4951 LP  0  0  0  0  0  0  0  0  0  0  0  0  # atno 17343 bound_to 10162
  156.7994  130.4916  149.5372 LP  0  0  0  0  0  0  0  0  0  0  0  0  # atno 17370 bound_to 10713
  156.1195  130.6099  151.0172 LP  0  0  0  0  0  0  0  0  0  0  0  0  # atno 17371 bound_to 10713
  141.2090  133.6680  156.6412 LP  0  0  0  0  0  0  0  0  0  0  0  0  # atno 17394 bound_to 11000
  140.3293  134.7942  157.4314 LP  0  0  0  0  0  0  0  0  0  0  0  0  # atno 17395 bound_to 11000

$$$$
