AV-unprocessed.smi:1892|AV-procd|sdf|7670|dock10
  -GOLD-   22720 9403D 1   1.00000     0.00000
 Structure written by MMmdl.
 43 44  0  0  0  0  0  0  0  0  2 V2000
  145.5022  130.8685  151.5185 C   0  0  0  0  0  0  0  0  0  0  0  0
  146.2601  131.5276  152.6729 C   0  0  0  0  0  0  0  0  0  0  0  0
  146.3141  130.9282  153.7465 O   0  0  0  0  0  0  0  0  0  0  0  0
  146.8387  132.7373  152.4815 N   0  0  0  0  0  0  0  0  0  0  0  0
  147.5262  133.4681  153.5493 C   0  0  0  0  0  0  0  0  0  0  0  0
  146.7212  134.7355  153.8897 C   0  0  0  0  0  0  0  0  0  0  0  0
  146.4906  135.5799  152.6860 N   0  3  0  0  0  0  0  0  0  0  0  0
  145.7182  136.8061  153.0090 C   0  0  0  0  0  0  0  0  0  0  0  0
  146.0269  137.9741  152.0520 C   0  0  0  0  0  0  0  0  0  0  0  0
  147.2960  138.6136  152.3803 N   0  0  0  0  0  0  0  0  0  0  0  0
  147.6383  139.0523  153.6004 C   0  0  0  0  0  0  0  0  0  0  0  0
  146.8975  138.9648  154.5801 O   0  0  0  0  0  0  0  0  0  0  0  0
  148.8701  139.5921  153.5993 N   0  0  0  0  0  0  0  0  0  0  0  0
  149.5823  140.1538  154.6924 C   0  0  0  0  0  0  0  0  0  0  0  0
  148.7932  140.8856  155.6083 C   0  0  0  0  0  0  0  0  0  0  0  0
  149.4056  141.4847  156.7261 C   0  0  0  0  0  0  0  0  0  0  0  0
  150.7933  141.3367  156.8991 C   0  0  0  0  0  0  0  0  0  0  0  0
  151.5052  140.5922  155.9408 C   0  0  0  0  0  0  0  0  0  0  0  0
  150.9203  140.0167  154.8690 N   0  0  0  0  0  0  0  0  0  0  0  0
  145.9299  134.8080  151.5417 C   0  0  0  0  0  0  0  0  0  0  0  0
  146.7542  133.5388  151.2573 C   0  0  0  0  0  0  0  0  0  0  0  0
  144.6770  131.4989  151.1861 H   0  0  0  0  0  0  0  0  0  0  0  0
  145.0831  129.9114  151.8313 H   0  0  0  0  0  0  0  0  0  0  0  0
  146.1680  130.6798  150.6759 H   0  0  0  0  0  0  0  0  0  0  0  0
  147.6682  132.8698  154.4503 H   0  0  0  0  0  0  0  0  0  0  0  0
  148.5280  133.7380  153.2115 H   0  0  0  0  0  0  0  0  0  0  0  0
  145.7595  134.4559  154.3232 H   0  0  0  0  0  0  0  0  0  0  0  0
  147.2547  135.3123  154.6462 H   0  0  0  0  0  0  0  0  0  0  0  0
  144.6508  136.5802  153.0110 H   0  0  0  0  0  0  0  0  0  0  0  0
  145.9689  137.1166  154.0244 H   0  0  0  0  0  0  0  0  0  0  0  0
  146.0405  137.6287  151.0167 H   0  0  0  0  0  0  0  0  0  0  0  0
  145.2567  138.7419  152.1138 H   0  0  0  0  0  0  0  0  0  0  0  0
  147.9626  138.7218  151.6295 H   0  0  0  0  0  0  0  0  0  0  0  0
  149.3569  139.6006  152.7154 H   0  0  0  0  0  0  0  0  0  0  0  0
  147.7281  140.9900  155.4602 H   0  0  0  0  0  0  0  0  0  0  0  0
  148.8201  142.0484  157.4372 H   0  0  0  0  0  0  0  0  0  0  0  0
  151.2991  141.7819  157.7429 H   0  0  0  0  0  0  0  0  0  0  0  0
  152.5721  140.4555  156.0361 H   0  0  0  0  0  0  0  0  0  0  0  0
  144.8967  134.5340  151.7612 H   0  0  0  0  0  0  0  0  0  0  0  0
  145.9109  135.4232  150.6431 H   0  0  0  0  0  0  0  0  0  0  0  0
  147.7627  133.8133  150.9447 H   0  0  0  0  0  0  0  0  0  0  0  0
  146.3246  133.0037  150.4116 H   0  0  0  0  0  0  0  0  0  0  0  0
  147.4070  135.8910  152.3966 H   0  0  0  0  0  0  0  0  0  0  0  0
  1  2  1  0  0  0  0
  1 22  1  0  0  0  0
  1 23  1  0  0  0  0
  1 24  1  0  0  0  0
  2  3  2  0  0  0  0
  2  4  1  0  0  0  0
  4 21  1  0  0  0  0
  4  5  1  0  0  0  0
  5  6  1  0  0  0  0
  5 25  1  0  0  0  0
  5 26  1  0  0  0  0
  6  7  1  0  0  0  0
  6 27  1  0  0  0  0
  6 28  1  0  0  0  0
  7  8  1  0  0  0  0
  7 20  1  0  0  0  0
  7 43  1  0  0  0  0
  8  9  1  0  0  0  0
  8 29  1  0  0  0  0
  8 30  1  0  0  0  0
  9 10  1  0  0  0  0
  9 31  1  0  0  0  0
  9 32  1  0  0  0  0
 10 11  1  0  0  0  0
 10 33  1  0  0  0  0
 11 12  2  0  0  0  0
 11 13  1  0  0  0  0
 13 14  1  0  0  0  0
 13 34  1  0  0  0  0
 14 19  1  0  0  0  0
 14 15  2  0  0  0  0
 15 16  1  0  0  0  0
 15 35  1  0  0  0  0
 16 17  2  0  0  0  0
 16 36  1  0  0  0  0
 17 18  1  0  0  0  0
 17 37  1  0  0  0  0
 18 19  2  0  0  0  0
 18 38  1  0  0  0  0
 20 21  1  0  0  0  0
 20 39  1  0  0  0  0
 20 40  1  0  0  0  0
 21 41  1  0  0  0  0
 21 42  1  0  0  0  0
M  CHG  1   7   1
M  END
> <s_m_source_file>
AV-unprocessed.smi

> <i_m_source_file_index>
1892

> <i_lp_mmshare_version>
43012

> <i_f3d_flags>
0

> <s_epik_input>
W0NIM11DKD1PKU4xW0NIMl1bQ0gyXU4oW0NIMl1bQ0gyXTEpW0NIMl1bQ0gyXVtOSF1DKD1PKVtOSF1jMltjSF1bY0hdW2NIXVtjSF1uMg==

> <s_epik_cmdline>
J2VwaWtfcHl0aG9uJywgJy1waCcsICc3LjAnLCAnLXRuJywgJzgnLCAnLW1hJywgJzIwMCcsICctbWV0YWxfYmluZGluZycsICctaW1hZScsICc8aW5maWxlLm1hZT4nLCAnLW9tYWUnLCAnPG91dGZpbGUubWFlPic=

> <r_epik_Ionization_Penalty>
0.630068

> <r_epik_Ionization_Penalty_Charging>
0.630034

> <r_epik_Ionization_Penalty_Neutral>
3.4348e-05

> <r_epik_State_Penalty>
0.646805

> <r_epik_Charging_Adjusted_Penalty>
1.27684

> <i_epik_Tot_Q>
1

> <i_epik_Tot_abs_Q>
1

> <r_epik_Metal_State_Penalty>
0.646808

> <b_epik_Metal_Only>
0

> <s_lp_Force_Field>
OPLS_2005

> <r_lp_Energy>
41.8075

> <b_lp_Chiralities_Consistent>
1

> <s_lp_Variant>
AV-unprocessed.smi:1892-2

> <Gold.Version>
5.8.1

> <Gold.Id.Protein>
6NUR|6NUR_protein|mol2

> <Gold.PLP.Fitness>
48.8391

> <Gold.PLP.PLP>
-35.9192

> <Gold.PLP.part.hbond>
-4.8412

> <Gold.PLP.part.metal>
0.0000

> <Gold.PLP.part.buried>
-3.9679

> <Gold.PLP.part.nonpolar>
-26.9540

> <Gold.PLP.part.repulsive>
0.5654

> <Gold.PLP.ligand.clash>
0.0000

> <Gold.PLP.ligand.torsion>
0.6403

> <Gold.PLP.Chemscore.Hbond>
4.7200

> <Gold.PLP.Chemscore.CHOScore>
0.0000

> <Gold.PLP.Chemscore.Metal>
0.0000

> <Gold.Chemscore.Hbonds>
donor molecule, donor type, donor heavy atom, donor atom, acceptor molecule, acceptor atom, score
      L1  H     7    43       P1  7948  2.00
      L1  H    10    33       P1  7957  0.60
      L1  H    13    34       P1  7957  1.00
      P1  H  7989  7998       L1    19  1.00

> <Gold.PLP.Chemscore.Internal.Correction>
0.0405

> <Gold.Rescore>
     Score         DG    S(hbond)    S(metal)    S(lipo)     H(rot)  DE(clash)    DE(int)     intcor
     16.81     -20.22       3.63        0.00      58.40       1.64       0.01       3.41       ----

> <Gold.Chemscore.Fitness>
16.8104

> <Gold.Chemscore.DG>
-20.2249

> <Gold.Chemscore.ZeroCoef>
-5.4800

> <Gold.Chemscore.Hbond>
3.6250

> <Gold.Chemscore.Metal>
0.0000

> <Gold.Chemscore.Lipo>
58.3970

> <Gold.Chemscore.Internal_Hbond>
0.0000

> <Gold.Chemscore.DEClash>
0.0063

> <Gold.Chemscore.DEInternal>
3.4082

> <Gold.Chemscore.Rot>
1.6388

> <Gold.Chemscore.Internal.Correction>
   9.000000E+99

> <Gold.Chemscore.Hbonds>
donor molecule, donor type, donor heavy atom, donor atom, acceptor molecule, acceptor atom, score
      L1  H     7    43       P1  7948  1.00
      L1  H    10    33       P1  7957  0.41
      L1  H    13    34       P1  7957  0.98
      P1  H  7989  7998       L1    19  0.20

> <Gold.Chemscore.Hbond.Weighted>
-12.1077

> <Gold.Chemscore.Metal.Weighted>
-0.0000

> <Gold.Chemscore.Lipo.Weighted>
-6.8325

> <Gold.Chemscore.Internal_Hbond.Weighted>
0.0000

> <Gold.Chemscore.DEClash.Weighted>
0.0063

> <Gold.Chemscore.DEInternal.Weighted>
3.4082

> <Gold.Chemscore.Rot.Weighted>
4.1952

> <Gold.Chemscore.Internal.Correction.Weighted>
   9.000000E+99

> <Gold.Protein.RotatedTorsions>
[ 6907 6896 6895 6894 ] final  -17.00 input  -60.11 | X-H torsion
[ 7974 7965 7964 7962 ] final  -97.80 input  175.53 | X-H torsion
[ 8008 7997 7996 7995 ] final -105.33 input   59.86 | X-H torsion
[ 10167 10162 10161 10158 ] final  -93.67 input  -65.29 | X-H torsion
[ 10718 10713 10712 10709 ] final  -58.40 input   66.30 | X-H torsion
[ 10763 10752 10751 10750 ] final -163.98 input  -60.55 | X-H torsion
[ 11005 11000 10999 10996 ] final -151.59 input  -57.11 | X-H torsion

> <Gold.Protein.ActiveResidues>
 VAL166  LYS551  ARG553  GLY616  TRP617  ASP618  TYR619  PRO620  LYS621  CYS622 
 ASP623  PHE694  ASN695  SER759  ASP760  ASP761  ALA762  ILE779  LEU786  VAL792 
 PHE793  MET794  SER795  GLU796  ALA797  LYS798  CYS799  TRP800  GLU811  SER814 

> <Gold.Protein.RotatedAtoms>
  151.3000  135.0766  159.9234 H   0  0  0  0  0  0  0  0  0  0  0  0  # atno 6907 bound_to 6896
  152.5299  133.9844  159.7832 H   0  0  0  0  0  0  0  0  0  0  0  0  # atno 6908 bound_to 6896
  151.0128  133.5897  159.2711 H   0  0  0  0  0  0  0  0  0  0  0  0  # atno 6909 bound_to 6896
  145.3289  140.9437  143.2673 H   0  0  0  0  0  0  0  0  0  0  0  0  # atno 7974 bound_to 7965
  154.8983  140.0413  157.1878 H   0  0  0  0  0  0  0  0  0  0  0  0  # atno 8008 bound_to 7997
  154.8470  140.2923  155.5601 H   0  0  0  0  0  0  0  0  0  0  0  0  # atno 8009 bound_to 7997
  156.2994  140.2472  156.3423 H   0  0  0  0  0  0  0  0  0  0  0  0  # atno 8010 bound_to 7997
  140.3222  143.3042  152.0033 H   0  0  0  0  0  0  0  0  0  0  0  0  # atno 10167 bound_to 10162
  156.1138  130.4172  150.0572 H   0  0  0  0  0  0  0  0  0  0  0  0  # atno 10718 bound_to 10713
  154.7071  135.2999  154.9253 H   0  0  0  0  0  0  0  0  0  0  0  0  # atno 10763 bound_to 10752
  154.0167  135.6688  153.4773 H   0  0  0  0  0  0  0  0  0  0  0  0  # atno 10764 bound_to 10752
  153.0726  135.5052  154.8248 H   0  0  0  0  0  0  0  0  0  0  0  0  # atno 10765 bound_to 10752
  140.7280  134.3653  157.5172 H   0  0  0  0  0  0  0  0  0  0  0  0  # atno 11005 bound_to 11000
  144.8880  139.4813  143.6691 LP  0  0  0  0  0  0  0  0  0  0  0  0  # atno 17320 bound_to 7965
  146.3053  139.7560  142.9061 LP  0  0  0  0  0  0  0  0  0  0  0  0  # atno 17321 bound_to 7965
  139.4872  144.6302  151.7086 LP  0  0  0  0  0  0  0  0  0  0  0  0  # atno 17342 bound_to 10162
  140.5473  144.0483  150.6112 LP  0  0  0  0  0  0  0  0  0  0  0  0  # atno 17343 bound_to 10162
  156.8528  130.9465  151.3624 LP  0  0  0  0  0  0  0  0  0  0  0  0  # atno 17370 bound_to 10713
  157.6320  130.8737  149.9291 LP  0  0  0  0  0  0  0  0  0  0  0  0  # atno 17371 bound_to 10713
  139.8833  134.8999  156.2777 LP  0  0  0  0  0  0  0  0  0  0  0  0  # atno 17394 bound_to 11000
  140.9946  133.7188  156.0866 LP  0  0  0  0  0  0  0  0  0  0  0  0  # atno 17395 bound_to 11000

$$$$
