AV-unprocessed.smi:438|AV-procd|sdf|2570|dock3
  -GOLD-   2262022543D 1   1.00000     0.00000
 Structure written by MMmdl.
 48 49  0  0  0  0  0  0  0  0  1 V2000
  148.6626  133.4271  153.2514 C   0  0  0  0  0  0  0  0  0  0  0  0
  149.6235  133.8375  154.3538 C   0  0  0  0  0  0  0  0  0  0  0  0
  150.0768  135.1410  154.2598 N   0  0  0  0  0  0  0  0  0  0  0  0
  150.9654  135.6141  155.2126 C   0  0  0  0  0  0  0  0  0  0  0  0
  151.4160  137.3347  154.8429 S   0  0  0  0  0  0  0  0  0  0  0  0
  151.2578  138.1124  156.4789 C   0  0  0  0  0  0  0  0  0  0  0  0
  151.9045  139.4950  156.5678 C   0  0  0  0  0  0  0  0  0  0  0  0
  152.5737  139.9384  155.6342 O   0  0  0  0  0  0  0  0  0  0  0  0
  151.6892  140.1717  157.7064 N   0  0  0  0  0  0  0  0  0  0  0  0
  152.2298  141.4918  158.0241 C   0  0  1  0  0  0  0  0  0  0  0  0
  151.2496  142.5884  157.5563 C   0  0  0  0  0  0  0  0  0  0  0  0
  151.7538  143.9923  157.9208 C   0  0  0  0  0  0  0  0  0  0  0  0
  152.0243  144.1074  159.4272 C   0  0  0  0  0  0  0  0  0  0  0  0
  153.0094  143.0254  159.8941 C   0  0  0  0  0  0  0  0  0  0  0  0
  152.5147  141.6077  159.5427 C   0  0  2  0  0  0  0  0  0  0  0  0
  153.5141  140.5479  160.0402 C   0  0  0  0  0  0  0  0  0  0  0  0
  151.3960  134.9020  156.2118 N   0  0  0  0  0  0  0  0  0  0  0  0
  150.9659  133.5754  156.3661 C   0  0  0  0  0  0  0  0  0  0  0  0
  151.3604  132.8991  157.3150 O   0  0  0  0  0  0  0  0  0  0  0  0
  150.0339  133.0252  155.3584 C   0  0  0  0  0  0  0  0  0  0  0  0
  149.5638  131.5790  155.5158 C   0  0  0  0  0  0  0  0  0  0  0  0
  150.0524  130.6538  154.3876 C   0  0  0  0  0  0  0  0  0  0  0  0
  151.3738  130.2192  154.6319 O   0  0  0  0  0  0  0  0  0  0  0  0
  149.0451  132.5584  152.7154 H   0  0  0  0  0  0  0  0  0  0  0  0
  148.5164  134.2288  152.5262 H   0  0  0  0  0  0  0  0  0  0  0  0
  147.6887  133.1741  153.6707 H   0  0  0  0  0  0  0  0  0  0  0  0
  151.7119  137.4556  157.2223 H   0  0  0  0  0  0  0  0  0  0  0  0
  150.2003  138.2032  156.7287 H   0  0  0  0  0  0  0  0  0  0  0  0
  151.1200  139.7326  158.4155 H   0  0  0  0  0  0  0  0  0  0  0  0
  153.1755  141.6214  157.4937 H   0  0  0  0  0  0  0  0  0  0  0  0
  151.1010  142.5268  156.4774 H   0  0  0  0  0  0  0  0  0  0  0  0
  150.2711  142.4271  158.0112 H   0  0  0  0  0  0  0  0  0  0  0  0
  152.6681  144.2076  157.3663 H   0  0  0  0  0  0  0  0  0  0  0  0
  151.0226  144.7413  157.6155 H   0  0  0  0  0  0  0  0  0  0  0  0
  152.4214  145.0962  159.6590 H   0  0  0  0  0  0  0  0  0  0  0  0
  151.0874  144.0129  159.9775 H   0  0  0  0  0  0  0  0  0  0  0  0
  153.9832  143.1994  159.4343 H   0  0  0  0  0  0  0  0  0  0  0  0
  153.1588  143.1124  160.9709 H   0  0  0  0  0  0  0  0  0  0  0  0
  151.5764  141.4457  160.0759 H   0  0  0  0  0  0  0  0  0  0  0  0
  154.4702  140.6333  159.5231 H   0  0  0  0  0  0  0  0  0  0  0  0
  153.1407  139.5356  159.8849 H   0  0  0  0  0  0  0  0  0  0  0  0
  153.7033  140.6602  161.1081 H   0  0  0  0  0  0  0  0  0  0  0  0
  149.7466  135.7051  153.4899 H   0  0  0  0  0  0  0  0  0  0  0  0
  148.4771  131.5311  155.5764 H   0  0  0  0  0  0  0  0  0  0  0  0
  149.9175  131.1991  156.4753 H   0  0  0  0  0  0  0  0  0  0  0  0
  149.4025  129.7853  154.2802 H   0  0  0  0  0  0  0  0  0  0  0  0
  150.0333  131.1845  153.4356 H   0  0  0  0  0  0  0  0  0  0  0  0
  151.3816  129.2743  154.6474 H   0  0  0  0  0  0  0  0  0  0  0  0
  1 24  1  0  0  0  0
  1 25  1  0  0  0  0
  1 26  1  0  0  0  0
  1  2  1  0  0  0  0
  2 20  2  0  0  0  0
  2  3  1  0  0  0  0
  3  4  1  0  0  0  0
  3 43  1  0  0  0  0
  4  5  1  0  0  0  0
  4 17  2  0  0  0  0
  5  6  1  0  0  0  0
  6  7  1  0  0  0  0
  6 27  1  0  0  0  0
  6 28  1  0  0  0  0
  7  8  2  0  0  0  0
  7  9  1  0  0  0  0
  9 10  1  0  0  0  0
  9 29  1  0  0  0  0
 10 15  1  0  0  0  0
 10 11  1  0  0  0  0
 10 30  1  0  0  0  0
 11 12  1  0  0  0  0
 11 31  1  0  0  0  0
 11 32  1  0  0  0  0
 12 13  1  0  0  0  0
 12 33  1  0  0  0  0
 12 34  1  0  0  0  0
 13 14  1  0  0  0  0
 13 35  1  0  0  0  0
 13 36  1  0  0  0  0
 14 15  1  0  0  0  0
 14 37  1  0  0  0  0
 14 38  1  0  0  0  0
 15 16  1  0  0  0  0
 15 39  1  0  0  0  0
 16 40  1  0  0  0  0
 16 41  1  0  0  0  0
 16 42  1  0  0  0  0
 17 18  1  0  0  0  0
 18 19  2  0  0  0  0
 18 20  1  0  0  0  0
 20 21  1  0  0  0  0
 21 22  1  0  0  0  0
 21 44  1  0  0  0  0
 21 45  1  0  0  0  0
 22 23  1  0  0  0  0
 22 46  1  0  0  0  0
 22 47  1  0  0  0  0
 23 48  1  0  0  0  0
M  END
> <s_m_source_file>
AV-unprocessed.smi

> <i_m_source_file_index>
438

> <i_lp_mmshare_version>
43012

> <i_f3d_flags>
0

> <s_epik_input>
W09IXVtDSDJdW0NIMl1jMWMoW09IXSluYyhuYzFbQ0gzXSlTW0NIMl1DKD1PKVtOSF1bQ0BASF0yW0NIMl1bQ0gyXVtDSDJdW0NIMl1bQ0BIXTJbQ0gzXQ==

> <s_epik_cmdline>
J2VwaWtfcHl0aG9uJywgJy1waCcsICc3LjAnLCAnLXRuJywgJzgnLCAnLW1hJywgJzIwMCcsICctbWV0YWxfYmluZGluZycsICctaW1hZScsICc8aW5maWxlLm1hZT4nLCAnLW9tYWUnLCAnPG91dGZpbGUubWFlPic=

> <r_lp_tautomer_probability>
0.273662

> <r_epik_Ionization_Penalty>
0.0875285

> <r_epik_Ionization_Penalty_Charging>
0.0875254

> <r_epik_Ionization_Penalty_Neutral>
3.01536e-06

> <r_epik_State_Penalty>
0.985796

> <r_epik_Charging_Adjusted_Penalty>
1.07332

> <i_epik_Tot_Q>
0

> <i_epik_Tot_abs_Q>
0

> <r_epik_Metal_State_Penalty>
1.58101

> <b_epik_Metal_Only>
0

> <s_lp_Force_Field>
OPLS_2005

> <r_lp_Energy>
20.5505

> <b_lp_Chiralities_Consistent>
1

> <s_lp_Variant>
AV-unprocessed.smi:438-8

> <Gold.Version>
5.8.1

> <Gold.Id.Protein>
6NUR|6NUR_protein|mol2

> <Gold.PLP.Fitness>
50.8388

> <Gold.PLP.PLP>
-43.3087

> <Gold.PLP.part.hbond>
-3.5564

> <Gold.PLP.part.metal>
0.0000

> <Gold.PLP.part.buried>
-3.4295

> <Gold.PLP.part.nonpolar>
-35.6914

> <Gold.PLP.part.repulsive>
0.1190

> <Gold.PLP.ligand.clash>
0.0000

> <Gold.PLP.ligand.torsion>
0.7810

> <Gold.PLP.Chemscore.Hbond>
3.0000

> <Gold.PLP.Chemscore.CHOScore>
0.0000

> <Gold.PLP.Chemscore.Metal>
0.0000

> <Gold.Chemscore.Hbonds>
donor molecule, donor type, donor heavy atom, donor atom, acceptor molecule, acceptor atom, score
      L1  H     3    43       P1  7948  0.65
      P1  H  6896  6909       L1    19  0.90
      P1  H  7997  8008       L1     8  0.98

> <Gold.PLP.Chemscore.Internal.Correction>
0.0921

> <Gold.Rescore>
     Score         DG    S(hbond)    S(metal)    S(lipo)     H(rot)  DE(clash)    DE(int)     intcor
     18.47     -19.22       2.70        0.00     103.11       2.86       0.03       0.72       ----

> <Gold.Chemscore.Fitness>
18.4671

> <Gold.Chemscore.DG>
-19.2154

> <Gold.Chemscore.ZeroCoef>
-5.4800

> <Gold.Chemscore.Hbond>
2.6961

> <Gold.Chemscore.Metal>
0.0000

> <Gold.Chemscore.Lipo>
103.1080

> <Gold.Chemscore.Internal_Hbond>
0.0000

> <Gold.Chemscore.DEClash>
0.0294

> <Gold.Chemscore.DEInternal>
0.7189

> <Gold.Chemscore.Rot>
2.8645

> <Gold.Chemscore.Internal.Correction>
   9.000000E+99

> <Gold.Chemscore.Hbonds>
donor molecule, donor type, donor heavy atom, donor atom, acceptor molecule, acceptor atom, score
      L1  H     3    43       P1  7948  0.06
      P1  H  6896  6909       L1    19  0.85
      P1  H  7989  7998       L1     8  0.01
      P1  H  7997  8008       L1     8  0.37

> <Gold.Chemscore.Hbond.Weighted>
-9.0048

> <Gold.Chemscore.Metal.Weighted>
-0.0000

> <Gold.Chemscore.Lipo.Weighted>
-12.0636

> <Gold.Chemscore.Internal_Hbond.Weighted>
0.0000

> <Gold.Chemscore.DEClash.Weighted>
0.0294

> <Gold.Chemscore.DEInternal.Weighted>
0.7189

> <Gold.Chemscore.Rot.Weighted>
7.3331

> <Gold.Chemscore.Internal.Correction.Weighted>
   9.000000E+99

> <Gold.Protein.RotatedTorsions>
[ 6907 6896 6895 6894 ] final  -30.68 input  -60.11 | X-H torsion
[ 7974 7965 7964 7962 ] final -134.80 input  175.53 | X-H torsion
[ 8008 7997 7996 7995 ] final  -49.59 input   59.86 | X-H torsion
[ 10167 10162 10161 10158 ] final  135.68 input  -65.29 | X-H torsion
[ 10718 10713 10712 10709 ] final   -2.56 input   66.30 | X-H torsion
[ 10763 10752 10751 10750 ] final  -29.31 input  -60.55 | X-H torsion
[ 11005 11000 10999 10996 ] final -148.82 input  -57.11 | X-H torsion

> <Gold.Protein.ActiveResidues>
 VAL166  LYS551  ARG553  GLY616  TRP617  ASP618  TYR619  PRO620  LYS621  CYS622 
 ASP623  PHE694  ASN695  SER759  ASP760  ASP761  ALA762  ILE779  LEU786  VAL792 
 PHE793  MET794  SER795  GLU796  ALA797  LYS798  CYS799  TRP800  GLU811  SER814 

> <Gold.Protein.RotatedAtoms>
  151.1023  134.9979  159.8454 H   0  0  0  0  0  0  0  0  0  0  0  0  # atno 6907 bound_to 6896
  152.5438  134.1935  159.8693 H   0  0  0  0  0  0  0  0  0  0  0  0  # atno 6908 bound_to 6896
  151.1979  133.4584  159.2629 H   0  0  0  0  0  0  0  0  0  0  0  0  # atno 6909 bound_to 6896
  144.9070  140.6846  143.5049 H   0  0  0  0  0  0  0  0  0  0  0  0  # atno 7974 bound_to 7965
  154.4047  140.1293  156.4528 H   0  0  0  0  0  0  0  0  0  0  0  0  # atno 8008 bound_to 7997
  155.7350  140.3491  155.5057 H   0  0  0  0  0  0  0  0  0  0  0  0  # atno 8009 bound_to 7997
  155.9092  140.1033  157.1282 H   0  0  0  0  0  0  0  0  0  0  0  0  # atno 8010 bound_to 7997
  139.5208  144.6504  151.5317 H   0  0  0  0  0  0  0  0  0  0  0  0  # atno 10167 bound_to 10162
  156.7891  130.5355  149.5738 H   0  0  0  0  0  0  0  0  0  0  0  0  # atno 10718 bound_to 10713
  153.7626  135.6918  153.4922 H   0  0  0  0  0  0  0  0  0  0  0  0  # atno 10763 bound_to 10752
  153.1928  135.4465  155.0169 H   0  0  0  0  0  0  0  0  0  0  0  0  # atno 10764 bound_to 10752
  154.8147  135.3393  154.7140 H   0  0  0  0  0  0  0  0  0  0  0  0  # atno 10765 bound_to 10752
  140.7572  134.3339  157.5111 H   0  0  0  0  0  0  0  0  0  0  0  0  # atno 11005 bound_to 11000
  145.3518  139.1704  143.4430 LP  0  0  0  0  0  0  0  0  0  0  0  0  # atno 17320 bound_to 7965
  146.3139  140.3571  142.8661 LP  0  0  0  0  0  0  0  0  0  0  0  0  # atno 17321 bound_to 7965
  140.6307  143.9082  150.6603 LP  0  0  0  0  0  0  0  0  0  0  0  0  # atno 17342 bound_to 10162
  140.2385  143.3682  152.1507 LP  0  0  0  0  0  0  0  0  0  0  0  0  # atno 17343 bound_to 10162
  156.1170  130.6082  151.0136 LP  0  0  0  0  0  0  0  0  0  0  0  0  # atno 17370 bound_to 10713
  157.6609  131.0881  150.7840 LP  0  0  0  0  0  0  0  0  0  0  0  0  # atno 17371 bound_to 10713
  139.8777  134.9179  156.3190 LP  0  0  0  0  0  0  0  0  0  0  0  0  # atno 17394 bound_to 11000
  140.9697  133.7335  156.0516 LP  0  0  0  0  0  0  0  0  0  0  0  0  # atno 17395 bound_to 11000

$$$$
