AV-unprocessed.smi:653|AV-procd|sdf|3204|dock8
  -GOLD-   22720 0143D 1   1.00000     0.00000
 Structure written by MMmdl.
 44 45  0  0  0  0  0  0  0  0  1 V2000
  154.1405  140.8611  160.8794 C   0  0  0  0  0  0  0  0  0  0  0  0
  153.3598  141.4547  159.7255 C   0  0  0  0  0  0  0  0  0  0  0  0
  153.3077  142.8510  159.5310 C   0  0  0  0  0  0  0  0  0  0  0  0
  152.5616  143.3491  158.4455 C   0  0  0  0  0  0  0  0  0  0  0  0
  151.8979  142.4361  157.6000 C   0  0  0  0  0  0  0  0  0  0  0  0
  151.0758  142.9219  156.4173 C   0  0  0  0  0  0  0  0  0  0  0  0
  150.3254  141.7808  155.7201 C   0  0  0  0  0  0  0  0  0  0  0  0
  150.9260  140.8070  155.2628 O   0  0  0  0  0  0  0  0  0  0  0  0
  148.9933  141.9199  155.6465 N   0  0  0  0  0  0  0  0  0  0  0  0
  148.0865  140.9720  155.0081 C   0  0  0  0  0  0  0  0  0  0  0  0
  146.6870  141.5785  154.7849 C   0  0  2  0  0  0  0  0  0  0  0  0
  146.6816  142.8465  153.9529 C   0  0  0  0  0  0  0  0  0  0  0  0
  145.3246  143.4434  154.3067 C   0  0  0  0  0  0  0  0  0  0  0  0
  145.0964  143.0922  155.6674 O   0  0  0  0  0  0  0  0  0  0  0  0
  146.0019  142.0658  156.0708 C   0  0  1  0  0  0  0  0  0  0  0  0
  145.2825  140.9846  156.9104 C   0  0  0  0  0  0  0  0  0  0  0  0
  146.2275  139.8938  157.4472 C   0  0  0  0  0  0  0  0  0  0  0  0
  144.1286  140.3538  156.1154 C   0  0  0  0  0  0  0  0  0  0  0  0
  152.0156  141.0585  157.8822 C   0  0  0  0  0  0  0  0  0  0  0  0
  152.7277  140.5719  158.9212 N   0  0  0  0  0  0  0  0  0  0  0  0
  154.8408  141.5867  161.2942 H   0  0  0  0  0  0  0  0  0  0  0  0
  154.7097  139.9904  160.5518 H   0  0  0  0  0  0  0  0  0  0  0  0
  153.4605  140.5494  161.6724 H   0  0  0  0  0  0  0  0  0  0  0  0
  153.8257  143.5266  160.1958 H   0  0  0  0  0  0  0  0  0  0  0  0
  152.5019  144.4124  158.2657 H   0  0  0  0  0  0  0  0  0  0  0  0
  150.3558  143.6696  156.7519 H   0  0  0  0  0  0  0  0  0  0  0  0
  151.7357  143.4152  155.7022 H   0  0  0  0  0  0  0  0  0  0  0  0
  148.5787  142.7470  156.0512 H   0  0  0  0  0  0  0  0  0  0  0  0
  148.5103  140.6349  154.0608 H   0  0  0  0  0  0  0  0  0  0  0  0
  148.0179  140.0886  155.6438 H   0  0  0  0  0  0  0  0  0  0  0  0
  146.0537  140.8494  154.2809 H   0  0  0  0  0  0  0  0  0  0  0  0
  147.4801  143.5186  154.2709 H   0  0  0  0  0  0  0  0  0  0  0  0
  146.7948  142.6600  152.8845 H   0  0  0  0  0  0  0  0  0  0  0  0
  145.2902  144.5231  154.1603 H   0  0  0  0  0  0  0  0  0  0  0  0
  144.5411  142.9921  153.6967 H   0  0  0  0  0  0  0  0  0  0  0  0
  146.7581  142.5515  156.6904 H   0  0  0  0  0  0  0  0  0  0  0  0
  144.8354  141.4807  157.7723 H   0  0  0  0  0  0  0  0  0  0  0  0
  146.7415  139.3763  156.6367 H   0  0  0  0  0  0  0  0  0  0  0  0
  145.6735  139.1451  158.0141 H   0  0  0  0  0  0  0  0  0  0  0  0
  146.9841  140.3001  158.1171 H   0  0  0  0  0  0  0  0  0  0  0  0
  144.4947  139.8354  155.2287 H   0  0  0  0  0  0  0  0  0  0  0  0
  143.4154  141.1103  155.7876 H   0  0  0  0  0  0  0  0  0  0  0  0
  143.5823  139.6303  156.7210 H   0  0  0  0  0  0  0  0  0  0  0  0
  151.5247  140.3258  157.2586 H   0  0  0  0  0  0  0  0  0  0  0  0
  1  2  1  0  0  0  0
  1 21  1  0  0  0  0
  1 22  1  0  0  0  0
  1 23  1  0  0  0  0
  2 20  1  0  0  0  0
  2  3  2  0  0  0  0
  3  4  1  0  0  0  0
  3 24  1  0  0  0  0
  4  5  2  0  0  0  0
  4 25  1  0  0  0  0
  5  6  1  0  0  0  0
  5 19  1  0  0  0  0
  6  7  1  0  0  0  0
  6 26  1  0  0  0  0
  6 27  1  0  0  0  0
  7  8  2  0  0  0  0
  7  9  1  0  0  0  0
  9 10  1  0  0  0  0
  9 28  1  0  0  0  0
 10 11  1  0  0  0  0
 10 29  1  0  0  0  0
 10 30  1  0  0  0  0
 11 15  1  0  0  0  0
 11 12  1  0  0  0  0
 11 31  1  0  0  0  0
 12 13  1  0  0  0  0
 12 32  1  0  0  0  0
 12 33  1  0  0  0  0
 13 14  1  0  0  0  0
 13 34  1  0  0  0  0
 13 35  1  0  0  0  0
 14 15  1  0  0  0  0
 15 16  1  0  0  0  0
 15 36  1  0  0  0  0
 16 17  1  0  0  0  0
 16 18  1  0  0  0  0
 16 37  1  0  0  0  0
 17 38  1  0  0  0  0
 17 39  1  0  0  0  0
 17 40  1  0  0  0  0
 18 41  1  0  0  0  0
 18 42  1  0  0  0  0
 18 43  1  0  0  0  0
 19 20  2  0  0  0  0
 19 44  1  0  0  0  0
M  END
> <s_m_source_file>
AV-unprocessed.smi

> <i_m_source_file_index>
653

> <i_lp_mmshare_version>
43012

> <i_f3d_flags>
0

> <s_epik_input>
W0NIM11jMVtjSF1bY0hdYyhbY0hdbjEpW0NIMl1DKD1PKVtOSF1bQ0gyXVtDQEBIXTJbQ0gyXVtDSDJdT1tDQEhdMltDSF0oW0NIM10pW0NIM10=

> <s_epik_cmdline>
J2VwaWtfcHl0aG9uJywgJy1waCcsICc3LjAnLCAnLXRuJywgJzgnLCAnLW1hJywgJzIwMCcsICctbWV0YWxfYmluZGluZycsICctaW1hZScsICc8aW5maWxlLm1hZT4nLCAnLW9tYWUnLCAnPG91dGZpbGUubWFlPic=

> <r_epik_Ionization_Penalty>
0.0166429

> <r_epik_Ionization_Penalty_Charging>
0

> <r_epik_Ionization_Penalty_Neutral>
0.0166429

> <r_epik_State_Penalty>
0.0131478

> <r_epik_Charging_Adjusted_Penalty>
0.0131478

> <i_epik_Tot_Q>
0

> <i_epik_Tot_abs_Q>
0

> <r_epik_Metal_State_Penalty>
0.012786

> <b_epik_Metal_Only>
0

> <s_lp_Force_Field>
OPLS_2005

> <r_lp_Energy>
19.6488

> <b_lp_Chiralities_Consistent>
1

> <s_lp_Variant>
AV-unprocessed.smi:653-1

> <Gold.Version>
5.8.1

> <Gold.Id.Protein>
6NUR|6NUR_protein|mol2

> <Gold.PLP.Fitness>
40.0732

> <Gold.PLP.PLP>
-36.0082

> <Gold.PLP.part.hbond>
-2.0000

> <Gold.PLP.part.metal>
0.0000

> <Gold.PLP.part.buried>
-3.3583

> <Gold.PLP.part.nonpolar>
-29.7858

> <Gold.PLP.part.repulsive>
0.3388

> <Gold.PLP.ligand.clash>
0.0000

> <Gold.PLP.ligand.torsion>
0.1375

> <Gold.PLP.Chemscore.Hbond>
1.4356

> <Gold.PLP.Chemscore.CHOScore>
0.0000

> <Gold.PLP.Chemscore.Metal>
0.0000

> <Gold.Chemscore.Hbonds>
donor molecule, donor type, donor heavy atom, donor atom, acceptor molecule, acceptor atom, score
      L1  H     9    28       P1  8028  0.62
      P1  H  7989  7998       L1     8  0.82

> <Gold.PLP.Chemscore.Internal.Correction>
0.0332

> <Gold.Rescore>
     Score         DG    S(hbond)    S(metal)    S(lipo)     H(rot)  DE(clash)    DE(int)     intcor
     14.59     -16.98       1.27        0.00      94.47       1.48       0.86       1.54       ----

> <Gold.Chemscore.Fitness>
14.5859

> <Gold.Chemscore.DG>
-16.9834

> <Gold.Chemscore.ZeroCoef>
-5.4800

> <Gold.Chemscore.Hbond>
1.2732

> <Gold.Chemscore.Metal>
0.0000

> <Gold.Chemscore.Lipo>
94.4653

> <Gold.Chemscore.Internal_Hbond>
0.0000

> <Gold.Chemscore.DEClash>
0.8559

> <Gold.Chemscore.DEInternal>
1.5416

> <Gold.Chemscore.Rot>
1.4850

> <Gold.Chemscore.Internal.Correction>
   9.000000E+99

> <Gold.Chemscore.Hbonds>
donor molecule, donor type, donor heavy atom, donor atom, acceptor molecule, acceptor atom, score
      L1  H     9    28       P1  8028  0.57
      P1  H  7989  7998       L1     8  0.77

> <Gold.Chemscore.Hbond.Weighted>
-4.2525

> <Gold.Chemscore.Metal.Weighted>
-0.0000

> <Gold.Chemscore.Lipo.Weighted>
-11.0524

> <Gold.Chemscore.Internal_Hbond.Weighted>
0.0000

> <Gold.Chemscore.DEClash.Weighted>
0.8559

> <Gold.Chemscore.DEInternal.Weighted>
1.5416

> <Gold.Chemscore.Rot.Weighted>
3.8015

> <Gold.Chemscore.Internal.Correction.Weighted>
   9.000000E+99

> <Gold.Protein.RotatedTorsions>
[ 6907 6896 6895 6894 ] final  -47.91 input  -60.11 | X-H torsion
[ 7974 7965 7964 7962 ] final  -94.98 input  175.53 | X-H torsion
[ 8008 7997 7996 7995 ] final  -88.20 input   59.86 | X-H torsion
[ 10167 10162 10161 10158 ] final  109.78 input  -65.29 | X-H torsion
[ 10718 10713 10712 10709 ] final  -28.07 input   66.30 | X-H torsion
[ 10763 10752 10751 10750 ] final  114.60 input  -60.55 | X-H torsion
[ 11005 11000 10999 10996 ] final    1.11 input  -57.11 | X-H torsion

> <Gold.Protein.ActiveResidues>
 VAL166  LYS551  ARG553  GLY616  TRP617  ASP618  TYR619  PRO620  LYS621  CYS622 
 ASP623  PHE694  ASN695  SER759  ASP760  ASP761  ALA762  ILE779  LEU786  VAL792 
 PHE793  MET794  SER795  GLU796  ALA797  LYS798  CYS799  TRP800  GLU811  SER814 

> <Gold.Protein.RotatedAtoms>
  150.8960  134.8368  159.7326 H   0  0  0  0  0  0  0  0  0  0  0  0  # atno 6907 bound_to 6896
  152.4865  134.4576  159.9604 H   0  0  0  0  0  0  0  0  0  0  0  0  # atno 6908 bound_to 6896
  151.4633  133.3548  159.2847 H   0  0  0  0  0  0  0  0  0  0  0  0  # atno 6909 bound_to 6896
  145.3661  140.9499  143.2473 H   0  0  0  0  0  0  0  0  0  0  0  0  # atno 7974 bound_to 7965
  154.6720  140.0556  157.0176 H   0  0  0  0  0  0  0  0  0  0  0  0  # atno 8008 bound_to 7997
  155.1075  140.3235  155.4512 H   0  0  0  0  0  0  0  0  0  0  0  0  # atno 8009 bound_to 7997
  156.2661  140.2020  156.6200 H   0  0  0  0  0  0  0  0  0  0  0  0  # atno 8010 bound_to 7997
  139.6740  144.7123  151.1636 H   0  0  0  0  0  0  0  0  0  0  0  0  # atno 10167 bound_to 10162
  156.4300  130.4443  149.7124 H   0  0  0  0  0  0  0  0  0  0  0  0  # atno 10718 bound_to 10713
  153.5097  135.3620  155.2580 H   0  0  0  0  0  0  0  0  0  0  0  0  # atno 10763 bound_to 10752
  154.8743  135.4019  154.3383 H   0  0  0  0  0  0  0  0  0  0  0  0  # atno 10764 bound_to 10752
  153.4034  135.7075  153.6476 H   0  0  0  0  0  0  0  0  0  0  0  0  # atno 10765 bound_to 10752
  140.6191  133.9678  155.8215 H   0  0  0  0  0  0  0  0  0  0  0  0  # atno 11005 bound_to 11000
  144.8610  139.5177  143.6812 LP  0  0  0  0  0  0  0  0  0  0  0  0  # atno 17320 bound_to 7965
  146.2906  139.7128  142.9164 LP  0  0  0  0  0  0  0  0  0  0  0  0  # atno 17321 bound_to 7965
  140.7628  143.5801  150.8904 LP  0  0  0  0  0  0  0  0  0  0  0  0  # atno 17342 bound_to 10162
  139.9468  143.6318  152.3039 LP  0  0  0  0  0  0  0  0  0  0  0  0  # atno 17343 bound_to 10162
  156.4031  130.7684  151.2693 LP  0  0  0  0  0  0  0  0  0  0  0  0  # atno 17370 bound_to 10713
  157.7508  131.0234  150.3832 LP  0  0  0  0  0  0  0  0  0  0  0  0  # atno 17371 bound_to 10713
  141.0755  134.0141  157.3464 LP  0  0  0  0  0  0  0  0  0  0  0  0  # atno 17394 bound_to 11000
  139.9161  135.0197  156.7885 LP  0  0  0  0  0  0  0  0  0  0  0  0  # atno 17395 bound_to 11000

$$$$
