AV-unprocessed.smi:1183|AV-procd|sdf|4968|dock5
  -GOLD-   22720 3563D 1   1.00000     0.00000
 Structure written by MMmdl.
 42 43  0  0  0  0  0  0  0  0  1 V2000
  147.0719  141.0826  155.5414 C   0  0  0  0  0  0  0  0  0  0  0  0
  148.4927  140.8092  155.0422 C   0  0  0  0  0  0  0  0  0  0  0  0
  148.8844  141.4210  154.0483 O   0  0  0  0  0  0  0  0  0  0  0  0
  149.2631  139.9078  155.6973 N   0  0  0  0  0  0  0  0  0  0  0  0
  150.6583  139.5875  155.3733 C   0  0  0  0  0  0  0  0  0  0  0  0
  151.5676  140.1754  156.4664 C   0  0  0  0  0  0  0  0  0  0  0  0
  151.1644  139.6655  157.8698 C   0  0  0  0  0  0  0  0  0  0  0  0
  151.8924  140.3896  158.9071 N   0  0  0  0  0  0  0  0  0  0  0  0
  153.1686  140.1705  159.2582 C   0  0  0  0  0  0  0  0  0  0  0  0
  153.8730  139.3072  158.7319 O   0  0  0  0  0  0  0  0  0  0  0  0
  153.7124  141.0730  160.3729 C   0  0  0  0  0  0  0  0  0  0  0  0
  153.0867  142.3877  160.3993 N   0  0  0  0  0  0  0  0  0  0  0  0
  152.5650  142.8914  159.2594 N   0  0  0  0  0  0  0  0  0  0  0  0
  152.0833  144.0753  159.6006 C   0  0  0  0  0  0  0  0  0  0  0  0
  151.4213  144.9298  158.5603 C   0  0  0  0  0  0  0  0  0  0  0  0
  152.2828  144.3611  160.9802 C   0  0  0  0  0  0  0  0  0  0  0  0
  152.9306  143.2591  161.4627 C   0  0  0  0  0  0  0  0  0  0  0  0
  153.4191  142.9541  162.8405 C   0  0  0  0  0  0  0  0  0  0  0  0
  149.6456  139.8096  158.1098 C   0  0  0  0  0  0  0  0  0  0  0  0
  148.8319  139.2429  156.9320 C   0  0  0  0  0  0  0  0  0  0  0  0
  146.4819  140.1656  155.5529 H   0  0  0  0  0  0  0  0  0  0  0  0
  146.5660  141.7945  154.8882 H   0  0  0  0  0  0  0  0  0  0  0  0
  147.0895  141.5063  156.5457 H   0  0  0  0  0  0  0  0  0  0  0  0
  150.7775  138.5037  155.3353 H   0  0  0  0  0  0  0  0  0  0  0  0
  150.9730  139.9467  154.3948 H   0  0  0  0  0  0  0  0  0  0  0  0
  152.6073  139.9212  156.2574 H   0  0  0  0  0  0  0  0  0  0  0  0
  151.5041  141.2644  156.4357 H   0  0  0  0  0  0  0  0  0  0  0  0
  151.4093  138.6034  157.9347 H   0  0  0  0  0  0  0  0  0  0  0  0
  151.3871  141.1169  159.3922 H   0  0  0  0  0  0  0  0  0  0  0  0
  153.5612  140.5860  161.3378 H   0  0  0  0  0  0  0  0  0  0  0  0
  154.7882  141.1981  160.2474 H   0  0  0  0  0  0  0  0  0  0  0  0
  151.0794  145.8736  158.9854 H   0  0  0  0  0  0  0  0  0  0  0  0
  150.5547  144.4259  158.1315 H   0  0  0  0  0  0  0  0  0  0  0  0
  152.1094  145.1625  157.7473 H   0  0  0  0  0  0  0  0  0  0  0  0
  151.9955  145.2436  161.5322 H   0  0  0  0  0  0  0  0  0  0  0  0
  153.2188  143.7847  163.5175 H   0  0  0  0  0  0  0  0  0  0  0  0
  154.4943  142.7738  162.8410 H   0  0  0  0  0  0  0  0  0  0  0  0
  152.9255  142.0685  163.2412 H   0  0  0  0  0  0  0  0  0  0  0  0
  149.3635  139.3045  159.0343 H   0  0  0  0  0  0  0  0  0  0  0  0
  149.3899  140.8622  158.2423 H   0  0  0  0  0  0  0  0  0  0  0  0
  147.7650  139.3621  157.1259 H   0  0  0  0  0  0  0  0  0  0  0  0
  148.9983  138.1683  156.8426 H   0  0  0  0  0  0  0  0  0  0  0  0
  1  2  1  0  0  0  0
  1 21  1  0  0  0  0
  1 22  1  0  0  0  0
  1 23  1  0  0  0  0
  2  3  2  0  0  0  0
  2  4  1  0  0  0  0
  4 20  1  0  0  0  0
  4  5  1  0  0  0  0
  5  6  1  0  0  0  0
  5 24  1  0  0  0  0
  5 25  1  0  0  0  0
  6  7  1  0  0  0  0
  6 26  1  0  0  0  0
  6 27  1  0  0  0  0
  7  8  1  0  0  0  0
  7 19  1  0  0  0  0
  7 28  1  0  0  0  0
  8  9  1  0  0  0  0
  8 29  1  0  0  0  0
  9 10  2  0  0  0  0
  9 11  1  0  0  0  0
 11 12  1  0  0  0  0
 11 30  1  0  0  0  0
 11 31  1  0  0  0  0
 12 17  1  0  0  0  0
 12 13  1  0  0  0  0
 13 14  2  0  0  0  0
 14 15  1  0  0  0  0
 14 16  1  0  0  0  0
 15 32  1  0  0  0  0
 15 33  1  0  0  0  0
 15 34  1  0  0  0  0
 16 17  2  0  0  0  0
 16 35  1  0  0  0  0
 17 18  1  0  0  0  0
 18 36  1  0  0  0  0
 18 37  1  0  0  0  0
 18 38  1  0  0  0  0
 19 20  1  0  0  0  0
 19 39  1  0  0  0  0
 19 40  1  0  0  0  0
 20 41  1  0  0  0  0
 20 42  1  0  0  0  0
M  END
> <s_m_source_file>
AV-unprocessed.smi

> <i_m_source_file_index>
1183

> <i_lp_mmshare_version>
43012

> <i_f3d_flags>
0

> <s_epik_input>
W0NIM11DKD1PKU4xW0NIMl1bQ0gyXVtDSF0oW0NIMl1bQ0gyXTEpW05IXUMoPU8pW0NIMl1uMm5jKFtDSDNdKVtjSF1jMltDSDNd

> <s_epik_cmdline>
J2VwaWtfcHl0aG9uJywgJy1waCcsICc3LjAnLCAnLXRuJywgJzgnLCAnLW1hJywgJzIwMCcsICctbWV0YWxfYmluZGluZycsICctaW1hZScsICc8aW5maWxlLm1hZT4nLCAnLW9tYWUnLCAnPG91dGZpbGUubWFlPic=

> <r_lp_tautomer_probability>
1

> <r_epik_Ionization_Penalty>
0.000413777

> <r_epik_Ionization_Penalty_Charging>
0

> <r_epik_Ionization_Penalty_Neutral>
0.000413777

> <r_epik_State_Penalty>
-0

> <r_epik_Charging_Adjusted_Penalty>
0

> <i_epik_Tot_Q>
0

> <i_epik_Tot_abs_Q>
0

> <r_epik_Metal_State_Penalty>
-0

> <b_epik_Metal_Only>
0

> <s_lp_Force_Field>
OPLS_2005

> <r_lp_Energy>
21.0351

> <b_lp_Chiralities_Consistent>
1

> <s_lp_Variant>
AV-unprocessed.smi:1183-1

> <Gold.Version>
5.8.1

> <Gold.Id.Protein>
6NUR|6NUR_protein|mol2

> <Gold.PLP.Fitness>
49.7725

> <Gold.PLP.PLP>
-46.8550

> <Gold.PLP.part.hbond>
-2.9825

> <Gold.PLP.part.metal>
0.0000

> <Gold.PLP.part.buried>
-5.4088

> <Gold.PLP.part.nonpolar>
-37.0742

> <Gold.PLP.part.repulsive>
0.3505

> <Gold.PLP.ligand.clash>
0.0000

> <Gold.PLP.ligand.torsion>
1.0106

> <Gold.PLP.Chemscore.Hbond>
1.6400

> <Gold.PLP.Chemscore.CHOScore>
0.0000

> <Gold.PLP.Chemscore.Metal>
0.0000

> <Gold.Chemscore.Hbonds>
donor molecule, donor type, donor heavy atom, donor atom, acceptor molecule, acceptor atom, score
      P1  H  7997  8009       L1    10  1.00
      P1  H  8011  8017       L1     3  0.45

> <Gold.PLP.Chemscore.Internal.Correction>
0.0188

> <Gold.Rescore>
     Score         DG    S(hbond)    S(metal)    S(lipo)     H(rot)  DE(clash)    DE(int)     intcor
     16.23     -18.93       1.69        0.00      97.39       1.41       0.06       2.64       ----

> <Gold.Chemscore.Fitness>
16.2256

> <Gold.Chemscore.DG>
-18.9292

> <Gold.Chemscore.ZeroCoef>
-5.4800

> <Gold.Chemscore.Hbond>
1.6929

> <Gold.Chemscore.Metal>
0.0000

> <Gold.Chemscore.Lipo>
97.3934

> <Gold.Chemscore.Internal_Hbond>
0.0000

> <Gold.Chemscore.DEClash>
0.0628

> <Gold.Chemscore.DEInternal>
2.6407

> <Gold.Chemscore.Rot>
1.4064

> <Gold.Chemscore.Internal.Correction>
   9.000000E+99

> <Gold.Chemscore.Hbonds>
donor molecule, donor type, donor heavy atom, donor atom, acceptor molecule, acceptor atom, score
      P1  H  7997  8009       L1    10  0.78
      P1  H  8011  8017       L1     3  0.44

> <Gold.Chemscore.Hbond.Weighted>
-5.6544

> <Gold.Chemscore.Metal.Weighted>
-0.0000

> <Gold.Chemscore.Lipo.Weighted>
-11.3950

> <Gold.Chemscore.Internal_Hbond.Weighted>
0.0000

> <Gold.Chemscore.DEClash.Weighted>
0.0628

> <Gold.Chemscore.DEInternal.Weighted>
2.6407

> <Gold.Chemscore.Rot.Weighted>
3.6003

> <Gold.Chemscore.Internal.Correction.Weighted>
   9.000000E+99

> <Gold.Protein.RotatedTorsions>
[ 6907 6896 6895 6894 ] final   91.53 input  -60.11 | X-H torsion
[ 7974 7965 7964 7962 ] final  -43.71 input  175.53 | X-H torsion
[ 8008 7997 7996 7995 ] final  137.06 input   59.86 | X-H torsion
[ 10167 10162 10161 10158 ] final  -25.09 input  -65.29 | X-H torsion
[ 10718 10713 10712 10709 ] final   23.09 input   66.30 | X-H torsion
[ 10763 10752 10751 10750 ] final  123.84 input  -60.55 | X-H torsion
[ 11005 11000 10999 10996 ] final  101.58 input  -57.11 | X-H torsion

> <Gold.Protein.ActiveResidues>
 VAL166  LYS551  ARG553  GLY616  TRP617  ASP618  TYR619  PRO620  LYS621  CYS622 
 ASP623  PHE694  ASN695  SER759  ASP760  ASP761  ALA762  ILE779  LEU786  VAL792 
 PHE793  MET794  SER795  GLU796  ALA797  LYS798  CYS799  TRP800  GLU811  SER814 

> <Gold.Protein.RotatedAtoms>
  152.5450  134.1643  159.8570 H   0  0  0  0  0  0  0  0  0  0  0  0  # atno 6907 bound_to 6896
  151.1658  133.4809  159.2601 H   0  0  0  0  0  0  0  0  0  0  0  0  # atno 6908 bound_to 6896
  151.1326  135.0149  159.8644 H   0  0  0  0  0  0  0  0  0  0  0  0  # atno 6909 bound_to 6896
  145.9992  140.7093  142.9279 H   0  0  0  0  0  0  0  0  0  0  0  0  # atno 7974 bound_to 7965
  156.3003  140.2429  156.3848 H   0  0  0  0  0  0  0  0  0  0  0  0  # atno 8008 bound_to 7997
  154.8668  140.0417  157.1719 H   0  0  0  0  0  0  0  0  0  0  0  0  # atno 8009 bound_to 7997
  154.8837  140.2953  155.5414 H   0  0  0  0  0  0  0  0  0  0  0  0  # atno 8010 bound_to 7997
  140.7287  143.4295  151.0824 H   0  0  0  0  0  0  0  0  0  0  0  0  # atno 10167 bound_to 10162
  157.1613  130.6718  149.6045 H   0  0  0  0  0  0  0  0  0  0  0  0  # atno 10718 bound_to 10713
  153.6519  135.3361  155.3102 H   0  0  0  0  0  0  0  0  0  0  0  0  # atno 10763 bound_to 10752
  154.8535  135.4343  154.1895 H   0  0  0  0  0  0  0  0  0  0  0  0  # atno 10764 bound_to 10752
  153.2840  135.7011  153.7433 H   0  0  0  0  0  0  0  0  0  0  0  0  # atno 10765 bound_to 10752
  139.8774  134.9189  156.4929 H   0  0  0  0  0  0  0  0  0  0  0  0  # atno 11005 bound_to 11000
  144.6914  140.3204  143.7233 LP  0  0  0  0  0  0  0  0  0  0  0  0  # atno 17320 bound_to 7965
  145.7513  139.1794  143.2320 LP  0  0  0  0  0  0  0  0  0  0  0  0  # atno 17321 bound_to 7965
  139.7950  143.8164  152.3156 LP  0  0  0  0  0  0  0  0  0  0  0  0  # atno 17342 bound_to 10162
  139.8161  144.7315  150.9634 LP  0  0  0  0  0  0  0  0  0  0  0  0  # atno 17343 bound_to 10162
  155.9753  130.4711  150.6452 LP  0  0  0  0  0  0  0  0  0  0  0  0  # atno 17370 bound_to 10713
  157.4130  131.0826  151.1203 LP  0  0  0  0  0  0  0  0  0  0  0  0  # atno 17371 bound_to 10713
  140.8645  133.8034  155.9300 LP  0  0  0  0  0  0  0  0  0  0  0  0  # atno 17394 bound_to 11000
  140.9015  134.2372  157.5039 LP  0  0  0  0  0  0  0  0  0  0  0  0  # atno 17395 bound_to 11000

$$$$
