AV-unprocessed.smi:1571|AV-procd|sdf|6326|dock10
  -GOLD-   22720 6533D 1   1.00000     0.00000
 Structure written by MMmdl.
 37 38  0  0  0  0  0  0  0  0  1 V2000
  151.3637  138.2604  154.5288 C   0  0  0  0  0  0  0  0  0  0  0  0
  150.3624  139.3567  154.7551 C   0  0  0  0  0  0  0  0  0  0  0  0
  150.7933  140.5626  155.0839 N   0  0  0  0  0  0  0  0  0  0  0  0
  149.6490  141.3516  155.2316 O   0  0  0  0  0  0  0  0  0  0  0  0
  148.5604  140.5812  154.9820 C   0  0  0  0  0  0  0  0  0  0  0  0
  147.2334  141.2520  155.0976 C   0  0  0  0  0  0  0  0  0  0  0  0
  148.9404  139.3041  154.6702 C   0  0  0  0  0  0  0  0  0  0  0  0
  148.0690  138.1203  154.3249 C   0  0  0  0  0  0  0  0  0  0  0  0
  148.4970  136.8545  155.0781 C   0  0  0  0  0  0  0  0  0  0  0  0
  148.4871  136.8090  156.3093 O   0  0  0  0  0  0  0  0  0  0  0  0
  148.8709  135.8231  154.3050 N   0  0  0  0  0  0  0  0  0  0  0  0
  149.3071  134.5088  154.7703 C   0  0  0  0  0  0  0  0  0  0  0  0
  148.1612  133.8392  155.5532 C   0  0  0  0  0  0  0  0  0  0  0  0
  148.4980  132.4092  155.9991 C   0  0  0  0  0  0  0  0  0  0  0  0
  149.9788  132.3998  157.0914 S   0  0  0  0  0  0  0  0  0  0  0  0
  149.6758  133.2230  158.2723 O   0  0  0  0  0  0  0  0  0  0  0  0
  150.4463  131.0150  157.2539 O   0  0  0  0  0  0  0  0  0  0  0  0
  151.1844  133.3223  156.0517 C   0  0  0  0  0  0  0  0  0  0  0  0
  150.5957  134.6661  155.6008 C   0  0  0  0  0  0  0  0  0  0  0  0
  150.8771  137.3126  154.3001 H   0  0  0  0  0  0  0  0  0  0  0  0
  151.9815  138.1063  155.4137 H   0  0  0  0  0  0  0  0  0  0  0  0
  152.0267  138.5010  153.6974 H   0  0  0  0  0  0  0  0  0  0  0  0
  146.4201  140.5539  154.9006 H   0  0  0  0  0  0  0  0  0  0  0  0
  147.1531  142.0737  154.3858 H   0  0  0  0  0  0  0  0  0  0  0  0
  147.0927  141.6562  156.1000 H   0  0  0  0  0  0  0  0  0  0  0  0
  147.0245  138.3230  154.5632 H   0  0  0  0  0  0  0  0  0  0  0  0
  148.0958  137.9130  153.2547 H   0  0  0  0  0  0  0  0  0  0  0  0
  148.8458  135.9587  153.3046 H   0  0  0  0  0  0  0  0  0  0  0  0
  149.5392  133.8740  153.9133 H   0  0  0  0  0  0  0  0  0  0  0  0
  147.9050  134.4420  156.4254 H   0  0  0  0  0  0  0  0  0  0  0  0
  147.2661  133.8086  154.9308 H   0  0  0  0  0  0  0  0  0  0  0  0
  147.6674  131.9642  156.5468 H   0  0  0  0  0  0  0  0  0  0  0  0
  148.7050  131.7740  155.1379 H   0  0  0  0  0  0  0  0  0  0  0  0
  152.0943  133.4693  156.6336 H   0  0  0  0  0  0  0  0  0  0  0  0
  151.4382  132.7024  155.1916 H   0  0  0  0  0  0  0  0  0  0  0  0
  151.3452  135.1947  155.0105 H   0  0  0  0  0  0  0  0  0  0  0  0
  150.4009  135.2902  156.4740 H   0  0  0  0  0  0  0  0  0  0  0  0
  1  2  1  0  0  0  0
  1 20  1  0  0  0  0
  1 21  1  0  0  0  0
  1 22  1  0  0  0  0
  2  7  1  0  0  0  0
  2  3  2  0  0  0  0
  3  4  1  0  0  0  0
  4  5  1  0  0  0  0
  5  6  1  0  0  0  0
  5  7  2  0  0  0  0
  6 23  1  0  0  0  0
  6 24  1  0  0  0  0
  6 25  1  0  0  0  0
  7  8  1  0  0  0  0
  8  9  1  0  0  0  0
  8 26  1  0  0  0  0
  8 27  1  0  0  0  0
  9 10  2  0  0  0  0
  9 11  1  0  0  0  0
 11 12  1  0  0  0  0
 11 28  1  0  0  0  0
 12 19  1  0  0  0  0
 12 13  1  0  0  0  0
 12 29  1  0  0  0  0
 13 14  1  0  0  0  0
 13 30  1  0  0  0  0
 13 31  1  0  0  0  0
 14 15  1  0  0  0  0
 14 32  1  0  0  0  0
 14 33  1  0  0  0  0
 15 16  2  0  0  0  0
 15 17  2  0  0  0  0
 15 18  1  0  0  0  0
 18 19  1  0  0  0  0
 18 34  1  0  0  0  0
 18 35  1  0  0  0  0
 19 36  1  0  0  0  0
 19 37  1  0  0  0  0
M  END
> <s_m_source_file>
AV-unprocessed.smi

> <i_m_source_file_index>
1571

> <i_lp_mmshare_version>
43012

> <i_f3d_flags>
0

> <s_epik_input>
W0NIM11jMW5vYyhbQ0gzXSljMVtDSDJdQyg9TylbTkhdW0NIXShbQ0gyXVtDSDJdMilbQ0gyXVtDSDJdUzIoPU8pPU8=

> <s_epik_cmdline>
J2VwaWtfcHl0aG9uJywgJy1waCcsICc3LjAnLCAnLXRuJywgJzgnLCAnLW1hJywgJzIwMCcsICctbWV0YWxfYmluZGluZycsICctaW1hZScsICc8aW5maWxlLm1hZT4nLCAnLW9tYWUnLCAnPG91dGZpbGUubWFlPic=

> <r_lp_tautomer_probability>
1

> <r_epik_Ionization_Penalty>
4.0065e-08

> <r_epik_Ionization_Penalty_Charging>
0

> <r_epik_Ionization_Penalty_Neutral>
4.0065e-08

> <r_epik_State_Penalty>
-0

> <r_epik_Charging_Adjusted_Penalty>
0

> <i_epik_Tot_Q>
0

> <i_epik_Tot_abs_Q>
0

> <r_epik_Metal_State_Penalty>
-0

> <b_epik_Metal_Only>
0

> <s_lp_Force_Field>
OPLS_2005

> <r_lp_Energy>
-11.0004

> <b_lp_Chiralities_Consistent>
1

> <s_lp_Variant>
AV-unprocessed.smi:1571-1

> <Gold.Version>
5.8.1

> <Gold.Id.Protein>
6NUR|6NUR_protein|mol2

> <Gold.PLP.Fitness>
31.8690

> <Gold.PLP.PLP>
-23.2035

> <Gold.PLP.part.hbond>
-3.9231

> <Gold.PLP.part.metal>
0.0000

> <Gold.PLP.part.buried>
-1.8254

> <Gold.PLP.part.nonpolar>
-17.9660

> <Gold.PLP.part.repulsive>
0.2206

> <Gold.PLP.ligand.clash>
0.0000

> <Gold.PLP.ligand.torsion>
0.1721

> <Gold.PLP.Chemscore.Hbond>
3.0000

> <Gold.PLP.Chemscore.CHOScore>
0.0000

> <Gold.PLP.Chemscore.Metal>
0.0000

> <Gold.Chemscore.Hbonds>
donor molecule, donor type, donor heavy atom, donor atom, acceptor molecule, acceptor atom, score
      L1  H    11    28       P1  7948  0.81
      P1  H  6896  6909       L1    16  1.00
      P1  H  7989  7998       L1     3  0.78

> <Gold.PLP.Chemscore.Internal.Correction>
0.0096

> <Gold.Rescore>
     Score         DG    S(hbond)    S(metal)    S(lipo)     H(rot)  DE(clash)    DE(int)     intcor
     13.39     -14.71       1.96        0.00      54.80       1.46       0.02       1.31       ----

> <Gold.Chemscore.Fitness>
13.3864

> <Gold.Chemscore.DG>
-14.7123

> <Gold.Chemscore.ZeroCoef>
-5.4800

> <Gold.Chemscore.Hbond>
1.9637

> <Gold.Chemscore.Metal>
0.0000

> <Gold.Chemscore.Lipo>
54.7976

> <Gold.Chemscore.Internal_Hbond>
0.0000

> <Gold.Chemscore.DEClash>
0.0168

> <Gold.Chemscore.DEInternal>
1.3091

> <Gold.Chemscore.Rot>
1.4601

> <Gold.Chemscore.Internal.Correction>
   9.000000E+99

> <Gold.Chemscore.Hbonds>
donor molecule, donor type, donor heavy atom, donor atom, acceptor molecule, acceptor atom, score
      L1  H    11    28       P1  7948  0.80
      P1  H  6896  6909       L1    16  0.99
      P1  H  7989  7998       L1     3  0.09

> <Gold.Chemscore.Hbond.Weighted>
-6.5588

> <Gold.Chemscore.Metal.Weighted>
-0.0000

> <Gold.Chemscore.Lipo.Weighted>
-6.4113

> <Gold.Chemscore.Internal_Hbond.Weighted>
0.0000

> <Gold.Chemscore.DEClash.Weighted>
0.0168

> <Gold.Chemscore.DEInternal.Weighted>
1.3091

> <Gold.Chemscore.Rot.Weighted>
3.7379

> <Gold.Chemscore.Internal.Correction.Weighted>
   9.000000E+99

> <Gold.Protein.RotatedTorsions>
[ 6907 6896 6895 6894 ] final    9.39 input  -60.11 | X-H torsion
[ 7974 7965 7964 7962 ] final  -38.40 input  175.53 | X-H torsion
[ 8008 7997 7996 7995 ] final   41.53 input   59.86 | X-H torsion
[ 10167 10162 10161 10158 ] final  113.49 input  -65.29 | X-H torsion
[ 10718 10713 10712 10709 ] final   54.85 input   66.30 | X-H torsion
[ 10763 10752 10751 10750 ] final   28.31 input  -60.55 | X-H torsion
[ 11005 11000 10999 10996 ] final   12.89 input  -57.11 | X-H torsion

> <Gold.Protein.ActiveResidues>
 VAL166  LYS551  ARG553  GLY616  TRP617  ASP618  TYR619  PRO620  LYS621  CYS622 
 ASP623  PHE694  ASN695  SER759  ASP760  ASP761  ALA762  ILE779  LEU786  VAL792 
 PHE793  MET794  SER795  GLU796  ALA797  LYS798  CYS799  TRP800  GLU811  SER814 

> <Gold.Protein.RotatedAtoms>
  151.7215  135.0893  160.0284 H   0  0  0  0  0  0  0  0  0  0  0  0  # atno 6907 bound_to 6896
  152.3599  133.6279  159.6016 H   0  0  0  0  0  0  0  0  0  0  0  0  # atno 6908 bound_to 6896
  150.7597  133.9356  159.3482 H   0  0  0  0  0  0  0  0  0  0  0  0  # atno 6909 bound_to 6896
  146.0489  140.6508  142.9051 H   0  0  0  0  0  0  0  0  0  0  0  0  # atno 7974 bound_to 7965
  155.2712  140.3366  155.4265 H   0  0  0  0  0  0  0  0  0  0  0  0  # atno 8008 bound_to 7997
  156.2132  140.1778  156.7691 H   0  0  0  0  0  0  0  0  0  0  0  0  # atno 8009 bound_to 7997
  154.5715  140.0669  156.8956 H   0  0  0  0  0  0  0  0  0  0  0  0  # atno 8010 bound_to 7997
  139.6457  144.7126  151.2147 H   0  0  0  0  0  0  0  0  0  0  0  0  # atno 10167 bound_to 10162
  157.5294  130.8619  149.8666 H   0  0  0  0  0  0  0  0  0  0  0  0  # atno 10718 bound_to 10713
  153.0500  135.6516  154.0718 H   0  0  0  0  0  0  0  0  0  0  0  0  # atno 10763 bound_to 10752
  154.0408  135.2903  155.3357 H   0  0  0  0  0  0  0  0  0  0  0  0  # atno 10764 bound_to 10752
  154.6782  135.5330  153.8294 H   0  0  0  0  0  0  0  0  0  0  0  0  # atno 10765 bound_to 10752
  140.4868  134.0880  155.7762 H   0  0  0  0  0  0  0  0  0  0  0  0  # atno 11005 bound_to 11000
  144.7112  140.4046  143.7079 LP  0  0  0  0  0  0  0  0  0  0  0  0  # atno 17320 bound_to 7965
  145.6758  139.1608  143.2729 LP  0  0  0  0  0  0  0  0  0  0  0  0  # atno 17321 bound_to 7965
  140.7513  143.6235  150.8491 LP  0  0  0  0  0  0  0  0  0  0  0  0  # atno 17342 bound_to 10162
  139.9877  143.5881  152.2921 LP  0  0  0  0  0  0  0  0  0  0  0  0  # atno 17343 bound_to 10162
  156.0411  130.3739  150.1434 LP  0  0  0  0  0  0  0  0  0  0  0  0  # atno 17370 bound_to 10713
  156.9619  130.9807  151.3477 LP  0  0  0  0  0  0  0  0  0  0  0  0  # atno 17371 bound_to 10713
  141.1504  133.8980  157.2113 LP  0  0  0  0  0  0  0  0  0  0  0  0  # atno 17394 bound_to 11000
  139.9793  135.0103  156.9709 LP  0  0  0  0  0  0  0  0  0  0  0  0  # atno 17395 bound_to 11000

$$$$
