AV-unprocessed.smi:3|AV-procd|sdf|27|dock8
  -GOLD-   2262015143D 1   1.00000     0.00000
 Structure written by MMmdl.
 33 35  0  0  0  0  0  0  0  0  1 V2000
  150.7048  142.0766  157.0333 C   0  0  0  0  0  0  0  0  0  0  0  0
  151.6442  140.9947  157.2917 N   0  0  0  0  0  0  0  0  0  0  0  0
  152.2223  140.9003  158.6342 C   0  0  0  0  0  0  0  0  0  0  0  0
  152.5642  142.2708  159.2183 C   0  0  1  0  0  0  0  0  0  0  0  0
  151.4479  143.1991  159.7205 C   0  0  0  0  0  0  0  0  0  0  0  0
  152.3885  143.6683  160.8348 C   0  0  1  0  0  0  0  0  0  0  0  0
  151.8213  143.8950  162.1058 O   0  0  0  0  0  0  0  0  0  0  0  0
  153.1528  142.3553  160.6336 C   0  0  0  0  0  0  0  0  0  0  0  0
  151.7517  139.9189  156.3750 C   0  0  0  0  0  0  0  0  0  0  0  0
  152.8897  139.1765  156.4086 N   0  0  0  0  0  0  0  0  0  0  0  0
  153.0561  138.1473  155.5756 C   0  0  0  0  0  0  0  0  0  0  0  0
  152.2248  137.6938  154.6378 N   0  0  0  0  0  0  0  0  0  0  0  0
  151.0841  138.4359  154.5894 C   0  0  0  0  0  0  0  0  0  0  0  0
  150.0189  138.2461  153.7351 N   0  0  0  0  0  0  0  0  0  0  0  0
  149.0404  139.1923  153.9714 C   0  0  0  0  0  0  0  0  0  0  0  0
  149.4537  140.0159  154.9866 C   0  0  0  0  0  0  0  0  0  0  0  0
  150.7583  139.5591  155.4089 C   0  0  0  0  0  0  0  0  0  0  0  0
  153.2182  142.8322  158.5477 H   0  0  0  0  0  0  0  0  0  0  0  0
  152.9813  144.5326  160.5304 H   0  0  0  0  0  0  0  0  0  0  0  0
  149.9415  137.5285  153.0288 H   0  0  0  0  0  0  0  0  0  0  0  0
  151.0312  142.6688  156.1787 H   0  0  0  0  0  0  0  0  0  0  0  0
  150.6370  142.7482  157.8895 H   0  0  0  0  0  0  0  0  0  0  0  0
  149.7051  141.6857  156.8438 H   0  0  0  0  0  0  0  0  0  0  0  0
  151.5771  140.3389  159.3100 H   0  0  0  0  0  0  0  0  0  0  0  0
  153.1307  140.3016  158.5606 H   0  0  0  0  0  0  0  0  0  0  0  0
  151.1555  143.9738  159.0109 H   0  0  0  0  0  0  0  0  0  0  0  0
  150.5798  142.6591  160.1022 H   0  0  0  0  0  0  0  0  0  0  0  0
  151.0758  143.3193  162.1824 H   0  0  0  0  0  0  0  0  0  0  0  0
  152.8039  141.5551  161.2892 H   0  0  0  0  0  0  0  0  0  0  0  0
  154.2386  142.4512  160.6647 H   0  0  0  0  0  0  0  0  0  0  0  0
  153.9885  137.6115  155.6748 H   0  0  0  0  0  0  0  0  0  0  0  0
  148.1263  139.2037  153.3958 H   0  0  0  0  0  0  0  0  0  0  0  0
  148.8964  140.8483  155.3867 H   0  0  0  0  0  0  0  0  0  0  0  0
  1  2  1  0  0  0  0
  1 21  1  0  0  0  0
  1 22  1  0  0  0  0
  1 23  1  0  0  0  0
  2  3  1  0  0  0  0
  2  9  1  0  0  0  0
  3  4  1  0  0  0  0
  3 24  1  0  0  0  0
  3 25  1  0  0  0  0
  4 18  1  0  0  0  0
  4  8  1  0  0  0  0
  4  5  1  0  0  0  0
  5  6  1  0  0  0  0
  5 26  1  0  0  0  0
  5 27  1  0  0  0  0
  6 19  1  0  0  0  0
  6  7  1  0  0  0  0
  6  8  1  0  0  0  0
  7 28  1  0  0  0  0
  8 29  1  0  0  0  0
  8 30  1  0  0  0  0
  9 17  1  0  0  0  0
  9 10  2  0  0  0  0
 10 11  1  0  0  0  0
 11 12  2  0  0  0  0
 11 31  1  0  0  0  0
 12 13  1  0  0  0  0
 13 17  2  0  0  0  0
 13 14  1  0  0  0  0
 14 20  1  0  0  0  0
 14 15  1  0  0  0  0
 15 16  2  0  0  0  0
 15 32  1  0  0  0  0
 16 17  1  0  0  0  0
 16 33  1  0  0  0  0
M  END
> <s_m_source_file>
AV-unprocessed.smi

> <i_m_source_file_index>
3

> <i_lp_mmshare_version>
43012

> <i_f3d_flags>
0

> <s_epik_input>
W25IXTFbY0hdW2NIXWMoYzEyKWMobltjSF1uMilOKFtDSDNdKVtDSDJdW0NASF0zW0NIMl1bQ0BASF0oW09IXSlbQ0gyXTM=

> <s_epik_cmdline>
J2VwaWtfcHl0aG9uJywgJy1waCcsICc3LjAnLCAnLXRuJywgJzgnLCAnLW1hJywgJzIwMCcsICctbWV0YWxfYmluZGluZycsICctaW1hZScsICc8aW5maWxlLm1hZT4nLCAnLW9tYWUnLCAnPG91dGZpbGUubWFlPic=

> <r_lp_tautomer_probability>
0.999998

> <r_epik_Ionization_Penalty>
0.0134605

> <r_epik_Ionization_Penalty_Charging>
0

> <r_epik_Ionization_Penalty_Neutral>
0.0134605

> <r_epik_State_Penalty>
0.00982199

> <r_epik_Charging_Adjusted_Penalty>
0.00982199

> <i_epik_Tot_Q>
0

> <i_epik_Tot_abs_Q>
0

> <r_epik_Metal_State_Penalty>
0.00963912

> <b_epik_Metal_Only>
0

> <s_lp_Force_Field>
OPLS_2005

> <r_lp_Energy>
10.8509

> <b_lp_Chiralities_Consistent>
1

> <s_lp_Variant>
AV-unprocessed.smi:3-1

> <Gold.Version>
5.8.1

> <Gold.Id.Protein>
6NUR|6NUR_protein|mol2

> <Gold.PLP.Fitness>
46.8232

> <Gold.PLP.PLP>
-39.6382

> <Gold.PLP.part.hbond>
-5.9007

> <Gold.PLP.part.metal>
0.0000

> <Gold.PLP.part.buried>
-1.7532

> <Gold.PLP.part.nonpolar>
-32.6370

> <Gold.PLP.part.repulsive>
0.1704

> <Gold.PLP.ligand.clash>
0.0000

> <Gold.PLP.ligand.torsion>
0.7015

> <Gold.PLP.Chemscore.Hbond>
2.4621

> <Gold.PLP.Chemscore.CHOScore>
0.3333

> <Gold.PLP.Chemscore.Metal>
0.0000

> <Gold.Chemscore.Hbonds>
donor molecule, donor type, donor heavy atom, donor atom, acceptor molecule, acceptor atom, score
      L1  H    14    20       P1  7948  1.00
      P1  H  7997  8010       L1    10  1.00
      P1  H 10752 10763       L1    12  0.46
      L1  C    15    32       P1  7957  0.06

> <Gold.PLP.Chemscore.Internal.Correction>
0.2019

> <Gold.Rescore>
     Score         DG    S(hbond)    S(metal)    S(lipo)     H(rot)  DE(clash)    DE(int)     intcor
     14.87     -15.92       1.83        0.00      77.18       1.84       0.11       0.94       ----

> <Gold.Chemscore.Fitness>
14.8687

> <Gold.Chemscore.DG>
-15.9234

> <Gold.Chemscore.ZeroCoef>
-5.4800

> <Gold.Chemscore.Hbond>
1.8332

> <Gold.Chemscore.Metal>
0.0000

> <Gold.Chemscore.Lipo>
77.1790

> <Gold.Chemscore.Internal_Hbond>
0.0000

> <Gold.Chemscore.DEClash>
0.1136

> <Gold.Chemscore.DEInternal>
0.9410

> <Gold.Chemscore.Rot>
1.8396

> <Gold.Chemscore.Internal.Correction>
   9.000000E+99

> <Gold.Chemscore.Hbonds>
donor molecule, donor type, donor heavy atom, donor atom, acceptor molecule, acceptor atom, score
      L1  H    14    20       P1  7948  0.29
      P1  H  7997  8010       L1    10  0.59
      P1  H 10752 10763       L1    12  0.14

> <Gold.Chemscore.Hbond.Weighted>
-6.1229

> <Gold.Chemscore.Metal.Weighted>
-0.0000

> <Gold.Chemscore.Lipo.Weighted>
-9.0299

> <Gold.Chemscore.Internal_Hbond.Weighted>
0.0000

> <Gold.Chemscore.DEClash.Weighted>
0.1136

> <Gold.Chemscore.DEInternal.Weighted>
0.9410

> <Gold.Chemscore.Rot.Weighted>
4.7095

> <Gold.Chemscore.Internal.Correction.Weighted>
   9.000000E+99

> <Gold.Protein.RotatedTorsions>
[ 6907 6896 6895 6894 ] final -160.13 input  -60.11 | X-H torsion
[ 7974 7965 7964 7962 ] final   70.93 input  175.53 | X-H torsion
[ 8008 7997 7996 7995 ] final   73.14 input   59.86 | X-H torsion
[ 10167 10162 10161 10158 ] final  -81.01 input  -65.29 | X-H torsion
[ 10718 10713 10712 10709 ] final -107.34 input   66.30 | X-H torsion
[ 10763 10752 10751 10750 ] final   45.36 input  -60.55 | X-H torsion
[ 11005 11000 10999 10996 ] final  -51.29 input  -57.11 | X-H torsion

> <Gold.Protein.ActiveResidues>
 VAL166  LYS551  ARG553  GLY616  TRP617  ASP618  TYR619  PRO620  LYS621  CYS622 
 ASP623  PHE694  ASN695  SER759  ASP760  ASP761  ALA762  ILE779  LEU786  VAL792 
 PHE793  MET794  SER795  GLU796  ALA797  LYS798  CYS799  TRP800  GLU811  SER814 

> <Gold.Protein.RotatedAtoms>
  151.3443  133.3950  159.2673 H   0  0  0  0  0  0  0  0  0  0  0  0  # atno 6907 bound_to 6896
  150.9852  134.9200  159.7878 H   0  0  0  0  0  0  0  0  0  0  0  0  # atno 6908 bound_to 6896
  152.5230  134.3407  159.9268 H   0  0  0  0  0  0  0  0  0  0  0  0  # atno 6909 bound_to 6896
  145.7721  139.2848  143.1315 H   0  0  0  0  0  0  0  0  0  0  0  0  # atno 7974 bound_to 7965
  155.7793  140.3482  155.5288 H   0  0  0  0  0  0  0  0  0  0  0  0  # atno 8008 bound_to 7997
  155.8745  140.0992  157.1548 H   0  0  0  0  0  0  0  0  0  0  0  0  # atno 8009 bound_to 7997
  154.4020  140.1334  156.4106 H   0  0  0  0  0  0  0  0  0  0  0  0  # atno 8010 bound_to 7997
  140.4451  143.2501  151.8569 H   0  0  0  0  0  0  0  0  0  0  0  0  # atno 10167 bound_to 10162
  156.0432  130.5658  150.7808 H   0  0  0  0  0  0  0  0  0  0  0  0  # atno 10718 bound_to 10713
  152.9826  135.6042  154.3424 H   0  0  0  0  0  0  0  0  0  0  0  0  # atno 10763 bound_to 10752
  154.3120  135.2771  155.2563 H   0  0  0  0  0  0  0  0  0  0  0  0  # atno 10764 bound_to 10752
  154.4768  135.5927  153.6417 H   0  0  0  0  0  0  0  0  0  0  0  0  # atno 10765 bound_to 10752
  141.0863  133.6642  156.3856 H   0  0  0  0  0  0  0  0  0  0  0  0  # atno 11005 bound_to 11000
  146.0160  140.8392  142.9947 LP  0  0  0  0  0  0  0  0  0  0  0  0  # atno 17320 bound_to 7965
  144.6811  140.2559  143.7325 LP  0  0  0  0  0  0  0  0  0  0  0  0  # atno 17321 bound_to 7965
  139.4792  144.5184  151.8835 LP  0  0  0  0  0  0  0  0  0  0  0  0  # atno 17342 bound_to 10162
  140.4273  144.2163  150.5887 LP  0  0  0  0  0  0  0  0  0  0  0  0  # atno 17343 bound_to 10162
  157.5276  131.0935  150.9997 LP  0  0  0  0  0  0  0  0  0  0  0  0  # atno 17370 bound_to 10713
  157.0312  130.5712  149.5343 LP  0  0  0  0  0  0  0  0  0  0  0  0  # atno 17371 bound_to 10713
  140.5355  134.6171  157.5363 LP  0  0  0  0  0  0  0  0  0  0  0  0  # atno 17394 bound_to 11000
  139.9682  134.7337  156.0095 LP  0  0  0  0  0  0  0  0  0  0  0  0  # atno 17395 bound_to 11000

$$$$
