AV-unprocessed.smi:2379|AV-procd|sdf|9452|dock2
  -GOLD-   2272013 83D 1   1.00000     0.00000
 Structure written by MMmdl.
 53 55  0  0  0  0  0  0  0  0  2 V2000
  144.8078  133.0428  149.7529 C   0  0  0  0  0  0  0  0  0  0  0  0
  144.6099  134.0173  150.8950 C   0  0  0  0  0  0  0  0  0  0  0  0
  143.3985  134.0547  151.6118 C   0  0  0  0  0  0  0  0  0  0  0  0
  143.2768  134.9843  152.6632 C   0  0  0  0  0  0  0  0  0  0  0  0
  142.0047  135.0754  153.4796 C   0  0  0  0  0  0  0  0  0  0  0  0
  144.2626  135.8398  153.0081 N   0  0  0  0  0  0  0  0  0  0  0  0
  145.4327  135.8147  152.3231 C   0  0  0  0  0  0  0  0  0  0  0  0
  146.5298  136.6703  152.6089 N   0  0  0  0  0  0  0  0  0  0  0  0
  146.5419  137.7747  153.3762 C   0  0  0  0  0  0  0  0  0  0  0  0
  145.5666  138.2497  153.9589 O   0  0  0  0  0  0  0  0  0  0  0  0
  147.7672  138.3178  153.4298 N   0  0  0  0  0  0  0  0  0  0  0  0
  148.1105  139.5411  154.1500 C   0  0  2  0  0  0  0  0  0  0  0  0
  149.6335  139.6298  154.3369 C   0  0  0  0  0  0  0  0  0  0  0  0
  150.0236  140.8693  155.1604 C   0  0  0  0  0  0  0  0  0  0  0  0
  149.3334  140.8820  156.4767 N   0  3  1  0  0  0  0  0  0  0  0  0
  149.7905  141.9909  157.3551 C   0  0  0  0  0  0  0  0  0  0  0  0
  151.2771  141.8572  157.7402 C   0  0  1  0  0  0  0  0  0  0  0  0
  151.7955  143.0300  158.5493 C   0  0  0  0  0  0  0  0  0  0  0  0
  153.0697  142.4592  159.1636 C   0  0  0  0  0  0  0  0  0  0  0  0
  152.8219  141.0684  159.3407 O   0  0  0  0  0  0  0  0  0  0  0  0
  151.6168  140.6980  158.6797 C   0  0  0  0  0  0  0  0  0  0  0  0
  147.8563  140.8366  156.3137 C   0  0  0  0  0  0  0  0  0  0  0  0
  147.4231  139.5892  155.5270 C   0  0  0  0  0  0  0  0  0  0  0  0
  145.6397  134.9085  151.2588 C   0  0  0  0  0  0  0  0  0  0  0  0
  143.9696  132.3500  149.6730 H   0  0  0  0  0  0  0  0  0  0  0  0
  145.7169  132.4605  149.9045 H   0  0  0  0  0  0  0  0  0  0  0  0
  144.8974  133.5812  148.8092 H   0  0  0  0  0  0  0  0  0  0  0  0
  142.5849  133.3889  151.3631 H   0  0  0  0  0  0  0  0  0  0  0  0
  141.3272  134.2530  153.2485 H   0  0  0  0  0  0  0  0  0  0  0  0
  141.4885  136.0129  153.2717 H   0  0  0  0  0  0  0  0  0  0  0  0
  142.2324  135.0371  154.5452 H   0  0  0  0  0  0  0  0  0  0  0  0
  147.4034  136.4140  152.1736 H   0  0  0  0  0  0  0  0  0  0  0  0
  148.5112  137.8620  152.9219 H   0  0  0  0  0  0  0  0  0  0  0  0
  147.7868  140.4006  153.5595 H   0  0  0  0  0  0  0  0  0  0  0  0
  149.9995  138.7327  154.8390 H   0  0  0  0  0  0  0  0  0  0  0  0
  150.1283  139.6637  153.3653 H   0  0  0  0  0  0  0  0  0  0  0  0
  151.1040  140.8671  155.3107 H   0  0  0  0  0  0  0  0  0  0  0  0
  149.7797  141.7802  154.6109 H   0  0  0  0  0  0  0  0  0  0  0  0
  149.6790  142.9373  156.8240 H   0  0  0  0  0  0  0  0  0  0  0  0
  149.1550  142.0746  158.2383 H   0  0  0  0  0  0  0  0  0  0  0  0
  151.8838  141.7739  156.8368 H   0  0  0  0  0  0  0  0  0  0  0  0
  151.9798  143.9199  157.9466 H   0  0  0  0  0  0  0  0  0  0  0  0
  151.0878  143.2929  159.3374 H   0  0  0  0  0  0  0  0  0  0  0  0
  153.9098  142.5775  158.4784 H   0  0  0  0  0  0  0  0  0  0  0  0
  153.3303  142.9414  160.1060 H   0  0  0  0  0  0  0  0  0  0  0  0
  150.8395  140.5688  159.4340 H   0  0  0  0  0  0  0  0  0  0  0  0
  151.7384  139.7526  158.1507 H   0  0  0  0  0  0  0  0  0  0  0  0
  147.3659  140.8316  157.2854 H   0  0  0  0  0  0  0  0  0  0  0  0
  147.5182  141.7374  155.7986 H   0  0  0  0  0  0  0  0  0  0  0  0
  146.3387  139.5923  155.4101 H   0  0  0  0  0  0  0  0  0  0  0  0
  147.6697  138.6934  156.0991 H   0  0  0  0  0  0  0  0  0  0  0  0
  146.5771  134.8969  150.7214 H   0  0  0  0  0  0  0  0  0  0  0  0
  149.6055  140.0262  156.9391 H   0  0  0  0  0  0  0  0  0  0  0  0
  1  2  1  0  0  0  0
  1 25  1  0  0  0  0
  1 26  1  0  0  0  0
  1 27  1  0  0  0  0
  2 24  1  0  0  0  0
  2  3  2  0  0  0  0
  3  4  1  0  0  0  0
  3 28  1  0  0  0  0
  4  5  1  0  0  0  0
  4  6  2  0  0  0  0
  5 29  1  0  0  0  0
  5 30  1  0  0  0  0
  5 31  1  0  0  0  0
  6  7  1  0  0  0  0
  7  8  1  0  0  0  0
  7 24  2  0  0  0  0
  8  9  1  0  0  0  0
  8 32  1  0  0  0  0
  9 10  2  0  0  0  0
  9 11  1  0  0  0  0
 11 12  1  0  0  0  0
 11 33  1  0  0  0  0
 12 23  1  0  0  0  0
 12 13  1  0  0  0  0
 12 34  1  0  0  0  0
 13 14  1  0  0  0  0
 13 35  1  0  0  0  0
 13 36  1  0  0  0  0
 14 15  1  0  0  0  0
 14 37  1  0  0  0  0
 14 38  1  0  0  0  0
 15 16  1  0  0  0  0
 15 22  1  0  0  0  0
 15 53  1  0  0  0  0
 16 17  1  0  0  0  0
 16 39  1  0  0  0  0
 16 40  1  0  0  0  0
 17 21  1  0  0  0  0
 17 18  1  0  0  0  0
 17 41  1  0  0  0  0
 18 19  1  0  0  0  0
 18 42  1  0  0  0  0
 18 43  1  0  0  0  0
 19 20  1  0  0  0  0
 19 44  1  0  0  0  0
 19 45  1  0  0  0  0
 20 21  1  0  0  0  0
 21 46  1  0  0  0  0
 21 47  1  0  0  0  0
 22 23  1  0  0  0  0
 22 48  1  0  0  0  0
 22 49  1  0  0  0  0
 23 50  1  0  0  0  0
 23 51  1  0  0  0  0
 24 52  1  0  0  0  0
M  CHG  1  15   1
M  END
> <s_m_source_file>
AV-unprocessed.smi

> <i_m_source_file_index>
2379

> <i_lp_mmshare_version>
43012

> <i_f3d_flags>
0

> <s_epik_input>
W0NIM11jMVtjSF1jKFtDSDNdKW5jKFtjSF0xKVtOSF1DKD1PKVtOSF1bQ0hdMltDSDJdW0NIMl1OKFtDSDJdW0NIMl0yKVtDSDJdW0NAQEhdM1tDSDJdW0NIMl1PW0NIMl0z

> <s_epik_cmdline>
J2VwaWtfcHl0aG9uJywgJy1waCcsICc3LjAnLCAnLXRuJywgJzgnLCAnLW1hJywgJzIwMCcsICctbWV0YWxfYmluZGluZycsICctaW1hZScsICc8aW5maWxlLm1hZT4nLCAnLW9tYWUnLCAnPG91dGZpbGUubWFlPic=

> <r_epik_Ionization_Penalty>
0.00766556

> <r_epik_Ionization_Penalty_Charging>
0.00747775

> <r_epik_Ionization_Penalty_Neutral>
0.00018781

> <r_epik_State_Penalty>
0.00558817

> <r_epik_Charging_Adjusted_Penalty>
0.0130659

> <i_epik_Tot_Q>
1

> <i_epik_Tot_abs_Q>
1

> <r_epik_Metal_State_Penalty>
-0

> <b_epik_Metal_Only>
0

> <s_lp_Force_Field>
OPLS_2005

> <r_lp_Energy>
35.6798

> <b_lp_Chiralities_Consistent>
1

> <s_lp_Variant>
AV-unprocessed.smi:2379-2

> <Gold.Version>
5.8.1

> <Gold.Id.Protein>
6NUR|6NUR_protein|mol2

> <Gold.PLP.Fitness>
42.7122

> <Gold.PLP.PLP>
-37.6444

> <Gold.PLP.part.hbond>
-2.0000

> <Gold.PLP.part.metal>
0.0000

> <Gold.PLP.part.buried>
-4.9239

> <Gold.PLP.part.nonpolar>
-30.4816

> <Gold.PLP.part.repulsive>
0.2801

> <Gold.PLP.ligand.clash>
0.0000

> <Gold.PLP.ligand.torsion>
0.3361

> <Gold.PLP.Chemscore.Hbond>
1.8960

> <Gold.PLP.Chemscore.CHOScore>
0.0000

> <Gold.PLP.Chemscore.Metal>
0.0000

> <Gold.Chemscore.Hbonds>
donor molecule, donor type, donor heavy atom, donor atom, acceptor molecule, acceptor atom, score
      L1  H     8    32       P1  7948  1.00
      L1  H    11    33       P1  7948  0.88

> <Gold.PLP.Chemscore.Internal.Correction>
0.0520

> <Gold.Rescore>
     Score         DG    S(hbond)    S(metal)    S(lipo)     H(rot)  DE(clash)    DE(int)     intcor
     16.91     -20.04       1.93        0.00      99.43       1.37       0.16       2.97       ----

> <Gold.Chemscore.Fitness>
16.9077

> <Gold.Chemscore.DG>
-20.0350

> <Gold.Chemscore.ZeroCoef>
-5.4800

> <Gold.Chemscore.Hbond>
1.9268

> <Gold.Chemscore.Metal>
0.0000

> <Gold.Chemscore.Lipo>
99.4269

> <Gold.Chemscore.Internal_Hbond>
0.0000

> <Gold.Chemscore.DEClash>
0.1610

> <Gold.Chemscore.DEInternal>
2.9663

> <Gold.Chemscore.Rot>
1.3725

> <Gold.Chemscore.Internal.Correction>
   9.000000E+99

> <Gold.Chemscore.Hbonds>
donor molecule, donor type, donor heavy atom, donor atom, acceptor molecule, acceptor atom, score
      L1  H     8    32       P1  7948  0.97
      L1  H    11    33       P1  7948  0.85

> <Gold.Chemscore.Hbond.Weighted>
-6.4357

> <Gold.Chemscore.Metal.Weighted>
-0.0000

> <Gold.Chemscore.Lipo.Weighted>
-11.6329

> <Gold.Chemscore.Internal_Hbond.Weighted>
0.0000

> <Gold.Chemscore.DEClash.Weighted>
0.1610

> <Gold.Chemscore.DEInternal.Weighted>
2.9663

> <Gold.Chemscore.Rot.Weighted>
3.5136

> <Gold.Chemscore.Internal.Correction.Weighted>
   9.000000E+99

> <Gold.Protein.RotatedTorsions>
[ 6907 6896 6895 6894 ] final   85.42 input  -60.11 | X-H torsion
[ 7974 7965 7964 7962 ] final  -66.09 input  175.53 | X-H torsion
[ 8008 7997 7996 7995 ] final   41.42 input   59.86 | X-H torsion
[ 10167 10162 10161 10158 ] final  120.62 input  -65.29 | X-H torsion
[ 10718 10713 10712 10709 ] final  153.33 input   66.30 | X-H torsion
[ 10763 10752 10751 10750 ] final  -45.08 input  -60.55 | X-H torsion
[ 11005 11000 10999 10996 ] final   12.57 input  -57.11 | X-H torsion

> <Gold.Protein.ActiveResidues>
 VAL166  LYS551  ARG553  GLY616  TRP617  ASP618  TYR619  PRO620  LYS621  CYS622 
 ASP623  PHE694  ASN695  SER759  ASP760  ASP761  ALA762  ILE779  LEU786  VAL792 
 PHE793  MET794  SER795  GLU796  ALA797  LYS798  CYS799  TRP800  GLU811  SER814 

> <Gold.Protein.RotatedAtoms>
  152.5374  134.2589  159.8927 H   0  0  0  0  0  0  0  0  0  0  0  0  # atno 6907 bound_to 6896
  151.2549  133.4324  159.2621 H   0  0  0  0  0  0  0  0  0  0  0  0  # atno 6908 bound_to 6896
  151.0505  134.9684  159.8265 H   0  0  0  0  0  0  0  0  0  0  0  0  # atno 6909 bound_to 6896
  145.7461  140.8931  143.0504 H   0  0  0  0  0  0  0  0  0  0  0  0  # atno 7974 bound_to 7965
  155.2693  140.3365  155.4266 H   0  0  0  0  0  0  0  0  0  0  0  0  # atno 8008 bound_to 7997
  156.2140  140.1781  156.7673 H   0  0  0  0  0  0  0  0  0  0  0  0  # atno 8009 bound_to 7997
  154.5726  140.0667  156.8972 H   0  0  0  0  0  0  0  0  0  0  0  0  # atno 8010 bound_to 7997
  139.5970  144.7045  151.3152 H   0  0  0  0  0  0  0  0  0  0  0  0  # atno 10167 bound_to 10162
  157.2462  131.0769  151.1760 H   0  0  0  0  0  0  0  0  0  0  0  0  # atno 10718 bound_to 10713
  154.0226  135.6667  153.4774 H   0  0  0  0  0  0  0  0  0  0  0  0  # atno 10763 bound_to 10752
  153.0573  135.5048  154.8008 H   0  0  0  0  0  0  0  0  0  0  0  0  # atno 10764 bound_to 10752
  154.6928  135.3064  154.9420 H   0  0  0  0  0  0  0  0  0  0  0  0  # atno 10765 bound_to 10752
  140.4904  134.0846  155.7770 H   0  0  0  0  0  0  0  0  0  0  0  0  # atno 11005 bound_to 11000
  144.6860  139.9527  143.7478 LP  0  0  0  0  0  0  0  0  0  0  0  0  # atno 17320 bound_to 7965
  146.0402  139.3414  143.0702 LP  0  0  0  0  0  0  0  0  0  0  0  0  # atno 17321 bound_to 7965
  140.7220  143.7109  150.7770 LP  0  0  0  0  0  0  0  0  0  0  0  0  # atno 17342 bound_to 10162
  140.0678  143.5091  152.2595 LP  0  0  0  0  0  0  0  0  0  0  0  0  # atno 17343 bound_to 10162
  157.3326  130.6993  149.6333 LP  0  0  0  0  0  0  0  0  0  0  0  0  # atno 17370 bound_to 10713
  155.9668  130.4303  150.4870 LP  0  0  0  0  0  0  0  0  0  0  0  0  # atno 17371 bound_to 10713
  141.1487  133.9009  157.2153 LP  0  0  0  0  0  0  0  0  0  0  0  0  # atno 17394 bound_to 11000
  139.9772  135.0110  156.9661 LP  0  0  0  0  0  0  0  0  0  0  0  0  # atno 17395 bound_to 11000

$$$$
