AV-unprocessed.smi:1645|AV-procd|sdf|6623|dock5
  -GOLD-   22720 7323D 1   1.00000     0.00000
 Structure written by MMmdl.
 55 58  0  0  0  0  0  0  0  0  4 V2000
  149.3333  134.7152  156.0862 O   0  0  0  0  0  0  0  0  0  0  0  0
  148.9588  135.1720  155.0000 C   0  0  0  0  0  0  0  0  0  0  0  0
  149.1440  136.4723  154.7109 N   0  0  0  0  0  0  0  0  0  0  0  0
  149.6610  137.5047  155.5380 C   0  0  0  0  0  0  0  0  0  0  0  0
  149.7503  137.4138  156.9475 C   0  0  0  0  0  0  0  0  0  0  0  0
  150.2518  138.5057  157.6848 C   0  0  0  0  0  0  0  0  0  0  0  0
  150.6546  139.6889  157.0150 C   0  0  0  0  0  0  0  0  0  0  0  0
  151.1595  140.8343  157.6722 N   0  0  0  0  0  0  0  0  0  0  0  0
  151.0150  142.1086  156.9606 C   0  0  0  0  0  0  0  0  0  0  0  0
  151.1932  143.3074  157.9081 C   0  0  0  0  0  0  0  0  0  0  0  0
  152.5114  143.2062  158.6876 C   0  0  0  0  0  0  0  0  0  0  0  0
  152.5721  141.8669  159.4340 C   0  0  0  0  0  0  0  0  0  0  0  0
  152.3777  140.6835  158.4707 C   0  0  0  0  0  0  0  0  0  0  0  0
  150.5323  139.7284  155.6656 N   0  3  0  0  0  0  0  0  0  0  0  0
  150.0563  138.7073  154.9210 C   0  0  0  0  0  0  0  0  0  0  0  0
  148.3631  134.4989  153.9792 N   0  5  0  0  0  0  0  0  0  0  0  0
  148.8414  133.2301  153.4257 C   0  0  1  0  0  0  0  0  0  0  0  0
  149.7892  132.4991  154.3969 C   0  0  0  0  0  0  0  0  0  0  0  0
  149.4849  130.9988  154.2215 C   0  0  0  0  0  0  0  0  0  0  0  0
  148.4035  130.9287  153.2197 N   0  3  1  0  0  0  0  0  0  0  0  0
  147.4876  129.7690  153.2918 C   0  0  0  0  0  0  0  0  0  0  0  0
  146.5083  129.8196  152.1015 C   0  0  0  0  0  0  0  0  0  0  0  0
  145.7814  131.1776  152.0124 C   0  0  0  0  0  0  0  0  0  0  0  0
  146.7832  132.3495  152.0265 C   0  0  0  0  0  0  0  0  0  0  0  0
  147.6989  132.2205  153.2614 C   0  0  2  0  0  0  0  0  0  0  0  0
  148.9233  136.7412  153.7632 H   0  0  0  0  0  0  0  0  0  0  0  0
  149.4294  136.5306  157.4784 H   0  0  0  0  0  0  0  0  0  0  0  0
  150.3199  138.4072  158.7573 H   0  0  0  0  0  0  0  0  0  0  0  0
  151.7617  142.1491  156.1667 H   0  0  0  0  0  0  0  0  0  0  0  0
  150.0413  142.1939  156.4792 H   0  0  0  0  0  0  0  0  0  0  0  0
  151.1647  144.2377  157.3401 H   0  0  0  0  0  0  0  0  0  0  0  0
  150.3575  143.3471  158.6082 H   0  0  0  0  0  0  0  0  0  0  0  0
  153.3555  143.2865  158.0016 H   0  0  0  0  0  0  0  0  0  0  0  0
  152.5981  144.0351  159.3909 H   0  0  0  0  0  0  0  0  0  0  0  0
  153.5254  141.7710  159.9542 H   0  0  0  0  0  0  0  0  0  0  0  0
  151.7969  141.8431  160.2013 H   0  0  0  0  0  0  0  0  0  0  0  0
  152.3327  139.7680  159.0613 H   0  0  0  0  0  0  0  0  0  0  0  0
  153.2347  140.5995  157.8010 H   0  0  0  0  0  0  0  0  0  0  0  0
  150.0113  138.8828  153.8559 H   0  0  0  0  0  0  0  0  0  0  0  0
  149.3416  133.3490  152.4630 H   0  0  0  0  0  0  0  0  0  0  0  0
  150.8326  132.7323  154.1825 H   0  0  0  0  0  0  0  0  0  0  0  0
  149.5981  132.7857  155.4325 H   0  0  0  0  0  0  0  0  0  0  0  0
  150.3545  130.4361  153.8799 H   0  0  0  0  0  0  0  0  0  0  0  0
  149.1561  130.5684  155.1693 H   0  0  0  0  0  0  0  0  0  0  0  0
  148.0645  128.8441  153.2658 H   0  0  0  0  0  0  0  0  0  0  0  0
  146.9430  129.7849  154.2371 H   0  0  0  0  0  0  0  0  0  0  0  0
  147.0589  129.6470  151.1757 H   0  0  0  0  0  0  0  0  0  0  0  0
  145.7815  129.0107  152.1814 H   0  0  0  0  0  0  0  0  0  0  0  0
  145.1692  131.2179  151.1110 H   0  0  0  0  0  0  0  0  0  0  0  0
  145.0965  131.2773  152.8553 H   0  0  0  0  0  0  0  0  0  0  0  0
  147.3665  132.3381  151.1037 H   0  0  0  0  0  0  0  0  0  0  0  0
  146.2398  133.2961  152.0430 H   0  0  0  0  0  0  0  0  0  0  0  0
  147.0816  132.2377  154.1632 H   0  0  0  0  0  0  0  0  0  0  0  0
  148.8600  130.8952  152.3194 H   0  0  0  0  0  0  0  0  0  0  0  0
  150.8122  140.5816  155.1822 H   0  0  0  0  0  0  0  0  0  0  0  0
  1  2  2  0  0  0  0
  2  3  1  0  0  0  0
  2 16  1  0  0  0  0
  3  4  1  0  0  0  0
  3 26  1  0  0  0  0
  4 15  1  0  0  0  0
  4  5  2  0  0  0  0
  5  6  1  0  0  0  0
  5 27  1  0  0  0  0
  6  7  2  0  0  0  0
  6 28  1  0  0  0  0
  7  8  1  0  0  0  0
  7 14  1  0  0  0  0
  8 13  1  0  0  0  0
  8  9  1  0  0  0  0
  9 10  1  0  0  0  0
  9 29  1  0  0  0  0
  9 30  1  0  0  0  0
 10 11  1  0  0  0  0
 10 31  1  0  0  0  0
 10 32  1  0  0  0  0
 11 12  1  0  0  0  0
 11 33  1  0  0  0  0
 11 34  1  0  0  0  0
 12 13  1  0  0  0  0
 12 35  1  0  0  0  0
 12 36  1  0  0  0  0
 13 37  1  0  0  0  0
 13 38  1  0  0  0  0
 14 15  2  0  0  0  0
 14 55  1  0  0  0  0
 15 39  1  0  0  0  0
 16 17  1  0  0  0  0
 17 25  1  0  0  0  0
 17 18  1  0  0  0  0
 17 40  1  0  0  0  0
 18 19  1  0  0  0  0
 18 41  1  0  0  0  0
 18 42  1  0  0  0  0
 19 20  1  0  0  0  0
 19 43  1  0  0  0  0
 19 44  1  0  0  0  0
 20 25  1  0  0  0  0
 20 21  1  0  0  0  0
 20 54  1  0  0  0  0
 21 22  1  0  0  0  0
 21 45  1  0  0  0  0
 21 46  1  0  0  0  0
 22 23  1  0  0  0  0
 22 47  1  0  0  0  0
 22 48  1  0  0  0  0
 23 24  1  0  0  0  0
 23 49  1  0  0  0  0
 23 50  1  0  0  0  0
 24 25  1  0  0  0  0
 24 51  1  0  0  0  0
 24 52  1  0  0  0  0
 25 53  1  0  0  0  0
M  CHG  1  14   1
M  CHG  1  16  -1
M  CHG  1  20   1
M  END
> <s_m_source_file>
AV-unprocessed.smi

> <i_m_source_file_index>
1645

> <i_lp_mmshare_version>
43012

> <i_f3d_flags>
0

> <s_epik_input>
W0NIMl0xW0NIMl1bQ0gyXVtDSDJdW0NASF0oTjEyKVtDQEBIXShbQ0gyXVtDSDJdMilbTkhdQyg9TylbTkhdYzNbY0hdW2NIXWMobltjSF0zKU40W0NIMl1bQ0gyXVtDSDJdW0NIMl1bQ0gyXTQ=

> <s_epik_cmdline>
J2VwaWtfcHl0aG9uJywgJy1waCcsICc3LjAnLCAnLXRuJywgJzgnLCAnLW1hJywgJzIwMCcsICctbWV0YWxfYmluZGluZycsICctaW1hZScsICc8aW5maWxlLm1hZT4nLCAnLW9tYWUnLCAnPG91dGZpbGUubWFlPic=

> <r_lp_tautomer_probability>
0.999994

> <r_epik_Ionization_Penalty>
8.55589

> <r_epik_Ionization_Penalty_Charging>
8.55589

> <r_epik_Ionization_Penalty_Neutral>
3.8092e-06

> <r_epik_State_Penalty>
8.15703

> <r_epik_Charging_Adjusted_Penalty>
16.7129

> <i_epik_Tot_Q>
1

> <i_epik_Tot_abs_Q>
3

> <r_epik_Metal_State_Penalty>
4.13781

> <b_epik_Metal_Only>
1

> <s_lp_Force_Field>
OPLS_2005

> <r_lp_Energy>
51.9528

> <b_lp_Chiralities_Consistent>
1

> <s_lp_Variant>
AV-unprocessed.smi:1645-24

> <Gold.Version>
5.8.1

> <Gold.Id.Protein>
6NUR|6NUR_protein|mol2

> <Gold.PLP.Fitness>
44.1333

> <Gold.PLP.PLP>
-40.7796

> <Gold.PLP.part.hbond>
-2.0000

> <Gold.PLP.part.metal>
0.0000

> <Gold.PLP.part.buried>
-5.2402

> <Gold.PLP.part.nonpolar>
-35.5394

> <Gold.PLP.part.repulsive>
2.4973

> <Gold.PLP.ligand.clash>
0.0000

> <Gold.PLP.ligand.torsion>
1.3683

> <Gold.PLP.Chemscore.Hbond>
1.9280

> <Gold.PLP.Chemscore.CHOScore>
0.0000

> <Gold.PLP.Chemscore.Metal>
0.0000

> <Gold.Chemscore.Hbonds>
donor molecule, donor type, donor heavy atom, donor atom, acceptor molecule, acceptor atom, score
      L1  H     3    26       P1  7948  0.91
      L1  H    20    54       P1 10747  1.00

> <Gold.PLP.Chemscore.Internal.Correction>
0.3062

> <Gold.Rescore>
     Score         DG    S(hbond)    S(metal)    S(lipo)     H(rot)  DE(clash)    DE(int)     intcor
     16.85     -22.36       1.82        0.00     114.28       1.00       1.36       4.14       ----

> <Gold.Chemscore.Fitness>
16.8535

> <Gold.Chemscore.DG>
-22.3598

> <Gold.Chemscore.ZeroCoef>
-5.4800

> <Gold.Chemscore.Hbond>
1.8171

> <Gold.Chemscore.Metal>
0.0000

> <Gold.Chemscore.Lipo>
114.2797

> <Gold.Chemscore.Internal_Hbond>
0.0000

> <Gold.Chemscore.DEClash>
1.3616

> <Gold.Chemscore.DEInternal>
4.1447

> <Gold.Chemscore.Rot>
1.0000

> <Gold.Chemscore.Internal.Correction>
   9.000000E+99

> <Gold.Chemscore.Hbonds>
donor molecule, donor type, donor heavy atom, donor atom, acceptor molecule, acceptor atom, score
      L1  H     3    26       P1  7948  0.88
      L1  H    20    54       P1 10747  0.56

> <Gold.Chemscore.Hbond.Weighted>
-6.0691

> <Gold.Chemscore.Metal.Weighted>
-0.0000

> <Gold.Chemscore.Lipo.Weighted>
-13.3707

> <Gold.Chemscore.Internal_Hbond.Weighted>
0.0000

> <Gold.Chemscore.DEClash.Weighted>
1.3616

> <Gold.Chemscore.DEInternal.Weighted>
4.1447

> <Gold.Chemscore.Rot.Weighted>
2.5600

> <Gold.Chemscore.Internal.Correction.Weighted>
   9.000000E+99

> <Gold.Protein.RotatedTorsions>
[ 6907 6896 6895 6894 ] final   97.43 input  -60.11 | X-H torsion
[ 7974 7965 7964 7962 ] final  -23.68 input  175.53 | X-H torsion
[ 8008 7997 7996 7995 ] final  101.63 input   59.86 | X-H torsion
[ 10167 10162 10161 10158 ] final   24.98 input  -65.29 | X-H torsion
[ 10718 10713 10712 10709 ] final  -67.12 input   66.30 | X-H torsion
[ 10763 10752 10751 10750 ] final  -17.03 input  -60.55 | X-H torsion
[ 11005 11000 10999 10996 ] final   41.08 input  -57.11 | X-H torsion

> <Gold.Protein.ActiveResidues>
 VAL166  LYS551  ARG553  GLY616  TRP617  ASP618  TYR619  PRO620  LYS621  CYS622 
 ASP623  PHE694  ASN695  SER759  ASP760  ASP761  ALA762  ILE779  LEU786  VAL792 
 PHE793  MET794  SER795  GLU796  ALA797  LYS798  CYS799  TRP800  GLU811  SER814 

> <Gold.Protein.RotatedAtoms>
  152.5423  134.0734  159.8203 H   0  0  0  0  0  0  0  0  0  0  0  0  # atno 6907 bound_to 6896
  151.0846  133.5356  159.2626 H   0  0  0  0  0  0  0  0  0  0  0  0  # atno 6908 bound_to 6896
  151.2170  135.0512  159.8988 H   0  0  0  0  0  0  0  0  0  0  0  0  # atno 6909 bound_to 6896
  146.1601  140.4649  142.8575 H   0  0  0  0  0  0  0  0  0  0  0  0  # atno 7974 bound_to 7965
  156.1317  140.3194  155.8359 H   0  0  0  0  0  0  0  0  0  0  0  0  # atno 8008 bound_to 7997
  155.4320  140.0519  157.3035 H   0  0  0  0  0  0  0  0  0  0  0  0  # atno 8009 bound_to 7997
  154.4904  140.2090  155.9573 H   0  0  0  0  0  0  0  0  0  0  0  0  # atno 8010 bound_to 7997
  140.5144  144.0107  150.6387 H   0  0  0  0  0  0  0  0  0  0  0  0  # atno 10167 bound_to 10162
  156.0575  130.4273  150.1808 H   0  0  0  0  0  0  0  0  0  0  0  0  # atno 10718 bound_to 10713
  153.5676  135.7008  153.5519 H   0  0  0  0  0  0  0  0  0  0  0  0  # atno 10763 bound_to 10752
  153.3373  135.4031  155.1543 H   0  0  0  0  0  0  0  0  0  0  0  0  # atno 10764 bound_to 10752
  154.8638  135.3733  154.5197 H   0  0  0  0  0  0  0  0  0  0  0  0  # atno 10765 bound_to 10752
  140.1869  134.4035  155.8168 H   0  0  0  0  0  0  0  0  0  0  0  0  # atno 11005 bound_to 11000
  144.8015  140.6222  143.6475 LP  0  0  0  0  0  0  0  0  0  0  0  0  # atno 17320 bound_to 7965
  145.4610  139.1513  143.3866 LP  0  0  0  0  0  0  0  0  0  0  0  0  # atno 17321 bound_to 7965
  140.3439  143.3003  152.0559 LP  0  0  0  0  0  0  0  0  0  0  0  0  # atno 17342 bound_to 10162
  139.4905  144.6423  151.6851 LP  0  0  0  0  0  0  0  0  0  0  0  0  # atno 17343 bound_to 10162
  156.9882  130.9885  151.3421 LP  0  0  0  0  0  0  0  0  0  0  0  0  # atno 17370 bound_to 10713
  157.5556  130.8211  149.8200 LP  0  0  0  0  0  0  0  0  0  0  0  0  # atno 17371 bound_to 10713
  141.2225  133.7027  156.8027 LP  0  0  0  0  0  0  0  0  0  0  0  0  # atno 17394 bound_to 11000
  140.2204  134.8761  157.3371 LP  0  0  0  0  0  0  0  0  0  0  0  0  # atno 17395 bound_to 11000

$$$$
