AV-unprocessed.smi:1235|AV-procd|sdf|5175|dock1
  -GOLD-   22720 4253D 1   1.00000     0.00000
 Structure written by MMmdl.
 50 51  0  0  0  0  0  0  0  0  2 V2000
  153.0417  137.6837  161.1982 C   0  0  0  0  0  0  0  0  0  0  0  0
  152.6472  136.6192  160.3502 O   0  0  0  0  0  0  0  0  0  0  0  0
  152.9757  136.8572  158.9920 C   0  0  0  0  0  0  0  0  0  0  0  0
  152.0906  137.9934  158.4580 C   0  0  0  0  0  0  0  0  0  0  0  0
  151.6091  137.7095  157.1023 N   0  0  0  0  0  0  0  0  0  0  0  0
  150.7725  136.6089  157.0197 N   0  0  0  0  0  0  0  0  0  0  0  0
  150.2800  136.2508  155.8780 C   0  0  0  0  0  0  0  0  0  0  0  0
  149.3740  135.0755  155.7484 C   0  0  0  0  0  0  0  0  0  0  0  0
  149.0984  134.3554  156.7096 O   0  0  0  0  0  0  0  0  0  0  0  0
  148.8838  134.8577  154.5146 N   0  0  0  0  0  0  0  0  0  0  0  0
  147.9772  133.7747  154.1524 C   0  0  0  0  0  0  0  0  0  0  0  0
  148.5834  132.8769  153.0539 C   0  0  0  0  0  0  0  0  0  0  0  0
  147.5501  132.2693  152.1670 N   0  3  2  0  0  0  0  0  0  0  0  0
  146.8829  133.3069  151.3268 C   0  0  0  0  0  0  0  0  0  0  0  0
  145.9105  132.6922  150.3114 C   0  0  0  0  0  0  0  0  0  0  0  0
  144.8503  131.8575  151.0280 C   0  0  0  0  0  0  0  0  0  0  0  0
  145.5406  130.7948  151.8860 C   0  0  0  0  0  0  0  0  0  0  0  0
  146.5486  131.4106  152.8829 C   0  0  1  0  0  0  0  0  0  0  0  0
  147.1933  130.2630  153.6896 C   0  0  0  0  0  0  0  0  0  0  0  0
  150.5943  136.9898  154.6670 C   0  0  0  0  0  0  0  0  0  0  0  0
  151.4168  138.0575  154.7625 C   0  0  0  0  0  0  0  0  0  0  0  0
  151.9895  138.4827  156.0408 C   0  0  0  0  0  0  0  0  0  0  0  0
  152.7471  139.4460  156.1519 O   0  0  0  0  0  0  0  0  0  0  0  0
  152.7773  137.4478  162.2291 H   0  0  0  0  0  0  0  0  0  0  0  0
  152.5382  138.6124  160.9257 H   0  0  0  0  0  0  0  0  0  0  0  0
  154.1199  137.8441  161.1557 H   0  0  0  0  0  0  0  0  0  0  0  0
  154.0304  137.1240  158.9055 H   0  0  0  0  0  0  0  0  0  0  0  0
  152.8157  135.9498  158.4070 H   0  0  0  0  0  0  0  0  0  0  0  0
  151.2424  138.1374  159.1298 H   0  0  0  0  0  0  0  0  0  0  0  0
  152.6394  138.9367  158.4789 H   0  0  0  0  0  0  0  0  0  0  0  0
  149.1546  135.4960  153.7796 H   0  0  0  0  0  0  0  0  0  0  0  0
  147.7288  133.2141  155.0530 H   0  0  0  0  0  0  0  0  0  0  0  0
  147.0469  134.2180  153.7965 H   0  0  0  0  0  0  0  0  0  0  0  0
  149.2635  133.5099  152.4903 H   0  0  0  0  0  0  0  0  0  0  0  0
  149.1982  132.0863  153.4868 H   0  0  0  0  0  0  0  0  0  0  0  0
  146.3503  134.0083  151.9714 H   0  0  0  0  0  0  0  0  0  0  0  0
  147.6170  133.8905  150.7749 H   0  0  0  0  0  0  0  0  0  0  0  0
  145.4318  133.4800  149.7289 H   0  0  0  0  0  0  0  0  0  0  0  0
  146.4587  132.0701  149.6024 H   0  0  0  0  0  0  0  0  0  0  0  0
  144.2292  132.4989  151.6548 H   0  0  0  0  0  0  0  0  0  0  0  0
  144.1857  131.3862  150.3031 H   0  0  0  0  0  0  0  0  0  0  0  0
  144.7824  130.2247  152.4243 H   0  0  0  0  0  0  0  0  0  0  0  0
  146.0530  130.0839  151.2357 H   0  0  0  0  0  0  0  0  0  0  0  0
  145.9971  132.0463  153.5777 H   0  0  0  0  0  0  0  0  0  0  0  0
  146.4361  129.5581  154.0353 H   0  0  0  0  0  0  0  0  0  0  0  0
  147.7017  130.6135  154.5868 H   0  0  0  0  0  0  0  0  0  0  0  0
  147.9080  129.7032  153.0855 H   0  0  0  0  0  0  0  0  0  0  0  0
  150.1864  136.6985  153.7099 H   0  0  0  0  0  0  0  0  0  0  0  0
  151.6603  138.6154  153.8702 H   0  0  0  0  0  0  0  0  0  0  0  0
  148.0418  131.6532  151.5357 H   0  0  0  0  0  0  0  0  0  0  0  0
  1  2  1  0  0  0  0
  1 24  1  0  0  0  0
  1 25  1  0  0  0  0
  1 26  1  0  0  0  0
  2  3  1  0  0  0  0
  3  4  1  0  0  0  0
  3 27  1  0  0  0  0
  3 28  1  0  0  0  0
  4  5  1  0  0  0  0
  4 29  1  0  0  0  0
  4 30  1  0  0  0  0
  5 22  1  0  0  0  0
  5  6  1  0  0  0  0
  6  7  2  0  0  0  0
  7  8  1  0  0  0  0
  7 20  1  0  0  0  0
  8  9  2  0  0  0  0
  8 10  1  0  0  0  0
 10 11  1  0  0  0  0
 10 31  1  0  0  0  0
 11 12  1  0  0  0  0
 11 32  1  0  0  0  0
 11 33  1  0  0  0  0
 12 13  1  0  0  0  0
 12 34  1  0  0  0  0
 12 35  1  0  0  0  0
 13 18  1  0  0  0  0
 13 14  1  0  0  0  0
 13 50  1  0  0  0  0
 14 15  1  0  0  0  0
 14 36  1  0  0  0  0
 14 37  1  0  0  0  0
 15 16  1  0  0  0  0
 15 38  1  0  0  0  0
 15 39  1  0  0  0  0
 16 17  1  0  0  0  0
 16 40  1  0  0  0  0
 16 41  1  0  0  0  0
 17 18  1  0  0  0  0
 17 42  1  0  0  0  0
 17 43  1  0  0  0  0
 18 19  1  0  0  0  0
 18 44  1  0  0  0  0
 19 45  1  0  0  0  0
 19 46  1  0  0  0  0
 19 47  1  0  0  0  0
 20 21  2  0  0  0  0
 20 48  1  0  0  0  0
 21 22  1  0  0  0  0
 21 49  1  0  0  0  0
 22 23  2  0  0  0  0
M  CHG  1  13   1
M  END
> <s_m_source_file>
AV-unprocessed.smi

> <i_m_source_file_index>
1235

> <i_lp_mmshare_version>
43012

> <i_f3d_flags>
0

> <s_epik_input>
W0NIM11PW0NIMl1bQ0gyXW4xbmMoW2NIXVtjSF1jMT1PKUMoPU8pW05IXVtDSDJdW0NIMl1OMltDSDJdW0NIMl1bQ0gyXVtDSDJdW0NASF0yW0NIM10=

> <s_epik_cmdline>
J2VwaWtfcHl0aG9uJywgJy1waCcsICc3LjAnLCAnLXRuJywgJzgnLCAnLW1hJywgJzIwMCcsICctbWV0YWxfYmluZGluZycsICctaW1hZScsICc8aW5maWxlLm1hZT4nLCAnLW9tYWUnLCAnPG91dGZpbGUubWFlPic=

> <r_lp_tautomer_probability>
1

> <r_epik_Ionization_Penalty>
0.00271975

> <r_epik_Ionization_Penalty_Charging>
0.00271407

> <r_epik_Ionization_Penalty_Neutral>
5.6803e-06

> <r_epik_State_Penalty>
0.00189271

> <r_epik_Charging_Adjusted_Penalty>
0.00460678

> <i_epik_Tot_Q>
1

> <i_epik_Tot_abs_Q>
1

> <r_epik_Metal_State_Penalty>
-0

> <b_epik_Metal_Only>
0

> <s_lp_Force_Field>
OPLS_2005

> <r_lp_Energy>
40.0899

> <b_lp_Chiralities_Consistent>
1

> <s_lp_Variant>
AV-unprocessed.smi:1235-1

> <Gold.Version>
5.8.1

> <Gold.Id.Protein>
6NUR|6NUR_protein|mol2

> <Gold.PLP.Fitness>
48.4918

> <Gold.PLP.PLP>
-37.8502

> <Gold.PLP.part.hbond>
-4.0000

> <Gold.PLP.part.metal>
0.0000

> <Gold.PLP.part.buried>
-6.4185

> <Gold.PLP.part.nonpolar>
-28.3112

> <Gold.PLP.part.repulsive>
0.0271

> <Gold.PLP.ligand.clash>
0.4479

> <Gold.PLP.ligand.torsion>
0.5507

> <Gold.PLP.Chemscore.Hbond>
4.0000

> <Gold.PLP.Chemscore.CHOScore>
0.0000

> <Gold.PLP.Chemscore.Metal>
0.0000

> <Gold.Chemscore.Hbonds>
donor molecule, donor type, donor heavy atom, donor atom, acceptor molecule, acceptor atom, score
      L1  H    10    31       P1  7948  0.99
      L1  H    13    50       P1 10747  1.00
      P1  H  6896  6907       L1     2  0.75
      P1  H  7997  8009       L1    23  1.00

> <Gold.PLP.Chemscore.Internal.Correction>
0.1909

> <Gold.Rescore>
     Score         DG    S(hbond)    S(metal)    S(lipo)     H(rot)  DE(clash)    DE(int)     intcor
     19.70     -20.27       2.75        0.00      91.82       2.00       0.10       0.47       ----

> <Gold.Chemscore.Fitness>
19.7030

> <Gold.Chemscore.DG>
-20.2716

> <Gold.Chemscore.ZeroCoef>
-5.4800

> <Gold.Chemscore.Hbond>
2.7465

> <Gold.Chemscore.Metal>
0.0000

> <Gold.Chemscore.Lipo>
91.8236

> <Gold.Chemscore.Internal_Hbond>
0.0000

> <Gold.Chemscore.DEClash>
0.0987

> <Gold.Chemscore.DEInternal>
0.4698

> <Gold.Chemscore.Rot>
2.0020

> <Gold.Chemscore.Internal.Correction>
   9.000000E+99

> <Gold.Chemscore.Hbonds>
donor molecule, donor type, donor heavy atom, donor atom, acceptor molecule, acceptor atom, score
      L1  H    10    31       P1  7948  0.58
      L1  H    13    50       P1 10747  1.00
      P1  H  6896  6907       L1     2  0.09
      P1  H  7997  8009       L1    23  1.00

> <Gold.Chemscore.Hbond.Weighted>
-9.1734

> <Gold.Chemscore.Metal.Weighted>
-0.0000

> <Gold.Chemscore.Lipo.Weighted>
-10.7434

> <Gold.Chemscore.Internal_Hbond.Weighted>
0.0000

> <Gold.Chemscore.DEClash.Weighted>
0.0987

> <Gold.Chemscore.DEInternal.Weighted>
0.4698

> <Gold.Chemscore.Rot.Weighted>
5.1252

> <Gold.Chemscore.Internal.Correction.Weighted>
   9.000000E+99

> <Gold.Protein.RotatedTorsions>
[ 6907 6896 6895 6894 ] final   20.32 input  -60.11 | X-H torsion
[ 7974 7965 7964 7962 ] final    8.24 input  175.53 | X-H torsion
[ 8008 7997 7996 7995 ] final -164.41 input   59.86 | X-H torsion
[ 10167 10162 10161 10158 ] final   49.45 input  -65.29 | X-H torsion
[ 10718 10713 10712 10709 ] final -170.42 input   66.30 | X-H torsion
[ 10763 10752 10751 10750 ] final  126.17 input  -60.55 | X-H torsion
[ 11005 11000 10999 10996 ] final  175.39 input  -57.11 | X-H torsion

> <Gold.Protein.ActiveResidues>
 VAL166  LYS551  ARG553  GLY616  TRP617  ASP618  TYR619  PRO620  LYS621  CYS622 
 ASP623  PHE694  ASN695  SER759  ASP760  ASP761  ALA762  ILE779  LEU786  VAL792 
 PHE793  MET794  SER795  GLU796  ALA797  LYS798  CYS799  TRP800  GLU811  SER814 

> <Gold.Protein.RotatedAtoms>
  151.8945  135.0403  160.0500 H   0  0  0  0  0  0  0  0  0  0  0  0  # atno 6907 bound_to 6896
  152.2409  133.5130  159.5278 H   0  0  0  0  0  0  0  0  0  0  0  0  # atno 6908 bound_to 6896
  150.7053  134.1007  159.4007 H   0  0  0  0  0  0  0  0  0  0  0  0  # atno 6909 bound_to 6896
  146.2418  139.9963  142.8420 H   0  0  0  0  0  0  0  0  0  0  0  0  # atno 7974 bound_to 7965
  155.8352  140.0940  157.1768 H   0  0  0  0  0  0  0  0  0  0  0  0  # atno 8008 bound_to 7997
  154.3980  140.1411  156.3723 H   0  0  0  0  0  0  0  0  0  0  0  0  # atno 8009 bound_to 7997
  155.8123  140.3449  155.5467 H   0  0  0  0  0  0  0  0  0  0  0  0  # atno 8010 bound_to 7997
  140.2827  144.3138  150.6260 H   0  0  0  0  0  0  0  0  0  0  0  0  # atno 10167 bound_to 10162
  156.7259  130.9288  151.3101 H   0  0  0  0  0  0  0  0  0  0  0  0  # atno 10718 bound_to 10713
  153.6890  135.3302  155.3197 H   0  0  0  0  0  0  0  0  0  0  0  0  # atno 10763 bound_to 10752
  154.8445  135.4427  154.1528 H   0  0  0  0  0  0  0  0  0  0  0  0  # atno 10764 bound_to 10752
  153.2564  135.6987  153.7702 H   0  0  0  0  0  0  0  0  0  0  0  0  # atno 10765 bound_to 10752
  140.3616  134.7107  157.4335 H   0  0  0  0  0  0  0  0  0  0  0  0  # atno 11005 bound_to 11000
  145.1456  140.9595  143.4463 LP  0  0  0  0  0  0  0  0  0  0  0  0  # atno 17320 bound_to 7965
  145.0254  139.3387  143.6051 LP  0  0  0  0  0  0  0  0  0  0  0  0  # atno 17321 bound_to 7965
  140.5798  143.2173  151.7449 LP  0  0  0  0  0  0  0  0  0  0  0  0  # atno 17342 bound_to 10162
  139.4958  144.4096  152.0094 LP  0  0  0  0  0  0  0  0  0  0  0  0  # atno 17343 bound_to 10162
  157.6879  130.9204  150.0435 LP  0  0  0  0  0  0  0  0  0  0  0  0  # atno 17370 bound_to 10713
  156.1562  130.3643  149.9365 LP  0  0  0  0  0  0  0  0  0  0  0  0  # atno 17371 bound_to 10713
  140.0622  134.5980  155.8736 LP  0  0  0  0  0  0  0  0  0  0  0  0  # atno 17394 bound_to 11000
  141.1982  133.6600  156.5781 LP  0  0  0  0  0  0  0  0  0  0  0  0  # atno 17395 bound_to 11000

$$$$
