AV-unprocessed.smi:3017|AV-procd|sdf|11476|dock4
  -GOLD-   2272016413D 1   1.00000     0.00000
 Structure written by MMmdl.
 37 38  0  0  0  0  0  0  0  0  1 V2000
  151.3648  143.9676  159.5442 C   0  0  0  0  0  0  0  0  0  0  0  0
  152.5309  143.2595  160.2484 C   0  0  1  0  0  0  0  0  0  0  0  0
  152.1510  142.8341  161.6796 C   0  0  0  0  0  0  0  0  0  0  0  0
  153.3193  142.1266  162.3842 C   0  0  0  0  0  0  0  0  0  0  0  0
  153.8135  140.9208  161.5701 C   0  0  0  0  0  0  0  0  0  0  0  0
  154.2011  141.3342  160.1358 C   0  0  1  0  0  0  0  0  0  0  0  0
  154.5288  140.1882  159.3609 O   0  0  0  0  0  0  0  0  0  0  0  0
  153.6268  139.0988  159.5169 C   0  0  0  0  0  0  0  0  0  0  0  0
  153.2002  138.5702  158.1451 C   0  0  0  0  0  0  0  0  0  0  0  0
  153.7091  137.5315  157.7245 O   0  0  0  0  0  0  0  0  0  0  0  0
  152.2896  139.2987  157.4711 N   0  0  0  0  0  0  0  0  0  0  0  0
  151.7144  139.0272  156.2018 C   0  0  0  0  0  0  0  0  0  0  0  0
  150.7753  139.9774  155.7358 C   0  0  0  0  0  0  0  0  0  0  0  0
  150.1397  139.8540  154.5492 N   0  0  0  0  0  0  0  0  0  0  0  0
  150.4439  138.7649  153.8116 C   0  0  0  0  0  0  0  0  0  0  0  0
  151.3778  137.8088  154.2586 C   0  0  0  0  0  0  0  0  0  0  0  0
  152.0094  137.9386  155.4456 N   0  0  0  0  0  0  0  0  0  0  0  0
  153.0251  142.0432  159.4405 C   0  0  0  0  0  0  0  0  0  0  0  0
  150.5056  143.3052  159.4340 H   0  0  0  0  0  0  0  0  0  0  0  0
  151.6548  144.3055  158.5490 H   0  0  0  0  0  0  0  0  0  0  0  0
  151.0401  144.8432  160.1071 H   0  0  0  0  0  0  0  0  0  0  0  0
  153.3528  143.9737  160.3172 H   0  0  0  0  0  0  0  0  0  0  0  0
  151.8484  143.7056  162.2614 H   0  0  0  0  0  0  0  0  0  0  0  0
  151.2874  142.1679  161.6505 H   0  0  0  0  0  0  0  0  0  0  0  0
  154.1395  142.8310  162.5290 H   0  0  0  0  0  0  0  0  0  0  0  0
  153.0114  141.8022  163.3786 H   0  0  0  0  0  0  0  0  0  0  0  0
  154.6597  140.4640  162.0826 H   0  0  0  0  0  0  0  0  0  0  0  0
  153.0299  140.1630  161.5322 H   0  0  0  0  0  0  0  0  0  0  0  0
  155.0479  142.0229  160.1636 H   0  0  0  0  0  0  0  0  0  0  0  0
  154.1030  138.2915  160.0747 H   0  0  0  0  0  0  0  0  0  0  0  0
  152.7367  139.4042  160.0677 H   0  0  0  0  0  0  0  0  0  0  0  0
  151.9583  140.1332  157.9331 H   0  0  0  0  0  0  0  0  0  0  0  0
  150.5262  140.8496  156.3228 H   0  0  0  0  0  0  0  0  0  0  0  0
  149.9406  138.6546  152.8626 H   0  0  0  0  0  0  0  0  0  0  0  0
  151.6173  136.9390  153.6650 H   0  0  0  0  0  0  0  0  0  0  0  0
  152.2041  141.3381  159.3005 H   0  0  0  0  0  0  0  0  0  0  0  0
  153.3318  142.3608  158.4433 H   0  0  0  0  0  0  0  0  0  0  0  0
  1  2  1  0  0  0  0
  1 19  1  0  0  0  0
  1 20  1  0  0  0  0
  1 21  1  0  0  0  0
  2 18  1  0  0  0  0
  2  3  1  0  0  0  0
  2 22  1  0  0  0  0
  3  4  1  0  0  0  0
  3 23  1  0  0  0  0
  3 24  1  0  0  0  0
  4  5  1  0  0  0  0
  4 25  1  0  0  0  0
  4 26  1  0  0  0  0
  5  6  1  0  0  0  0
  5 27  1  0  0  0  0
  5 28  1  0  0  0  0
  6  7  1  0  0  0  0
  6 18  1  0  0  0  0
  6 29  1  0  0  0  0
  7  8  1  0  0  0  0
  8  9  1  0  0  0  0
  8 30  1  0  0  0  0
  8 31  1  0  0  0  0
  9 10  2  0  0  0  0
  9 11  1  0  0  0  0
 11 12  1  0  0  0  0
 11 32  1  0  0  0  0
 12 17  1  0  0  0  0
 12 13  2  0  0  0  0
 13 14  1  0  0  0  0
 13 33  1  0  0  0  0
 14 15  2  0  0  0  0
 15 16  1  0  0  0  0
 15 34  1  0  0  0  0
 16 17  2  0  0  0  0
 16 35  1  0  0  0  0
 18 36  1  0  0  0  0
 18 37  1  0  0  0  0
M  END
> <s_m_source_file>
AV-unprocessed.smi

> <i_m_source_file_index>
3017

> <i_lp_mmshare_version>
43012

> <i_f3d_flags>
0

> <s_epik_input>
W0NIM11bQ0BASF0xW0NIMl1bQ0gyXVtDSDJdW0NASF0oW0NIMl0xKU9bQ0gyXUMoPU8pW05IXWMyW2NIXW5bY0hdW2NIXW4y

> <s_epik_cmdline>
J2VwaWtfcHl0aG9uJywgJy1waCcsICc3LjAnLCAnLXRuJywgJzgnLCAnLW1hJywgJzIwMCcsICctbWV0YWxfYmluZGluZycsICctaW1hZScsICc8aW5maWxlLm1hZT4nLCAnLW9tYWUnLCAnPG91dGZpbGUubWFlPic=

> <r_lp_tautomer_probability>
1

> <r_epik_Ionization_Penalty>
2.89243e-06

> <r_epik_Ionization_Penalty_Charging>
0

> <r_epik_Ionization_Penalty_Neutral>
2.89243e-06

> <r_epik_State_Penalty>
-0

> <r_epik_Charging_Adjusted_Penalty>
0

> <i_epik_Tot_Q>
0

> <i_epik_Tot_abs_Q>
0

> <r_epik_Metal_State_Penalty>
-0

> <b_epik_Metal_Only>
0

> <s_lp_Force_Field>
OPLS_2005

> <r_lp_Energy>
20.2083

> <b_lp_Chiralities_Consistent>
1

> <s_lp_Variant>
AV-unprocessed.smi:3017-2

> <Gold.Version>
5.8.1

> <Gold.Id.Protein>
6NUR|6NUR_protein|mol2

> <Gold.PLP.Fitness>
50.9125

> <Gold.PLP.PLP>
-39.8629

> <Gold.PLP.part.hbond>
-1.8705

> <Gold.PLP.part.metal>
0.0000

> <Gold.PLP.part.buried>
-4.6339

> <Gold.PLP.part.nonpolar>
-33.4596

> <Gold.PLP.part.repulsive>
0.2237

> <Gold.PLP.ligand.clash>
0.0000

> <Gold.PLP.ligand.torsion>
0.6943

> <Gold.PLP.Chemscore.Hbond>
1.3503

> <Gold.PLP.Chemscore.CHOScore>
2.7911

> <Gold.PLP.Chemscore.Metal>
0.0000

> <Gold.Chemscore.Hbonds>
donor molecule, donor type, donor heavy atom, donor atom, acceptor molecule, acceptor atom, score
      P1  H  7989  7998       L1    14  0.21
      P1  H  7997  8010       L1     7  0.77
      L1  C    15    34       P1  7948  0.41
      L1  C    15    34       P1  7957  1.00
      L1  C    16    35       P1  7949  1.00

> <Gold.PLP.Chemscore.Internal.Correction>
0.0141

> <Gold.Rescore>
     Score         DG    S(hbond)    S(metal)    S(lipo)     H(rot)  DE(clash)    DE(int)     intcor
     15.04     -17.27       0.90        0.00     108.09       1.51       0.47       1.76       ----

> <Gold.Chemscore.Fitness>
15.0401

> <Gold.Chemscore.DG>
-17.2706

> <Gold.Chemscore.ZeroCoef>
-5.4800

> <Gold.Chemscore.Hbond>
0.9025

> <Gold.Chemscore.Metal>
0.0000

> <Gold.Chemscore.Lipo>
108.0916

> <Gold.Chemscore.Internal_Hbond>
0.0000

> <Gold.Chemscore.DEClash>
0.4680

> <Gold.Chemscore.DEInternal>
1.7626

> <Gold.Chemscore.Rot>
1.5119

> <Gold.Chemscore.Internal.Correction>
   9.000000E+99

> <Gold.Chemscore.Hbonds>
donor molecule, donor type, donor heavy atom, donor atom, acceptor molecule, acceptor atom, score
      P1  H  7997  8010       L1     7  0.29

> <Gold.Chemscore.Hbond.Weighted>
-3.0145

> <Gold.Chemscore.Metal.Weighted>
-0.0000

> <Gold.Chemscore.Lipo.Weighted>
-12.6467

> <Gold.Chemscore.Internal_Hbond.Weighted>
0.0000

> <Gold.Chemscore.DEClash.Weighted>
0.4680

> <Gold.Chemscore.DEInternal.Weighted>
1.7626

> <Gold.Chemscore.Rot.Weighted>
3.8706

> <Gold.Chemscore.Internal.Correction.Weighted>
   9.000000E+99

> <Gold.Protein.RotatedTorsions>
[ 6907 6896 6895 6894 ] final  -52.21 input  -60.11 | X-H torsion
[ 7974 7965 7964 7962 ] final  -93.28 input  175.53 | X-H torsion
[ 8008 7997 7996 7995 ] final    1.28 input   59.86 | X-H torsion
[ 10167 10162 10161 10158 ] final  -30.56 input  -65.29 | X-H torsion
[ 10718 10713 10712 10709 ] final   53.43 input   66.30 | X-H torsion
[ 10763 10752 10751 10750 ] final  -56.33 input  -60.55 | X-H torsion
[ 11005 11000 10999 10996 ] final  165.01 input  -57.11 | X-H torsion

> <Gold.Protein.ActiveResidues>
 VAL166  LYS551  ARG553  GLY616  TRP617  ASP618  TYR619  PRO620  LYS621  CYS622 
 ASP623  PHE694  ASN695  SER759  ASP760  ASP761  ALA762  ILE779  LEU786  VAL792 
 PHE793  MET794  SER795  GLU796  ALA797  LYS798  CYS799  TRP800  GLU811  SER814 

> <Gold.Protein.RotatedAtoms>
  150.8539  134.7872  159.7029 H   0  0  0  0  0  0  0  0  0  0  0  0  # atno 6907 bound_to 6896
  152.4596  134.5211  159.9793 H   0  0  0  0  0  0  0  0  0  0  0  0  # atno 6908 bound_to 6896
  151.5327  133.3408  159.2957 H   0  0  0  0  0  0  0  0  0  0  0  0  # atno 6909 bound_to 6896
  145.3886  140.9526  143.2353 H   0  0  0  0  0  0  0  0  0  0  0  0  # atno 7974 bound_to 7965
  154.6779  140.2626  155.6939 H   0  0  0  0  0  0  0  0  0  0  0  0  # atno 8008 bound_to 7997
  156.2685  140.2816  156.1235 H   0  0  0  0  0  0  0  0  0  0  0  0  # atno 8009 bound_to 7997
  155.1074  140.0375  157.2704 H   0  0  0  0  0  0  0  0  0  0  0  0  # atno 8010 bound_to 7997
  140.7248  143.3839  151.1550 H   0  0  0  0  0  0  0  0  0  0  0  0  # atno 10167 bound_to 10162
  157.5166  130.8536  149.8503 H   0  0  0  0  0  0  0  0  0  0  0  0  # atno 10718 bound_to 10713
  154.2049  135.6404  153.5098 H   0  0  0  0  0  0  0  0  0  0  0  0  # atno 10763 bound_to 10752
  153.0003  135.5460  154.6276 H   0  0  0  0  0  0  0  0  0  0  0  0  # atno 10764 bound_to 10752
  154.5698  135.2916  155.0811 H   0  0  0  0  0  0  0  0  0  0  0  0  # atno 10765 bound_to 10752
  140.2517  134.7971  157.3508 H   0  0  0  0  0  0  0  0  0  0  0  0  # atno 11005 bound_to 11000
  144.8456  139.5402  143.6880 LP  0  0  0  0  0  0  0  0  0  0  0  0  # atno 17320 bound_to 7965
  146.2808  139.6872  142.9230 LP  0  0  0  0  0  0  0  0  0  0  0  0  # atno 17321 bound_to 7965
  139.7433  143.8891  152.3056 LP  0  0  0  0  0  0  0  0  0  0  0  0  # atno 17342 bound_to 10162
  139.8719  144.7063  150.8977 LP  0  0  0  0  0  0  0  0  0  0  0  0  # atno 17343 bound_to 10162
  156.0324  130.3760  150.1650 LP  0  0  0  0  0  0  0  0  0  0  0  0  # atno 17370 bound_to 10713
  156.9839  130.9872  151.3431 LP  0  0  0  0  0  0  0  0  0  0  0  0  # atno 17371 bound_to 10713
  140.1551  134.4800  155.7933 LP  0  0  0  0  0  0  0  0  0  0  0  0  # atno 17394 bound_to 11000
  141.2200  133.6878  156.7447 LP  0  0  0  0  0  0  0  0  0  0  0  0  # atno 17395 bound_to 11000

$$$$
