AV-unprocessed.smi:3253|AV-procd|sdf|12449|dock5
  -GOLD-   2272018343D 1   1.00000     0.00000
 Structure written by MMmdl.
 36 37  0  0  0  0  0  0  0  0  1 V2000
  151.0301  139.4326  155.2726 C   0  0  0  0  0  0  0  0  0  0  0  0
  150.4196  140.6445  156.0012 C   0  0  2  0  0  0  0  0  0  0  0  0
  149.7922  141.6735  155.0399 C   0  0  0  0  0  0  0  0  0  0  0  0
  148.5075  141.2464  154.5184 N   0  0  0  0  0  0  0  0  0  0  0  0
  147.2740  141.8521  154.7209 C   0  0  0  0  0  0  0  0  0  0  0  0
  146.3481  141.0950  154.0391 C   0  0  0  0  0  0  0  0  0  0  0  0
  146.9846  140.0225  153.4188 N   0  0  0  0  0  0  0  0  0  0  0  0
  148.2600  140.1772  153.7495 C   0  0  0  0  0  0  0  0  0  0  0  0
  151.4338  141.3094  156.8149 N   0  0  0  0  0  0  0  0  0  0  0  0
  151.2054  141.9519  157.9711 C   0  0  0  0  0  0  0  0  0  0  0  0
  150.0897  142.0439  158.4843 O   0  0  0  0  0  0  0  0  0  0  0  0
  152.4259  142.5894  158.6534 C   0  0  2  0  0  0  0  0  0  0  0  0
  152.5712  142.1087  160.1118 C   0  0  0  0  0  0  0  0  0  0  0  0
  152.2911  143.3521  160.9394 C   0  0  0  0  0  0  0  0  0  0  0  0
  152.2214  143.3358  162.1674 O   0  0  0  0  0  0  0  0  0  0  0  0
  152.1298  144.4217  160.1558 N   0  0  0  0  0  0  0  0  0  0  0  0
  151.8354  145.7737  160.6107 C   0  0  0  0  0  0  0  0  0  0  0  0
  152.3143  144.1277  158.7448 C   0  0  0  0  0  0  0  0  0  0  0  0
  150.2751  138.8816  154.7116 H   0  0  0  0  0  0  0  0  0  0  0  0
  151.4789  138.7320  155.9774 H   0  0  0  0  0  0  0  0  0  0  0  0
  151.8059  139.7416  154.5717 H   0  0  0  0  0  0  0  0  0  0  0  0
  149.6296  140.2821  156.6620 H   0  0  0  0  0  0  0  0  0  0  0  0
  149.6500  142.6282  155.5485 H   0  0  0  0  0  0  0  0  0  0  0  0
  150.4606  141.8640  154.1989 H   0  0  0  0  0  0  0  0  0  0  0  0
  147.1601  142.7479  155.3134 H   0  0  0  0  0  0  0  0  0  0  0  0
  145.2812  141.2374  153.9491 H   0  0  0  0  0  0  0  0  0  0  0  0
  149.0335  139.4976  153.4228 H   0  0  0  0  0  0  0  0  0  0  0  0
  152.3824  141.2824  156.4699 H   0  0  0  0  0  0  0  0  0  0  0  0
  153.3238  142.3270  158.0910 H   0  0  0  0  0  0  0  0  0  0  0  0
  151.8807  141.3073  160.3817 H   0  0  0  0  0  0  0  0  0  0  0  0
  153.5848  141.7598  160.3114 H   0  0  0  0  0  0  0  0  0  0  0  0
  152.5997  146.1196  161.3073 H   0  0  0  0  0  0  0  0  0  0  0  0
  150.8696  145.8034  161.1163 H   0  0  0  0  0  0  0  0  0  0  0  0
  151.8010  146.4719  159.7738 H   0  0  0  0  0  0  0  0  0  0  0  0
  153.2307  144.6040  158.3940 H   0  0  0  0  0  0  0  0  0  0  0  0
  151.4876  144.5333  158.1585 H   0  0  0  0  0  0  0  0  0  0  0  0
  1  2  1  0  0  0  0
  1 19  1  0  0  0  0
  1 20  1  0  0  0  0
  1 21  1  0  0  0  0
  2  3  1  0  0  0  0
  2  9  1  0  0  0  0
  2 22  1  0  0  0  0
  3  4  1  0  0  0  0
  3 23  1  0  0  0  0
  3 24  1  0  0  0  0
  4  8  1  0  0  0  0
  4  5  1  0  0  0  0
  5  6  2  0  0  0  0
  5 25  1  0  0  0  0
  6  7  1  0  0  0  0
  6 26  1  0  0  0  0
  7  8  2  0  0  0  0
  8 27  1  0  0  0  0
  9 10  1  0  0  0  0
  9 28  1  0  0  0  0
 10 11  2  0  0  0  0
 10 12  1  0  0  0  0
 12 18  1  0  0  0  0
 12 13  1  0  0  0  0
 12 29  1  0  0  0  0
 13 14  1  0  0  0  0
 13 30  1  0  0  0  0
 13 31  1  0  0  0  0
 14 15  2  0  0  0  0
 14 16  1  0  0  0  0
 16 17  1  0  0  0  0
 16 18  1  0  0  0  0
 17 32  1  0  0  0  0
 17 33  1  0  0  0  0
 17 34  1  0  0  0  0
 18 35  1  0  0  0  0
 18 36  1  0  0  0  0
M  END
> <s_m_source_file>
AV-unprocessed.smi

> <i_m_source_file_index>
3253

> <i_lp_mmshare_version>
43012

> <i_f3d_flags>
0

> <s_epik_input>
W2NIXTFuW2NIXVtjSF1uMVtDSDJdW0NAQEhdKFtDSDNdKVtOSF1DKD1PKVtDQEBIXTJbQ0gyXUMoPU8pTihbQ0gzXSlbQ0gyXTI=

> <s_epik_cmdline>
J2VwaWtfcHl0aG9uJywgJy1waCcsICc3LjAnLCAnLXRuJywgJzgnLCAnLW1hJywgJzIwMCcsICctbWV0YWxfYmluZGluZycsICctaW1hZScsICc8aW5maWxlLm1hZT4nLCAnLW9tYWUnLCAnPG91dGZpbGUubWFlPic=

> <r_lp_tautomer_probability>
1

> <r_epik_Ionization_Penalty>
0.628884

> <r_epik_Ionization_Penalty_Charging>
0.628884

> <r_epik_Ionization_Penalty_Neutral>
2.35084e-08

> <r_epik_State_Penalty>
0.64556

> <r_epik_Charging_Adjusted_Penalty>
1.27444

> <i_epik_Tot_Q>
0

> <i_epik_Tot_abs_Q>
0

> <r_epik_Metal_State_Penalty>
0.308736

> <b_epik_Metal_Only>
0

> <s_lp_Force_Field>
OPLS_2005

> <r_lp_Energy>
13.4006

> <b_lp_Chiralities_Consistent>
1

> <s_lp_Variant>
AV-unprocessed.smi:3253-5

> <Gold.Version>
5.8.1

> <Gold.Id.Protein>
6NUR|6NUR_protein|mol2

> <Gold.PLP.Fitness>
44.7298

> <Gold.PLP.PLP>
-38.3598

> <Gold.PLP.part.hbond>
0.0000

> <Gold.PLP.part.metal>
0.0000

> <Gold.PLP.part.buried>
-1.1092

> <Gold.PLP.part.nonpolar>
-36.8236

> <Gold.PLP.part.repulsive>
0.5299

> <Gold.PLP.ligand.clash>
0.0000

> <Gold.PLP.ligand.torsion>
0.5755

> <Gold.PLP.Chemscore.Hbond>
0.0000

> <Gold.PLP.Chemscore.CHOScore>
2.4936

> <Gold.PLP.Chemscore.Metal>
0.0000

> <Gold.Chemscore.Hbonds>
donor molecule, donor type, donor heavy atom, donor atom, acceptor molecule, acceptor atom, score
      L1  C     5    25       P1  8028  0.77
      L1  C     6    26       P1 10175  1.00
      L1  C     8    27       P1  7957  0.57

> <Gold.PLP.Chemscore.Internal.Correction>
0.0403

> <Gold.Rescore>
     Score         DG    S(hbond)    S(metal)    S(lipo)     H(rot)  DE(clash)    DE(int)     intcor
      9.16      -9.75       0.00        0.00      79.56       1.97       0.12       0.47       ----

> <Gold.Chemscore.Fitness>
9.1615

> <Gold.Chemscore.DG>
-9.7538

> <Gold.Chemscore.ZeroCoef>
-5.4800

> <Gold.Chemscore.Hbond>
0.0000

> <Gold.Chemscore.Metal>
0.0000

> <Gold.Chemscore.Lipo>
79.5635

> <Gold.Chemscore.Internal_Hbond>
0.0000

> <Gold.Chemscore.DEClash>
0.1248

> <Gold.Chemscore.DEInternal>
0.4675

> <Gold.Chemscore.Rot>
1.9669

> <Gold.Chemscore.Internal.Correction>
   9.000000E+99

> <Gold.Chemscore.Hbond.Weighted>
-0.0000

> <Gold.Chemscore.Metal.Weighted>
-0.0000

> <Gold.Chemscore.Lipo.Weighted>
-9.3089

> <Gold.Chemscore.Internal_Hbond.Weighted>
0.0000

> <Gold.Chemscore.DEClash.Weighted>
0.1248

> <Gold.Chemscore.DEInternal.Weighted>
0.4675

> <Gold.Chemscore.Rot.Weighted>
5.0352

> <Gold.Chemscore.Internal.Correction.Weighted>
   9.000000E+99

> <Gold.Protein.RotatedTorsions>
[ 6907 6896 6895 6894 ] final -108.73 input  -60.11 | X-H torsion
[ 7974 7965 7964 7962 ] final  -76.70 input  175.53 | X-H torsion
[ 8008 7997 7996 7995 ] final -138.61 input   59.86 | X-H torsion
[ 10167 10162 10161 10158 ] final  -68.74 input  -65.29 | X-H torsion
[ 10718 10713 10712 10709 ] final   85.62 input   66.30 | X-H torsion
[ 10763 10752 10751 10750 ] final -150.24 input  -60.55 | X-H torsion
[ 11005 11000 10999 10996 ] final -100.76 input  -57.11 | X-H torsion

> <Gold.Protein.ActiveResidues>
 VAL166  LYS551  ARG553  GLY616  TRP617  ASP618  TYR619  PRO620  LYS621  CYS622 
 ASP623  PHE694  ASN695  SER759  ASP760  ASP761  ALA762  ILE779  LEU786  VAL792 
 PHE793  MET794  SER795  GLU796  ALA797  LYS798  CYS799  TRP800  GLU811  SER814 

> <Gold.Protein.RotatedAtoms>
  150.7519  133.9634  159.3522 H   0  0  0  0  0  0  0  0  0  0  0  0  # atno 6907 bound_to 6896
  151.7561  135.0819  160.0348 H   0  0  0  0  0  0  0  0  0  0  0  0  # atno 6908 bound_to 6896
  152.3434  133.6056  159.5928 H   0  0  0  0  0  0  0  0  0  0  0  0  # atno 6909 bound_to 6896
  145.6094  140.9390  143.1198 H   0  0  0  0  0  0  0  0  0  0  0  0  # atno 7974 bound_to 7965
  155.4311  140.0525  157.3018 H   0  0  0  0  0  0  0  0  0  0  0  0  # atno 8008 bound_to 7997
  154.4859  140.2100  155.9614 H   0  0  0  0  0  0  0  0  0  0  0  0  # atno 8009 bound_to 7997
  156.1274  140.3178  155.8303 H   0  0  0  0  0  0  0  0  0  0  0  0  # atno 8010 bound_to 7997
  140.5484  143.2312  151.6957 H   0  0  0  0  0  0  0  0  0  0  0  0  # atno 10167 bound_to 10162
  157.6917  131.0182  150.2849 H   0  0  0  0  0  0  0  0  0  0  0  0  # atno 10718 bound_to 10713
  154.8130  135.3289  154.7253 H   0  0  0  0  0  0  0  0  0  0  0  0  # atno 10763 bound_to 10752
  153.7899  135.6912  153.4878 H   0  0  0  0  0  0  0  0  0  0  0  0  # atno 10764 bound_to 10752
  153.1924  135.4546  155.0112 H   0  0  0  0  0  0  0  0  0  0  0  0  # atno 10765 bound_to 10752
  141.1258  133.8424  157.1144 H   0  0  0  0  0  0  0  0  0  0  0  0  # atno 11005 bound_to 11000
  144.7276  139.7825  143.7359 LP  0  0  0  0  0  0  0  0  0  0  0  0  # atno 17320 bound_to 7965
  146.1516  139.4601  143.0045 LP  0  0  0  0  0  0  0  0  0  0  0  0  # atno 17321 bound_to 7965
  139.5017  144.3857  152.0331 LP  0  0  0  0  0  0  0  0  0  0  0  0  # atno 17342 bound_to 10162
  140.2972  144.3688  150.6071 LP  0  0  0  0  0  0  0  0  0  0  0  0  # atno 17343 bound_to 10162
  156.3390  130.3812  149.7425 LP  0  0  0  0  0  0  0  0  0  0  0  0  # atno 17370 bound_to 10713
  156.4941  130.8098  151.3106 LP  0  0  0  0  0  0  0  0  0  0  0  0  # atno 17371 bound_to 10713
  140.0255  134.9926  157.0677 LP  0  0  0  0  0  0  0  0  0  0  0  0  # atno 17394 bound_to 11000
  140.4370  134.1721  155.7171 LP  0  0  0  0  0  0  0  0  0  0  0  0  # atno 17395 bound_to 11000

$$$$
