AV-unprocessed.smi:1573|AV-procd|sdf|6334|dock8
  -GOLD-   22720 6543D 1   1.00000     0.00000
 Structure written by MMmdl.
 41 41  0  0  0  0  0  0  0  0  1 V2000
  145.8578  143.5778  153.2735 C   0  0  0  0  0  0  0  0  0  0  0  0
  146.0311  143.2065  154.7525 C   0  0  0  0  0  0  0  0  0  0  0  0
  147.3360  142.6071  155.0037 N   0  0  0  0  0  0  0  0  0  0  0  0
  147.5517  141.5127  155.7498 C   0  0  0  0  0  0  0  0  0  0  0  0
  146.6510  140.9012  156.3273 O   0  0  0  0  0  0  0  0  0  0  0  0
  149.0125  141.0497  155.8681 C   0  0  1  0  0  0  0  0  0  0  0  0
  149.5036  140.6514  154.4665 C   0  0  0  0  0  0  0  0  0  0  0  0
  149.8576  142.1412  156.3462 N   0  0  0  0  0  0  0  0  0  0  0  0
  150.7651  142.0496  157.3317 C   0  0  0  0  0  0  0  0  0  0  0  0
  150.9928  141.0107  157.9515 O   0  0  0  0  0  0  0  0  0  0  0  0
  151.5334  143.3272  157.6681 C   0  0  0  0  0  0  0  0  0  0  0  0
  151.6539  143.4698  159.1644 C   0  0  0  0  0  0  0  0  0  0  0  0
  150.9038  144.3300  160.0204 C   0  0  0  0  0  0  0  0  0  0  0  0
  149.8219  145.3030  159.6470 C   0  0  0  0  0  0  0  0  0  0  0  0
  151.2611  144.2161  161.2887 N   0  0  0  0  0  0  0  0  0  0  0  0
  152.2390  143.2882  161.2894 N   0  0  0  0  0  0  0  0  0  0  0  0
  152.8649  142.9149  162.5429 C   0  0  0  0  0  0  0  0  0  0  0  0
  152.5039  142.8183  160.0179 C   0  0  0  0  0  0  0  0  0  0  0  0
  153.5535  141.7880  159.7518 C   0  0  0  0  0  0  0  0  0  0  0  0
  144.8935  144.0578  153.1055 H   0  0  0  0  0  0  0  0  0  0  0  0
  145.9039  142.6959  152.6337 H   0  0  0  0  0  0  0  0  0  0  0  0
  146.6349  144.2699  152.9474 H   0  0  0  0  0  0  0  0  0  0  0  0
  145.9439  144.1017  155.3686 H   0  0  0  0  0  0  0  0  0  0  0  0
  145.2353  142.5313  155.0712 H   0  0  0  0  0  0  0  0  0  0  0  0
  148.1328  143.0477  154.5670 H   0  0  0  0  0  0  0  0  0  0  0  0
  149.0886  140.1934  156.5414 H   0  0  0  0  0  0  0  0  0  0  0  0
  148.9092  139.8343  154.0555 H   0  0  0  0  0  0  0  0  0  0  0  0
  150.5397  140.3126  154.5004 H   0  0  0  0  0  0  0  0  0  0  0  0
  149.4538  141.4859  153.7648 H   0  0  0  0  0  0  0  0  0  0  0  0
  149.7360  143.0381  155.8988 H   0  0  0  0  0  0  0  0  0  0  0  0
  152.5117  143.2895  157.1882 H   0  0  0  0  0  0  0  0  0  0  0  0
  151.0181  144.1811  157.2266 H   0  0  0  0  0  0  0  0  0  0  0  0
  150.2471  146.2123  159.2221 H   0  0  0  0  0  0  0  0  0  0  0  0
  149.2215  145.5896  160.5111 H   0  0  0  0  0  0  0  0  0  0  0  0
  149.1468  144.8743  158.9065 H   0  0  0  0  0  0  0  0  0  0  0  0
  152.8195  141.8328  162.6680 H   0  0  0  0  0  0  0  0  0  0  0  0
  152.3559  143.3876  163.3840 H   0  0  0  0  0  0  0  0  0  0  0  0
  153.9085  143.2305  162.5386 H   0  0  0  0  0  0  0  0  0  0  0  0
  153.7067  141.6466  158.6820 H   0  0  0  0  0  0  0  0  0  0  0  0
  153.2692  140.8269  160.1803 H   0  0  0  0  0  0  0  0  0  0  0  0
  154.5086  142.0844  160.1863 H   0  0  0  0  0  0  0  0  0  0  0  0
  1  2  1  0  0  0  0
  1 20  1  0  0  0  0
  1 21  1  0  0  0  0
  1 22  1  0  0  0  0
  2  3  1  0  0  0  0
  2 23  1  0  0  0  0
  2 24  1  0  0  0  0
  3  4  1  0  0  0  0
  3 25  1  0  0  0  0
  4  5  2  0  0  0  0
  4  6  1  0  0  0  0
  6  7  1  0  0  0  0
  6  8  1  0  0  0  0
  6 26  1  0  0  0  0
  7 27  1  0  0  0  0
  7 28  1  0  0  0  0
  7 29  1  0  0  0  0
  8  9  1  0  0  0  0
  8 30  1  0  0  0  0
  9 10  2  0  0  0  0
  9 11  1  0  0  0  0
 11 12  1  0  0  0  0
 11 31  1  0  0  0  0
 11 32  1  0  0  0  0
 12 18  2  0  0  0  0
 12 13  1  0  0  0  0
 13 14  1  0  0  0  0
 13 15  2  0  0  0  0
 14 33  1  0  0  0  0
 14 34  1  0  0  0  0
 14 35  1  0  0  0  0
 15 16  1  0  0  0  0
 16 17  1  0  0  0  0
 16 18  1  0  0  0  0
 17 36  1  0  0  0  0
 17 37  1  0  0  0  0
 17 38  1  0  0  0  0
 18 19  1  0  0  0  0
 19 39  1  0  0  0  0
 19 40  1  0  0  0  0
 19 41  1  0  0  0  0
M  END
> <s_m_source_file>
AV-unprocessed.smi

> <i_m_source_file_index>
1573

> <i_lp_mmshare_version>
43012

> <i_f3d_flags>
0

> <s_epik_input>
W0NIM11bQ0gyXVtOSF1DKD1PKVtDQEhdKFtDSDNdKVtOSF1DKD1PKVtDSDJdYzFjKFtDSDNdKW5uKFtDSDNdKWMxW0NIM10=

> <s_epik_cmdline>
J2VwaWtfcHl0aG9uJywgJy1waCcsICc3LjAnLCAnLXRuJywgJzgnLCAnLW1hJywgJzIwMCcsICctbWV0YWxfYmluZGluZycsICctaW1hZScsICc8aW5maWxlLm1hZT4nLCAnLW9tYWUnLCAnPG91dGZpbGUubWFlPic=

> <r_lp_tautomer_probability>
1

> <r_epik_Ionization_Penalty>
0.00278414

> <r_epik_Ionization_Penalty_Charging>
0

> <r_epik_Ionization_Penalty_Neutral>
0.00278414

> <r_epik_State_Penalty>
0.00194489

> <r_epik_Charging_Adjusted_Penalty>
0.00194489

> <i_epik_Tot_Q>
0

> <i_epik_Tot_abs_Q>
0

> <r_epik_Metal_State_Penalty>
-0

> <b_epik_Metal_Only>
0

> <s_lp_Force_Field>
OPLS_2005

> <r_lp_Energy>
-3.15373

> <b_lp_Chiralities_Consistent>
1

> <s_lp_Variant>
AV-unprocessed.smi:1573-2

> <Gold.Version>
5.8.1

> <Gold.Id.Protein>
6NUR|6NUR_protein|mol2

> <Gold.PLP.Fitness>
46.3129

> <Gold.PLP.PLP>
-43.4061

> <Gold.PLP.part.hbond>
-2.2010

> <Gold.PLP.part.metal>
0.0000

> <Gold.PLP.part.buried>
-6.2073

> <Gold.PLP.part.nonpolar>
-35.2854

> <Gold.PLP.part.repulsive>
0.3724

> <Gold.PLP.ligand.clash>
0.0000

> <Gold.PLP.ligand.torsion>
0.7308

> <Gold.PLP.Chemscore.Hbond>
1.4480

> <Gold.PLP.Chemscore.CHOScore>
0.0000

> <Gold.PLP.Chemscore.Metal>
0.0000

> <Gold.Chemscore.Hbonds>
donor molecule, donor type, donor heavy atom, donor atom, acceptor molecule, acceptor atom, score
      L1  H     3    25       P1  8028  0.23
      L1  H     8    30       P1  8028  1.00

> <Gold.PLP.Chemscore.Internal.Correction>
0.0245

> <Gold.Rescore>
     Score         DG    S(hbond)    S(metal)    S(lipo)     H(rot)  DE(clash)    DE(int)     intcor
     16.09     -17.02       1.47        0.00      98.33       1.91       0.10       0.84       ----

> <Gold.Chemscore.Fitness>
16.0875

> <Gold.Chemscore.DG>
-17.0208

> <Gold.Chemscore.ZeroCoef>
-5.4800

> <Gold.Chemscore.Hbond>
1.4747

> <Gold.Chemscore.Metal>
0.0000

> <Gold.Chemscore.Lipo>
98.3324

> <Gold.Chemscore.Internal_Hbond>
0.0000

> <Gold.Chemscore.DEClash>
0.0957

> <Gold.Chemscore.DEInternal>
0.8375

> <Gold.Chemscore.Rot>
1.9100

> <Gold.Chemscore.Internal.Correction>
   9.000000E+99

> <Gold.Chemscore.Hbonds>
donor molecule, donor type, donor heavy atom, donor atom, acceptor molecule, acceptor atom, score
      L1  H     3    25       P1  8028  0.22
      L1  H     8    30       P1  8028  0.97

> <Gold.Chemscore.Hbond.Weighted>
-4.9254

> <Gold.Chemscore.Metal.Weighted>
-0.0000

> <Gold.Chemscore.Lipo.Weighted>
-11.5049

> <Gold.Chemscore.Internal_Hbond.Weighted>
0.0000

> <Gold.Chemscore.DEClash.Weighted>
0.0957

> <Gold.Chemscore.DEInternal.Weighted>
0.8375

> <Gold.Chemscore.Rot.Weighted>
4.8896

> <Gold.Chemscore.Internal.Correction.Weighted>
   9.000000E+99

> <Gold.Protein.RotatedTorsions>
[ 6907 6896 6895 6894 ] final   -1.35 input  -60.11 | X-H torsion
[ 7974 7965 7964 7962 ] final  -40.25 input  175.53 | X-H torsion
[ 8008 7997 7996 7995 ] final  -76.37 input   59.86 | X-H torsion
[ 10167 10162 10161 10158 ] final  166.71 input  -65.29 | X-H torsion
[ 10718 10713 10712 10709 ] final  153.94 input   66.30 | X-H torsion
[ 10763 10752 10751 10750 ] final -110.92 input  -60.55 | X-H torsion
[ 11005 11000 10999 10996 ] final  118.70 input  -57.11 | X-H torsion

> <Gold.Protein.ActiveResidues>
 VAL166  LYS551  ARG553  GLY616  TRP617  ASP618  TYR619  PRO620  LYS621  CYS622 
 ASP623  PHE694  ASN695  SER759  ASP760  ASP761  ALA762  ILE779  LEU786  VAL792 
 PHE793  MET794  SER795  GLU796  ALA797  LYS798  CYS799  TRP800  GLU811  SER814 

> <Gold.Protein.RotatedAtoms>
  151.5475  135.1068  159.9941 H   0  0  0  0  0  0  0  0  0  0  0  0  # atno 6907 bound_to 6896
  152.4507  133.7619  159.6762 H   0  0  0  0  0  0  0  0  0  0  0  0  # atno 6908 bound_to 6896
  150.8434  133.7832  159.3076 H   0  0  0  0  0  0  0  0  0  0  0  0  # atno 6909 bound_to 6896
  146.0322  140.6717  142.9127 H   0  0  0  0  0  0  0  0  0  0  0  0  # atno 7974 bound_to 7965
  154.5499  140.0728  156.8650 H   0  0  0  0  0  0  0  0  0  0  0  0  # atno 8008 bound_to 7997
  155.3014  140.3384  155.4229 H   0  0  0  0  0  0  0  0  0  0  0  0  # atno 8009 bound_to 7997
  156.1952  140.1701  156.7999 H   0  0  0  0  0  0  0  0  0  0  0  0  # atno 8010 bound_to 7997
  139.4930  144.3998  151.9422 H   0  0  0  0  0  0  0  0  0  0  0  0  # atno 10167 bound_to 10162
  157.2381  131.0753  151.1810 H   0  0  0  0  0  0  0  0  0  0  0  0  # atno 10718 bound_to 10713
  154.8273  135.4546  154.0959 H   0  0  0  0  0  0  0  0  0  0  0  0  # atno 10763 bound_to 10752
  153.2262  135.6900  153.7949 H   0  0  0  0  0  0  0  0  0  0  0  0  # atno 10764 bound_to 10752
  153.7348  135.3321  155.3269 H   0  0  0  0  0  0  0  0  0  0  0  0  # atno 10765 bound_to 10752
  139.9119  134.9622  156.7542 H   0  0  0  0  0  0  0  0  0  0  0  0  # atno 11005 bound_to 11000
  144.7035  140.3756  143.7136 LP  0  0  0  0  0  0  0  0  0  0  0  0  # atno 17320 bound_to 7965
  145.7023  139.1664  143.2586 LP  0  0  0  0  0  0  0  0  0  0  0  0  # atno 17321 bound_to 7965
  140.3437  144.3172  150.5962 LP  0  0  0  0  0  0  0  0  0  0  0  0  # atno 17342 bound_to 10162
  140.5544  143.2201  151.7872 LP  0  0  0  0  0  0  0  0  0  0  0  0  # atno 17343 bound_to 10162
  157.3407  130.7032  149.6380 LP  0  0  0  0  0  0  0  0  0  0  0  0  # atno 17370 bound_to 10713
  155.9671  130.4280  150.4771 LP  0  0  0  0  0  0  0  0  0  0  0  0  # atno 17371 bound_to 10713
  140.6749  133.9526  155.7877 LP  0  0  0  0  0  0  0  0  0  0  0  0  # atno 17394 bound_to 11000
  141.0551  134.0428  157.3732 LP  0  0  0  0  0  0  0  0  0  0  0  0  # atno 17395 bound_to 11000

$$$$
