AV-unprocessed.smi:330|AV-procd|sdf|2349|dock7
  -GOLD-   2262022263D 1   1.00000     0.00000
 Structure written by MMmdl.
 36 38  0  0  0  0  0  0  0  0  1 V2000
  151.7849  144.6614  159.8864 C   0  0  0  0  0  0  0  0  0  0  0  0
  152.4085  143.2775  159.8224 C   0  0  0  0  0  0  0  0  0  0  0  0
  153.1366  142.7062  160.7875 C   0  0  0  0  0  0  0  0  0  0  0  0
  153.6625  141.0932  160.3720 S   0  0  0  0  0  0  0  0  0  0  0  0
  152.8265  141.2205  158.7827 C   0  0  0  0  0  0  0  0  0  0  0  0
  152.8280  140.3118  157.9536 O   0  0  0  0  0  0  0  0  0  0  0  0
  152.2214  142.4738  158.6891 N   0  0  0  0  0  0  0  0  0  0  0  0
  151.4619  142.9052  157.5082 C   0  0  0  0  0  0  0  0  0  0  0  0
  150.2876  141.9773  157.1699 C   0  0  0  0  0  0  0  0  0  0  0  0
  149.4256  141.7118  158.0089 O   0  0  0  0  0  0  0  0  0  0  0  0
  150.2756  141.4871  155.9210 N   0  0  0  0  0  0  0  0  0  0  0  0
  149.2669  140.5891  155.3689 C   0  0  0  0  0  0  0  0  0  0  0  0
  149.8079  139.1903  155.1250 C   0  0  0  0  0  0  0  0  0  0  0  0
  151.0619  138.7014  155.8114 C   0  0  0  0  0  0  0  0  0  0  0  0
  151.0670  138.9625  154.3224 C   0  0  0  0  0  0  0  0  0  0  0  0
  148.6566  141.1500  154.0976 C   0  0  0  0  0  0  0  0  0  0  0  0
  147.4214  142.0171  154.1435 C   0  0  0  0  0  0  0  0  0  0  0  0
  147.3478  140.6262  153.5548 C   0  0  0  0  0  0  0  0  0  0  0  0
  151.7636  145.0202  160.9158 H   0  0  0  0  0  0  0  0  0  0  0  0
  150.7583  144.6582  159.5199 H   0  0  0  0  0  0  0  0  0  0  0  0
  152.3673  145.3671  159.2938 H   0  0  0  0  0  0  0  0  0  0  0  0
  153.3923  143.1444  161.7408 H   0  0  0  0  0  0  0  0  0  0  0  0
  151.0998  143.9256  157.6356 H   0  0  0  0  0  0  0  0  0  0  0  0
  152.1241  142.9413  156.6417 H   0  0  0  0  0  0  0  0  0  0  0  0
  151.0259  141.7578  155.3019 H   0  0  0  0  0  0  0  0  0  0  0  0
  148.4533  140.5021  156.0922 H   0  0  0  0  0  0  0  0  0  0  0  0
  149.0267  138.4436  154.9942 H   0  0  0  0  0  0  0  0  0  0  0  0
  151.6074  139.4017  156.4407 H   0  0  0  0  0  0  0  0  0  0  0  0
  151.0824  137.6648  156.1407 H   0  0  0  0  0  0  0  0  0  0  0  0
  151.0888  138.1003  153.6591 H   0  0  0  0  0  0  0  0  0  0  0  0
  151.6115  139.8360  153.9694 H   0  0  0  0  0  0  0  0  0  0  0  0
  149.3965  141.4279  153.3489 H   0  0  0  0  0  0  0  0  0  0  0  0
  146.9506  142.1783  155.1114 H   0  0  0  0  0  0  0  0  0  0  0  0
  147.3738  142.8590  153.4557 H   0  0  0  0  0  0  0  0  0  0  0  0
  147.2503  140.5409  152.4746 H   0  0  0  0  0  0  0  0  0  0  0  0
  146.8212  139.8689  154.1320 H   0  0  0  0  0  0  0  0  0  0  0  0
  1  2  1  0  0  0  0
  1 19  1  0  0  0  0
  1 20  1  0  0  0  0
  1 21  1  0  0  0  0
  2  7  1  0  0  0  0
  2  3  2  0  0  0  0
  3  4  1  0  0  0  0
  3 22  1  0  0  0  0
  4  5  1  0  0  0  0
  5  6  2  0  0  0  0
  5  7  1  0  0  0  0
  7  8  1  0  0  0  0
  8  9  1  0  0  0  0
  8 23  1  0  0  0  0
  8 24  1  0  0  0  0
  9 10  2  0  0  0  0
  9 11  1  0  0  0  0
 11 12  1  0  0  0  0
 11 25  1  0  0  0  0
 12 13  1  0  0  0  0
 12 16  1  0  0  0  0
 12 26  1  0  0  0  0
 13 15  1  0  0  0  0
 13 14  1  0  0  0  0
 13 27  1  0  0  0  0
 14 15  1  0  0  0  0
 14 28  1  0  0  0  0
 14 29  1  0  0  0  0
 15 30  1  0  0  0  0
 15 31  1  0  0  0  0
 16 18  1  0  0  0  0
 16 17  1  0  0  0  0
 16 32  1  0  0  0  0
 17 18  1  0  0  0  0
 17 33  1  0  0  0  0
 17 34  1  0  0  0  0
 18 35  1  0  0  0  0
 18 36  1  0  0  0  0
M  END
> <s_m_source_file>
AV-unprocessed.smi

> <i_m_source_file_index>
330

> <i_lp_mmshare_version>
43012

> <i_f3d_flags>
0

> <s_epik_input>
W0NIM11jMVtjSF1zYyg9TyluMVtDSDJdQyg9TylbTkhdW0NIXShbQ0hdMltDSDJdW0NIMl0yKVtDSF0zW0NIMl1bQ0gyXTM=

> <s_epik_cmdline>
J2VwaWtfcHl0aG9uJywgJy1waCcsICc3LjAnLCAnLXRuJywgJzgnLCAnLW1hJywgJzIwMCcsICctbWV0YWxfYmluZGluZycsICctaW1hZScsICc8aW5maWxlLm1hZT4nLCAnLW9tYWUnLCAnPG91dGZpbGUubWFlPic=

> <r_lp_tautomer_probability>
1

> <r_epik_Ionization_Penalty>
1.36851e-06

> <r_epik_Ionization_Penalty_Charging>
1.26835e-06

> <r_epik_Ionization_Penalty_Neutral>
1.00162e-07

> <r_epik_State_Penalty>
-0

> <r_epik_Charging_Adjusted_Penalty>
1.26835e-06

> <i_epik_Tot_Q>
0

> <i_epik_Tot_abs_Q>
0

> <r_epik_Metal_State_Penalty>
-0

> <b_epik_Metal_Only>
0

> <s_lp_Force_Field>
OPLS_2005

> <r_lp_Energy>
27.3766

> <b_lp_Chiralities_Consistent>
1

> <s_lp_Variant>
AV-unprocessed.smi:330-1

> <Gold.Version>
5.8.1

> <Gold.Id.Protein>
6NUR|6NUR_protein|mol2

> <Gold.PLP.Fitness>
43.9689

> <Gold.PLP.PLP>
-41.4172

> <Gold.PLP.part.hbond>
-1.0000

> <Gold.PLP.part.metal>
0.0000

> <Gold.PLP.part.buried>
-4.5084

> <Gold.PLP.part.nonpolar>
-35.5525

> <Gold.PLP.part.repulsive>
0.1991

> <Gold.PLP.ligand.clash>
0.0000

> <Gold.PLP.ligand.torsion>
1.2242

> <Gold.PLP.Chemscore.Hbond>
0.9516

> <Gold.PLP.Chemscore.CHOScore>
0.0000

> <Gold.PLP.Chemscore.Metal>
0.0000

> <Gold.Chemscore.Hbonds>
donor molecule, donor type, donor heavy atom, donor atom, acceptor molecule, acceptor atom, score
      P1  H  7997  8009       L1     6  0.93

> <Gold.PLP.Chemscore.Internal.Correction>
2.1454

> <Gold.Rescore>
     Score         DG    S(hbond)    S(metal)    S(lipo)     H(rot)  DE(clash)    DE(int)     intcor
     14.90     -16.13       0.88        0.00     102.86       1.69       0.06       1.17       ----

> <Gold.Chemscore.Fitness>
14.9030

> <Gold.Chemscore.DG>
-16.1301

> <Gold.Chemscore.ZeroCoef>
-5.4800

> <Gold.Chemscore.Hbond>
0.8786

> <Gold.Chemscore.Metal>
0.0000

> <Gold.Chemscore.Lipo>
102.8588

> <Gold.Chemscore.Internal_Hbond>
0.0000

> <Gold.Chemscore.DEClash>
0.0589

> <Gold.Chemscore.DEInternal>
1.1682

> <Gold.Chemscore.Rot>
1.6871

> <Gold.Chemscore.Internal.Correction>
   9.000000E+99

> <Gold.Chemscore.Hbonds>
donor molecule, donor type, donor heavy atom, donor atom, acceptor molecule, acceptor atom, score
      P1  H  7997  8009       L1     6  0.84

> <Gold.Chemscore.Hbond.Weighted>
-2.9345

> <Gold.Chemscore.Metal.Weighted>
-0.0000

> <Gold.Chemscore.Lipo.Weighted>
-12.0345

> <Gold.Chemscore.Internal_Hbond.Weighted>
0.0000

> <Gold.Chemscore.DEClash.Weighted>
0.0589

> <Gold.Chemscore.DEInternal.Weighted>
1.1682

> <Gold.Chemscore.Rot.Weighted>
4.3189

> <Gold.Chemscore.Internal.Correction.Weighted>
   9.000000E+99

> <Gold.Protein.RotatedTorsions>
[ 6907 6896 6895 6894 ] final  168.64 input  -60.11 | X-H torsion
[ 7974 7965 7964 7962 ] final  172.47 input  175.53 | X-H torsion
[ 8008 7997 7996 7995 ] final  164.75 input   59.86 | X-H torsion
[ 10167 10162 10161 10158 ] final  101.97 input  -65.29 | X-H torsion
[ 10718 10713 10712 10709 ] final -110.36 input   66.30 | X-H torsion
[ 10763 10752 10751 10750 ] final -117.64 input  -60.55 | X-H torsion
[ 11005 11000 10999 10996 ] final  149.93 input  -57.11 | X-H torsion

> <Gold.Protein.ActiveResidues>
 VAL166  LYS551  ARG553  GLY616  TRP617  ASP618  TYR619  PRO620  LYS621  CYS622 
 ASP623  PHE694  ASN695  SER759  ASP760  ASP761  ALA762  ILE779  LEU786  VAL792 
 PHE793  MET794  SER795  GLU796  ALA797  LYS798  CYS799  TRP800  GLU811  SER814 

> <Gold.Protein.RotatedAtoms>
  151.8444  133.3429  159.3653 H   0  0  0  0  0  0  0  0  0  0  0  0  # atno 6907 bound_to 6896
  150.7225  134.5360  159.5733 H   0  0  0  0  0  0  0  0  0  0  0  0  # atno 6908 bound_to 6896
  152.2840  134.7797  160.0442 H   0  0  0  0  0  0  0  0  0  0  0  0  # atno 6909 bound_to 6896
  144.7267  139.9504  143.6432 H   0  0  0  0  0  0  0  0  0  0  0  0  # atno 7974 bound_to 7965
  156.1855  140.1688  156.8192 H   0  0  0  0  0  0  0  0  0  0  0  0  # atno 8008 bound_to 7997
  154.5410  140.0737  156.8541 H   0  0  0  0  0  0  0  0  0  0  0  0  # atno 8009 bound_to 7997
  155.3216  140.3373  155.4243 H   0  0  0  0  0  0  0  0  0  0  0  0  # atno 8010 bound_to 7997
  139.7391  144.7016  151.0603 H   0  0  0  0  0  0  0  0  0  0  0  0  # atno 10167 bound_to 10162
  156.0587  130.5811  150.8227 H   0  0  0  0  0  0  0  0  0  0  0  0  # atno 10718 bound_to 10713
  154.8561  135.4302  154.2012 H   0  0  0  0  0  0  0  0  0  0  0  0  # atno 10763 bound_to 10752
  153.3058  135.6972  153.7167 H   0  0  0  0  0  0  0  0  0  0  0  0  # atno 10764 bound_to 10752
  153.6279  135.3490  155.3006 H   0  0  0  0  0  0  0  0  0  0  0  0  # atno 10765 bound_to 10752
  140.1087  134.8938  157.1904 H   0  0  0  0  0  0  0  0  0  0  0  0  # atno 11005 bound_to 11000
  146.0716  139.3705  143.0519 LP  0  0  0  0  0  0  0  0  0  0  0  0  # atno 17320 bound_to 7965
  145.7960  140.9793  143.1024 LP  0  0  0  0  0  0  0  0  0  0  0  0  # atno 17321 bound_to 7965
  140.7783  143.4947  150.9848 LP  0  0  0  0  0  0  0  0  0  0  0  0  # atno 17342 bound_to 10162
  139.8635  143.7284  152.3172 LP  0  0  0  0  0  0  0  0  0  0  0  0  # atno 17343 bound_to 10162
  157.5578  131.0945  150.9604 LP  0  0  0  0  0  0  0  0  0  0  0  0  # atno 17370 bound_to 10713
  156.9848  130.5541  149.5299 LP  0  0  0  0  0  0  0  0  0  0  0  0  # atno 17371 bound_to 10713
  140.3121  134.3012  155.7264 LP  0  0  0  0  0  0  0  0  0  0  0  0  # atno 17394 bound_to 11000
  141.2125  133.7656  156.9791 LP  0  0  0  0  0  0  0  0  0  0  0  0  # atno 17395 bound_to 11000

$$$$
