AV-unprocessed.smi:2009|AV-procd|sdf|8146|dock9
  -GOLD-   2272010383D 1   1.00000     0.00000
 Structure written by MMmdl.
 38 39  0  0  0  0  0  0  0  0  1 V2000
  145.9044  138.0297  152.3617 C   0  0  0  0  0  0  0  0  0  0  0  0
  145.6671  136.5119  152.3684 C   0  0  1  0  0  0  0  0  0  0  0  0
  145.5128  135.9069  150.9539 C   0  0  0  0  0  0  0  0  0  0  0  0
  145.4233  134.4555  150.9413 N   0  0  0  0  0  0  0  0  0  0  0  0
  144.3374  133.6653  150.6263 C   0  0  0  0  0  0  0  0  0  0  0  0
  144.7280  132.3639  150.7612 C   0  0  0  0  0  0  0  0  0  0  0  0
  146.0867  132.4599  151.1723 C   0  0  0  0  0  0  0  0  0  0  0  0
  146.4987  133.7120  151.2826 N   0  0  0  0  0  0  0  0  0  0  0  0
  146.7572  135.8615  153.1001 N   0  0  0  0  0  0  0  0  0  0  0  0
  147.0195  136.2106  154.7689 S   0  0  0  0  0  0  0  0  0  0  0  0
  145.9513  137.1189  155.2141 O   0  0  0  0  0  0  0  0  0  0  0  0
  147.2901  134.9549  155.4850 O   0  0  0  0  0  0  0  0  0  0  0  0
  148.5004  137.0995  154.6401 N   0  0  0  0  0  0  0  0  0  0  0  0
  148.4222  138.5571  154.8607 C   0  0  0  0  0  0  0  0  0  0  0  0
  149.6858  139.2724  154.3533 C   0  0  0  0  0  0  0  0  0  0  0  0
  150.9512  138.6748  154.9754 C   0  0  0  0  0  0  0  0  0  0  0  0
  150.9913  137.1703  154.6934 C   0  0  0  0  0  0  0  0  0  0  0  0
  149.7177  136.4753  155.2022 C   0  0  0  0  0  0  0  0  0  0  0  0
  145.1102  138.5466  151.8226 H   0  0  0  0  0  0  0  0  0  0  0  0
  146.8525  138.2891  151.8894 H   0  0  0  0  0  0  0  0  0  0  0  0
  145.9238  138.4266  153.3772 H   0  0  0  0  0  0  0  0  0  0  0  0
  144.7423  136.3270  152.9162 H   0  0  0  0  0  0  0  0  0  0  0  0
  144.6386  136.3161  150.4472 H   0  0  0  0  0  0  0  0  0  0  0  0
  146.3697  136.1936  150.3429 H   0  0  0  0  0  0  0  0  0  0  0  0
  143.3889  134.0909  150.3335 H   0  0  0  0  0  0  0  0  0  0  0  0
  144.1335  131.4784  150.5939 H   0  0  0  0  0  0  0  0  0  0  0  0
  146.7806  131.6626  151.3948 H   0  0  0  0  0  0  0  0  0  0  0  0
  147.6249  135.7920  152.5691 H   0  0  0  0  0  0  0  0  0  0  0  0
  147.5492  138.9603  154.3475 H   0  0  0  0  0  0  0  0  0  0  0  0
  148.2784  138.7462  155.9252 H   0  0  0  0  0  0  0  0  0  0  0  0
  149.7381  139.1914  153.2669 H   0  0  0  0  0  0  0  0  0  0  0  0
  149.6263  140.3368  154.5812 H   0  0  0  0  0  0  0  0  0  0  0  0
  151.8386  139.1594  154.5680 H   0  0  0  0  0  0  0  0  0  0  0  0
  150.9579  138.8533  156.0512 H   0  0  0  0  0  0  0  0  0  0  0  0
  151.0961  137.0000  153.6209 H   0  0  0  0  0  0  0  0  0  0  0  0
  151.8691  136.7267  155.1636 H   0  0  0  0  0  0  0  0  0  0  0  0
  149.6688  136.5237  156.2907 H   0  0  0  0  0  0  0  0  0  0  0  0
  149.7550  135.4188  154.9390 H   0  0  0  0  0  0  0  0  0  0  0  0
  1  2  1  0  0  0  0
  1 19  1  0  0  0  0
  1 20  1  0  0  0  0
  1 21  1  0  0  0  0
  2  3  1  0  0  0  0
  2  9  1  0  0  0  0
  2 22  1  0  0  0  0
  3  4  1  0  0  0  0
  3 23  1  0  0  0  0
  3 24  1  0  0  0  0
  4  8  1  0  0  0  0
  4  5  1  0  0  0  0
  5  6  2  0  0  0  0
  5 25  1  0  0  0  0
  6  7  1  0  0  0  0
  6 26  1  0  0  0  0
  7  8  2  0  0  0  0
  7 27  1  0  0  0  0
  9 10  1  0  0  0  0
  9 28  1  0  0  0  0
 10 11  2  0  0  0  0
 10 12  2  0  0  0  0
 10 13  1  0  0  0  0
 13 18  1  0  0  0  0
 13 14  1  0  0  0  0
 14 15  1  0  0  0  0
 14 29  1  0  0  0  0
 14 30  1  0  0  0  0
 15 16  1  0  0  0  0
 15 31  1  0  0  0  0
 15 32  1  0  0  0  0
 16 17  1  0  0  0  0
 16 33  1  0  0  0  0
 16 34  1  0  0  0  0
 17 18  1  0  0  0  0
 17 35  1  0  0  0  0
 17 36  1  0  0  0  0
 18 37  1  0  0  0  0
 18 38  1  0  0  0  0
M  END
> <s_m_source_file>
AV-unprocessed.smi

> <i_m_source_file_index>
2009

> <i_lp_mmshare_version>
43012

> <i_f3d_flags>
0

> <s_epik_input>
bjFbY0hdW2NIXVtjSF1uMVtDSDJdW0NAQEhdKFtDSDNdKVtOSF1TKD1PKSg9TylOMltDSDJdW0NIMl1bQ0gyXVtDSDJdW0NIMl0y

> <s_epik_cmdline>
J2VwaWtfcHl0aG9uJywgJy1waCcsICc3LjAnLCAnLXRuJywgJzgnLCAnLW1hJywgJzIwMCcsICctbWV0YWxfYmluZGluZycsICctaW1hZScsICc8aW5maWxlLm1hZT4nLCAnLW9tYWUnLCAnPG91dGZpbGUubWFlPic=

> <r_lp_tautomer_probability>
1

> <r_epik_Ionization_Penalty>
0.0313937

> <r_epik_Ionization_Penalty_Charging>
0

> <r_epik_Ionization_Penalty_Neutral>
0.0313937

> <r_epik_State_Penalty>
0.0259441

> <r_epik_Charging_Adjusted_Penalty>
0.0259441

> <i_epik_Tot_Q>
0

> <i_epik_Tot_abs_Q>
0

> <r_epik_Metal_State_Penalty>
0.365037

> <b_epik_Metal_Only>
0

> <s_lp_Force_Field>
OPLS_2005

> <r_lp_Energy>
8.11637

> <b_lp_Chiralities_Consistent>
1

> <s_lp_Variant>
AV-unprocessed.smi:2009-2

> <Gold.Version>
5.8.1

> <Gold.Id.Protein>
6NUR|6NUR_protein|mol2

> <Gold.PLP.Fitness>
35.3987

> <Gold.PLP.PLP>
-26.8567

> <Gold.PLP.part.hbond>
-0.9650

> <Gold.PLP.part.metal>
0.0000

> <Gold.PLP.part.buried>
-5.5564

> <Gold.PLP.part.nonpolar>
-23.6185

> <Gold.PLP.part.repulsive>
1.6373

> <Gold.PLP.ligand.clash>
0.0000

> <Gold.PLP.ligand.torsion>
0.6158

> <Gold.PLP.Chemscore.Hbond>
1.0000

> <Gold.PLP.Chemscore.CHOScore>
1.9946

> <Gold.PLP.Chemscore.Metal>
0.0000

> <Gold.Chemscore.Hbonds>
donor molecule, donor type, donor heavy atom, donor atom, acceptor molecule, acceptor atom, score
      L1  H     9    28       P1  7948  1.00
      L1  C     5    25       P1 10186  1.00
      L1  C     7    27       P1 10747  0.84

> <Gold.PLP.Chemscore.Internal.Correction>
0.7899

> <Gold.Rescore>
     Score         DG    S(hbond)    S(metal)    S(lipo)     H(rot)  DE(clash)    DE(int)     intcor
     11.24     -11.96       0.97        0.00      67.66       1.82       0.07       0.65       ----

> <Gold.Chemscore.Fitness>
11.2368

> <Gold.Chemscore.DG>
-11.9569

> <Gold.Chemscore.ZeroCoef>
-5.4800

> <Gold.Chemscore.Hbond>
0.9670

> <Gold.Chemscore.Metal>
0.0000

> <Gold.Chemscore.Lipo>
67.6566

> <Gold.Chemscore.Internal_Hbond>
0.0000

> <Gold.Chemscore.DEClash>
0.0669

> <Gold.Chemscore.DEInternal>
0.6532

> <Gold.Chemscore.Rot>
1.8237

> <Gold.Chemscore.Internal.Correction>
   9.000000E+99

> <Gold.Chemscore.Hbonds>
donor molecule, donor type, donor heavy atom, donor atom, acceptor molecule, acceptor atom, score
      L1  H     9    28       P1  7948  0.95

> <Gold.Chemscore.Hbond.Weighted>
-3.2297

> <Gold.Chemscore.Metal.Weighted>
-0.0000

> <Gold.Chemscore.Lipo.Weighted>
-7.9158

> <Gold.Chemscore.Internal_Hbond.Weighted>
0.0000

> <Gold.Chemscore.DEClash.Weighted>
0.0669

> <Gold.Chemscore.DEInternal.Weighted>
0.6532

> <Gold.Chemscore.Rot.Weighted>
4.6686

> <Gold.Chemscore.Internal.Correction.Weighted>
   9.000000E+99

> <Gold.Protein.RotatedTorsions>
[ 6907 6896 6895 6894 ] final  178.49 input  -60.11 | X-H torsion
[ 7974 7965 7964 7962 ] final  131.03 input  175.53 | X-H torsion
[ 8008 7997 7996 7995 ] final  104.93 input   59.86 | X-H torsion
[ 10167 10162 10161 10158 ] final  -28.18 input  -65.29 | X-H torsion
[ 10718 10713 10712 10709 ] final   10.72 input   66.30 | X-H torsion
[ 10763 10752 10751 10750 ] final  -63.61 input  -60.55 | X-H torsion
[ 11005 11000 10999 10996 ] final   28.23 input  -57.11 | X-H torsion

> <Gold.Protein.ActiveResidues>
 VAL166  LYS551  ARG553  GLY616  TRP617  ASP618  TYR619  PRO620  LYS621  CYS622 
 ASP623  PHE694  ASN695  SER759  ASP760  ASP761  ALA762  ILE779  LEU786  VAL792 
 PHE793  MET794  SER795  GLU796  ALA797  LYS798  CYS799  TRP800  GLU811  SER814 

> <Gold.Protein.RotatedAtoms>
  151.6869  133.3311  159.3233 H   0  0  0  0  0  0  0  0  0  0  0  0  # atno 6907 bound_to 6896
  150.7797  134.6732  159.6412 H   0  0  0  0  0  0  0  0  0  0  0  0  # atno 6908 bound_to 6896
  152.3850  134.6534  160.0181 H   0  0  0  0  0  0  0  0  0  0  0  0  # atno 6909 bound_to 6896
  145.0116  139.4215  143.5242 H   0  0  0  0  0  0  0  0  0  0  0  0  # atno 7974 bound_to 7965
  156.1615  140.3139  155.8815 H   0  0  0  0  0  0  0  0  0  0  0  0  # atno 8008 bound_to 7997
  155.3772  140.0485  157.3061 H   0  0  0  0  0  0  0  0  0  0  0  0  # atno 8009 bound_to 7997
  154.5151  140.2178  155.9092 H   0  0  0  0  0  0  0  0  0  0  0  0  # atno 8010 bound_to 7997
  140.7272  143.4031  151.1231 H   0  0  0  0  0  0  0  0  0  0  0  0  # atno 10167 bound_to 10162
  156.9851  130.6021  149.5680 H   0  0  0  0  0  0  0  0  0  0  0  0  # atno 10718 bound_to 10713
  154.3176  135.6203  153.5493 H   0  0  0  0  0  0  0  0  0  0  0  0  # atno 10763 bound_to 10752
  152.9823  135.5716  154.5107 H   0  0  0  0  0  0  0  0  0  0  0  0  # atno 10764 bound_to 10752
  154.4768  135.2861  155.1577 H   0  0  0  0  0  0  0  0  0  0  0  0  # atno 10765 bound_to 10752
  140.3178  134.2577  155.7722 H   0  0  0  0  0  0  0  0  0  0  0  0  # atno 11005 bound_to 11000
  146.3471  139.9563  142.8723 LP  0  0  0  0  0  0  0  0  0  0  0  0  # atno 17320 bound_to 7965
  145.2016  140.9857  143.4152 LP  0  0  0  0  0  0  0  0  0  0  0  0  # atno 17321 bound_to 7965
  139.7654  143.8573  152.3109 LP  0  0  0  0  0  0  0  0  0  0  0  0  # atno 17342 bound_to 10162
  139.8473  144.7181  150.9256 LP  0  0  0  0  0  0  0  0  0  0  0  0  # atno 17343 bound_to 10162
  156.0229  130.5323  150.8325 LP  0  0  0  0  0  0  0  0  0  0  0  0  # atno 17370 bound_to 10713
  157.5498  131.0943  150.9711 LP  0  0  0  0  0  0  0  0  0  0  0  0  # atno 17371 bound_to 10713
  141.2093  133.7751  157.0002 LP  0  0  0  0  0  0  0  0  0  0  0  0  # atno 17394 bound_to 11000
  140.0968  134.9559  157.1862 LP  0  0  0  0  0  0  0  0  0  0  0  0  # atno 17395 bound_to 11000

$$$$
