AV-unprocessed.smi:1644|AV-procd|sdf|6588|dock7
  -GOLD-   22720 7283D 1   1.00000     0.00000
 Structure written by MMmdl.
 50 52  0  0  0  0  0  0  0  0  2 V2000
  149.2528  130.8997  153.8356 C   0  0  0  0  0  0  0  0  0  0  0  0
  149.0747  132.4196  153.9179 C   0  0  0  0  0  0  0  0  0  0  0  0
  149.5058  132.9898  155.2786 C   0  0  0  0  0  0  0  0  0  0  0  0
  149.2167  134.4968  155.4239 C   0  0  2  0  0  0  0  0  0  0  0  0
  149.9066  135.2979  154.4322 N   0  0  0  0  0  0  0  0  0  0  0  0
  150.7370  136.1940  154.9803 C   0  0  0  0  0  0  0  0  0  0  0  0
  151.4408  136.9847  154.3540 O   0  0  0  0  0  0  0  0  0  0  0  0
  150.6714  136.0695  156.3185 N   0  0  0  0  0  0  0  0  0  0  0  0
  151.4583  136.8679  157.2639 C   0  0  0  0  0  0  0  0  0  0  0  0
  150.9244  138.3103  157.3812 C   0  0  2  0  0  0  0  0  0  0  0  0
  149.6055  138.3460  156.8710 O   0  0  0  0  0  0  0  0  0  0  0  0
  151.7905  139.3033  156.5812 C   0  0  0  0  0  0  0  0  0  0  0  0
  151.3113  140.6891  156.6847 N   0  0  0  0  0  0  0  0  0  0  0  0
  150.5274  141.4003  155.8300 C   0  0  0  0  0  0  0  0  0  0  0  0
  150.3613  142.6428  156.3617 N   0  3  0  0  0  0  0  0  0  0  0  0
  151.0517  142.7272  157.5726 C   0  0  0  0  0  0  0  0  0  0  0  0
  151.1846  143.7781  158.4722 C   0  0  0  0  0  0  0  0  0  0  0  0
  151.9684  143.5456  159.6250 C   0  0  0  0  0  0  0  0  0  0  0  0
  152.1379  144.6753  160.6267 C   0  0  0  0  0  0  0  0  0  0  0  0
  152.5869  142.2876  159.8455 C   0  0  0  0  0  0  0  0  0  0  0  0
  153.4294  142.0485  161.0871 C   0  0  0  0  0  0  0  0  0  0  0  0
  152.4381  141.2309  158.9189 C   0  0  0  0  0  0  0  0  0  0  0  0
  151.6633  141.4767  157.7874 C   0  0  0  0  0  0  0  0  0  0  0  0
  149.8260  135.0950  156.6780 C   0  0  0  0  0  0  0  0  0  0  0  0
  149.5690  134.7139  157.8199 O   0  0  0  0  0  0  0  0  0  0  0  0
  148.9324  130.5233  152.8639 H   0  0  0  0  0  0  0  0  0  0  0  0
  148.6635  130.3923  154.5998 H   0  0  0  0  0  0  0  0  0  0  0  0
  150.2969  130.6176  153.9740 H   0  0  0  0  0  0  0  0  0  0  0  0
  149.6496  132.8881  153.1185 H   0  0  0  0  0  0  0  0  0  0  0  0
  148.0291  132.6685  153.7331 H   0  0  0  0  0  0  0  0  0  0  0  0
  148.9826  132.4487  156.0685 H   0  0  0  0  0  0  0  0  0  0  0  0
  150.5691  132.7976  155.4320 H   0  0  0  0  0  0  0  0  0  0  0  0
  148.1459  134.7025  155.3954 H   0  0  0  0  0  0  0  0  0  0  0  0
  149.7687  135.1799  153.4389 H   0  0  0  0  0  0  0  0  0  0  0  0
  151.4071  136.3794  158.2387 H   0  0  0  0  0  0  0  0  0  0  0  0
  152.5180  136.8641  157.0007 H   0  0  0  0  0  0  0  0  0  0  0  0
  150.9056  138.6237  158.4262 H   0  0  0  0  0  0  0  0  0  0  0  0
  149.0087  138.4911  157.5894 H   0  0  0  0  0  0  0  0  0  0  0  0
  152.8118  139.2938  156.9643 H   0  0  0  0  0  0  0  0  0  0  0  0
  151.8572  139.0189  155.5307 H   0  0  0  0  0  0  0  0  0  0  0  0
  150.1129  141.0439  154.8979 H   0  0  0  0  0  0  0  0  0  0  0  0
  150.7115  144.7333  158.2966 H   0  0  0  0  0  0  0  0  0  0  0  0
  151.7326  144.3897  161.5977 H   0  0  0  0  0  0  0  0  0  0  0  0
  151.6196  145.5782  160.3020 H   0  0  0  0  0  0  0  0  0  0  0  0
  153.1925  144.9236  160.7501 H   0  0  0  0  0  0  0  0  0  0  0  0
  153.8075  141.0264  161.1219 H   0  0  0  0  0  0  0  0  0  0  0  0
  152.8397  142.2144  161.9889 H   0  0  0  0  0  0  0  0  0  0  0  0
  154.2864  142.7219  161.1035 H   0  0  0  0  0  0  0  0  0  0  0  0
  152.9162  140.2767  159.0835 H   0  0  0  0  0  0  0  0  0  0  0  0
  149.8185  143.3777  155.9265 H   0  0  0  0  0  0  0  0  0  0  0  0
  1  2  1  0  0  0  0
  1 26  1  0  0  0  0
  1 27  1  0  0  0  0
  1 28  1  0  0  0  0
  2  3  1  0  0  0  0
  2 29  1  0  0  0  0
  2 30  1  0  0  0  0
  3  4  1  0  0  0  0
  3 31  1  0  0  0  0
  3 32  1  0  0  0  0
  4 24  1  0  0  0  0
  4  5  1  0  0  0  0
  4 33  1  0  0  0  0
  5  6  1  0  0  0  0
  5 34  1  0  0  0  0
  6  7  2  0  0  0  0
  6  8  1  0  0  0  0
  8  9  1  0  0  0  0
  8 24  1  0  0  0  0
  9 10  1  0  0  0  0
  9 35  1  0  0  0  0
  9 36  1  0  0  0  0
 10 11  1  0  0  0  0
 10 12  1  0  0  0  0
 10 37  1  0  0  0  0
 11 38  1  0  0  0  0
 12 13  1  0  0  0  0
 12 39  1  0  0  0  0
 12 40  1  0  0  0  0
 13 23  1  0  0  0  0
 13 14  1  0  0  0  0
 14 15  2  0  0  0  0
 14 41  1  0  0  0  0
 15 16  1  0  0  0  0
 15 50  1  0  0  0  0
 16 23  2  0  0  0  0
 16 17  1  0  0  0  0
 17 18  2  0  0  0  0
 17 42  1  0  0  0  0
 18 19  1  0  0  0  0
 18 20  1  0  0  0  0
 19 43  1  0  0  0  0
 19 44  1  0  0  0  0
 19 45  1  0  0  0  0
 20 21  1  0  0  0  0
 20 22  2  0  0  0  0
 21 46  1  0  0  0  0
 21 47  1  0  0  0  0
 21 48  1  0  0  0  0
 22 23  1  0  0  0  0
 22 49  1  0  0  0  0
 24 25  2  0  0  0  0
M  CHG  1  15   1
M  END
> <s_m_source_file>
AV-unprocessed.smi

> <i_m_source_file_index>
1644

> <i_lp_mmshare_version>
43012

> <i_f3d_flags>
0

> <s_epik_input>
W0NIM11bQ0gyXVtDSDJdW0NAQEhdMVtOSF1DKD1PKU4oQzE9TylbQ0gyXVtDQEhdKFtPSF0pW0NIMl1uKFtjSF1uMiljKGMyMylbY0hdYyhbQ0gzXSljKFtjSF0zKVtDSDNd

> <s_epik_cmdline>
J2VwaWtfcHl0aG9uJywgJy1waCcsICc3LjAnLCAnLXRuJywgJzgnLCAnLW1hJywgJzIwMCcsICctbWV0YWxfYmluZGluZycsICctaW1hZScsICc8aW5maWxlLm1hZT4nLCAnLW9tYWUnLCAnPG91dGZpbGUubWFlPic=

> <r_lp_tautomer_probability>
1

> <r_epik_Ionization_Penalty>
1.06742

> <r_epik_Ionization_Penalty_Charging>
1.06736

> <r_epik_Ionization_Penalty_Neutral>
5.56132e-05

> <r_epik_State_Penalty>
1.12163

> <r_epik_Charging_Adjusted_Penalty>
2.18899

> <i_epik_Tot_Q>
1

> <i_epik_Tot_abs_Q>
1

> <r_epik_Metal_State_Penalty>
1.26636

> <b_epik_Metal_Only>
0

> <s_lp_Force_Field>
OPLS_2005

> <r_lp_Energy>
29.1926

> <b_lp_Chiralities_Consistent>
1

> <s_lp_Variant>
AV-unprocessed.smi:1644-5

> <Gold.Version>
5.8.1

> <Gold.Id.Protein>
6NUR|6NUR_protein|mol2

> <Gold.PLP.Fitness>
58.2345

> <Gold.PLP.PLP>
-48.2203

> <Gold.PLP.part.hbond>
-4.1568

> <Gold.PLP.part.metal>
0.0000

> <Gold.PLP.part.buried>
-7.1323

> <Gold.PLP.part.nonpolar>
-39.4084

> <Gold.PLP.part.repulsive>
0.7249

> <Gold.PLP.ligand.clash>
0.0000

> <Gold.PLP.ligand.torsion>
1.1032

> <Gold.PLP.Chemscore.Hbond>
4.0373

> <Gold.PLP.Chemscore.CHOScore>
0.0000

> <Gold.PLP.Chemscore.Metal>
0.0000

> <Gold.Chemscore.Hbonds>
donor molecule, donor type, donor heavy atom, donor atom, acceptor molecule, acceptor atom, score
      L1  H     5    34       P1  7948  0.24
      L1  H    15    50       P1  8028  2.00
      P1  H  6896  6908       L1    25  1.00
      P1  H 10752 10765       L1     7  0.76

> <Gold.PLP.Chemscore.Internal.Correction>
0.1087

> <Gold.Rescore>
     Score         DG    S(hbond)    S(metal)    S(lipo)     H(rot)  DE(clash)    DE(int)     intcor
     19.08     -20.29       2.59        0.00     113.71       2.80       0.00       1.21       ----

> <Gold.Chemscore.Fitness>
19.0786

> <Gold.Chemscore.DG>
-20.2927

> <Gold.Chemscore.ZeroCoef>
-5.4800

> <Gold.Chemscore.Hbond>
2.5948

> <Gold.Chemscore.Metal>
0.0000

> <Gold.Chemscore.Lipo>
113.7093

> <Gold.Chemscore.Internal_Hbond>
0.0000

> <Gold.Chemscore.DEClash>
0.0029

> <Gold.Chemscore.DEInternal>
1.2112

> <Gold.Chemscore.Rot>
2.7961

> <Gold.Chemscore.Internal.Correction>
   9.000000E+99

> <Gold.Chemscore.Hbonds>
donor molecule, donor type, donor heavy atom, donor atom, acceptor molecule, acceptor atom, score
      L1  H    15    50       P1  8028  1.00
      P1  H  6896  6908       L1    25  0.97
      P1  H 10752 10765       L1     7  0.14

> <Gold.Chemscore.Hbond.Weighted>
-8.6667

> <Gold.Chemscore.Metal.Weighted>
-0.0000

> <Gold.Chemscore.Lipo.Weighted>
-13.3040

> <Gold.Chemscore.Internal_Hbond.Weighted>
0.0000

> <Gold.Chemscore.DEClash.Weighted>
0.0029

> <Gold.Chemscore.DEInternal.Weighted>
1.2112

> <Gold.Chemscore.Rot.Weighted>
7.1580

> <Gold.Chemscore.Internal.Correction.Weighted>
   9.000000E+99

> <Gold.Protein.RotatedTorsions>
[ 6907 6896 6895 6894 ] final  144.72 input  -60.11 | X-H torsion
[ 7974 7965 7964 7962 ] final   30.77 input  175.53 | X-H torsion
[ 8008 7997 7996 7995 ] final   -0.64 input   59.86 | X-H torsion
[ 10167 10162 10161 10158 ] final   24.82 input  -65.29 | X-H torsion
[ 10718 10713 10712 10709 ] final  153.00 input   66.30 | X-H torsion
[ 10763 10752 10751 10750 ] final  141.91 input  -60.55 | X-H torsion
[ 11005 11000 10999 10996 ] final  -74.14 input  -57.11 | X-H torsion

> <Gold.Protein.ActiveResidues>
 VAL166  LYS551  ARG553  GLY616  TRP617  ASP618  TYR619  PRO620  LYS621  CYS622 
 ASP623  PHE694  ASN695  SER759  ASP760  ASP761  ALA762  ILE779  LEU786  VAL792 
 PHE793  MET794  SER795  GLU796  ALA797  LYS798  CYS799  TRP800  GLU811  SER814 

> <Gold.Protein.RotatedAtoms>
  152.1900  133.4766  159.5002 H   0  0  0  0  0  0  0  0  0  0  0  0  # atno 6907 bound_to 6896
  150.6949  134.1725  159.4226 H   0  0  0  0  0  0  0  0  0  0  0  0  # atno 6908 bound_to 6896
  151.9639  135.0110  160.0600 H   0  0  0  0  0  0  0  0  0  0  0  0  # atno 6909 bound_to 6896
  146.1592  139.6745  142.9045 H   0  0  0  0  0  0  0  0  0  0  0  0  # atno 7974 bound_to 7965
  154.6557  140.2579  155.7164 H   0  0  0  0  0  0  0  0  0  0  0  0  # atno 8008 bound_to 7997
  156.2596  140.2859  156.0930 H   0  0  0  0  0  0  0  0  0  0  0  0  # atno 8009 bound_to 7997
  155.1383  140.0380  157.2782 H   0  0  0  0  0  0  0  0  0  0  0  0  # atno 8010 bound_to 7997
  140.5157  144.0087  150.6393 H   0  0  0  0  0  0  0  0  0  0  0  0  # atno 10167 bound_to 10162
  157.2505  131.0778  151.1733 H   0  0  0  0  0  0  0  0  0  0  0  0  # atno 10718 bound_to 10713
  153.9470  135.2974  155.3440 H   0  0  0  0  0  0  0  0  0  0  0  0  # atno 10763 bound_to 10752
  154.7446  135.5008  153.9186 H   0  0  0  0  0  0  0  0  0  0  0  0  # atno 10764 bound_to 10752
  153.1013  135.6735  153.9775 H   0  0  0  0  0  0  0  0  0  0  0  0  # atno 10765 bound_to 10752
  141.1631  133.6901  156.7319 H   0  0  0  0  0  0  0  0  0  0  0  0  # atno 11005 bound_to 11000
  145.4632  141.0433  143.2740 LP  0  0  0  0  0  0  0  0  0  0  0  0  # atno 17320 bound_to 7965
  144.8003  139.6153  143.7074 LP  0  0  0  0  0  0  0  0  0  0  0  0  # atno 17321 bound_to 7965
  140.3422  143.3013  152.0576 LP  0  0  0  0  0  0  0  0  0  0  0  0  # atno 17342 bound_to 10162
  139.4908  144.6434  151.6828 LP  0  0  0  0  0  0  0  0  0  0  0  0  # atno 17343 bound_to 10162
  157.3283  130.6972  149.6309 LP  0  0  0  0  0  0  0  0  0  0  0  0  # atno 17370 bound_to 10713
  155.9666  130.4315  150.4923 LP  0  0  0  0  0  0  0  0  0  0  0  0  # atno 17371 bound_to 10713
  140.2739  134.8370  157.3872 LP  0  0  0  0  0  0  0  0  0  0  0  0  # atno 17394 bound_to 11000
  140.1496  134.4867  155.7971 LP  0  0  0  0  0  0  0  0  0  0  0  0  # atno 17395 bound_to 11000

$$$$
