AV-unprocessed.smi:148|AV-procd|sdf|1222|dock9
  -GOLD-   2262018413D 1   1.00000     0.00000
 Structure written by MMmdl.
 63 67  0  0  0  0  0  0  0  0  1 V2000
  147.3557  142.0728  155.6309 O   0  0  0  0  0  0  0  0  0  0  0  0
  148.2687  141.5952  154.6648 C   0  0  0  0  0  0  0  0  0  0  0  0
  148.0253  140.0973  154.3573 C   0  0  2  0  0  0  0  0  0  0  0  0
  146.5147  139.7453  154.2723 C   0  0  0  0  0  0  0  0  0  0  0  0
  146.2604  138.5134  153.5480 N   0  0  0  0  0  0  0  0  0  0  0  0
  146.7753  138.1559  152.3215 C   0  0  0  0  0  0  0  0  0  0  0  0
  146.4161  136.9781  151.8888 N   0  0  0  0  0  0  0  0  0  0  0  0
  145.5826  136.4958  152.8891 C   0  0  0  0  0  0  0  0  0  0  0  0
  144.8788  135.2796  153.0836 C   0  0  0  0  0  0  0  0  0  0  0  0
  144.9427  134.2713  152.1881 N   0  0  0  0  0  0  0  0  0  0  0  0
  143.6156  134.0098  151.6270 C   0  0  0  0  0  0  0  0  0  0  0  0
  143.7010  133.1108  150.3900 C   0  0  0  0  0  0  0  0  0  0  0  0
  144.4349  131.8155  150.7401 C   0  0  0  0  0  0  0  0  0  0  0  0
  145.8133  132.1393  151.3308 C   0  0  0  0  0  0  0  0  0  0  0  0
  145.7332  133.0802  152.5650 C   0  0  1  0  0  0  0  0  0  0  0  0
  147.1730  133.4066  153.0998 C   0  0  1  0  0  0  0  0  0  0  0  0
  147.2705  134.1130  154.4713 C   0  0  0  0  0  0  0  0  0  0  0  0
  148.6609  133.7992  155.0425 C   0  0  0  0  0  0  0  0  0  0  0  0
  149.2770  132.7496  154.1135 C   0  0  0  0  0  0  0  0  0  0  0  0
  148.1058  132.1933  153.3028 C   0  0  1  0  0  0  0  0  0  0  0  0
  147.4767  131.1777  154.0652 O   0  0  0  0  0  0  0  0  0  0  0  0
  144.1356  135.1423  154.2135 N   0  0  0  0  0  0  0  0  0  0  0  0
  144.0971  136.1360  155.1070 C   0  0  0  0  0  0  0  0  0  0  0  0
  144.7173  137.3182  155.0694 N   0  0  0  0  0  0  0  0  0  0  0  0
  145.4585  137.4539  153.9320 C   0  0  0  0  0  0  0  0  0  0  0  0
  148.8158  139.1662  155.3194 C   0  0  1  0  0  0  0  0  0  0  0  0
  150.3121  139.0337  155.0176 C   0  0  0  0  0  0  0  0  0  0  0  0
  150.9875  139.2798  156.3645 C   0  0  0  0  0  0  0  0  0  0  0  0
  150.0740  140.1265  157.0407 O   0  0  0  0  0  0  0  0  0  0  0  0
  148.7797  139.6020  156.7924 C   0  0  0  0  0  0  0  0  0  0  0  0
  147.6834  142.8883  155.9788 H   0  0  0  0  0  0  0  0  0  0  0  0
  148.1887  142.2002  153.7615 H   0  0  0  0  0  0  0  0  0  0  0  0
  149.2679  141.7590  155.0680 H   0  0  0  0  0  0  0  0  0  0  0  0
  148.4354  139.9211  153.3615 H   0  0  0  0  0  0  0  0  0  0  0  0
  146.0828  139.6341  155.2667 H   0  0  0  0  0  0  0  0  0  0  0  0
  145.9532  140.5409  153.7842 H   0  0  0  0  0  0  0  0  0  0  0  0
  147.4427  138.7943  151.7609 H   0  0  0  0  0  0  0  0  0  0  0  0
  142.9879  133.5339  152.3820 H   0  0  0  0  0  0  0  0  0  0  0  0
  143.1313  134.9500  151.3573 H   0  0  0  0  0  0  0  0  0  0  0  0
  142.7011  132.8893  150.0161 H   0  0  0  0  0  0  0  0  0  0  0  0
  144.2280  133.6317  149.5897 H   0  0  0  0  0  0  0  0  0  0  0  0
  143.8506  131.2399  151.4591 H   0  0  0  0  0  0  0  0  0  0  0  0
  144.5426  131.1925  149.8518 H   0  0  0  0  0  0  0  0  0  0  0  0
  146.2928  131.1950  151.5832 H   0  0  0  0  0  0  0  0  0  0  0  0
  146.4330  132.6018  150.5609 H   0  0  0  0  0  0  0  0  0  0  0  0
  145.1847  132.5563  153.3491 H   0  0  0  0  0  0  0  0  0  0  0  0
  147.6595  134.0503  152.3645 H   0  0  0  0  0  0  0  0  0  0  0  0
  147.1343  135.1904  154.4064 H   0  0  0  0  0  0  0  0  0  0  0  0
  146.5056  133.7265  155.1461 H   0  0  0  0  0  0  0  0  0  0  0  0
  149.2865  134.6916  155.0856 H   0  0  0  0  0  0  0  0  0  0  0  0
  148.5713  133.4137  156.0586 H   0  0  0  0  0  0  0  0  0  0  0  0
  149.9790  133.2399  153.4377 H   0  0  0  0  0  0  0  0  0  0  0  0
  149.8313  131.9801  154.6524 H   0  0  0  0  0  0  0  0  0  0  0  0
  148.4501  131.7713  152.3581 H   0  0  0  0  0  0  0  0  0  0  0  0
  147.6000  130.3512  153.6240 H   0  0  0  0  0  0  0  0  0  0  0  0
  143.4887  135.9547  155.9806 H   0  0  0  0  0  0  0  0  0  0  0  0
  148.3650  138.1741  155.2760 H   0  0  0  0  0  0  0  0  0  0  0  0
  150.5672  138.0548  154.6107 H   0  0  0  0  0  0  0  0  0  0  0  0
  150.6494  139.7766  154.2967 H   0  0  0  0  0  0  0  0  0  0  0  0
  151.1015  138.3475  156.9199 H   0  0  0  0  0  0  0  0  0  0  0  0
  151.9693  139.7432  156.2649 H   0  0  0  0  0  0  0  0  0  0  0  0
  147.9978  140.3274  157.0184 H   0  0  0  0  0  0  0  0  0  0  0  0
  148.6211  138.7385  157.4405 H   0  0  0  0  0  0  0  0  0  0  0  0
  1  2  1  0  0  0  0
  1 31  1  0  0  0  0
  2  3  1  0  0  0  0
  2 32  1  0  0  0  0
  2 33  1  0  0  0  0
  3  4  1  0  0  0  0
  3 26  1  0  0  0  0
  3 34  1  0  0  0  0
  4  5  1  0  0  0  0
  4 35  1  0  0  0  0
  4 36  1  0  0  0  0
  5 25  1  0  0  0  0
  5  6  1  0  0  0  0
  6  7  2  0  0  0  0
  6 37  1  0  0  0  0
  7  8  1  0  0  0  0
  8 25  2  0  0  0  0
  8  9  1  0  0  0  0
  9 10  1  0  0  0  0
  9 22  2  0  0  0  0
 10 15  1  0  0  0  0
 10 11  1  0  0  0  0
 11 12  1  0  0  0  0
 11 38  1  0  0  0  0
 11 39  1  0  0  0  0
 12 13  1  0  0  0  0
 12 40  1  0  0  0  0
 12 41  1  0  0  0  0
 13 14  1  0  0  0  0
 13 42  1  0  0  0  0
 13 43  1  0  0  0  0
 14 15  1  0  0  0  0
 14 44  1  0  0  0  0
 14 45  1  0  0  0  0
 15 16  1  0  0  0  0
 15 46  1  0  0  0  0
 16 20  1  0  0  0  0
 16 17  1  0  0  0  0
 16 47  1  0  0  0  0
 17 18  1  0  0  0  0
 17 48  1  0  0  0  0
 17 49  1  0  0  0  0
 18 19  1  0  0  0  0
 18 50  1  0  0  0  0
 18 51  1  0  0  0  0
 19 20  1  0  0  0  0
 19 52  1  0  0  0  0
 19 53  1  0  0  0  0
 20 21  1  0  0  0  0
 20 54  1  0  0  0  0
 21 55  1  0  0  0  0
 22 23  1  0  0  0  0
 23 24  2  0  0  0  0
 23 56  1  0  0  0  0
 24 25  1  0  0  0  0
 26 30  1  0  0  0  0
 26 27  1  0  0  0  0
 26 57  1  0  0  0  0
 27 28  1  0  0  0  0
 27 58  1  0  0  0  0
 27 59  1  0  0  0  0
 28 29  1  0  0  0  0
 28 60  1  0  0  0  0
 28 61  1  0  0  0  0
 29 30  1  0  0  0  0
 30 62  1  0  0  0  0
 30 63  1  0  0  0  0
M  END
> <s_m_source_file>
AV-unprocessed.smi

> <i_m_source_file_index>
148

> <i_lp_mmshare_version>
43012

> <i_f3d_flags>
0

> <s_epik_input>
W0NIMl0xT1tDSDJdW0NIMl1bQ0BIXTFbQ0BIXShbQ0gyXVtPSF0pW0NIMl1uKFtjSF1uMiljKGMyMyluW2NIXW5jM040W0NIMl1bQ0gyXVtDSDJdW0NIMl1bQ0BIXTRbQ0BASF01W0NIMl1bQ0gyXVtDSDJdW0NASF01W09IXQ==

> <s_epik_cmdline>
J2VwaWtfcHl0aG9uJywgJy1waCcsICc3LjAnLCAnLXRuJywgJzgnLCAnLW1hJywgJzIwMCcsICctbWV0YWxfYmluZGluZycsICctaW1hZScsICc8aW5maWxlLm1hZT4nLCAnLW9tYWUnLCAnPG91dGZpbGUubWFlPic=

> <r_lp_tautomer_probability>
1

> <r_epik_Ionization_Penalty>
0.00556303

> <r_epik_Ionization_Penalty_Charging>
0

> <r_epik_Ionization_Penalty_Neutral>
0.00556303

> <r_epik_State_Penalty>
0.00401767

> <r_epik_Charging_Adjusted_Penalty>
0.00401767

> <i_epik_Tot_Q>
0

> <i_epik_Tot_abs_Q>
0

> <r_epik_Metal_State_Penalty>
-0

> <b_epik_Metal_Only>
0

> <s_lp_Force_Field>
OPLS_2005

> <r_lp_Energy>
71.6968

> <b_lp_Chiralities_Consistent>
1

> <s_lp_Variant>
AV-unprocessed.smi:148-21

> <Gold.Version>
5.8.1

> <Gold.Id.Protein>
6NUR|6NUR_protein|mol2

> <Gold.PLP.Fitness>
43.4960

> <Gold.PLP.PLP>
-39.2685

> <Gold.PLP.part.hbond>
-1.0000

> <Gold.PLP.part.metal>
0.0000

> <Gold.PLP.part.buried>
-1.5543

> <Gold.PLP.part.nonpolar>
-39.4366

> <Gold.PLP.part.repulsive>
3.1478

> <Gold.PLP.ligand.clash>
0.0000

> <Gold.PLP.ligand.torsion>
1.1830

> <Gold.PLP.Chemscore.Hbond>
1.0000

> <Gold.PLP.Chemscore.CHOScore>
0.9903

> <Gold.PLP.Chemscore.Metal>
0.0000

> <Gold.Chemscore.Hbonds>
donor molecule, donor type, donor heavy atom, donor atom, acceptor molecule, acceptor atom, score
      L1  H     1    31       P1  8028  0.58
      L1  C     6    37       P1  7957  1.00

> <Gold.PLP.Chemscore.Internal.Correction>
0.6225

> <Gold.Rescore>
     Score         DG    S(hbond)    S(metal)    S(lipo)     H(rot)  DE(clash)    DE(int)     intcor
      8.49     -11.26       0.87        0.00      97.24       3.32       1.94       0.83       ----

> <Gold.Chemscore.Fitness>
8.4901

> <Gold.Chemscore.DG>
-11.2628

> <Gold.Chemscore.ZeroCoef>
-5.4800

> <Gold.Chemscore.Hbond>
0.8699

> <Gold.Chemscore.Metal>
0.0000

> <Gold.Chemscore.Lipo>
97.2419

> <Gold.Chemscore.Internal_Hbond>
0.0000

> <Gold.Chemscore.DEClash>
1.9401

> <Gold.Chemscore.DEInternal>
0.8326

> <Gold.Chemscore.Rot>
3.3203

> <Gold.Chemscore.Internal.Correction>
   9.000000E+99

> <Gold.Chemscore.Hbonds>
donor molecule, donor type, donor heavy atom, donor atom, acceptor molecule, acceptor atom, score
      L1  H     1    31       P1  8028  0.19

> <Gold.Chemscore.Hbond.Weighted>
-2.9055

> <Gold.Chemscore.Metal.Weighted>
-0.0000

> <Gold.Chemscore.Lipo.Weighted>
-11.3773

> <Gold.Chemscore.Internal_Hbond.Weighted>
0.0000

> <Gold.Chemscore.DEClash.Weighted>
1.9401

> <Gold.Chemscore.DEInternal.Weighted>
0.8326

> <Gold.Chemscore.Rot.Weighted>
8.5000

> <Gold.Chemscore.Internal.Correction.Weighted>
   9.000000E+99

> <Gold.Protein.RotatedTorsions>
[ 6907 6896 6895 6894 ] final   53.97 input  -60.11 | X-H torsion
[ 7974 7965 7964 7962 ] final  -68.21 input  175.53 | X-H torsion
[ 8008 7997 7996 7995 ] final -159.64 input   59.86 | X-H torsion
[ 10167 10162 10161 10158 ] final  152.53 input  -65.29 | X-H torsion
[ 10718 10713 10712 10709 ] final  113.47 input   66.30 | X-H torsion
[ 10763 10752 10751 10750 ] final  105.50 input  -60.55 | X-H torsion
[ 11005 11000 10999 10996 ] final  150.04 input  -57.11 | X-H torsion

> <Gold.Protein.ActiveResidues>
 VAL166  LYS551  ARG553  GLY616  TRP617  ASP618  TYR619  PRO620  LYS621  CYS622 
 ASP623  PHE694  ASN695  SER759  ASP760  ASP761  ALA762  ILE779  LEU786  VAL792 
 PHE793  MET794  SER795  GLU796  ALA797  LYS798  CYS799  TRP800  GLU811  SER814 

> <Gold.Protein.RotatedAtoms>
  152.3391  134.7158  160.0268 H   0  0  0  0  0  0  0  0  0  0  0  0  # atno 6907 bound_to 6896
  151.7549  133.3324  159.3410 H   0  0  0  0  0  0  0  0  0  0  0  0  # atno 6908 bound_to 6896
  150.7469  134.6091  159.6121 H   0  0  0  0  0  0  0  0  0  0  0  0  # atno 6909 bound_to 6896
  145.7194  140.9045  143.0638 H   0  0  0  0  0  0  0  0  0  0  0  0  # atno 7974 bound_to 7965
  155.7656  140.0845  157.2133 H   0  0  0  0  0  0  0  0  0  0  0  0  # atno 8008 bound_to 7997
  154.4000  140.1535  156.2940 H   0  0  0  0  0  0  0  0  0  0  0  0  # atno 8009 bound_to 7997
  155.8797  140.3421  155.5881 H   0  0  0  0  0  0  0  0  0  0  0  0  # atno 8010 bound_to 7997
  139.4832  144.5350  151.7661 H   0  0  0  0  0  0  0  0  0  0  0  0  # atno 10167 bound_to 10162
  157.6336  131.0984  150.7046 H   0  0  0  0  0  0  0  0  0  0  0  0  # atno 10718 bound_to 10713
  153.3803  135.3908  155.1852 H   0  0  0  0  0  0  0  0  0  0  0  0  # atno 10763 bound_to 10752
  154.8706  135.3724  154.4866 H   0  0  0  0  0  0  0  0  0  0  0  0  # atno 10764 bound_to 10752
  153.5342  135.7085  153.5729 H   0  0  0  0  0  0  0  0  0  0  0  0  # atno 10765 bound_to 10752
  140.1097  134.8932  157.1918 H   0  0  0  0  0  0  0  0  0  0  0  0  # atno 11005 bound_to 11000
  144.6920  139.9182  143.7466 LP  0  0  0  0  0  0  0  0  0  0  0  0  # atno 17320 bound_to 7965
  146.0639  139.3631  143.0564 LP  0  0  0  0  0  0  0  0  0  0  0  0  # atno 17321 bound_to 7965
  140.4881  144.1351  150.5945 LP  0  0  0  0  0  0  0  0  0  0  0  0  # atno 17342 bound_to 10162
  140.4202  143.2615  151.9725 LP  0  0  0  0  0  0  0  0  0  0  0  0  # atno 17343 bound_to 10162
  156.7381  130.4730  149.5484 LP  0  0  0  0  0  0  0  0  0  0  0  0  # atno 17370 bound_to 10713
  156.1558  130.6340  151.0655 LP  0  0  0  0  0  0  0  0  0  0  0  0  # atno 17371 bound_to 10713
  140.3108  134.3026  155.7267 LP  0  0  0  0  0  0  0  0  0  0  0  0  # atno 17394 bound_to 11000
  141.2127  133.7649  156.9773 LP  0  0  0  0  0  0  0  0  0  0  0  0  # atno 17395 bound_to 11000

$$$$
