AV-unprocessed.smi:742|AV-procd|sdf|3558|dock8
  -GOLD-   22720 0553D 1   1.00000     0.00000
 Structure written by MMmdl.
 25 25  0  0  0  0  0  0  0  0  2 V2000
  147.3973  138.6946  151.6974 N   0  3  0  0  0  0  0  0  0  0  0  0
  147.1245  139.1088  153.0833 C   0  0  0  0  0  0  0  0  0  0  0  0
  148.4158  139.5190  153.8061 C   0  0  0  0  0  0  0  0  0  0  0  0
  149.4490  138.4962  153.6416 N   0  0  0  0  0  0  0  0  0  0  0  0
  150.7098  138.2751  154.8022 S   0  0  0  0  0  0  0  0  0  0  0  0
  151.5115  137.1137  154.3858 O   0  0  0  0  0  0  0  0  0  0  0  0
  151.3438  139.5876  154.9952 O   0  0  0  0  0  0  0  0  0  0  0  0
  149.7733  137.8627  156.3411 C   0  0  0  0  0  0  0  0  0  0  0  0
  150.7069  137.6848  157.5057 C   0  0  0  0  0  0  0  0  0  0  0  0
  151.5863  138.6426  158.0834 C   0  0  0  0  0  0  0  0  0  0  0  0
  152.1927  137.9513  159.0923 C   0  0  0  0  0  0  0  0  0  0  0  0
  151.7331  136.6757  159.1371 O   0  0  0  0  0  0  0  0  0  0  0  0
  150.7893  136.5133  158.1167 N   0  0  0  0  0  0  0  0  0  0  0  0
  148.0296  139.3546  151.2675 H   0  0  0  0  0  0  0  0  0  0  0  0
  146.5332  138.6676  151.1754 H   0  0  0  0  0  0  0  0  0  0  0  0
  146.4133  139.9345  153.0572 H   0  0  0  0  0  0  0  0  0  0  0  0
  146.6395  138.2855  153.6087 H   0  0  0  0  0  0  0  0  0  0  0  0
  148.7902  140.4624  153.4078 H   0  0  0  0  0  0  0  0  0  0  0  0
  148.2285  139.6728  154.8692 H   0  0  0  0  0  0  0  0  0  0  0  0
  149.2028  137.6701  153.0963 H   0  0  0  0  0  0  0  0  0  0  0  0
  149.0734  138.6766  156.5335 H   0  0  0  0  0  0  0  0  0  0  0  0
  149.1842  136.9641  156.1592 H   0  0  0  0  0  0  0  0  0  0  0  0
  151.7460  139.6731  157.8025 H   0  0  0  0  0  0  0  0  0  0  0  0
  152.9370  138.2140  159.8295 H   0  0  0  0  0  0  0  0  0  0  0  0
  147.8205  137.7772  151.6979 H   0  0  0  0  0  0  0  0  0  0  0  0
  1  2  1  0  0  0  0
  1 14  1  0  0  0  0
  1 15  1  0  0  0  0
  1 25  1  0  0  0  0
  2  3  1  0  0  0  0
  2 16  1  0  0  0  0
  2 17  1  0  0  0  0
  3  4  1  0  0  0  0
  3 18  1  0  0  0  0
  3 19  1  0  0  0  0
  4  5  1  0  0  0  0
  4 20  1  0  0  0  0
  5  6  2  0  0  0  0
  5  7  2  0  0  0  0
  5  8  1  0  0  0  0
  8  9  1  0  0  0  0
  8 21  1  0  0  0  0
  8 22  1  0  0  0  0
  9 13  2  0  0  0  0
  9 10  1  0  0  0  0
 10 11  2  0  0  0  0
 10 23  1  0  0  0  0
 11 12  1  0  0  0  0
 11 24  1  0  0  0  0
 12 13  1  0  0  0  0
M  CHG  1   1   1
M  END
> <s_m_source_file>
AV-unprocessed.smi

> <i_m_source_file_index>
742

> <i_lp_mmshare_version>
43012

> <i_f3d_flags>
0

> <s_epik_input>
W05IMl1bQ0gyXVtDSDJdW05IXVMoPU8pKD1PKVtDSDJdYzFbY0hdW2NIXW9uMQ==

> <s_epik_cmdline>
J2VwaWtfcHl0aG9uJywgJy1waCcsICc3LjAnLCAnLXRuJywgJzgnLCAnLW1hJywgJzIwMCcsICctbWV0YWxfYmluZGluZycsICctaW1hZScsICc8aW5maWxlLm1hZT4nLCAnLW9tYWUnLCAnPG91dGZpbGUubWFlPic=

> <r_lp_tautomer_probability>
1

> <r_epik_Ionization_Penalty>
0.00734165

> <r_epik_Ionization_Penalty_Charging>
0.00580839

> <r_epik_Ionization_Penalty_Neutral>
0.00153326

> <r_epik_State_Penalty>
-0

> <r_epik_Charging_Adjusted_Penalty>
0.00580839

> <i_epik_Tot_Q>
1

> <i_epik_Tot_abs_Q>
1

> <r_epik_Metal_State_Penalty>
0.322493

> <b_epik_Metal_Only>
0

> <s_lp_Force_Field>
OPLS_2005

> <r_lp_Energy>
-3.29025

> <b_lp_Chiralities_Consistent>
1

> <s_lp_Variant>
AV-unprocessed.smi:742-1

> <Gold.Version>
5.8.1

> <Gold.Id.Protein>
6NUR|6NUR_protein|mol2

> <Gold.PLP.Fitness>
39.4778

> <Gold.PLP.PLP>
-19.0205

> <Gold.PLP.part.hbond>
-7.8310

> <Gold.PLP.part.metal>
0.0000

> <Gold.PLP.part.buried>
-3.0920

> <Gold.PLP.part.nonpolar>
-8.9729

> <Gold.PLP.part.repulsive>
0.9863

> <Gold.PLP.ligand.clash>
0.0000

> <Gold.PLP.ligand.torsion>
0.7835

> <Gold.PLP.Chemscore.Hbond>
6.9750

> <Gold.PLP.Chemscore.CHOScore>
0.0000

> <Gold.PLP.Chemscore.Metal>
0.0000

> <Gold.Chemscore.Hbonds>
donor molecule, donor type, donor heavy atom, donor atom, acceptor molecule, acceptor atom, score
      L1  H     1    14       P1  7957  1.00
      L1  H     1    25       P1  7948  2.00
      L1  H     4    20       P1  7948  1.00
      P1  H  6896  6908       L1    12  0.99
      P1  H  7989  7998       L1     7  1.00
      P1  H 10752 10763       L1     6  0.98

> <Gold.PLP.Chemscore.Internal.Correction>
1.0992

> <Gold.Rescore>
     Score         DG    S(hbond)    S(metal)    S(lipo)     H(rot)  DE(clash)    DE(int)     intcor
     17.99     -18.95       4.83        0.00      26.98       2.28       0.19       0.77       ----

> <Gold.Chemscore.Fitness>
17.9918

> <Gold.Chemscore.DG>
-18.9451

> <Gold.Chemscore.ZeroCoef>
-5.4800

> <Gold.Chemscore.Hbond>
4.8338

> <Gold.Chemscore.Metal>
0.0000

> <Gold.Chemscore.Lipo>
26.9776

> <Gold.Chemscore.Internal_Hbond>
0.0000

> <Gold.Chemscore.DEClash>
0.1868

> <Gold.Chemscore.DEInternal>
0.7665

> <Gold.Chemscore.Rot>
2.2798

> <Gold.Chemscore.Internal.Correction>
   9.000000E+99

> <Gold.Chemscore.Hbonds>
donor molecule, donor type, donor heavy atom, donor atom, acceptor molecule, acceptor atom, score
      L1  H     1    14       P1  7957  0.78
      L1  H     1    25       P1  7948  1.00
      L1  H     4    20       P1  7948  0.99
      P1  H  6896  6908       L1    12  0.24
      P1  H  7989  7998       L1     7  0.97
      P1  H 10752 10763       L1     6  0.92

> <Gold.Chemscore.Hbond.Weighted>
-16.1449

> <Gold.Chemscore.Metal.Weighted>
-0.0000

> <Gold.Chemscore.Lipo.Weighted>
-3.1564

> <Gold.Chemscore.Internal_Hbond.Weighted>
0.0000

> <Gold.Chemscore.DEClash.Weighted>
0.1868

> <Gold.Chemscore.DEInternal.Weighted>
0.7665

> <Gold.Chemscore.Rot.Weighted>
5.8362

> <Gold.Chemscore.Internal.Correction.Weighted>
   9.000000E+99

> <Gold.Protein.RotatedTorsions>
[ 6907 6896 6895 6894 ] final -122.44 input  -60.11 | X-H torsion
[ 7974 7965 7964 7962 ] final   57.00 input  175.53 | X-H torsion
[ 8008 7997 7996 7995 ] final  -19.92 input   59.86 | X-H torsion
[ 10167 10162 10161 10158 ] final  170.93 input  -65.29 | X-H torsion
[ 10718 10713 10712 10709 ] final  152.38 input   66.30 | X-H torsion
[ 10763 10752 10751 10750 ] final   41.72 input  -60.55 | X-H torsion
[ 11005 11000 10999 10996 ] final  101.24 input  -57.11 | X-H torsion

> <Gold.Protein.ActiveResidues>
 VAL166  LYS551  ARG553  GLY616  TRP617  ASP618  TYR619  PRO620  LYS621  CYS622 
 ASP623  PHE694  ASN695  SER759  ASP760  ASP761  ALA762  ILE779  LEU786  VAL792 
 PHE793  MET794  SER795  GLU796  ALA797  LYS798  CYS799  TRP800  GLU811  SER814 

> <Gold.Protein.RotatedAtoms>
  150.8576  133.7692  159.3003 H   0  0  0  0  0  0  0  0  0  0  0  0  # atno 6907 bound_to 6896
  151.5344  135.1067  159.9920 H   0  0  0  0  0  0  0  0  0  0  0  0  # atno 6908 bound_to 6896
  152.4602  133.7762  159.6881 H   0  0  0  0  0  0  0  0  0  0  0  0  # atno 6909 bound_to 6896
  145.9337  139.3829  143.0405 H   0  0  0  0  0  0  0  0  0  0  0  0  # atno 7974 bound_to 7965
  154.4804  140.2076  155.9777 H   0  0  0  0  0  0  0  0  0  0  0  0  # atno 8008 bound_to 7997
  156.1156  140.3222  155.8104 H   0  0  0  0  0  0  0  0  0  0  0  0  # atno 8009 bound_to 7997
  155.4558  140.0520  157.2987 H   0  0  0  0  0  0  0  0  0  0  0  0  # atno 8010 bound_to 7997
  139.5032  144.3542  151.9891 H   0  0  0  0  0  0  0  0  0  0  0  0  # atno 10167 bound_to 10162
  157.2586  131.0793  151.1681 H   0  0  0  0  0  0  0  0  0  0  0  0  # atno 10718 bound_to 10713
  152.9901  135.6153  154.2833 H   0  0  0  0  0  0  0  0  0  0  0  0  # atno 10763 bound_to 10752
  154.2561  135.2784  155.2799 H   0  0  0  0  0  0  0  0  0  0  0  0  # atno 10764 bound_to 10752
  154.5246  135.5805  153.6766 H   0  0  0  0  0  0  0  0  0  0  0  0  # atno 10765 bound_to 10752
  139.8773  134.9174  156.4876 H   0  0  0  0  0  0  0  0  0  0  0  0  # atno 11005 bound_to 11000
  145.8392  140.9590  143.0808 LP  0  0  0  0  0  0  0  0  0  0  0  0  # atno 17320 bound_to 7965
  144.6768  140.0262  143.7483 LP  0  0  0  0  0  0  0  0  0  0  0  0  # atno 17321 bound_to 7965
  140.2979  144.3680  150.6069 LP  0  0  0  0  0  0  0  0  0  0  0  0  # atno 17342 bound_to 10162
  140.5896  143.2168  151.7277 LP  0  0  0  0  0  0  0  0  0  0  0  0  # atno 17343 bound_to 10162
  157.3200  130.6932  149.6264 LP  0  0  0  0  0  0  0  0  0  0  0  0  # atno 17370 bound_to 10713
  155.9664  130.4338  150.5022 LP  0  0  0  0  0  0  0  0  0  0  0  0  # atno 17371 bound_to 10713
  140.8681  133.8008  155.9336 LP  0  0  0  0  0  0  0  0  0  0  0  0  # atno 17394 bound_to 11000
  140.8980  134.2413  157.5057 LP  0  0  0  0  0  0  0  0  0  0  0  0  # atno 17395 bound_to 11000

$$$$
