AV-unprocessed.smi:2893|AV-procd|sdf|11123|dock4
  -GOLD-   2272015593D 1   1.00000     0.00000
 Structure written by MMmdl.
 37 39  0  0  0  0  0  0  0  0  1 V2000
  153.5869  135.1835  164.0797 C   0  0  0  0  0  0  0  0  0  0  0  0
  154.3393  135.4666  162.7727 C   0  0  0  0  0  0  0  0  0  0  0  0
  154.1485  136.8431  162.3319 N   0  0  0  0  0  0  0  0  0  0  0  0
  153.7474  137.2169  161.1045 C   0  0  0  0  0  0  0  0  0  0  0  0
  153.5091  136.4164  160.1993 O   0  0  0  0  0  0  0  0  0  0  0  0
  153.6438  138.7005  160.8714 C   0  0  0  0  0  0  0  0  0  0  0  0
  154.2052  139.6047  161.7989 C   0  0  0  0  0  0  0  0  0  0  0  0
  154.0927  140.9789  161.5265 C   0  0  0  0  0  0  0  0  0  0  0  0
  153.4333  141.3602  160.3428 C   0  0  0  0  0  0  0  0  0  0  0  0
  153.3073  142.7247  160.0470 N   0  0  0  0  0  0  0  0  0  0  0  0
  152.7860  143.1642  158.7562 C   0  0  1  0  0  0  0  0  0  0  0  0
  151.3067  142.8246  158.5586 C   0  0  0  0  0  0  0  0  0  0  0  0
  150.7152  144.1926  158.1888 C   0  0  1  0  0  0  0  0  0  0  0  0
  150.5991  145.1059  159.4158 C   0  0  0  0  0  0  0  0  0  0  0  0
  152.0609  145.4655  159.6737 C   0  0  0  0  0  0  0  0  0  0  0  0
  152.7819  144.6932  158.5551 C   0  0  2  0  0  0  0  0  0  0  0  0
  151.8142  144.7933  157.5239 O   0  0  0  0  0  0  0  0  0  0  0  0
  152.9159  140.4446  159.4878 N   0  0  0  0  0  0  0  0  0  0  0  0
  153.0231  139.1371  159.7461 N   0  0  0  0  0  0  0  0  0  0  0  0
  153.7660  134.1619  164.4153 H   0  0  0  0  0  0  0  0  0  0  0  0
  152.5108  135.3057  163.9534 H   0  0  0  0  0  0  0  0  0  0  0  0
  153.9104  135.8561  164.8744 H   0  0  0  0  0  0  0  0  0  0  0  0
  155.4067  135.3019  162.9207 H   0  0  0  0  0  0  0  0  0  0  0  0
  154.0228  134.7714  161.9935 H   0  0  0  0  0  0  0  0  0  0  0  0
  154.3323  137.5712  163.0076 H   0  0  0  0  0  0  0  0  0  0  0  0
  154.7059  139.2639  162.6934 H   0  0  0  0  0  0  0  0  0  0  0  0
  154.5033  141.7129  162.2042 H   0  0  0  0  0  0  0  0  0  0  0  0
  153.8241  143.3915  160.6017 H   0  0  0  0  0  0  0  0  0  0  0  0
  153.3579  142.6927  157.9556 H   0  0  0  0  0  0  0  0  0  0  0  0
  151.1890  142.1148  157.7392 H   0  0  0  0  0  0  0  0  0  0  0  0
  150.8295  142.3999  159.4432 H   0  0  0  0  0  0  0  0  0  0  0  0
  149.8041  144.1350  157.5926 H   0  0  0  0  0  0  0  0  0  0  0  0
  150.0208  146.0007  159.1825 H   0  0  0  0  0  0  0  0  0  0  0  0
  150.1292  144.6061  160.2635 H   0  0  0  0  0  0  0  0  0  0  0  0
  152.2121  146.5390  159.5560 H   0  0  0  0  0  0  0  0  0  0  0  0
  152.3982  145.1880  160.6725 H   0  0  0  0  0  0  0  0  0  0  0  0
  153.7549  145.1083  158.2911 H   0  0  0  0  0  0  0  0  0  0  0  0
  1  2  1  0  0  0  0
  1 20  1  0  0  0  0
  1 21  1  0  0  0  0
  1 22  1  0  0  0  0
  2  3  1  0  0  0  0
  2 23  1  0  0  0  0
  2 24  1  0  0  0  0
  3  4  1  0  0  0  0
  3 25  1  0  0  0  0
  4  5  2  0  0  0  0
  4  6  1  0  0  0  0
  6 19  1  0  0  0  0
  6  7  2  0  0  0  0
  7  8  1  0  0  0  0
  7 26  1  0  0  0  0
  8  9  2  0  0  0  0
  8 27  1  0  0  0  0
  9 10  1  0  0  0  0
  9 18  1  0  0  0  0
 10 11  1  0  0  0  0
 10 28  1  0  0  0  0
 11 16  1  0  0  0  0
 11 12  1  0  0  0  0
 11 29  1  0  0  0  0
 12 13  1  0  0  0  0
 12 30  1  0  0  0  0
 12 31  1  0  0  0  0
 13 17  1  0  0  0  0
 13 14  1  0  0  0  0
 13 32  1  0  0  0  0
 14 15  1  0  0  0  0
 14 33  1  0  0  0  0
 14 34  1  0  0  0  0
 15 16  1  0  0  0  0
 15 35  1  0  0  0  0
 15 36  1  0  0  0  0
 16 17  1  0  0  0  0
 16 37  1  0  0  0  0
 18 19  2  0  0  0  0
M  END
> <s_m_source_file>
AV-unprocessed.smi

> <i_m_source_file_index>
2893

> <i_lp_mmshare_version>
43012

> <i_f3d_flags>
0

> <s_epik_input>
W0NIM11bQ0gyXVtOSF1DKD1PKWMxW2NIXVtjSF1jKG5uMSlbTkhdW0NASF0oW0NIMl1bQ0BASF0yMylbQ0BASF0oTzMpW0NIMl1bQ0gyXTI=

> <s_epik_cmdline>
J2VwaWtfcHl0aG9uJywgJy1waCcsICc3LjAnLCAnLXRuJywgJzgnLCAnLW1hJywgJzIwMCcsICctbWV0YWxfYmluZGluZycsICctaW1hZScsICc8aW5maWxlLm1hZT4nLCAnLW9tYWUnLCAnPG91dGZpbGUubWFlPic=

> <r_lp_tautomer_probability>
1

> <r_epik_Ionization_Penalty>
0.00432031

> <r_epik_Ionization_Penalty_Charging>
0

> <r_epik_Ionization_Penalty_Neutral>
0.00432031

> <r_epik_State_Penalty>
-0

> <r_epik_Charging_Adjusted_Penalty>
0

> <i_epik_Tot_Q>
0

> <i_epik_Tot_abs_Q>
0

> <r_epik_Metal_State_Penalty>
-0

> <b_epik_Metal_Only>
0

> <s_lp_Force_Field>
OPLS_2005

> <r_lp_Energy>
51.8171

> <b_lp_Chiralities_Consistent>
1

> <s_lp_Variant>
AV-unprocessed.smi:2893-2

> <Gold.Version>
5.8.1

> <Gold.Id.Protein>
6NUR|6NUR_protein|mol2

> <Gold.PLP.Fitness>
42.4240

> <Gold.PLP.PLP>
-39.7206

> <Gold.PLP.part.hbond>
-0.9994

> <Gold.PLP.part.metal>
0.0000

> <Gold.PLP.part.buried>
-6.2930

> <Gold.PLP.part.nonpolar>
-32.9652

> <Gold.PLP.part.repulsive>
0.2174

> <Gold.PLP.ligand.clash>
0.0000

> <Gold.PLP.ligand.torsion>
0.1570

> <Gold.PLP.Chemscore.Hbond>
1.0000

> <Gold.PLP.Chemscore.CHOScore>
0.0000

> <Gold.PLP.Chemscore.Metal>
0.0000

> <Gold.Chemscore.Hbonds>
donor molecule, donor type, donor heavy atom, donor atom, acceptor molecule, acceptor atom, score
      P1  H  6896  6909       L1     5  1.00

> <Gold.PLP.Chemscore.Internal.Correction>
0.0174

> <Gold.Rescore>
     Score         DG    S(hbond)    S(metal)    S(lipo)     H(rot)  DE(clash)    DE(int)     intcor
     16.75     -17.28       0.98        0.00      99.29       1.21       0.10       0.42       ----

> <Gold.Chemscore.Fitness>
16.7518

> <Gold.Chemscore.DG>
-17.2768

> <Gold.Chemscore.ZeroCoef>
-5.4800

> <Gold.Chemscore.Hbond>
0.9784

> <Gold.Chemscore.Metal>
0.0000

> <Gold.Chemscore.Lipo>
99.2857

> <Gold.Chemscore.Internal_Hbond>
0.0000

> <Gold.Chemscore.DEClash>
0.1036

> <Gold.Chemscore.DEInternal>
0.4214

> <Gold.Chemscore.Rot>
1.2061

> <Gold.Chemscore.Internal.Correction>
   9.000000E+99

> <Gold.Chemscore.Hbonds>
donor molecule, donor type, donor heavy atom, donor atom, acceptor molecule, acceptor atom, score
      P1  H  6896  6909       L1     5  0.98

> <Gold.Chemscore.Hbond.Weighted>
-3.2680

> <Gold.Chemscore.Metal.Weighted>
-0.0000

> <Gold.Chemscore.Lipo.Weighted>
-11.6164

> <Gold.Chemscore.Internal_Hbond.Weighted>
0.0000

> <Gold.Chemscore.DEClash.Weighted>
0.1036

> <Gold.Chemscore.DEInternal.Weighted>
0.4214

> <Gold.Chemscore.Rot.Weighted>
3.0876

> <Gold.Chemscore.Internal.Correction.Weighted>
   9.000000E+99

> <Gold.Protein.RotatedTorsions>
[ 6907 6896 6895 6894 ] final  160.09 input  -60.11 | X-H torsion
[ 7974 7965 7964 7962 ] final   -5.62 input  175.53 | X-H torsion
[ 8008 7997 7996 7995 ] final  156.36 input   59.86 | X-H torsion
[ 10167 10162 10161 10158 ] final -122.51 input  -65.29 | X-H torsion
[ 10718 10713 10712 10709 ] final  -86.49 input   66.30 | X-H torsion
[ 10763 10752 10751 10750 ] final  -42.61 input  -60.55 | X-H torsion
[ 11005 11000 10999 10996 ] final  -87.08 input  -57.11 | X-H torsion

> <Gold.Protein.ActiveResidues>
 VAL166  LYS551  ARG553  GLY616  TRP617  ASP618  TYR619  PRO620  LYS621  CYS622 
 ASP623  PHE694  ASN695  SER759  ASP760  ASP761  ALA762  ILE779  LEU786  VAL792 
 PHE793  MET794  SER795  GLU796  ALA797  LYS798  CYS799  TRP800  GLU811  SER814 

> <Gold.Protein.RotatedAtoms>
  151.9758  133.3741  159.4088 H   0  0  0  0  0  0  0  0  0  0  0  0  # atno 6907 bound_to 6896
  150.6942  134.4092  159.5163 H   0  0  0  0  0  0  0  0  0  0  0  0  # atno 6908 bound_to 6896
  152.1803  134.8759  160.0577 H   0  0  0  0  0  0  0  0  0  0  0  0  # atno 6909 bound_to 6896
  146.2349  140.2048  142.8334 H   0  0  0  0  0  0  0  0  0  0  0  0  # atno 7974 bound_to 7965
  156.2427  140.1914  156.6943 H   0  0  0  0  0  0  0  0  0  0  0  0  # atno 8008 bound_to 7997
  154.6228  140.0606  156.9663 H   0  0  0  0  0  0  0  0  0  0  0  0  # atno 8009 bound_to 7997
  155.1834  140.3278  155.4373 H   0  0  0  0  0  0  0  0  0  0  0  0  # atno 8010 bound_to 7997
  140.0135  143.5417  152.2252 H   0  0  0  0  0  0  0  0  0  0  0  0  # atno 10167 bound_to 10162
  155.9989  130.4767  150.4722 H   0  0  0  0  0  0  0  0  0  0  0  0  # atno 10718 bound_to 10713
  153.9819  135.6716  153.4750 H   0  0  0  0  0  0  0  0  0  0  0  0  # atno 10763 bound_to 10752
  153.0744  135.4956  154.8371 H   0  0  0  0  0  0  0  0  0  0  0  0  # atno 10764 bound_to 10752
  154.7160  135.3107  154.9085 H   0  0  0  0  0  0  0  0  0  0  0  0  # atno 10765 bound_to 10752
  141.1622  133.7491  156.9254 H   0  0  0  0  0  0  0  0  0  0  0  0  # atno 11005 bound_to 11000
  144.9753  140.8408  143.5430 LP  0  0  0  0  0  0  0  0  0  0  0  0  # atno 17320 bound_to 7965
  145.2034  139.2240  143.5181 LP  0  0  0  0  0  0  0  0  0  0  0  0  # atno 17321 bound_to 7965
  139.6188  144.7625  151.2786 LP  0  0  0  0  0  0  0  0  0  0  0  0  # atno 17342 bound_to 10162
  140.7372  143.6686  150.8101 LP  0  0  0  0  0  0  0  0  0  0  0  0  # atno 17343 bound_to 10162
  157.2736  131.0592  151.2244 LP  0  0  0  0  0  0  0  0  0  0  0  0  # atno 17370 bound_to 10713
  157.3315  130.6987  149.6327 LP  0  0  0  0  0  0  0  0  0  0  0  0  # atno 17371 bound_to 10713
  140.1423  134.9286  157.2482 LP  0  0  0  0  0  0  0  0  0  0  0  0  # atno 17394 bound_to 11000
  140.2822  134.3336  155.7339 LP  0  0  0  0  0  0  0  0  0  0  0  0  # atno 17395 bound_to 11000

$$$$
