AV-unprocessed.smi:677|AV-procd|sdf|3311|dock2
  -GOLD-   22720 0273D 1   1.00000     0.00000
 Structure written by MMmdl.
 43 44  0  0  0  0  0  0  0  0  1 V2000
  146.2193  130.0539  153.0540 C   0  0  0  0  0  0  0  0  0  0  0  0
  146.0951  131.4097  152.3906 C   0  0  0  0  0  0  0  0  0  0  0  0
  145.1360  131.6264  151.3796 C   0  0  0  0  0  0  0  0  0  0  0  0
  145.0573  132.9035  150.7919 C   0  0  0  0  0  0  0  0  0  0  0  0
  145.9383  133.9116  151.2354 C   0  0  0  0  0  0  0  0  0  0  0  0
  145.8749  135.3125  150.6535 C   0  0  0  0  0  0  0  0  0  0  0  0
  145.3822  136.2885  151.7210 C   0  0  0  0  0  0  0  0  0  0  0  0
  144.2087  136.2556  152.0900 O   0  0  0  0  0  0  0  0  0  0  0  0
  146.3012  137.1239  152.2304 N   0  0  0  0  0  0  0  0  0  0  0  0
  146.0951  138.0284  153.3565 C   0  0  0  0  0  0  0  0  0  0  0  0
  147.3413  138.8983  153.6202 C   0  0  0  0  0  0  0  0  0  0  0  0
  148.3592  138.2370  154.5701 C   0  0  0  0  0  0  0  0  0  0  0  0
  149.5449  139.1738  154.8592 C   0  0  0  0  0  0  0  0  0  0  0  0
  149.0737  140.4298  155.4480 N   0  0  0  0  0  0  0  0  0  0  0  0
  150.2069  141.2956  155.7564 C   0  0  0  0  0  0  0  0  0  0  0  0
  151.2929  140.5824  156.4497 C   0  0  0  0  0  0  0  0  0  0  0  0
  152.1458  140.0213  156.9943 N   0  0  0  0  0  0  0  0  0  0  0  0
  148.1991  141.1206  154.5002 C   0  0  0  0  0  0  0  0  0  0  0  0
  146.9535  140.2680  154.2010 C   0  0  0  0  0  0  0  0  0  0  0  0
  146.8652  133.5888  152.2495 C   0  0  0  0  0  0  0  0  0  0  0  0
  146.9466  132.3676  152.8195 N   0  0  0  0  0  0  0  0  0  0  0  0
  145.2352  129.6076  153.1996 H   0  0  0  0  0  0  0  0  0  0  0  0
  146.7024  130.1317  154.0288 H   0  0  0  0  0  0  0  0  0  0  0  0
  146.8110  129.3839  152.4301 H   0  0  0  0  0  0  0  0  0  0  0  0
  144.4733  130.8344  151.0630 H   0  0  0  0  0  0  0  0  0  0  0  0
  144.3287  133.1068  150.0207 H   0  0  0  0  0  0  0  0  0  0  0  0
  146.8586  135.6163  150.2926 H   0  0  0  0  0  0  0  0  0  0  0  0
  145.2014  135.3280  149.7954 H   0  0  0  0  0  0  0  0  0  0  0  0
  147.2374  137.0763  151.8549 H   0  0  0  0  0  0  0  0  0  0  0  0
  145.2456  138.6676  153.1141 H   0  0  0  0  0  0  0  0  0  0  0  0
  145.8152  137.4824  154.2589 H   0  0  0  0  0  0  0  0  0  0  0  0
  147.8383  139.0699  152.6638 H   0  0  0  0  0  0  0  0  0  0  0  0
  147.8712  137.9617  155.5063 H   0  0  0  0  0  0  0  0  0  0  0  0
  148.7408  137.3120  154.1374 H   0  0  0  0  0  0  0  0  0  0  0  0
  150.2305  138.6764  155.5456 H   0  0  0  0  0  0  0  0  0  0  0  0
  150.1014  139.3741  153.9423 H   0  0  0  0  0  0  0  0  0  0  0  0
  150.6089  141.7533  154.8513 H   0  0  0  0  0  0  0  0  0  0  0  0
  149.8881  142.1019  156.4181 H   0  0  0  0  0  0  0  0  0  0  0  0
  147.8886  142.0764  154.9237 H   0  0  0  0  0  0  0  0  0  0  0  0
  148.7413  141.3397  153.5790 H   0  0  0  0  0  0  0  0  0  0  0  0
  146.3072  140.7996  153.5017 H   0  0  0  0  0  0  0  0  0  0  0  0
  146.3744  140.1351  155.1161 H   0  0  0  0  0  0  0  0  0  0  0  0
  147.5532  134.3336  152.6215 H   0  0  0  0  0  0  0  0  0  0  0  0
  1  2  1  0  0  0  0
  1 22  1  0  0  0  0
  1 23  1  0  0  0  0
  1 24  1  0  0  0  0
  2 21  1  0  0  0  0
  2  3  2  0  0  0  0
  3  4  1  0  0  0  0
  3 25  1  0  0  0  0
  4  5  2  0  0  0  0
  4 26  1  0  0  0  0
  5  6  1  0  0  0  0
  5 20  1  0  0  0  0
  6  7  1  0  0  0  0
  6 27  1  0  0  0  0
  6 28  1  0  0  0  0
  7  8  2  0  0  0  0
  7  9  1  0  0  0  0
  9 10  1  0  0  0  0
  9 29  1  0  0  0  0
 10 11  1  0  0  0  0
 10 30  1  0  0  0  0
 10 31  1  0  0  0  0
 11 19  1  0  0  0  0
 11 12  1  0  0  0  0
 11 32  1  0  0  0  0
 12 13  1  0  0  0  0
 12 33  1  0  0  0  0
 12 34  1  0  0  0  0
 13 14  1  0  0  0  0
 13 35  1  0  0  0  0
 13 36  1  0  0  0  0
 14 15  1  0  0  0  0
 14 18  1  0  0  0  0
 15 16  1  0  0  0  0
 15 37  1  0  0  0  0
 15 38  1  0  0  0  0
 16 17  3  0  0  0  0
 18 19  1  0  0  0  0
 18 39  1  0  0  0  0
 18 40  1  0  0  0  0
 19 41  1  0  0  0  0
 19 42  1  0  0  0  0
 20 21  2  0  0  0  0
 20 43  1  0  0  0  0
M  END
> <s_m_source_file>
AV-unprocessed.smi

> <i_m_source_file_index>
677

> <i_lp_mmshare_version>
43012

> <i_f3d_flags>
0

> <s_epik_input>
W0NIM11jMVtjSF1bY0hdYyhbY0hdbjEpW0NIMl1DKD1PKVtOSF1bQ0gyXVtDSF0yW0NIMl1bQ0gyXU4oW0NIMl1DI04pW0NIMl1bQ0gyXTI=

> <s_epik_cmdline>
J2VwaWtfcHl0aG9uJywgJy1waCcsICc3LjAnLCAnLXRuJywgJzgnLCAnLW1hJywgJzIwMCcsICctbWV0YWxfYmluZGluZycsICctaW1hZScsICc8aW5maWxlLm1hZT4nLCAnLW9tYWUnLCAnPG91dGZpbGUubWFlPic=

> <r_epik_Ionization_Penalty>
0.0175809

> <r_epik_Ionization_Penalty_Charging>
0

> <r_epik_Ionization_Penalty_Neutral>
0.0175809

> <r_epik_State_Penalty>
0.0130795

> <r_epik_Charging_Adjusted_Penalty>
0.0130795

> <i_epik_Tot_Q>
0

> <i_epik_Tot_abs_Q>
0

> <r_epik_Metal_State_Penalty>
0.0127214

> <b_epik_Metal_Only>
0

> <s_lp_Force_Field>
OPLS_2005

> <r_lp_Energy>
13.8767

> <b_lp_Chiralities_Consistent>
1

> <s_lp_Variant>
AV-unprocessed.smi:677-1

> <Gold.Version>
5.8.1

> <Gold.Id.Protein>
6NUR|6NUR_protein|mol2

> <Gold.PLP.Fitness>
42.3714

> <Gold.PLP.PLP>
-34.9578

> <Gold.PLP.part.hbond>
-2.0000

> <Gold.PLP.part.metal>
0.0000

> <Gold.PLP.part.buried>
-4.5043

> <Gold.PLP.part.nonpolar>
-28.4391

> <Gold.PLP.part.repulsive>
0.3927

> <Gold.PLP.ligand.clash>
0.0000

> <Gold.PLP.ligand.torsion>
0.6321

> <Gold.PLP.Chemscore.Hbond>
1.8800

> <Gold.PLP.Chemscore.CHOScore>
1.0000

> <Gold.PLP.Chemscore.Metal>
0.0000

> <Gold.Chemscore.Hbonds>
donor molecule, donor type, donor heavy atom, donor atom, acceptor molecule, acceptor atom, score
      L1  H     9    29       P1  7948  0.99
      P1  H  7997  8009       L1    17  0.18
      L1  C    20    43       P1  7948  1.00

> <Gold.PLP.Chemscore.Internal.Correction>
0.0378

> <Gold.Rescore>
     Score         DG    S(hbond)    S(metal)    S(lipo)     H(rot)  DE(clash)    DE(int)     intcor
     15.82     -16.74       2.00        0.00      78.08       1.78       0.15       0.77       ----

> <Gold.Chemscore.Fitness>
15.8183

> <Gold.Chemscore.DG>
-16.7400

> <Gold.Chemscore.ZeroCoef>
-5.4800

> <Gold.Chemscore.Hbond>
1.9966

> <Gold.Chemscore.Metal>
0.0000

> <Gold.Chemscore.Lipo>
78.0830

> <Gold.Chemscore.Internal_Hbond>
0.0000

> <Gold.Chemscore.DEClash>
0.1534

> <Gold.Chemscore.DEInternal>
0.7683

> <Gold.Chemscore.Rot>
1.7751

> <Gold.Chemscore.Internal.Correction>
   9.000000E+99

> <Gold.Chemscore.Hbonds>
donor molecule, donor type, donor heavy atom, donor atom, acceptor molecule, acceptor atom, score
      L1  H     9    29       P1  7948  0.94
      P1  H  7997  8009       L1    17  0.19

> <Gold.Chemscore.Hbond.Weighted>
-6.6685

> <Gold.Chemscore.Metal.Weighted>
-0.0000

> <Gold.Chemscore.Lipo.Weighted>
-9.1357

> <Gold.Chemscore.Internal_Hbond.Weighted>
0.0000

> <Gold.Chemscore.DEClash.Weighted>
0.1534

> <Gold.Chemscore.DEInternal.Weighted>
0.7683

> <Gold.Chemscore.Rot.Weighted>
4.5442

> <Gold.Chemscore.Internal.Correction.Weighted>
   9.000000E+99

> <Gold.Protein.RotatedTorsions>
[ 6907 6896 6895 6894 ] final -139.10 input  -60.11 | X-H torsion
[ 7974 7965 7964 7962 ] final  -62.71 input  175.53 | X-H torsion
[ 8008 7997 7996 7995 ] final -153.00 input   59.86 | X-H torsion
[ 10167 10162 10161 10158 ] final  129.96 input  -65.29 | X-H torsion
[ 10718 10713 10712 10709 ] final -114.40 input   66.30 | X-H torsion
[ 10763 10752 10751 10750 ] final   10.59 input  -60.55 | X-H torsion
[ 11005 11000 10999 10996 ] final   37.43 input  -57.11 | X-H torsion

> <Gold.Protein.ActiveResidues>
 VAL166  LYS551  ARG553  GLY616  TRP617  ASP618  TYR619  PRO620  LYS621  CYS622 
 ASP623  PHE694  ASN695  SER759  ASP760  ASP761  ALA762  ILE779  LEU786  VAL792 
 PHE793  MET794  SER795  GLU796  ALA797  LYS798  CYS799  TRP800  GLU811  SER814 

> <Gold.Protein.RotatedAtoms>
  151.0435  133.5686  159.2648 H   0  0  0  0  0  0  0  0  0  0  0  0  # atno 6907 bound_to 6896
  151.2723  135.0687  159.9148 H   0  0  0  0  0  0  0  0  0  0  0  0  # atno 6908 bound_to 6896
  152.5368  134.0163  159.8015 H   0  0  0  0  0  0  0  0  0  0  0  0  # atno 6909 bound_to 6896
  145.7880  140.8725  143.0296 H   0  0  0  0  0  0  0  0  0  0  0  0  # atno 7974 bound_to 7965
  155.6640  140.0726  157.2544 H   0  0  0  0  0  0  0  0  0  0  0  0  # atno 8008 bound_to 7997
  154.4136  140.1711  156.1858 H   0  0  0  0  0  0  0  0  0  0  0  0  # atno 8009 bound_to 7997
  155.9673  140.3365  155.6547 H   0  0  0  0  0  0  0  0  0  0  0  0  # atno 8010 bound_to 7997
  139.5453  144.6767  151.4494 H   0  0  0  0  0  0  0  0  0  0  0  0  # atno 10167 bound_to 10162
  156.0828  130.6025  150.8770 H   0  0  0  0  0  0  0  0  0  0  0  0  # atno 10718 bound_to 10713
  153.2016  135.6857  153.8224 H   0  0  0  0  0  0  0  0  0  0  0  0  # atno 10763 bound_to 10752
  153.7488  135.3227  155.3318 H   0  0  0  0  0  0  0  0  0  0  0  0  # atno 10764 bound_to 10752
  154.8174  135.4676  154.0785 H   0  0  0  0  0  0  0  0  0  0  0  0  # atno 10765 bound_to 10752
  140.2226  134.3622  155.7998 H   0  0  0  0  0  0  0  0  0  0  0  0  # atno 11005 bound_to 11000
  144.6786  140.0083  143.7484 LP  0  0  0  0  0  0  0  0  0  0  0  0  # atno 17320 bound_to 7965
  146.0006  139.3088  143.0930 LP  0  0  0  0  0  0  0  0  0  0  0  0  # atno 17321 bound_to 7965
  140.6698  143.8318  150.6986 LP  0  0  0  0  0  0  0  0  0  0  0  0  # atno 17342 bound_to 10162
  140.1739  143.4171  152.1981 LP  0  0  0  0  0  0  0  0  0  0  0  0  # atno 17343 bound_to 10162
  157.5951  131.0943  150.9054 LP  0  0  0  0  0  0  0  0  0  0  0  0  # atno 17370 bound_to 10713
  156.9223  130.5319  149.5279 LP  0  0  0  0  0  0  0  0  0  0  0  0  # atno 17371 bound_to 10713
  141.2222  133.7202  156.8601 LP  0  0  0  0  0  0  0  0  0  0  0  0  # atno 17394 bound_to 11000
  140.1833  134.9017  157.2975 LP  0  0  0  0  0  0  0  0  0  0  0  0  # atno 17395 bound_to 11000

$$$$
