AV-unprocessed.smi:265|AV-procd|sdf|2027|dock6
  -GOLD-   2262021233D 1   1.00000     0.00000
 Structure written by MMmdl.
 52 56  0  0  0  0  0  0  0  0  1 V2000
  150.6067  132.0092  156.0017 C   0  0  0  0  0  0  0  0  0  0  0  0
  149.3243  132.7456  155.5861 C   0  0  2  0  0  0  0  0  0  0  0  0
  148.9586  132.4124  154.2497 O   0  0  0  0  0  0  0  0  0  0  0  0
  148.3473  133.5319  153.6136 C   0  0  0  0  0  0  0  0  0  0  0  0
  148.1989  134.5955  154.6981 C   0  0  0  0  0  0  0  0  0  0  0  0
  149.3645  134.2848  155.6298 C   0  0  1  0  0  0  0  0  0  0  0  0
  149.0514  134.7475  156.9305 O   0  0  0  0  0  0  0  0  0  0  0  0
  150.7164  134.8971  155.1721 C   0  0  0  0  0  0  0  0  0  0  0  0
  151.0507  136.1466  155.8371 N   0  0  0  0  0  0  0  0  0  0  0  0
  151.6490  136.2911  157.0682 C   0  0  0  0  0  0  0  0  0  0  0  0
  151.8451  137.5233  157.4505 N   0  0  0  0  0  0  0  0  0  0  0  0
  151.3556  138.2882  156.3980 C   0  0  0  0  0  0  0  0  0  0  0  0
  151.2509  139.6868  156.1533 C   0  0  0  0  0  0  0  0  0  0  0  0
  151.6985  140.6209  157.0304 N   0  0  0  0  0  0  0  0  0  0  0  0
  152.3262  140.1464  158.2688 C   0  0  0  0  0  0  0  0  0  0  0  0
  153.0822  141.2815  158.9854 C   0  0  0  0  0  0  0  0  0  0  0  0
  152.1485  142.4802  159.1969 C   0  0  1  0  0  0  0  0  0  0  0  0
  152.8272  143.5916  159.7623 O   0  0  0  0  0  0  0  0  0  0  0  0
  151.9536  144.6688  160.1189 C   0  0  0  0  0  0  0  0  0  0  0  0
  150.9438  145.0152  159.0036 C   0  0  0  0  0  0  0  0  0  0  0  0
  150.2961  146.0574  159.0671 O   0  0  0  0  0  0  0  0  0  0  0  0
  150.7729  144.1328  158.0054 N   0  0  0  0  0  0  0  0  0  0  0  0
  151.5993  142.9447  157.8392 C   0  0  2  0  0  0  0  0  0  0  0  0
  150.8344  141.7963  157.1634 C   0  0  0  0  0  0  0  0  0  0  0  0
  150.6772  140.0745  154.9825 N   0  0  0  0  0  0  0  0  0  0  0  0
  150.2471  139.1622  154.1058 C   0  0  0  0  0  0  0  0  0  0  0  0
  150.2882  137.8320  154.1981 N   0  0  0  0  0  0  0  0  0  0  0  0
  150.8519  137.4358  155.3749 C   0  0  0  0  0  0  0  0  0  0  0  0
  151.3343  142.1785  159.8595 H   0  0  0  0  0  0  0  0  0  0  0  0
  152.4333  143.2310  157.1956 H   0  0  0  0  0  0  0  0  0  0  0  0
  150.9081  132.2868  157.0119 H   0  0  0  0  0  0  0  0  0  0  0  0
  151.4357  132.2274  155.3286 H   0  0  0  0  0  0  0  0  0  0  0  0
  150.4518  130.9302  155.9879 H   0  0  0  0  0  0  0  0  0  0  0  0
  148.5054  132.3971  156.2188 H   0  0  0  0  0  0  0  0  0  0  0  0
  149.0043  133.8831  152.8174 H   0  0  0  0  0  0  0  0  0  0  0  0
  147.3905  133.2610  153.1670 H   0  0  0  0  0  0  0  0  0  0  0  0
  148.1837  135.6112  154.3047 H   0  0  0  0  0  0  0  0  0  0  0  0
  147.2508  134.4382  155.2157 H   0  0  0  0  0  0  0  0  0  0  0  0
  149.5153  135.5569  157.0805 H   0  0  0  0  0  0  0  0  0  0  0  0
  151.5323  134.1964  155.3534 H   0  0  0  0  0  0  0  0  0  0  0  0
  150.7067  135.0773  154.0965 H   0  0  0  0  0  0  0  0  0  0  0  0
  151.9330  135.4475  157.6805 H   0  0  0  0  0  0  0  0  0  0  0  0
  151.5564  139.7421  158.9276 H   0  0  0  0  0  0  0  0  0  0  0  0
  153.0202  139.3343  158.0478 H   0  0  0  0  0  0  0  0  0  0  0  0
  153.4694  140.9307  159.9422 H   0  0  0  0  0  0  0  0  0  0  0  0
  153.9444  141.5836  158.3896 H   0  0  0  0  0  0  0  0  0  0  0  0
  151.4000  144.3990  161.0192 H   0  0  0  0  0  0  0  0  0  0  0  0
  152.5527  145.5471  160.3597 H   0  0  0  0  0  0  0  0  0  0  0  0
  150.0926  144.3368  157.2877 H   0  0  0  0  0  0  0  0  0  0  0  0
  150.4625  142.1300  156.1954 H   0  0  0  0  0  0  0  0  0  0  0  0
  149.9607  141.5244  157.7576 H   0  0  0  0  0  0  0  0  0  0  0  0
  149.8084  139.5541  153.1999 H   0  0  0  0  0  0  0  0  0  0  0  0
  1  2  1  0  0  0  0
  1 31  1  0  0  0  0
  1 32  1  0  0  0  0
  1 33  1  0  0  0  0
  2  6  1  0  0  0  0
  2  3  1  0  0  0  0
  2 34  1  0  0  0  0
  3  4  1  0  0  0  0
  4  5  1  0  0  0  0
  4 35  1  0  0  0  0
  4 36  1  0  0  0  0
  5  6  1  0  0  0  0
  5 37  1  0  0  0  0
  5 38  1  0  0  0  0
  6  7  1  0  0  0  0
  6  8  1  0  0  0  0
  7 39  1  0  0  0  0
  8  9  1  0  0  0  0
  8 40  1  0  0  0  0
  8 41  1  0  0  0  0
  9 28  1  0  0  0  0
  9 10  1  0  0  0  0
 10 11  2  0  0  0  0
 10 42  1  0  0  0  0
 11 12  1  0  0  0  0
 12 28  2  0  0  0  0
 12 13  1  0  0  0  0
 13 14  1  0  0  0  0
 13 25  2  0  0  0  0
 14 24  1  0  0  0  0
 14 15  1  0  0  0  0
 15 16  1  0  0  0  0
 15 43  1  0  0  0  0
 15 44  1  0  0  0  0
 16 17  1  0  0  0  0
 16 45  1  0  0  0  0
 16 46  1  0  0  0  0
 17 29  1  0  0  0  0
 17 23  1  0  0  0  0
 17 18  1  0  0  0  0
 18 19  1  0  0  0  0
 19 20  1  0  0  0  0
 19 47  1  0  0  0  0
 19 48  1  0  0  0  0
 20 21  2  0  0  0  0
 20 22  1  0  0  0  0
 22 23  1  0  0  0  0
 22 49  1  0  0  0  0
 23 30  1  0  0  0  0
 23 24  1  0  0  0  0
 24 50  1  0  0  0  0
 24 51  1  0  0  0  0
 25 26  1  0  0  0  0
 26 27  2  0  0  0  0
 26 52  1  0  0  0  0
 27 28  1  0  0  0  0
M  END
> <s_m_source_file>
AV-unprocessed.smi

> <i_m_source_file_index>
265

> <i_lp_mmshare_version>
43012

> <i_f3d_flags>
0

> <s_epik_input>
W0NIMl0xW0NIMl1PW0NAQEhdKFtDSDNdKVtDQEBdMShbT0hdKVtDSDJdbihbY0hdbjIpYyhjMjMpbltjSF1uYzNOKFtDSDJdW0NIMl00KVtDSDJdW0NAQEhdKFtDQEhdNDUpW05IXUMoPU8pW0NIMl1PNQ==

> <s_epik_cmdline>
J2VwaWtfcHl0aG9uJywgJy1waCcsICc3LjAnLCAnLXRuJywgJzgnLCAnLW1hJywgJzIwMCcsICctbWV0YWxfYmluZGluZycsICctaW1hZScsICc8aW5maWxlLm1hZT4nLCAnLW9tYWUnLCAnPG91dGZpbGUubWFlPic=

> <r_lp_tautomer_probability>
1

> <r_epik_Ionization_Penalty>
0.00221504

> <r_epik_Ionization_Penalty_Charging>
0

> <r_epik_Ionization_Penalty_Neutral>
0.00221504

> <r_epik_State_Penalty>
-0

> <r_epik_Charging_Adjusted_Penalty>
0

> <i_epik_Tot_Q>
0

> <i_epik_Tot_abs_Q>
0

> <r_epik_Metal_State_Penalty>
-0

> <b_epik_Metal_Only>
0

> <s_lp_Force_Field>
OPLS_2005

> <r_lp_Energy>
44.3077

> <b_lp_Chiralities_Consistent>
1

> <s_lp_Variant>
AV-unprocessed.smi:265-13

> <Gold.Version>
5.8.1

> <Gold.Id.Protein>
6NUR|6NUR_protein|mol2

> <Gold.PLP.Fitness>
42.3910

> <Gold.PLP.PLP>
-37.5625

> <Gold.PLP.part.hbond>
-4.2621

> <Gold.PLP.part.metal>
0.0000

> <Gold.PLP.part.buried>
-2.2740

> <Gold.PLP.part.nonpolar>
-32.3530

> <Gold.PLP.part.repulsive>
1.8378

> <Gold.PLP.ligand.clash>
0.0000

> <Gold.PLP.ligand.torsion>
1.3275

> <Gold.PLP.Chemscore.Hbond>
1.3500

> <Gold.PLP.Chemscore.CHOScore>
1.0000

> <Gold.PLP.Chemscore.Metal>
0.0000

> <Gold.Chemscore.Hbonds>
donor molecule, donor type, donor heavy atom, donor atom, acceptor molecule, acceptor atom, score
      L1  H    22    49       P1  8028  0.99
      P1  H  7989  7998       L1    25  0.30
      L1  C    26    52       P1  7957  1.00

> <Gold.PLP.Chemscore.Internal.Correction>
0.4333

> <Gold.Rescore>
     Score         DG    S(hbond)    S(metal)    S(lipo)     H(rot)  DE(clash)    DE(int)     intcor
      7.05      -9.84       0.00        0.00      86.42       2.25       0.08       2.71       ----

> <Gold.Chemscore.Fitness>
7.0499

> <Gold.Chemscore.DG>
-9.8429

> <Gold.Chemscore.ZeroCoef>
-5.4800

> <Gold.Chemscore.Hbond>
0.0000

> <Gold.Chemscore.Metal>
0.0000

> <Gold.Chemscore.Lipo>
86.4172

> <Gold.Chemscore.Internal_Hbond>
0.0000

> <Gold.Chemscore.DEClash>
0.0806

> <Gold.Chemscore.DEInternal>
2.7124

> <Gold.Chemscore.Rot>
2.2453

> <Gold.Chemscore.Internal.Correction>
   9.000000E+99

> <Gold.Chemscore.Hbonds>
donor molecule, donor type, donor heavy atom, donor atom, acceptor molecule, acceptor atom, score
      L1  H    22    49       P1  8028  0.51

> <Gold.Chemscore.Hbond.Weighted>
-0.0000

> <Gold.Chemscore.Metal.Weighted>
-0.0000

> <Gold.Chemscore.Lipo.Weighted>
-10.1108

> <Gold.Chemscore.Internal_Hbond.Weighted>
0.0000

> <Gold.Chemscore.DEClash.Weighted>
0.0806

> <Gold.Chemscore.DEInternal.Weighted>
2.7124

> <Gold.Chemscore.Rot.Weighted>
5.7479

> <Gold.Chemscore.Internal.Correction.Weighted>
   9.000000E+99

> <Gold.Protein.RotatedTorsions>
[ 6907 6896 6895 6894 ] final -136.36 input  -60.11 | X-H torsion
[ 7974 7965 7964 7962 ] final -146.16 input  175.53 | X-H torsion
[ 8008 7997 7996 7995 ] final -108.59 input   59.86 | X-H torsion
[ 10167 10162 10161 10158 ] final   -5.64 input  -65.29 | X-H torsion
[ 10718 10713 10712 10709 ] final   45.19 input   66.30 | X-H torsion
[ 10763 10752 10751 10750 ] final  -70.09 input  -60.55 | X-H torsion
[ 11005 11000 10999 10996 ] final -115.65 input  -57.11 | X-H torsion

> <Gold.Protein.ActiveResidues>
 VAL166  LYS551  ARG553  GLY616  TRP617  ASP618  TYR619  PRO620  LYS621  CYS622 
 ASP623  PHE694  ASN695  SER759  ASP760  ASP761  ALA762  ILE779  LEU786  VAL792 
 PHE793  MET794  SER795  GLU796  ALA797  LYS798  CYS799  TRP800  GLU811  SER814 

> <Gold.Protein.RotatedAtoms>
  151.0091  133.5982  159.2684 H   0  0  0  0  0  0  0  0  0  0  0  0  # atno 6907 bound_to 6896
  151.3140  135.0800  159.9292 H   0  0  0  0  0  0  0  0  0  0  0  0  # atno 6908 bound_to 6896
  152.5295  133.9751  159.7834 H   0  0  0  0  0  0  0  0  0  0  0  0  # atno 6909 bound_to 6896
  144.8178  140.5491  143.5599 H   0  0  0  0  0  0  0  0  0  0  0  0  # atno 7974 bound_to 7965
  154.9465  140.0401  157.2123 H   0  0  0  0  0  0  0  0  0  0  0  0  # atno 8008 bound_to 7997
  154.8019  140.2853  155.5894 H   0  0  0  0  0  0  0  0  0  0  0  0  # atno 8009 bound_to 7997
  156.2962  140.2553  156.2888 H   0  0  0  0  0  0  0  0  0  0  0  0  # atno 8010 bound_to 7997
  140.6970  143.6285  150.8545 H   0  0  0  0  0  0  0  0  0  0  0  0  # atno 10167 bound_to 10162
  157.4349  130.8047  149.7639 H   0  0  0  0  0  0  0  0  0  0  0  0  # atno 10718 bound_to 10713
  154.4127  135.6005  153.5962 H   0  0  0  0  0  0  0  0  0  0  0  0  # atno 10763 bound_to 10752
  152.9791  135.5933  154.4050 H   0  0  0  0  0  0  0  0  0  0  0  0  # atno 10764 bound_to 10752
  154.3865  135.2841  155.2159 H   0  0  0  0  0  0  0  0  0  0  0  0  # atno 10765 bound_to 10752
  141.0474  133.9741  157.2895 H   0  0  0  0  0  0  0  0  0  0  0  0  # atno 11005 bound_to 11000
  145.5174  139.1477  143.3571 LP  0  0  0  0  0  0  0  0  0  0  0  0  # atno 17320 bound_to 7965
  146.2482  140.5315  142.8905 LP  0  0  0  0  0  0  0  0  0  0  0  0  # atno 17321 bound_to 7965
  140.0004  143.5750  152.2878 LP  0  0  0  0  0  0  0  0  0  0  0  0  # atno 17342 bound_to 10162
  139.6438  144.7656  151.2285 LP  0  0  0  0  0  0  0  0  0  0  0  0  # atno 17343 bound_to 10162
  155.9927  130.3929  150.2931 LP  0  0  0  0  0  0  0  0  0  0  0  0  # atno 17370 bound_to 10713
  157.1091  131.0216  151.3055 LP  0  0  0  0  0  0  0  0  0  0  0  0  # atno 17371 bound_to 10713
  139.9322  135.0199  156.8439 LP  0  0  0  0  0  0  0  0  0  0  0  0  # atno 17394 bound_to 11000
  140.6121  134.0073  155.7581 LP  0  0  0  0  0  0  0  0  0  0  0  0  # atno 17395 bound_to 11000

$$$$
