AV-unprocessed.smi:3345|AV-procd|sdf|12906|dock3
  -GOLD-   2272019323D 1   1.00000     0.00000
 Structure written by MMmdl.
 41 42  0  0  0  0  0  0  0  0  2 V2000
  151.1515  140.5140  155.8661 C   0  0  0  0  0  0  0  0  0  0  0  0
  150.2556  141.7515  156.0085 C   0  0  1  0  0  0  0  0  0  0  0  0
  148.8616  141.3850  156.5673 C   0  0  0  0  0  0  0  0  0  0  0  0
  147.7683  141.5715  155.5784 N   0  3  0  0  0  0  0  0  0  0  0  0
  147.0122  142.8341  155.7580 C   0  0  0  0  0  0  0  0  0  0  0  0
  145.8496  142.8982  154.7545 C   0  0  0  0  0  0  0  0  0  0  0  0
  146.3620  142.7981  153.4313 O   0  0  0  0  0  0  0  0  0  0  0  0
  147.0348  141.5643  153.2105 C   0  0  0  0  0  0  0  0  0  0  0  0
  148.2261  141.4385  154.1756 C   0  0  0  0  0  0  0  0  0  0  0  0
  150.9134  142.7321  156.8721 N   0  0  0  0  0  0  0  0  0  0  0  0
  151.3381  142.5161  158.1280 C   0  0  0  0  0  0  0  0  0  0  0  0
  151.1355  141.4668  158.7393 O   0  0  0  0  0  0  0  0  0  0  0  0
  152.1614  143.6442  158.7647 C   0  0  1  0  0  0  0  0  0  0  0  0
  151.4521  145.0115  158.6935 C   0  0  0  0  0  0  0  0  0  0  0  0
  152.5160  143.2736  160.1297 N   0  0  0  0  0  0  0  0  0  0  0  0
  153.1418  142.1872  160.5881 C   0  0  0  0  0  0  0  0  0  0  0  0
  153.2440  142.1415  161.9089 N   0  0  0  0  0  0  0  0  0  0  0  0
  152.6193  143.3136  162.2274 C   0  0  0  0  0  0  0  0  0  0  0  0
  152.1403  144.0161  161.2014 N   0  0  0  0  0  0  0  0  0  0  0  0
  150.6945  139.7738  155.2086 H   0  0  0  0  0  0  0  0  0  0  0  0
  151.3305  140.0369  156.8304 H   0  0  0  0  0  0  0  0  0  0  0  0
  152.1204  140.7775  155.4404 H   0  0  0  0  0  0  0  0  0  0  0  0
  150.1316  142.1665  155.0074 H   0  0  0  0  0  0  0  0  0  0  0  0
  148.8519  140.3614  156.9447 H   0  0  0  0  0  0  0  0  0  0  0  0
  148.6646  142.0278  157.4268 H   0  0  0  0  0  0  0  0  0  0  0  0
  146.6203  142.9045  156.7718 H   0  0  0  0  0  0  0  0  0  0  0  0
  147.6782  143.6862  155.6145 H   0  0  0  0  0  0  0  0  0  0  0  0
  145.1281  142.1010  154.9425 H   0  0  0  0  0  0  0  0  0  0  0  0
  145.3159  143.8432  154.8566 H   0  0  0  0  0  0  0  0  0  0  0  0
  146.3413  140.7334  153.3393 H   0  0  0  0  0  0  0  0  0  0  0  0
  147.3821  141.5303  152.1779 H   0  0  0  0  0  0  0  0  0  0  0  0
  148.9693  142.2073  153.9577 H   0  0  0  0  0  0  0  0  0  0  0  0
  148.7101  140.4717  154.0325 H   0  0  0  0  0  0  0  0  0  0  0  0
  151.1103  143.6331  156.4607 H   0  0  0  0  0  0  0  0  0  0  0  0
  153.0928  143.7329  158.2025 H   0  0  0  0  0  0  0  0  0  0  0  0
  151.2388  145.2891  157.6608 H   0  0  0  0  0  0  0  0  0  0  0  0
  152.0786  145.7958  159.1189 H   0  0  0  0  0  0  0  0  0  0  0  0
  150.5062  145.0148  159.2370 H   0  0  0  0  0  0  0  0  0  0  0  0
  153.5222  141.4089  159.9428 H   0  0  0  0  0  0  0  0  0  0  0  0
  152.4935  143.6477  163.2468 H   0  0  0  0  0  0  0  0  0  0  0  0
  147.1149  140.8168  155.7329 H   0  0  0  0  0  0  0  0  0  0  0  0
  1  2  1  0  0  0  0
  1 20  1  0  0  0  0
  1 21  1  0  0  0  0
  1 22  1  0  0  0  0
  2  3  1  0  0  0  0
  2 10  1  0  0  0  0
  2 23  1  0  0  0  0
  3  4  1  0  0  0  0
  3 24  1  0  0  0  0
  3 25  1  0  0  0  0
  4  9  1  0  0  0  0
  4  5  1  0  0  0  0
  4 41  1  0  0  0  0
  5  6  1  0  0  0  0
  5 26  1  0  0  0  0
  5 27  1  0  0  0  0
  6  7  1  0  0  0  0
  6 28  1  0  0  0  0
  6 29  1  0  0  0  0
  7  8  1  0  0  0  0
  8  9  1  0  0  0  0
  8 30  1  0  0  0  0
  8 31  1  0  0  0  0
  9 32  1  0  0  0  0
  9 33  1  0  0  0  0
 10 11  1  0  0  0  0
 10 34  1  0  0  0  0
 11 12  2  0  0  0  0
 11 13  1  0  0  0  0
 13 14  1  0  0  0  0
 13 15  1  0  0  0  0
 13 35  1  0  0  0  0
 14 36  1  0  0  0  0
 14 37  1  0  0  0  0
 14 38  1  0  0  0  0
 15 19  1  0  0  0  0
 15 16  1  0  0  0  0
 16 17  2  0  0  0  0
 16 39  1  0  0  0  0
 17 18  1  0  0  0  0
 18 19  2  0  0  0  0
 18 40  1  0  0  0  0
M  CHG  1   4   1
M  END
> <s_m_source_file>
AV-unprocessed.smi

> <i_m_source_file_index>
3345

> <i_lp_mmshare_version>
43012

> <i_f3d_flags>
0

> <s_epik_input>
W0NIMl0xW0NIMl1PW0NIMl1bQ0gyXU4xW0NIMl1bQ0BASF0oW0NIM10pW05IXUMoPU8pW0NASF0oW0NIM10pbjJbY0hdbltjSF1uMg==

> <s_epik_cmdline>
J2VwaWtfcHl0aG9uJywgJy1waCcsICc3LjAnLCAnLXRuJywgJzgnLCAnLW1hJywgJzIwMCcsICctbWV0YWxfYmluZGluZycsICctaW1hZScsICc8aW5maWxlLm1hZT4nLCAnLW9tYWUnLCAnPG91dGZpbGUubWFlPic=

> <r_lp_tautomer_probability>
1

> <r_epik_Ionization_Penalty>
0.71326

> <r_epik_Ionization_Penalty_Charging>
0.713252

> <r_epik_Ionization_Penalty_Neutral>
8.27671e-06

> <r_epik_State_Penalty>
0.737017

> <r_epik_Charging_Adjusted_Penalty>
1.45027

> <i_epik_Tot_Q>
1

> <i_epik_Tot_abs_Q>
1

> <r_epik_Metal_State_Penalty>
0.73702

> <b_epik_Metal_Only>
0

> <s_lp_Force_Field>
OPLS_2005

> <r_lp_Energy>
25.9196

> <b_lp_Chiralities_Consistent>
1

> <s_lp_Variant>
AV-unprocessed.smi:3345-8

> <Gold.Version>
5.8.1

> <Gold.Id.Protein>
6NUR|6NUR_protein|mol2

> <Gold.PLP.Fitness>
37.9943

> <Gold.PLP.PLP>
-40.5212

> <Gold.PLP.part.hbond>
-0.5496

> <Gold.PLP.part.metal>
0.0000

> <Gold.PLP.part.buried>
-4.7883

> <Gold.PLP.part.nonpolar>
-33.8337

> <Gold.PLP.part.repulsive>
0.4224

> <Gold.PLP.ligand.clash>
0.0000

> <Gold.PLP.ligand.torsion>
1.3622

> <Gold.PLP.Chemscore.Hbond>
0.0000

> <Gold.PLP.Chemscore.CHOScore>
0.0000

> <Gold.PLP.Chemscore.Metal>
0.0000

> <Gold.PLP.Chemscore.Internal.Correction>
0.1975

> <Gold.Rescore>
     Score         DG    S(hbond)    S(metal)    S(lipo)     H(rot)  DE(clash)    DE(int)     intcor
      3.20      -6.56       0.00        0.00      66.35       2.61       0.02       3.34       ----

> <Gold.Chemscore.Fitness>
3.1984

> <Gold.Chemscore.DG>
-6.5562

> <Gold.Chemscore.ZeroCoef>
-5.4800

> <Gold.Chemscore.Hbond>
0.0012

> <Gold.Chemscore.Metal>
0.0000

> <Gold.Chemscore.Lipo>
66.3543

> <Gold.Chemscore.Internal_Hbond>
0.0000

> <Gold.Chemscore.DEClash>
0.0186

> <Gold.Chemscore.DEInternal>
3.3392

> <Gold.Chemscore.Rot>
2.6138

> <Gold.Chemscore.Internal.Correction>
   9.000000E+99

> <Gold.Chemscore.Hbond.Weighted>
-0.0040

> <Gold.Chemscore.Metal.Weighted>
-0.0000

> <Gold.Chemscore.Lipo.Weighted>
-7.7635

> <Gold.Chemscore.Internal_Hbond.Weighted>
0.0000

> <Gold.Chemscore.DEClash.Weighted>
0.0186

> <Gold.Chemscore.DEInternal.Weighted>
3.3392

> <Gold.Chemscore.Rot.Weighted>
6.6912

> <Gold.Chemscore.Internal.Correction.Weighted>
   9.000000E+99

> <Gold.Protein.RotatedTorsions>
[ 6907 6896 6895 6894 ] final  177.48 input  -60.11 | X-H torsion
[ 7974 7965 7964 7962 ] final   53.08 input  175.53 | X-H torsion
[ 8008 7997 7996 7995 ] final  -27.13 input   59.86 | X-H torsion
[ 10167 10162 10161 10158 ] final  -13.76 input  -65.29 | X-H torsion
[ 10718 10713 10712 10709 ] final  122.66 input   66.30 | X-H torsion
[ 10763 10752 10751 10750 ] final  175.82 input  -60.55 | X-H torsion
[ 11005 11000 10999 10996 ] final   87.25 input  -57.11 | X-H torsion

> <Gold.Protein.ActiveResidues>
 VAL166  LYS551  ARG553  GLY616  TRP617  ASP618  TYR619  PRO620  LYS621  CYS622 
 ASP623  PHE694  ASN695  SER759  ASP760  ASP761  ALA762  ILE779  LEU786  VAL792 
 PHE793  MET794  SER795  GLU796  ALA797  LYS798  CYS799  TRP800  GLU811  SER814 

> <Gold.Protein.RotatedAtoms>
  151.7033  133.3311  159.3271 H   0  0  0  0  0  0  0  0  0  0  0  0  # atno 6907 bound_to 6896
  150.7726  134.6596  159.6342 H   0  0  0  0  0  0  0  0  0  0  0  0  # atno 6908 bound_to 6896
  152.3756  134.6671  160.0213 H   0  0  0  0  0  0  0  0  0  0  0  0  # atno 6909 bound_to 6896
  145.9748  139.4184  143.0168 H   0  0  0  0  0  0  0  0  0  0  0  0  # atno 7974 bound_to 7965
  154.4392  140.1881  156.0883 H   0  0  0  0  0  0  0  0  0  0  0  0  # atno 8008 bound_to 7997
  156.0385  140.3322  155.7191 H   0  0  0  0  0  0  0  0  0  0  0  0  # atno 8009 bound_to 7997
  155.5734  140.0615  157.2792 H   0  0  0  0  0  0  0  0  0  0  0  0  # atno 8010 bound_to 7997
  140.7188  143.5392  150.9429 H   0  0  0  0  0  0  0  0  0  0  0  0  # atno 10167 bound_to 10162
  157.5725  131.1082  150.8340 H   0  0  0  0  0  0  0  0  0  0  0  0  # atno 10718 bound_to 10713
  154.4728  135.2772  155.1630 H   0  0  0  0  0  0  0  0  0  0  0  0  # atno 10763 bound_to 10752
  154.3372  135.6178  153.5582 H   0  0  0  0  0  0  0  0  0  0  0  0  # atno 10764 bound_to 10752
  152.9866  135.5779  154.5112 H   0  0  0  0  0  0  0  0  0  0  0  0  # atno 10765 bound_to 10752
  139.8924  134.8409  156.2833 H   0  0  0  0  0  0  0  0  0  0  0  0  # atno 11005 bound_to 11000
  145.7854  140.9838  143.1077 LP  0  0  0  0  0  0  0  0  0  0  0  0  # atno 17320 bound_to 7965
  144.6846  139.9616  143.7480 LP  0  0  0  0  0  0  0  0  0  0  0  0  # atno 17321 bound_to 7965
  139.9114  143.6715  152.3114 LP  0  0  0  0  0  0  0  0  0  0  0  0  # atno 17342 bound_to 10162
  139.7100  144.7622  151.1129 LP  0  0  0  0  0  0  0  0  0  0  0  0  # atno 17343 bound_to 10162
  156.8807  130.5178  149.5291 LP  0  0  0  0  0  0  0  0  0  0  0  0  # atno 17370 bound_to 10713
  156.0770  130.5790  150.9493 LP  0  0  0  0  0  0  0  0  0  0  0  0  # atno 17371 bound_to 10713
  141.0024  133.7143  156.0981 LP  0  0  0  0  0  0  0  0  0  0  0  0  # atno 17394 bound_to 11000
  140.7480  134.4077  157.5545 LP  0  0  0  0  0  0  0  0  0  0  0  0  # atno 17395 bound_to 11000

$$$$
