AV-unprocessed.smi:1341|AV-procd|sdf|5505|dock9
  -GOLD-   22720 5 83D 1   1.00000     0.00000
 Structure written by MMmdl.
 34 35  0  0  0  0  0  0  0  0  1 V2000
  154.2938  136.9122  163.9014 C   0  0  0  0  0  0  0  0  0  0  0  0
  153.9561  137.0095  162.6069 C   0  0  0  0  0  0  0  0  0  0  0  0
  154.7490  137.7788  161.5685 C   0  0  0  0  0  0  0  0  0  0  0  0
  153.9653  138.8640  160.9918 N   0  0  0  0  0  0  0  0  0  0  0  0
  154.2844  140.1677  161.0496 C   0  0  0  0  0  0  0  0  0  0  0  0
  155.2980  140.5965  161.6018 O   0  0  0  0  0  0  0  0  0  0  0  0
  153.3233  141.0866  160.3492 C   0  0  0  0  0  0  0  0  0  0  0  0
  152.9041  140.7141  159.1161 N   0  0  0  0  0  0  0  0  0  0  0  0
  152.0199  141.4897  158.4763 C   0  0  0  0  0  0  0  0  0  0  0  0
  151.6076  141.0849  157.2000 N   0  0  0  0  0  0  0  0  0  0  0  0
  150.9234  141.9963  156.2790 C   0  0  0  0  0  0  0  0  0  0  0  0
  149.9382  141.2290  155.3813 C   0  0  0  0  0  0  0  0  0  0  0  0
  150.6201  140.1820  154.7021 O   0  0  0  0  0  0  0  0  0  0  0  0
  151.1695  139.2390  155.6138 C   0  0  0  0  0  0  0  0  0  0  0  0
  152.2016  139.9306  156.5206 C   0  0  0  0  0  0  0  0  0  0  0  0
  151.5040  142.6232  158.9667 N   0  0  0  0  0  0  0  0  0  0  0  0
  151.9017  143.0146  160.1950 C   0  0  0  0  0  0  0  0  0  0  0  0
  152.8277  142.2710  160.9514 C   0  0  0  0  0  0  0  0  0  0  0  0
  153.3171  142.8356  162.5121 Cl  0  0  0  0  0  0  0  0  0  0  0  0
  155.1776  137.3970  164.2896 H   0  0  0  0  0  0  0  0  0  0  0  0
  153.6873  136.3440  164.5911 H   0  0  0  0  0  0  0  0  0  0  0  0
  153.0664  136.5063  162.2566 H   0  0  0  0  0  0  0  0  0  0  0  0
  155.6484  138.1986  162.0202 H   0  0  0  0  0  0  0  0  0  0  0  0
  155.0785  137.0925  160.7870 H   0  0  0  0  0  0  0  0  0  0  0  0
  153.1134  138.6104  160.5123 H   0  0  0  0  0  0  0  0  0  0  0  0
  150.3703  142.7749  156.8033 H   0  0  0  0  0  0  0  0  0  0  0  0
  151.6728  142.4994  155.6670 H   0  0  0  0  0  0  0  0  0  0  0  0
  149.1134  140.8219  155.9687 H   0  0  0  0  0  0  0  0  0  0  0  0
  149.5009  141.9026  154.6443 H   0  0  0  0  0  0  0  0  0  0  0  0
  150.3750  138.7822  156.2065 H   0  0  0  0  0  0  0  0  0  0  0  0
  151.6452  138.4368  155.0495 H   0  0  0  0  0  0  0  0  0  0  0  0
  153.0503  140.2733  155.9277 H   0  0  0  0  0  0  0  0  0  0  0  0
  152.5857  139.1922  157.2238 H   0  0  0  0  0  0  0  0  0  0  0  0
  151.4786  143.9325  160.5753 H   0  0  0  0  0  0  0  0  0  0  0  0
  1  2  2  0  0  0  0
  1 20  1  0  0  0  0
  1 21  1  0  0  0  0
  2  3  1  0  0  0  0
  2 22  1  0  0  0  0
  3  4  1  0  0  0  0
  3 23  1  0  0  0  0
  3 24  1  0  0  0  0
  4  5  1  0  0  0  0
  4 25  1  0  0  0  0
  5  6  2  0  0  0  0
  5  7  1  0  0  0  0
  7 18  1  0  0  0  0
  7  8  2  0  0  0  0
  8  9  1  0  0  0  0
  9 10  1  0  0  0  0
  9 16  2  0  0  0  0
 10 15  1  0  0  0  0
 10 11  1  0  0  0  0
 11 12  1  0  0  0  0
 11 26  1  0  0  0  0
 11 27  1  0  0  0  0
 12 13  1  0  0  0  0
 12 28  1  0  0  0  0
 12 29  1  0  0  0  0
 13 14  1  0  0  0  0
 14 15  1  0  0  0  0
 14 30  1  0  0  0  0
 14 31  1  0  0  0  0
 15 32  1  0  0  0  0
 15 33  1  0  0  0  0
 16 17  1  0  0  0  0
 17 18  2  0  0  0  0
 17 34  1  0  0  0  0
 18 19  1  0  0  0  0
M  END
> <s_m_source_file>
AV-unprocessed.smi

> <i_m_source_file_index>
1341

> <i_lp_mmshare_version>
43012

> <i_f3d_flags>
0

> <s_epik_input>
W0NIMl09W0NIXVtDSDJdW05IXUMoPU8pYzFuYyhuW2NIXWMxQ2wpTjJbQ0gyXVtDSDJdT1tDSDJdW0NIMl0y

> <s_epik_cmdline>
J2VwaWtfcHl0aG9uJywgJy1waCcsICc3LjAnLCAnLXRuJywgJzgnLCAnLW1hJywgJzIwMCcsICctbWV0YWxfYmluZGluZycsICctaW1hZScsICc8aW5maWxlLm1hZT4nLCAnLW9tYWUnLCAnPG91dGZpbGUubWFlPic=

> <r_lp_tautomer_probability>
1

> <r_epik_Ionization_Penalty>
2.38615e-05

> <r_epik_Ionization_Penalty_Charging>
0

> <r_epik_Ionization_Penalty_Neutral>
2.38615e-05

> <r_epik_State_Penalty>
-0

> <r_epik_Charging_Adjusted_Penalty>
0

> <i_epik_Tot_Q>
0

> <i_epik_Tot_abs_Q>
0

> <r_epik_Metal_State_Penalty>
0.0225026

> <b_epik_Metal_Only>
0

> <s_lp_Force_Field>
OPLS_2005

> <r_lp_Energy>
14.7295

> <b_lp_Chiralities_Consistent>
1

> <s_lp_Variant>
AV-unprocessed.smi:1341-1

> <Gold.Version>
5.8.1

> <Gold.Id.Protein>
6NUR|6NUR_protein|mol2

> <Gold.PLP.Fitness>
43.4923

> <Gold.PLP.PLP>
-42.1085

> <Gold.PLP.part.hbond>
-2.0000

> <Gold.PLP.part.metal>
0.0000

> <Gold.PLP.part.buried>
-5.1687

> <Gold.PLP.part.nonpolar>
-33.7357

> <Gold.PLP.part.repulsive>
0.1092

> <Gold.PLP.ligand.clash>
0.0000

> <Gold.PLP.ligand.torsion>
0.8623

> <Gold.PLP.Chemscore.Hbond>
1.0000

> <Gold.PLP.Chemscore.CHOScore>
0.0000

> <Gold.PLP.Chemscore.Metal>
0.0000

> <Gold.Chemscore.Hbonds>
donor molecule, donor type, donor heavy atom, donor atom, acceptor molecule, acceptor atom, score
      P1  H  7989  7998       L1    13  1.00

> <Gold.PLP.Chemscore.Internal.Correction>
0.1084

> <Gold.Rescore>
     Score         DG    S(hbond)    S(metal)    S(lipo)     H(rot)  DE(clash)    DE(int)     intcor
     15.59     -16.55       0.86        0.00      95.55       1.16       0.12       0.83       ----

> <Gold.Chemscore.Fitness>
15.5903

> <Gold.Chemscore.DG>
-16.5455

> <Gold.Chemscore.ZeroCoef>
-5.4800

> <Gold.Chemscore.Hbond>
0.8581

> <Gold.Chemscore.Metal>
0.0000

> <Gold.Chemscore.Lipo>
95.5510

> <Gold.Chemscore.Internal_Hbond>
0.0000

> <Gold.Chemscore.DEClash>
0.1229

> <Gold.Chemscore.DEInternal>
0.8322

> <Gold.Chemscore.Rot>
1.1641

> <Gold.Chemscore.Internal.Correction>
   9.000000E+99

> <Gold.Chemscore.Hbonds>
donor molecule, donor type, donor heavy atom, donor atom, acceptor molecule, acceptor atom, score
      P1  H  7989  7998       L1    13  0.68

> <Gold.Chemscore.Hbond.Weighted>
-2.8662

> <Gold.Chemscore.Metal.Weighted>
-0.0000

> <Gold.Chemscore.Lipo.Weighted>
-11.1795

> <Gold.Chemscore.Internal_Hbond.Weighted>
0.0000

> <Gold.Chemscore.DEClash.Weighted>
0.1229

> <Gold.Chemscore.DEInternal.Weighted>
0.8322

> <Gold.Chemscore.Rot.Weighted>
2.9802

> <Gold.Chemscore.Internal.Correction.Weighted>
   9.000000E+99

> <Gold.Protein.RotatedTorsions>
[ 6907 6896 6895 6894 ] final  107.73 input  -60.11 | X-H torsion
[ 7974 7965 7964 7962 ] final  -41.11 input  175.53 | X-H torsion
[ 8008 7997 7996 7995 ] final  162.39 input   59.86 | X-H torsion
[ 10167 10162 10161 10158 ] final  -41.32 input  -65.29 | X-H torsion
[ 10718 10713 10712 10709 ] final   61.85 input   66.30 | X-H torsion
[ 10763 10752 10751 10750 ] final -117.50 input  -60.55 | X-H torsion
[ 11005 11000 10999 10996 ] final  -13.12 input  -57.11 | X-H torsion

> <Gold.Protein.ActiveResidues>
 VAL166  LYS551  ARG553  GLY616  TRP617  ASP618  TYR619  PRO620  LYS621  CYS622 
 ASP623  PHE694  ASN695  SER759  ASP760  ASP761  ALA762  ILE779  LEU786  VAL792 
 PHE793  MET794  SER795  GLU796  ALA797  LYS798  CYS799  TRP800  GLU811  SER814 

> <Gold.Protein.RotatedAtoms>
  152.5142  133.9192  159.7525 H   0  0  0  0  0  0  0  0  0  0  0  0  # atno 6907 bound_to 6896
  150.9568  133.6481  159.2768 H   0  0  0  0  0  0  0  0  0  0  0  0  # atno 6908 bound_to 6896
  151.3740  135.0933  159.9527 H   0  0  0  0  0  0  0  0  0  0  0  0  # atno 6909 bound_to 6896
  146.0242  140.6812  142.9163 H   0  0  0  0  0  0  0  0  0  0  0  0  # atno 7974 bound_to 7965
  156.2034  140.1751  156.7851 H   0  0  0  0  0  0  0  0  0  0  0  0  # atno 8008 bound_to 7997
  154.5622  140.0697  156.8868 H   0  0  0  0  0  0  0  0  0  0  0  0  # atno 8009 bound_to 7997
  155.2826  140.3350  155.4260 H   0  0  0  0  0  0  0  0  0  0  0  0  # atno 8010 bound_to 7997
  140.7006  143.3101  151.3050 H   0  0  0  0  0  0  0  0  0  0  0  0  # atno 10167 bound_to 10162
  157.5858  130.9018  149.9513 H   0  0  0  0  0  0  0  0  0  0  0  0  # atno 10718 bound_to 10713
  154.8557  135.4307  154.1990 H   0  0  0  0  0  0  0  0  0  0  0  0  # atno 10763 bound_to 10752
  153.3041  135.6971  153.7181 H   0  0  0  0  0  0  0  0  0  0  0  0  # atno 10764 bound_to 10752
  153.6300  135.3486  155.3013 H   0  0  0  0  0  0  0  0  0  0  0  0  # atno 10765 bound_to 10752
  140.7728  133.8425  155.9222 H   0  0  0  0  0  0  0  0  0  0  0  0  # atno 11005 bound_to 11000
  144.7002  140.3620  143.7162 LP  0  0  0  0  0  0  0  0  0  0  0  0  # atno 17320 bound_to 7965
  145.7144  139.1693  143.2520 LP  0  0  0  0  0  0  0  0  0  0  0  0  # atno 17321 bound_to 7965
  139.6521  144.0343  152.2634 LP  0  0  0  0  0  0  0  0  0  0  0  0  # atno 17342 bound_to 10162
  139.9883  144.6380  150.7838 LP  0  0  0  0  0  0  0  0  0  0  0  0  # atno 17343 bound_to 10162
  156.0907  130.3663  150.0400 LP  0  0  0  0  0  0  0  0  0  0  0  0  # atno 17370 bound_to 10713
  156.8532  130.9466  151.3624 LP  0  0  0  0  0  0  0  0  0  0  0  0  # atno 17371 bound_to 10713
  140.9557  134.1721  157.4693 LP  0  0  0  0  0  0  0  0  0  0  0  0  # atno 17394 bound_to 11000
  139.8753  134.9926  156.5604 LP  0  0  0  0  0  0  0  0  0  0  0  0  # atno 17395 bound_to 11000

$$$$
