AV-unprocessed.smi:1840|AV-procd|sdf|7490|dock4
  -GOLD-   22720 9193D 1   1.00000     0.00000
 Structure written by MMmdl.
 43 44  0  0  0  0  0  0  0  0  1 V2000
  151.7415  144.0590  158.5867 C   0  0  0  0  0  0  0  0  0  0  0  0
  150.9407  142.7498  158.5816 C   0  0  2  0  0  0  0  0  0  0  0  0
  151.8177  141.5550  158.1494 C   0  0  0  0  0  0  0  0  0  0  0  0
  152.8853  141.2719  159.0926 N   0  0  0  0  0  0  0  0  0  0  0  0
  153.2290  141.9674  160.2331 C   0  0  0  0  0  0  0  0  0  0  0  0
  154.3104  141.3394  160.7808 C   0  0  0  0  0  0  0  0  0  0  0  0
  154.5550  140.2534  159.8943 C   0  0  0  0  0  0  0  0  0  0  0  0
  153.6981  140.2134  158.8870 N   0  0  0  0  0  0  0  0  0  0  0  0
  149.7934  142.8981  157.6870 N   0  0  0  0  0  0  0  0  0  0  0  0
  148.8269  141.9876  157.5003 C   0  0  0  0  0  0  0  0  0  0  0  0
  148.7529  140.9201  158.1087 O   0  0  0  0  0  0  0  0  0  0  0  0
  147.9675  142.3725  156.5477 N   0  0  0  0  0  0  0  0  0  0  0  0
  146.8396  141.5854  156.0477 C   0  0  1  0  0  0  0  0  0  0  0  0
  145.5066  142.1689  156.5590 C   0  0  0  0  0  0  0  0  0  0  0  0
  145.1783  143.5230  155.9066 C   0  0  0  0  0  0  0  0  0  0  0  0
  145.1868  143.4174  154.3742 C   0  0  0  0  0  0  0  0  0  0  0  0
  146.5241  142.8620  153.8585 C   0  0  0  0  0  0  0  0  0  0  0  0
  146.8602  141.5003  154.5014 C   0  0  1  0  0  0  0  0  0  0  0  0
  148.1788  140.9250  153.9548 C   0  0  0  0  0  0  0  0  0  0  0  0
  152.5892  143.9960  159.2697 H   0  0  0  0  0  0  0  0  0  0  0  0
  151.1221  144.8969  158.9085 H   0  0  0  0  0  0  0  0  0  0  0  0
  152.1303  144.2921  157.5947 H   0  0  0  0  0  0  0  0  0  0  0  0
  150.5959  142.5799  159.6034 H   0  0  0  0  0  0  0  0  0  0  0  0
  151.2103  140.6567  158.0299 H   0  0  0  0  0  0  0  0  0  0  0  0
  152.2704  141.7543  157.1769 H   0  0  0  0  0  0  0  0  0  0  0  0
  152.6878  142.8467  160.5502 H   0  0  0  0  0  0  0  0  0  0  0  0
  154.8470  141.6151  161.6764 H   0  0  0  0  0  0  0  0  0  0  0  0
  155.3249  139.4981  159.9524 H   0  0  0  0  0  0  0  0  0  0  0  0
  149.7560  143.7442  157.1380 H   0  0  0  0  0  0  0  0  0  0  0  0
  148.1165  143.2704  156.1116 H   0  0  0  0  0  0  0  0  0  0  0  0
  146.9257  140.5663  156.4294 H   0  0  0  0  0  0  0  0  0  0  0  0
  144.7023  141.4654  156.3402 H   0  0  0  0  0  0  0  0  0  0  0  0
  145.5298  142.2722  157.6446 H   0  0  0  0  0  0  0  0  0  0  0  0
  144.2039  143.8725  156.2490 H   0  0  0  0  0  0  0  0  0  0  0  0
  145.9026  144.2730  156.2264 H   0  0  0  0  0  0  0  0  0  0  0  0
  144.3725  142.7687  154.0490 H   0  0  0  0  0  0  0  0  0  0  0  0
  144.9962  144.3964  153.9336 H   0  0  0  0  0  0  0  0  0  0  0  0
  146.4794  142.7592  152.7737 H   0  0  0  0  0  0  0  0  0  0  0  0
  147.3201  143.5786  154.0647 H   0  0  0  0  0  0  0  0  0  0  0  0
  146.0715  140.8045  154.2105 H   0  0  0  0  0  0  0  0  0  0  0  0
  149.0225  141.5872  154.1508 H   0  0  0  0  0  0  0  0  0  0  0  0
  148.1219  140.7769  152.8763 H   0  0  0  0  0  0  0  0  0  0  0  0
  148.4027  139.9590  154.4081 H   0  0  0  0  0  0  0  0  0  0  0  0
  1  2  1  0  0  0  0
  1 20  1  0  0  0  0
  1 21  1  0  0  0  0
  1 22  1  0  0  0  0
  2  3  1  0  0  0  0
  2  9  1  0  0  0  0
  2 23  1  0  0  0  0
  3  4  1  0  0  0  0
  3 24  1  0  0  0  0
  3 25  1  0  0  0  0
  4  8  1  0  0  0  0
  4  5  1  0  0  0  0
  5  6  2  0  0  0  0
  5 26  1  0  0  0  0
  6  7  1  0  0  0  0
  6 27  1  0  0  0  0
  7  8  2  0  0  0  0
  7 28  1  0  0  0  0
  9 10  1  0  0  0  0
  9 29  1  0  0  0  0
 10 11  2  0  0  0  0
 10 12  1  0  0  0  0
 12 13  1  0  0  0  0
 12 30  1  0  0  0  0
 13 18  1  0  0  0  0
 13 14  1  0  0  0  0
 13 31  1  0  0  0  0
 14 15  1  0  0  0  0
 14 32  1  0  0  0  0
 14 33  1  0  0  0  0
 15 16  1  0  0  0  0
 15 34  1  0  0  0  0
 15 35  1  0  0  0  0
 16 17  1  0  0  0  0
 16 36  1  0  0  0  0
 16 37  1  0  0  0  0
 17 18  1  0  0  0  0
 17 38  1  0  0  0  0
 17 39  1  0  0  0  0
 18 19  1  0  0  0  0
 18 40  1  0  0  0  0
 19 41  1  0  0  0  0
 19 42  1  0  0  0  0
 19 43  1  0  0  0  0
M  END
> <s_m_source_file>
AV-unprocessed.smi

> <i_m_source_file_index>
1840

> <i_lp_mmshare_version>
43012

> <i_f3d_flags>
0

> <s_epik_input>
bjFbY0hdW2NIXVtjSF1uMVtDSDJdW0NAQEhdKFtDSDNdKVtOSF1DKD1PKVtOSF1bQ0BASF0yW0NIMl1bQ0gyXVtDSDJdW0NIMl1bQ0BIXTJbQ0gzXQ==

> <s_epik_cmdline>
J2VwaWtfcHl0aG9uJywgJy1waCcsICc3LjAnLCAnLXRuJywgJzgnLCAnLW1hJywgJzIwMCcsICctbWV0YWxfYmluZGluZycsICctaW1hZScsICc8aW5maWxlLm1hZT4nLCAnLW9tYWUnLCAnPG91dGZpbGUubWFlPic=

> <r_lp_tautomer_probability>
1

> <r_epik_Ionization_Penalty>
7.38659e-05

> <r_epik_Ionization_Penalty_Charging>
0

> <r_epik_Ionization_Penalty_Neutral>
7.38659e-05

> <r_epik_State_Penalty>
-0

> <r_epik_Charging_Adjusted_Penalty>
0

> <i_epik_Tot_Q>
0

> <i_epik_Tot_abs_Q>
0

> <r_epik_Metal_State_Penalty>
-0

> <b_epik_Metal_Only>
0

> <s_lp_Force_Field>
OPLS_2005

> <r_lp_Energy>
7.22709

> <b_lp_Chiralities_Consistent>
1

> <s_lp_Variant>
AV-unprocessed.smi:1840-3

> <Gold.Version>
5.8.1

> <Gold.Id.Protein>
6NUR|6NUR_protein|mol2

> <Gold.PLP.Fitness>
47.3064

> <Gold.PLP.PLP>
-38.8884

> <Gold.PLP.part.hbond>
-3.2265

> <Gold.PLP.part.metal>
0.0000

> <Gold.PLP.part.buried>
-4.2128

> <Gold.PLP.part.nonpolar>
-31.4234

> <Gold.PLP.part.repulsive>
0.0689

> <Gold.PLP.ligand.clash>
0.0000

> <Gold.PLP.ligand.torsion>
0.1556

> <Gold.PLP.Chemscore.Hbond>
2.9040

> <Gold.PLP.Chemscore.CHOScore>
0.0000

> <Gold.PLP.Chemscore.Metal>
0.0000

> <Gold.Chemscore.Hbonds>
donor molecule, donor type, donor heavy atom, donor atom, acceptor molecule, acceptor atom, score
      L1  H     9    29       P1  8028  0.96
      L1  H    12    30       P1  8028  1.00
      P1  H  7997  8008       L1     8  0.93

> <Gold.PLP.Chemscore.Internal.Correction>
0.0172

> <Gold.Rescore>
     Score         DG    S(hbond)    S(metal)    S(lipo)     H(rot)  DE(clash)    DE(int)     intcor
     20.44     -20.68       2.54        0.00      91.38       1.56       0.09       0.15       ----

> <Gold.Chemscore.Fitness>
20.4410

> <Gold.Chemscore.DG>
-20.6834

> <Gold.Chemscore.ZeroCoef>
-5.4800

> <Gold.Chemscore.Hbond>
2.5448

> <Gold.Chemscore.Metal>
0.0000

> <Gold.Chemscore.Lipo>
91.3799

> <Gold.Chemscore.Internal_Hbond>
0.0000

> <Gold.Chemscore.DEClash>
0.0922

> <Gold.Chemscore.DEInternal>
0.1502

> <Gold.Chemscore.Rot>
1.5576

> <Gold.Chemscore.Internal.Correction>
   9.000000E+99

> <Gold.Chemscore.Hbonds>
donor molecule, donor type, donor heavy atom, donor atom, acceptor molecule, acceptor atom, score
      L1  H     9    29       P1  8028  0.80
      L1  H    12    30       P1  8028  0.45
      P1  H  7997  8008       L1     8  0.51

> <Gold.Chemscore.Hbond.Weighted>
-8.4995

> <Gold.Chemscore.Metal.Weighted>
-0.0000

> <Gold.Chemscore.Lipo.Weighted>
-10.6914

> <Gold.Chemscore.Internal_Hbond.Weighted>
0.0000

> <Gold.Chemscore.DEClash.Weighted>
0.0922

> <Gold.Chemscore.DEInternal.Weighted>
0.1502

> <Gold.Chemscore.Rot.Weighted>
3.9875

> <Gold.Chemscore.Internal.Correction.Weighted>
   9.000000E+99

> <Gold.Protein.RotatedTorsions>
[ 6907 6896 6895 6894 ] final  177.78 input  -60.11 | X-H torsion
[ 7974 7965 7964 7962 ] final  -71.70 input  175.53 | X-H torsion
[ 8008 7997 7996 7995 ] final  -98.79 input   59.86 | X-H torsion
[ 10167 10162 10161 10158 ] final  171.28 input  -65.29 | X-H torsion
[ 10718 10713 10712 10709 ] final  -69.92 input   66.30 | X-H torsion
[ 10763 10752 10751 10750 ] final  -78.27 input  -60.55 | X-H torsion
[ 11005 11000 10999 10996 ] final   20.04 input  -57.11 | X-H torsion

> <Gold.Protein.ActiveResidues>
 VAL166  LYS551  ARG553  GLY616  TRP617  ASP618  TYR619  PRO620  LYS621  CYS622 
 ASP623  PHE694  ASN695  SER759  ASP760  ASP761  ALA762  ILE779  LEU786  VAL792 
 PHE793  MET794  SER795  GLU796  ALA797  LYS798  CYS799  TRP800  GLU811  SER814 

> <Gold.Protein.RotatedAtoms>
  151.6985  133.3311  159.3260 H   0  0  0  0  0  0  0  0  0  0  0  0  # atno 6907 bound_to 6896
  150.7746  134.6636  159.6362 H   0  0  0  0  0  0  0  0  0  0  0  0  # atno 6908 bound_to 6896
  152.3784  134.6631  160.0203 H   0  0  0  0  0  0  0  0  0  0  0  0  # atno 6909 bound_to 6896
  145.6747  140.9209  143.0864 H   0  0  0  0  0  0  0  0  0  0  0  0  # atno 7974 bound_to 7965
  154.8060  140.0452  157.1307 H   0  0  0  0  0  0  0  0  0  0  0  0  # atno 8008 bound_to 7997
  154.9424  140.3054  155.5094 H   0  0  0  0  0  0  0  0  0  0  0  0  # atno 8009 bound_to 7997
  156.2967  140.2303  156.4494 H   0  0  0  0  0  0  0  0  0  0  0  0  # atno 8010 bound_to 7997
  139.5042  144.3503  151.9929 H   0  0  0  0  0  0  0  0  0  0  0  0  # atno 10167 bound_to 10162
  156.0432  130.4321  150.2219 H   0  0  0  0  0  0  0  0  0  0  0  0  # atno 10718 bound_to 10713
  154.5237  135.5735  153.6702 H   0  0  0  0  0  0  0  0  0  0  0  0  # atno 10763 bound_to 10752
  152.9923  135.6188  154.2720 H   0  0  0  0  0  0  0  0  0  0  0  0  # atno 10764 bound_to 10752
  154.2642  135.2855  155.2745 H   0  0  0  0  0  0  0  0  0  0  0  0  # atno 10765 bound_to 10752
  140.4070  134.1658  155.7665 H   0  0  0  0  0  0  0  0  0  0  0  0  # atno 11005 bound_to 11000
  144.7045  139.8618  143.7434 LP  0  0  0  0  0  0  0  0  0  0  0  0  # atno 17320 bound_to 7965
  146.1015  139.4011  143.0344 LP  0  0  0  0  0  0  0  0  0  0  0  0  # atno 17321 bound_to 7965
  140.2940  144.3722  150.6080 LP  0  0  0  0  0  0  0  0  0  0  0  0  # atno 17342 bound_to 10162
  140.5925  143.2167  151.7226 LP  0  0  0  0  0  0  0  0  0  0  0  0  # atno 17343 bound_to 10162
  157.0311  131.0008  151.3312 LP  0  0  0  0  0  0  0  0  0  0  0  0  # atno 17370 bound_to 10713
  157.5276  130.8038  149.7880 LP  0  0  0  0  0  0  0  0  0  0  0  0  # atno 17371 bound_to 10713
  141.1835  133.8362  157.1171 LP  0  0  0  0  0  0  0  0  0  0  0  0  # atno 17394 bound_to 11000
  140.0295  134.9908  157.0752 LP  0  0  0  0  0  0  0  0  0  0  0  0  # atno 17395 bound_to 11000

$$$$
