AV-unprocessed.smi:3105|AV-procd|sdf|11822|dock3
  -GOLD-   2272017193D 1   1.00000     0.00000
 Structure written by MMmdl.
 34 34  0  0  0  0  0  0  0  0  2 V2000
  150.8146  140.5576  157.8999 C   0  0  0  0  0  0  0  0  0  0  0  0
  150.9375  141.9418  157.2358 C   0  0  1  0  0  0  0  0  0  0  0  0
  149.6915  142.2566  156.4985 N   0  3  0  0  0  0  0  0  0  0  0  0
  149.5665  141.6275  155.1652 C   0  0  0  0  0  0  0  0  0  0  0  0
  149.3098  140.1107  155.2653 C   0  0  0  0  0  0  0  0  0  0  0  0
  150.1337  139.2563  154.2909 C   0  0  0  0  0  0  0  0  0  0  0  0
  149.4463  138.5209  153.4146 N   0  0  0  0  0  0  0  0  0  0  0  0
  151.3634  139.2566  154.3176 O   0  0  0  0  0  0  0  0  0  0  0  0
  151.2427  143.0696  158.2591 C   0  0  1  0  0  0  0  0  0  0  0  0
  149.9745  143.7082  158.8557 C   0  0  0  0  0  0  0  0  0  0  0  0
  152.1048  142.5974  159.3379 N   0  0  0  0  0  0  0  0  0  0  0  0
  153.3330  141.9763  159.2379 C   0  0  0  0  0  0  0  0  0  0  0  0
  153.7662  141.7196  160.5069 C   0  0  0  0  0  0  0  0  0  0  0  0
  152.7270  142.2350  161.3302 C   0  0  0  0  0  0  0  0  0  0  0  0
  151.7367  142.7622  160.6290 N   0  0  0  0  0  0  0  0  0  0  0  0
  151.7476  140.2541  158.3737 H   0  0  0  0  0  0  0  0  0  0  0  0
  150.5703  139.7836  157.1724 H   0  0  0  0  0  0  0  0  0  0  0  0
  150.0354  140.5514  158.6628 H   0  0  0  0  0  0  0  0  0  0  0  0
  151.7591  141.9061  156.5185 H   0  0  0  0  0  0  0  0  0  0  0  0
  148.8940  142.0163  157.0693 H   0  0  0  0  0  0  0  0  0  0  0  0
  148.7562  142.1030  154.6103 H   0  0  0  0  0  0  0  0  0  0  0  0
  150.4807  141.8020  154.5981 H   0  0  0  0  0  0  0  0  0  0  0  0
  149.5404  139.7838  156.2802 H   0  0  0  0  0  0  0  0  0  0  0  0
  148.2513  139.9002  155.1083 H   0  0  0  0  0  0  0  0  0  0  0  0
  149.9328  137.9404  152.7464 H   0  0  0  0  0  0  0  0  0  0  0  0
  148.4365  138.5489  153.4201 H   0  0  0  0  0  0  0  0  0  0  0  0
  151.7923  143.8565  157.7398 H   0  0  0  0  0  0  0  0  0  0  0  0
  149.3843  144.2217  158.0975 H   0  0  0  0  0  0  0  0  0  0  0  0
  150.2311  144.4494  159.6133 H   0  0  0  0  0  0  0  0  0  0  0  0
  149.3354  142.9613  159.3280 H   0  0  0  0  0  0  0  0  0  0  0  0
  153.7915  141.7678  158.2824 H   0  0  0  0  0  0  0  0  0  0  0  0
  154.6872  141.2394  160.8027 H   0  0  0  0  0  0  0  0  0  0  0  0
  152.6632  142.2422  162.4082 H   0  0  0  0  0  0  0  0  0  0  0  0
  149.6852  143.2553  156.3432 H   0  0  0  0  0  0  0  0  0  0  0  0
  1  2  1  0  0  0  0
  1 16  1  0  0  0  0
  1 17  1  0  0  0  0
  1 18  1  0  0  0  0
  2  3  1  0  0  0  0
  2  9  1  0  0  0  0
  2 19  1  0  0  0  0
  3  4  1  0  0  0  0
  3 20  1  0  0  0  0
  3 34  1  0  0  0  0
  4  5  1  0  0  0  0
  4 21  1  0  0  0  0
  4 22  1  0  0  0  0
  5  6  1  0  0  0  0
  5 23  1  0  0  0  0
  5 24  1  0  0  0  0
  6  7  1  0  0  0  0
  6  8  2  0  0  0  0
  7 25  1  0  0  0  0
  7 26  1  0  0  0  0
  9 10  1  0  0  0  0
  9 11  1  0  0  0  0
  9 27  1  0  0  0  0
 10 28  1  0  0  0  0
 10 29  1  0  0  0  0
 10 30  1  0  0  0  0
 11 15  1  0  0  0  0
 11 12  1  0  0  0  0
 12 13  2  0  0  0  0
 12 31  1  0  0  0  0
 13 14  1  0  0  0  0
 13 32  1  0  0  0  0
 14 15  2  0  0  0  0
 14 33  1  0  0  0  0
M  CHG  1   3   1
M  END
> <s_m_source_file>
AV-unprocessed.smi

> <i_m_source_file_index>
3105

> <i_lp_mmshare_version>
43012

> <i_f3d_flags>
0

> <s_epik_input>
W05IMl1DKD1PKVtDSDJdW0NIMl1bTkhdW0NAQEhdKFtDSDNdKVtDQEhdKFtDSDNdKW4xW2NIXVtjSF1bY0hdbjE=

> <s_epik_cmdline>
J2VwaWtfcHl0aG9uJywgJy1waCcsICc3LjAnLCAnLXRuJywgJzgnLCAnLW1hJywgJzIwMCcsICctbWV0YWxfYmluZGluZycsICctaW1hZScsICc8aW5maWxlLm1hZT4nLCAnLW9tYWUnLCAnPG91dGZpbGUubWFlPic=

> <r_lp_tautomer_probability>
1

> <r_epik_Ionization_Penalty>
0.00475669

> <r_epik_Ionization_Penalty_Charging>
0.00474654

> <r_epik_Ionization_Penalty_Neutral>
1.01546e-05

> <r_epik_State_Penalty>
-0

> <r_epik_Charging_Adjusted_Penalty>
0.00474654

> <i_epik_Tot_Q>
1

> <i_epik_Tot_abs_Q>
1

> <r_epik_Metal_State_Penalty>
-0

> <b_epik_Metal_Only>
0

> <s_lp_Force_Field>
OPLS_2005

> <r_lp_Energy>
4.89455

> <b_lp_Chiralities_Consistent>
1

> <s_lp_Variant>
AV-unprocessed.smi:3105-4

> <Gold.Version>
5.8.1

> <Gold.Id.Protein>
6NUR|6NUR_protein|mol2

> <Gold.PLP.Fitness>
42.2869

> <Gold.PLP.PLP>
-33.8907

> <Gold.PLP.part.hbond>
-4.5408

> <Gold.PLP.part.metal>
0.0000

> <Gold.PLP.part.buried>
-4.7283

> <Gold.PLP.part.nonpolar>
-25.2128

> <Gold.PLP.part.repulsive>
0.3107

> <Gold.PLP.ligand.clash>
0.0000

> <Gold.PLP.ligand.torsion>
1.2039

> <Gold.PLP.Chemscore.Hbond>
3.5550

> <Gold.PLP.Chemscore.CHOScore>
0.0000

> <Gold.PLP.Chemscore.Metal>
0.0000

> <Gold.Chemscore.Hbonds>
donor molecule, donor type, donor heavy atom, donor atom, acceptor molecule, acceptor atom, score
      L1  H     3    34       P1  8028  2.00
      L1  H     7    25       P1  7948  0.36
      P1  H  7989  7998       L1     8  0.95

> <Gold.PLP.Chemscore.Internal.Correction>
0.1392

> <Gold.Rescore>
     Score         DG    S(hbond)    S(metal)    S(lipo)     H(rot)  DE(clash)    DE(int)     intcor
     14.38     -15.72       2.87        0.00      67.82       2.85       0.09       1.26       ----

> <Gold.Chemscore.Fitness>
14.3813

> <Gold.Chemscore.DG>
-15.7226

> <Gold.Chemscore.ZeroCoef>
-5.4800

> <Gold.Chemscore.Hbond>
2.8734

> <Gold.Chemscore.Metal>
0.0000

> <Gold.Chemscore.Lipo>
67.8164

> <Gold.Chemscore.Internal_Hbond>
0.0000

> <Gold.Chemscore.DEClash>
0.0855

> <Gold.Chemscore.DEInternal>
1.2559

> <Gold.Chemscore.Rot>
2.8473

> <Gold.Chemscore.Internal.Correction>
   9.000000E+99

> <Gold.Chemscore.Hbonds>
donor molecule, donor type, donor heavy atom, donor atom, acceptor molecule, acceptor atom, score
      L1  H     3    34       P1  8028  0.94
      L1  H     7    25       P1  7948  0.09
      P1  H  7989  7998       L1     8  0.21

> <Gold.Chemscore.Hbond.Weighted>
-9.5973

> <Gold.Chemscore.Metal.Weighted>
-0.0000

> <Gold.Chemscore.Lipo.Weighted>
-7.9345

> <Gold.Chemscore.Internal_Hbond.Weighted>
0.0000

> <Gold.Chemscore.DEClash.Weighted>
0.0855

> <Gold.Chemscore.DEInternal.Weighted>
1.2559

> <Gold.Chemscore.Rot.Weighted>
7.2892

> <Gold.Chemscore.Internal.Correction.Weighted>
   9.000000E+99

> <Gold.Protein.RotatedTorsions>
[ 6907 6896 6895 6894 ] final   22.16 input  -60.11 | X-H torsion
[ 7974 7965 7964 7962 ] final   45.91 input  175.53 | X-H torsion
[ 8008 7997 7996 7995 ] final -172.98 input   59.86 | X-H torsion
[ 10167 10162 10161 10158 ] final   17.36 input  -65.29 | X-H torsion
[ 10718 10713 10712 10709 ] final   98.88 input   66.30 | X-H torsion
[ 10763 10752 10751 10750 ] final   70.98 input  -60.55 | X-H torsion
[ 11005 11000 10999 10996 ] final  -92.96 input  -57.11 | X-H torsion

> <Gold.Protein.ActiveResidues>
 VAL166  LYS551  ARG553  GLY616  TRP617  ASP618  TYR619  PRO620  LYS621  CYS622 
 ASP623  PHE694  ASN695  SER759  ASP760  ASP761  ALA762  ILE779  LEU786  VAL792 
 PHE793  MET794  SER795  GLU796  ALA797  LYS798  CYS799  TRP800  GLU811  SER814 

> <Gold.Protein.RotatedAtoms>
  151.9229  135.0290  160.0523 H   0  0  0  0  0  0  0  0  0  0  0  0  # atno 6907 bound_to 6896
  152.2184  133.4960  159.5157 H   0  0  0  0  0  0  0  0  0  0  0  0  # atno 6908 bound_to 6896
  150.6993  134.1292  159.4106 H   0  0  0  0  0  0  0  0  0  0  0  0  # atno 6909 bound_to 6896
  146.0438  139.4913  142.9761 H   0  0  0  0  0  0  0  0  0  0  0  0  # atno 7974 bound_to 7965
  155.9516  140.1127  157.0972 H   0  0  0  0  0  0  0  0  0  0  0  0  # atno 8008 bound_to 7997
  154.4111  140.1199  156.5126 H   0  0  0  0  0  0  0  0  0  0  0  0  # atno 8009 bound_to 7997
  155.6835  140.3473  155.4867 H   0  0  0  0  0  0  0  0  0  0  0  0  # atno 8010 bound_to 7997
  140.5731  143.9123  150.6729 H   0  0  0  0  0  0  0  0  0  0  0  0  # atno 10167 bound_to 10162
  157.6887  131.0653  150.4864 H   0  0  0  0  0  0  0  0  0  0  0  0  # atno 10718 bound_to 10713
  153.0373  135.5153  154.7524 H   0  0  0  0  0  0  0  0  0  0  0  0  # atno 10763 bound_to 10752
  154.6491  135.2922  155.0012 H   0  0  0  0  0  0  0  0  0  0  0  0  # atno 10764 bound_to 10752
  154.0903  135.6651  153.4904 H   0  0  0  0  0  0  0  0  0  0  0  0  # atno 10765 bound_to 10752
  141.1509  133.7856  157.0093 H   0  0  0  0  0  0  0  0  0  0  0  0  # atno 11005 bound_to 11000
  145.6840  141.0183  143.1591 LP  0  0  0  0  0  0  0  0  0  0  0  0  # atno 17320 bound_to 7965
  144.7087  139.8455  143.7421 LP  0  0  0  0  0  0  0  0  0  0  0  0  # atno 17321 bound_to 7965
  140.2603  143.3528  152.1328 LP  0  0  0  0  0  0  0  0  0  0  0  0  # atno 17342 bound_to 10162
  139.5128  144.6923  151.5727 LP  0  0  0  0  0  0  0  0  0  0  0  0  # atno 17343 bound_to 10162
  156.5193  130.4158  149.6259 LP  0  0  0  0  0  0  0  0  0  0  0  0  # atno 17370 bound_to 10713
  156.3169  130.7259  151.2163 LP  0  0  0  0  0  0  0  0  0  0  0  0  # atno 17371 bound_to 10713
  140.0888  134.9605  157.1743 LP  0  0  0  0  0  0  0  0  0  0  0  0  # atno 17394 bound_to 11000
  140.3474  134.2636  155.7203 LP  0  0  0  0  0  0  0  0  0  0  0  0  # atno 17395 bound_to 11000

$$$$
