AV-unprocessed.smi:2418|AV-procd|sdf|9551|dock6
  -GOLD-   2272013183D 1   1.00000     0.00000
 Structure written by MMmdl.
 34 35  0  0  0  0  0  0  0  0  1 V2000
  147.5717  140.1890  153.2784 C   0  0  0  0  0  0  0  0  0  0  0  0
  148.2612  140.6681  154.5434 C   0  0  0  0  0  0  0  0  0  0  0  0
  147.6312  141.7209  155.2134 N   0  0  0  0  0  0  0  0  0  0  0  0
  148.1505  142.1984  156.2970 C   0  0  0  0  0  0  0  0  0  0  0  0
  149.3413  141.6826  156.8340 N   0  0  0  0  0  0  0  0  0  0  0  0
  149.8317  142.3205  158.0674 C   0  0  0  0  0  0  0  0  0  0  0  0
  151.3010  142.7812  157.9423 C   0  0  1  0  0  0  0  0  0  0  0  0
  151.3425  143.9424  157.1348 O   0  0  0  0  0  0  0  0  0  0  0  0
  151.9110  143.0327  159.3156 C   0  0  0  0  0  0  0  0  0  0  0  0
  152.7560  142.0690  159.9114 C   0  0  0  0  0  0  0  0  0  0  0  0
  153.3245  142.3051  161.1779 C   0  0  0  0  0  0  0  0  0  0  0  0
  154.1302  141.3749  161.7423 F   0  0  0  0  0  0  0  0  0  0  0  0
  153.0568  143.5086  161.8567 C   0  0  0  0  0  0  0  0  0  0  0  0
  152.2231  144.4770  161.2661 C   0  0  0  0  0  0  0  0  0  0  0  0
  151.6531  144.2431  159.9993 C   0  0  0  0  0  0  0  0  0  0  0  0
  150.8596  145.1905  159.4441 F   0  0  0  0  0  0  0  0  0  0  0  0
  150.0200  140.6565  156.2438 C   0  0  0  0  0  0  0  0  0  0  0  0
  151.0679  140.2155  156.7200 O   0  0  0  0  0  0  0  0  0  0  0  0
  149.4195  140.1259  155.0093 C   0  0  0  0  0  0  0  0  0  0  0  0
  150.1535  138.9828  154.3195 C   0  0  0  0  0  0  0  0  0  0  0  0
  147.3140  139.1327  153.3591 H   0  0  0  0  0  0  0  0  0  0  0  0
  148.2236  140.3247  152.4149 H   0  0  0  0  0  0  0  0  0  0  0  0
  146.6508  140.7435  153.0928 H   0  0  0  0  0  0  0  0  0  0  0  0
  147.7038  143.0250  156.8523 H   0  0  0  0  0  0  0  0  0  0  0  0
  149.1959  143.1472  158.3917 H   0  0  0  0  0  0  0  0  0  0  0  0
  149.7531  141.5900  158.8752 H   0  0  0  0  0  0  0  0  0  0  0  0
  151.8933  142.0192  157.4351 H   0  0  0  0  0  0  0  0  0  0  0  0
  150.4572  144.2448  156.9999 H   0  0  0  0  0  0  0  0  0  0  0  0
  152.9736  141.1439  159.3976 H   0  0  0  0  0  0  0  0  0  0  0  0
  153.4924  143.6907  162.8281 H   0  0  0  0  0  0  0  0  0  0  0  0
  152.0214  145.4027  161.7847 H   0  0  0  0  0  0  0  0  0  0  0  0
  151.1631  139.2941  154.0487 H   0  0  0  0  0  0  0  0  0  0  0  0
  149.6612  138.6423  153.4100 H   0  0  0  0  0  0  0  0  0  0  0  0
  150.2320  138.1270  154.9907 H   0  0  0  0  0  0  0  0  0  0  0  0
  1  2  1  0  0  0  0
  1 21  1  0  0  0  0
  1 22  1  0  0  0  0
  1 23  1  0  0  0  0
  2 19  2  0  0  0  0
  2  3  1  0  0  0  0
  3  4  2  0  0  0  0
  4  5  1  0  0  0  0
  4 24  1  0  0  0  0
  5  6  1  0  0  0  0
  5 17  1  0  0  0  0
  6  7  1  0  0  0  0
  6 25  1  0  0  0  0
  6 26  1  0  0  0  0
  7  8  1  0  0  0  0
  7  9  1  0  0  0  0
  7 27  1  0  0  0  0
  8 28  1  0  0  0  0
  9 15  1  0  0  0  0
  9 10  2  0  0  0  0
 10 11  1  0  0  0  0
 10 29  1  0  0  0  0
 11 12  1  0  0  0  0
 11 13  2  0  0  0  0
 13 14  1  0  0  0  0
 13 30  1  0  0  0  0
 14 15  2  0  0  0  0
 14 31  1  0  0  0  0
 15 16  1  0  0  0  0
 17 18  2  0  0  0  0
 17 19  1  0  0  0  0
 19 20  1  0  0  0  0
 20 32  1  0  0  0  0
 20 33  1  0  0  0  0
 20 34  1  0  0  0  0
M  END
> <s_m_source_file>
AV-unprocessed.smi

> <i_m_source_file_index>
2418

> <i_lp_mmshare_version>
43012

> <i_f3d_flags>
0

> <s_epik_input>
W0NIM11jMW5bY0hdbihjKD1PKWMxW0NIM10pW0NIMl1bQ0BIXShbT0hdKWMyW2NIXWMoRilbY0hdW2NIXWMyRg==

> <s_epik_cmdline>
J2VwaWtfcHl0aG9uJywgJy1waCcsICc3LjAnLCAnLXRuJywgJzgnLCAnLW1hJywgJzIwMCcsICctbWV0YWxfYmluZGluZycsICctaW1hZScsICc8aW5maWxlLm1hZT4nLCAnLW9tYWUnLCAnPG91dGZpbGUubWFlPic=

> <r_lp_tautomer_probability>
1

> <r_epik_Ionization_Penalty>
5.08222e-05

> <r_epik_Ionization_Penalty_Charging>
7.56727e-08

> <r_epik_Ionization_Penalty_Neutral>
5.07465e-05

> <r_epik_State_Penalty>
-0

> <r_epik_Charging_Adjusted_Penalty>
7.56727e-08

> <i_epik_Tot_Q>
0

> <i_epik_Tot_abs_Q>
0

> <r_epik_Metal_State_Penalty>
-0

> <b_epik_Metal_Only>
0

> <s_lp_Force_Field>
OPLS_2005

> <r_lp_Energy>
18.8119

> <b_lp_Chiralities_Consistent>
1

> <s_lp_Variant>
AV-unprocessed.smi:2418-2

> <Gold.Version>
5.8.1

> <Gold.Id.Protein>
6NUR|6NUR_protein|mol2

> <Gold.PLP.Fitness>
45.6442

> <Gold.PLP.PLP>
-42.5545

> <Gold.PLP.part.hbond>
-1.0000

> <Gold.PLP.part.metal>
0.0000

> <Gold.PLP.part.buried>
0.1643

> <Gold.PLP.part.nonpolar>
-41.2996

> <Gold.PLP.part.repulsive>
0.1142

> <Gold.PLP.ligand.clash>
0.0000

> <Gold.PLP.ligand.torsion>
0.7084

> <Gold.PLP.Chemscore.Hbond>
1.0000

> <Gold.PLP.Chemscore.CHOScore>
0.4996

> <Gold.PLP.Chemscore.Metal>
0.0000

> <Gold.Chemscore.Hbonds>
donor molecule, donor type, donor heavy atom, donor atom, acceptor molecule, acceptor atom, score
      L1  H     8    28       P1  8028  0.84
      L1  C     4    24       P1  8028  0.20

> <Gold.PLP.Chemscore.Internal.Correction>
0.0080

> <Gold.Rescore>
     Score         DG    S(hbond)    S(metal)    S(lipo)     H(rot)  DE(clash)    DE(int)     intcor
     10.95     -15.50       0.92        0.00     105.53       2.11       1.39       3.17       ----

> <Gold.Chemscore.Fitness>
10.9456

> <Gold.Chemscore.DG>
-15.4990

> <Gold.Chemscore.ZeroCoef>
-5.4800

> <Gold.Chemscore.Hbond>
0.9202

> <Gold.Chemscore.Metal>
0.0000

> <Gold.Chemscore.Lipo>
105.5259

> <Gold.Chemscore.Internal_Hbond>
0.0000

> <Gold.Chemscore.DEClash>
1.3877

> <Gold.Chemscore.DEInternal>
3.1658

> <Gold.Chemscore.Rot>
2.1097

> <Gold.Chemscore.Internal.Correction>
   9.000000E+99

> <Gold.Chemscore.Hbonds>
donor molecule, donor type, donor heavy atom, donor atom, acceptor molecule, acceptor atom, score
      L1  H     8    28       P1  8028  0.72

> <Gold.Chemscore.Hbond.Weighted>
-3.0734

> <Gold.Chemscore.Metal.Weighted>
-0.0000

> <Gold.Chemscore.Lipo.Weighted>
-12.3465

> <Gold.Chemscore.Internal_Hbond.Weighted>
0.0000

> <Gold.Chemscore.DEClash.Weighted>
1.3877

> <Gold.Chemscore.DEInternal.Weighted>
3.1658

> <Gold.Chemscore.Rot.Weighted>
5.4009

> <Gold.Chemscore.Internal.Correction.Weighted>
   9.000000E+99

> <Gold.Protein.RotatedTorsions>
[ 6907 6896 6895 6894 ] final    7.00 input  -60.11 | X-H torsion
[ 7974 7965 7964 7962 ] final -109.19 input  175.53 | X-H torsion
[ 8008 7997 7996 7995 ] final -112.04 input   59.86 | X-H torsion
[ 10167 10162 10161 10158 ] final  110.09 input  -65.29 | X-H torsion
[ 10718 10713 10712 10709 ] final    4.09 input   66.30 | X-H torsion
[ 10763 10752 10751 10750 ] final  168.40 input  -60.55 | X-H torsion
[ 11005 11000 10999 10996 ] final    8.46 input  -57.11 | X-H torsion

> <Gold.Protein.ActiveResidues>
 VAL166  LYS551  ARG553  GLY616  TRP617  ASP618  TYR619  PRO620  LYS621  CYS622 
 ASP623  PHE694  ASN695  SER759  ASP760  ASP761  ALA762  ILE779  LEU786  VAL792 
 PHE793  MET794  SER795  GLU796  ALA797  LYS798  CYS799  TRP800  GLU811  SER814 

> <Gold.Protein.RotatedAtoms>
  151.6828  135.0959  160.0218 H   0  0  0  0  0  0  0  0  0  0  0  0  # atno 6907 bound_to 6896
  152.3825  133.6562  159.6181 H   0  0  0  0  0  0  0  0  0  0  0  0  # atno 6908 bound_to 6896
  150.7759  133.9006  159.3381 H   0  0  0  0  0  0  0  0  0  0  0  0  # atno 6909 bound_to 6896
  145.1835  140.8982  143.3466 H   0  0  0  0  0  0  0  0  0  0  0  0  # atno 7974 bound_to 7965
  154.9990  140.0394  157.2352 H   0  0  0  0  0  0  0  0  0  0  0  0  # atno 8008 bound_to 7997
  154.7560  140.2776  155.6230 H   0  0  0  0  0  0  0  0  0  0  0  0  # atno 8009 bound_to 7997
  156.2895  140.2637  156.2327 H   0  0  0  0  0  0  0  0  0  0  0  0  # atno 8010 bound_to 7997
  139.6716  144.7125  151.1678 H   0  0  0  0  0  0  0  0  0  0  0  0  # atno 10167 bound_to 10162
  156.8875  130.5675  149.5651 H   0  0  0  0  0  0  0  0  0  0  0  0  # atno 10718 bound_to 10713
  154.3679  135.2753  155.2283 H   0  0  0  0  0  0  0  0  0  0  0  0  # atno 10763 bound_to 10752
  154.4443  135.5946  153.6153 H   0  0  0  0  0  0  0  0  0  0  0  0  # atno 10764 bound_to 10752
  152.9840  135.6026  154.3907 H   0  0  0  0  0  0  0  0  0  0  0  0  # atno 10765 bound_to 10752
  140.5367  134.0413  155.7891 H   0  0  0  0  0  0  0  0  0  0  0  0  # atno 11005 bound_to 11000
  145.0112  139.3508  143.6119 LP  0  0  0  0  0  0  0  0  0  0  0  0  # atno 17320 bound_to 7965
  146.3449  139.9375  142.8745 LP  0  0  0  0  0  0  0  0  0  0  0  0  # atno 17321 bound_to 7965
  140.7620  143.5836  150.8869 LP  0  0  0  0  0  0  0  0  0  0  0  0  # atno 17342 bound_to 10162
  139.9502  143.6281  152.3031 LP  0  0  0  0  0  0  0  0  0  0  0  0  # atno 17343 bound_to 10162
  156.0646  130.5692  150.9262 LP  0  0  0  0  0  0  0  0  0  0  0  0  # atno 17370 bound_to 10713
  157.6103  131.0936  150.8806 LP  0  0  0  0  0  0  0  0  0  0  0  0  # atno 17371 bound_to 10713
  141.1250  133.9398  157.2653 LP  0  0  0  0  0  0  0  0  0  0  0  0  # atno 17394 bound_to 11000
  139.9525  135.0172  156.9035 LP  0  0  0  0  0  0  0  0  0  0  0  0  # atno 17395 bound_to 11000

$$$$
