AV-unprocessed.smi:901|AV-procd|sdf|4092|dock9
  -GOLD-   22720 1583D 1   1.00000     0.00000
 Structure written by MMmdl.
 43 44  0  0  0  0  0  0  0  0  1 V2000
  151.6480  145.0615  159.8952 C   0  0  0  0  0  0  0  0  0  0  0  0
  151.7688  144.2724  158.6068 C   0  0  0  0  0  0  0  0  0  0  0  0
  152.9154  144.6985  157.7071 C   0  0  0  0  0  0  0  0  0  0  0  0
  150.9127  143.2782  158.3018 C   0  0  0  0  0  0  0  0  0  0  0  0
  150.9378  142.4316  157.0733 C   0  0  2  0  0  0  0  0  0  0  0  0
  149.7910  141.5369  156.6090 C   0  0  2  0  0  0  0  0  0  0  0  0
  148.5400  141.3972  157.4184 C   0  0  0  0  0  0  0  0  0  0  0  0
  148.2176  140.3454  157.9693 O   0  0  0  0  0  0  0  0  0  0  0  0
  147.8633  142.5535  157.5351 N   0  0  0  0  0  0  0  0  0  0  0  0
  146.6355  142.7938  158.2027 C   0  0  0  0  0  0  0  0  0  0  0  0
  145.5681  143.6129  157.7269 C   0  0  0  0  0  0  0  0  0  0  0  0
  144.6415  143.5298  158.7266 C   0  0  0  0  0  0  0  0  0  0  0  0
  145.1646  142.7167  159.7126 N   0  0  0  0  0  0  0  0  0  0  0  0
  144.5599  142.3284  160.9757 C   0  0  0  0  0  0  0  0  0  0  0  0
  144.1375  143.5473  161.8024 C   0  0  0  0  0  0  0  0  0  0  0  0
  145.0884  144.4360  162.1013 N   0  0  0  0  0  0  0  0  0  0  0  0
  142.9714  143.6906  162.1658 O   0  0  0  0  0  0  0  0  0  0  0  0
  146.3963  142.2641  159.3900 N   0  0  0  0  0  0  0  0  0  0  0  0
  151.0823  140.9213  157.1356 C   0  0  0  0  0  0  0  0  0  0  0  0
  151.9973  140.2265  156.1429 C   0  0  0  0  0  0  0  0  0  0  0  0
  151.1490  140.1965  158.4782 C   0  0  0  0  0  0  0  0  0  0  0  0
  151.4826  146.1166  159.6767 H   0  0  0  0  0  0  0  0  0  0  0  0
  152.5635  144.9720  160.4801 H   0  0  0  0  0  0  0  0  0  0  0  0
  150.8177  144.7081  160.5074 H   0  0  0  0  0  0  0  0  0  0  0  0
  152.7981  145.7453  157.4256 H   0  0  0  0  0  0  0  0  0  0  0  0
  152.9683  144.1118  156.7905 H   0  0  0  0  0  0  0  0  0  0  0  0
  153.8652  144.5905  158.2310 H   0  0  0  0  0  0  0  0  0  0  0  0
  150.1296  143.0487  159.0091 H   0  0  0  0  0  0  0  0  0  0  0  0
  151.4880  142.9344  156.2797 H   0  0  0  0  0  0  0  0  0  0  0  0
  149.6292  141.5212  155.5326 H   0  0  0  0  0  0  0  0  0  0  0  0
  148.2804  143.3603  157.0944 H   0  0  0  0  0  0  0  0  0  0  0  0
  145.4825  144.1772  156.8105 H   0  0  0  0  0  0  0  0  0  0  0  0
  143.6652  143.9817  158.8209 H   0  0  0  0  0  0  0  0  0  0  0  0
  143.7000  141.6915  160.7636 H   0  0  0  0  0  0  0  0  0  0  0  0
  145.2684  141.7304  161.5514 H   0  0  0  0  0  0  0  0  0  0  0  0
  144.8623  145.2555  162.6458 H   0  0  0  0  0  0  0  0  0  0  0  0
  146.0340  144.2823  161.7817 H   0  0  0  0  0  0  0  0  0  0  0  0
  151.6884  139.1903  156.0019 H   0  0  0  0  0  0  0  0  0  0  0  0
  153.0269  140.2389  156.5016 H   0  0  0  0  0  0  0  0  0  0  0  0
  151.9682  140.7256  155.1738 H   0  0  0  0  0  0  0  0  0  0  0  0
  150.8272  139.1609  158.3643 H   0  0  0  0  0  0  0  0  0  0  0  0
  150.5118  140.6654  159.2278 H   0  0  0  0  0  0  0  0  0  0  0  0
  152.1710  140.1999  158.8581 H   0  0  0  0  0  0  0  0  0  0  0  0
  1  2  1  0  0  0  0
  1 22  1  0  0  0  0
  1 23  1  0  0  0  0
  1 24  1  0  0  0  0
  2  3  1  0  0  0  0
  2  4  2  0  0  0  0
  3 25  1  0  0  0  0
  3 26  1  0  0  0  0
  3 27  1  0  0  0  0
  4  5  1  0  0  0  0
  4 28  1  0  0  0  0
  5 19  1  0  0  0  0
  5  6  1  0  0  0  0
  5 29  1  0  0  0  0
  6  7  1  0  0  0  0
  6 19  1  0  0  0  0
  6 30  1  0  0  0  0
  7  8  2  0  0  0  0
  7  9  1  0  0  0  0
  9 10  1  0  0  0  0
  9 31  1  0  0  0  0
 10 18  2  0  0  0  0
 10 11  1  0  0  0  0
 11 12  2  0  0  0  0
 11 32  1  0  0  0  0
 12 13  1  0  0  0  0
 12 33  1  0  0  0  0
 13 14  1  0  0  0  0
 13 18  1  0  0  0  0
 14 15  1  0  0  0  0
 14 34  1  0  0  0  0
 14 35  1  0  0  0  0
 15 16  1  0  0  0  0
 15 17  2  0  0  0  0
 16 36  1  0  0  0  0
 16 37  1  0  0  0  0
 19 20  1  0  0  0  0
 19 21  1  0  0  0  0
 20 38  1  0  0  0  0
 20 39  1  0  0  0  0
 20 40  1  0  0  0  0
 21 41  1  0  0  0  0
 21 42  1  0  0  0  0
 21 43  1  0  0  0  0
M  END
> <s_m_source_file>
AV-unprocessed.smi

> <i_m_source_file_index>
901

> <i_lp_mmshare_version>
43012

> <i_f3d_flags>
0

> <s_epik_input>
W0NIM11DKFtDSDNdKT1bQ0hdW0NAQEhdKEMxKFtDSDNdKVtDSDNdKVtDQEhdMUMoPU8pW05IXWMyW2NIXVtjSF1uKG4yKVtDSDJdQyg9TylbTkgyXQ==

> <s_epik_cmdline>
J2VwaWtfcHl0aG9uJywgJy1waCcsICc3LjAnLCAnLXRuJywgJzgnLCAnLW1hJywgJzIwMCcsICctbWV0YWxfYmluZGluZycsICctaW1hZScsICc8aW5maWxlLm1hZT4nLCAnLW9tYWUnLCAnPG91dGZpbGUubWFlPic=

> <r_lp_tautomer_probability>
1

> <r_epik_Ionization_Penalty>
1.01454e-05

> <r_epik_Ionization_Penalty_Charging>
0

> <r_epik_Ionization_Penalty_Neutral>
1.01454e-05

> <r_epik_State_Penalty>
-0

> <r_epik_Charging_Adjusted_Penalty>
0

> <i_epik_Tot_Q>
0

> <i_epik_Tot_abs_Q>
0

> <r_epik_Metal_State_Penalty>
-0

> <b_epik_Metal_Only>
0

> <s_lp_Force_Field>
OPLS_2005

> <r_lp_Energy>
21.7989

> <b_lp_Chiralities_Consistent>
1

> <s_lp_Variant>
AV-unprocessed.smi:901-3

> <Gold.Version>
5.8.1

> <Gold.Id.Protein>
6NUR|6NUR_protein|mol2

> <Gold.PLP.Fitness>
43.1469

> <Gold.PLP.PLP>
-39.1227

> <Gold.PLP.part.hbond>
-3.6728

> <Gold.PLP.part.metal>
0.0000

> <Gold.PLP.part.buried>
-7.0069

> <Gold.PLP.part.nonpolar>
-29.0215

> <Gold.PLP.part.repulsive>
0.2911

> <Gold.PLP.ligand.clash>
0.0000

> <Gold.PLP.ligand.torsion>
0.6792

> <Gold.PLP.Chemscore.Hbond>
1.7191

> <Gold.PLP.Chemscore.CHOScore>
0.0000

> <Gold.PLP.Chemscore.Metal>
0.0000

> <Gold.Chemscore.Hbonds>
donor molecule, donor type, donor heavy atom, donor atom, acceptor molecule, acceptor atom, score
      L1  H     9    31       P1  8028  0.72
      P1  H  6934  6946       L1    18  1.00

> <Gold.PLP.Chemscore.Internal.Correction>
0.2254

> <Gold.Rescore>
     Score         DG    S(hbond)    S(metal)    S(lipo)     H(rot)  DE(clash)    DE(int)     intcor
     10.49     -13.13       0.92        0.00      85.68       2.13       0.23       2.41       ----

> <Gold.Chemscore.Fitness>
10.4945

> <Gold.Chemscore.DG>
-13.1346

> <Gold.Chemscore.ZeroCoef>
-5.4800

> <Gold.Chemscore.Hbond>
0.9237

> <Gold.Chemscore.Metal>
0.0000

> <Gold.Chemscore.Lipo>
85.6793

> <Gold.Chemscore.Internal_Hbond>
0.0000

> <Gold.Chemscore.DEClash>
0.2324

> <Gold.Chemscore.DEInternal>
2.4077

> <Gold.Chemscore.Rot>
2.1309

> <Gold.Chemscore.Internal.Correction>
   9.000000E+99

> <Gold.Chemscore.Hbonds>
donor molecule, donor type, donor heavy atom, donor atom, acceptor molecule, acceptor atom, score
      L1  H     9    31       P1  8028  0.09
      P1  H  6934  6946       L1    18  0.66

> <Gold.Chemscore.Hbond.Weighted>
-3.0852

> <Gold.Chemscore.Metal.Weighted>
-0.0000

> <Gold.Chemscore.Lipo.Weighted>
-10.0245

> <Gold.Chemscore.Internal_Hbond.Weighted>
0.0000

> <Gold.Chemscore.DEClash.Weighted>
0.2324

> <Gold.Chemscore.DEInternal.Weighted>
2.4077

> <Gold.Chemscore.Rot.Weighted>
5.4552

> <Gold.Chemscore.Internal.Correction.Weighted>
   9.000000E+99

> <Gold.Protein.RotatedTorsions>
[ 6907 6896 6895 6894 ] final  -87.03 input  -60.11 | X-H torsion
[ 7974 7965 7964 7962 ] final   43.44 input  175.53 | X-H torsion
[ 8008 7997 7996 7995 ] final  -90.49 input   59.86 | X-H torsion
[ 10167 10162 10161 10158 ] final  122.41 input  -65.29 | X-H torsion
[ 10718 10713 10712 10709 ] final -113.27 input   66.30 | X-H torsion
[ 10763 10752 10751 10750 ] final   36.06 input  -60.55 | X-H torsion
[ 11005 11000 10999 10996 ] final   62.59 input  -57.11 | X-H torsion

> <Gold.Protein.ActiveResidues>
 VAL166  LYS551  ARG553  GLY616  TRP617  ASP618  TYR619  PRO620  LYS621  CYS622 
 ASP623  PHE694  ASN695  SER759  ASP760  ASP761  ALA762  ILE779  LEU786  VAL792 
 PHE793  MET794  SER795  GLU796  ALA797  LYS798  CYS799  TRP800  GLU811  SER814 

> <Gold.Protein.RotatedAtoms>
  150.6866  134.2958  159.4685 H   0  0  0  0  0  0  0  0  0  0  0  0  # atno 6907 bound_to 6896
  152.0859  134.9437  160.0582 H   0  0  0  0  0  0  0  0  0  0  0  0  # atno 6908 bound_to 6896
  152.0772  133.4100  159.4522 H   0  0  0  0  0  0  0  0  0  0  0  0  # atno 6909 bound_to 6896
  146.0655  139.5187  142.9631 H   0  0  0  0  0  0  0  0  0  0  0  0  # atno 7974 bound_to 7965
  154.6992  140.0530  157.0441 H   0  0  0  0  0  0  0  0  0  0  0  0  # atno 8008 bound_to 7997
  155.0709  140.3199  155.4612 H   0  0  0  0  0  0  0  0  0  0  0  0  # atno 8009 bound_to 7997
  156.2754  140.2082  156.5836 H   0  0  0  0  0  0  0  0  0  0  0  0  # atno 8010 bound_to 7997
  139.5860  144.7006  151.3408 H   0  0  0  0  0  0  0  0  0  0  0  0  # atno 10167 bound_to 10162
  156.0756  130.5964  150.8620 H   0  0  0  0  0  0  0  0  0  0  0  0  # atno 10718 bound_to 10713
  153.0092  135.6316  154.1926 H   0  0  0  0  0  0  0  0  0  0  0  0  # atno 10763 bound_to 10752
  154.1669  135.2820  155.3094 H   0  0  0  0  0  0  0  0  0  0  0  0  # atno 10764 bound_to 10752
  154.5939  135.5609  153.7366 H   0  0  0  0  0  0  0  0  0  0  0  0  # atno 10765 bound_to 10752
  140.0082  134.6337  155.9822 H   0  0  0  0  0  0  0  0  0  0  0  0  # atno 11005 bound_to 11000
  145.6484  141.0268  143.1773 LP  0  0  0  0  0  0  0  0  0  0  0  0  # atno 17320 bound_to 7965
  144.7200  139.8063  143.7385 LP  0  0  0  0  0  0  0  0  0  0  0  0  # atno 17321 bound_to 7965
  140.7132  143.7336  150.7605 LP  0  0  0  0  0  0  0  0  0  0  0  0  # atno 17342 bound_to 10162
  140.0881  143.4904  152.2494 LP  0  0  0  0  0  0  0  0  0  0  0  0  # atno 17343 bound_to 10162
  157.5850  131.0945  150.9210 LP  0  0  0  0  0  0  0  0  0  0  0  0  # atno 17370 bound_to 10713
  156.9398  130.5380  149.5280 LP  0  0  0  0  0  0  0  0  0  0  0  0  # atno 17371 bound_to 10713
  141.1692  133.6537  156.4589 LP  0  0  0  0  0  0  0  0  0  0  0  0  # atno 17394 bound_to 11000
  140.4603  134.6847  157.5082 LP  0  0  0  0  0  0  0  0  0  0  0  0  # atno 17395 bound_to 11000

$$$$
