AV-unprocessed.smi:86|AV-procd|sdf|814|dock8
  -GOLD-   2262017213D 1   1.00000     0.00000
 Structure written by MMmdl.
 51 55  0  0  0  0  0  0  0  0  1 V2000
  149.8428  133.4274  157.7741 O   0  0  0  0  0  0  0  0  0  0  0  0
  149.1055  134.4792  157.1842 C   0  0  0  0  0  0  0  0  0  0  0  0
  149.2677  134.5268  155.6512 C   0  0  0  0  0  0  0  0  0  0  0  0
  150.6964  134.9978  155.3222 C   0  0  0  0  0  0  0  0  0  0  0  0
  151.0340  136.2952  155.8882 N   0  0  0  0  0  0  0  0  0  0  0  0
  151.6959  136.5332  157.0707 C   0  0  0  0  0  0  0  0  0  0  0  0
  151.8733  137.7918  157.3642 N   0  0  0  0  0  0  0  0  0  0  0  0
  151.2873  138.4797  156.3069 C   0  0  0  0  0  0  0  0  0  0  0  0
  151.1143  139.8580  155.9831 C   0  0  0  0  0  0  0  0  0  0  0  0
  151.5603  140.8839  156.7517 N   0  0  0  0  0  0  0  0  0  0  0  0
  152.1591  140.6686  158.0676 C   0  0  0  0  0  0  0  0  0  0  0  0
  152.3642  142.0852  158.5979 C   0  0  2  0  0  0  0  0  0  0  0  0
  152.5066  142.2974  160.1088 C   0  0  0  0  0  0  0  0  0  0  0  0
  152.6073  143.8124  160.3971 C   0  0  0  0  0  0  0  0  0  0  0  0
  151.4580  144.6377  159.7626 C   0  0  2  0  0  0  0  0  0  0  0  0
  150.2646  144.4160  160.4875 O   0  0  0  0  0  0  0  0  0  0  0  0
  151.2308  144.3069  158.2669 C   0  0  0  0  0  0  0  0  0  0  0  0
  151.1208  142.7881  158.0737 C   0  0  1  0  0  0  0  0  0  0  0  0
  151.0038  142.2316  156.6534 C   0  0  0  0  0  0  0  0  0  0  0  0
  150.4416  140.1478  154.8379 N   0  0  0  0  0  0  0  0  0  0  0  0
  149.9843  139.1690  154.0525 C   0  0  0  0  0  0  0  0  0  0  0  0
  150.0823  137.8499  154.2223 N   0  0  0  0  0  0  0  0  0  0  0  0
  150.7443  137.5483  155.3756 C   0  0  0  0  0  0  0  0  0  0  0  0
  148.8053  133.2822  154.8799 C   0  0  0  0  0  0  0  0  0  0  0  0
  147.6176  133.9480  154.3969 O   0  0  0  0  0  0  0  0  0  0  0  0
  148.1336  135.2103  154.8740 C   0  0  0  0  0  0  0  0  0  0  0  0
  149.3410  132.6301  157.7000 H   0  0  0  0  0  0  0  0  0  0  0  0
  148.0625  134.3361  157.4662 H   0  0  0  0  0  0  0  0  0  0  0  0
  149.4308  135.4162  157.6374 H   0  0  0  0  0  0  0  0  0  0  0  0
  151.4283  134.2675  155.6691 H   0  0  0  0  0  0  0  0  0  0  0  0
  150.8379  135.0637  154.2426 H   0  0  0  0  0  0  0  0  0  0  0  0
  152.0438  135.7404  157.7166 H   0  0  0  0  0  0  0  0  0  0  0  0
  151.4721  140.1081  158.7035 H   0  0  0  0  0  0  0  0  0  0  0  0
  153.0996  140.1207  157.9991 H   0  0  0  0  0  0  0  0  0  0  0  0
  153.2443  142.5027  158.1037 H   0  0  0  0  0  0  0  0  0  0  0  0
  151.6502  141.8712  160.6329 H   0  0  0  0  0  0  0  0  0  0  0  0
  153.3924  141.7824  160.4819 H   0  0  0  0  0  0  0  0  0  0  0  0
  152.6502  143.9873  161.4728 H   0  0  0  0  0  0  0  0  0  0  0  0
  153.5549  144.1771  159.9984 H   0  0  0  0  0  0  0  0  0  0  0  0
  151.6888  145.6990  159.8597 H   0  0  0  0  0  0  0  0  0  0  0  0
  149.7172  145.1820  160.4051 H   0  0  0  0  0  0  0  0  0  0  0  0
  150.3376  144.8083  157.8924 H   0  0  0  0  0  0  0  0  0  0  0  0
  152.0680  144.6874  157.6804 H   0  0  0  0  0  0  0  0  0  0  0  0
  150.2553  142.4277  158.6335 H   0  0  0  0  0  0  0  0  0  0  0  0
  151.5975  142.8140  155.9478 H   0  0  0  0  0  0  0  0  0  0  0  0
  149.9654  142.2332  156.3210 H   0  0  0  0  0  0  0  0  0  0  0  0
  149.4654  139.4888  153.1610 H   0  0  0  0  0  0  0  0  0  0  0  0
  149.4682  132.9964  154.0617 H   0  0  0  0  0  0  0  0  0  0  0  0
  148.5778  132.4202  155.5076 H   0  0  0  0  0  0  0  0  0  0  0  0
  147.4208  135.7457  155.5019 H   0  0  0  0  0  0  0  0  0  0  0  0
  148.4726  135.8391  154.0503 H   0  0  0  0  0  0  0  0  0  0  0  0
  1  2  1  0  0  0  0
  1 27  1  0  0  0  0
  2  3  1  0  0  0  0
  2 28  1  0  0  0  0
  2 29  1  0  0  0  0
  3 26  1  0  0  0  0
  3  4  1  0  0  0  0
  3 24  1  0  0  0  0
  4  5  1  0  0  0  0
  4 30  1  0  0  0  0
  4 31  1  0  0  0  0
  5 23  1  0  0  0  0
  5  6  1  0  0  0  0
  6  7  2  0  0  0  0
  6 32  1  0  0  0  0
  7  8  1  0  0  0  0
  8 23  2  0  0  0  0
  8  9  1  0  0  0  0
  9 10  1  0  0  0  0
  9 20  2  0  0  0  0
 10 19  1  0  0  0  0
 10 11  1  0  0  0  0
 11 12  1  0  0  0  0
 11 33  1  0  0  0  0
 11 34  1  0  0  0  0
 12 18  1  0  0  0  0
 12 13  1  0  0  0  0
 12 35  1  0  0  0  0
 13 14  1  0  0  0  0
 13 36  1  0  0  0  0
 13 37  1  0  0  0  0
 14 15  1  0  0  0  0
 14 38  1  0  0  0  0
 14 39  1  0  0  0  0
 15 16  1  0  0  0  0
 15 17  1  0  0  0  0
 15 40  1  0  0  0  0
 16 41  1  0  0  0  0
 17 18  1  0  0  0  0
 17 42  1  0  0  0  0
 17 43  1  0  0  0  0
 18 19  1  0  0  0  0
 18 44  1  0  0  0  0
 19 45  1  0  0  0  0
 19 46  1  0  0  0  0
 20 21  1  0  0  0  0
 21 22  2  0  0  0  0
 21 47  1  0  0  0  0
 22 23  1  0  0  0  0
 24 25  1  0  0  0  0
 24 48  1  0  0  0  0
 24 49  1  0  0  0  0
 25 26  1  0  0  0  0
 26 50  1  0  0  0  0
 26 51  1  0  0  0  0
M  END
> <s_m_source_file>
AV-unprocessed.smi

> <i_m_source_file_index>
86

> <i_lp_mmshare_version>
43012

> <i_f3d_flags>
0

> <s_epik_input>
W0NIMl0xT1tDSDJdQzEoW0NIMl1bT0hdKVtDSDJdbihbY0hdbjIpYyhjMjMpbltjSF1uYzNOKFtDSDJdNClbQ0gyXVtDQEBIXShbQ0BIXTQ1KVtDSDJdW0NASF0oW09IXSlbQ0gyXVtDSDJdNQ==

> <s_epik_cmdline>
J2VwaWtfcHl0aG9uJywgJy1waCcsICc3LjAnLCAnLXRuJywgJzgnLCAnLW1hJywgJzIwMCcsICctbWV0YWxfYmluZGluZycsICctaW1hZScsICc8aW5maWxlLm1hZT4nLCAnLW9tYWUnLCAnPG91dGZpbGUubWFlPic=

> <r_lp_tautomer_probability>
1

> <r_epik_Ionization_Penalty>
0.00425795

> <r_epik_Ionization_Penalty_Charging>
0

> <r_epik_Ionization_Penalty_Neutral>
0.00425795

> <r_epik_State_Penalty>
0.00299946

> <r_epik_Charging_Adjusted_Penalty>
0.00299946

> <i_epik_Tot_Q>
0

> <i_epik_Tot_abs_Q>
0

> <r_epik_Metal_State_Penalty>
-0

> <b_epik_Metal_Only>
0

> <s_lp_Force_Field>
OPLS_2005

> <r_lp_Energy>
55.6071

> <b_lp_Chiralities_Consistent>
1

> <s_lp_Variant>
AV-unprocessed.smi:86-3

> <Gold.Version>
5.8.1

> <Gold.Id.Protein>
6NUR|6NUR_protein|mol2

> <Gold.PLP.Fitness>
49.3760

> <Gold.PLP.PLP>
-42.0012

> <Gold.PLP.part.hbond>
-2.1332

> <Gold.PLP.part.metal>
0.0000

> <Gold.PLP.part.buried>
-5.8697

> <Gold.PLP.part.nonpolar>
-35.0258

> <Gold.PLP.part.repulsive>
0.9144

> <Gold.PLP.ligand.clash>
0.0000

> <Gold.PLP.ligand.torsion>
0.6762

> <Gold.PLP.Chemscore.Hbond>
1.7500

> <Gold.PLP.Chemscore.CHOScore>
1.0000

> <Gold.PLP.Chemscore.Metal>
0.0000

> <Gold.Chemscore.Hbonds>
donor molecule, donor type, donor heavy atom, donor atom, acceptor molecule, acceptor atom, score
      P1  H  6896  6908       L1     1  1.00
      P1  H  7989  7998       L1    20  0.70
      L1  C    21    47       P1  7957  1.00

> <Gold.PLP.Chemscore.Internal.Correction>
0.4771

> <Gold.Rescore>
     Score         DG    S(hbond)    S(metal)    S(lipo)     H(rot)  DE(clash)    DE(int)     intcor
     11.91     -13.74       0.97        0.00     103.25       2.76       0.02       1.81       ----

> <Gold.Chemscore.Fitness>
11.9087

> <Gold.Chemscore.DG>
-13.7362

> <Gold.Chemscore.ZeroCoef>
-5.4800

> <Gold.Chemscore.Hbond>
0.9727

> <Gold.Chemscore.Metal>
0.0000

> <Gold.Chemscore.Lipo>
103.2536

> <Gold.Chemscore.Internal_Hbond>
0.0000

> <Gold.Chemscore.DEClash>
0.0183

> <Gold.Chemscore.DEInternal>
1.8091

> <Gold.Chemscore.Rot>
2.7630

> <Gold.Chemscore.Internal.Correction>
   9.000000E+99

> <Gold.Chemscore.Hbonds>
donor molecule, donor type, donor heavy atom, donor atom, acceptor molecule, acceptor atom, score
      P1  H  6896  6908       L1     1  0.80
      P1  H  7989  7998       L1    20  0.06

> <Gold.Chemscore.Hbond.Weighted>
-3.2488

> <Gold.Chemscore.Metal.Weighted>
-0.0000

> <Gold.Chemscore.Lipo.Weighted>
-12.0807

> <Gold.Chemscore.Internal_Hbond.Weighted>
0.0000

> <Gold.Chemscore.DEClash.Weighted>
0.0183

> <Gold.Chemscore.DEInternal.Weighted>
1.8091

> <Gold.Chemscore.Rot.Weighted>
7.0734

> <Gold.Chemscore.Internal.Correction.Weighted>
   9.000000E+99

> <Gold.Protein.RotatedTorsions>
[ 6907 6896 6895 6894 ] final  132.02 input  -60.11 | X-H torsion
[ 7974 7965 7964 7962 ] final -159.20 input  175.53 | X-H torsion
[ 8008 7997 7996 7995 ] final   16.23 input   59.86 | X-H torsion
[ 10167 10162 10161 10158 ] final  152.09 input  -65.29 | X-H torsion
[ 10718 10713 10712 10709 ] final  146.39 input   66.30 | X-H torsion
[ 10763 10752 10751 10750 ] final   41.24 input  -60.55 | X-H torsion
[ 11005 11000 10999 10996 ] final    4.24 input  -57.11 | X-H torsion

> <Gold.Protein.ActiveResidues>
 VAL166  LYS551  ARG553  GLY616  TRP617  ASP618  TYR619  PRO620  LYS621  CYS622 
 ASP623  PHE694  ASN695  SER759  ASP760  ASP761  ALA762  ILE779  LEU786  VAL792 
 PHE793  MET794  SER795  GLU796  ALA797  LYS798  CYS799  TRP800  GLU811  SER814 

> <Gold.Protein.RotatedAtoms>
  152.3367  133.6020  159.5847 H   0  0  0  0  0  0  0  0  0  0  0  0  # atno 6907 bound_to 6896
  150.7454  133.9785  159.3577 H   0  0  0  0  0  0  0  0  0  0  0  0  # atno 6908 bound_to 6896
  151.7653  135.0800  160.0403 H   0  0  0  0  0  0  0  0  0  0  0  0  # atno 6909 bound_to 6896
  144.7474  140.3718  143.6074 H   0  0  0  0  0  0  0  0  0  0  0  0  # atno 7974 bound_to 7965
  154.8740  140.2963  155.5464 H   0  0  0  0  0  0  0  0  0  0  0  0  # atno 8008 bound_to 7997
  156.3022  140.2455  156.3667 H   0  0  0  0  0  0  0  0  0  0  0  0  # atno 8009 bound_to 7997
  154.8786  140.0398  157.1758 H   0  0  0  0  0  0  0  0  0  0  0  0  # atno 8010 bound_to 7997
  139.4835  144.5386  151.7602 H   0  0  0  0  0  0  0  0  0  0  0  0  # atno 10167 bound_to 10162
  157.3337  131.0924  151.1141 H   0  0  0  0  0  0  0  0  0  0  0  0  # atno 10718 bound_to 10713
  152.9914  135.6167  154.2755 H   0  0  0  0  0  0  0  0  0  0  0  0  # atno 10763 bound_to 10752
  154.2487  135.2786  155.2827 H   0  0  0  0  0  0  0  0  0  0  0  0  # atno 10764 bound_to 10752
  154.5307  135.5789  153.6814 H   0  0  0  0  0  0  0  0  0  0  0  0  # atno 10765 bound_to 10752
  140.5841  133.9985  155.8060 H   0  0  0  0  0  0  0  0  0  0  0  0  # atno 11005 bound_to 11000
  145.7069  139.1675  143.2561 LP  0  0  0  0  0  0  0  0  0  0  0  0  # atno 17320 bound_to 7965
  146.1375  140.7103  142.9383 LP  0  0  0  0  0  0  0  0  0  0  0  0  # atno 17321 bound_to 7965
  140.4923  144.1293  150.5953 LP  0  0  0  0  0  0  0  0  0  0  0  0  # atno 17342 bound_to 10162
  140.4157  143.2635  151.9777 LP  0  0  0  0  0  0  0  0  0  0  0  0  # atno 17343 bound_to 10162
  157.2379  130.6556  149.5877 LP  0  0  0  0  0  0  0  0  0  0  0  0  # atno 17370 bound_to 10713
  155.9699  130.4578  150.5974 LP  0  0  0  0  0  0  0  0  0  0  0  0  # atno 17371 bound_to 10713
  141.0977  133.9817  157.3132 LP  0  0  0  0  0  0  0  0  0  0  0  0  # atno 17394 bound_to 11000
  139.9304  135.0200  156.8379 LP  0  0  0  0  0  0  0  0  0  0  0  0  # atno 17395 bound_to 11000

$$$$
