AV-unprocessed.smi:2505|AV-procd|sdf|9854|dock2
  -GOLD-   2272013483D 1   1.00000     0.00000
 Structure written by MMmdl.
 48 52  0  0  0  0  0  0  0  0  1 V2000
  148.3161  135.6059  156.1600 O   0  0  0  0  0  0  0  0  0  0  0  0
  148.5603  135.7836  154.9691 C   0  0  0  0  0  0  0  0  0  0  0  0
  149.2415  136.8327  154.4688 N   0  0  0  0  0  0  0  0  0  0  0  0
  149.8088  137.9371  155.1584 C   0  0  0  0  0  0  0  0  0  0  0  0
  149.9399  138.0465  156.5648 C   0  0  0  0  0  0  0  0  0  0  0  0
  150.4780  139.1419  157.1437 N   0  0  0  0  0  0  0  0  0  0  0  0
  150.8695  140.1273  156.3312 C   0  0  0  0  0  0  0  0  0  0  0  0
  151.4987  141.3218  156.9780 C   0  0  0  0  0  0  0  0  0  0  0  0
  151.7748  141.3415  158.4676 C   0  0  0  0  0  0  0  0  0  0  0  0
  150.6949  142.2183  157.8977 C   0  0  0  0  0  0  0  0  0  0  0  0
  150.8007  140.1338  154.9971 N   0  0  0  0  0  0  0  0  0  0  0  0
  150.2632  139.0433  154.4101 C   0  0  0  0  0  0  0  0  0  0  0  0
  148.1698  134.8958  154.0390 N   0  0  0  0  0  0  0  0  0  0  0  0
  147.4139  133.6510  154.2518 C   0  0  1  0  0  0  0  0  0  0  0  0
  146.3026  133.4055  153.2241 C   0  0  1  0  0  0  0  0  0  0  0  0
  145.5227  134.2476  152.2787 C   0  0  0  0  0  0  0  0  0  0  0  0
  145.5646  133.2773  151.0685 C   0  0  0  0  0  0  0  0  0  0  0  0
  146.5080  132.2354  151.4251 O   0  0  0  0  0  0  0  0  0  0  0  0
  147.3968  132.8665  152.3267 C   0  0  2  0  0  0  0  0  0  0  0  0
  148.0829  132.3691  153.6212 C   0  0  0  0  0  0  0  0  0  0  0  0
  149.6146  132.2932  153.6121 C   0  0  0  0  0  0  0  0  0  0  0  0
  150.0035  130.8191  153.6644 C   0  0  0  0  0  0  0  0  0  0  0  0
  148.9025  130.1869  154.5028 C   0  0  0  0  0  0  0  0  0  0  0  0
  147.6474  130.9878  154.1526 C   0  0  0  0  0  0  0  0  0  0  0  0
  149.4129  136.8101  153.4739 H   0  0  0  0  0  0  0  0  0  0  0  0
  149.6075  137.2804  157.2470 H   0  0  0  0  0  0  0  0  0  0  0  0
  152.2271  141.7909  156.3196 H   0  0  0  0  0  0  0  0  0  0  0  0
  151.4617  140.4800  159.0544 H   0  0  0  0  0  0  0  0  0  0  0  0
  152.6919  141.8232  158.7999 H   0  0  0  0  0  0  0  0  0  0  0  0
  150.8884  143.2878  157.8490 H   0  0  0  0  0  0  0  0  0  0  0  0
  149.6635  141.9399  158.1055 H   0  0  0  0  0  0  0  0  0  0  0  0
  150.1994  139.0539  153.3317 H   0  0  0  0  0  0  0  0  0  0  0  0
  148.4364  135.0925  153.0851 H   0  0  0  0  0  0  0  0  0  0  0  0
  147.0985  133.4997  155.2854 H   0  0  0  0  0  0  0  0  0  0  0  0
  145.6545  132.6113  153.6087 H   0  0  0  0  0  0  0  0  0  0  0  0
  144.5082  134.4468  152.6246 H   0  0  0  0  0  0  0  0  0  0  0  0
  146.0198  135.1933  152.0592 H   0  0  0  0  0  0  0  0  0  0  0  0
  144.5894  132.8333  150.8677 H   0  0  0  0  0  0  0  0  0  0  0  0
  145.8935  133.7959  150.1672 H   0  0  0  0  0  0  0  0  0  0  0  0
  147.9777  133.6377  151.8108 H   0  0  0  0  0  0  0  0  0  0  0  0
  150.0519  132.7828  152.7413 H   0  0  0  0  0  0  0  0  0  0  0  0
  150.0174  132.7968  154.4919 H   0  0  0  0  0  0  0  0  0  0  0  0
  149.9870  130.3984  152.6582 H   0  0  0  0  0  0  0  0  0  0  0  0
  150.9982  130.6580  154.0808 H   0  0  0  0  0  0  0  0  0  0  0  0
  148.7881  129.1195  154.3116 H   0  0  0  0  0  0  0  0  0  0  0  0
  149.1335  130.3128  155.5615 H   0  0  0  0  0  0  0  0  0  0  0  0
  146.9916  131.0665  155.0201 H   0  0  0  0  0  0  0  0  0  0  0  0
  147.0858  130.4505  153.3874 H   0  0  0  0  0  0  0  0  0  0  0  0
  1  2  2  0  0  0  0
  2  3  1  0  0  0  0
  2 13  1  0  0  0  0
  3  4  1  0  0  0  0
  3 25  1  0  0  0  0
  4 12  1  0  0  0  0
  4  5  2  0  0  0  0
  5  6  1  0  0  0  0
  5 26  1  0  0  0  0
  6  7  2  0  0  0  0
  7  8  1  0  0  0  0
  7 11  1  0  0  0  0
  8 10  1  0  0  0  0
  8  9  1  0  0  0  0
  8 27  1  0  0  0  0
  9 10  1  0  0  0  0
  9 28  1  0  0  0  0
  9 29  1  0  0  0  0
 10 30  1  0  0  0  0
 10 31  1  0  0  0  0
 11 12  2  0  0  0  0
 12 32  1  0  0  0  0
 13 14  1  0  0  0  0
 13 33  1  0  0  0  0
 14 20  1  0  0  0  0
 14 15  1  0  0  0  0
 14 34  1  0  0  0  0
 15 19  1  0  0  0  0
 15 16  1  0  0  0  0
 15 35  1  0  0  0  0
 16 17  1  0  0  0  0
 16 36  1  0  0  0  0
 16 37  1  0  0  0  0
 17 18  1  0  0  0  0
 17 38  1  0  0  0  0
 17 39  1  0  0  0  0
 18 19  1  0  0  0  0
 19 20  1  0  0  0  0
 19 40  1  0  0  0  0
 20 24  1  0  0  0  0
 20 21  1  0  0  0  0
 21 22  1  0  0  0  0
 21 41  1  0  0  0  0
 21 42  1  0  0  0  0
 22 23  1  0  0  0  0
 22 43  1  0  0  0  0
 22 44  1  0  0  0  0
 23 24  1  0  0  0  0
 23 45  1  0  0  0  0
 23 46  1  0  0  0  0
 24 47  1  0  0  0  0
 24 48  1  0  0  0  0
M  END
> <s_m_source_file>
AV-unprocessed.smi

> <i_m_source_file_index>
2505

> <i_lp_mmshare_version>
43012

> <i_f3d_flags>
0

> <s_epik_input>
W0NIMl0xW0NIMl1bQ0hdMWMobltjSF0yKW5bY0hdYzJbTkhdQyg9TylbTkhdW0NAQEhdM1tDQEBIXShbQ0gyXVtDSDJdTzQpW0NASF00QzM1W0NIMl1bQ0gyXVtDSDJdW0NIMl01

> <s_epik_cmdline>
J2VwaWtfcHl0aG9uJywgJy1waCcsICc3LjAnLCAnLXRuJywgJzgnLCAnLW1hJywgJzIwMCcsICctbWV0YWxfYmluZGluZycsICctaW1hZScsICc8aW5maWxlLm1hZT4nLCAnLW9tYWUnLCAnPG91dGZpbGUubWFlPic=

> <r_lp_tautomer_probability>
1

> <r_epik_Ionization_Penalty>
2.6075e-05

> <r_epik_Ionization_Penalty_Charging>
0

> <r_epik_Ionization_Penalty_Neutral>
2.6075e-05

> <r_epik_State_Penalty>
-0

> <r_epik_Charging_Adjusted_Penalty>
0

> <i_epik_Tot_Q>
0

> <i_epik_Tot_abs_Q>
0

> <r_epik_Metal_State_Penalty>
-0

> <b_epik_Metal_Only>
0

> <s_lp_Force_Field>
OPLS_2005

> <r_lp_Energy>
88.0192

> <b_lp_Chiralities_Consistent>
1

> <s_lp_Variant>
AV-unprocessed.smi:2505-2

> <Gold.Version>
5.8.1

> <Gold.Id.Protein>
6NUR|6NUR_protein|mol2

> <Gold.PLP.Fitness>
44.3325

> <Gold.PLP.PLP>
-32.3983

> <Gold.PLP.part.hbond>
-3.0000

> <Gold.PLP.part.metal>
0.0000

> <Gold.PLP.part.buried>
-6.2775

> <Gold.PLP.part.nonpolar>
-24.1247

> <Gold.PLP.part.repulsive>
0.5447

> <Gold.PLP.ligand.clash>
0.0000

> <Gold.PLP.ligand.torsion>
0.2281

> <Gold.PLP.Chemscore.Hbond>
3.0000

> <Gold.PLP.Chemscore.CHOScore>
1.0000

> <Gold.PLP.Chemscore.Metal>
0.0000

> <Gold.Chemscore.Hbonds>
donor molecule, donor type, donor heavy atom, donor atom, acceptor molecule, acceptor atom, score
      L1  H     3    25       P1  7948  1.00
      L1  H    13    33       P1  7948  1.00
      P1  H  7989  7998       L1    11  0.95
      L1  C    12    32       P1  7957  1.00

> <Gold.PLP.Chemscore.Internal.Correction>
0.3904

> <Gold.Rescore>
     Score         DG    S(hbond)    S(metal)    S(lipo)     H(rot)  DE(clash)    DE(int)     intcor
     18.77     -20.32       2.50        0.00      81.23       1.17       0.15       1.40       ----

> <Gold.Chemscore.Fitness>
18.7727

> <Gold.Chemscore.DG>
-20.3240

> <Gold.Chemscore.ZeroCoef>
-5.4800

> <Gold.Chemscore.Hbond>
2.4989

> <Gold.Chemscore.Metal>
0.0000

> <Gold.Chemscore.Lipo>
81.2330

> <Gold.Chemscore.Internal_Hbond>
0.0000

> <Gold.Chemscore.DEClash>
0.1547

> <Gold.Chemscore.DEInternal>
1.3966

> <Gold.Chemscore.Rot>
1.1744

> <Gold.Chemscore.Internal.Correction>
   9.000000E+99

> <Gold.Chemscore.Hbonds>
donor molecule, donor type, donor heavy atom, donor atom, acceptor molecule, acceptor atom, score
      L1  H     3    25       P1  7948  0.86
      L1  H    13    33       P1  7948  0.81
      P1  H  7989  7998       L1    11  0.21

> <Gold.Chemscore.Hbond.Weighted>
-8.3462

> <Gold.Chemscore.Metal.Weighted>
-0.0000

> <Gold.Chemscore.Lipo.Weighted>
-9.5043

> <Gold.Chemscore.Internal_Hbond.Weighted>
0.0000

> <Gold.Chemscore.DEClash.Weighted>
0.1547

> <Gold.Chemscore.DEInternal.Weighted>
1.3966

> <Gold.Chemscore.Rot.Weighted>
3.0064

> <Gold.Chemscore.Internal.Correction.Weighted>
   9.000000E+99

> <Gold.Protein.RotatedTorsions>
[ 6907 6896 6895 6894 ] final    4.56 input  -60.11 | X-H torsion
[ 7974 7965 7964 7962 ] final  -23.14 input  175.53 | X-H torsion
[ 8008 7997 7996 7995 ] final  152.32 input   59.86 | X-H torsion
[ 10167 10162 10161 10158 ] final -124.40 input  -65.29 | X-H torsion
[ 10718 10713 10712 10709 ] final   -3.11 input   66.30 | X-H torsion
[ 10763 10752 10751 10750 ] final    5.30 input  -60.55 | X-H torsion
[ 11005 11000 10999 10996 ] final  -63.99 input  -57.11 | X-H torsion

> <Gold.Protein.ActiveResidues>
 VAL166  LYS551  ARG553  GLY616  TRP617  ASP618  TYR619  PRO620  LYS621  CYS622 
 ASP623  PHE694  ASN695  SER759  ASP760  ASP761  ALA762  ILE779  LEU786  VAL792 
 PHE793  MET794  SER795  GLU796  ALA797  LYS798  CYS799  TRP800  GLU811  SER814 

> <Gold.Protein.RotatedAtoms>
  151.6433  135.1010  160.0145 H   0  0  0  0  0  0  0  0  0  0  0  0  # atno 6907 bound_to 6896
  152.4042  133.6859  159.6350 H   0  0  0  0  0  0  0  0  0  0  0  0  # atno 6908 bound_to 6896
  150.7938  133.8656  159.3285 H   0  0  0  0  0  0  0  0  0  0  0  0  # atno 6909 bound_to 6896
  146.1634  140.4575  142.8562 H   0  0  0  0  0  0  0  0  0  0  0  0  # atno 7974 bound_to 7965
  156.2634  140.2024  156.6315 H   0  0  0  0  0  0  0  0  0  0  0  0  # atno 8008 bound_to 7997
  154.6679  140.0553  157.0158 H   0  0  0  0  0  0  0  0  0  0  0  0  # atno 8009 bound_to 7997
  155.1179  140.3222  155.4507 H   0  0  0  0  0  0  0  0  0  0  0  0  # atno 8010 bound_to 7997
  139.9932  143.5619  152.2334 H   0  0  0  0  0  0  0  0  0  0  0  0  # atno 10167 bound_to 10162
  156.7810  130.5330  149.5751 H   0  0  0  0  0  0  0  0  0  0  0  0  # atno 10718 bound_to 10713
  153.2610  135.6923  153.7579 H   0  0  0  0  0  0  0  0  0  0  0  0  # atno 10763 bound_to 10752
  153.6638  135.3356  155.3135 H   0  0  0  0  0  0  0  0  0  0  0  0  # atno 10764 bound_to 10752
  154.8430  135.4483  154.1600 H   0  0  0  0  0  0  0  0  0  0  0  0  # atno 10765 bound_to 10752
  141.1411  133.6659  156.5765 H   0  0  0  0  0  0  0  0  0  0  0  0  # atno 11005 bound_to 11000
  144.8058  140.6297  143.6448 LP  0  0  0  0  0  0  0  0  0  0  0  0  # atno 17320 bound_to 7965
  145.4530  139.1521  143.3908 LP  0  0  0  0  0  0  0  0  0  0  0  0  # atno 17321 bound_to 7965
  139.6325  144.7646  151.2506 LP  0  0  0  0  0  0  0  0  0  0  0  0  # atno 17342 bound_to 10162
  140.7447  143.6455  150.8296 LP  0  0  0  0  0  0  0  0  0  0  0  0  # atno 17343 bound_to 10162
  156.1218  130.6115  151.0205 LP  0  0  0  0  0  0  0  0  0  0  0  0  # atno 17370 bound_to 10713
  157.6646  131.0874  150.7758 LP  0  0  0  0  0  0  0  0  0  0  0  0  # atno 17371 bound_to 10713
  140.3871  134.7472  157.4698 LP  0  0  0  0  0  0  0  0  0  0  0  0  # atno 17394 bound_to 11000
  140.0594  134.6018  155.8767 LP  0  0  0  0  0  0  0  0  0  0  0  0  # atno 17395 bound_to 11000

$$$$
