AV-unprocessed.smi:1820|AV-procd|sdf|7384|dock5
  -GOLD-   22720 9 53D 1   1.00000     0.00000
 Structure written by MMmdl.
 34 35  0  0  0  0  0  0  0  0  1 V2000
  148.0417  144.1002  161.3623 O   0  0  0  0  0  0  0  0  0  0  0  0
  147.9527  144.6624  160.2712 C   0  0  0  0  0  0  0  0  0  0  0  0
  149.0135  145.0037  159.5265 N   0  0  0  0  0  0  0  0  0  0  0  0
  150.4072  144.7373  159.8726 C   0  0  0  0  0  0  0  0  0  0  0  0
  151.2194  144.1269  158.7010 C   0  0  0  0  0  0  0  0  0  0  0  0
  150.7970  144.7413  157.4991 O   0  0  0  0  0  0  0  0  0  0  0  0
  152.7460  144.2055  158.8633 C   0  0  0  0  0  0  0  0  0  0  0  0
  153.1068  143.0173  159.7606 C   0  0  0  0  0  0  0  0  0  0  0  0
  152.0074  141.9675  159.5345 C   0  0  0  0  0  0  0  0  0  0  0  0
  150.9818  142.6135  158.5924 C   0  0  0  0  0  0  0  0  0  0  0  0
  146.8057  145.0308  159.6740 N   0  0  0  0  0  0  0  0  0  0  0  0
  145.4681  144.8558  160.1230 C   0  0  0  0  0  0  0  0  0  0  0  0
  145.2680  144.1196  161.3093 C   0  0  0  0  0  0  0  0  0  0  0  0
  143.9539  143.9414  161.7855 C   0  0  0  0  0  0  0  0  0  0  0  0
  142.8662  144.4476  161.1680 N   0  0  0  0  0  0  0  0  0  0  0  0
  143.0599  145.1636  160.0404 C   0  0  0  0  0  0  0  0  0  0  0  0
  144.3309  145.4017  159.4800 C   0  0  0  0  0  0  0  0  0  0  0  0
  148.8467  145.4664  158.6452 H   0  0  0  0  0  0  0  0  0  0  0  0
  150.8370  145.6987  160.1551 H   0  0  0  0  0  0  0  0  0  0  0  0
  150.4809  144.1116  160.7640 H   0  0  0  0  0  0  0  0  0  0  0  0
  149.8529  144.7243  157.4674 H   0  0  0  0  0  0  0  0  0  0  0  0
  153.2235  144.0625  157.8924 H   0  0  0  0  0  0  0  0  0  0  0  0
  153.1088  145.1560  159.2544 H   0  0  0  0  0  0  0  0  0  0  0  0
  154.1007  142.6294  159.5351 H   0  0  0  0  0  0  0  0  0  0  0  0
  153.1074  143.3284  160.8060 H   0  0  0  0  0  0  0  0  0  0  0  0
  152.4076  141.0477  159.1068 H   0  0  0  0  0  0  0  0  0  0  0  0
  151.5410  141.7077  160.4855 H   0  0  0  0  0  0  0  0  0  0  0  0
  149.9564  142.3239  158.8255 H   0  0  0  0  0  0  0  0  0  0  0  0
  151.1865  142.2758  157.5748 H   0  0  0  0  0  0  0  0  0  0  0  0
  146.9047  145.5468  158.8123 H   0  0  0  0  0  0  0  0  0  0  0  0
  146.1026  143.6930  161.8461 H   0  0  0  0  0  0  0  0  0  0  0  0
  143.7727  143.3775  162.6886 H   0  0  0  0  0  0  0  0  0  0  0  0
  142.1736  145.5653  159.5718 H   0  0  0  0  0  0  0  0  0  0  0  0
  144.4038  146.0009  158.5857 H   0  0  0  0  0  0  0  0  0  0  0  0
  1  2  2  0  0  0  0
  2  3  1  0  0  0  0
  2 11  1  0  0  0  0
  3  4  1  0  0  0  0
  3 18  1  0  0  0  0
  4  5  1  0  0  0  0
  4 19  1  0  0  0  0
  4 20  1  0  0  0  0
  5 10  1  0  0  0  0
  5  6  1  0  0  0  0
  5  7  1  0  0  0  0
  6 21  1  0  0  0  0
  7  8  1  0  0  0  0
  7 22  1  0  0  0  0
  7 23  1  0  0  0  0
  8  9  1  0  0  0  0
  8 24  1  0  0  0  0
  8 25  1  0  0  0  0
  9 10  1  0  0  0  0
  9 26  1  0  0  0  0
  9 27  1  0  0  0  0
 10 28  1  0  0  0  0
 10 29  1  0  0  0  0
 11 12  1  0  0  0  0
 11 30  1  0  0  0  0
 12 17  1  0  0  0  0
 12 13  2  0  0  0  0
 13 14  1  0  0  0  0
 13 31  1  0  0  0  0
 14 15  2  0  0  0  0
 14 32  1  0  0  0  0
 15 16  1  0  0  0  0
 16 17  2  0  0  0  0
 16 33  1  0  0  0  0
 17 34  1  0  0  0  0
M  END
> <s_m_source_file>
AV-unprocessed.smi

> <i_m_source_file_index>
1820

> <i_lp_mmshare_version>
43012

> <i_f3d_flags>
0

> <s_epik_input>
W2NIXTFbY0hdbltjSF1bY0hdYzFbTkhdQyg9TylbTkhdW0NIMl1DMihbT0hdKVtDSDJdW0NIMl1bQ0gyXVtDSDJdMg==

> <s_epik_cmdline>
J2VwaWtfcHl0aG9uJywgJy1waCcsICc3LjAnLCAnLXRuJywgJzgnLCAnLW1hJywgJzIwMCcsICctbWV0YWxfYmluZGluZycsICctaW1hZScsICc8aW5maWxlLm1hZT4nLCAnLW9tYWUnLCAnPG91dGZpbGUubWFlPic=

> <r_epik_Ionization_Penalty>
0.127626

> <r_epik_Ionization_Penalty_Charging>
0

> <r_epik_Ionization_Penalty_Neutral>
0.127626

> <r_epik_State_Penalty>
0.11702

> <r_epik_Charging_Adjusted_Penalty>
0.11702

> <i_epik_Tot_Q>
0

> <i_epik_Tot_abs_Q>
0

> <r_epik_Metal_State_Penalty>
0.0961027

> <b_epik_Metal_Only>
0

> <s_lp_Force_Field>
OPLS_2005

> <r_lp_Energy>
30.5055

> <b_lp_Chiralities_Consistent>
1

> <s_lp_Variant>
AV-unprocessed.smi:1820-1

> <Gold.Version>
5.8.1

> <Gold.Id.Protein>
6NUR|6NUR_protein|mol2

> <Gold.PLP.Fitness>
45.5793

> <Gold.PLP.PLP>
-36.9064

> <Gold.PLP.part.hbond>
-4.7258

> <Gold.PLP.part.metal>
0.0000

> <Gold.PLP.part.buried>
-5.5358

> <Gold.PLP.part.nonpolar>
-27.5230

> <Gold.PLP.part.repulsive>
0.5574

> <Gold.PLP.ligand.clash>
0.0000

> <Gold.PLP.ligand.torsion>
0.3665

> <Gold.PLP.Chemscore.Hbond>
3.1320

> <Gold.PLP.Chemscore.CHOScore>
0.0000

> <Gold.PLP.Chemscore.Metal>
0.0000

> <Gold.Chemscore.Hbonds>
donor molecule, donor type, donor heavy atom, donor atom, acceptor molecule, acceptor atom, score
      L1  H     3    18       P1  8029  1.00
      L1  H     6    21       P1  8028  0.26
      L1  H    11    30       P1  8029  1.00
      P1  H  6933  6944       L1     1  1.00

> <Gold.PLP.Chemscore.Internal.Correction>
0.0098

> <Gold.Rescore>
     Score         DG    S(hbond)    S(metal)    S(lipo)     H(rot)  DE(clash)    DE(int)     intcor
     19.23     -20.90       2.88        0.00      88.08       1.76       0.03       1.63       ----

> <Gold.Chemscore.Fitness>
19.2337

> <Gold.Chemscore.DG>
-20.8961

> <Gold.Chemscore.ZeroCoef>
-5.4800

> <Gold.Chemscore.Hbond>
2.8763

> <Gold.Chemscore.Metal>
0.0000

> <Gold.Chemscore.Lipo>
88.0810

> <Gold.Chemscore.Internal_Hbond>
0.0000

> <Gold.Chemscore.DEClash>
0.0310

> <Gold.Chemscore.DEInternal>
1.6314

> <Gold.Chemscore.Rot>
1.7564

> <Gold.Chemscore.Internal.Correction>
   9.000000E+99

> <Gold.Chemscore.Hbonds>
donor molecule, donor type, donor heavy atom, donor atom, acceptor molecule, acceptor atom, score
      L1  H     3    18       P1  8029  0.98
      L1  H     6    21       P1  8028  0.02
      L1  H    11    30       P1  8029  0.95
      P1  H  6933  6944       L1     1  0.97

> <Gold.Chemscore.Hbond.Weighted>
-9.6069

> <Gold.Chemscore.Metal.Weighted>
-0.0000

> <Gold.Chemscore.Lipo.Weighted>
-10.3055

> <Gold.Chemscore.Internal_Hbond.Weighted>
0.0000

> <Gold.Chemscore.DEClash.Weighted>
0.0310

> <Gold.Chemscore.DEInternal.Weighted>
1.6314

> <Gold.Chemscore.Rot.Weighted>
4.4963

> <Gold.Chemscore.Internal.Correction.Weighted>
   9.000000E+99

> <Gold.Protein.RotatedTorsions>
[ 6907 6896 6895 6894 ] final -129.84 input  -60.11 | X-H torsion
[ 7974 7965 7964 7962 ] final -102.21 input  175.53 | X-H torsion
[ 8008 7997 7996 7995 ] final  -89.00 input   59.86 | X-H torsion
[ 10167 10162 10161 10158 ] final  -43.57 input  -65.29 | X-H torsion
[ 10718 10713 10712 10709 ] final -134.92 input   66.30 | X-H torsion
[ 10763 10752 10751 10750 ] final  130.97 input  -60.55 | X-H torsion
[ 11005 11000 10999 10996 ] final -139.63 input  -57.11 | X-H torsion

> <Gold.Protein.ActiveResidues>
 VAL166  LYS551  ARG553  GLY616  TRP617  ASP618  TYR619  PRO620  LYS621  CYS622 
 ASP623  PHE694  ASN695  SER759  ASP760  ASP761  ALA762  ILE779  LEU786  VAL792 
 PHE793  MET794  SER795  GLU796  ALA797  LYS798  CYS799  TRP800  GLU811  SER814 

> <Gold.Protein.RotatedAtoms>
  150.9331  133.6743  159.2806 H   0  0  0  0  0  0  0  0  0  0  0  0  # atno 6907 bound_to 6896
  151.4158  135.0990  159.9608 H   0  0  0  0  0  0  0  0  0  0  0  0  # atno 6908 bound_to 6896
  152.5035  133.8794  159.7393 H   0  0  0  0  0  0  0  0  0  0  0  0  # atno 6909 bound_to 6896
  145.2716  140.9300  143.2983 H   0  0  0  0  0  0  0  0  0  0  0  0  # atno 7974 bound_to 7965
  154.6814  140.0547  157.0269 H   0  0  0  0  0  0  0  0  0  0  0  0  # atno 8008 bound_to 7997
  155.0946  140.3223  155.4545 H   0  0  0  0  0  0  0  0  0  0  0  0  # atno 8009 bound_to 7997
  156.2695  140.2042  156.6073 H   0  0  0  0  0  0  0  0  0  0  0  0  # atno 8010 bound_to 7997
  140.6929  143.2976  151.3371 H   0  0  0  0  0  0  0  0  0  0  0  0  # atno 10167 bound_to 10162
  156.2606  130.7208  151.1140 H   0  0  0  0  0  0  0  0  0  0  0  0  # atno 10718 bound_to 10713
  153.7667  135.3188  155.3345 H   0  0  0  0  0  0  0  0  0  0  0  0  # atno 10763 bound_to 10752
  154.8211  135.4603  154.0784 H   0  0  0  0  0  0  0  0  0  0  0  0  # atno 10764 bound_to 10752
  153.2032  135.6925  153.8290 H   0  0  0  0  0  0  0  0  0  0  0  0  # atno 10765 bound_to 10752
  140.8501  134.2296  157.4765 H   0  0  0  0  0  0  0  0  0  0  0  0  # atno 11005 bound_to 11000
  144.9330  139.4276  143.6486 LP  0  0  0  0  0  0  0  0  0  0  0  0  # atno 17320 bound_to 7965
  146.3245  139.8251  142.8919 LP  0  0  0  0  0  0  0  0  0  0  0  0  # atno 17321 bound_to 7965
  139.6351  144.0646  152.2509 LP  0  0  0  0  0  0  0  0  0  0  0  0  # atno 17342 bound_to 10162
  140.0134  144.6207  150.7628 LP  0  0  0  0  0  0  0  0  0  0  0  0  # atno 17343 bound_to 10162
  157.7249  131.0656  150.5975 LP  0  0  0  0  0  0  0  0  0  0  0  0  # atno 17370 bound_to 10713
  156.6062  130.4368  149.5877 LP  0  0  0  0  0  0  0  0  0  0  0  0  # atno 17371 bound_to 10713
  139.8704  134.9679  156.4613 LP  0  0  0  0  0  0  0  0  0  0  0  0  # atno 17394 bound_to 11000
  140.8799  133.7925  155.9455 LP  0  0  0  0  0  0  0  0  0  0  0  0  # atno 17395 bound_to 11000

$$$$
