AV-unprocessed.smi:1669|AV-procd|sdf|6688|dock10
  -GOLD-   22720 7413D 1   1.00000     0.00000
 Structure written by MMmdl.
 47 49  0  0  0  0  0  0  0  0  1 V2000
  154.0448  137.8797  162.2774 C   0  0  0  0  0  0  0  0  0  0  0  0
  154.3853  138.5558  161.0286 N   0  0  0  0  0  0  0  0  0  0  0  0
  155.0816  139.8193  161.2969 C   0  0  0  0  0  0  0  0  0  0  0  0
  154.1646  140.9511  161.7288 C   0  0  0  0  0  0  0  0  0  0  0  0
  153.4635  141.7052  160.7638 C   0  0  0  0  0  0  0  0  0  0  0  0
  152.6123  142.7529  161.1659 C   0  0  0  0  0  0  0  0  0  0  0  0
  152.4577  143.0491  162.5340 C   0  0  0  0  0  0  0  0  0  0  0  0
  153.1534  142.2967  163.4999 C   0  0  0  0  0  0  0  0  0  0  0  0
  154.0042  141.2484  163.0985 C   0  0  0  0  0  0  0  0  0  0  0  0
  153.1753  138.7616  160.2306 C   0  0  0  0  0  0  0  0  0  0  0  0
  152.8602  137.6500  159.2036 C   0  0  1  0  0  0  0  0  0  0  0  0
  153.2296  136.4105  159.7702 O   0  0  0  0  0  0  0  0  0  0  0  0
  151.3672  137.5646  158.8277 C   0  0  0  0  0  0  0  0  0  0  0  0
  151.0003  138.4787  157.7531 N   0  0  0  0  0  0  0  0  0  0  0  0
  150.5789  138.1724  156.4992 C   0  0  0  0  0  0  0  0  0  0  0  0
  150.4253  136.7474  156.0455 C   0  0  0  0  0  0  0  0  0  0  0  0
  151.3469  136.3612  155.0458 O   0  0  0  0  0  0  0  0  0  0  0  0
  150.3234  139.2165  155.7071 N   0  0  0  0  0  0  0  0  0  0  0  0
  150.5927  140.2961  156.5239 C   0  0  0  0  0  0  0  0  0  0  0  0
  150.5142  141.6836  156.2671 C   0  0  0  0  0  0  0  0  0  0  0  0
  150.8461  142.6154  157.2723 C   0  0  0  0  0  0  0  0  0  0  0  0
  151.2599  142.1740  158.5456 C   0  0  0  0  0  0  0  0  0  0  0  0
  151.3460  140.7960  158.8217 C   0  0  0  0  0  0  0  0  0  0  0  0
  151.0141  139.8694  157.8145 C   0  0  0  0  0  0  0  0  0  0  0  0
  153.5431  136.9318  162.0807 H   0  0  0  0  0  0  0  0  0  0  0  0
  153.3822  138.4931  162.8896 H   0  0  0  0  0  0  0  0  0  0  0  0
  154.9367  137.6545  162.8624 H   0  0  0  0  0  0  0  0  0  0  0  0
  155.8086  139.6967  162.0976 H   0  0  0  0  0  0  0  0  0  0  0  0
  155.6514  140.1246  160.4176 H   0  0  0  0  0  0  0  0  0  0  0  0
  153.5792  141.4823  159.7131 H   0  0  0  0  0  0  0  0  0  0  0  0
  152.0780  143.3294  160.4252 H   0  0  0  0  0  0  0  0  0  0  0  0
  151.8057  143.8531  162.8424 H   0  0  0  0  0  0  0  0  0  0  0  0
  153.0346  142.5239  164.5492 H   0  0  0  0  0  0  0  0  0  0  0  0
  154.5348  140.6758  163.8453 H   0  0  0  0  0  0  0  0  0  0  0  0
  152.3105  138.8615  160.8889 H   0  0  0  0  0  0  0  0  0  0  0  0
  153.2638  139.7229  159.7245 H   0  0  0  0  0  0  0  0  0  0  0  0
  153.4386  137.7779  158.2916 H   0  0  0  0  0  0  0  0  0  0  0  0
  154.1686  136.3230  159.7053 H   0  0  0  0  0  0  0  0  0  0  0  0
  151.1052  136.5492  158.5300 H   0  0  0  0  0  0  0  0  0  0  0  0
  150.7491  137.7871  159.6982 H   0  0  0  0  0  0  0  0  0  0  0  0
  150.5483  136.0842  156.9013 H   0  0  0  0  0  0  0  0  0  0  0  0
  149.4207  136.5958  155.6513 H   0  0  0  0  0  0  0  0  0  0  0  0
  150.8685  136.1629  154.2556 H   0  0  0  0  0  0  0  0  0  0  0  0
  150.1983  142.0310  155.2946 H   0  0  0  0  0  0  0  0  0  0  0  0
  150.7833  143.6737  157.0651 H   0  0  0  0  0  0  0  0  0  0  0  0
  151.5125  142.8940  159.3102 H   0  0  0  0  0  0  0  0  0  0  0  0
  151.6670  140.4567  159.7953 H   0  0  0  0  0  0  0  0  0  0  0  0
  1  2  1  0  0  0  0
  1 25  1  0  0  0  0
  1 26  1  0  0  0  0
  1 27  1  0  0  0  0
  2  3  1  0  0  0  0
  2 10  1  0  0  0  0
  3  4  1  0  0  0  0
  3 28  1  0  0  0  0
  3 29  1  0  0  0  0
  4  9  1  0  0  0  0
  4  5  2  0  0  0  0
  5  6  1  0  0  0  0
  5 30  1  0  0  0  0
  6  7  2  0  0  0  0
  6 31  1  0  0  0  0
  7  8  1  0  0  0  0
  7 32  1  0  0  0  0
  8  9  2  0  0  0  0
  8 33  1  0  0  0  0
  9 34  1  0  0  0  0
 10 11  1  0  0  0  0
 10 35  1  0  0  0  0
 10 36  1  0  0  0  0
 11 12  1  0  0  0  0
 11 13  1  0  0  0  0
 11 37  1  0  0  0  0
 12 38  1  0  0  0  0
 13 14  1  0  0  0  0
 13 39  1  0  0  0  0
 13 40  1  0  0  0  0
 14 24  1  0  0  0  0
 14 15  1  0  0  0  0
 15 16  1  0  0  0  0
 15 18  2  0  0  0  0
 16 17  1  0  0  0  0
 16 41  1  0  0  0  0
 16 42  1  0  0  0  0
 17 43  1  0  0  0  0
 18 19  1  0  0  0  0
 19 24  2  0  0  0  0
 19 20  1  0  0  0  0
 20 21  2  0  0  0  0
 20 44  1  0  0  0  0
 21 22  1  0  0  0  0
 21 45  1  0  0  0  0
 22 23  2  0  0  0  0
 22 46  1  0  0  0  0
 23 24  1  0  0  0  0
 23 47  1  0  0  0  0
M  END
> <s_m_source_file>
AV-unprocessed.smi

> <i_m_source_file_index>
1669

> <i_lp_mmshare_version>
43012

> <i_f3d_flags>
0

> <s_epik_input>
W2NIXTFbY0hdW2NIXVtjSF1bY0hdYzFbQ0gyXU4oW0NIM10pW0NIMl1bQ0BIXShbT0hdKVtDSDJdbihjKG4yKVtDSDJdW09IXSljKGMyMylbY0hdW2NIXVtjSF1bY0hdMw==

> <s_epik_cmdline>
J2VwaWtfcHl0aG9uJywgJy1waCcsICc3LjAnLCAnLXRuJywgJzgnLCAnLW1hJywgJzIwMCcsICctbWV0YWxfYmluZGluZycsICctaW1hZScsICc8aW5maWxlLm1hZT4nLCAnLW9tYWUnLCAnPG91dGZpbGUubWFlPic=

> <r_epik_Ionization_Penalty>
1.56301

> <r_epik_Ionization_Penalty_Charging>
0

> <r_epik_Ionization_Penalty_Neutral>
1.56301

> <r_epik_State_Penalty>
1.64771

> <r_epik_Charging_Adjusted_Penalty>
1.64771

> <i_epik_Tot_Q>
0

> <i_epik_Tot_abs_Q>
0

> <r_epik_Metal_State_Penalty>
1.61258

> <b_epik_Metal_Only>
0

> <s_lp_Force_Field>
OPLS_2005

> <r_lp_Energy>
25.3744

> <b_lp_Chiralities_Consistent>
1

> <s_lp_Variant>
AV-unprocessed.smi:1669-6

> <Gold.Version>
5.8.1

> <Gold.Id.Protein>
6NUR|6NUR_protein|mol2

> <Gold.PLP.Fitness>
50.3980

> <Gold.PLP.PLP>
-47.1614

> <Gold.PLP.part.hbond>
-2.0000

> <Gold.PLP.part.metal>
0.0000

> <Gold.PLP.part.buried>
-4.1476

> <Gold.PLP.part.nonpolar>
-40.5630

> <Gold.PLP.part.repulsive>
0.0611

> <Gold.PLP.ligand.clash>
0.0000

> <Gold.PLP.ligand.torsion>
1.5378

> <Gold.PLP.Chemscore.Hbond>
2.0000

> <Gold.PLP.Chemscore.CHOScore>
0.0000

> <Gold.PLP.Chemscore.Metal>
0.0000

> <Gold.Chemscore.Hbonds>
donor molecule, donor type, donor heavy atom, donor atom, acceptor molecule, acceptor atom, score
      P1  H  6896  6908       L1    12  1.00
      P1  H 10752 10765       L1    17  0.70

> <Gold.PLP.Chemscore.Internal.Correction>
0.3121

> <Gold.Rescore>
     Score         DG    S(hbond)    S(metal)    S(lipo)     H(rot)  DE(clash)    DE(int)     intcor
     16.94     -19.82       1.90        0.00     135.17       3.06       0.17       2.71       ----

> <Gold.Chemscore.Fitness>
16.9436

> <Gold.Chemscore.DG>
-19.8200

> <Gold.Chemscore.ZeroCoef>
-5.4800

> <Gold.Chemscore.Hbond>
1.9047

> <Gold.Chemscore.Metal>
0.0000

> <Gold.Chemscore.Lipo>
135.1653

> <Gold.Chemscore.Internal_Hbond>
0.0000

> <Gold.Chemscore.DEClash>
0.1671

> <Gold.Chemscore.DEInternal>
2.7094

> <Gold.Chemscore.Rot>
3.0609

> <Gold.Chemscore.Internal.Correction>
   9.000000E+99

> <Gold.Chemscore.Hbonds>
donor molecule, donor type, donor heavy atom, donor atom, acceptor molecule, acceptor atom, score
      P1  H  6896  6908       L1    12  0.99
      P1  H 10752 10765       L1    17  0.07

> <Gold.Chemscore.Hbond.Weighted>
-6.3615

> <Gold.Chemscore.Metal.Weighted>
-0.0000

> <Gold.Chemscore.Lipo.Weighted>
-15.8143

> <Gold.Chemscore.Internal_Hbond.Weighted>
0.0000

> <Gold.Chemscore.DEClash.Weighted>
0.1671

> <Gold.Chemscore.DEInternal.Weighted>
2.7094

> <Gold.Chemscore.Rot.Weighted>
7.8358

> <Gold.Chemscore.Internal.Correction.Weighted>
   9.000000E+99

> <Gold.Protein.RotatedTorsions>
[ 6907 6896 6895 6894 ] final  -92.28 input  -60.11 | X-H torsion
[ 7974 7965 7964 7962 ] final -105.18 input  175.53 | X-H torsion
[ 8008 7997 7996 7995 ] final   69.34 input   59.86 | X-H torsion
[ 10167 10162 10161 10158 ] final  -87.04 input  -65.29 | X-H torsion
[ 10718 10713 10712 10709 ] final  -61.06 input   66.30 | X-H torsion
[ 10763 10752 10751 10750 ] final  168.70 input  -60.55 | X-H torsion
[ 11005 11000 10999 10996 ] final  -27.11 input  -57.11 | X-H torsion

> <Gold.Protein.ActiveResidues>
 VAL166  LYS551  ARG553  GLY616  TRP617  ASP618  TYR619  PRO620  LYS621  CYS622 
 ASP623  PHE694  ASN695  SER759  ASP760  ASP761  ALA762  ILE779  LEU786  VAL792 
 PHE793  MET794  SER795  GLU796  ALA797  LYS798  CYS799  TRP800  GLU811  SER814 

> <Gold.Protein.RotatedAtoms>
  150.6904  134.2146  159.4372 H   0  0  0  0  0  0  0  0  0  0  0  0  # atno 6907 bound_to 6896
  152.0106  134.9876  160.0577 H   0  0  0  0  0  0  0  0  0  0  0  0  # atno 6908 bound_to 6896
  152.1492  133.4477  159.4842 H   0  0  0  0  0  0  0  0  0  0  0  0  # atno 6909 bound_to 6896
  145.2338  140.9180  143.3189 H   0  0  0  0  0  0  0  0  0  0  0  0  # atno 7974 bound_to 7965
  155.7222  140.3493  155.5021 H   0  0  0  0  0  0  0  0  0  0  0  0  # atno 8008 bound_to 7997
  155.9260  140.1075  157.1192 H   0  0  0  0  0  0  0  0  0  0  0  0  # atno 8009 bound_to 7997
  154.4077  140.1240  156.4727 H   0  0  0  0  0  0  0  0  0  0  0  0  # atno 8010 bound_to 7997
  140.3883  143.2716  151.9297 H   0  0  0  0  0  0  0  0  0  0  0  0  # atno 10167 bound_to 10162
  156.0947  130.4194  150.0942 H   0  0  0  0  0  0  0  0  0  0  0  0  # atno 10718 bound_to 10713
  154.3723  135.2753  155.2259 H   0  0  0  0  0  0  0  0  0  0  0  0  # atno 10763 bound_to 10752
  154.4401  135.5956  153.6127 H   0  0  0  0  0  0  0  0  0  0  0  0  # atno 10764 bound_to 10752
  152.9838  135.6016  154.3956 H   0  0  0  0  0  0  0  0  0  0  0  0  # atno 10765 bound_to 10752
  140.9090  133.7473  156.0645 H   0  0  0  0  0  0  0  0  0  0  0  0  # atno 11005 bound_to 11000
  144.9652  139.3937  143.6336 LP  0  0  0  0  0  0  0  0  0  0  0  0  # atno 17320 bound_to 7965
  146.3346  139.8724  142.8838 LP  0  0  0  0  0  0  0  0  0  0  0  0  # atno 17321 bound_to 7965
  139.4790  144.5752  151.8023 LP  0  0  0  0  0  0  0  0  0  0  0  0  # atno 17342 bound_to 10162
  140.4866  144.1372  150.5942 LP  0  0  0  0  0  0  0  0  0  0  0  0  # atno 17343 bound_to 10162
  156.8943  130.9599  151.3584 LP  0  0  0  0  0  0  0  0  0  0  0  0  # atno 17370 bound_to 10713
  157.6105  130.8579  149.8944 LP  0  0  0  0  0  0  0  0  0  0  0  0  # atno 17371 bound_to 10713
  140.8134  134.3372  157.5404 LP  0  0  0  0  0  0  0  0  0  0  0  0  # atno 17394 bound_to 11000
  139.8754  134.9267  156.3408 LP  0  0  0  0  0  0  0  0  0  0  0  0  # atno 17395 bound_to 11000

$$$$
