AV-unprocessed.smi:1487|AV-procd|sdf|6015|dock2
  -GOLD-   22720 6113D 1   1.00000     0.00000
 Structure written by MMmdl.
 49 51  0  0  0  0  0  0  0  0  3 V2000
  153.4940  141.7450  159.4929 C   0  0  0  0  0  0  0  0  0  0  0  0
  152.8109  141.1884  158.2551 C   0  0  0  0  0  0  0  0  0  0  0  0
  151.8914  142.0099  157.5649 C   0  0  0  0  0  0  0  0  0  0  0  0
  151.2847  141.4732  156.4354 C   0  0  0  0  0  0  0  0  0  0  0  0
  150.3517  142.0212  155.5532 N   0  3  0  0  0  0  0  0  0  0  0  0
  150.0474  141.1095  154.5889 C   0  0  0  0  0  0  0  0  0  0  0  0
  150.7760  139.9874  154.8391 N   0  0  0  0  0  0  0  0  0  0  0  0
  150.8063  138.7119  154.1089 C   0  0  0  0  0  0  0  0  0  0  0  0
  150.4747  137.4951  154.9964 C   0  0  2  0  0  0  0  0  0  0  0  0
  150.7980  136.3383  154.2515 O   0  0  0  0  0  0  0  0  0  0  0  0
  148.9905  137.4285  155.4239 C   0  0  0  0  0  0  0  0  0  0  0  0
  148.0436  137.4687  154.2790 N   0  3  1  0  0  0  0  0  0  0  0  0
  146.7540  136.7762  154.5488 C   0  0  0  0  0  0  0  0  0  0  0  0
  145.8673  136.7431  153.2922 C   0  0  0  0  0  0  0  0  0  0  0  0
  145.6192  138.1584  152.7560 C   0  0  0  0  0  0  0  0  0  0  0  0
  146.9612  138.8635  152.5128 C   0  0  1  0  0  0  0  0  0  0  0  0
  146.7276  140.1977  152.1170 O   0  0  0  0  0  0  0  0  0  0  0  0
  147.8249  138.8543  153.7872 C   0  0  0  0  0  0  0  0  0  0  0  0
  151.5605  140.1667  155.9861 C   0  0  0  0  0  0  0  0  0  0  0  0
  152.4628  139.3437  156.6571 C   0  0  0  0  0  0  0  0  0  0  0  0
  153.0930  139.8724  157.8063 C   0  0  0  0  0  0  0  0  0  0  0  0
  154.0851  138.9985  158.5551 C   0  0  0  0  0  0  0  0  0  0  0  0
  153.1839  142.7710  159.6932 H   0  0  0  0  0  0  0  0  0  0  0  0
  154.5770  141.7439  159.3667 H   0  0  0  0  0  0  0  0  0  0  0  0
  153.2464  141.1452  160.3690 H   0  0  0  0  0  0  0  0  0  0  0  0
  151.6702  143.0122  157.9019 H   0  0  0  0  0  0  0  0  0  0  0  0
  149.3500  141.2502  153.7754 H   0  0  0  0  0  0  0  0  0  0  0  0
  150.1374  138.7696  153.2501 H   0  0  0  0  0  0  0  0  0  0  0  0
  151.8122  138.6069  153.6998 H   0  0  0  0  0  0  0  0  0  0  0  0
  151.1255  137.5275  155.8695 H   0  0  0  0  0  0  0  0  0  0  0  0
  150.9224  136.5783  153.3459 H   0  0  0  0  0  0  0  0  0  0  0  0
  148.7931  136.5273  156.0053 H   0  0  0  0  0  0  0  0  0  0  0  0
  148.7911  138.2704  156.0889 H   0  0  0  0  0  0  0  0  0  0  0  0
  146.9302  135.7528  154.8762 H   0  0  0  0  0  0  0  0  0  0  0  0
  146.2312  137.2817  155.3623 H   0  0  0  0  0  0  0  0  0  0  0  0
  146.3453  136.1371  152.5214 H   0  0  0  0  0  0  0  0  0  0  0  0
  144.9163  136.2604  153.5194 H   0  0  0  0  0  0  0  0  0  0  0  0
  145.0381  138.1142  151.8339 H   0  0  0  0  0  0  0  0  0  0  0  0
  145.0234  138.7221  153.4759 H   0  0  0  0  0  0  0  0  0  0  0  0
  147.4973  138.3606  151.7066 H   0  0  0  0  0  0  0  0  0  0  0  0
  146.0135  140.5453  152.6298 H   0  0  0  0  0  0  0  0  0  0  0  0
  147.3513  139.4457  154.5732 H   0  0  0  0  0  0  0  0  0  0  0  0
  148.7860  139.3238  153.5722 H   0  0  0  0  0  0  0  0  0  0  0  0
  152.6806  138.3409  156.3212 H   0  0  0  0  0  0  0  0  0  0  0  0
  154.1825  138.0165  158.0910 H   0  0  0  0  0  0  0  0  0  0  0  0
  153.7629  138.8486  159.5858 H   0  0  0  0  0  0  0  0  0  0  0  0
  155.0720  139.4616  158.5640 H   0  0  0  0  0  0  0  0  0  0  0  0
  148.4927  136.9740  153.5218 H   0  0  0  0  0  0  0  0  0  0  0  0
  149.9460  142.9471  155.6067 H   0  0  0  0  0  0  0  0  0  0  0  0
  1  2  1  0  0  0  0
  1 23  1  0  0  0  0
  1 24  1  0  0  0  0
  1 25  1  0  0  0  0
  2 21  1  0  0  0  0
  2  3  2  0  0  0  0
  3  4  1  0  0  0  0
  3 26  1  0  0  0  0
  4 19  2  0  0  0  0
  4  5  1  0  0  0  0
  5  6  2  0  0  0  0
  5 49  1  0  0  0  0
  6  7  1  0  0  0  0
  6 27  1  0  0  0  0
  7  8  1  0  0  0  0
  7 19  1  0  0  0  0
  8  9  1  0  0  0  0
  8 28  1  0  0  0  0
  8 29  1  0  0  0  0
  9 10  1  0  0  0  0
  9 11  1  0  0  0  0
  9 30  1  0  0  0  0
 10 31  1  0  0  0  0
 11 12  1  0  0  0  0
 11 32  1  0  0  0  0
 11 33  1  0  0  0  0
 12 18  1  0  0  0  0
 12 13  1  0  0  0  0
 12 48  1  0  0  0  0
 13 14  1  0  0  0  0
 13 34  1  0  0  0  0
 13 35  1  0  0  0  0
 14 15  1  0  0  0  0
 14 36  1  0  0  0  0
 14 37  1  0  0  0  0
 15 16  1  0  0  0  0
 15 38  1  0  0  0  0
 15 39  1  0  0  0  0
 16 17  1  0  0  0  0
 16 18  1  0  0  0  0
 16 40  1  0  0  0  0
 17 41  1  0  0  0  0
 18 42  1  0  0  0  0
 18 43  1  0  0  0  0
 19 20  1  0  0  0  0
 20 21  2  0  0  0  0
 20 44  1  0  0  0  0
 21 22  1  0  0  0  0
 22 45  1  0  0  0  0
 22 46  1  0  0  0  0
 22 47  1  0  0  0  0
M  CHG  1   5   1
M  CHG  1  12   1
M  END
> <s_m_source_file>
AV-unprocessed.smi

> <i_m_source_file_index>
1487

> <i_lp_mmshare_version>
43012

> <i_f3d_flags>
0

> <s_epik_input>
W0NIM11jKFtjSF0xKWMoW0NIM10pW2NIXWMoYzEyKW4oW2NIXW4yKVtDSDJdW0NASF0oW09IXSlbQ0gyXU4zW0NIMl1bQ0gyXVtDSDJdW0NAQEhdKFtPSF0pW0NIMl0z

> <s_epik_cmdline>
J2VwaWtfcHl0aG9uJywgJy1waCcsICc3LjAnLCAnLXRuJywgJzgnLCAnLW1hJywgJzIwMCcsICctbWV0YWxfYmluZGluZycsICctaW1hZScsICc8aW5maWxlLm1hZT4nLCAnLW9tYWUnLCAnPG91dGZpbGUubWFlPic=

> <r_epik_Ionization_Penalty>
1.1857

> <r_epik_Ionization_Penalty_Charging>
1.1857

> <r_epik_Ionization_Penalty_Neutral>
1.75578e-06

> <r_epik_State_Penalty>
1.26953

> <r_epik_Charging_Adjusted_Penalty>
2.45524

> <i_epik_Tot_Q>
2

> <i_epik_Tot_abs_Q>
2

> <r_epik_Metal_State_Penalty>
5.28243

> <b_epik_Metal_Only>
0

> <s_lp_Force_Field>
OPLS_2005

> <r_lp_Energy>
33.096

> <b_lp_Chiralities_Consistent>
1

> <s_lp_Variant>
AV-unprocessed.smi:1487-9

> <Gold.Version>
5.8.1

> <Gold.Id.Protein>
6NUR|6NUR_protein|mol2

> <Gold.PLP.Fitness>
56.8912

> <Gold.PLP.PLP>
-39.0523

> <Gold.PLP.part.hbond>
-5.5190

> <Gold.PLP.part.metal>
0.0000

> <Gold.PLP.part.buried>
0.8123

> <Gold.PLP.part.nonpolar>
-34.8089

> <Gold.PLP.part.repulsive>
0.1897

> <Gold.PLP.ligand.clash>
0.0000

> <Gold.PLP.ligand.torsion>
0.3590

> <Gold.PLP.Chemscore.Hbond>
5.6950

> <Gold.PLP.Chemscore.CHOScore>
0.4727

> <Gold.PLP.Chemscore.Metal>
0.0000

> <Gold.Chemscore.Hbonds>
donor molecule, donor type, donor heavy atom, donor atom, acceptor molecule, acceptor atom, score
      L1  H     5    49       P1  8028  1.85
      L1  H    10    31       P1  7949  0.85
      L1  H    12    48       P1  7948  2.00
      L1  H    17    41       P1 10175  0.18
      P1  H 10752 10764       L1    10  0.28
      L1  C     6    27       P1  7957  0.10

> <Gold.PLP.Chemscore.Internal.Correction>
0.0536

> <Gold.Rescore>
     Score         DG    S(hbond)    S(metal)    S(lipo)     H(rot)  DE(clash)    DE(int)     intcor
     18.06     -19.08       2.84        0.00      94.97       2.74       0.33       0.69       ----

> <Gold.Chemscore.Fitness>
18.0612

> <Gold.Chemscore.DG>
-19.0818

> <Gold.Chemscore.ZeroCoef>
-5.4800

> <Gold.Chemscore.Hbond>
2.8444

> <Gold.Chemscore.Metal>
0.0000

> <Gold.Chemscore.Lipo>
94.9739

> <Gold.Chemscore.Internal_Hbond>
0.0000

> <Gold.Chemscore.DEClash>
0.3321

> <Gold.Chemscore.DEInternal>
0.6885

> <Gold.Chemscore.Rot>
2.7384

> <Gold.Chemscore.Internal.Correction>
   9.000000E+99

> <Gold.Chemscore.Hbonds>
donor molecule, donor type, donor heavy atom, donor atom, acceptor molecule, acceptor atom, score
      L1  H     5    49       P1  8028  0.89
      L1  H    10    31       P1  7949  0.16
      L1  H    12    48       P1  7948  1.00
      L1  H    17    41       P1 10175  0.10
      P1  H 10752 10764       L1    10  0.02

> <Gold.Chemscore.Hbond.Weighted>
-9.5002

> <Gold.Chemscore.Metal.Weighted>
-0.0000

> <Gold.Chemscore.Lipo.Weighted>
-11.1119

> <Gold.Chemscore.Internal_Hbond.Weighted>
0.0000

> <Gold.Chemscore.DEClash.Weighted>
0.3321

> <Gold.Chemscore.DEInternal.Weighted>
0.6885

> <Gold.Chemscore.Rot.Weighted>
7.0103

> <Gold.Chemscore.Internal.Correction.Weighted>
   9.000000E+99

> <Gold.Protein.RotatedTorsions>
[ 6907 6896 6895 6894 ] final   91.58 input  -60.11 | X-H torsion
[ 7974 7965 7964 7962 ] final  150.53 input  175.53 | X-H torsion
[ 8008 7997 7996 7995 ] final   86.86 input   59.86 | X-H torsion
[ 10167 10162 10161 10158 ] final  -96.85 input  -65.29 | X-H torsion
[ 10718 10713 10712 10709 ] final  -29.29 input   66.30 | X-H torsion
[ 10763 10752 10751 10750 ] final  -68.01 input  -60.55 | X-H torsion
[ 11005 11000 10999 10996 ] final -104.21 input  -57.11 | X-H torsion

> <Gold.Protein.ActiveResidues>
 VAL166  LYS551  ARG553  GLY616  TRP617  ASP618  TYR619  PRO620  LYS621  CYS622 
 ASP623  PHE694  ASN695  SER759  ASP760  ASP761  ALA762  ILE779  LEU786  VAL792 
 PHE793  MET794  SER795  GLU796  ALA797  LYS798  CYS799  TRP800  GLU811  SER814 

> <Gold.Protein.RotatedAtoms>
  152.5450  134.1635  159.8567 H   0  0  0  0  0  0  0  0  0  0  0  0  # atno 6907 bound_to 6896
  151.1651  133.4813  159.2601 H   0  0  0  0  0  0  0  0  0  0  0  0  # atno 6908 bound_to 6896
  151.1332  135.0152  159.8647 H   0  0  0  0  0  0  0  0  0  0  0  0  # atno 6909 bound_to 6896
  144.8357  139.6420  143.6039 H   0  0  0  0  0  0  0  0  0  0  0  0  # atno 7974 bound_to 7965
  155.9681  140.3388  155.6551 H   0  0  0  0  0  0  0  0  0  0  0  0  # atno 8008 bound_to 7997
  155.6710  140.0727  157.2538 H   0  0  0  0  0  0  0  0  0  0  0  0  # atno 8009 bound_to 7997
  154.4159  140.1691  156.1867 H   0  0  0  0  0  0  0  0  0  0  0  0  # atno 8010 bound_to 7997
  140.2895  143.3230  152.0360 H   0  0  0  0  0  0  0  0  0  0  0  0  # atno 10167 bound_to 10162
  156.4143  130.4414  149.7229 H   0  0  0  0  0  0  0  0  0  0  0  0  # atno 10718 bound_to 10713
  154.3828  135.6070  153.5800 H   0  0  0  0  0  0  0  0  0  0  0  0  # atno 10763 bound_to 10752
  152.9788  135.5865  154.4390 H   0  0  0  0  0  0  0  0  0  0  0  0  # atno 10764 bound_to 10752
  154.4162  135.2845  155.1983 H   0  0  0  0  0  0  0  0  0  0  0  0  # atno 10765 bound_to 10752
  141.1111  133.8704  157.1583 H   0  0  0  0  0  0  0  0  0  0  0  0  # atno 11005 bound_to 11000
  146.2656  139.6512  142.9331 LP  0  0  0  0  0  0  0  0  0  0  0  0  # atno 17320 bound_to 7965
  145.4799  141.0438  143.2651 LP  0  0  0  0  0  0  0  0  0  0  0  0  # atno 17321 bound_to 7965
  139.4941  144.6535  151.6625 LP  0  0  0  0  0  0  0  0  0  0  0  0  # atno 17342 bound_to 10162
  140.5744  144.0054  150.6233 LP  0  0  0  0  0  0  0  0  0  0  0  0  # atno 17343 bound_to 10162
  156.4196  130.7762  151.2778 LP  0  0  0  0  0  0  0  0  0  0  0  0  # atno 17370 bound_to 10713
  157.7507  131.0187  150.3636 LP  0  0  0  0  0  0  0  0  0  0  0  0  # atno 17371 bound_to 10713
  140.0005  135.0029  157.0179 LP  0  0  0  0  0  0  0  0  0  0  0  0  # atno 17394 bound_to 11000
  140.4773  134.1325  155.7211 LP  0  0  0  0  0  0  0  0  0  0  0  0  # atno 17395 bound_to 11000

$$$$
