AV-unprocessed.smi:2597|AV-procd|sdf|10175|dock2
  -GOLD-   2272014193D 1   1.00000     0.00000
 Structure written by MMmdl.
 30 31  0  0  0  0  0  0  0  0  1 V2000
  151.2572  144.4783  157.5343 N   0  0  0  0  0  0  0  0  0  0  0  0
  151.3400  143.4556  158.5628 C   0  0  2  0  0  0  0  0  0  0  0  0
  152.1318  144.0269  159.7548 C   0  0  0  0  0  0  0  0  0  0  0  0
  152.3376  142.9703  160.8507 C   0  0  0  0  0  0  0  0  0  0  0  0
  153.0279  141.7191  160.2883 C   0  0  0  0  0  0  0  0  0  0  0  0
  152.2323  141.1320  159.1126 C   0  0  0  0  0  0  0  0  0  0  0  0
  152.0100  142.1764  157.9980 C   0  0  1  0  0  0  0  0  0  0  0  0
  151.2554  141.5976  156.8925 N   0  0  0  0  0  0  0  0  0  0  0  0
  150.0205  141.9812  156.4113 C   0  0  0  0  0  0  0  0  0  0  0  0
  149.7922  141.1105  155.3835 C   0  0  0  0  0  0  0  0  0  0  0  0
  148.6093  141.0094  154.4700 C   0  0  0  0  0  0  0  0  0  0  0  0
  149.0604  141.3653  153.1810 O   0  0  0  0  0  0  0  0  0  0  0  0
  150.8849  140.2514  155.2754 N   0  0  0  0  0  0  0  0  0  0  0  0
  151.7575  140.5554  156.1836 N   0  0  0  0  0  0  0  0  0  0  0  0
  150.3269  143.2232  158.8935 H   0  0  0  0  0  0  0  0  0  0  0  0
  152.9908  142.4520  157.6060 H   0  0  0  0  0  0  0  0  0  0  0  0
  152.0034  144.3466  156.8658 H   0  0  0  0  0  0  0  0  0  0  0  0
  150.3915  144.3797  157.0236 H   0  0  0  0  0  0  0  0  0  0  0  0
  153.1054  144.3862  159.4177 H   0  0  0  0  0  0  0  0  0  0  0  0
  151.6116  144.8898  160.1727 H   0  0  0  0  0  0  0  0  0  0  0  0
  152.9314  143.3889  161.6634 H   0  0  0  0  0  0  0  0  0  0  0  0
  151.3734  142.6956  161.2805 H   0  0  0  0  0  0  0  0  0  0  0  0
  154.0362  141.9728  159.9587 H   0  0  0  0  0  0  0  0  0  0  0  0
  153.1376  140.9702  161.0733 H   0  0  0  0  0  0  0  0  0  0  0  0
  152.7586  140.2653  158.7111 H   0  0  0  0  0  0  0  0  0  0  0  0
  151.2726  140.7663  159.4802 H   0  0  0  0  0  0  0  0  0  0  0  0
  149.4397  142.7923  156.8243 H   0  0  0  0  0  0  0  0  0  0  0  0
  148.2091  139.9953  154.4514 H   0  0  0  0  0  0  0  0  0  0  0  0
  147.8051  141.6804  154.7741 H   0  0  0  0  0  0  0  0  0  0  0  0
  149.1477  140.5782  152.6658 H   0  0  0  0  0  0  0  0  0  0  0  0
  1  2  1  0  0  0  0
  1 17  1  0  0  0  0
  1 18  1  0  0  0  0
  2 15  1  0  0  0  0
  2  7  1  0  0  0  0
  2  3  1  0  0  0  0
  3  4  1  0  0  0  0
  3 19  1  0  0  0  0
  3 20  1  0  0  0  0
  4  5  1  0  0  0  0
  4 21  1  0  0  0  0
  4 22  1  0  0  0  0
  5  6  1  0  0  0  0
  5 23  1  0  0  0  0
  5 24  1  0  0  0  0
  6  7  1  0  0  0  0
  6 25  1  0  0  0  0
  6 26  1  0  0  0  0
  7 16  1  0  0  0  0
  7  8  1  0  0  0  0
  8 14  1  0  0  0  0
  8  9  1  0  0  0  0
  9 10  2  0  0  0  0
  9 27  1  0  0  0  0
 10 11  1  0  0  0  0
 10 13  1  0  0  0  0
 11 12  1  0  0  0  0
 11 28  1  0  0  0  0
 11 29  1  0  0  0  0
 12 30  1  0  0  0  0
 13 14  2  0  0  0  0
M  END
> <s_m_source_file>
AV-unprocessed.smi

> <i_m_source_file_index>
2597

> <i_lp_mmshare_version>
43012

> <i_f3d_flags>
0

> <s_epik_input>
W05IMl1bQ0BIXTFbQ0gyXVtDSDJdW0NIMl1bQ0gyXVtDQEhdMW4yW2NIXWMobm4yKVtDSDJdW09IXQ==

> <s_epik_cmdline>
J2VwaWtfcHl0aG9uJywgJy1waCcsICc3LjAnLCAnLXRuJywgJzgnLCAnLW1hJywgJzIwMCcsICctbWV0YWxfYmluZGluZycsICctaW1hZScsICc8aW5maWxlLm1hZT4nLCAnLW9tYWUnLCAnPG91dGZpbGUubWFlPic=

> <r_lp_tautomer_probability>
1

> <r_epik_Ionization_Penalty>
2.21303

> <r_epik_Ionization_Penalty_Charging>
0

> <r_epik_Ionization_Penalty_Neutral>
2.21303

> <r_epik_State_Penalty>
2.3573

> <r_epik_Charging_Adjusted_Penalty>
2.3573

> <i_epik_Tot_Q>
0

> <i_epik_Tot_abs_Q>
0

> <r_epik_Metal_State_Penalty>
2.35724

> <b_epik_Metal_Only>
0

> <s_lp_Force_Field>
OPLS_2005

> <r_lp_Energy>
13.4358

> <b_lp_Chiralities_Consistent>
1

> <s_lp_Variant>
AV-unprocessed.smi:2597-6

> <Gold.Version>
5.8.1

> <Gold.Id.Protein>
6NUR|6NUR_protein|mol2

> <Gold.PLP.Fitness>
44.7812

> <Gold.PLP.PLP>
-30.8235

> <Gold.PLP.part.hbond>
-4.6248

> <Gold.PLP.part.metal>
0.0000

> <Gold.PLP.part.buried>
-2.1134

> <Gold.PLP.part.nonpolar>
-23.1678

> <Gold.PLP.part.repulsive>
0.0357

> <Gold.PLP.ligand.clash>
0.0000

> <Gold.PLP.ligand.torsion>
0.0937

> <Gold.PLP.Chemscore.Hbond>
3.8160

> <Gold.PLP.Chemscore.CHOScore>
0.8916

> <Gold.PLP.Chemscore.Metal>
0.0000

> <Gold.Chemscore.Hbonds>
donor molecule, donor type, donor heavy atom, donor atom, acceptor molecule, acceptor atom, score
      L1  H     1    18       P1  8028  1.00
      L1  H    12    30       P1  7957  0.83
      P1  H  7989  7998       L1    13  1.00
      P1  H  8011  8017       L1    12  1.00
      L1  C     9    27       P1  8028  0.89

> <Gold.PLP.Chemscore.Internal.Correction>
0.0224

> <Gold.Rescore>
     Score         DG    S(hbond)    S(metal)    S(lipo)     H(rot)  DE(clash)    DE(int)     intcor
     17.52     -18.84       2.51        0.00      82.52       1.82       0.28       1.04       ----

> <Gold.Chemscore.Fitness>
17.5202

> <Gold.Chemscore.DG>
-18.8399

> <Gold.Chemscore.ZeroCoef>
-5.4800

> <Gold.Chemscore.Hbond>
2.5059

> <Gold.Chemscore.Metal>
0.0000

> <Gold.Chemscore.Lipo>
82.5228

> <Gold.Chemscore.Internal_Hbond>
0.0000

> <Gold.Chemscore.DEClash>
0.2839

> <Gold.Chemscore.DEInternal>
1.0358

> <Gold.Chemscore.Rot>
1.8222

> <Gold.Chemscore.Internal.Correction>
   9.000000E+99

> <Gold.Chemscore.Hbonds>
donor molecule, donor type, donor heavy atom, donor atom, acceptor molecule, acceptor atom, score
      L1  H     1    18       P1  8028  0.82
      L1  H    12    30       P1  7957  0.81
      P1  H  7989  7998       L1    13  0.14
      P1  H  8011  8017       L1    12  0.35

> <Gold.Chemscore.Hbond.Weighted>
-8.3696

> <Gold.Chemscore.Metal.Weighted>
-0.0000

> <Gold.Chemscore.Lipo.Weighted>
-9.6552

> <Gold.Chemscore.Internal_Hbond.Weighted>
0.0000

> <Gold.Chemscore.DEClash.Weighted>
0.2839

> <Gold.Chemscore.DEInternal.Weighted>
1.0358

> <Gold.Chemscore.Rot.Weighted>
4.6649

> <Gold.Chemscore.Internal.Correction.Weighted>
   9.000000E+99

> <Gold.Protein.RotatedTorsions>
[ 6907 6896 6895 6894 ] final  -54.37 input  -60.11 | X-H torsion
[ 7974 7965 7964 7962 ] final -153.12 input  175.53 | X-H torsion
[ 8008 7997 7996 7995 ] final   10.70 input   59.86 | X-H torsion
[ 10167 10162 10161 10158 ] final  178.28 input  -65.29 | X-H torsion
[ 10718 10713 10712 10709 ] final  -96.23 input   66.30 | X-H torsion
[ 10763 10752 10751 10750 ] final  -19.70 input  -60.55 | X-H torsion
[ 11005 11000 10999 10996 ] final -101.56 input  -57.11 | X-H torsion

> <Gold.Protein.ActiveResidues>
 VAL166  LYS551  ARG553  GLY616  TRP617  ASP618  TYR619  PRO620  LYS621  CYS622 
 ASP623  PHE694  ASN695  SER759  ASP760  ASP761  ALA762  ILE779  LEU786  VAL792 
 PHE793  MET794  SER795  GLU796  ALA797  LYS798  CYS799  TRP800  GLU811  SER814 

> <Gold.Protein.RotatedAtoms>
  150.8344  134.7611  159.6880 H   0  0  0  0  0  0  0  0  0  0  0  0  # atno 6907 bound_to 6896
  152.4443  134.5523  159.9880 H   0  0  0  0  0  0  0  0  0  0  0  0  # atno 6908 bound_to 6896
  151.5677  133.3356  159.3019 H   0  0  0  0  0  0  0  0  0  0  0  0  # atno 6909 bound_to 6896
  144.7757  140.4569  143.5875 H   0  0  0  0  0  0  0  0  0  0  0  0  # atno 7974 bound_to 7965
  154.7969  140.2845  155.5950 H   0  0  0  0  0  0  0  0  0  0  0  0  # atno 8008 bound_to 7997
  156.2972  140.2594  156.2758 H   0  0  0  0  0  0  0  0  0  0  0  0  # atno 8009 bound_to 7997
  154.9604  140.0377  157.2176 H   0  0  0  0  0  0  0  0  0  0  0  0  # atno 8010 bound_to 7997
  139.5287  144.2699  152.0637 H   0  0  0  0  0  0  0  0  0  0  0  0  # atno 10167 bound_to 10162
  156.0058  130.5142  150.6194 H   0  0  0  0  0  0  0  0  0  0  0  0  # atno 10718 bound_to 10713
  153.6088  135.6997  153.5355 H   0  0  0  0  0  0  0  0  0  0  0  0  # atno 10763 bound_to 10752
  153.3034  135.4122  155.1272 H   0  0  0  0  0  0  0  0  0  0  0  0  # atno 10764 bound_to 10752
  154.8567  135.3654  154.5626 H   0  0  0  0  0  0  0  0  0  0  0  0  # atno 10765 bound_to 10752
  141.1226  133.8487  157.1247 H   0  0  0  0  0  0  0  0  0  0  0  0  # atno 11005 bound_to 11000
  145.6192  139.1522  143.3032 LP  0  0  0  0  0  0  0  0  0  0  0  0  # atno 17320 bound_to 7965
  146.1935  140.6303  142.9134 LP  0  0  0  0  0  0  0  0  0  0  0  0  # atno 17321 bound_to 7965
  140.2159  144.4515  150.6364 LP  0  0  0  0  0  0  0  0  0  0  0  0  # atno 17342 bound_to 10162
  140.6450  143.2211  151.6206 LP  0  0  0  0  0  0  0  0  0  0  0  0  # atno 17343 bound_to 10162
  157.4013  131.0810  151.1306 LP  0  0  0  0  0  0  0  0  0  0  0  0  # atno 17370 bound_to 10713
  157.1967  130.6376  149.5724 LP  0  0  0  0  0  0  0  0  0  0  0  0  # atno 17371 bound_to 10713
  140.0196  134.9952  157.0564 LP  0  0  0  0  0  0  0  0  0  0  0  0  # atno 17394 bound_to 11000
  140.4462  134.1629  155.7177 LP  0  0  0  0  0  0  0  0  0  0  0  0  # atno 17395 bound_to 11000

$$$$
