AV-unprocessed.smi:1792|AV-procd|sdf|7222|dock2
  -GOLD-   22720 8463D 1   1.00000     0.00000
 Structure written by MMmdl.
 42 43  0  0  0  0  0  0  0  0  1 V2000
  145.4912  139.4309  156.0973 C   0  0  0  0  0  0  0  0  0  0  0  0
  146.4136  138.5778  155.1935 C   0  0  0  0  0  0  0  0  0  0  0  0
  146.4285  137.1416  155.7770 C   0  0  0  0  0  0  0  0  0  0  0  0
  145.7279  138.4719  153.8009 C   0  0  0  0  0  0  0  0  0  0  0  0
  146.1609  137.2833  153.0680 N   0  0  0  0  0  0  0  0  0  0  0  0
  145.3715  136.2793  152.6631 C   0  0  0  0  0  0  0  0  0  0  0  0
  144.1524  136.2573  152.8344 O   0  0  0  0  0  0  0  0  0  0  0  0
  146.0902  135.3166  152.0594 N   0  0  0  0  0  0  0  0  0  0  0  0
  145.6319  134.0876  151.5149 C   0  0  0  0  0  0  0  0  0  0  0  0
  144.2601  134.0586  151.1764 C   0  0  0  0  0  0  0  0  0  0  0  0
  143.7071  132.8871  150.6241 C   0  0  0  0  0  0  0  0  0  0  0  0
  144.5409  131.7722  150.4264 C   0  0  0  0  0  0  0  0  0  0  0  0
  145.8949  131.8836  150.7926 C   0  0  0  0  0  0  0  0  0  0  0  0
  146.4273  133.0060  151.3209 N   0  0  0  0  0  0  0  0  0  0  0  0
  147.7954  139.1262  155.0867 N   0  0  0  0  0  0  0  0  0  0  0  0
  147.8729  140.5278  154.6592 C   0  0  0  0  0  0  0  0  0  0  0  0
  149.3150  141.0628  154.6845 C   0  0  0  0  0  0  0  0  0  0  0  0
  150.1462  140.2432  153.8718 O   0  0  0  0  0  0  0  0  0  0  0  0
  150.1469  138.8853  154.2939 C   0  0  0  0  0  0  0  0  0  0  0  0
  148.7123  138.3323  154.2602 C   0  0  0  0  0  0  0  0  0  0  0  0
  144.4918  138.9977  156.1548 H   0  0  0  0  0  0  0  0  0  0  0  0
  145.3706  140.4466  155.7211 H   0  0  0  0  0  0  0  0  0  0  0  0
  145.8622  139.4977  157.1197 H   0  0  0  0  0  0  0  0  0  0  0  0
  145.4504  136.6656  155.6950 H   0  0  0  0  0  0  0  0  0  0  0  0
  146.6841  137.1280  156.8364 H   0  0  0  0  0  0  0  0  0  0  0  0
  147.1432  136.5027  155.2568 H   0  0  0  0  0  0  0  0  0  0  0  0
  144.6434  138.4738  153.9258 H   0  0  0  0  0  0  0  0  0  0  0  0
  145.9369  139.3475  153.1867 H   0  0  0  0  0  0  0  0  0  0  0  0
  147.1509  137.2110  152.8839 H   0  0  0  0  0  0  0  0  0  0  0  0
  147.0847  135.4752  151.9945 H   0  0  0  0  0  0  0  0  0  0  0  0
  143.6338  134.9246  151.3348 H   0  0  0  0  0  0  0  0  0  0  0  0
  142.6616  132.8461  150.3569 H   0  0  0  0  0  0  0  0  0  0  0  0
  144.1532  130.8561  150.0060 H   0  0  0  0  0  0  0  0  0  0  0  0
  146.5688  131.0506  150.6583 H   0  0  0  0  0  0  0  0  0  0  0  0
  147.4761  140.6371  153.6498 H   0  0  0  0  0  0  0  0  0  0  0  0
  147.2734  141.1658  155.3061 H   0  0  0  0  0  0  0  0  0  0  0  0
  149.3456  142.0851  154.3073 H   0  0  0  0  0  0  0  0  0  0  0  0
  149.7005  141.0861  155.7049 H   0  0  0  0  0  0  0  0  0  0  0  0
  150.7914  138.3069  153.6320 H   0  0  0  0  0  0  0  0  0  0  0  0
  150.5670  138.8080  155.2980 H   0  0  0  0  0  0  0  0  0  0  0  0
  148.7491  137.2991  154.6003 H   0  0  0  0  0  0  0  0  0  0  0  0
  148.3682  138.3133  153.2261 H   0  0  0  0  0  0  0  0  0  0  0  0
  1  2  1  0  0  0  0
  1 21  1  0  0  0  0
  1 22  1  0  0  0  0
  1 23  1  0  0  0  0
  2  3  1  0  0  0  0
  2  4  1  0  0  0  0
  2 15  1  0  0  0  0
  3 24  1  0  0  0  0
  3 25  1  0  0  0  0
  3 26  1  0  0  0  0
  4  5  1  0  0  0  0
  4 27  1  0  0  0  0
  4 28  1  0  0  0  0
  5  6  1  0  0  0  0
  5 29  1  0  0  0  0
  6  7  2  0  0  0  0
  6  8  1  0  0  0  0
  8  9  1  0  0  0  0
  8 30  1  0  0  0  0
  9 14  1  0  0  0  0
  9 10  2  0  0  0  0
 10 11  1  0  0  0  0
 10 31  1  0  0  0  0
 11 12  2  0  0  0  0
 11 32  1  0  0  0  0
 12 13  1  0  0  0  0
 12 33  1  0  0  0  0
 13 14  2  0  0  0  0
 13 34  1  0  0  0  0
 15 20  1  0  0  0  0
 15 16  1  0  0  0  0
 16 17  1  0  0  0  0
 16 35  1  0  0  0  0
 16 36  1  0  0  0  0
 17 18  1  0  0  0  0
 17 37  1  0  0  0  0
 17 38  1  0  0  0  0
 18 19  1  0  0  0  0
 19 20  1  0  0  0  0
 19 39  1  0  0  0  0
 19 40  1  0  0  0  0
 20 41  1  0  0  0  0
 20 42  1  0  0  0  0
M  END
> <s_m_source_file>
AV-unprocessed.smi

> <i_m_source_file_index>
1792

> <i_lp_mmshare_version>
43012

> <i_f3d_flags>
0

> <s_epik_input>
W0NIMl0xW0NIMl1PW0NIMl1bQ0gyXU4xQyhbQ0gzXSkoW0NIM10pW0NIMl1bTkhdQyg9TylbTkhdYzJbY0hdW2NIXVtjSF1bY0hdbjI=

> <s_epik_cmdline>
J2VwaWtfcHl0aG9uJywgJy1waCcsICc3LjAnLCAnLXRuJywgJzgnLCAnLW1hJywgJzIwMCcsICctbWV0YWxfYmluZGluZycsICctaW1hZScsICc8aW5maWxlLm1hZT4nLCAnLW9tYWUnLCAnPG91dGZpbGUubWFlPic=

> <r_epik_Ionization_Penalty>
0.26604

> <r_epik_Ionization_Penalty_Charging>
0

> <r_epik_Ionization_Penalty_Neutral>
0.26604

> <r_epik_State_Penalty>
0.257924

> <r_epik_Charging_Adjusted_Penalty>
0.257924

> <i_epik_Tot_Q>
0

> <i_epik_Tot_abs_Q>
0

> <r_epik_Metal_State_Penalty>
0.257923

> <b_epik_Metal_Only>
0

> <s_lp_Force_Field>
OPLS_2005

> <r_lp_Energy>
43.4175

> <b_lp_Chiralities_Consistent>
1

> <s_lp_Variant>
AV-unprocessed.smi:1792-1

> <Gold.Version>
5.8.1

> <Gold.Id.Protein>
6NUR|6NUR_protein|mol2

> <Gold.PLP.Fitness>
37.6588

> <Gold.PLP.PLP>
-27.6505

> <Gold.PLP.part.hbond>
-2.8067

> <Gold.PLP.part.metal>
0.0000

> <Gold.PLP.part.buried>
-2.1175

> <Gold.PLP.part.nonpolar>
-24.3890

> <Gold.PLP.part.repulsive>
1.8708

> <Gold.PLP.ligand.clash>
0.8736

> <Gold.PLP.ligand.torsion>
0.4471

> <Gold.PLP.Chemscore.Hbond>
2.9040

> <Gold.PLP.Chemscore.CHOScore>
1.0000

> <Gold.PLP.Chemscore.Metal>
0.0000

> <Gold.Chemscore.Hbonds>
donor molecule, donor type, donor heavy atom, donor atom, acceptor molecule, acceptor atom, score
      L1  H     5    29       P1  7948  0.36
      L1  H     8    30       P1  7948  1.00
      P1  H  7989  7998       L1    18  0.82
      L1  C    13    34       P1 10747  1.00

> <Gold.PLP.Chemscore.Internal.Correction>
0.0640

> <Gold.Rescore>
     Score         DG    S(hbond)    S(metal)    S(lipo)     H(rot)  DE(clash)    DE(int)     intcor
     15.77     -18.82       2.81        0.00      66.62       1.50       0.10       2.95       ----

> <Gold.Chemscore.Fitness>
15.7657

> <Gold.Chemscore.DG>
-18.8154

> <Gold.Chemscore.ZeroCoef>
-5.4800

> <Gold.Chemscore.Hbond>
2.8121

> <Gold.Chemscore.Metal>
0.0000

> <Gold.Chemscore.Lipo>
66.6207

> <Gold.Chemscore.Internal_Hbond>
0.0000

> <Gold.Chemscore.DEClash>
0.0998

> <Gold.Chemscore.DEInternal>
2.9499

> <Gold.Chemscore.Rot>
1.5045

> <Gold.Chemscore.Internal.Correction>
   9.000000E+99

> <Gold.Chemscore.Hbonds>
donor molecule, donor type, donor heavy atom, donor atom, acceptor molecule, acceptor atom, score
      L1  H     5    29       P1  7948  0.34
      L1  H     8    30       P1  7948  0.97
      P1  H  7989  7998       L1    18  0.70

> <Gold.Chemscore.Hbond.Weighted>
-9.3923

> <Gold.Chemscore.Metal.Weighted>
-0.0000

> <Gold.Chemscore.Lipo.Weighted>
-7.7946

> <Gold.Chemscore.Internal_Hbond.Weighted>
0.0000

> <Gold.Chemscore.DEClash.Weighted>
0.0998

> <Gold.Chemscore.DEInternal.Weighted>
2.9499

> <Gold.Chemscore.Rot.Weighted>
3.8515

> <Gold.Chemscore.Internal.Correction.Weighted>
   9.000000E+99

> <Gold.Protein.RotatedTorsions>
[ 6907 6896 6895 6894 ] final    8.72 input  -60.11 | X-H torsion
[ 7974 7965 7964 7962 ] final -173.32 input  175.53 | X-H torsion
[ 8008 7997 7996 7995 ] final   -2.80 input   59.86 | X-H torsion
[ 10167 10162 10161 10158 ] final  119.48 input  -65.29 | X-H torsion
[ 10718 10713 10712 10709 ] final   81.27 input   66.30 | X-H torsion
[ 10763 10752 10751 10750 ] final   -7.33 input  -60.55 | X-H torsion
[ 11005 11000 10999 10996 ] final   13.37 input  -57.11 | X-H torsion

> <Gold.Protein.ActiveResidues>
 VAL166  LYS551  ARG553  GLY616  TRP617  ASP618  TYR619  PRO620  LYS621  CYS622 
 ASP623  PHE694  ASN695  SER759  ASP760  ASP761  ALA762  ILE779  LEU786  VAL792 
 PHE793  MET794  SER795  GLU796  ALA797  LYS798  CYS799  TRP800  GLU811  SER814 

> <Gold.Protein.RotatedAtoms>
  151.7106  135.0913  160.0266 H   0  0  0  0  0  0  0  0  0  0  0  0  # atno 6907 bound_to 6896
  152.3664  133.6358  159.6062 H   0  0  0  0  0  0  0  0  0  0  0  0  # atno 6908 bound_to 6896
  150.7641  133.9257  159.3453 H   0  0  0  0  0  0  0  0  0  0  0  0  # atno 6909 bound_to 6896
  144.7139  140.1639  143.6373 H   0  0  0  0  0  0  0  0  0  0  0  0  # atno 7974 bound_to 7965
  154.6318  140.2525  155.7425 H   0  0  0  0  0  0  0  0  0  0  0  0  # atno 8008 bound_to 7997
  156.2483  140.2905  156.0592 H   0  0  0  0  0  0  0  0  0  0  0  0  # atno 8009 bound_to 7997
  155.1734  140.0387  157.2858 H   0  0  0  0  0  0  0  0  0  0  0  0  # atno 8010 bound_to 7997
  139.6043  144.7066  151.2989 H   0  0  0  0  0  0  0  0  0  0  0  0  # atno 10167 bound_to 10162
  157.6828  130.9996  150.2201 H   0  0  0  0  0  0  0  0  0  0  0  0  # atno 10718 bound_to 10713
  153.4248  135.7011  153.6270 H   0  0  0  0  0  0  0  0  0  0  0  0  # atno 10763 bound_to 10752
  153.4709  135.3715  155.2391 H   0  0  0  0  0  0  0  0  0  0  0  0  # atno 10764 bound_to 10752
  154.8723  135.4043  154.3622 H   0  0  0  0  0  0  0  0  0  0  0  0  # atno 10765 bound_to 10752
  140.4815  134.0931  155.7752 H   0  0  0  0  0  0  0  0  0  0  0  0  # atno 11005 bound_to 11000
  145.9005  139.2428  143.1496 LP  0  0  0  0  0  0  0  0  0  0  0  0  # atno 17320 bound_to 7965
  145.9815  140.8678  143.0112 LP  0  0  0  0  0  0  0  0  0  0  0  0  # atno 17321 bound_to 7965
  140.7273  143.6965  150.7879 LP  0  0  0  0  0  0  0  0  0  0  0  0  # atno 17342 bound_to 10162
  140.0548  143.5213  152.2656 LP  0  0  0  0  0  0  0  0  0  0  0  0  # atno 17343 bound_to 10162
  156.2854  130.3739  149.7893 LP  0  0  0  0  0  0  0  0  0  0  0  0  # atno 17370 bound_to 10713
  156.5569  130.8366  151.3317 LP  0  0  0  0  0  0  0  0  0  0  0  0  # atno 17371 bound_to 10713
  141.1529  133.8936  157.2052 LP  0  0  0  0  0  0  0  0  0  0  0  0  # atno 17394 bound_to 11000
  139.9824  135.0094  156.9780 LP  0  0  0  0  0  0  0  0  0  0  0  0  # atno 17395 bound_to 11000

$$$$
