AV-unprocessed.smi:1762|AV-procd|sdf|7122|dock5
  -GOLD-   22720 8353D 1   1.00000     0.00000
 Structure written by MMmdl.
 52 53  0  0  0  0  0  0  0  0  3 V2000
  146.8273  130.8692  153.0222 C   0  0  0  0  0  0  0  0  0  0  0  0
  146.1364  132.1640  152.5811 C   0  0  1  0  0  0  0  0  0  0  0  0
  147.1096  133.3627  152.5698 C   0  0  0  0  0  0  0  0  0  0  0  0
  146.4473  134.5979  152.0586 N   0  3  2  0  0  0  0  0  0  0  0  0
  145.5079  135.2621  153.0293 C   0  0  1  0  0  0  0  0  0  0  0  0
  146.1232  135.3042  154.4494 C   0  0  0  0  0  0  0  0  0  0  0  0
  145.4771  134.8220  155.3862 O   0  0  0  0  0  0  0  0  0  0  0  0
  147.3343  135.9267  154.4462 N   0  5  0  0  0  0  0  0  0  0  0  0
  148.1882  136.0324  155.6258 C   0  0  0  0  0  0  0  0  0  0  0  0
  149.6689  135.8670  155.2206 C   0  0  0  0  0  0  0  0  0  0  0  0
  150.4710  137.1645  155.2456 C   0  0  0  0  0  0  0  0  0  0  0  0
  149.8457  138.3906  155.5687 C   0  0  0  0  0  0  0  0  0  0  0  0
  150.6234  139.5644  155.5745 C   0  0  0  0  0  0  0  0  0  0  0  0
  151.9916  139.4739  155.2552 C   0  0  0  0  0  0  0  0  0  0  0  0
  152.5229  138.2079  154.9392 C   0  0  0  0  0  0  0  0  0  0  0  0
  151.7862  137.0764  154.9285 N   0  0  0  0  0  0  0  0  0  0  0  0
  145.0147  136.6801  152.5822 C   0  0  0  0  0  0  0  0  0  0  0  0
  146.1424  137.7043  152.3374 C   0  0  0  0  0  0  0  0  0  0  0  0
  143.9525  137.2755  153.5276 C   0  0  0  0  0  0  0  0  0  0  0  0
  145.8963  134.2980  150.7088 C   0  0  0  0  0  0  0  0  0  0  0  0
  144.9292  133.0970  150.7549 C   0  0  1  0  0  0  0  0  0  0  0  0
  144.3966  132.7352  149.3645 C   0  0  0  0  0  0  0  0  0  0  0  0
  145.6260  131.9647  151.2661 O   0  0  0  0  0  0  0  0  0  0  0  0
  147.2318  130.9660  154.0302 H   0  0  0  0  0  0  0  0  0  0  0  0
  147.6495  130.6118  152.3539 H   0  0  0  0  0  0  0  0  0  0  0  0
  146.1258  130.0347  153.0251 H   0  0  0  0  0  0  0  0  0  0  0  0
  145.3074  132.3523  153.2642 H   0  0  0  0  0  0  0  0  0  0  0  0
  147.5507  133.5059  153.5555 H   0  0  0  0  0  0  0  0  0  0  0  0
  147.9502  133.1350  151.9127 H   0  0  0  0  0  0  0  0  0  0  0  0
  144.6092  134.6443  153.0593 H   0  0  0  0  0  0  0  0  0  0  0  0
  148.0618  136.9954  156.1220 H   0  0  0  0  0  0  0  0  0  0  0  0
  147.9382  135.2759  156.3708 H   0  0  0  0  0  0  0  0  0  0  0  0
  150.1537  135.1478  155.8828 H   0  0  0  0  0  0  0  0  0  0  0  0
  149.7312  135.4413  154.2182 H   0  0  0  0  0  0  0  0  0  0  0  0
  148.7939  138.4290  155.8120 H   0  0  0  0  0  0  0  0  0  0  0  0
  150.1783  140.5172  155.8204 H   0  0  0  0  0  0  0  0  0  0  0  0
  152.6186  140.3531  155.2524 H   0  0  0  0  0  0  0  0  0  0  0  0
  153.5678  138.1011  154.6880 H   0  0  0  0  0  0  0  0  0  0  0  0
  144.4835  136.5574  151.6394 H   0  0  0  0  0  0  0  0  0  0  0  0
  146.6397  137.9898  153.2641 H   0  0  0  0  0  0  0  0  0  0  0  0
  145.7436  138.6172  151.8946 H   0  0  0  0  0  0  0  0  0  0  0  0
  146.9028  137.3218  151.6575 H   0  0  0  0  0  0  0  0  0  0  0  0
  144.3702  137.5365  154.5005 H   0  0  0  0  0  0  0  0  0  0  0  0
  143.1353  136.5728  153.6933 H   0  0  0  0  0  0  0  0  0  0  0  0
  143.5213  138.1841  153.1064 H   0  0  0  0  0  0  0  0  0  0  0  0
  145.4313  135.1648  150.2446 H   0  0  0  0  0  0  0  0  0  0  0  0
  146.7341  134.0527  150.0544 H   0  0  0  0  0  0  0  0  0  0  0  0
  144.0777  133.3205  151.3992 H   0  0  0  0  0  0  0  0  0  0  0  0
  143.8498  133.5696  148.9245 H   0  0  0  0  0  0  0  0  0  0  0  0
  143.7177  131.8838  149.4170 H   0  0  0  0  0  0  0  0  0  0  0  0
  145.2086  132.4719  148.6859 H   0  0  0  0  0  0  0  0  0  0  0  0
  147.1844  135.2746  151.9203 H   0  0  0  0  0  0  0  0  0  0  0  0
  1  2  1  0  0  0  0
  1 24  1  0  0  0  0
  1 25  1  0  0  0  0
  1 26  1  0  0  0  0
  2 23  1  0  0  0  0
  2  3  1  0  0  0  0
  2 27  1  0  0  0  0
  3  4  1  0  0  0  0
  3 28  1  0  0  0  0
  3 29  1  0  0  0  0
  4  5  1  0  0  0  0
  4 20  1  0  0  0  0
  4 52  1  0  0  0  0
  5  6  1  0  0  0  0
  5 17  1  0  0  0  0
  5 30  1  0  0  0  0
  6  7  2  0  0  0  0
  6  8  1  0  0  0  0
  8  9  1  0  0  0  0
  9 10  1  0  0  0  0
  9 31  1  0  0  0  0
  9 32  1  0  0  0  0
 10 11  1  0  0  0  0
 10 33  1  0  0  0  0
 10 34  1  0  0  0  0
 11 16  1  0  0  0  0
 11 12  2  0  0  0  0
 12 13  1  0  0  0  0
 12 35  1  0  0  0  0
 13 14  2  0  0  0  0
 13 36  1  0  0  0  0
 14 15  1  0  0  0  0
 14 37  1  0  0  0  0
 15 16  2  0  0  0  0
 15 38  1  0  0  0  0
 17 18  1  0  0  0  0
 17 19  1  0  0  0  0
 17 39  1  0  0  0  0
 18 40  1  0  0  0  0
 18 41  1  0  0  0  0
 18 42  1  0  0  0  0
 19 43  1  0  0  0  0
 19 44  1  0  0  0  0
 19 45  1  0  0  0  0
 20 21  1  0  0  0  0
 20 46  1  0  0  0  0
 20 47  1  0  0  0  0
 21 22  1  0  0  0  0
 21 23  1  0  0  0  0
 21 48  1  0  0  0  0
 22 49  1  0  0  0  0
 22 50  1  0  0  0  0
 22 51  1  0  0  0  0
M  CHG  1   4   1
M  CHG  1   8  -1
M  END
> <s_m_source_file>
AV-unprocessed.smi

> <i_m_source_file_index>
1762

> <i_lp_mmshare_version>
43012

> <i_f3d_flags>
0

> <s_epik_input>
W0NIM11bQ0BASF0xW0NIMl1OKFtDSDJdW0NASF0oTzEpW0NIM10pW0NAQEhdKFtDSF0oW0NIM10pW0NIM10pQyg9TylbTkhdW0NIMl1bQ0gyXWMyW2NIXVtjSF1bY0hdW2NIXW4y

> <s_epik_cmdline>
J2VwaWtfcHl0aG9uJywgJy1waCcsICc3LjAnLCAnLXRuJywgJzgnLCAnLW1hJywgJzIwMCcsICctbWV0YWxfYmluZGluZycsICctaW1hZScsICc8aW5maWxlLm1hZT4nLCAnLW9tYWUnLCAnPG91dGZpbGUubWFlPic=

> <r_epik_Ionization_Penalty>
7.82966

> <r_epik_Ionization_Penalty_Charging>
7.7461

> <r_epik_Ionization_Penalty_Neutral>
0.0835571

> <r_epik_State_Penalty>
8.52273

> <r_epik_Charging_Adjusted_Penalty>
16.2688

> <i_epik_Tot_Q>
0

> <i_epik_Tot_abs_Q>
2

> <r_epik_Metal_State_Penalty>
4.47451

> <b_epik_Metal_Only>
1

> <s_lp_Force_Field>
OPLS_2005

> <r_lp_Energy>
22.3574

> <b_lp_Chiralities_Consistent>
1

> <s_lp_Variant>
AV-unprocessed.smi:1762-24

> <Gold.Version>
5.8.1

> <Gold.Id.Protein>
6NUR|6NUR_protein|mol2

> <Gold.PLP.Fitness>
40.3713

> <Gold.PLP.PLP>
-32.6325

> <Gold.PLP.part.hbond>
-2.0000

> <Gold.PLP.part.metal>
0.0000

> <Gold.PLP.part.buried>
-3.0698

> <Gold.PLP.part.nonpolar>
-29.0130

> <Gold.PLP.part.repulsive>
1.3048

> <Gold.PLP.ligand.clash>
0.0000

> <Gold.PLP.ligand.torsion>
0.8063

> <Gold.PLP.Chemscore.Hbond>
3.0000

> <Gold.PLP.Chemscore.CHOScore>
0.0000

> <Gold.PLP.Chemscore.Metal>
0.0000

> <Gold.Chemscore.Hbonds>
donor molecule, donor type, donor heavy atom, donor atom, acceptor molecule, acceptor atom, score
      L1  H     4    52       P1  7948  2.00
      P1  H 10752 10765       L1    16  1.00

> <Gold.PLP.Chemscore.Internal.Correction>
0.3512

> <Gold.Rescore>
     Score         DG    S(hbond)    S(metal)    S(lipo)     H(rot)  DE(clash)    DE(int)     intcor
     16.22     -18.14       1.73        0.00      93.73       1.60       0.09       1.83       ----

> <Gold.Chemscore.Fitness>
16.2203

> <Gold.Chemscore.DG>
-18.1405

> <Gold.Chemscore.ZeroCoef>
-5.4800

> <Gold.Chemscore.Hbond>
1.7345

> <Gold.Chemscore.Metal>
0.0000

> <Gold.Chemscore.Lipo>
93.7297

> <Gold.Chemscore.Internal_Hbond>
0.0000

> <Gold.Chemscore.DEClash>
0.0939

> <Gold.Chemscore.DEInternal>
1.8264

> <Gold.Chemscore.Rot>
1.6012

> <Gold.Chemscore.Internal.Correction>
   9.000000E+99

> <Gold.Chemscore.Hbonds>
donor molecule, donor type, donor heavy atom, donor atom, acceptor molecule, acceptor atom, score
      L1  H     4    52       P1  7948  0.97
      P1  H 10752 10765       L1    16  0.63

> <Gold.Chemscore.Hbond.Weighted>
-5.7931

> <Gold.Chemscore.Metal.Weighted>
-0.0000

> <Gold.Chemscore.Lipo.Weighted>
-10.9664

> <Gold.Chemscore.Internal_Hbond.Weighted>
0.0000

> <Gold.Chemscore.DEClash.Weighted>
0.0939

> <Gold.Chemscore.DEInternal.Weighted>
1.8264

> <Gold.Chemscore.Rot.Weighted>
4.0990

> <Gold.Chemscore.Internal.Correction.Weighted>
   9.000000E+99

> <Gold.Protein.RotatedTorsions>
[ 6907 6896 6895 6894 ] final  137.66 input  -60.11 | X-H torsion
[ 7974 7965 7964 7962 ] final  -45.58 input  175.53 | X-H torsion
[ 8008 7997 7996 7995 ] final -121.60 input   59.86 | X-H torsion
[ 10167 10162 10161 10158 ] final -146.75 input  -65.29 | X-H torsion
[ 10718 10713 10712 10709 ] final  157.01 input   66.30 | X-H torsion
[ 10763 10752 10751 10750 ] final  171.48 input  -60.55 | X-H torsion
[ 11005 11000 10999 10996 ] final  132.40 input  -57.11 | X-H torsion

> <Gold.Protein.ActiveResidues>
 VAL166  LYS551  ARG553  GLY616  TRP617  ASP618  TYR619  PRO620  LYS621  CYS622 
 ASP623  PHE694  ASN695  SER759  ASP760  ASP761  ALA762  ILE779  LEU786  VAL792 
 PHE793  MET794  SER795  GLU796  ALA797  LYS798  CYS799  TRP800  GLU811  SER814 

> <Gold.Protein.RotatedAtoms>
  152.2755  133.5422  159.5465 H   0  0  0  0  0  0  0  0  0  0  0  0  # atno 6907 bound_to 6896
  150.7175  134.0637  159.3849 H   0  0  0  0  0  0  0  0  0  0  0  0  # atno 6908 bound_to 6896
  151.8550  135.0544  160.0514 H   0  0  0  0  0  0  0  0  0  0  0  0  # atno 6909 bound_to 6896
  145.9806  140.7288  142.9365 H   0  0  0  0  0  0  0  0  0  0  0  0  # atno 7974 bound_to 7965
  155.1506  140.0403  157.2820 H   0  0  0  0  0  0  0  0  0  0  0  0  # atno 8008 bound_to 7997
  154.6407  140.2546  155.7299 H   0  0  0  0  0  0  0  0  0  0  0  0  # atno 8009 bound_to 7997
  156.2531  140.2856  156.0799 H   0  0  0  0  0  0  0  0  0  0  0  0  # atno 8010 bound_to 7997
  139.7685  143.8273  152.2620 H   0  0  0  0  0  0  0  0  0  0  0  0  # atno 10167 bound_to 10162
  157.1973  131.0668  151.2045 H   0  0  0  0  0  0  0  0  0  0  0  0  # atno 10718 bound_to 10713
  154.4125  135.2756  155.2027 H   0  0  0  0  0  0  0  0  0  0  0  0  # atno 10763 bound_to 10752
  154.4007  135.6045  153.5899 H   0  0  0  0  0  0  0  0  0  0  0  0  # atno 10764 bound_to 10752
  152.9831  135.5925  154.4409 H   0  0  0  0  0  0  0  0  0  0  0  0  # atno 10765 bound_to 10752
  139.9788  134.9555  156.9577 H   0  0  0  0  0  0  0  0  0  0  0  0  # atno 11005 bound_to 11000
  144.6860  140.2901  143.7279 LP  0  0  0  0  0  0  0  0  0  0  0  0  # atno 17320 bound_to 7965
  145.7775  139.1879  143.2177 LP  0  0  0  0  0  0  0  0  0  0  0  0  # atno 17321 bound_to 7965
  139.8300  144.7258  150.9463 LP  0  0  0  0  0  0  0  0  0  0  0  0  # atno 17342 bound_to 10162
  140.7812  143.4079  151.1041 LP  0  0  0  0  0  0  0  0  0  0  0  0  # atno 17343 bound_to 10162
  157.3802  130.7227  149.6625 LP  0  0  0  0  0  0  0  0  0  0  0  0  # atno 17370 bound_to 10713
  155.9704  130.4174  150.4280 LP  0  0  0  0  0  0  0  0  0  0  0  0  # atno 17371 bound_to 10713
  140.5139  134.0975  155.7276 LP  0  0  0  0  0  0  0  0  0  0  0  0  # atno 17394 bound_to 11000
  141.1462  133.9050  157.2208 LP  0  0  0  0  0  0  0  0  0  0  0  0  # atno 17395 bound_to 11000

$$$$
