AV-unprocessed.smi:281|AV-procd|sdf|2113|dock1
  -GOLD-   2262021403D 1   1.00000     0.00000
 Structure written by MMmdl.
 55 59  0  0  0  0  0  0  0  0  1 V2000
  152.7483  142.3683  159.0816 C   0  0  0  0  0  0  0  0  0  0  0  0
  153.0513  141.0221  159.7462 C   0  0  2  0  0  0  0  0  0  0  0  0
  154.1915  141.1255  160.7710 C   0  0  0  0  0  0  0  0  0  0  0  0
  154.4900  139.7999  161.2974 N   0  0  0  0  0  0  0  0  0  0  0  0
  155.2207  139.6992  162.4356 C   0  0  0  0  0  0  0  0  0  0  0  0
  155.9267  138.5659  162.6935 N   0  0  0  0  0  0  0  0  0  0  0  0
  156.6424  138.4582  163.8168 C   0  0  0  0  0  0  0  0  0  0  0  0
  156.7938  139.3487  164.7990 N   0  0  0  0  0  0  0  0  0  0  0  0
  156.0972  140.4926  164.5416 C   0  0  0  0  0  0  0  0  0  0  0  0
  155.2911  140.7474  163.3961 C   0  0  0  0  0  0  0  0  0  0  0  0
  154.7435  142.0221  163.4779 N   0  0  0  0  0  0  0  0  0  0  0  0
  155.1892  142.4886  164.6120 C   0  0  0  0  0  0  0  0  0  0  0  0
  156.0185  141.6406  165.3115 N   0  0  0  0  0  0  0  0  0  0  0  0
  156.6538  141.9055  166.5940 C   0  0  0  0  0  0  0  0  0  0  0  0
  155.6643  142.3473  167.6994 C   0  0  1  0  0  0  0  0  0  0  0  0
  154.7343  141.3032  167.9247 O   0  0  0  0  0  0  0  0  0  0  0  0
  156.3702  142.6769  169.0165 C   0  0  0  0  0  0  0  0  0  0  0  0
  156.2574  144.1934  169.1137 C   0  0  0  0  0  0  0  0  0  0  0  0
  154.9908  144.4468  168.5335 O   0  0  0  0  0  0  0  0  0  0  0  0
  154.9007  143.6447  167.3649 C   0  0  0  0  0  0  0  0  0  0  0  0
  154.8216  138.8382  160.2536 C   0  0  0  0  0  0  0  0  0  0  0  0
  153.7008  138.7692  159.1875 C   0  0  1  0  0  0  0  0  0  0  0  0
  154.1466  137.9278  158.0025 C   0  0  0  0  0  0  0  0  0  0  0  0
  153.8627  136.5039  158.4698 C   0  0  0  0  0  0  0  0  0  0  0  0
  152.7693  136.6030  159.3769 O   0  0  0  0  0  0  0  0  0  0  0  0
  152.4664  137.9678  159.6612 C   0  0  2  0  0  0  0  0  0  0  0  0
  151.1584  138.2765  158.9070 C   0  0  0  0  0  0  0  0  0  0  0  0
  153.4042  140.0904  158.7216 O   0  0  0  0  0  0  0  0  0  0  0  0
  152.4572  143.1143  159.8213 H   0  0  0  0  0  0  0  0  0  0  0  0
  151.9311  142.2734  158.3661 H   0  0  0  0  0  0  0  0  0  0  0  0
  153.6182  142.7488  158.5455 H   0  0  0  0  0  0  0  0  0  0  0  0
  152.1513  140.6826  160.2587 H   0  0  0  0  0  0  0  0  0  0  0  0
  155.0857  141.5432  160.3057 H   0  0  0  0  0  0  0  0  0  0  0  0
  153.8986  141.7962  161.5802 H   0  0  0  0  0  0  0  0  0  0  0  0
  157.1695  137.5246  163.9475 H   0  0  0  0  0  0  0  0  0  0  0  0
  154.9284  143.4745  164.9686 H   0  0  0  0  0  0  0  0  0  0  0  0
  157.1874  141.0052  166.9017 H   0  0  0  0  0  0  0  0  0  0  0  0
  157.4145  142.6736  166.4479 H   0  0  0  0  0  0  0  0  0  0  0  0
  154.8312  141.0053  168.8164 H   0  0  0  0  0  0  0  0  0  0  0  0
  155.8496  142.2280  169.8641 H   0  0  0  0  0  0  0  0  0  0  0  0
  157.4055  142.3363  169.0532 H   0  0  0  0  0  0  0  0  0  0  0  0
  156.3133  144.5562  170.1403 H   0  0  0  0  0  0  0  0  0  0  0  0
  157.0374  144.6836  168.5285 H   0  0  0  0  0  0  0  0  0  0  0  0
  155.3868  144.1909  166.5559 H   0  0  0  0  0  0  0  0  0  0  0  0
  153.8628  143.4796  167.0728 H   0  0  0  0  0  0  0  0  0  0  0  0
  155.7546  139.1595  159.7881 H   0  0  0  0  0  0  0  0  0  0  0  0
  155.0098  137.8478  160.6657 H   0  0  0  0  0  0  0  0  0  0  0  0
  153.5352  138.1539  157.1279 H   0  0  0  0  0  0  0  0  0  0  0  0
  155.1885  138.0840  157.7210 H   0  0  0  0  0  0  0  0  0  0  0  0
  153.6305  135.8351  157.6407 H   0  0  0  0  0  0  0  0  0  0  0  0
  154.7216  136.0945  159.0023 H   0  0  0  0  0  0  0  0  0  0  0  0
  152.2971  138.0934  160.7313 H   0  0  0  0  0  0  0  0  0  0  0  0
  150.8228  139.2996  159.0685 H   0  0  0  0  0  0  0  0  0  0  0  0
  150.3582  137.6187  159.2460 H   0  0  0  0  0  0  0  0  0  0  0  0
  151.2663  138.1307  157.8324 H   0  0  0  0  0  0  0  0  0  0  0  0
  1  2  1  0  0  0  0
  1 29  1  0  0  0  0
  1 30  1  0  0  0  0
  1 31  1  0  0  0  0
  2 28  1  0  0  0  0
  2  3  1  0  0  0  0
  2 32  1  0  0  0  0
  3  4  1  0  0  0  0
  3 33  1  0  0  0  0
  3 34  1  0  0  0  0
  4  5  1  0  0  0  0
  4 21  1  0  0  0  0
  5 10  1  0  0  0  0
  5  6  2  0  0  0  0
  6  7  1  0  0  0  0
  7  8  2  0  0  0  0
  7 35  1  0  0  0  0
  8  9  1  0  0  0  0
  9 13  1  0  0  0  0
  9 10  2  0  0  0  0
 10 11  1  0  0  0  0
 11 12  2  0  0  0  0
 12 13  1  0  0  0  0
 12 36  1  0  0  0  0
 13 14  1  0  0  0  0
 14 15  1  0  0  0  0
 14 37  1  0  0  0  0
 14 38  1  0  0  0  0
 15 20  1  0  0  0  0
 15 16  1  0  0  0  0
 15 17  1  0  0  0  0
 16 39  1  0  0  0  0
 17 18  1  0  0  0  0
 17 40  1  0  0  0  0
 17 41  1  0  0  0  0
 18 19  1  0  0  0  0
 18 42  1  0  0  0  0
 18 43  1  0  0  0  0
 19 20  1  0  0  0  0
 20 44  1  0  0  0  0
 20 45  1  0  0  0  0
 21 22  1  0  0  0  0
 21 46  1  0  0  0  0
 21 47  1  0  0  0  0
 22 26  1  0  0  0  0
 22 23  1  0  0  0  0
 22 28  1  0  0  0  0
 23 24  1  0  0  0  0
 23 48  1  0  0  0  0
 23 49  1  0  0  0  0
 24 25  1  0  0  0  0
 24 50  1  0  0  0  0
 24 51  1  0  0  0  0
 25 26  1  0  0  0  0
 26 27  1  0  0  0  0
 26 52  1  0  0  0  0
 27 53  1  0  0  0  0
 27 54  1  0  0  0  0
 27 55  1  0  0  0  0
M  END
> <s_m_source_file>
AV-unprocessed.smi

> <i_m_source_file_index>
281

> <i_lp_mmshare_version>
43012

> <i_f3d_flags>
0

> <s_epik_input>
W0NIM11bQ0BASF0xT1tDSDJdW0NIMl1bQ0BAXTEyW0NIMl1OKFtDSDJdW0NASF0oTzIpW0NIM10pYyhuW2NIXW4zKWMoYzM0KW5bY0hdbjRbQ0gyXVtDQEBdNShbT0hdKVtDSDJdW0NIMl1PW0NIMl01

> <s_epik_cmdline>
J2VwaWtfcHl0aG9uJywgJy1waCcsICc3LjAnLCAnLXRuJywgJzgnLCAnLW1hJywgJzIwMCcsICctbWV0YWxfYmluZGluZycsICctaW1hZScsICc8aW5maWxlLm1hZT4nLCAnLW9tYWUnLCAnPG91dGZpbGUubWFlPic=

> <r_lp_tautomer_probability>
1

> <r_epik_Ionization_Penalty>
0.00571331

> <r_epik_Ionization_Penalty_Charging>
0

> <r_epik_Ionization_Penalty_Neutral>
0.00571331

> <r_epik_State_Penalty>
0.00399586

> <r_epik_Charging_Adjusted_Penalty>
0.00399586

> <i_epik_Tot_Q>
0

> <i_epik_Tot_abs_Q>
0

> <r_epik_Metal_State_Penalty>
-0

> <b_epik_Metal_Only>
0

> <s_lp_Force_Field>
OPLS_2005

> <r_lp_Energy>
53.7875

> <b_lp_Chiralities_Consistent>
1

> <s_lp_Variant>
AV-unprocessed.smi:281-13

> <Gold.Version>
5.8.1

> <Gold.Id.Protein>
6NUR|6NUR_protein|mol2

> <Gold.PLP.Fitness>
43.2776

> <Gold.PLP.PLP>
-38.3498

> <Gold.PLP.part.hbond>
-3.7342

> <Gold.PLP.part.metal>
0.0000

> <Gold.PLP.part.buried>
-2.9194

> <Gold.PLP.part.nonpolar>
-30.8180

> <Gold.PLP.part.repulsive>
0.1926

> <Gold.PLP.ligand.clash>
0.0087

> <Gold.PLP.ligand.torsion>
0.6122

> <Gold.PLP.Chemscore.Hbond>
1.9342

> <Gold.PLP.Chemscore.CHOScore>
0.0000

> <Gold.PLP.Chemscore.Metal>
0.0000

> <Gold.Chemscore.Hbonds>
donor molecule, donor type, donor heavy atom, donor atom, acceptor molecule, acceptor atom, score
      P1  H  6896  6909       L1    25  1.00
      P1  H  7997  8009       L1    28  0.79

> <Gold.PLP.Chemscore.Internal.Correction>
0.3584

> <Gold.Rescore>
     Score         DG    S(hbond)    S(metal)    S(lipo)     H(rot)  DE(clash)    DE(int)     intcor
     12.02     -15.89       1.47        0.00      92.71       2.09       2.03       1.83       ----

> <Gold.Chemscore.Fitness>
12.0233

> <Gold.Chemscore.DG>
-15.8906

> <Gold.Chemscore.ZeroCoef>
-5.4800

> <Gold.Chemscore.Hbond>
1.4732

> <Gold.Chemscore.Metal>
0.0000

> <Gold.Chemscore.Lipo>
92.7127

> <Gold.Chemscore.Internal_Hbond>
0.0000

> <Gold.Chemscore.DEClash>
2.0325

> <Gold.Chemscore.DEInternal>
1.8348

> <Gold.Chemscore.Rot>
2.0927

> <Gold.Chemscore.Internal.Correction>
   9.000000E+99

> <Gold.Chemscore.Hbonds>
donor molecule, donor type, donor heavy atom, donor atom, acceptor molecule, acceptor atom, score
      P1  H  6896  6909       L1    25  0.95
      P1  H  7997  8009       L1    28  0.12

> <Gold.Chemscore.Hbond.Weighted>
-4.9206

> <Gold.Chemscore.Metal.Weighted>
-0.0000

> <Gold.Chemscore.Lipo.Weighted>
-10.8474

> <Gold.Chemscore.Internal_Hbond.Weighted>
0.0000

> <Gold.Chemscore.DEClash.Weighted>
2.0325

> <Gold.Chemscore.DEInternal.Weighted>
1.8348

> <Gold.Chemscore.Rot.Weighted>
5.3573

> <Gold.Chemscore.Internal.Correction.Weighted>
   9.000000E+99

> <Gold.Protein.RotatedTorsions>
[ 6907 6896 6895 6894 ] final  137.25 input  -60.11 | X-H torsion
[ 7974 7965 7964 7962 ] final   98.68 input  175.53 | X-H torsion
[ 8008 7997 7996 7995 ] final  151.57 input   59.86 | X-H torsion
[ 10167 10162 10161 10158 ] final  -15.21 input  -65.29 | X-H torsion
[ 10718 10713 10712 10709 ] final  169.12 input   66.30 | X-H torsion
[ 10763 10752 10751 10750 ] final   84.96 input  -60.55 | X-H torsion
[ 11005 11000 10999 10996 ] final  177.45 input  -57.11 | X-H torsion

> <Gold.Protein.ActiveResidues>
 VAL166  LYS551  ARG553  GLY616  TRP617  ASP618  TYR619  PRO620  LYS621  CYS622 
 ASP623  PHE694  ASN695  SER759  ASP760  ASP761  ALA762  ILE779  LEU786  VAL792 
 PHE793  MET794  SER795  GLU796  ALA797  LYS798  CYS799  TRP800  GLU811  SER814 

> <Gold.Protein.RotatedAtoms>
  152.2802  133.5464  159.5492 H   0  0  0  0  0  0  0  0  0  0  0  0  # atno 6907 bound_to 6896
  150.7193  134.0574  159.3828 H   0  0  0  0  0  0  0  0  0  0  0  0  # atno 6908 bound_to 6896
  151.8485  135.0566  160.0507 H   0  0  0  0  0  0  0  0  0  0  0  0  # atno 6909 bound_to 6896
  145.4089  139.2336  143.3259 H   0  0  0  0  0  0  0  0  0  0  0  0  # atno 7974 bound_to 7965
  156.2668  140.2044  156.6197 H   0  0  0  0  0  0  0  0  0  0  0  0  # atno 8008 bound_to 7997
  154.6766  140.0544  157.0246 H   0  0  0  0  0  0  0  0  0  0  0  0  # atno 8009 bound_to 7997
  155.1060  140.3211  155.4537 H   0  0  0  0  0  0  0  0  0  0  0  0  # atno 8010 bound_to 7997
  140.7214  143.5242  150.9597 H   0  0  0  0  0  0  0  0  0  0  0  0  # atno 10167 bound_to 10162
  157.0272  131.0249  151.2756 H   0  0  0  0  0  0  0  0  0  0  0  0  # atno 10718 bound_to 10713
  153.1430  135.4635  154.9524 H   0  0  0  0  0  0  0  0  0  0  0  0  # atno 10763 bound_to 10752
  154.7763  135.3174  154.8088 H   0  0  0  0  0  0  0  0  0  0  0  0  # atno 10764 bound_to 10752
  153.8607  135.6913  153.4837 H   0  0  0  0  0  0  0  0  0  0  0  0  # atno 10765 bound_to 10752
  140.3842  134.6920  157.4469 H   0  0  0  0  0  0  0  0  0  0  0  0  # atno 11005 bound_to 11000
  146.2714  140.4798  142.8813 LP  0  0  0  0  0  0  0  0  0  0  0  0  # atno 17320 bound_to 7965
  144.8322  140.6725  143.6283 LP  0  0  0  0  0  0  0  0  0  0  0  0  # atno 17321 bound_to 7965
  139.8960  143.6894  152.3138 LP  0  0  0  0  0  0  0  0  0  0  0  0  # atno 17342 bound_to 10162
  139.7227  144.7599  151.0929 LP  0  0  0  0  0  0  0  0  0  0  0  0  # atno 17343 bound_to 10162
  157.5205  130.7995  149.7804 LP  0  0  0  0  0  0  0  0  0  0  0  0  # atno 17370 bound_to 10713
  156.0082  130.3845  150.2357 LP  0  0  0  0  0  0  0  0  0  0  0  0  # atno 17371 bound_to 10713
  140.0455  134.6205  155.8926 LP  0  0  0  0  0  0  0  0  0  0  0  0  # atno 17394 bound_to 11000
  141.1913  133.6571  156.5451 LP  0  0  0  0  0  0  0  0  0  0  0  0  # atno 17395 bound_to 11000

$$$$
