AV-unprocessed.smi:691|AV-procd|sdf|3364|dock4
  -GOLD-   22720 0343D 1   1.00000     0.00000
 Structure written by MMmdl.
 37 38  0  0  0  0  0  0  0  0  1 V2000
  148.2004  139.5667  156.2047 C   0  0  0  0  0  0  0  0  0  0  0  0
  148.7476  139.5645  154.7536 C   0  0  1  0  0  0  0  0  0  0  0  0
  150.0248  138.6939  154.6754 C   0  0  0  0  0  0  0  0  0  0  0  0
  150.2997  138.2790  153.3521 O   0  0  0  0  0  0  0  0  0  0  0  0
  147.6584  139.0587  153.7900 C   0  0  0  0  0  0  0  0  0  0  0  0
  146.7801  140.2714  153.4961 C   0  0  0  0  0  0  0  0  0  0  0  0
  147.7417  141.4607  153.4898 C   0  0  0  0  0  0  0  0  0  0  0  0
  149.0209  141.0023  154.2189 C   0  0  1  0  0  0  0  0  0  0  0  0
  149.3948  141.9627  155.2580 N   0  0  0  0  0  0  0  0  0  0  0  0
  150.3338  141.7672  156.1946 C   0  0  0  0  0  0  0  0  0  0  0  0
  150.9970  140.7347  156.2870 O   0  0  0  0  0  0  0  0  0  0  0  0
  150.4280  142.8286  157.0135 N   0  0  0  0  0  0  0  0  0  0  0  0
  151.3098  143.0303  158.1101 C   0  0  0  0  0  0  0  0  0  0  0  0
  151.5606  144.2854  158.7165 C   0  0  0  0  0  0  0  0  0  0  0  0
  152.4431  144.3466  159.8124 C   0  0  0  0  0  0  0  0  0  0  0  0
  153.0368  143.1529  160.2659 C   0  0  0  0  0  0  0  0  0  0  0  0
  152.7985  141.9488  159.7051 N   0  0  0  0  0  0  0  0  0  0  0  0
  151.9509  141.8977  158.6555 C   0  0  0  0  0  0  0  0  0  0  0  0
  147.8603  138.5750  156.5040 H   0  0  0  0  0  0  0  0  0  0  0  0
  147.3541  140.2443  156.3196 H   0  0  0  0  0  0  0  0  0  0  0  0
  148.9638  139.8710  156.9215 H   0  0  0  0  0  0  0  0  0  0  0  0
  150.8916  139.2425  155.0459 H   0  0  0  0  0  0  0  0  0  0  0  0
  149.9227  137.8072  155.3012 H   0  0  0  0  0  0  0  0  0  0  0  0
  150.2198  139.0276  152.7807 H   0  0  0  0  0  0  0  0  0  0  0  0
  148.1142  138.7204  152.8580 H   0  0  0  0  0  0  0  0  0  0  0  0
  147.0871  138.2207  154.1907 H   0  0  0  0  0  0  0  0  0  0  0  0
  146.2353  140.1712  152.5570 H   0  0  0  0  0  0  0  0  0  0  0  0
  146.0431  140.3957  154.2903 H   0  0  0  0  0  0  0  0  0  0  0  0
  147.9832  141.7462  152.4651 H   0  0  0  0  0  0  0  0  0  0  0  0
  147.2761  142.3284  153.9598 H   0  0  0  0  0  0  0  0  0  0  0  0
  149.8097  140.9618  153.4649 H   0  0  0  0  0  0  0  0  0  0  0  0
  148.8930  142.8385  155.2647 H   0  0  0  0  0  0  0  0  0  0  0  0
  149.7574  143.5673  156.8594 H   0  0  0  0  0  0  0  0  0  0  0  0
  151.0885  145.1944  158.3783 H   0  0  0  0  0  0  0  0  0  0  0  0
  152.6560  145.2875  160.2977 H   0  0  0  0  0  0  0  0  0  0  0  0
  153.7167  143.1648  161.1047 H   0  0  0  0  0  0  0  0  0  0  0  0
  151.7818  140.9173  158.2348 H   0  0  0  0  0  0  0  0  0  0  0  0
  1  2  1  0  0  0  0
  1 19  1  0  0  0  0
  1 20  1  0  0  0  0
  1 21  1  0  0  0  0
  2  8  1  0  0  0  0
  2  3  1  0  0  0  0
  2  5  1  0  0  0  0
  3  4  1  0  0  0  0
  3 22  1  0  0  0  0
  3 23  1  0  0  0  0
  4 24  1  0  0  0  0
  5  6  1  0  0  0  0
  5 25  1  0  0  0  0
  5 26  1  0  0  0  0
  6  7  1  0  0  0  0
  6 27  1  0  0  0  0
  6 28  1  0  0  0  0
  7  8  1  0  0  0  0
  7 29  1  0  0  0  0
  7 30  1  0  0  0  0
  8  9  1  0  0  0  0
  8 31  1  0  0  0  0
  9 10  1  0  0  0  0
  9 32  1  0  0  0  0
 10 11  2  0  0  0  0
 10 12  1  0  0  0  0
 12 13  1  0  0  0  0
 12 33  1  0  0  0  0
 13 18  1  0  0  0  0
 13 14  2  0  0  0  0
 14 15  1  0  0  0  0
 14 34  1  0  0  0  0
 15 16  2  0  0  0  0
 15 35  1  0  0  0  0
 16 17  1  0  0  0  0
 16 36  1  0  0  0  0
 17 18  2  0  0  0  0
 18 37  1  0  0  0  0
M  END
> <s_m_source_file>
AV-unprocessed.smi

> <i_m_source_file_index>
691

> <i_lp_mmshare_version>
43012

> <i_f3d_flags>
0

> <s_epik_input>
W09IXVtDSDJdW0NAXTEoW0NIM10pW0NIMl1bQ0gyXVtDSDJdW0NASF0xW05IXUMoPU8pW05IXWMyW2NIXVtjSF1bY0hdbltjSF0y

> <s_epik_cmdline>
J2VwaWtfcHl0aG9uJywgJy1waCcsICc3LjAnLCAnLXRuJywgJzgnLCAnLW1hJywgJzIwMCcsICctbWV0YWxfYmluZGluZycsICctaW1hZScsICc8aW5maWxlLm1hZT4nLCAnLW9tYWUnLCAnPG91dGZpbGUubWFlPic=

> <r_epik_Ionization_Penalty>
0.00496828

> <r_epik_Ionization_Penalty_Charging>
0

> <r_epik_Ionization_Penalty_Neutral>
0.00496828

> <r_epik_State_Penalty>
0.00358054

> <r_epik_Charging_Adjusted_Penalty>
0.00358054

> <i_epik_Tot_Q>
0

> <i_epik_Tot_abs_Q>
0

> <r_epik_Metal_State_Penalty>
-0

> <b_epik_Metal_Only>
0

> <s_lp_Force_Field>
OPLS_2005

> <r_lp_Energy>
28.9923

> <b_lp_Chiralities_Consistent>
1

> <s_lp_Variant>
AV-unprocessed.smi:691-1

> <Gold.Version>
5.8.1

> <Gold.Id.Protein>
6NUR|6NUR_protein|mol2

> <Gold.PLP.Fitness>
44.1800

> <Gold.PLP.PLP>
-36.1091

> <Gold.PLP.part.hbond>
-4.8493

> <Gold.PLP.part.metal>
0.0000

> <Gold.PLP.part.buried>
-3.8946

> <Gold.PLP.part.nonpolar>
-27.9050

> <Gold.PLP.part.repulsive>
0.2276

> <Gold.PLP.ligand.clash>
0.0000

> <Gold.PLP.ligand.torsion>
0.4358

> <Gold.PLP.Chemscore.Hbond>
2.9760

> <Gold.PLP.Chemscore.CHOScore>
0.0000

> <Gold.PLP.Chemscore.Metal>
0.0000

> <Gold.Chemscore.Hbonds>
donor molecule, donor type, donor heavy atom, donor atom, acceptor molecule, acceptor atom, score
      L1  H     4    24       P1  7957  1.00
      L1  H     9    32       P1  8028  0.99
      L1  H    12    33       P1  8028  0.99

> <Gold.PLP.Chemscore.Internal.Correction>
0.0145

> <Gold.Rescore>
     Score         DG    S(hbond)    S(metal)    S(lipo)     H(rot)  DE(clash)    DE(int)     intcor
     17.04     -21.54       2.77        0.00      97.34       1.78       0.46       4.04       ----

> <Gold.Chemscore.Fitness>
17.0419

> <Gold.Chemscore.DG>
-21.5413

> <Gold.Chemscore.ZeroCoef>
-5.4800

> <Gold.Chemscore.Hbond>
2.7661

> <Gold.Chemscore.Metal>
0.0000

> <Gold.Chemscore.Lipo>
97.3439

> <Gold.Chemscore.Internal_Hbond>
0.0000

> <Gold.Chemscore.DEClash>
0.4605

> <Gold.Chemscore.DEInternal>
4.0388

> <Gold.Chemscore.Rot>
1.7838

> <Gold.Chemscore.Internal.Correction>
   9.000000E+99

> <Gold.Chemscore.Hbonds>
donor molecule, donor type, donor heavy atom, donor atom, acceptor molecule, acceptor atom, score
      L1  H     4    24       P1  7957  0.58
      L1  H     9    32       P1  8028  0.93
      L1  H    12    33       P1  8028  0.93

> <Gold.Chemscore.Hbond.Weighted>
-9.2386

> <Gold.Chemscore.Metal.Weighted>
-0.0000

> <Gold.Chemscore.Lipo.Weighted>
-11.3892

> <Gold.Chemscore.Internal_Hbond.Weighted>
0.0000

> <Gold.Chemscore.DEClash.Weighted>
0.4605

> <Gold.Chemscore.DEInternal.Weighted>
4.0388

> <Gold.Chemscore.Rot.Weighted>
4.5666

> <Gold.Chemscore.Internal.Correction.Weighted>
   9.000000E+99

> <Gold.Protein.RotatedTorsions>
[ 6907 6896 6895 6894 ] final  136.95 input  -60.11 | X-H torsion
[ 7974 7965 7964 7962 ] final -155.69 input  175.53 | X-H torsion
[ 8008 7997 7996 7995 ] final   63.11 input   59.86 | X-H torsion
[ 10167 10162 10161 10158 ] final -142.13 input  -65.29 | X-H torsion
[ 10718 10713 10712 10709 ] final    2.24 input   66.30 | X-H torsion
[ 10763 10752 10751 10750 ] final  -21.03 input  -60.55 | X-H torsion
[ 11005 11000 10999 10996 ] final -169.42 input  -57.11 | X-H torsion

> <Gold.Protein.ActiveResidues>
 VAL166  LYS551  ARG553  GLY616  TRP617  ASP618  TYR619  PRO620  LYS621  CYS622 
 ASP623  PHE694  ASN695  SER759  ASP760  ASP761  ALA762  ILE779  LEU786  VAL792 
 PHE793  MET794  SER795  GLU796  ALA797  LYS798  CYS799  TRP800  GLU811  SER814 

> <Gold.Protein.RotatedAtoms>
  152.2836  133.5493  159.5512 H   0  0  0  0  0  0  0  0  0  0  0  0  # atno 6907 bound_to 6896
  150.7206  134.0529  159.3813 H   0  0  0  0  0  0  0  0  0  0  0  0  # atno 6908 bound_to 6896
  151.8439  135.0581  160.0502 H   0  0  0  0  0  0  0  0  0  0  0  0  # atno 6909 bound_to 6896
  144.7628  140.4214  143.5964 H   0  0  0  0  0  0  0  0  0  0  0  0  # atno 7974 bound_to 7965
  155.6250  140.3496  155.4664 H   0  0  0  0  0  0  0  0  0  0  0  0  # atno 8008 bound_to 7997
  156.0049  140.1221  157.0535 H   0  0  0  0  0  0  0  0  0  0  0  0  # atno 8009 bound_to 7997
  154.4261  140.1093  156.5735 H   0  0  0  0  0  0  0  0  0  0  0  0  # atno 8010 bound_to 7997
  139.8118  143.7693  152.2663 H   0  0  0  0  0  0  0  0  0  0  0  0  # atno 10167 bound_to 10162
  156.8601  130.5584  149.5663 H   0  0  0  0  0  0  0  0  0  0  0  0  # atno 10718 bound_to 10713
  153.6297  135.6989  153.5280 H   0  0  0  0  0  0  0  0  0  0  0  0  # atno 10763 bound_to 10752
  153.2869  135.4168  155.1131 H   0  0  0  0  0  0  0  0  0  0  0  0  # atno 10764 bound_to 10752
  154.8525  135.3616  154.5840 H   0  0  0  0  0  0  0  0  0  0  0  0  # atno 10765 bound_to 10752
  140.5309  134.5617  157.5074 H   0  0  0  0  0  0  0  0  0  0  0  0  # atno 11005 bound_to 11000
  145.6564  139.1574  143.2833 LP  0  0  0  0  0  0  0  0  0  0  0  0  # atno 17320 bound_to 7965
  146.1708  140.6649  142.9234 LP  0  0  0  0  0  0  0  0  0  0  0  0  # atno 17321 bound_to 7965
  139.7844  144.7433  151.0043 LP  0  0  0  0  0  0  0  0  0  0  0  0  # atno 17342 bound_to 10162
  140.7817  143.4508  151.0416 LP  0  0  0  0  0  0  0  0  0  0  0  0  # atno 17343 bound_to 10162
  156.0781  130.5798  150.9512 LP  0  0  0  0  0  0  0  0  0  0  0  0  # atno 17370 bound_to 10713
  157.6255  131.0926  150.8543 LP  0  0  0  0  0  0  0  0  0  0  0  0  # atno 17371 bound_to 10713
  139.9555  134.7543  156.0352 LP  0  0  0  0  0  0  0  0  0  0  0  0  # atno 17394 bound_to 11000
  141.1282  133.6593  156.3392 LP  0  0  0  0  0  0  0  0  0  0  0  0  # atno 17395 bound_to 11000

$$$$
