AV-unprocessed.smi:2990|AV-procd|sdf|11393|dock2
  -GOLD-   2272016313D 1   1.00000     0.00000
 Structure written by MMmdl.
 39 41  0  0  0  0  0  0  0  0  1 V2000
  151.7815  139.5481  154.9797 C   0  0  0  0  0  0  0  0  0  0  0  0
  151.8087  140.4419  156.1788 C   0  0  0  0  0  0  0  0  0  0  0  0
  152.6111  140.2125  157.2183 N   0  0  0  0  0  0  0  0  0  0  0  0
  152.3024  141.2520  158.0743 C   0  0  0  0  0  0  0  0  0  0  0  0
  152.8128  141.5710  159.3532 C   0  0  0  0  0  0  0  0  0  0  0  0
  152.3364  142.7007  160.0502 C   0  0  0  0  0  0  0  0  0  0  0  0
  151.3463  143.5265  159.4797 C   0  0  0  0  0  0  0  0  0  0  0  0
  150.8256  143.2278  158.2058 C   0  0  0  0  0  0  0  0  0  0  0  0
  151.3031  142.0981  157.5146 C   0  0  0  0  0  0  0  0  0  0  0  0
  151.0125  141.5349  156.2756 N   0  0  0  0  0  0  0  0  0  0  0  0
  150.0469  142.0287  155.3029 C   0  0  0  0  0  0  0  0  0  0  0  0
  149.1208  140.9191  154.7643 C   0  0  2  0  0  0  0  0  0  0  0  0
  149.2539  140.8195  153.3603 O   0  0  0  0  0  0  0  0  0  0  0  0
  147.6431  141.1785  155.0917 C   0  0  0  0  0  0  0  0  0  0  0  0
  147.1281  142.1441  154.1842 O   0  0  0  0  0  0  0  0  0  0  0  0
  145.9730  142.8125  154.5295 C   0  0  0  0  0  0  0  0  0  0  0  0
  145.4851  143.7647  153.6103 C   0  0  0  0  0  0  0  0  0  0  0  0
  144.3119  144.4948  153.8822 C   0  0  0  0  0  0  0  0  0  0  0  0
  143.6116  144.2786  155.0833 C   0  0  0  0  0  0  0  0  0  0  0  0
  144.0870  143.3321  156.0097 C   0  0  0  0  0  0  0  0  0  0  0  0
  145.2601  142.6015  155.7373 C   0  0  0  0  0  0  0  0  0  0  0  0
  152.5153  138.7481  155.0836 H   0  0  0  0  0  0  0  0  0  0  0  0
  152.0167  140.1125  154.0778 H   0  0  0  0  0  0  0  0  0  0  0  0
  150.7960  139.0957  154.8684 H   0  0  0  0  0  0  0  0  0  0  0  0
  153.5713  140.9447  159.7988 H   0  0  0  0  0  0  0  0  0  0  0  0
  152.7325  142.9344  161.0276 H   0  0  0  0  0  0  0  0  0  0  0  0
  150.9865  144.3896  160.0206 H   0  0  0  0  0  0  0  0  0  0  0  0
  150.0693  143.8600  157.7649 H   0  0  0  0  0  0  0  0  0  0  0  0
  149.4603  142.8231  155.7647 H   0  0  0  0  0  0  0  0  0  0  0  0
  150.5906  142.4971  154.4817 H   0  0  0  0  0  0  0  0  0  0  0  0
  149.4120  139.9574  155.1875 H   0  0  0  0  0  0  0  0  0  0  0  0
  149.2491  139.9046  153.1233 H   0  0  0  0  0  0  0  0  0  0  0  0
  147.0769  140.2475  155.0275 H   0  0  0  0  0  0  0  0  0  0  0  0
  147.5560  141.5585  156.1112 H   0  0  0  0  0  0  0  0  0  0  0  0
  146.0164  143.9371  152.6859 H   0  0  0  0  0  0  0  0  0  0  0  0
  143.9499  145.2208  153.1693 H   0  0  0  0  0  0  0  0  0  0  0  0
  142.7121  144.8378  155.2939 H   0  0  0  0  0  0  0  0  0  0  0  0
  143.5512  143.1658  156.9325 H   0  0  0  0  0  0  0  0  0  0  0  0
  145.5931  141.8854  156.4731 H   0  0  0  0  0  0  0  0  0  0  0  0
  1  2  1  0  0  0  0
  1 22  1  0  0  0  0
  1 23  1  0  0  0  0
  1 24  1  0  0  0  0
  2 10  1  0  0  0  0
  2  3  2  0  0  0  0
  3  4  1  0  0  0  0
  4  9  2  0  0  0  0
  4  5  1  0  0  0  0
  5  6  2  0  0  0  0
  5 25  1  0  0  0  0
  6  7  1  0  0  0  0
  6 26  1  0  0  0  0
  7  8  2  0  0  0  0
  7 27  1  0  0  0  0
  8  9  1  0  0  0  0
  8 28  1  0  0  0  0
  9 10  1  0  0  0  0
 10 11  1  0  0  0  0
 11 12  1  0  0  0  0
 11 29  1  0  0  0  0
 11 30  1  0  0  0  0
 12 13  1  0  0  0  0
 12 14  1  0  0  0  0
 12 31  1  0  0  0  0
 13 32  1  0  0  0  0
 14 15  1  0  0  0  0
 14 33  1  0  0  0  0
 14 34  1  0  0  0  0
 15 16  1  0  0  0  0
 16 21  1  0  0  0  0
 16 17  2  0  0  0  0
 17 18  1  0  0  0  0
 17 35  1  0  0  0  0
 18 19  2  0  0  0  0
 18 36  1  0  0  0  0
 19 20  1  0  0  0  0
 19 37  1  0  0  0  0
 20 21  2  0  0  0  0
 20 38  1  0  0  0  0
 21 39  1  0  0  0  0
M  END
> <s_m_source_file>
AV-unprocessed.smi

> <i_m_source_file_index>
2990

> <i_lp_mmshare_version>
43012

> <i_f3d_flags>
0

> <s_epik_input>
W2NIXTFbY0hdW2NIXVtjSF1jKGMxMiluKGMobjIpW0NIM10pW0NIMl1bQ0BIXShbT0hdKVtDSDJdT2MzW2NIXVtjSF1bY0hdW2NIXVtjSF0z

> <s_epik_cmdline>
J2VwaWtfcHl0aG9uJywgJy1waCcsICc3LjAnLCAnLXRuJywgJzgnLCAnLW1hJywgJzIwMCcsICctbWV0YWxfYmluZGluZycsICctaW1hZScsICc8aW5maWxlLm1hZT4nLCAnLW9tYWUnLCAnPG91dGZpbGUubWFlPic=

> <r_lp_tautomer_probability>
1

> <r_epik_Ionization_Penalty>
0.119634

> <r_epik_Ionization_Penalty_Charging>
0

> <r_epik_Ionization_Penalty_Neutral>
0.119634

> <r_epik_State_Penalty>
0.10919

> <r_epik_Charging_Adjusted_Penalty>
0.10919

> <i_epik_Tot_Q>
0

> <i_epik_Tot_abs_Q>
0

> <r_epik_Metal_State_Penalty>
0.000119887

> <b_epik_Metal_Only>
0

> <s_lp_Force_Field>
OPLS_2005

> <r_lp_Energy>
14.3575

> <b_lp_Chiralities_Consistent>
1

> <s_lp_Variant>
AV-unprocessed.smi:2990-1

> <Gold.Version>
5.8.1

> <Gold.Id.Protein>
6NUR|6NUR_protein|mol2

> <Gold.PLP.Fitness>
50.2212

> <Gold.PLP.PLP>
-46.0357

> <Gold.PLP.part.hbond>
-3.5524

> <Gold.PLP.part.metal>
0.0000

> <Gold.PLP.part.buried>
-3.3067

> <Gold.PLP.part.nonpolar>
-38.8093

> <Gold.PLP.part.repulsive>
0.1635

> <Gold.PLP.ligand.clash>
0.0000

> <Gold.PLP.ligand.torsion>
1.1190

> <Gold.PLP.Chemscore.Hbond>
2.0655

> <Gold.PLP.Chemscore.CHOScore>
0.0000

> <Gold.PLP.Chemscore.Metal>
0.0000

> <Gold.Chemscore.Hbonds>
donor molecule, donor type, donor heavy atom, donor atom, acceptor molecule, acceptor atom, score
      L1  H    13    32       P1  7957  0.02
      P1  H  7989  7998       L1    13  0.03
      P1  H  7997  8010       L1     3  1.00
      P1  H  8011  8017       L1    13  1.00

> <Gold.PLP.Chemscore.Internal.Correction>
0.2271

> <Gold.Rescore>
     Score         DG    S(hbond)    S(metal)    S(lipo)     H(rot)  DE(clash)    DE(int)     intcor
     15.72     -18.58       1.61        0.00     110.42       2.04       1.82       1.03       ----

> <Gold.Chemscore.Fitness>
15.7196

> <Gold.Chemscore.DG>
-18.5792

> <Gold.Chemscore.ZeroCoef>
-5.4800

> <Gold.Chemscore.Hbond>
1.6145

> <Gold.Chemscore.Metal>
0.0000

> <Gold.Chemscore.Lipo>
110.4193

> <Gold.Chemscore.Internal_Hbond>
0.0000

> <Gold.Chemscore.DEClash>
1.8249

> <Gold.Chemscore.DEInternal>
1.0347

> <Gold.Chemscore.Rot>
2.0361

> <Gold.Chemscore.Internal.Correction>
   9.000000E+99

> <Gold.Chemscore.Hbonds>
donor molecule, donor type, donor heavy atom, donor atom, acceptor molecule, acceptor atom, score
      L1  H    13    32       P1  7957  0.05
      P1  H  7997  8010       L1     3  0.69
      P1  H  8011  8017       L1    13  0.96

> <Gold.Chemscore.Hbond.Weighted>
-5.3925

> <Gold.Chemscore.Metal.Weighted>
-0.0000

> <Gold.Chemscore.Lipo.Weighted>
-12.9191

> <Gold.Chemscore.Internal_Hbond.Weighted>
0.0000

> <Gold.Chemscore.DEClash.Weighted>
1.8249

> <Gold.Chemscore.DEInternal.Weighted>
1.0347

> <Gold.Chemscore.Rot.Weighted>
5.2124

> <Gold.Chemscore.Internal.Correction.Weighted>
   9.000000E+99

> <Gold.Protein.RotatedTorsions>
[ 6907 6896 6895 6894 ] final   46.89 input  -60.11 | X-H torsion
[ 7974 7965 7964 7962 ] final   70.43 input  175.53 | X-H torsion
[ 8008 7997 7996 7995 ] final   57.76 input   59.86 | X-H torsion
[ 10167 10162 10161 10158 ] final  -59.38 input  -65.29 | X-H torsion
[ 10718 10713 10712 10709 ] final   83.90 input   66.30 | X-H torsion
[ 10763 10752 10751 10750 ] final  -76.56 input  -60.55 | X-H torsion
[ 11005 11000 10999 10996 ] final -128.73 input  -57.11 | X-H torsion

> <Gold.Protein.ActiveResidues>
 VAL166  LYS551  ARG553  GLY616  TRP617  ASP618  TYR619  PRO620  LYS621  CYS622 
 ASP623  PHE694  ASN695  SER759  ASP760  ASP761  ALA762  ILE779  LEU786  VAL792 
 PHE793  MET794  SER795  GLU796  ALA797  LYS798  CYS799  TRP800  GLU811  SER814 

> <Gold.Protein.RotatedAtoms>
  152.2617  134.8027  160.0429 H   0  0  0  0  0  0  0  0  0  0  0  0  # atno 6907 bound_to 6896
  151.8671  133.3463  159.3731 H   0  0  0  0  0  0  0  0  0  0  0  0  # atno 6908 bound_to 6896
  150.7119  134.5076  159.5636 H   0  0  0  0  0  0  0  0  0  0  0  0  # atno 6909 bound_to 6896
  145.7783  139.2875  143.1281 H   0  0  0  0  0  0  0  0  0  0  0  0  # atno 7974 bound_to 7965
  155.5390  140.3484  155.4442 H   0  0  0  0  0  0  0  0  0  0  0  0  # atno 8008 bound_to 7997
  156.0665  140.1352  156.9906 H   0  0  0  0  0  0  0  0  0  0  0  0  # atno 8009 bound_to 7997
  154.4506  140.0974  156.6579 H   0  0  0  0  0  0  0  0  0  0  0  0  # atno 8010 bound_to 7997
  140.6139  143.2396  151.5644 H   0  0  0  0  0  0  0  0  0  0  0  0  # atno 10167 bound_to 10162
  157.6888  131.0110  150.2592 H   0  0  0  0  0  0  0  0  0  0  0  0  # atno 10718 bound_to 10713
  154.5014  135.5794  153.6534 H   0  0  0  0  0  0  0  0  0  0  0  0  # atno 10763 bound_to 10752
  152.9879  135.6136  154.2998 H   0  0  0  0  0  0  0  0  0  0  0  0  # atno 10764 bound_to 10752
  154.2905  135.2849  155.2636 H   0  0  0  0  0  0  0  0  0  0  0  0  # atno 10765 bound_to 10752
  140.9491  134.1089  157.4079 H   0  0  0  0  0  0  0  0  0  0  0  0  # atno 11005 bound_to 11000
  146.0100  140.8444  142.9975 LP  0  0  0  0  0  0  0  0  0  0  0  0  # atno 17320 bound_to 7965
  144.6801  140.2476  143.7336 LP  0  0  0  0  0  0  0  0  0  0  0  0  # atno 17321 bound_to 7965
  139.5383  144.2719  152.1297 LP  0  0  0  0  0  0  0  0  0  0  0  0  # atno 17342 bound_to 10162
  140.1924  144.4738  150.6472 LP  0  0  0  0  0  0  0  0  0  0  0  0  # atno 17343 bound_to 10162
  156.3175  130.3781  149.7605 LP  0  0  0  0  0  0  0  0  0  0  0  0  # atno 17370 bound_to 10713
  156.5186  130.8204  151.3195 LP  0  0  0  0  0  0  0  0  0  0  0  0  # atno 17371 bound_to 10713
  139.8842  135.0060  156.6354 LP  0  0  0  0  0  0  0  0  0  0  0  0  # atno 17394 bound_to 11000
  140.7627  133.8804  155.8430 LP  0  0  0  0  0  0  0  0  0  0  0  0  # atno 17395 bound_to 11000

$$$$
