AV-unprocessed.smi:102|AV-procd|sdf|967|dock6
  -GOLD-   2262017513D 1   1.00000     0.00000
 Structure written by MMmdl.
 43 44  0  0  0  0  0  0  0  0  2 V2000
  146.4698  144.3110  160.7647 C   0  0  0  0  0  0  0  0  0  0  0  0
  146.6440  143.0659  159.9050 C   0  0  0  0  0  0  0  0  0  0  0  0
  145.9333  142.0723  160.0590 O   0  0  0  0  0  0  0  0  0  0  0  0
  147.6299  143.1997  159.0080 O   0  0  0  0  0  0  0  0  0  0  0  0
  147.9244  142.1364  158.1161 C   0  0  0  0  0  0  0  0  0  0  0  0
  149.3293  142.3166  157.5251 C   0  0  2  0  0  0  0  0  0  0  0  0
  149.4727  141.5694  156.3271 O   0  0  0  0  0  0  0  0  0  0  0  0
  150.8195  141.2605  156.1276 C   0  0  2  0  0  0  0  0  0  0  0  0
  150.9126  139.7934  155.7621 N   0  0  0  0  0  0  0  0  0  0  0  0
  149.8083  138.9721  155.9117 C   0  0  0  0  0  0  0  0  0  0  0  0
  149.8662  137.6596  155.6100 C   0  0  0  0  0  0  0  0  0  0  0  0
  148.7774  136.8876  155.7698 F   0  0  0  0  0  0  0  0  0  0  0  0
  151.1171  137.0868  155.1166 C   0  0  0  0  0  0  0  0  0  0  0  0
  151.1623  135.8908  154.8335 O   0  0  0  0  0  0  0  0  0  0  0  0
  152.1940  137.9164  154.9939 N   0  5  0  0  0  0  0  0  0  0  0  0
  152.1429  139.2443  155.3078 C   0  0  0  0  0  0  0  0  0  0  0  0
  153.1190  139.9901  155.2287 O   0  0  0  0  0  0  0  0  0  0  0  0
  151.5965  141.5988  157.4208 C   0  0  2  0  0  0  0  0  0  0  0  0
  152.4261  140.5241  157.8526 O   0  0  0  0  0  0  0  0  0  0  0  0
  153.1277  140.6197  158.9923 C   0  0  0  0  0  0  0  0  0  0  0  0
  154.1709  139.5181  159.1211 C   0  0  0  0  0  0  0  0  0  0  0  0
  152.9817  141.4742  159.8666 O   0  0  0  0  0  0  0  0  0  0  0  0
  150.4812  141.8584  158.4216 C   0  0  1  0  0  0  0  0  0  0  0  0
  150.8755  142.8828  159.3247 O   0  0  0  0  0  0  0  0  0  0  0  0
  151.2309  144.0930  158.8619 C   0  0  0  0  0  0  0  0  0  0  0  0
  151.6052  145.0546  159.9817 C   0  0  0  0  0  0  0  0  0  0  0  0
  151.2710  144.4362  157.6803 O   0  0  0  0  0  0  0  0  0  0  0  0
  146.6589  145.2112  160.1791 H   0  0  0  0  0  0  0  0  0  0  0  0
  147.1672  144.2904  161.6022 H   0  0  0  0  0  0  0  0  0  0  0  0
  145.4550  144.3633  161.1593 H   0  0  0  0  0  0  0  0  0  0  0  0
  147.8532  141.1830  158.6407 H   0  0  0  0  0  0  0  0  0  0  0  0
  147.1903  142.1200  157.3093 H   0  0  0  0  0  0  0  0  0  0  0  0
  149.4759  143.3650  157.2595 H   0  0  0  0  0  0  0  0  0  0  0  0
  151.1699  141.8294  155.2661 H   0  0  0  0  0  0  0  0  0  0  0  0
  148.8823  139.3821  156.2848 H   0  0  0  0  0  0  0  0  0  0  0  0
  152.1677  142.5081  157.2266 H   0  0  0  0  0  0  0  0  0  0  0  0
  153.6845  138.5523  159.2583 H   0  0  0  0  0  0  0  0  0  0  0  0
  154.8214  139.7035  159.9761 H   0  0  0  0  0  0  0  0  0  0  0  0
  154.7863  139.4721  158.2222 H   0  0  0  0  0  0  0  0  0  0  0  0
  150.2321  140.9230  158.9254 H   0  0  0  0  0  0  0  0  0  0  0  0
  152.5947  144.8140  160.3706 H   0  0  0  0  0  0  0  0  0  0  0  0
  150.8853  144.9880  160.7977 H   0  0  0  0  0  0  0  0  0  0  0  0
  151.6175  146.0816  159.6156 H   0  0  0  0  0  0  0  0  0  0  0  0
  1  2  1  0  0  0  0
  1 28  1  0  0  0  0
  1 29  1  0  0  0  0
  1 30  1  0  0  0  0
  2  3  2  0  0  0  0
  2  4  1  0  0  0  0
  4  5  1  0  0  0  0
  5  6  1  0  0  0  0
  5 31  1  0  0  0  0
  5 32  1  0  0  0  0
  6 23  1  0  0  0  0
  6  7  1  0  0  0  0
  6 33  1  0  0  0  0
  7  8  1  0  0  0  0
  8  9  1  0  0  0  0
  8 18  1  0  0  0  0
  8 34  1  0  0  0  0
  9 16  1  0  0  0  0
  9 10  1  0  0  0  0
 10 11  2  0  0  0  0
 10 35  1  0  0  0  0
 11 12  1  0  0  0  0
 11 13  1  0  0  0  0
 13 14  2  0  0  0  0
 13 15  1  0  0  0  0
 15 16  1  0  0  0  0
 16 17  2  0  0  0  0
 18 19  1  0  0  0  0
 18 23  1  0  0  0  0
 18 36  1  0  0  0  0
 19 20  1  0  0  0  0
 20 21  1  0  0  0  0
 20 22  2  0  0  0  0
 21 37  1  0  0  0  0
 21 38  1  0  0  0  0
 21 39  1  0  0  0  0
 23 24  1  0  0  0  0
 23 40  1  0  0  0  0
 24 25  1  0  0  0  0
 25 26  1  0  0  0  0
 25 27  2  0  0  0  0
 26 41  1  0  0  0  0
 26 42  1  0  0  0  0
 26 43  1  0  0  0  0
M  CHG  1  15  -1
M  END
> <s_m_source_file>
AV-unprocessed.smi

> <i_m_source_file_index>
102

> <i_lp_mmshare_version>
43012

> <i_f3d_flags>
0

> <s_epik_input>
W0NIM11DKD1PKU9bQ0gyXVtDQEBIXTFPW0NASF0oW0NAQEhdKE9DKD1PKVtDSDNdKVtDQEhdMU9DKD1PKVtDSDNdKW4yW2NIXWMoRiljKD1PKVtuSF1jMj1P

> <s_epik_cmdline>
J2VwaWtfcHl0aG9uJywgJy1waCcsICc3LjAnLCAnLXRuJywgJzgnLCAnLW1hJywgJzIwMCcsICctbWV0YWxfYmluZGluZycsICctaW1hZScsICc8aW5maWxlLm1hZT4nLCAnLW9tYWUnLCAnPG91dGZpbGUubWFlPic=

> <r_epik_Ionization_Penalty>
1.40304

> <r_epik_Ionization_Penalty_Charging>
1.43915e-08

> <r_epik_Ionization_Penalty_Neutral>
1.40304

> <r_epik_State_Penalty>
1.48536

> <r_epik_Charging_Adjusted_Penalty>
1.48536

> <i_epik_Tot_Q>
-1

> <i_epik_Tot_abs_Q>
1

> <r_epik_Metal_State_Penalty>
0.00663881

> <b_epik_Metal_Only>
0

> <s_epik_Chemistry_Notes>
This compound has an ester and may undergo hydrolysis at high or low pH. This compound contains an acetal/aminal-like group ( X-CH(R)-Y where X, Y are N, S, or O) that may be acid/base labile, releasing an aldehyde.

> <s_lp_Force_Field>
OPLS_2005

> <r_lp_Energy>
21.6407

> <b_lp_Chiralities_Consistent>
1

> <s_lp_Variant>
AV-unprocessed.smi:102-23

> <Gold.Version>
5.8.1

> <Gold.Id.Protein>
6NUR|6NUR_protein|mol2

> <Gold.PLP.Fitness>
44.0753

> <Gold.PLP.PLP>
-36.2690

> <Gold.PLP.part.hbond>
-4.7235

> <Gold.PLP.part.metal>
0.0000

> <Gold.PLP.part.buried>
-4.7151

> <Gold.PLP.part.nonpolar>
-26.9836

> <Gold.PLP.part.repulsive>
0.9350

> <Gold.PLP.ligand.clash>
0.0000

> <Gold.PLP.ligand.torsion>
0.6446

> <Gold.PLP.Chemscore.Hbond>
3.0000

> <Gold.PLP.Chemscore.CHOScore>
0.0000

> <Gold.PLP.Chemscore.Metal>
0.0000

> <Gold.Chemscore.Hbonds>
donor molecule, donor type, donor heavy atom, donor atom, acceptor molecule, acceptor atom, score
      P1  H  6934  6946       L1     3  1.00
      P1  H  7997  8009       L1    17  1.00
      P1  H 10752 10765       L1    14  1.00

> <Gold.PLP.Chemscore.Internal.Correction>
0.0955

> <Gold.Rescore>
     Score         DG    S(hbond)    S(metal)    S(lipo)     H(rot)  DE(clash)    DE(int)     intcor
     -2.05      -7.66       2.18        0.00      43.83       4.00       0.65       9.06       ----

> <Gold.Chemscore.Fitness>
-2.0497

> <Gold.Chemscore.DG>
-7.6566

> <Gold.Chemscore.ZeroCoef>
-5.4800

> <Gold.Chemscore.Hbond>
2.1783

> <Gold.Chemscore.Metal>
0.0000

> <Gold.Chemscore.Lipo>
43.8325

> <Gold.Chemscore.Internal_Hbond>
0.0000

> <Gold.Chemscore.DEClash>
0.6456

> <Gold.Chemscore.DEInternal>
9.0606

> <Gold.Chemscore.Rot>
3.9951

> <Gold.Chemscore.Internal.Correction>
   9.000000E+99

> <Gold.Chemscore.Hbonds>
donor molecule, donor type, donor heavy atom, donor atom, acceptor molecule, acceptor atom, score
      P1  H  6934  6946       L1     3  0.65
      P1  H  7997  8009       L1    17  0.93
      P1  H 10752 10765       L1    14  0.45

> <Gold.Chemscore.Hbond.Weighted>
-7.2756

> <Gold.Chemscore.Metal.Weighted>
-0.0000

> <Gold.Chemscore.Lipo.Weighted>
-5.1284

> <Gold.Chemscore.Internal_Hbond.Weighted>
0.0000

> <Gold.Chemscore.DEClash.Weighted>
0.6456

> <Gold.Chemscore.DEInternal.Weighted>
9.0606

> <Gold.Chemscore.Rot.Weighted>
10.2274

> <Gold.Chemscore.Internal.Correction.Weighted>
   9.000000E+99

> <Gold.Protein.RotatedTorsions>
[ 6907 6896 6895 6894 ] final  159.82 input  -60.11 | X-H torsion
[ 7974 7965 7964 7962 ] final  -89.04 input  175.53 | X-H torsion
[ 8008 7997 7996 7995 ] final -149.82 input   59.86 | X-H torsion
[ 10167 10162 10161 10158 ] final   76.95 input  -65.29 | X-H torsion
[ 10718 10713 10712 10709 ] final  -62.73 input   66.30 | X-H torsion
[ 10763 10752 10751 10750 ] final  170.78 input  -60.55 | X-H torsion
[ 11005 11000 10999 10996 ] final -103.75 input  -57.11 | X-H torsion

> <Gold.Protein.ActiveResidues>
 VAL166  LYS551  ARG553  GLY616  TRP617  ASP618  TYR619  PRO620  LYS621  CYS622 
 ASP623  PHE694  ASN695  SER759  ASP760  ASP761  ALA762  ILE779  LEU786  VAL792 
 PHE793  MET794  SER795  GLU796  ALA797  LYS798  CYS799  TRP800  GLU811  SER814 

> <Gold.Protein.RotatedAtoms>
  151.9799  133.3754  159.4103 H   0  0  0  0  0  0  0  0  0  0  0  0  # atno 6907 bound_to 6896
  150.6936  134.4050  159.5145 H   0  0  0  0  0  0  0  0  0  0  0  0  # atno 6908 bound_to 6896
  152.1767  134.8789  160.0580 H   0  0  0  0  0  0  0  0  0  0  0  0  # atno 6909 bound_to 6896
  145.4451  140.9560  143.2053 H   0  0  0  0  0  0  0  0  0  0  0  0  # atno 7974 bound_to 7965
  155.6136  140.0674  157.2699 H   0  0  0  0  0  0  0  0  0  0  0  0  # atno 8008 bound_to 7997
  154.4247  140.1797  156.1346 H   0  0  0  0  0  0  0  0  0  0  0  0  # atno 8009 bound_to 7997
  156.0065  140.3331  155.6901 H   0  0  0  0  0  0  0  0  0  0  0  0  # atno 8010 bound_to 7997
  139.9868  144.5786  150.7852 H   0  0  0  0  0  0  0  0  0  0  0  0  # atno 10167 bound_to 10162
  156.0836  130.4212  150.1177 H   0  0  0  0  0  0  0  0  0  0  0  0  # atno 10718 bound_to 10713
  154.4024  135.2755  155.2088 H   0  0  0  0  0  0  0  0  0  0  0  0  # atno 10763 bound_to 10752
  154.4108  135.6023  153.5955 H   0  0  0  0  0  0  0  0  0  0  0  0  # atno 10764 bound_to 10752
  152.9831  135.5949  154.4294 H   0  0  0  0  0  0  0  0  0  0  0  0  # atno 10765 bound_to 10752
  141.1131  133.8666  157.1526 H   0  0  0  0  0  0  0  0  0  0  0  0  # atno 11005 bound_to 11000
  144.8097  139.5985  143.7035 LP  0  0  0  0  0  0  0  0  0  0  0  0  # atno 17320 bound_to 7965
  146.2535  139.6251  142.9411 LP  0  0  0  0  0  0  0  0  0  0  0  0  # atno 17321 bound_to 7965
  140.7469  143.2898  151.3362 LP  0  0  0  0  0  0  0  0  0  0  0  0  # atno 17342 bound_to 10162
  139.6369  144.0613  152.2523 LP  0  0  0  0  0  0  0  0  0  0  0  0  # atno 17343 bound_to 10162
  156.9203  130.9680  151.3549 LP  0  0  0  0  0  0  0  0  0  0  0  0  # atno 17370 bound_to 10713
  157.5962  130.8479  149.8733 LP  0  0  0  0  0  0  0  0  0  0  0  0  # atno 17371 bound_to 10713
  140.0037  135.0017  157.0246 LP  0  0  0  0  0  0  0  0  0  0  0  0  # atno 17394 bound_to 11000
  140.4720  134.1377  155.7204 LP  0  0  0  0  0  0  0  0  0  0  0  0  # atno 17395 bound_to 11000

$$$$
