AV-unprocessed.smi:2735|AV-procd|sdf|10543|dock10
  -GOLD-   2272014593D 1   1.00000     0.00000
 Structure written by MMmdl.
 42 42  0  0  0  0  0  0  0  0  2 V2000
  154.3692  139.9514  160.9216 C   0  0  0  0  0  0  0  0  0  0  0  0
  153.5368  141.0827  160.3951 C   0  0  0  0  0  0  0  0  0  0  0  0
  153.4627  142.4200  160.8725 C   0  0  0  0  0  0  0  0  0  0  0  0
  152.5729  143.0294  160.0338 C   0  0  0  0  0  0  0  0  0  0  0  0
  152.0987  144.4461  160.0121 C   0  0  0  0  0  0  0  0  0  0  0  0
  152.1464  142.0714  159.1273 N   0  0  0  0  0  0  0  0  0  0  0  0
  151.2448  142.2229  157.9835 C   0  0  2  0  0  0  0  0  0  0  0  0
  149.9256  142.9206  158.3757 C   0  0  0  0  0  0  0  0  0  0  0  0
  151.0279  140.8639  157.2949 C   0  0  0  0  0  0  0  0  0  0  0  0
  150.4981  139.9259  157.8920 O   0  0  0  0  0  0  0  0  0  0  0  0
  151.4601  140.7777  156.0273 N   0  0  0  0  0  0  0  0  0  0  0  0
  151.4333  139.5853  155.1850 C   0  0  2  0  0  0  0  0  0  0  0  0
  149.9773  139.0639  155.1122 C   0  0  0  0  0  0  0  0  0  0  0  0
  149.0525  139.8202  154.1284 C   0  0  0  0  0  0  0  0  0  0  0  0
  148.8555  141.2742  154.5828 C   0  0  0  0  0  0  0  0  0  0  0  0
  147.6940  139.1255  153.9379 C   0  0  0  0  0  0  0  0  0  0  0  0
  152.3111  138.4900  155.8116 C   0  0  0  0  0  0  0  0  0  0  0  0
  152.2545  137.3541  155.2922 O   0  0  0  0  0  0  0  0  0  0  0  0
  153.0163  138.7985  156.7994 O   0  5  0  0  0  0  0  0  0  0  0  0
  152.7518  140.8814  159.3511 N   0  0  0  0  0  0  0  0  0  0  0  0
  151.8019  139.8125  154.1834 H   0  0  0  0  0  0  0  0  0  0  0  0
  155.0903  140.3032  161.6598 H   0  0  0  0  0  0  0  0  0  0  0  0
  154.9271  139.4664  160.1199 H   0  0  0  0  0  0  0  0  0  0  0  0
  153.7454  139.1958  161.3997 H   0  0  0  0  0  0  0  0  0  0  0  0
  153.9925  142.8679  161.7001 H   0  0  0  0  0  0  0  0  0  0  0  0
  152.5697  145.0264  160.8056 H   0  0  0  0  0  0  0  0  0  0  0  0
  151.0195  144.4975  160.1568 H   0  0  0  0  0  0  0  0  0  0  0  0
  152.3389  144.9241  159.0627 H   0  0  0  0  0  0  0  0  0  0  0  0
  151.7368  142.8657  157.2534 H   0  0  0  0  0  0  0  0  0  0  0  0
  149.3026  143.1045  157.4994 H   0  0  0  0  0  0  0  0  0  0  0  0
  150.1211  143.8858  158.8435 H   0  0  0  0  0  0  0  0  0  0  0  0
  149.3401  142.3255  159.0779 H   0  0  0  0  0  0  0  0  0  0  0  0
  151.8628  141.6050  155.6125 H   0  0  0  0  0  0  0  0  0  0  0  0
  149.9908  138.0066  154.8419 H   0  0  0  0  0  0  0  0  0  0  0  0
  149.5268  139.1095  156.1057 H   0  0  0  0  0  0  0  0  0  0  0  0
  149.5398  139.8614  153.1535 H   0  0  0  0  0  0  0  0  0  0  0  0
  148.3615  141.3221  155.5538 H   0  0  0  0  0  0  0  0  0  0  0  0
  148.2456  141.8303  153.8703 H   0  0  0  0  0  0  0  0  0  0  0  0
  149.8112  141.7920  154.6692 H   0  0  0  0  0  0  0  0  0  0  0  0
  147.1739  139.0034  154.8884 H   0  0  0  0  0  0  0  0  0  0  0  0
  147.8088  138.1391  153.4887 H   0  0  0  0  0  0  0  0  0  0  0  0
  147.0484  139.7034  153.2762 H   0  0  0  0  0  0  0  0  0  0  0  0
  1  2  1  0  0  0  0
  1 22  1  0  0  0  0
  1 23  1  0  0  0  0
  1 24  1  0  0  0  0
  2 20  2  0  0  0  0
  2  3  1  0  0  0  0
  3  4  2  0  0  0  0
  3 25  1  0  0  0  0
  4  5  1  0  0  0  0
  4  6  1  0  0  0  0
  5 26  1  0  0  0  0
  5 27  1  0  0  0  0
  5 28  1  0  0  0  0
  6  7  1  0  0  0  0
  6 20  1  0  0  0  0
  7  8  1  0  0  0  0
  7  9  1  0  0  0  0
  7 29  1  0  0  0  0
  8 30  1  0  0  0  0
  8 31  1  0  0  0  0
  8 32  1  0  0  0  0
  9 10  2  0  0  0  0
  9 11  1  0  0  0  0
 11 12  1  0  0  0  0
 11 33  1  0  0  0  0
 12 21  1  0  0  0  0
 12 13  1  0  0  0  0
 12 17  1  0  0  0  0
 13 14  1  0  0  0  0
 13 34  1  0  0  0  0
 13 35  1  0  0  0  0
 14 15  1  0  0  0  0
 14 16  1  0  0  0  0
 14 36  1  0  0  0  0
 15 37  1  0  0  0  0
 15 38  1  0  0  0  0
 15 39  1  0  0  0  0
 16 40  1  0  0  0  0
 16 41  1  0  0  0  0
 16 42  1  0  0  0  0
 17 18  2  0  0  0  0
 17 19  1  0  0  0  0
M  CHG  1  19  -1
M  END
> <s_m_source_file>
AV-unprocessed.smi

> <i_m_source_file_index>
2735

> <i_lp_mmshare_version>
43012

> <i_f3d_flags>
0

> <s_epik_input>
W0NIM11jMVtjSF1jKFtDSDNdKW4objEpW0NASF0oW0NIM10pQyg9TylbTkhdW0NASF0oQyg9TylbT0hdKVtDSDJdW0NIXShbQ0gzXSlbQ0gzXQ==

> <s_epik_cmdline>
J2VwaWtfcHl0aG9uJywgJy1waCcsICc3LjAnLCAnLXRuJywgJzgnLCAnLW1hJywgJzIwMCcsICctbWV0YWxfYmluZGluZycsICctaW1hZScsICc8aW5maWxlLm1hZT4nLCAnLW9tYWUnLCAnPG91dGZpbGUubWFlPic=

> <r_lp_tautomer_probability>
1

> <r_epik_Ionization_Penalty>
0.0012303

> <r_epik_Ionization_Penalty_Charging>
0.000186407

> <r_epik_Ionization_Penalty_Neutral>
0.0010439

> <r_epik_State_Penalty>
-0

> <r_epik_Charging_Adjusted_Penalty>
0.000186407

> <i_epik_Tot_Q>
-1

> <i_epik_Tot_abs_Q>
1

> <r_epik_Metal_State_Penalty>
-0

> <b_epik_Metal_Only>
0

> <s_lp_Force_Field>
OPLS_2005

> <r_lp_Energy>
6.45659

> <b_lp_Chiralities_Consistent>
1

> <s_lp_Variant>
AV-unprocessed.smi:2735-3

> <Gold.Version>
5.8.1

> <Gold.Id.Protein>
6NUR|6NUR_protein|mol2

> <Gold.PLP.Fitness>
50.6594

> <Gold.PLP.PLP>
-40.7167

> <Gold.PLP.part.hbond>
-2.0000

> <Gold.PLP.part.metal>
0.0000

> <Gold.PLP.part.buried>
-2.0341

> <Gold.PLP.part.nonpolar>
-37.1669

> <Gold.PLP.part.repulsive>
0.2088

> <Gold.PLP.ligand.clash>
0.0000

> <Gold.PLP.ligand.torsion>
0.4811

> <Gold.PLP.Chemscore.Hbond>
3.5680

> <Gold.PLP.Chemscore.CHOScore>
0.0000

> <Gold.PLP.Chemscore.Metal>
0.0000

> <Gold.Chemscore.Hbonds>
donor molecule, donor type, donor heavy atom, donor atom, acceptor molecule, acceptor atom, score
      P1  H  7997  8009       L1    19  2.00
      P1  H 10752 10764       L1    18  1.50

> <Gold.PLP.Chemscore.Internal.Correction>
0.2008

> <Gold.Rescore>
     Score         DG    S(hbond)    S(metal)    S(lipo)     H(rot)  DE(clash)    DE(int)     intcor
     13.62     -17.31       1.82        0.00      97.98       2.24       0.03       3.66       ----

> <Gold.Chemscore.Fitness>
13.6212

> <Gold.Chemscore.DG>
-17.3072

> <Gold.Chemscore.ZeroCoef>
-5.4800

> <Gold.Chemscore.Hbond>
1.8250

> <Gold.Chemscore.Metal>
0.0000

> <Gold.Chemscore.Lipo>
97.9759

> <Gold.Chemscore.Internal_Hbond>
0.0000

> <Gold.Chemscore.DEClash>
0.0285

> <Gold.Chemscore.DEInternal>
3.6576

> <Gold.Chemscore.Rot>
2.2388

> <Gold.Chemscore.Internal.Correction>
   9.000000E+99

> <Gold.Chemscore.Hbonds>
donor molecule, donor type, donor heavy atom, donor atom, acceptor molecule, acceptor atom, score
      P1  H  7997  8009       L1    19  0.98
      P1  H 10752 10764       L1    18  0.73

> <Gold.Chemscore.Hbond.Weighted>
-6.0954

> <Gold.Chemscore.Metal.Weighted>
-0.0000

> <Gold.Chemscore.Lipo.Weighted>
-11.4632

> <Gold.Chemscore.Internal_Hbond.Weighted>
0.0000

> <Gold.Chemscore.DEClash.Weighted>
0.0285

> <Gold.Chemscore.DEInternal.Weighted>
3.6576

> <Gold.Chemscore.Rot.Weighted>
5.7314

> <Gold.Chemscore.Internal.Correction.Weighted>
   9.000000E+99

> <Gold.Protein.RotatedTorsions>
[ 6907 6896 6895 6894 ] final  -38.24 input  -60.11 | X-H torsion
[ 7974 7965 7964 7962 ] final  -66.78 input  175.53 | X-H torsion
[ 8008 7997 7996 7995 ] final  179.59 input   59.86 | X-H torsion
[ 10167 10162 10161 10158 ] final   96.69 input  -65.29 | X-H torsion
[ 10718 10713 10712 10709 ] final  154.16 input   66.30 | X-H torsion
[ 10763 10752 10751 10750 ] final  -55.61 input  -60.55 | X-H torsion
[ 11005 11000 10999 10996 ] final -101.69 input  -57.11 | X-H torsion

> <Gold.Protein.ActiveResidues>
 VAL166  LYS551  ARG553  GLY616  TRP617  ASP618  TYR619  PRO620  LYS621  CYS622 
 ASP623  PHE694  ASN695  SER759  ASP760  ASP761  ALA762  ILE779  LEU786  VAL792 
 PHE793  MET794  SER795  GLU796  ALA797  LYS798  CYS799  TRP800  GLU811  SER814 

> <Gold.Protein.RotatedAtoms>
  151.0049  134.9351  159.7974 H   0  0  0  0  0  0  0  0  0  0  0  0  # atno 6907 bound_to 6896
  152.5287  134.3105  159.9122 H   0  0  0  0  0  0  0  0  0  0  0  0  # atno 6908 bound_to 6896
  151.3111  133.4039  159.2681 H   0  0  0  0  0  0  0  0  0  0  0  0  # atno 6909 bound_to 6896
  145.7375  140.8969  143.0547 H   0  0  0  0  0  0  0  0  0  0  0  0  # atno 7974 bound_to 7965
  156.0416  140.1305  157.0149 H   0  0  0  0  0  0  0  0  0  0  0  0  # atno 8008 bound_to 7997
  154.4394  140.1029  156.6316 H   0  0  0  0  0  0  0  0  0  0  0  0  # atno 8009 bound_to 7997
  155.5657  140.3465  155.4505 H   0  0  0  0  0  0  0  0  0  0  0  0  # atno 8010 bound_to 7997
  139.7870  144.6866  150.9944 H   0  0  0  0  0  0  0  0  0  0  0  0  # atno 10167 bound_to 10162
  157.2353  131.0747  151.1827 H   0  0  0  0  0  0  0  0  0  0  0  0  # atno 10718 bound_to 10713
  154.1935  135.6423  153.5067 H   0  0  0  0  0  0  0  0  0  0  0  0  # atno 10763 bound_to 10752
  153.0029  135.5434  154.6390 H   0  0  0  0  0  0  0  0  0  0  0  0  # atno 10764 bound_to 10752
  154.5785  135.2923  155.0730 H   0  0  0  0  0  0  0  0  0  0  0  0  # atno 10765 bound_to 10752
  141.1220  133.8498  157.1264 H   0  0  0  0  0  0  0  0  0  0  0  0  # atno 11005 bound_to 11000
  144.6878  139.9415  143.7475 LP  0  0  0  0  0  0  0  0  0  0  0  0  # atno 17320 bound_to 7965
  146.0480  139.3483  143.0657 LP  0  0  0  0  0  0  0  0  0  0  0  0  # atno 17321 bound_to 7965
  140.7820  143.4421  151.0536 LP  0  0  0  0  0  0  0  0  0  0  0  0  # atno 17342 bound_to 10162
  139.8099  143.7965  152.3170 LP  0  0  0  0  0  0  0  0  0  0  0  0  # atno 17343 bound_to 10162
  157.3436  130.7046  149.6396 LP  0  0  0  0  0  0  0  0  0  0  0  0  # atno 17370 bound_to 10713
  155.9673  130.4273  150.4736 LP  0  0  0  0  0  0  0  0  0  0  0  0  # atno 17371 bound_to 10713
  140.0186  134.9956  157.0544 LP  0  0  0  0  0  0  0  0  0  0  0  0  # atno 17394 bound_to 11000
  140.4478  134.1614  155.7179 LP  0  0  0  0  0  0  0  0  0  0  0  0  # atno 17395 bound_to 11000

$$$$
