AV-unprocessed.smi:2855|AV-procd|sdf|10986|dock8
  -GOLD-   2272015443D 1   1.00000     0.00000
 Structure written by MMmdl.
 46 47  0  0  0  0  0  0  0  0  2 V2000
  151.9598  144.0713  160.6118 C   0  0  0  0  0  0  0  0  0  0  0  0
  152.2227  143.1797  159.3898 C   0  0  1  0  0  0  0  0  0  0  0  0
  152.6931  141.7721  159.8081 C   0  0  0  0  0  0  0  0  0  0  0  0
  152.8926  140.8526  158.5885 C   0  0  0  0  0  0  0  0  0  0  0  0
  151.6002  140.7164  157.7443 C   0  0  1  0  0  0  0  0  0  0  0  0
  150.4647  139.9138  158.4733 C   0  0  0  0  0  0  0  0  0  0  0  0
  150.9816  138.6196  159.1347 C   0  0  0  0  0  0  0  0  0  0  0  0
  149.2848  139.5334  157.5573 C   0  0  0  0  0  0  0  0  0  0  0  0
  151.2424  142.1609  157.2751 C   0  0  1  0  0  0  0  0  0  0  0  0
  150.1476  142.2366  156.3125 N   0  0  0  0  0  0  0  0  0  0  0  0
  149.9421  141.3887  155.2928 C   0  0  0  0  0  0  0  0  0  0  0  0
  150.6844  140.4376  155.0446 O   0  0  0  0  0  0  0  0  0  0  0  0
  148.7245  141.6842  154.4068 C   0  0  0  0  0  0  0  0  0  0  0  0
  147.6759  140.6572  154.5135 N   0  0  0  0  0  0  0  0  0  0  0  0
  147.4287  139.8551  153.3852 C   0  0  0  0  0  0  0  0  0  0  0  0
  146.4926  138.8870  153.3926 C   0  0  0  0  0  0  0  0  0  0  0  0
  145.7249  138.6788  154.6141 C   0  0  0  0  0  0  0  0  0  0  0  0
  144.8649  137.8006  154.6387 O   0  0  0  0  0  0  0  0  0  0  0  0
  146.0034  139.4810  155.6830 N   0  5  0  0  0  0  0  0  0  0  0  0
  146.9581  140.4624  155.6606 C   0  0  0  0  0  0  0  0  0  0  0  0
  147.1897  141.1773  156.6360 O   0  0  0  0  0  0  0  0  0  0  0  0
  150.9877  143.1018  158.4691 C   0  0  0  0  0  0  0  0  0  0  0  0
  151.1575  143.6690  161.2311 H   0  0  0  0  0  0  0  0  0  0  0  0
  151.6731  145.0785  160.3084 H   0  0  0  0  0  0  0  0  0  0  0  0
  152.8506  144.1558  161.2348 H   0  0  0  0  0  0  0  0  0  0  0  0
  153.0309  143.6394  158.8191 H   0  0  0  0  0  0  0  0  0  0  0  0
  153.6300  141.8470  160.3612 H   0  0  0  0  0  0  0  0  0  0  0  0
  151.9728  141.3262  160.4943 H   0  0  0  0  0  0  0  0  0  0  0  0
  153.6839  141.2699  157.9640 H   0  0  0  0  0  0  0  0  0  0  0  0
  153.2767  139.8827  158.9001 H   0  0  0  0  0  0  0  0  0  0  0  0
  151.8716  140.1393  156.8592 H   0  0  0  0  0  0  0  0  0  0  0  0
  150.0578  140.5258  159.2770 H   0  0  0  0  0  0  0  0  0  0  0  0
  151.5029  137.9869  158.4157 H   0  0  0  0  0  0  0  0  0  0  0  0
  150.1630  138.0346  159.5548 H   0  0  0  0  0  0  0  0  0  0  0  0
  151.6587  138.8254  159.9629 H   0  0  0  0  0  0  0  0  0  0  0  0
  149.6326  139.0489  156.6444 H   0  0  0  0  0  0  0  0  0  0  0  0
  148.6802  140.3944  157.2802 H   0  0  0  0  0  0  0  0  0  0  0  0
  148.6024  138.8430  158.0534 H   0  0  0  0  0  0  0  0  0  0  0  0
  152.1156  142.5616  156.7556 H   0  0  0  0  0  0  0  0  0  0  0  0
  149.4845  142.9876  156.4377 H   0  0  0  0  0  0  0  0  0  0  0  0
  148.3167  142.6669  154.6519 H   0  0  0  0  0  0  0  0  0  0  0  0
  149.0689  141.7681  153.3753 H   0  0  0  0  0  0  0  0  0  0  0  0
  148.0450  140.0701  152.5247 H   0  0  0  0  0  0  0  0  0  0  0  0
  146.3167  138.2781  152.5181 H   0  0  0  0  0  0  0  0  0  0  0  0
  150.1139  142.7735  159.0324 H   0  0  0  0  0  0  0  0  0  0  0  0
  150.7517  144.1019  158.1029 H   0  0  0  0  0  0  0  0  0  0  0  0
  1  2  1  0  0  0  0
  1 23  1  0  0  0  0
  1 24  1  0  0  0  0
  1 25  1  0  0  0  0
  2 22  1  0  0  0  0
  2  3  1  0  0  0  0
  2 26  1  0  0  0  0
  3  4  1  0  0  0  0
  3 27  1  0  0  0  0
  3 28  1  0  0  0  0
  4  5  1  0  0  0  0
  4 29  1  0  0  0  0
  4 30  1  0  0  0  0
  5  6  1  0  0  0  0
  5  9  1  0  0  0  0
  5 31  1  0  0  0  0
  6  7  1  0  0  0  0
  6  8  1  0  0  0  0
  6 32  1  0  0  0  0
  7 33  1  0  0  0  0
  7 34  1  0  0  0  0
  7 35  1  0  0  0  0
  8 36  1  0  0  0  0
  8 37  1  0  0  0  0
  8 38  1  0  0  0  0
  9 10  1  0  0  0  0
  9 22  1  0  0  0  0
  9 39  1  0  0  0  0
 10 11  1  0  0  0  0
 10 40  1  0  0  0  0
 11 12  2  0  0  0  0
 11 13  1  0  0  0  0
 13 14  1  0  0  0  0
 13 41  1  0  0  0  0
 13 42  1  0  0  0  0
 14 20  1  0  0  0  0
 14 15  1  0  0  0  0
 15 16  2  0  0  0  0
 15 43  1  0  0  0  0
 16 17  1  0  0  0  0
 16 44  1  0  0  0  0
 17 18  2  0  0  0  0
 17 19  1  0  0  0  0
 19 20  1  0  0  0  0
 20 21  2  0  0  0  0
 22 45  1  0  0  0  0
 22 46  1  0  0  0  0
M  CHG  1  19  -1
M  END
> <s_m_source_file>
AV-unprocessed.smi

> <i_m_source_file_index>
2855

> <i_lp_mmshare_version>
43012

> <i_f3d_flags>
0

> <s_epik_input>
W0NIM11bQ0BASF0xW0NIMl1bQ0gyXVtDQEBIXShbQ0hdKFtDSDNdKVtDSDNdKVtDQEhdKFtDSDJdMSlbTkhdQyg9TylbQ0gyXW4yW2NIXVtjSF1jKD1PKVtuSF1jMj1P

> <s_epik_cmdline>
J2VwaWtfcHl0aG9uJywgJy1waCcsICc3LjAnLCAnLXRuJywgJzgnLCAnLW1hJywgJzIwMCcsICctbWV0YWxfYmluZGluZycsICctaW1hZScsICc8aW5maWxlLm1hZT4nLCAnLW9tYWUnLCAnPG91dGZpbGUubWFlPic=

> <r_lp_tautomer_probability>
0.999537

> <r_epik_Ionization_Penalty>
3.12102

> <r_epik_Ionization_Penalty_Charging>
2.9581e-08

> <r_epik_Ionization_Penalty_Neutral>
3.12102

> <r_epik_State_Penalty>
3.12011

> <r_epik_Charging_Adjusted_Penalty>
3.12011

> <i_epik_Tot_Q>
-1

> <i_epik_Tot_abs_Q>
1

> <r_epik_Metal_State_Penalty>
0.463583

> <b_epik_Metal_Only>
1

> <s_lp_Force_Field>
OPLS_2005

> <r_lp_Energy>
27.3846

> <b_lp_Chiralities_Consistent>
1

> <s_lp_Variant>
AV-unprocessed.smi:2855-10

> <Gold.Version>
5.8.1

> <Gold.Id.Protein>
6NUR|6NUR_protein|mol2

> <Gold.PLP.Fitness>
40.8528

> <Gold.PLP.PLP>
-33.0801

> <Gold.PLP.part.hbond>
-2.0000

> <Gold.PLP.part.metal>
0.0000

> <Gold.PLP.part.buried>
-2.0765

> <Gold.PLP.part.nonpolar>
-28.2442

> <Gold.PLP.part.repulsive>
0.3252

> <Gold.PLP.ligand.clash>
0.0000

> <Gold.PLP.ligand.torsion>
0.4428

> <Gold.PLP.Chemscore.Hbond>
1.8640

> <Gold.PLP.Chemscore.CHOScore>
1.0000

> <Gold.PLP.Chemscore.Metal>
0.0000

> <Gold.Chemscore.Hbonds>
donor molecule, donor type, donor heavy atom, donor atom, acceptor molecule, acceptor atom, score
      L1  H    10    40       P1  8028  0.86
      P1  H  7989  7998       L1    12  1.00
      L1  C    15    43       P1  7957  1.00

> <Gold.PLP.Chemscore.Internal.Correction>
0.0663

> <Gold.Rescore>
     Score         DG    S(hbond)    S(metal)    S(lipo)     H(rot)  DE(clash)    DE(int)     intcor
     14.84     -17.49       1.54        0.00      98.29       1.81       0.80       1.86       ----

> <Gold.Chemscore.Fitness>
14.8380

> <Gold.Chemscore.DG>
-17.4947

> <Gold.Chemscore.ZeroCoef>
-5.4800

> <Gold.Chemscore.Hbond>
1.5413

> <Gold.Chemscore.Metal>
0.0000

> <Gold.Chemscore.Lipo>
98.2915

> <Gold.Chemscore.Internal_Hbond>
0.0000

> <Gold.Chemscore.DEClash>
0.8001

> <Gold.Chemscore.DEInternal>
1.8566

> <Gold.Chemscore.Rot>
1.8100

> <Gold.Chemscore.Internal.Correction>
   9.000000E+99

> <Gold.Chemscore.Hbonds>
donor molecule, donor type, donor heavy atom, donor atom, acceptor molecule, acceptor atom, score
      L1  H    10    40       P1  8028  0.82
      P1  H  7989  7998       L1    12  0.58

> <Gold.Chemscore.Hbond.Weighted>
-5.1480

> <Gold.Chemscore.Metal.Weighted>
-0.0000

> <Gold.Chemscore.Lipo.Weighted>
-11.5001

> <Gold.Chemscore.Internal_Hbond.Weighted>
0.0000

> <Gold.Chemscore.DEClash.Weighted>
0.8001

> <Gold.Chemscore.DEInternal.Weighted>
1.8566

> <Gold.Chemscore.Rot.Weighted>
4.6335

> <Gold.Chemscore.Internal.Correction.Weighted>
   9.000000E+99

> <Gold.Protein.RotatedTorsions>
[ 6907 6896 6895 6894 ] final   84.09 input  -60.11 | X-H torsion
[ 7974 7965 7964 7962 ] final  175.22 input  175.53 | X-H torsion
[ 8008 7997 7996 7995 ] final  -90.88 input   59.86 | X-H torsion
[ 10167 10162 10161 10158 ] final   -0.73 input  -65.29 | X-H torsion
[ 10718 10713 10712 10709 ] final  -29.29 input   66.30 | X-H torsion
[ 10763 10752 10751 10750 ] final   88.23 input  -60.55 | X-H torsion
[ 11005 11000 10999 10996 ] final -163.46 input  -57.11 | X-H torsion

> <Gold.Protein.ActiveResidues>
 VAL166  LYS551  ARG553  GLY616  TRP617  ASP618  TYR619  PRO620  LYS621  CYS622 
 ASP623  PHE694  ASN695  SER759  ASP760  ASP761  ALA762  ILE779  LEU786  VAL792 
 PHE793  MET794  SER795  GLU796  ALA797  LYS798  CYS799  TRP800  GLU811  SER814 

> <Gold.Protein.RotatedAtoms>
  152.5344  134.2794  159.9001 H   0  0  0  0  0  0  0  0  0  0  0  0  # atno 6907 bound_to 6896
  151.2749  133.4231  159.2631 H   0  0  0  0  0  0  0  0  0  0  0  0  # atno 6908 bound_to 6896
  151.0335  134.9571  159.8180 H   0  0  0  0  0  0  0  0  0  0  0  0  # atno 6909 bound_to 6896
  144.7206  139.9914  143.6440 H   0  0  0  0  0  0  0  0  0  0  0  0  # atno 7974 bound_to 7965
  154.7039  140.0525  157.0485 H   0  0  0  0  0  0  0  0  0  0  0  0  # atno 8008 bound_to 7997
  155.0646  140.3193  155.4630 H   0  0  0  0  0  0  0  0  0  0  0  0  # atno 8009 bound_to 7997
  156.2769  140.2092  156.5773 H   0  0  0  0  0  0  0  0  0  0  0  0  # atno 8010 bound_to 7997
  140.6780  143.6859  150.8067 H   0  0  0  0  0  0  0  0  0  0  0  0  # atno 10167 bound_to 10162
  156.4143  130.4414  149.7229 H   0  0  0  0  0  0  0  0  0  0  0  0  # atno 10718 bound_to 10713
  153.1747  135.4514  154.9949 H   0  0  0  0  0  0  0  0  0  0  0  0  # atno 10763 bound_to 10752
  154.7990  135.3248  154.7599 H   0  0  0  0  0  0  0  0  0  0  0  0  # atno 10764 bound_to 10752
  153.8071  135.6958  153.4901 H   0  0  0  0  0  0  0  0  0  0  0  0  # atno 10765 bound_to 10752
  140.5979  134.4978  157.5201 H   0  0  0  0  0  0  0  0  0  0  0  0  # atno 11005 bound_to 11000
  146.0409  139.3420  143.0698 LP  0  0  0  0  0  0  0  0  0  0  0  0  # atno 17320 bound_to 7965
  145.8336  140.9617  143.0836 LP  0  0  0  0  0  0  0  0  0  0  0  0  # atno 17321 bound_to 7965
  140.0555  143.5206  152.2653 LP  0  0  0  0  0  0  0  0  0  0  0  0  # atno 17342 bound_to 10162
  139.6084  144.7602  151.3008 LP  0  0  0  0  0  0  0  0  0  0  0  0  # atno 17343 bound_to 10162
  156.4196  130.7762  151.2778 LP  0  0  0  0  0  0  0  0  0  0  0  0  # atno 17370 bound_to 10713
  157.7507  131.0187  150.3636 LP  0  0  0  0  0  0  0  0  0  0  0  0  # atno 17371 bound_to 10713
  139.9245  134.8083  156.1109 LP  0  0  0  0  0  0  0  0  0  0  0  0  # atno 17394 bound_to 11000
  141.0892  133.6721  156.2503 LP  0  0  0  0  0  0  0  0  0  0  0  0  # atno 17395 bound_to 11000

$$$$
