AV-unprocessed.smi:2953|AV-procd|sdf|11295|dock3
  -GOLD-   2272016183D 1   1.00000     0.00000
 Structure written by MMmdl.
 46 48  0  0  0  0  0  0  0  0  2 V2000
  147.1100  132.2982  160.4548 C   0  0  0  0  0  0  0  0  0  0  0  0
  146.9852  133.7047  161.0100 C   0  0  0  0  0  0  0  0  0  0  0  0
  146.2815  133.9170  162.2142 C   0  0  0  0  0  0  0  0  0  0  0  0
  146.1539  135.2142  162.7421 C   0  0  0  0  0  0  0  0  0  0  0  0
  146.7304  136.3040  162.0662 C   0  0  0  0  0  0  0  0  0  0  0  0
  147.4334  136.0980  160.8640 C   0  0  0  0  0  0  0  0  0  0  0  0
  147.5681  134.7942  160.3212 C   0  0  0  0  0  0  0  0  0  0  0  0
  148.2395  134.5194  159.1472 O   0  0  0  0  0  0  0  0  0  0  0  0
  148.2666  135.5142  158.1347 C   0  0  0  0  0  0  0  0  0  0  0  0
  149.7195  135.7102  157.6861 C   0  0  0  0  0  0  0  0  0  0  0  0
  149.8014  136.3376  156.3606 N   0  0  0  0  0  0  0  0  0  0  0  0
  149.5879  135.8128  155.1190 C   0  0  0  0  0  0  0  0  0  0  0  0
  149.1665  134.4038  154.8071 C   0  0  2  0  0  0  0  0  0  0  0  0
  150.2105  133.3622  155.2532 C   0  0  0  0  0  0  0  0  0  0  0  0
  148.8048  134.2292  153.4022 N   0  0  0  0  0  0  0  0  0  0  0  0
  148.4834  133.0658  152.8196 C   0  0  0  0  0  0  0  0  0  0  0  0
  148.4603  131.9966  153.4229 O   0  0  0  0  0  0  0  0  0  0  0  0
  149.7811  136.8228  154.2213 N   0  3  0  0  0  0  0  0  0  0  0  0
  150.1400  137.9926  154.8917 C   0  0  0  0  0  0  0  0  0  0  0  0
  150.4423  139.2631  154.4115 C   0  0  0  0  0  0  0  0  0  0  0  0
  150.7716  140.2409  155.3732 C   0  0  0  0  0  0  0  0  0  0  0  0
  150.7919  139.9389  156.7505 C   0  0  0  0  0  0  0  0  0  0  0  0
  150.4822  138.6471  157.2252 C   0  0  0  0  0  0  0  0  0  0  0  0
  150.1567  137.6872  156.2674 C   0  0  0  0  0  0  0  0  0  0  0  0
  146.7192  131.5575  161.1526 H   0  0  0  0  0  0  0  0  0  0  0  0
  148.1548  132.0566  160.2583 H   0  0  0  0  0  0  0  0  0  0  0  0
  146.5549  132.2114  159.5206 H   0  0  0  0  0  0  0  0  0  0  0  0
  145.8353  133.0844  162.7384 H   0  0  0  0  0  0  0  0  0  0  0  0
  145.6140  135.3730  163.6638 H   0  0  0  0  0  0  0  0  0  0  0  0
  146.6328  137.3009  162.4701 H   0  0  0  0  0  0  0  0  0  0  0  0
  147.8601  136.9611  160.3766 H   0  0  0  0  0  0  0  0  0  0  0  0
  147.6545  135.2056  157.2857 H   0  0  0  0  0  0  0  0  0  0  0  0
  147.8700  136.4555  158.5193 H   0  0  0  0  0  0  0  0  0  0  0  0
  150.2494  136.3471  158.3947 H   0  0  0  0  0  0  0  0  0  0  0  0
  150.2569  134.7615  157.6633 H   0  0  0  0  0  0  0  0  0  0  0  0
  148.2571  134.2088  155.3766 H   0  0  0  0  0  0  0  0  0  0  0  0
  150.4024  133.4363  156.3241 H   0  0  0  0  0  0  0  0  0  0  0  0
  151.1622  133.4889  154.7362 H   0  0  0  0  0  0  0  0  0  0  0  0
  149.8601  132.3488  155.0541 H   0  0  0  0  0  0  0  0  0  0  0  0
  148.8140  135.0570  152.8237 H   0  0  0  0  0  0  0  0  0  0  0  0
  148.2487  133.1906  151.7509 H   0  0  0  0  0  0  0  0  0  0  0  0
  150.4277  139.4969  153.3570 H   0  0  0  0  0  0  0  0  0  0  0  0
  151.0134  141.2425  155.0480 H   0  0  0  0  0  0  0  0  0  0  0  0
  151.0499  140.7136  157.4580 H   0  0  0  0  0  0  0  0  0  0  0  0
  150.5012  138.4256  158.2822 H   0  0  0  0  0  0  0  0  0  0  0  0
  149.6746  136.7148  153.2208 H   0  0  0  0  0  0  0  0  0  0  0  0
  1  2  1  0  0  0  0
  1 25  1  0  0  0  0
  1 26  1  0  0  0  0
  1 27  1  0  0  0  0
  2  7  1  0  0  0  0
  2  3  2  0  0  0  0
  3  4  1  0  0  0  0
  3 28  1  0  0  0  0
  4  5  2  0  0  0  0
  4 29  1  0  0  0  0
  5  6  1  0  0  0  0
  5 30  1  0  0  0  0
  6  7  2  0  0  0  0
  6 31  1  0  0  0  0
  7  8  1  0  0  0  0
  8  9  1  0  0  0  0
  9 10  1  0  0  0  0
  9 32  1  0  0  0  0
  9 33  1  0  0  0  0
 10 11  1  0  0  0  0
 10 34  1  0  0  0  0
 10 35  1  0  0  0  0
 11 24  1  0  0  0  0
 11 12  1  0  0  0  0
 12 13  1  0  0  0  0
 12 18  2  0  0  0  0
 13 14  1  0  0  0  0
 13 15  1  0  0  0  0
 13 36  1  0  0  0  0
 14 37  1  0  0  0  0
 14 38  1  0  0  0  0
 14 39  1  0  0  0  0
 15 16  1  0  0  0  0
 15 40  1  0  0  0  0
 16 17  2  0  0  0  0
 16 41  1  0  0  0  0
 18 19  1  0  0  0  0
 18 46  1  0  0  0  0
 19 24  2  0  0  0  0
 19 20  1  0  0  0  0
 20 21  2  0  0  0  0
 20 42  1  0  0  0  0
 21 22  1  0  0  0  0
 21 43  1  0  0  0  0
 22 23  2  0  0  0  0
 22 44  1  0  0  0  0
 23 24  1  0  0  0  0
 23 45  1  0  0  0  0
M  CHG  1  18   1
M  END
> <s_m_source_file>
AV-unprocessed.smi

> <i_m_source_file_index>
2953

> <i_lp_mmshare_version>
43012

> <i_f3d_flags>
0

> <s_epik_input>
W0NIM11jMVtjSF1bY0hdW2NIXVtjSF1jMU9bQ0gyXVtDSDJdbihjKG4yKVtDQEhdKFtDSDNdKVtOSF1bQ0hdPU8pYyhjMjMpW2NIXVtjSF1bY0hdW2NIXTM=

> <s_epik_cmdline>
J2VwaWtfcHl0aG9uJywgJy1waCcsICc3LjAnLCAnLXRuJywgJzgnLCAnLW1hJywgJzIwMCcsICctbWV0YWxfYmluZGluZycsICctaW1hZScsICc8aW5maWxlLm1hZT4nLCAnLW9tYWUnLCAnPG91dGZpbGUubWFlPic=

> <r_lp_tautomer_probability>
1

> <r_epik_Ionization_Penalty>
1.14644

> <r_epik_Ionization_Penalty_Charging>
1.14644

> <r_epik_Ionization_Penalty_Neutral>
5.5802e-08

> <r_epik_State_Penalty>
1.20743

> <r_epik_Charging_Adjusted_Penalty>
2.35387

> <i_epik_Tot_Q>
1

> <i_epik_Tot_abs_Q>
1

> <r_epik_Metal_State_Penalty>
1.28856

> <b_epik_Metal_Only>
0

> <s_lp_Force_Field>
OPLS_2005

> <r_lp_Energy>
18.7543

> <b_lp_Chiralities_Consistent>
1

> <s_lp_Variant>
AV-unprocessed.smi:2953-3

> <Gold.Version>
5.8.1

> <Gold.Id.Protein>
6NUR|6NUR_protein|mol2

> <Gold.PLP.Fitness>
49.3973

> <Gold.PLP.PLP>
-39.6205

> <Gold.PLP.part.hbond>
-3.4397

> <Gold.PLP.part.metal>
0.0000

> <Gold.PLP.part.buried>
-0.1072

> <Gold.PLP.part.nonpolar>
-36.2921

> <Gold.PLP.part.repulsive>
0.1303

> <Gold.PLP.ligand.clash>
0.0000

> <Gold.PLP.ligand.torsion>
1.1813

> <Gold.PLP.Chemscore.Hbond>
4.0000

> <Gold.PLP.Chemscore.CHOScore>
0.0000

> <Gold.PLP.Chemscore.Metal>
0.0000

> <Gold.Chemscore.Hbonds>
donor molecule, donor type, donor heavy atom, donor atom, acceptor molecule, acceptor atom, score
      L1  H    15    40       P1  7948  0.83
      L1  H    18    46       P1  7948  2.00
      P1  H  6896  6908       L1     8  0.04

> <Gold.PLP.Chemscore.Internal.Correction>
0.1394

> <Gold.Rescore>
     Score         DG    S(hbond)    S(metal)    S(lipo)     H(rot)  DE(clash)    DE(int)     intcor
     16.77     -19.29       2.32        0.00     102.64       2.32       0.31       2.21       ----

> <Gold.Chemscore.Fitness>
16.7737

> <Gold.Chemscore.DG>
-19.2893

> <Gold.Chemscore.ZeroCoef>
-5.4800

> <Gold.Chemscore.Hbond>
2.3188

> <Gold.Chemscore.Metal>
0.0000

> <Gold.Chemscore.Lipo>
102.6447

> <Gold.Chemscore.Internal_Hbond>
0.0000

> <Gold.Chemscore.DEClash>
0.3053

> <Gold.Chemscore.DEInternal>
2.2103

> <Gold.Chemscore.Rot>
2.3223

> <Gold.Chemscore.Internal.Correction>
   9.000000E+99

> <Gold.Chemscore.Hbonds>
donor molecule, donor type, donor heavy atom, donor atom, acceptor molecule, acceptor atom, score
      L1  H    15    40       P1  7948  0.18
      L1  H    18    46       P1  7948  0.43
      P1  H  6896  6908       L1     8  0.01

> <Gold.Chemscore.Hbond.Weighted>
-7.7449

> <Gold.Chemscore.Metal.Weighted>
-0.0000

> <Gold.Chemscore.Lipo.Weighted>
-12.0094

> <Gold.Chemscore.Internal_Hbond.Weighted>
0.0000

> <Gold.Chemscore.DEClash.Weighted>
0.3053

> <Gold.Chemscore.DEInternal.Weighted>
2.2103

> <Gold.Chemscore.Rot.Weighted>
5.9450

> <Gold.Chemscore.Internal.Correction.Weighted>
   9.000000E+99

> <Gold.Protein.RotatedTorsions>
[ 6907 6896 6895 6894 ] final  154.83 input  -60.11 | X-H torsion
[ 7974 7965 7964 7962 ] final  -62.34 input  175.53 | X-H torsion
[ 8008 7997 7996 7995 ] final  -33.73 input   59.86 | X-H torsion
[ 10167 10162 10161 10158 ] final -113.41 input  -65.29 | X-H torsion
[ 10718 10713 10712 10709 ] final -169.63 input   66.30 | X-H torsion
[ 10763 10752 10751 10750 ] final   46.49 input  -60.55 | X-H torsion
[ 11005 11000 10999 10996 ] final   14.80 input  -57.11 | X-H torsion

> <Gold.Protein.ActiveResidues>
 VAL166  LYS551  ARG553  GLY616  TRP617  ASP618  TYR619  PRO620  LYS621  CYS622 
 ASP623  PHE694  ASN695  SER759  ASP760  ASP761  ALA762  ILE779  LEU786  VAL792 
 PHE793  MET794  SER795  GLU796  ALA797  LYS798  CYS799  TRP800  GLU811  SER814 

> <Gold.Protein.RotatedAtoms>
  152.0529  133.4027  159.4384 H   0  0  0  0  0  0  0  0  0  0  0  0  # atno 6907 bound_to 6896
  150.6869  134.3287  159.4827 H   0  0  0  0  0  0  0  0  0  0  0  0  # atno 6908 bound_to 6896
  152.1099  134.9281  160.0617 H   0  0  0  0  0  0  0  0  0  0  0  0  # atno 6909 bound_to 6896
  145.7924  140.8702  143.0273 H   0  0  0  0  0  0  0  0  0  0  0  0  # atno 7974 bound_to 7965
  154.4140  140.1703  156.1936 H   0  0  0  0  0  0  0  0  0  0  0  0  # atno 8008 bound_to 7997
  155.9583  140.3395  155.6444 H   0  0  0  0  0  0  0  0  0  0  0  0  # atno 8009 bound_to 7997
  155.6781  140.0719  157.2485 H   0  0  0  0  0  0  0  0  0  0  0  0  # atno 8010 bound_to 7997
  140.1121  143.4518  152.1746 H   0  0  0  0  0  0  0  0  0  0  0  0  # atno 10167 bound_to 10162
  156.7143  130.9245  151.3092 H   0  0  0  0  0  0  0  0  0  0  0  0  # atno 10718 bound_to 10713
  152.9810  135.6006  154.3609 H   0  0  0  0  0  0  0  0  0  0  0  0  # atno 10763 bound_to 10752
  154.3290  135.2769  155.2483 H   0  0  0  0  0  0  0  0  0  0  0  0  # atno 10764 bound_to 10752
  154.4615  135.5964  153.6315 H   0  0  0  0  0  0  0  0  0  0  0  0  # atno 10765 bound_to 10752
  140.4655  134.1084  155.7723 H   0  0  0  0  0  0  0  0  0  0  0  0  # atno 11005 bound_to 11000
  144.6780  140.0143  143.7484 LP  0  0  0  0  0  0  0  0  0  0  0  0  # atno 17320 bound_to 7965
  145.9962  139.3054  143.0955 LP  0  0  0  0  0  0  0  0  0  0  0  0  # atno 17321 bound_to 7965
  139.5613  144.7407  151.4146 LP  0  0  0  0  0  0  0  0  0  0  0  0  # atno 17342 bound_to 10162
  140.6920  143.7840  150.7269 LP  0  0  0  0  0  0  0  0  0  0  0  0  # atno 17343 bound_to 10162
  157.6923  130.9246  150.0549 LP  0  0  0  0  0  0  0  0  0  0  0  0  # atno 17370 bound_to 10713
  156.1639  130.3644  149.9260 LP  0  0  0  0  0  0  0  0  0  0  0  0  # atno 17371 bound_to 10713
  141.1601  133.8808  157.1870 LP  0  0  0  0  0  0  0  0  0  0  0  0  # atno 17394 bound_to 11000
  139.9918  135.0061  156.9993 LP  0  0  0  0  0  0  0  0  0  0  0  0  # atno 17395 bound_to 11000

$$$$
