AV-unprocessed.smi:552|AV-procd|sdf|2902|dock3
  -GOLD-   2262023393D 1   1.00000     0.00000
 Structure written by MMmdl.
 42 43  0  0  0  0  0  0  0  0  1 V2000
  146.7748  133.6634  152.2964 C   0  0  0  0  0  0  0  0  0  0  0  0
  147.6944  132.9642  153.3082 C   0  0  0  0  0  0  0  0  0  0  0  0
  147.8892  133.7541  154.6162 C   0  0  2  0  0  0  0  0  0  0  0  0
  146.5573  133.9653  155.3532 C   0  0  0  0  0  0  0  0  0  0  0  0
  148.5147  135.0456  154.3384 N   0  0  0  0  0  0  0  0  0  0  0  0
  148.9523  135.9131  155.2622 C   0  0  0  0  0  0  0  0  0  0  0  0
  148.8692  135.7167  156.4745 O   0  0  0  0  0  0  0  0  0  0  0  0
  149.4635  137.0159  154.6884 N   0  0  0  0  0  0  0  0  0  0  0  0
  150.0344  138.1522  155.3216 C   0  0  0  0  0  0  0  0  0  0  0  0
  150.5943  139.2497  154.6284 C   0  0  0  0  0  0  0  0  0  0  0  0
  151.1143  140.3296  155.3673 C   0  0  0  0  0  0  0  0  0  0  0  0
  151.0608  140.2933  156.7810 C   0  0  0  0  0  0  0  0  0  0  0  0
  151.5832  141.3626  157.5420 N   0  0  0  0  0  0  0  0  0  0  0  0
  151.2201  142.7242  157.1511 C   0  0  0  0  0  0  0  0  0  0  0  0
  152.0952  143.7484  157.8930 C   0  0  0  0  0  0  0  0  0  0  0  0
  151.9965  143.5357  159.2970 O   0  0  0  0  0  0  0  0  0  0  0  0
  152.4622  142.2431  159.6692 C   0  0  0  0  0  0  0  0  0  0  0  0
  151.6033  141.1627  158.9894 C   0  0  0  0  0  0  0  0  0  0  0  0
  150.5024  139.2480  157.4400 N   0  0  0  0  0  0  0  0  0  0  0  0
  150.0038  138.2158  156.7284 C   0  0  0  0  0  0  0  0  0  0  0  0
  146.7051  133.0855  151.3747 H   0  0  0  0  0  0  0  0  0  0  0  0
  147.1550  134.6524  152.0393 H   0  0  0  0  0  0  0  0  0  0  0  0
  145.7640  133.7835  152.6868 H   0  0  0  0  0  0  0  0  0  0  0  0
  147.2991  131.9721  153.5300 H   0  0  0  0  0  0  0  0  0  0  0  0
  148.6659  132.8042  152.8391 H   0  0  0  0  0  0  0  0  0  0  0  0
  148.5456  133.1684  155.2626 H   0  0  0  0  0  0  0  0  0  0  0  0
  146.0828  133.0117  155.5864 H   0  0  0  0  0  0  0  0  0  0  0  0
  145.8578  134.5464  154.7515 H   0  0  0  0  0  0  0  0  0  0  0  0
  146.7058  134.4946  156.2951 H   0  0  0  0  0  0  0  0  0  0  0  0
  148.6220  135.2953  153.3661 H   0  0  0  0  0  0  0  0  0  0  0  0
  149.3785  137.0757  153.6842 H   0  0  0  0  0  0  0  0  0  0  0  0
  150.6195  139.2931  153.5506 H   0  0  0  0  0  0  0  0  0  0  0  0
  151.5285  141.1760  154.8406 H   0  0  0  0  0  0  0  0  0  0  0  0
  151.3462  142.8561  156.0757 H   0  0  0  0  0  0  0  0  0  0  0  0
  150.1676  142.8966  157.3806 H   0  0  0  0  0  0  0  0  0  0  0  0
  153.1364  143.6740  157.5748 H   0  0  0  0  0  0  0  0  0  0  0  0
  151.7639  144.7612  157.6631 H   0  0  0  0  0  0  0  0  0  0  0  0
  153.5134  142.1312  159.3983 H   0  0  0  0  0  0  0  0  0  0  0  0
  152.4012  142.1433  160.7530 H   0  0  0  0  0  0  0  0  0  0  0  0
  150.5799  141.2099  159.3640 H   0  0  0  0  0  0  0  0  0  0  0  0
  151.9936  140.1826  159.2589 H   0  0  0  0  0  0  0  0  0  0  0  0
  149.5712  137.4110  157.3048 H   0  0  0  0  0  0  0  0  0  0  0  0
  1  2  1  0  0  0  0
  1 21  1  0  0  0  0
  1 22  1  0  0  0  0
  1 23  1  0  0  0  0
  2  3  1  0  0  0  0
  2 24  1  0  0  0  0
  2 25  1  0  0  0  0
  3  4  1  0  0  0  0
  3  5  1  0  0  0  0
  3 26  1  0  0  0  0
  4 27  1  0  0  0  0
  4 28  1  0  0  0  0
  4 29  1  0  0  0  0
  5  6  1  0  0  0  0
  5 30  1  0  0  0  0
  6  7  2  0  0  0  0
  6  8  1  0  0  0  0
  8  9  1  0  0  0  0
  8 31  1  0  0  0  0
  9 20  1  0  0  0  0
  9 10  2  0  0  0  0
 10 11  1  0  0  0  0
 10 32  1  0  0  0  0
 11 12  2  0  0  0  0
 11 33  1  0  0  0  0
 12 13  1  0  0  0  0
 12 19  1  0  0  0  0
 13 18  1  0  0  0  0
 13 14  1  0  0  0  0
 14 15  1  0  0  0  0
 14 34  1  0  0  0  0
 14 35  1  0  0  0  0
 15 16  1  0  0  0  0
 15 36  1  0  0  0  0
 15 37  1  0  0  0  0
 16 17  1  0  0  0  0
 17 18  1  0  0  0  0
 17 38  1  0  0  0  0
 17 39  1  0  0  0  0
 18 40  1  0  0  0  0
 18 41  1  0  0  0  0
 19 20  2  0  0  0  0
 20 42  1  0  0  0  0
M  END
> <s_m_source_file>
AV-unprocessed.smi

> <i_m_source_file_index>
552

> <i_lp_mmshare_version>
43012

> <i_f3d_flags>
0

> <s_epik_input>
W0NIM11bQ0gyXVtDQEhdKFtDSDNdKVtOSF1DKD1PKVtOSF1jMVtjSF1bY0hdYyhuW2NIXTEpTjJbQ0gyXVtDSDJdT1tDSDJdW0NIMl0y

> <s_epik_cmdline>
J2VwaWtfcHl0aG9uJywgJy1waCcsICc3LjAnLCAnLXRuJywgJzgnLCAnLW1hJywgJzIwMCcsICctbWV0YWxfYmluZGluZycsICctaW1hZScsICc8aW5maWxlLm1hZT4nLCAnLW9tYWUnLCAnPG91dGZpbGUubWFlPic=

> <r_lp_tautomer_probability>
1

> <r_epik_Ionization_Penalty>
0.00215965

> <r_epik_Ionization_Penalty_Charging>
0

> <r_epik_Ionization_Penalty_Neutral>
0.00215965

> <r_epik_State_Penalty>
0.00145276

> <r_epik_Charging_Adjusted_Penalty>
0.00145276

> <i_epik_Tot_Q>
0

> <i_epik_Tot_abs_Q>
0

> <r_epik_Metal_State_Penalty>
-0

> <b_epik_Metal_Only>
0

> <s_lp_Force_Field>
OPLS_2005

> <r_lp_Energy>
20.9108

> <b_lp_Chiralities_Consistent>
1

> <s_lp_Variant>
AV-unprocessed.smi:552-1

> <Gold.Version>
5.8.1

> <Gold.Id.Protein>
6NUR|6NUR_protein|mol2

> <Gold.PLP.Fitness>
38.8750

> <Gold.PLP.PLP>
-32.9630

> <Gold.PLP.part.hbond>
-2.0000

> <Gold.PLP.part.metal>
0.0000

> <Gold.PLP.part.buried>
-2.7323

> <Gold.PLP.part.nonpolar>
-28.8346

> <Gold.PLP.part.repulsive>
0.0770

> <Gold.PLP.ligand.clash>
0.0000

> <Gold.PLP.ligand.torsion>
0.2216

> <Gold.PLP.Chemscore.Hbond>
2.0000

> <Gold.PLP.Chemscore.CHOScore>
0.0000

> <Gold.PLP.Chemscore.Metal>
0.0000

> <Gold.Chemscore.Hbonds>
donor molecule, donor type, donor heavy atom, donor atom, acceptor molecule, acceptor atom, score
      L1  H     5    30       P1  7948  1.00
      L1  H     8    31       P1  7948  1.00

> <Gold.PLP.Chemscore.Internal.Correction>
0.3552

> <Gold.Rescore>
     Score         DG    S(hbond)    S(metal)    S(lipo)     H(rot)  DE(clash)    DE(int)     intcor
     14.30     -16.32       1.46        0.00      80.70       1.35       0.01       2.02       ----

> <Gold.Chemscore.Fitness>
14.2962

> <Gold.Chemscore.DG>
-16.3236

> <Gold.Chemscore.ZeroCoef>
-5.4800

> <Gold.Chemscore.Hbond>
1.4568

> <Gold.Chemscore.Metal>
0.0000

> <Gold.Chemscore.Lipo>
80.6962

> <Gold.Chemscore.Internal_Hbond>
0.0000

> <Gold.Chemscore.DEClash>
0.0097

> <Gold.Chemscore.DEInternal>
2.0176

> <Gold.Chemscore.Rot>
1.3530

> <Gold.Chemscore.Internal.Correction>
   9.000000E+99

> <Gold.Chemscore.Hbonds>
donor molecule, donor type, donor heavy atom, donor atom, acceptor molecule, acceptor atom, score
      L1  H     5    30       P1  7948  0.88
      L1  H     8    31       P1  7948  0.86

> <Gold.Chemscore.Hbond.Weighted>
-4.8659

> <Gold.Chemscore.Metal.Weighted>
-0.0000

> <Gold.Chemscore.Lipo.Weighted>
-9.4415

> <Gold.Chemscore.Internal_Hbond.Weighted>
0.0000

> <Gold.Chemscore.DEClash.Weighted>
0.0097

> <Gold.Chemscore.DEInternal.Weighted>
2.0176

> <Gold.Chemscore.Rot.Weighted>
3.4638

> <Gold.Chemscore.Internal.Correction.Weighted>
   9.000000E+99

> <Gold.Protein.RotatedTorsions>
[ 6907 6896 6895 6894 ] final -176.86 input  -60.11 | X-H torsion
[ 7974 7965 7964 7962 ] final  178.92 input  175.53 | X-H torsion
[ 8008 7997 7996 7995 ] final  148.16 input   59.86 | X-H torsion
[ 10167 10162 10161 10158 ] final   -7.83 input  -65.29 | X-H torsion
[ 10718 10713 10712 10709 ] final   38.91 input   66.30 | X-H torsion
[ 10763 10752 10751 10750 ] final  -67.63 input  -60.55 | X-H torsion
[ 11005 11000 10999 10996 ] final -129.84 input  -57.11 | X-H torsion

> <Gold.Protein.ActiveResidues>
 VAL166  LYS551  ARG553  GLY616  TRP617  ASP618  TYR619  PRO620  LYS621  CYS622 
 ASP623  PHE694  ASN695  SER759  ASP760  ASP761  ALA762  ILE779  LEU786  VAL792 
 PHE793  MET794  SER795  GLU796  ALA797  LYS798  CYS799  TRP800  GLU811  SER814 

> <Gold.Protein.RotatedAtoms>
  151.6117  133.3346  159.3068 H   0  0  0  0  0  0  0  0  0  0  0  0  # atno 6907 bound_to 6896
  150.8153  134.7335  159.6736 H   0  0  0  0  0  0  0  0  0  0  0  0  # atno 6908 bound_to 6896
  152.4249  134.5892  160.0021 H   0  0  0  0  0  0  0  0  0  0  0  0  # atno 6909 bound_to 6896
  144.7151  140.0470  143.6436 H   0  0  0  0  0  0  0  0  0  0  0  0  # atno 7974 bound_to 7965
  156.2800  140.2136  156.5654 H   0  0  0  0  0  0  0  0  0  0  0  0  # atno 8008 bound_to 7997
  154.7179  140.0506  157.0634 H   0  0  0  0  0  0  0  0  0  0  0  0  # atno 8009 bound_to 7997
  155.0518  140.3157  155.4692 H   0  0  0  0  0  0  0  0  0  0  0  0  # atno 8010 bound_to 7997
  140.7041  143.6037  150.8773 H   0  0  0  0  0  0  0  0  0  0  0  0  # atno 10167 bound_to 10162
  157.3644  130.7667  149.7072 H   0  0  0  0  0  0  0  0  0  0  0  0  # atno 10718 bound_to 10713
  154.3772  135.6082  153.5771 H   0  0  0  0  0  0  0  0  0  0  0  0  # atno 10763 bound_to 10752
  152.9789  135.5852  154.4452 H   0  0  0  0  0  0  0  0  0  0  0  0  # atno 10764 bound_to 10752
  154.4216  135.2846  155.1950 H   0  0  0  0  0  0  0  0  0  0  0  0  # atno 10765 bound_to 10752
  140.9397  134.1209  157.4161 H   0  0  0  0  0  0  0  0  0  0  0  0  # atno 11005 bound_to 11000
  145.9976  139.3065  143.0947 LP  0  0  0  0  0  0  0  0  0  0  0  0  # atno 17320 bound_to 7965
  145.8831  140.9351  143.0591 LP  0  0  0  0  0  0  0  0  0  0  0  0  # atno 17321 bound_to 7965
  139.9761  143.6003  152.2958 LP  0  0  0  0  0  0  0  0  0  0  0  0  # atno 17342 bound_to 10162
  139.6607  144.7662  151.1968 LP  0  0  0  0  0  0  0  0  0  0  0  0  # atno 17343 bound_to 10162
  155.9743  130.4105  150.3931 LP  0  0  0  0  0  0  0  0  0  0  0  0  # atno 17370 bound_to 10713
  157.2013  131.0438  151.2649 LP  0  0  0  0  0  0  0  0  0  0  0  0  # atno 17371 bound_to 10713
  139.8817  135.0032  156.6176 LP  0  0  0  0  0  0  0  0  0  0  0  0  # atno 17394 bound_to 11000
  140.7750  133.8706  155.8522 LP  0  0  0  0  0  0  0  0  0  0  0  0  # atno 17395 bound_to 11000

$$$$
