AV-unprocessed.smi:840|AV-procd|sdf|3914|dock2
  -GOLD-   22720 1373D 1   1.00000     0.00000
 Structure written by MMmdl.
 36 37  0  0  0  0  0  0  0  0  2 V2000
  152.4692  137.3769  160.2115 C   0  0  0  0  0  0  0  0  0  0  0  0
  151.5018  137.7204  159.0662 C   0  0  1  0  0  0  0  0  0  0  0  0
  150.1512  137.8022  159.6212 N   0  0  0  0  0  0  0  0  0  0  0  0
  149.2033  136.8569  159.5280 C   0  0  0  0  0  0  0  0  0  0  0  0
  149.4453  135.7995  158.9406 O   0  0  0  0  0  0  0  0  0  0  0  0
  148.0350  137.1954  160.1197 N   0  5  0  0  0  0  0  0  0  0  0  0
  147.3003  136.2583  160.7406 C   0  0  0  0  0  0  0  0  0  0  0  0
  146.1707  136.5381  161.4005 N   0  0  0  0  0  0  0  0  0  0  0  0
  145.5645  135.4148  161.9655 C   0  0  0  0  0  0  0  0  0  0  0  0
  146.2440  134.2507  161.7231 C   0  0  0  0  0  0  0  0  0  0  0  0
  147.6734  134.5323  160.7705 S   0  0  0  0  0  0  0  0  0  0  0  0
  151.9166  139.0760  158.4729 C   0  0  0  0  0  0  0  0  0  0  0  0
  152.9869  139.1991  157.8748 O   0  0  0  0  0  0  0  0  0  0  0  0
  151.0484  140.0847  158.6399 N   0  0  0  0  0  0  0  0  0  0  0  0
  151.2488  141.4515  158.1672 C   0  0  0  0  0  0  0  0  0  0  0  0
  152.3585  142.1696  158.9624 C   0  0  0  0  0  0  0  0  0  0  0  0
  151.6526  143.2215  159.8184 C   0  0  0  0  0  0  0  0  0  0  0  0
  150.4230  143.6048  159.0016 C   0  0  0  0  0  0  0  0  0  0  0  0
  149.9718  142.2918  158.3600 C   0  0  0  0  0  0  0  0  0  0  0  0
  153.4960  137.2997  159.8523 H   0  0  0  0  0  0  0  0  0  0  0  0
  152.2109  136.4185  160.6629 H   0  0  0  0  0  0  0  0  0  0  0  0
  152.4482  138.1284  161.0024 H   0  0  0  0  0  0  0  0  0  0  0  0
  151.5474  136.9386  158.3054 H   0  0  0  0  0  0  0  0  0  0  0  0
  149.9089  138.6540  160.1052 H   0  0  0  0  0  0  0  0  0  0  0  0
  144.6489  135.5367  162.5248 H   0  0  0  0  0  0  0  0  0  0  0  0
  145.9925  133.2508  162.0426 H   0  0  0  0  0  0  0  0  0  0  0  0
  150.1967  139.8954  159.1480 H   0  0  0  0  0  0  0  0  0  0  0  0
  151.5140  141.4351  157.1084 H   0  0  0  0  0  0  0  0  0  0  0  0
  152.9673  141.4959  159.5676 H   0  0  0  0  0  0  0  0  0  0  0  0
  153.0333  142.6670  158.2646 H   0  0  0  0  0  0  0  0  0  0  0  0
  151.3416  142.7766  160.7645 H   0  0  0  0  0  0  0  0  0  0  0  0
  152.2911  144.0759  160.0449 H   0  0  0  0  0  0  0  0  0  0  0  0
  149.6426  144.0664  159.6072 H   0  0  0  0  0  0  0  0  0  0  0  0
  150.7070  144.3152  158.2242 H   0  0  0  0  0  0  0  0  0  0  0  0
  149.4424  142.4578  157.4213 H   0  0  0  0  0  0  0  0  0  0  0  0
  149.2781  141.7885  159.0355 H   0  0  0  0  0  0  0  0  0  0  0  0
  1  2  1  0  0  0  0
  1 20  1  0  0  0  0
  1 21  1  0  0  0  0
  1 22  1  0  0  0  0
  2  3  1  0  0  0  0
  2 12  1  0  0  0  0
  2 23  1  0  0  0  0
  3  4  1  0  0  0  0
  3 24  1  0  0  0  0
  4  5  2  0  0  0  0
  4  6  1  0  0  0  0
  6  7  1  0  0  0  0
  7 11  1  0  0  0  0
  7  8  2  0  0  0  0
  8  9  1  0  0  0  0
  9 10  2  0  0  0  0
  9 25  1  0  0  0  0
 10 11  1  0  0  0  0
 10 26  1  0  0  0  0
 12 13  2  0  0  0  0
 12 14  1  0  0  0  0
 14 15  1  0  0  0  0
 14 27  1  0  0  0  0
 15 19  1  0  0  0  0
 15 16  1  0  0  0  0
 15 28  1  0  0  0  0
 16 17  1  0  0  0  0
 16 29  1  0  0  0  0
 16 30  1  0  0  0  0
 17 18  1  0  0  0  0
 17 31  1  0  0  0  0
 17 32  1  0  0  0  0
 18 19  1  0  0  0  0
 18 33  1  0  0  0  0
 18 34  1  0  0  0  0
 19 35  1  0  0  0  0
 19 36  1  0  0  0  0
M  CHG  1   6  -1
M  END
> <s_m_source_file>
AV-unprocessed.smi

> <i_m_source_file_index>
840

> <i_lp_mmshare_version>
43012

> <i_f3d_flags>
0

> <s_epik_input>
W0NIMl0xW0NIMl1bQ0gyXVtDSDJdW0NIXTFbTkhdQyg9TylbQ0BIXShbQ0gzXSlbTkhdQyg9TylbTkhdYzJuW2NIXVtjSF1zMg==

> <s_epik_cmdline>
J2VwaWtfcHl0aG9uJywgJy1waCcsICc3LjAnLCAnLXRuJywgJzgnLCAnLW1hJywgJzIwMCcsICctbWV0YWxfYmluZGluZycsICctaW1hZScsICc8aW5maWxlLm1hZT4nLCAnLW9tYWUnLCAnPG91dGZpbGUubWFlPic=

> <r_lp_tautomer_probability>
1

> <r_epik_Ionization_Penalty>
6.35467

> <r_epik_Ionization_Penalty_Charging>
5.47395

> <r_epik_Ionization_Penalty_Neutral>
0.880717

> <r_epik_State_Penalty>
5.4739

> <r_epik_Charging_Adjusted_Penalty>
10.9479

> <i_epik_Tot_Q>
-1

> <i_epik_Tot_abs_Q>
1

> <r_epik_Metal_State_Penalty>
1.48639

> <b_epik_Metal_Only>
1

> <s_lp_Force_Field>
OPLS_2005

> <r_lp_Energy>
13.1034

> <b_lp_Chiralities_Consistent>
1

> <s_lp_Variant>
AV-unprocessed.smi:840-4

> <Gold.Version>
5.8.1

> <Gold.Id.Protein>
6NUR|6NUR_protein|mol2

> <Gold.PLP.Fitness>
39.9581

> <Gold.PLP.PLP>
-28.1609

> <Gold.PLP.part.hbond>
-4.0000

> <Gold.PLP.part.metal>
0.0000

> <Gold.PLP.part.buried>
-4.1550

> <Gold.PLP.part.nonpolar>
-24.5234

> <Gold.PLP.part.repulsive>
2.1848

> <Gold.PLP.ligand.clash>
0.0000

> <Gold.PLP.ligand.torsion>
0.6604

> <Gold.PLP.Chemscore.Hbond>
4.3648

> <Gold.PLP.Chemscore.CHOScore>
0.0000

> <Gold.PLP.Chemscore.Metal>
0.0000

> <Gold.Chemscore.Hbonds>
donor molecule, donor type, donor heavy atom, donor atom, acceptor molecule, acceptor atom, score
      P1  H  6896  6908       L1     5  1.00
      P1  H  6931  6943       L1     6  0.31
      P1  H  6934  6947       L1     6  0.96
      P1  H  7997  8009       L1    13  1.00

> <Gold.PLP.Chemscore.Internal.Correction>
0.0235

> <Gold.Rescore>
     Score         DG    S(hbond)    S(metal)    S(lipo)     H(rot)  DE(clash)    DE(int)     intcor
     14.47     -17.37       2.25        0.00      72.86       1.62       0.82       2.08       ----

> <Gold.Chemscore.Fitness>
14.4709

> <Gold.Chemscore.DG>
-17.3667

> <Gold.Chemscore.ZeroCoef>
-5.4800

> <Gold.Chemscore.Hbond>
2.2486

> <Gold.Chemscore.Metal>
0.0000

> <Gold.Chemscore.Lipo>
72.8609

> <Gold.Chemscore.Internal_Hbond>
0.0000

> <Gold.Chemscore.DEClash>
0.8153

> <Gold.Chemscore.DEInternal>
2.0805

> <Gold.Chemscore.Rot>
1.6204

> <Gold.Chemscore.Internal.Correction>
   9.000000E+99

> <Gold.Chemscore.Hbonds>
donor molecule, donor type, donor heavy atom, donor atom, acceptor molecule, acceptor atom, score
      P1  H  6896  6908       L1     5  0.95
      P1  H  6931  6943       L1     6  0.01
      P1  H  6934  6947       L1     6  0.17
      P1  H  7997  8009       L1    13  0.97

> <Gold.Chemscore.Hbond.Weighted>
-7.5102

> <Gold.Chemscore.Metal.Weighted>
-0.0000

> <Gold.Chemscore.Lipo.Weighted>
-8.5247

> <Gold.Chemscore.Internal_Hbond.Weighted>
0.0000

> <Gold.Chemscore.DEClash.Weighted>
0.8153

> <Gold.Chemscore.DEInternal.Weighted>
2.0805

> <Gold.Chemscore.Rot.Weighted>
4.1481

> <Gold.Chemscore.Internal.Correction.Weighted>
   9.000000E+99

> <Gold.Protein.RotatedTorsions>
[ 6907 6896 6895 6894 ] final  159.06 input  -60.11 | X-H torsion
[ 7974 7965 7964 7962 ] final -159.58 input  175.53 | X-H torsion
[ 8008 7997 7996 7995 ] final  155.30 input   59.86 | X-H torsion
[ 10167 10162 10161 10158 ] final  170.32 input  -65.29 | X-H torsion
[ 10718 10713 10712 10709 ] final   72.32 input   66.30 | X-H torsion
[ 10763 10752 10751 10750 ] final  -45.96 input  -60.55 | X-H torsion
[ 11005 11000 10999 10996 ] final   27.88 input  -57.11 | X-H torsion

> <Gold.Protein.ActiveResidues>
 VAL166  LYS551  ARG553  GLY616  TRP617  ASP618  TYR619  PRO620  LYS621  CYS622 
 ASP623  PHE694  ASN695  SER759  ASP760  ASP761  ALA762  ILE779  LEU786  VAL792 
 PHE793  MET794  SER795  GLU796  ALA797  LYS798  CYS799  TRP800  GLU811  SER814 

> <Gold.Protein.RotatedAtoms>
  151.9912  133.3791  159.4144 H   0  0  0  0  0  0  0  0  0  0  0  0  # atno 6907 bound_to 6896
  150.6921  134.3934  159.5096 H   0  0  0  0  0  0  0  0  0  0  0  0  # atno 6908 bound_to 6896
  152.1668  134.8867  160.0588 H   0  0  0  0  0  0  0  0  0  0  0  0  # atno 6909 bound_to 6896
  144.7459  140.3664  143.6085 H   0  0  0  0  0  0  0  0  0  0  0  0  # atno 7974 bound_to 7965
  156.2485  140.1943  156.6780 H   0  0  0  0  0  0  0  0  0  0  0  0  # atno 8008 bound_to 7997
  154.6343  140.0591  156.9796 H   0  0  0  0  0  0  0  0  0  0  0  0  # atno 8009 bound_to 7997
  155.1661  140.3264  155.4404 H   0  0  0  0  0  0  0  0  0  0  0  0  # atno 8010 bound_to 7997
  139.5015  144.3609  151.9826 H   0  0  0  0  0  0  0  0  0  0  0  0  # atno 10167 bound_to 10162
  157.6495  130.9572  150.0912 H   0  0  0  0  0  0  0  0  0  0  0  0  # atno 10718 bound_to 10713
  154.0372  135.6649  153.4786 H   0  0  0  0  0  0  0  0  0  0  0  0  # atno 10763 bound_to 10752
  153.0516  135.5081  154.7877 H   0  0  0  0  0  0  0  0  0  0  0  0  # atno 10764 bound_to 10752
  154.6841  135.3050  154.9537 H   0  0  0  0  0  0  0  0  0  0  0  0  # atno 10765 bound_to 10752
  140.3215  134.2538  155.7716 H   0  0  0  0  0  0  0  0  0  0  0  0  # atno 11005 bound_to 11000
  145.7124  139.1688  143.2531 LP  0  0  0  0  0  0  0  0  0  0  0  0  # atno 17320 bound_to 7965
  146.1337  140.7151  142.9400 LP  0  0  0  0  0  0  0  0  0  0  0  0  # atno 17321 bound_to 7965
  140.3045  144.3608  150.6051 LP  0  0  0  0  0  0  0  0  0  0  0  0  # atno 17342 bound_to 10162
  140.5847  143.2170  151.7364 LP  0  0  0  0  0  0  0  0  0  0  0  0  # atno 17343 bound_to 10162
  156.1860  130.3652  149.8972 LP  0  0  0  0  0  0  0  0  0  0  0  0  # atno 17370 bound_to 10713
  156.6912  130.8896  151.3588 LP  0  0  0  0  0  0  0  0  0  0  0  0  # atno 17371 bound_to 10713
  141.2085  133.7775  157.0053 LP  0  0  0  0  0  0  0  0  0  0  0  0  # atno 17394 bound_to 11000
  140.0938  134.9577  157.1817 LP  0  0  0  0  0  0  0  0  0  0  0  0  # atno 17395 bound_to 11000

$$$$
