AV-unprocessed.smi:2154|AV-procd|sdf|8771|dock7
  -GOLD-   2272011553D 1   1.00000     0.00000
 Structure written by MMmdl.
 32 33  0  0  0  0  0  0  0  0  1 V2000
  152.2310  143.3253  160.8255 C   0  0  0  0  0  0  0  0  0  0  0  0
  151.2012  144.3260  160.3399 C   0  0  1  0  0  0  0  0  0  0  0  0
  151.6311  145.6442  159.7409 C   0  0  0  0  0  0  0  0  0  0  0  0
  150.9693  144.6028  158.8672 C   0  0  1  0  0  0  0  0  0  0  0  0
  151.7490  143.8817  157.7807 C   0  0  0  0  0  0  0  0  0  0  0  0
  150.9349  143.1003  156.8596 N   0  0  0  0  0  0  0  0  0  0  0  0
  151.0555  141.7794  156.6591 C   0  0  0  0  0  0  0  0  0  0  0  0
  151.8668  141.0773  157.2645 O   0  0  0  0  0  0  0  0  0  0  0  0
  150.0953  141.1615  155.6325 C   0  0  0  0  0  0  0  0  0  0  0  0
  150.3405  139.7300  155.4043 N   0  0  0  0  0  0  0  0  0  0  0  0
  149.2973  138.8184  155.4861 C   0  0  0  0  0  0  0  0  0  0  0  0
  149.4536  137.4869  155.2948 C   0  0  0  0  0  0  0  0  0  0  0  0
  150.7680  136.9345  154.9853 C   0  0  0  0  0  0  0  0  0  0  0  0
  151.0103  135.7451  154.7933 O   0  0  0  0  0  0  0  0  0  0  0  0
  151.7923  137.8826  154.9149 N   0  0  0  0  0  0  0  0  0  0  0  0
  151.6381  139.2558  155.1124 C   0  0  0  0  0  0  0  0  0  0  0  0
  152.6108  140.0051  155.0305 O   0  0  0  0  0  0  0  0  0  0  0  0
  152.7210  137.5462  154.7058 H   0  0  0  0  0  0  0  0  0  0  0  0
  153.1587  143.4044  160.2590 H   0  0  0  0  0  0  0  0  0  0  0  0
  151.8442  142.3112  160.7242 H   0  0  0  0  0  0  0  0  0  0  0  0
  152.4577  143.5066  161.8762 H   0  0  0  0  0  0  0  0  0  0  0  0
  150.3078  144.3536  160.9609 H   0  0  0  0  0  0  0  0  0  0  0  0
  151.0484  146.5269  159.9956 H   0  0  0  0  0  0  0  0  0  0  0  0
  152.6967  145.8163  159.6024 H   0  0  0  0  0  0  0  0  0  0  0  0
  149.9308  144.7881  158.5989 H   0  0  0  0  0  0  0  0  0  0  0  0
  152.3540  144.5938  157.2177 H   0  0  0  0  0  0  0  0  0  0  0  0
  152.4478  143.1974  158.2621 H   0  0  0  0  0  0  0  0  0  0  0  0
  150.2385  143.6011  156.3269 H   0  0  0  0  0  0  0  0  0  0  0  0
  149.0755  141.3193  155.9863 H   0  0  0  0  0  0  0  0  0  0  0  0
  150.1601  141.7074  154.6888 H   0  0  0  0  0  0  0  0  0  0  0  0
  148.3062  139.1820  155.7178 H   0  0  0  0  0  0  0  0  0  0  0  0
  148.6019  136.8266  155.3722 H   0  0  0  0  0  0  0  0  0  0  0  0
  1  2  1  0  0  0  0
  1 19  1  0  0  0  0
  1 20  1  0  0  0  0
  1 21  1  0  0  0  0
  2  4  1  0  0  0  0
  2  3  1  0  0  0  0
  2 22  1  0  0  0  0
  3  4  1  0  0  0  0
  3 23  1  0  0  0  0
  3 24  1  0  0  0  0
  4  5  1  0  0  0  0
  4 25  1  0  0  0  0
  5  6  1  0  0  0  0
  5 26  1  0  0  0  0
  5 27  1  0  0  0  0
  6  7  1  0  0  0  0
  6 28  1  0  0  0  0
  7  8  2  0  0  0  0
  7  9  1  0  0  0  0
  9 10  1  0  0  0  0
  9 29  1  0  0  0  0
  9 30  1  0  0  0  0
 10 16  1  0  0  0  0
 10 11  1  0  0  0  0
 11 12  2  0  0  0  0
 11 31  1  0  0  0  0
 12 13  1  0  0  0  0
 12 32  1  0  0  0  0
 13 14  2  0  0  0  0
 13 15  1  0  0  0  0
 15 18  1  0  0  0  0
 15 16  1  0  0  0  0
 16 17  2  0  0  0  0
M  END
> <s_m_source_file>
AV-unprocessed.smi

> <i_m_source_file_index>
2154

> <i_lp_mmshare_version>
43012

> <i_f3d_flags>
0

> <s_epik_input>
W0NIM11bQ0BASF0xW0NIMl1bQ0BIXTFbQ0gyXVtOSF1DKD1PKVtDSDJdbjJbY0hdW2NIXWMoPU8pW25IXWMyPU8=

> <s_epik_cmdline>
J2VwaWtfcHl0aG9uJywgJy1waCcsICc3LjAnLCAnLXRuJywgJzgnLCAnLW1hJywgJzIwMCcsICctbWV0YWxfYmluZGluZycsICctaW1hZScsICc8aW5maWxlLm1hZT4nLCAnLW9tYWUnLCAnPG91dGZpbGUubWFlPic=

> <r_lp_tautomer_probability>
0.999537

> <r_epik_Ionization_Penalty>
0.00305319

> <r_epik_Ionization_Penalty_Charging>
0.00305317

> <r_epik_Ionization_Penalty_Neutral>
2.06703e-08

> <r_epik_State_Penalty>
0.00214626

> <r_epik_Charging_Adjusted_Penalty>
0.00519944

> <i_epik_Tot_Q>
0

> <i_epik_Tot_abs_Q>
0

> <r_epik_Metal_State_Penalty>
0.361976

> <b_epik_Metal_Only>
0

> <s_lp_Force_Field>
OPLS_2005

> <r_lp_Energy>
15.5744

> <b_lp_Chiralities_Consistent>
1

> <s_lp_Variant>
AV-unprocessed.smi:2154-2

> <Gold.Version>
5.8.1

> <Gold.Id.Protein>
6NUR|6NUR_protein|mol2

> <Gold.PLP.Fitness>
45.0068

> <Gold.PLP.PLP>
-35.8085

> <Gold.PLP.part.hbond>
-3.9631

> <Gold.PLP.part.metal>
0.0000

> <Gold.PLP.part.buried>
-4.2520

> <Gold.PLP.part.nonpolar>
-28.3252

> <Gold.PLP.part.repulsive>
0.3576

> <Gold.PLP.ligand.clash>
0.0000

> <Gold.PLP.ligand.torsion>
0.5013

> <Gold.PLP.Chemscore.Hbond>
3.2228

> <Gold.PLP.Chemscore.CHOScore>
0.0000

> <Gold.PLP.Chemscore.Metal>
0.0000

> <Gold.Chemscore.Hbonds>
donor molecule, donor type, donor heavy atom, donor atom, acceptor molecule, acceptor atom, score
      L1  H     6    28       P1  8028  1.00
      P1  H  7989  7998       L1    17  0.18
      P1  H  7997  8008       L1    17  0.98
      P1  H 10752 10765       L1    14  1.00

> <Gold.PLP.Chemscore.Internal.Correction>
0.5327

> <Gold.Rescore>
     Score         DG    S(hbond)    S(metal)    S(lipo)     H(rot)  DE(clash)    DE(int)     intcor
     12.58     -17.71       2.72        0.00      70.91       2.01       0.21       4.92       ----

> <Gold.Chemscore.Fitness>
12.5779

> <Gold.Chemscore.DG>
-17.7089

> <Gold.Chemscore.ZeroCoef>
-5.4800

> <Gold.Chemscore.Hbond>
2.7152

> <Gold.Chemscore.Metal>
0.0000

> <Gold.Chemscore.Lipo>
70.9137

> <Gold.Chemscore.Internal_Hbond>
0.0000

> <Gold.Chemscore.DEClash>
0.2083

> <Gold.Chemscore.DEInternal>
4.9228

> <Gold.Chemscore.Rot>
2.0065

> <Gold.Chemscore.Internal.Correction>
   9.000000E+99

> <Gold.Chemscore.Hbonds>
donor molecule, donor type, donor heavy atom, donor atom, acceptor molecule, acceptor atom, score
      L1  H     6    28       P1  8028  1.00
      P1  H  7997  8008       L1    17  0.91
      P1  H 10752 10765       L1    14  0.64

> <Gold.Chemscore.Hbond.Weighted>
-9.0687

> <Gold.Chemscore.Metal.Weighted>
-0.0000

> <Gold.Chemscore.Lipo.Weighted>
-8.2969

> <Gold.Chemscore.Internal_Hbond.Weighted>
0.0000

> <Gold.Chemscore.DEClash.Weighted>
0.2083

> <Gold.Chemscore.DEInternal.Weighted>
4.9228

> <Gold.Chemscore.Rot.Weighted>
5.1366

> <Gold.Chemscore.Internal.Correction.Weighted>
   9.000000E+99

> <Gold.Protein.RotatedTorsions>
[ 6907 6896 6895 6894 ] final   57.87 input  -60.11 | X-H torsion
[ 7974 7965 7964 7962 ] final -157.27 input  175.53 | X-H torsion
[ 8008 7997 7996 7995 ] final  -23.48 input   59.86 | X-H torsion
[ 10167 10162 10161 10158 ] final  139.26 input  -65.29 | X-H torsion
[ 10718 10713 10712 10709 ] final  127.98 input   66.30 | X-H torsion
[ 10763 10752 10751 10750 ] final -175.41 input  -60.55 | X-H torsion
[ 11005 11000 10999 10996 ] final  166.65 input  -57.11 | X-H torsion

> <Gold.Protein.ActiveResidues>
 VAL166  LYS551  ARG553  GLY616  TRP617  ASP618  TYR619  PRO620  LYS621  CYS622 
 ASP623  PHE694  ASN695  SER759  ASP760  ASP761  ALA762  ILE779  LEU786  VAL792 
 PHE793  MET794  SER795  GLU796  ALA797  LYS798  CYS799  TRP800  GLU811  SER814 

> <Gold.Protein.RotatedAtoms>
  152.3772  134.6646  160.0155 H   0  0  0  0  0  0  0  0  0  0  0  0  # atno 6907 bound_to 6896
  151.6921  133.3305  159.3253 H   0  0  0  0  0  0  0  0  0  0  0  0  # atno 6908 bound_to 6896
  150.7718  134.6625  159.6392 H   0  0  0  0  0  0  0  0  0  0  0  0  # atno 6909 bound_to 6896
  144.7555  140.3992  143.6015 H   0  0  0  0  0  0  0  0  0  0  0  0  # atno 7974 bound_to 7965
  154.4583  140.1979  156.0317 H   0  0  0  0  0  0  0  0  0  0  0  0  # atno 8008 bound_to 7997
  156.0790  140.3274  155.7641 H   0  0  0  0  0  0  0  0  0  0  0  0  # atno 8009 bound_to 7997
  155.5142  140.0564  157.2909 H   0  0  0  0  0  0  0  0  0  0  0  0  # atno 8010 bound_to 7997
  139.5084  144.6305  151.5829 H   0  0  0  0  0  0  0  0  0  0  0  0  # atno 10167 bound_to 10162
  157.5285  131.1098  150.9046 H   0  0  0  0  0  0  0  0  0  0  0  0  # atno 10718 bound_to 10713
  154.5847  135.2839  155.0697 H   0  0  0  0  0  0  0  0  0  0  0  0  # atno 10763 bound_to 10752
  154.2020  135.6423  153.5093 H   0  0  0  0  0  0  0  0  0  0  0  0  # atno 10764 bound_to 10752
  153.0100  135.5471  154.6512 H   0  0  0  0  0  0  0  0  0  0  0  0  # atno 10765 bound_to 10752
  140.2687  134.7844  157.3655 H   0  0  0  0  0  0  0  0  0  0  0  0  # atno 11005 bound_to 11000
  145.6793  139.1615  143.2710 LP  0  0  0  0  0  0  0  0  0  0  0  0  # atno 17320 bound_to 7965
  146.1560  140.6856  142.9299 LP  0  0  0  0  0  0  0  0  0  0  0  0  # atno 17321 bound_to 7965
  140.6036  143.9565  150.6403 LP  0  0  0  0  0  0  0  0  0  0  0  0  # atno 17342 bound_to 10162
  140.2784  143.3406  152.1173 LP  0  0  0  0  0  0  0  0  0  0  0  0  # atno 17343 bound_to 10162
  156.9635  130.5464  149.5287 LP  0  0  0  0  0  0  0  0  0  0  0  0  # atno 17370 bound_to 10713
  156.0404  130.5487  150.8758 LP  0  0  0  0  0  0  0  0  0  0  0  0  # atno 17371 bound_to 10713
  140.1394  134.4991  155.8043 LP  0  0  0  0  0  0  0  0  0  0  0  0  # atno 17394 bound_to 11000
  141.2180  133.6819  156.7183 LP  0  0  0  0  0  0  0  0  0  0  0  0  # atno 17395 bound_to 11000

$$$$
