AV-unprocessed.smi:1033|AV-procd|sdf|4505|dock10
  -GOLD-   22720 2503D 1   1.00000     0.00000
 Structure written by MMmdl.
 57 59  0  0  0  0  0  0  0  0  3 V2000
  151.7814  145.0047  160.5459 C   0  0  0  0  0  0  0  0  0  0  0  0
  151.7888  143.8085  159.6094 C   0  0  0  0  0  0  0  0  0  0  0  0
  151.0471  143.8875  158.4088 C   0  0  0  0  0  0  0  0  0  0  0  0
  151.0752  142.7783  157.5718 C   0  0  0  0  0  0  0  0  0  0  0  0
  150.4620  142.5456  156.3388 N   0  3  0  0  0  0  0  0  0  0  0  0
  150.7877  141.2992  155.8969 C   0  0  0  0  0  0  0  0  0  0  0  0
  151.5959  140.7311  156.8329 N   0  0  0  0  0  0  0  0  0  0  0  0
  152.2301  139.4066  156.8556 C   0  0  0  0  0  0  0  0  0  0  0  0
  151.4215  138.3700  157.6642 C   0  0  1  0  0  0  0  0  0  0  0  0
  151.0961  138.8570  158.9511 O   0  0  0  0  0  0  0  0  0  0  0  0
  150.1562  137.8482  156.9488 C   0  0  0  0  0  0  0  0  0  0  0  0
  150.3515  137.1947  155.6467 N   0  0  0  0  0  0  0  0  0  0  0  0
  149.3523  136.1595  155.3830 C   0  0  0  0  0  0  0  0  0  0  0  0
  147.9478  136.7283  155.0907 C   0  0  0  0  0  0  0  0  0  0  0  0
  147.9964  137.6770  153.9480 N   0  3  0  0  0  0  0  0  0  0  0  0
  146.6541  138.2044  153.5947 C   0  0  0  0  0  0  0  0  0  0  0  0
  146.6120  138.8561  152.1977 C   0  0  1  0  0  0  0  0  0  0  0  0
  147.1227  140.3047  152.1912 C   0  0  0  0  0  0  0  0  0  0  0  0
  147.4278  138.0983  151.3298 O   0  0  0  0  0  0  0  0  0  0  0  0
  149.0103  138.7386  154.1886 C   0  0  0  0  0  0  0  0  0  0  0  0
  150.3807  138.1053  154.4995 C   0  0  0  0  0  0  0  0  0  0  0  0
  151.8063  141.6185  157.8934 C   0  0  0  0  0  0  0  0  0  0  0  0
  152.5432  141.5237  159.0712 C   0  0  0  0  0  0  0  0  0  0  0  0
  152.5275  142.6415  159.9360 C   0  0  0  0  0  0  0  0  0  0  0  0
  153.3224  142.5683  161.2286 C   0  0  0  0  0  0  0  0  0  0  0  0
  151.1472  145.8058  160.1649 H   0  0  0  0  0  0  0  0  0  0  0  0
  152.7889  145.4045  160.6627 H   0  0  0  0  0  0  0  0  0  0  0  0
  151.4043  144.7217  161.5289 H   0  0  0  0  0  0  0  0  0  0  0  0
  150.4834  144.7728  158.1528 H   0  0  0  0  0  0  0  0  0  0  0  0
  150.4620  140.8438  154.9726 H   0  0  0  0  0  0  0  0  0  0  0  0
  152.3411  139.0867  155.8191 H   0  0  0  0  0  0  0  0  0  0  0  0
  153.2392  139.5134  157.2557 H   0  0  0  0  0  0  0  0  0  0  0  0
  152.0596  137.5041  157.8421 H   0  0  0  0  0  0  0  0  0  0  0  0
  150.9572  138.1186  159.5240 H   0  0  0  0  0  0  0  0  0  0  0  0
  149.7080  137.1136  157.6192 H   0  0  0  0  0  0  0  0  0  0  0  0
  149.4227  138.6509  156.8776 H   0  0  0  0  0  0  0  0  0  0  0  0
  149.6763  135.5633  154.5287 H   0  0  0  0  0  0  0  0  0  0  0  0
  149.3038  135.4669  156.2241 H   0  0  0  0  0  0  0  0  0  0  0  0
  147.2724  135.9060  154.8520 H   0  0  0  0  0  0  0  0  0  0  0  0
  147.5359  137.2253  155.9700 H   0  0  0  0  0  0  0  0  0  0  0  0
  145.9284  137.3894  153.6173 H   0  0  0  0  0  0  0  0  0  0  0  0
  146.3375  138.9154  154.3600 H   0  0  0  0  0  0  0  0  0  0  0  0
  145.6027  138.8248  151.7887 H   0  0  0  0  0  0  0  0  0  0  0  0
  146.5009  140.9462  152.8158 H   0  0  0  0  0  0  0  0  0  0  0  0
  147.1087  140.7202  151.1829 H   0  0  0  0  0  0  0  0  0  0  0  0
  148.1459  140.3690  152.5632 H   0  0  0  0  0  0  0  0  0  0  0  0
  147.8601  137.4225  151.8301 H   0  0  0  0  0  0  0  0  0  0  0  0
  149.1106  139.3701  153.3069 H   0  0  0  0  0  0  0  0  0  0  0  0
  148.6885  139.3890  155.0029 H   0  0  0  0  0  0  0  0  0  0  0  0
  151.1285  138.8831  154.6462 H   0  0  0  0  0  0  0  0  0  0  0  0
  150.7154  137.5522  153.6207 H   0  0  0  0  0  0  0  0  0  0  0  0
  153.1052  140.6353  159.3193 H   0  0  0  0  0  0  0  0  0  0  0  0
  153.8390  141.6129  161.3261 H   0  0  0  0  0  0  0  0  0  0  0  0
  152.6643  142.6805  162.0905 H   0  0  0  0  0  0  0  0  0  0  0  0
  154.0738  143.3575  161.2608 H   0  0  0  0  0  0  0  0  0  0  0  0
  148.3156  137.1412  153.1536 H   0  0  0  0  0  0  0  0  0  0  0  0
  149.8668  143.1890  155.8326 H   0  0  0  0  0  0  0  0  0  0  0  0
  1  2  1  0  0  0  0
  1 26  1  0  0  0  0
  1 27  1  0  0  0  0
  1 28  1  0  0  0  0
  2 24  1  0  0  0  0
  2  3  2  0  0  0  0
  3  4  1  0  0  0  0
  3 29  1  0  0  0  0
  4 22  2  0  0  0  0
  4  5  1  0  0  0  0
  5  6  2  0  0  0  0
  5 57  1  0  0  0  0
  6  7  1  0  0  0  0
  6 30  1  0  0  0  0
  7  8  1  0  0  0  0
  7 22  1  0  0  0  0
  8  9  1  0  0  0  0
  8 31  1  0  0  0  0
  8 32  1  0  0  0  0
  9 10  1  0  0  0  0
  9 11  1  0  0  0  0
  9 33  1  0  0  0  0
 10 34  1  0  0  0  0
 11 12  1  0  0  0  0
 11 35  1  0  0  0  0
 11 36  1  0  0  0  0
 12 21  1  0  0  0  0
 12 13  1  0  0  0  0
 13 14  1  0  0  0  0
 13 37  1  0  0  0  0
 13 38  1  0  0  0  0
 14 15  1  0  0  0  0
 14 39  1  0  0  0  0
 14 40  1  0  0  0  0
 15 16  1  0  0  0  0
 15 20  1  0  0  0  0
 15 56  1  0  0  0  0
 16 17  1  0  0  0  0
 16 41  1  0  0  0  0
 16 42  1  0  0  0  0
 17 18  1  0  0  0  0
 17 19  1  0  0  0  0
 17 43  1  0  0  0  0
 18 44  1  0  0  0  0
 18 45  1  0  0  0  0
 18 46  1  0  0  0  0
 19 47  1  0  0  0  0
 20 21  1  0  0  0  0
 20 48  1  0  0  0  0
 20 49  1  0  0  0  0
 21 50  1  0  0  0  0
 21 51  1  0  0  0  0
 22 23  1  0  0  0  0
 23 24  2  0  0  0  0
 23 52  1  0  0  0  0
 24 25  1  0  0  0  0
 25 53  1  0  0  0  0
 25 54  1  0  0  0  0
 25 55  1  0  0  0  0
M  CHG  1   5   1
M  CHG  1  15   1
M  END
> <s_m_source_file>
AV-unprocessed.smi

> <i_m_source_file_index>
1033

> <i_lp_mmshare_version>
43012

> <i_f3d_flags>
0

> <s_epik_input>
W0NIM11jKFtjSF0xKWMoW0NIM10pW2NIXWMoYzEyKW4oW2NIXW4yKVtDSDJdW0NASF0oW09IXSlbQ0gyXU4zW0NIMl1bQ0gyXU4oW0NIMl1bQ0gyXTMpW0NIMl1bQ0BIXShbQ0gzXSlbT0hd

> <s_epik_cmdline>
J2VwaWtfcHl0aG9uJywgJy1waCcsICc3LjAnLCAnLXRuJywgJzgnLCAnLW1hJywgJzIwMCcsICctbWV0YWxfYmluZGluZycsICctaW1hZScsICc8aW5maWxlLm1hZT4nLCAnLW9tYWUnLCAnPG91dGZpbGUubWFlPic=

> <r_epik_Ionization_Penalty>
1.28617

> <r_epik_Ionization_Penalty_Charging>
1.23646

> <r_epik_Ionization_Penalty_Neutral>
0.0497112

> <r_epik_State_Penalty>
1.79157

> <r_epik_Charging_Adjusted_Penalty>
3.02803

> <i_epik_Tot_Q>
2

> <i_epik_Tot_abs_Q>
2

> <r_epik_Metal_State_Penalty>
5.81739

> <b_epik_Metal_Only>
0

> <s_lp_Force_Field>
OPLS_2005

> <r_lp_Energy>
43.5011

> <b_lp_Chiralities_Consistent>
1

> <s_lp_Variant>
AV-unprocessed.smi:1033-16

> <Gold.Version>
5.8.1

> <Gold.Id.Protein>
6NUR|6NUR_protein|mol2

> <Gold.PLP.Fitness>
63.5136

> <Gold.PLP.PLP>
-47.8982

> <Gold.PLP.part.hbond>
-4.6510

> <Gold.PLP.part.metal>
0.0000

> <Gold.PLP.part.buried>
-4.1937

> <Gold.PLP.part.nonpolar>
-39.1761

> <Gold.PLP.part.repulsive>
0.1628

> <Gold.PLP.ligand.clash>
0.0000

> <Gold.PLP.ligand.torsion>
1.0774

> <Gold.PLP.Chemscore.Hbond>
5.8620

> <Gold.PLP.Chemscore.CHOScore>
0.0000

> <Gold.PLP.Chemscore.Metal>
0.0000

> <Gold.Chemscore.Hbonds>
donor molecule, donor type, donor heavy atom, donor atom, acceptor molecule, acceptor atom, score
      L1  H     5    57       P1  8028  2.00
      L1  H    15    56       P1  7948  2.00
      L1  H    19    47       P1  7948  0.91
      P1  H  7954  7966       L1    19  0.95

> <Gold.PLP.Chemscore.Internal.Correction>
0.1842

> <Gold.Rescore>
     Score         DG    S(hbond)    S(metal)    S(lipo)     H(rot)  DE(clash)    DE(int)     intcor
     21.56     -23.37       3.11        0.00     133.07       3.15       0.59       1.22       ----

> <Gold.Chemscore.Fitness>
21.5648

> <Gold.Chemscore.DG>
-23.3743

> <Gold.Chemscore.ZeroCoef>
-5.4800

> <Gold.Chemscore.Hbond>
3.1093

> <Gold.Chemscore.Metal>
0.0000

> <Gold.Chemscore.Lipo>
133.0690

> <Gold.Chemscore.Internal_Hbond>
0.0000

> <Gold.Chemscore.DEClash>
0.5933

> <Gold.Chemscore.DEInternal>
1.2163

> <Gold.Chemscore.Rot>
3.1483

> <Gold.Chemscore.Internal.Correction>
   9.000000E+99

> <Gold.Chemscore.Hbonds>
donor molecule, donor type, donor heavy atom, donor atom, acceptor molecule, acceptor atom, score
      L1  H     5    57       P1  8028  0.98
      L1  H    15    56       P1  7948  1.00
      L1  H    19    47       P1  7948  0.88
      P1  H  7954  7966       L1    19  0.21

> <Gold.Chemscore.Hbond.Weighted>
-10.3849

> <Gold.Chemscore.Metal.Weighted>
-0.0000

> <Gold.Chemscore.Lipo.Weighted>
-15.5691

> <Gold.Chemscore.Internal_Hbond.Weighted>
0.0000

> <Gold.Chemscore.DEClash.Weighted>
0.5933

> <Gold.Chemscore.DEInternal.Weighted>
1.2163

> <Gold.Chemscore.Rot.Weighted>
8.0597

> <Gold.Chemscore.Internal.Correction.Weighted>
   9.000000E+99

> <Gold.Protein.RotatedTorsions>
[ 6907 6896 6895 6894 ] final   53.53 input  -60.11 | X-H torsion
[ 7974 7965 7964 7962 ] final  -28.81 input  175.53 | X-H torsion
[ 8008 7997 7996 7995 ] final  172.94 input   59.86 | X-H torsion
[ 10167 10162 10161 10158 ] final -154.61 input  -65.29 | X-H torsion
[ 10718 10713 10712 10709 ] final   97.88 input   66.30 | X-H torsion
[ 10763 10752 10751 10750 ] final -135.34 input  -60.55 | X-H torsion
[ 11005 11000 10999 10996 ] final   77.26 input  -57.11 | X-H torsion

> <Gold.Protein.ActiveResidues>
 VAL166  LYS551  ARG553  GLY616  TRP617  ASP618  TYR619  PRO620  LYS621  CYS622 
 ASP623  PHE694  ASN695  SER759  ASP760  ASP761  ALA762  ILE779  LEU786  VAL792 
 PHE793  MET794  SER795  GLU796  ALA797  LYS798  CYS799  TRP800  GLU811  SER814 

> <Gold.Protein.RotatedAtoms>
  152.3346  134.7214  160.0280 H   0  0  0  0  0  0  0  0  0  0  0  0  # atno 6907 bound_to 6896
  151.7620  133.3329  159.3428 H   0  0  0  0  0  0  0  0  0  0  0  0  # atno 6908 bound_to 6896
  150.7443  134.6029  159.6090 H   0  0  0  0  0  0  0  0  0  0  0  0  # atno 6909 bound_to 6896
  146.1261  140.5331  142.8714 H   0  0  0  0  0  0  0  0  0  0  0  0  # atno 7974 bound_to 7965
  156.1125  140.1473  156.9318 H   0  0  0  0  0  0  0  0  0  0  0  0  # atno 8008 bound_to 7997
  154.4777  140.0889  156.7345 H   0  0  0  0  0  0  0  0  0  0  0  0  # atno 8009 bound_to 7997
  155.4571  140.3437  155.4310 H   0  0  0  0  0  0  0  0  0  0  0  0  # atno 8010 bound_to 7997
  139.6999  143.9281  152.2424 H   0  0  0  0  0  0  0  0  0  0  0  0  # atno 10167 bound_to 10162
  157.6905  131.0623  150.4712 H   0  0  0  0  0  0  0  0  0  0  0  0  # atno 10718 bound_to 10713
  154.8704  135.3706  154.4882 H   0  0  0  0  0  0  0  0  0  0  0  0  # atno 10763 bound_to 10752
  153.5531  135.7024  153.5587 H   0  0  0  0  0  0  0  0  0  0  0  0  # atno 10764 bound_to 10752
  153.3697  135.4024  155.1743 H   0  0  0  0  0  0  0  0  0  0  0  0  # atno 10765 bound_to 10752
  139.9262  134.7668  156.1499 H   0  0  0  0  0  0  0  0  0  0  0  0  # atno 11005 bound_to 11000
  144.7644  140.5497  143.6713 LP  0  0  0  0  0  0  0  0  0  0  0  0  # atno 17320 bound_to 7965
  145.5361  139.1475  143.3472 LP  0  0  0  0  0  0  0  0  0  0  0  0  # atno 17321 bound_to 7965
  139.9120  144.6851  150.8552 LP  0  0  0  0  0  0  0  0  0  0  0  0  # atno 17342 bound_to 10162
  140.7706  143.3436  151.2156 LP  0  0  0  0  0  0  0  0  0  0  0  0  # atno 17343 bound_to 10162
  156.5049  130.4126  149.6332 LP  0  0  0  0  0  0  0  0  0  0  0  0  # atno 17370 bound_to 10713
  156.3293  130.7323  151.2249 LP  0  0  0  0  0  0  0  0  0  0  0  0  # atno 17371 bound_to 10713
  141.0821  133.6749  156.2359 LP  0  0  0  0  0  0  0  0  0  0  0  0  # atno 17394 bound_to 11000
  140.6329  134.5245  157.5561 LP  0  0  0  0  0  0  0  0  0  0  0  0  # atno 17395 bound_to 11000

$$$$
