AV-unprocessed.smi:703|AV-procd|sdf|3440|dock6
  -GOLD-   22720 0423D 1   1.00000     0.00000
 Structure written by MMmdl.
 37 38  0  0  0  0  0  0  0  0  3 V2000
  153.3817  142.7636  163.1461 C   0  0  0  0  0  0  0  0  0  0  0  0
  152.7824  143.9260  162.3433 C   0  0  0  0  0  0  0  0  0  0  0  0
  152.1372  143.4659  161.0912 N   0  3  1  0  0  0  0  0  0  0  0  0
  152.0802  144.4860  160.0164 C   0  0  0  0  0  0  0  0  0  0  0  0
  152.5364  143.7851  158.7256 C   0  0  2  0  0  0  0  0  0  0  0  0
  151.9199  144.3503  157.4287 C   0  0  0  0  0  0  0  0  0  0  0  0
  152.3494  142.2831  159.0130 C   0  0  2  0  0  0  0  0  0  0  0  0
  150.9621  141.8746  158.8052 N   0  5  0  0  0  0  0  0  0  0  0  0
  150.5862  140.8976  157.5657 S   0  0  0  0  0  0  0  0  0  0  0  0
  149.4656  139.9953  157.8767 O   0  0  0  0  0  0  0  0  0  0  0  0
  150.5286  141.6138  156.2813 O   0  0  0  0  0  0  0  0  0  0  0  0
  152.0923  139.8368  157.4947 C   0  0  0  0  0  0  0  0  0  0  0  0
  151.9296  138.7867  156.4319 C   0  0  0  0  0  0  0  0  0  0  0  0
  151.6982  138.9644  155.0395 C   0  0  0  0  0  0  0  0  0  0  0  0
  151.6368  137.6878  154.5604 C   0  0  0  0  0  0  0  0  0  0  0  0
  151.8050  136.7940  155.5672 O   0  0  0  0  0  0  0  0  0  0  0  0
  151.9876  137.5048  156.7589 N   0  0  0  0  0  0  0  0  0  0  0  0
  152.7047  142.2302  160.5043 C   0  0  0  0  0  0  0  0  0  0  0  0
  153.7933  143.1196  164.0906 H   0  0  0  0  0  0  0  0  0  0  0  0
  154.1891  142.2730  162.6021 H   0  0  0  0  0  0  0  0  0  0  0  0
  152.6256  142.0122  163.3762 H   0  0  0  0  0  0  0  0  0  0  0  0
  152.0323  144.4248  162.9585 H   0  0  0  0  0  0  0  0  0  0  0  0
  153.5487  144.6689  162.1166 H   0  0  0  0  0  0  0  0  0  0  0  0
  151.0531  144.8480  159.9383 H   0  0  0  0  0  0  0  0  0  0  0  0
  152.7142  145.3482  160.2297 H   0  0  0  0  0  0  0  0  0  0  0  0
  153.6135  143.9442  158.6494 H   0  0  0  0  0  0  0  0  0  0  0  0
  150.8303  144.2926  157.4270 H   0  0  0  0  0  0  0  0  0  0  0  0
  152.2849  143.8261  156.5438 H   0  0  0  0  0  0  0  0  0  0  0  0
  152.1837  145.4017  157.3103 H   0  0  0  0  0  0  0  0  0  0  0  0
  153.0463  141.6899  158.4208 H   0  0  0  0  0  0  0  0  0  0  0  0
  152.9522  140.4757  157.2926 H   0  0  0  0  0  0  0  0  0  0  0  0
  152.2386  139.3823  158.4741 H   0  0  0  0  0  0  0  0  0  0  0  0
  151.6017  139.8840  154.4815 H   0  0  0  0  0  0  0  0  0  0  0  0
  151.4852  137.2713  153.5758 H   0  0  0  0  0  0  0  0  0  0  0  0
  153.7906  142.2439  160.6119 H   0  0  0  0  0  0  0  0  0  0  0  0
  152.3429  141.3377  161.0139 H   0  0  0  0  0  0  0  0  0  0  0  0
  151.1746  143.2505  161.3089 H   0  0  0  0  0  0  0  0  0  0  0  0
  1  2  1  0  0  0  0
  1 19  1  0  0  0  0
  1 20  1  0  0  0  0
  1 21  1  0  0  0  0
  2  3  1  0  0  0  0
  2 22  1  0  0  0  0
  2 23  1  0  0  0  0
  3 18  1  0  0  0  0
  3  4  1  0  0  0  0
  3 37  1  0  0  0  0
  4  5  1  0  0  0  0
  4 24  1  0  0  0  0
  4 25  1  0  0  0  0
  5  6  1  0  0  0  0
  5  7  1  0  0  0  0
  5 26  1  0  0  0  0
  6 27  1  0  0  0  0
  6 28  1  0  0  0  0
  6 29  1  0  0  0  0
  7  8  1  0  0  0  0
  7 18  1  0  0  0  0
  7 30  1  0  0  0  0
  8  9  1  0  0  0  0
  9 10  2  0  0  0  0
  9 11  2  0  0  0  0
  9 12  1  0  0  0  0
 12 13  1  0  0  0  0
 12 31  1  0  0  0  0
 12 32  1  0  0  0  0
 13 17  2  0  0  0  0
 13 14  1  0  0  0  0
 14 15  2  0  0  0  0
 14 33  1  0  0  0  0
 15 16  1  0  0  0  0
 15 34  1  0  0  0  0
 16 17  1  0  0  0  0
 18 35  1  0  0  0  0
 18 36  1  0  0  0  0
M  CHG  1   3   1
M  CHG  1   8  -1
M  END
> <s_m_source_file>
AV-unprocessed.smi

> <i_m_source_file_index>
703

> <i_lp_mmshare_version>
43012

> <i_f3d_flags>
0

> <s_epik_input>
W0NIM11bQ0gyXU4xW0NIMl1bQ0BASF0oW0NIM10pW0NASF0oW0NIMl0xKVtOSF1TKD1PKSg9TylbQ0gyXWMyW2NIXVtjSF1vbjI=

> <s_epik_cmdline>
J2VwaWtfcHl0aG9uJywgJy1waCcsICc3LjAnLCAnLXRuJywgJzgnLCAnLW1hJywgJzIwMCcsICctbWV0YWxfYmluZGluZycsICctaW1hZScsICc8aW5maWxlLm1hZT4nLCAnLW9tYWUnLCAnPG91dGZpbGUubWFlPic=

> <r_epik_Ionization_Penalty>
3.62494

> <r_epik_Ionization_Penalty_Charging>
3.62494

> <r_epik_Ionization_Penalty_Neutral>
2.0321e-10

> <r_epik_State_Penalty>
3.62558

> <r_epik_Charging_Adjusted_Penalty>
7.25052

> <i_epik_Tot_Q>
0

> <i_epik_Tot_abs_Q>
2

> <r_epik_Metal_State_Penalty>
0.530836

> <b_epik_Metal_Only>
1

> <s_lp_Force_Field>
OPLS_2005

> <r_lp_Energy>
16.9152

> <b_lp_Chiralities_Consistent>
1

> <s_lp_Variant>
AV-unprocessed.smi:703-15

> <Gold.Version>
5.8.1

> <Gold.Id.Protein>
6NUR|6NUR_protein|mol2

> <Gold.PLP.Fitness>
46.1327

> <Gold.PLP.PLP>
-41.2989

> <Gold.PLP.part.hbond>
-1.0000

> <Gold.PLP.part.metal>
0.0000

> <Gold.PLP.part.buried>
-6.2450

> <Gold.PLP.part.nonpolar>
-34.2032

> <Gold.PLP.part.repulsive>
0.2416

> <Gold.PLP.ligand.clash>
0.0000

> <Gold.PLP.ligand.torsion>
1.1164

> <Gold.PLP.Chemscore.Hbond>
1.0000

> <Gold.PLP.Chemscore.CHOScore>
1.0000

> <Gold.PLP.Chemscore.Metal>
0.0000

> <Gold.Chemscore.Hbonds>
donor molecule, donor type, donor heavy atom, donor atom, acceptor molecule, acceptor atom, score
      P1  H 10752 10764       L1    16  0.74
      L1  C    15    34       P1  7949  1.00

> <Gold.PLP.Chemscore.Internal.Correction>
1.0666

> <Gold.Rescore>
     Score         DG    S(hbond)    S(metal)    S(lipo)     H(rot)  DE(clash)    DE(int)     intcor
     15.93     -17.60       0.89        0.00     113.79       1.63       0.72       0.95       ----

> <Gold.Chemscore.Fitness>
15.9259

> <Gold.Chemscore.DG>
-17.5981

> <Gold.Chemscore.ZeroCoef>
-5.4800

> <Gold.Chemscore.Hbond>
0.8945

> <Gold.Chemscore.Metal>
0.0000

> <Gold.Chemscore.Lipo>
113.7871

> <Gold.Chemscore.Internal_Hbond>
0.0000

> <Gold.Chemscore.DEClash>
0.7214

> <Gold.Chemscore.DEInternal>
0.9507

> <Gold.Chemscore.Rot>
1.6338

> <Gold.Chemscore.Internal.Correction>
   9.000000E+99

> <Gold.Chemscore.Hbonds>
donor molecule, donor type, donor heavy atom, donor atom, acceptor molecule, acceptor atom, score
      P1  H 10752 10764       L1    16  0.09

> <Gold.Chemscore.Hbond.Weighted>
-2.9875

> <Gold.Chemscore.Metal.Weighted>
-0.0000

> <Gold.Chemscore.Lipo.Weighted>
-13.3131

> <Gold.Chemscore.Internal_Hbond.Weighted>
0.0000

> <Gold.Chemscore.DEClash.Weighted>
0.7214

> <Gold.Chemscore.DEInternal.Weighted>
0.9507

> <Gold.Chemscore.Rot.Weighted>
4.1825

> <Gold.Chemscore.Internal.Correction.Weighted>
   9.000000E+99

> <Gold.Protein.RotatedTorsions>
[ 6907 6896 6895 6894 ] final   67.18 input  -60.11 | X-H torsion
[ 7974 7965 7964 7962 ] final  157.65 input  175.53 | X-H torsion
[ 8008 7997 7996 7995 ] final   49.72 input   59.86 | X-H torsion
[ 10167 10162 10161 10158 ] final  137.24 input  -65.29 | X-H torsion
[ 10718 10713 10712 10709 ] final  146.02 input   66.30 | X-H torsion
[ 10763 10752 10751 10750 ] final  -63.74 input  -60.55 | X-H torsion
[ 11005 11000 10999 10996 ] final   70.37 input  -57.11 | X-H torsion

> <Gold.Protein.ActiveResidues>
 VAL166  LYS551  ARG553  GLY616  TRP617  ASP618  TYR619  PRO620  LYS621  CYS622 
 ASP623  PHE694  ASN695  SER759  ASP760  ASP761  ALA762  ILE779  LEU786  VAL792 
 PHE793  MET794  SER795  GLU796  ALA797  LYS798  CYS799  TRP800  GLU811  SER814 

> <Gold.Protein.RotatedAtoms>
  152.4534  134.5344  159.9820 H   0  0  0  0  0  0  0  0  0  0  0  0  # atno 6907 bound_to 6896
  151.5411  133.3427  159.2943 H   0  0  0  0  0  0  0  0  0  0  0  0  # atno 6908 bound_to 6896
  150.8470  134.7813  159.7041 H   0  0  0  0  0  0  0  0  0  0  0  0  # atno 6909 bound_to 6896
  144.7891  139.7370  143.6229 H   0  0  0  0  0  0  0  0  0  0  0  0  # atno 7974 bound_to 7965
  155.4068  140.3440  155.4261 H   0  0  0  0  0  0  0  0  0  0  0  0  # atno 8008 bound_to 7997
  156.1472  140.1560  156.8860 H   0  0  0  0  0  0  0  0  0  0  0  0  # atno 8009 bound_to 7997
  154.5020  140.0812  156.7799 H   0  0  0  0  0  0  0  0  0  0  0  0  # atno 8010 bound_to 7997
  139.5151  144.6421  151.5541 H   0  0  0  0  0  0  0  0  0  0  0  0  # atno 10167 bound_to 10162
  157.3382  131.0931  151.1105 H   0  0  0  0  0  0  0  0  0  0  0  0  # atno 10718 bound_to 10713
  154.3196  135.6199  153.5501 H   0  0  0  0  0  0  0  0  0  0  0  0  # atno 10763 bound_to 10752
  152.9821  135.5720  154.5085 H   0  0  0  0  0  0  0  0  0  0  0  0  # atno 10764 bound_to 10752
  154.4751  135.2861  155.1590 H   0  0  0  0  0  0  0  0  0  0  0  0  # atno 10765 bound_to 10752
  139.9602  134.7075  156.0664 H   0  0  0  0  0  0  0  0  0  0  0  0  # atno 11005 bound_to 11000
  146.2136  139.5509  142.9665 LP  0  0  0  0  0  0  0  0  0  0  0  0  # atno 17320 bound_to 7965
  145.5842  141.0378  143.2105 LP  0  0  0  0  0  0  0  0  0  0  0  0  # atno 17321 bound_to 7965
  140.6191  143.9292  150.6512 LP  0  0  0  0  0  0  0  0  0  0  0  0  # atno 17342 bound_to 10162
  140.2559  143.3559  152.1365 LP  0  0  0  0  0  0  0  0  0  0  0  0  # atno 17343 bound_to 10162
  157.2327  130.6533  149.5856 LP  0  0  0  0  0  0  0  0  0  0  0  0  # atno 17370 bound_to 10713
  155.9704  130.4593  150.6033 LP  0  0  0  0  0  0  0  0  0  0  0  0  # atno 17371 bound_to 10713
  141.1278  133.6594  156.3382 LP  0  0  0  0  0  0  0  0  0  0  0  0  # atno 17394 bound_to 11000
  140.5518  134.6020  157.5410 LP  0  0  0  0  0  0  0  0  0  0  0  0  # atno 17395 bound_to 11000

$$$$
