AV-unprocessed.smi:701|AV-procd|sdf|3412|dock6
  -GOLD-   22720 0393D 1   1.00000     0.00000
 Structure written by MMmdl.
 48 50  0  0  0  0  0  0  0  0  2 V2000
  141.2311  136.4791  153.5531 C   0  0  0  0  0  0  0  0  0  0  0  0
  142.2894  135.5386  154.1333 C   0  0  0  0  0  0  0  0  0  0  0  0
  143.4458  135.5948  153.3154 O   0  0  0  0  0  0  0  0  0  0  0  0
  144.3428  134.5141  153.5398 C   0  0  2  0  0  0  0  0  0  0  0  0
  145.2675  134.7716  154.7367 C   0  0  0  0  0  0  0  0  0  0  0  0
  146.2228  135.4319  153.7418 C   0  0  1  0  0  0  0  0  0  0  0  0
  147.6186  135.1251  154.0229 N   0  0  0  0  0  0  0  0  0  0  0  0
  148.2263  135.3104  155.2054 C   0  0  0  0  0  0  0  0  0  0  0  0
  147.6312  135.7125  156.2045 O   0  0  0  0  0  0  0  0  0  0  0  0
  149.7342  135.0175  155.2945 C   0  0  0  0  0  0  0  0  0  0  0  0
  150.5674  136.1867  155.6320 N   0  0  0  0  0  0  0  0  0  0  0  0
  150.5058  137.3001  154.7756 C   0  0  0  0  0  0  0  0  0  0  0  0
  151.2116  138.4214  155.0161 C   0  0  0  0  0  0  0  0  0  0  0  0
  152.0573  138.4634  156.2025 C   0  0  0  0  0  0  0  0  0  0  0  0
  152.7054  139.4805  156.4403 O   0  0  0  0  0  0  0  0  0  0  0  0
  152.0853  137.3568  157.0014 N   0  5  0  0  0  0  0  0  0  0  0  0
  151.3617  136.2236  156.7450 C   0  0  0  0  0  0  0  0  0  0  0  0
  151.3932  135.2405  157.4855 O   0  0  0  0  0  0  0  0  0  0  0  0
  145.5904  134.5707  152.6171 C   0  0  0  0  0  0  0  0  0  0  0  0
  145.4203  135.2738  151.2587 C   0  0  0  0  0  0  0  0  0  0  0  0
  144.5650  134.4608  150.2730 C   0  0  0  0  0  0  0  0  0  0  0  0
  145.1731  133.0735  150.0292 C   0  0  0  0  0  0  0  0  0  0  0  0
  145.4274  132.3368  151.3507 C   0  0  0  0  0  0  0  0  0  0  0  0
  146.2491  133.2013  152.3230 C   0  0  0  0  0  0  0  0  0  0  0  0
  140.3228  136.4633  154.1558 H   0  0  0  0  0  0  0  0  0  0  0  0
  140.9643  136.1879  152.5369 H   0  0  0  0  0  0  0  0  0  0  0  0
  141.5958  137.5061  153.5235 H   0  0  0  0  0  0  0  0  0  0  0  0
  142.5276  135.8332  155.1560 H   0  0  0  0  0  0  0  0  0  0  0  0
  141.9033  134.5188  154.1651 H   0  0  0  0  0  0  0  0  0  0  0  0
  143.8497  133.5410  153.5549 H   0  0  0  0  0  0  0  0  0  0  0  0
  144.8732  135.4447  155.4981 H   0  0  0  0  0  0  0  0  0  0  0  0
  145.6558  133.8516  155.1774 H   0  0  0  0  0  0  0  0  0  0  0  0
  146.0120  136.4981  153.6301 H   0  0  0  0  0  0  0  0  0  0  0  0
  148.1808  134.7962  153.2508 H   0  0  0  0  0  0  0  0  0  0  0  0
  149.8911  134.2223  156.0252 H   0  0  0  0  0  0  0  0  0  0  0  0
  150.0517  134.5921  154.3418 H   0  0  0  0  0  0  0  0  0  0  0  0
  149.8505  137.1896  153.9240 H   0  0  0  0  0  0  0  0  0  0  0  0
  151.1502  139.2692  154.3500 H   0  0  0  0  0  0  0  0  0  0  0  0
  144.9746  136.2603  151.3876 H   0  0  0  0  0  0  0  0  0  0  0  0
  146.3989  135.4587  150.8136 H   0  0  0  0  0  0  0  0  0  0  0  0
  143.5535  134.3553  150.6670 H   0  0  0  0  0  0  0  0  0  0  0  0
  144.4748  134.9973  149.3282 H   0  0  0  0  0  0  0  0  0  0  0  0
  144.5170  132.4822  149.3898 H   0  0  0  0  0  0  0  0  0  0  0  0
  146.1151  133.1823  149.4902 H   0  0  0  0  0  0  0  0  0  0  0  0
  144.4752  132.0678  151.8080 H   0  0  0  0  0  0  0  0  0  0  0  0
  145.9497  131.3995  151.1566 H   0  0  0  0  0  0  0  0  0  0  0  0
  147.2434  133.3482  151.8992 H   0  0  0  0  0  0  0  0  0  0  0  0
  146.4065  132.6387  153.2438 H   0  0  0  0  0  0  0  0  0  0  0  0
  1  2  1  0  0  0  0
  1 25  1  0  0  0  0
  1 26  1  0  0  0  0
  1 27  1  0  0  0  0
  2  3  1  0  0  0  0
  2 28  1  0  0  0  0
  2 29  1  0  0  0  0
  3  4  1  0  0  0  0
  4 19  1  0  0  0  0
  4  5  1  0  0  0  0
  4 30  1  0  0  0  0
  5  6  1  0  0  0  0
  5 31  1  0  0  0  0
  5 32  1  0  0  0  0
  6  7  1  0  0  0  0
  6 19  1  0  0  0  0
  6 33  1  0  0  0  0
  7  8  1  0  0  0  0
  7 34  1  0  0  0  0
  8  9  2  0  0  0  0
  8 10  1  0  0  0  0
 10 11  1  0  0  0  0
 10 35  1  0  0  0  0
 10 36  1  0  0  0  0
 11 17  1  0  0  0  0
 11 12  1  0  0  0  0
 12 13  2  0  0  0  0
 12 37  1  0  0  0  0
 13 14  1  0  0  0  0
 13 38  1  0  0  0  0
 14 15  2  0  0  0  0
 14 16  1  0  0  0  0
 16 17  1  0  0  0  0
 17 18  2  0  0  0  0
 19 24  1  0  0  0  0
 19 20  1  0  0  0  0
 20 21  1  0  0  0  0
 20 39  1  0  0  0  0
 20 40  1  0  0  0  0
 21 22  1  0  0  0  0
 21 41  1  0  0  0  0
 21 42  1  0  0  0  0
 22 23  1  0  0  0  0
 22 43  1  0  0  0  0
 22 44  1  0  0  0  0
 23 24  1  0  0  0  0
 23 45  1  0  0  0  0
 23 46  1  0  0  0  0
 24 47  1  0  0  0  0
 24 48  1  0  0  0  0
M  CHG  1  16  -1
M  END
> <s_m_source_file>
AV-unprocessed.smi

> <i_m_source_file_index>
701

> <i_lp_mmshare_version>
43012

> <i_f3d_flags>
0

> <s_epik_input>
W0NIMl0xW0NIMl1bQ0gyXVtDSDJdW0NIMl1DMTJbQ0BIXShPW0NIMl1bQ0gzXSlbQ0gyXVtDQEhdMltOSF1DKD1PKVtDSDJdbjNbY0hdW2NIXWMoPU8pW25IXWMzPU8=

> <s_epik_cmdline>
J2VwaWtfcHl0aG9uJywgJy1waCcsICc3LjAnLCAnLXRuJywgJzgnLCAnLW1hJywgJzIwMCcsICctbWV0YWxfYmluZGluZycsICctaW1hZScsICc8aW5maWxlLm1hZT4nLCAnLW9tYWUnLCAnPG91dGZpbGUubWFlPic=

> <r_lp_tautomer_probability>
0.999537

> <r_epik_Ionization_Penalty>
3.12423

> <r_epik_Ionization_Penalty_Charging>
2.92877e-08

> <r_epik_Ionization_Penalty_Neutral>
3.12423

> <r_epik_State_Penalty>
3.12332

> <r_epik_Charging_Adjusted_Penalty>
3.12332

> <i_epik_Tot_Q>
-1

> <i_epik_Tot_abs_Q>
1

> <r_epik_Metal_State_Penalty>
0.463873

> <b_epik_Metal_Only>
1

> <s_lp_Force_Field>
OPLS_2005

> <r_lp_Energy>
34.5124

> <b_lp_Chiralities_Consistent>
1

> <s_lp_Variant>
AV-unprocessed.smi:701-5

> <Gold.Version>
5.8.1

> <Gold.Id.Protein>
6NUR|6NUR_protein|mol2

> <Gold.PLP.Fitness>
40.9428

> <Gold.PLP.PLP>
-34.3871

> <Gold.PLP.part.hbond>
-3.0000

> <Gold.PLP.part.metal>
0.0000

> <Gold.PLP.part.buried>
-3.9752

> <Gold.PLP.part.nonpolar>
-27.5840

> <Gold.PLP.part.repulsive>
0.1183

> <Gold.PLP.ligand.clash>
0.0000

> <Gold.PLP.ligand.torsion>
0.3963

> <Gold.PLP.Chemscore.Hbond>
1.3360

> <Gold.PLP.Chemscore.CHOScore>
1.0000

> <Gold.PLP.Chemscore.Metal>
0.0000

> <Gold.Chemscore.Hbonds>
donor molecule, donor type, donor heavy atom, donor atom, acceptor molecule, acceptor atom, score
      L1  H     7    34       P1  7948  0.32
      P1  H  6896  6907       L1    18  0.01
      P1  H  7997  8009       L1    15  1.00
      L1  C    12    37       P1  7948  1.00

> <Gold.PLP.Chemscore.Internal.Correction>
0.3404

> <Gold.Rescore>
     Score         DG    S(hbond)    S(metal)    S(lipo)     H(rot)  DE(clash)    DE(int)     intcor
     11.14     -12.99       1.42        0.00      68.37       2.04       0.02       1.83       ----

> <Gold.Chemscore.Fitness>
11.1361

> <Gold.Chemscore.DG>
-12.9870

> <Gold.Chemscore.ZeroCoef>
-5.4800

> <Gold.Chemscore.Hbond>
1.4162

> <Gold.Chemscore.Metal>
0.0000

> <Gold.Chemscore.Lipo>
68.3666

> <Gold.Chemscore.Internal_Hbond>
0.0000

> <Gold.Chemscore.DEClash>
0.0186

> <Gold.Chemscore.DEInternal>
1.8323

> <Gold.Chemscore.Rot>
2.0399

> <Gold.Chemscore.Internal.Correction>
   9.000000E+99

> <Gold.Chemscore.Hbonds>
donor molecule, donor type, donor heavy atom, donor atom, acceptor molecule, acceptor atom, score
      L1  H     7    34       P1  7948  0.27
      P1  H  6896  6907       L1    18  0.02
      P1  H  7997  8009       L1    15  1.00

> <Gold.Chemscore.Hbond.Weighted>
-4.7302

> <Gold.Chemscore.Metal.Weighted>
-0.0000

> <Gold.Chemscore.Lipo.Weighted>
-7.9989

> <Gold.Chemscore.Internal_Hbond.Weighted>
0.0000

> <Gold.Chemscore.DEClash.Weighted>
0.0186

> <Gold.Chemscore.DEInternal.Weighted>
1.8323

> <Gold.Chemscore.Rot.Weighted>
5.2222

> <Gold.Chemscore.Internal.Correction.Weighted>
   9.000000E+99

> <Gold.Protein.RotatedTorsions>
[ 6907 6896 6895 6894 ] final -109.40 input  -60.11 | X-H torsion
[ 7974 7965 7964 7962 ] final  -94.57 input  175.53 | X-H torsion
[ 8008 7997 7996 7995 ] final -157.07 input   59.86 | X-H torsion
[ 10167 10162 10161 10158 ] final  176.43 input  -65.29 | X-H torsion
[ 10718 10713 10712 10709 ] final  -91.49 input   66.30 | X-H torsion
[ 10763 10752 10751 10750 ] final  -26.17 input  -60.55 | X-H torsion
[ 11005 11000 10999 10996 ] final  -27.55 input  -57.11 | X-H torsion

> <Gold.Protein.ActiveResidues>
 VAL166  LYS551  ARG553  GLY616  TRP617  ASP618  TYR619  PRO620  LYS621  CYS622 
 ASP623  PHE694  ASN695  SER759  ASP760  ASP761  ALA762  ILE779  LEU786  VAL792 
 PHE793  MET794  SER795  GLU796  ALA797  LYS798  CYS799  TRP800  GLU811  SER814 

> <Gold.Protein.RotatedAtoms>
  150.7559  133.9535  159.3493 H   0  0  0  0  0  0  0  0  0  0  0  0  # atno 6907 bound_to 6896
  151.7455  135.0842  160.0332 H   0  0  0  0  0  0  0  0  0  0  0  0  # atno 6908 bound_to 6896
  152.3501  133.6131  159.5974 H   0  0  0  0  0  0  0  0  0  0  0  0  # atno 6909 bound_to 6896
  145.3715  140.9506  143.2444 H   0  0  0  0  0  0  0  0  0  0  0  0  # atno 7974 bound_to 7965
  155.7268  140.0797  157.2306 H   0  0  0  0  0  0  0  0  0  0  0  0  # atno 8008 bound_to 7997
  154.4038  140.1602  156.2518 H   0  0  0  0  0  0  0  0  0  0  0  0  # atno 8009 bound_to 7997
  155.9146  140.3402  155.6127 H   0  0  0  0  0  0  0  0  0  0  0  0  # atno 8010 bound_to 7997
  139.5214  144.2916  152.0459 H   0  0  0  0  0  0  0  0  0  0  0  0  # atno 10167 bound_to 10162
  155.9994  130.4950  150.5482 H   0  0  0  0  0  0  0  0  0  0  0  0  # atno 10718 bound_to 10713
  153.7116  135.6950  153.5036 H   0  0  0  0  0  0  0  0  0  0  0  0  # atno 10763 bound_to 10752
  153.2268  135.4351  155.0550 H   0  0  0  0  0  0  0  0  0  0  0  0  # atno 10764 bound_to 10752
  154.8313  135.3474  154.6653 H   0  0  0  0  0  0  0  0  0  0  0  0  # atno 10765 bound_to 10752
  140.9129  133.7449  156.0695 H   0  0  0  0  0  0  0  0  0  0  0  0  # atno 11005 bound_to 11000
  144.8573  139.5230  143.6828 LP  0  0  0  0  0  0  0  0  0  0  0  0  # atno 17320 bound_to 7965
  146.2883  139.7067  142.9179 LP  0  0  0  0  0  0  0  0  0  0  0  0  # atno 17321 bound_to 7965
  140.2367  144.4312  150.6277 LP  0  0  0  0  0  0  0  0  0  0  0  0  # atno 17342 bound_to 10162
  140.6319  143.2189  151.6478 LP  0  0  0  0  0  0  0  0  0  0  0  0  # atno 17343 bound_to 10162
  157.3409  131.0716  151.1788 LP  0  0  0  0  0  0  0  0  0  0  0  0  # atno 17370 bound_to 10713
  157.2637  130.6671  149.5987 LP  0  0  0  0  0  0  0  0  0  0  0  0  # atno 17371 bound_to 10713
  140.8087  134.3424  157.5418 LP  0  0  0  0  0  0  0  0  0  0  0  0  # atno 17394 bound_to 11000
  139.8760  134.9241  156.3341 LP  0  0  0  0  0  0  0  0  0  0  0  0  # atno 17395 bound_to 11000

$$$$
