AV-unprocessed.smi:2504|AV-procd|sdf|9851|dock7
  -GOLD-   2272013483D 1   1.00000     0.00000
 Structure written by MMmdl.
 45 47  0  0  0  0  0  0  0  0  2 V2000
  150.5092  142.4152  158.4159 O   0  0  0  0  0  0  0  0  0  0  0  0
  151.5885  141.9120  158.7316 C   0  0  0  0  0  0  0  0  0  0  0  0
  152.7705  142.7874  159.2085 C   0  0  0  0  0  0  0  0  0  0  0  0
  153.1205  142.6028  160.6951 C   0  0  0  0  0  0  0  0  0  0  0  0
  152.1959  143.5550  161.4656 C   0  0  0  0  0  0  0  0  0  0  0  0
  151.7501  144.6271  160.4596 C   0  0  0  0  0  0  0  0  0  0  0  0
  152.4421  144.2865  159.1331 C   0  0  0  0  0  0  0  0  0  0  0  0
  151.7649  140.5250  158.7454 N   0  0  0  0  0  0  0  0  0  0  0  0
  151.2005  139.6662  157.7142 C   0  0  0  0  0  0  0  0  0  0  0  0
  152.3805  138.7321  158.0045 C   0  0  0  0  0  0  0  0  0  0  0  0
  153.1816  138.0896  156.4671 S   0  0  0  0  0  0  0  0  0  0  0  0
  153.0541  139.1606  155.4659 O   0  0  0  0  0  0  0  0  0  0  0  0
  154.5505  137.6952  156.8410 O   0  0  0  0  0  0  0  0  0  0  0  0
  152.2135  136.8293  156.1390 N   0  5  0  0  0  0  0  0  0  0  0  0
  150.9785  137.0402  155.3998 C   0  0  0  0  0  0  0  0  0  0  0  0
  149.8503  136.1404  155.9562 C   0  0  0  0  0  0  0  0  0  0  0  0
  149.9199  134.6764  155.5342 C   0  0  0  0  0  0  0  0  0  0  0  0
  150.7082  133.7446  156.2445 C   0  0  0  0  0  0  0  0  0  0  0  0
  150.7275  132.4033  155.8166 C   0  0  0  0  0  0  0  0  0  0  0  0
  149.9597  132.0481  154.6897 C   0  0  0  0  0  0  0  0  0  0  0  0
  149.2119  132.9298  153.9928 N   0  0  0  0  0  0  0  0  0  0  0  0
  149.1967  134.2133  154.4120 C   0  0  0  0  0  0  0  0  0  0  0  0
  153.0906  139.9323  158.6490 C   0  0  0  0  0  0  0  0  0  0  0  0
  153.6430  142.5508  158.5995 H   0  0  0  0  0  0  0  0  0  0  0  0
  153.0385  141.5722  161.0436 H   0  0  0  0  0  0  0  0  0  0  0  0
  154.1576  142.9022  160.8530 H   0  0  0  0  0  0  0  0  0  0  0  0
  151.3252  143.0146  161.8397 H   0  0  0  0  0  0  0  0  0  0  0  0
  152.7039  143.9897  162.3270 H   0  0  0  0  0  0  0  0  0  0  0  0
  150.6668  144.5875  160.3371 H   0  0  0  0  0  0  0  0  0  0  0  0
  152.0035  145.6334  160.7943 H   0  0  0  0  0  0  0  0  0  0  0  0
  153.3712  144.8517  159.0502 H   0  0  0  0  0  0  0  0  0  0  0  0
  151.8285  144.5593  158.2733 H   0  0  0  0  0  0  0  0  0  0  0  0
  150.2231  139.2519  157.9622 H   0  0  0  0  0  0  0  0  0  0  0  0
  151.2328  140.1036  156.7144 H   0  0  0  0  0  0  0  0  0  0  0  0
  152.1317  137.9286  158.6994 H   0  0  0  0  0  0  0  0  0  0  0  0
  150.6564  138.0792  155.4755 H   0  0  0  0  0  0  0  0  0  0  0  0
  151.0943  136.8512  154.3319 H   0  0  0  0  0  0  0  0  0  0  0  0
  149.8430  136.1932  157.0459 H   0  0  0  0  0  0  0  0  0  0  0  0
  148.8872  136.5394  155.6358 H   0  0  0  0  0  0  0  0  0  0  0  0
  151.2807  134.0504  157.1080 H   0  0  0  0  0  0  0  0  0  0  0  0
  151.3128  131.6634  156.3419 H   0  0  0  0  0  0  0  0  0  0  0  0
  149.9501  131.0281  154.3353 H   0  0  0  0  0  0  0  0  0  0  0  0
  148.5802  134.8907  153.8392 H   0  0  0  0  0  0  0  0  0  0  0  0
  153.7592  140.4806  157.9836 H   0  0  0  0  0  0  0  0  0  0  0  0
  153.5502  139.7187  159.6141 H   0  0  0  0  0  0  0  0  0  0  0  0
  1  2  2  0  0  0  0
  2  3  1  0  0  0  0
  2  8  1  0  0  0  0
  3  7  1  0  0  0  0
  3  4  1  0  0  0  0
  3 24  1  0  0  0  0
  4  5  1  0  0  0  0
  4 25  1  0  0  0  0
  4 26  1  0  0  0  0
  5  6  1  0  0  0  0
  5 27  1  0  0  0  0
  5 28  1  0  0  0  0
  6  7  1  0  0  0  0
  6 29  1  0  0  0  0
  6 30  1  0  0  0  0
  7 31  1  0  0  0  0
  7 32  1  0  0  0  0
  8 23  1  0  0  0  0
  8  9  1  0  0  0  0
  9 10  1  0  0  0  0
  9 33  1  0  0  0  0
  9 34  1  0  0  0  0
 10 11  1  0  0  0  0
 10 23  1  0  0  0  0
 10 35  1  0  0  0  0
 11 12  2  0  0  0  0
 11 13  2  0  0  0  0
 11 14  1  0  0  0  0
 14 15  1  0  0  0  0
 15 16  1  0  0  0  0
 15 36  1  0  0  0  0
 15 37  1  0  0  0  0
 16 17  1  0  0  0  0
 16 38  1  0  0  0  0
 16 39  1  0  0  0  0
 17 22  1  0  0  0  0
 17 18  2  0  0  0  0
 18 19  1  0  0  0  0
 18 40  1  0  0  0  0
 19 20  2  0  0  0  0
 19 41  1  0  0  0  0
 20 21  1  0  0  0  0
 20 42  1  0  0  0  0
 21 22  2  0  0  0  0
 22 43  1  0  0  0  0
 23 44  1  0  0  0  0
 23 45  1  0  0  0  0
M  CHG  1  14  -1
M  END
> <s_m_source_file>
AV-unprocessed.smi

> <i_m_source_file_index>
2504

> <i_lp_mmshare_version>
43012

> <i_f3d_flags>
0

> <s_epik_input>
W0NIMl0xW0NIMl1bQ0gyXVtDSDJdW0NIXTFDKD1PKU4yW0NIMl1bQ0hdKFtDSDJdMilTKD1PKSg9TylbTkhdW0NIMl1bQ0gyXWMzW2NIXVtjSF1bY0hdbltjSF0z

> <s_epik_cmdline>
J2VwaWtfcHl0aG9uJywgJy1waCcsICc3LjAnLCAnLXRuJywgJzgnLCAnLW1hJywgJzIwMCcsICctbWV0YWxfYmluZGluZycsICctaW1hZScsICc8aW5maWxlLm1hZT4nLCAnLW9tYWUnLCAnPG91dGZpbGUubWFlPic=

> <r_epik_Ionization_Penalty>
5.82897

> <r_epik_Ionization_Penalty_Charging>
5.8024

> <r_epik_Ionization_Penalty_Neutral>
0.0265674

> <r_epik_State_Penalty>
5.81059

> <r_epik_Charging_Adjusted_Penalty>
11.613

> <i_epik_Tot_Q>
-1

> <i_epik_Tot_abs_Q>
1

> <r_epik_Metal_State_Penalty>
1.79017

> <b_epik_Metal_Only>
1

> <s_lp_Force_Field>
OPLS_2005

> <r_lp_Energy>
30.9789

> <b_lp_Chiralities_Consistent>
1

> <s_lp_Variant>
AV-unprocessed.smi:2504-3

> <Gold.Version>
5.8.1

> <Gold.Id.Protein>
6NUR|6NUR_protein|mol2

> <Gold.PLP.Fitness>
56.4067

> <Gold.PLP.PLP>
-46.0182

> <Gold.PLP.part.hbond>
-3.0000

> <Gold.PLP.part.metal>
0.0000

> <Gold.PLP.part.buried>
-4.8007

> <Gold.PLP.part.nonpolar>
-37.7965

> <Gold.PLP.part.repulsive>
0.2148

> <Gold.PLP.ligand.clash>
0.0000

> <Gold.PLP.ligand.torsion>
2.0675

> <Gold.PLP.Chemscore.Hbond>
3.0000

> <Gold.PLP.Chemscore.CHOScore>
1.0000

> <Gold.PLP.Chemscore.Metal>
0.0000

> <Gold.Chemscore.Hbonds>
donor molecule, donor type, donor heavy atom, donor atom, acceptor molecule, acceptor atom, score
      P1  H  7997  8009       L1    12  1.00
      P1  H 10752 10763       L1    14  1.90
      L1  C    22    43       P1  7948  1.00

> <Gold.PLP.Chemscore.Internal.Correction>
2.5236

> <Gold.Rescore>
     Score         DG    S(hbond)    S(metal)    S(lipo)     H(rot)  DE(clash)    DE(int)     intcor
     15.31     -17.30       1.01        0.00     107.42       1.61       0.00       1.98       ----

> <Gold.Chemscore.Fitness>
15.3149

> <Gold.Chemscore.DG>
-17.2977

> <Gold.Chemscore.ZeroCoef>
-5.4800

> <Gold.Chemscore.Hbond>
1.0101

> <Gold.Chemscore.Metal>
0.0000

> <Gold.Chemscore.Lipo>
107.4200

> <Gold.Chemscore.Internal_Hbond>
0.0000

> <Gold.Chemscore.DEClash>
0.0021

> <Gold.Chemscore.DEInternal>
1.9806

> <Gold.Chemscore.Rot>
1.6110

> <Gold.Chemscore.Internal.Correction>
   9.000000E+99

> <Gold.Chemscore.Hbonds>
donor molecule, donor type, donor heavy atom, donor atom, acceptor molecule, acceptor atom, score
      P1  H  7997  8009       L1    12  0.25
      P1  H 10752 10763       L1    14  0.17

> <Gold.Chemscore.Hbond.Weighted>
-3.3738

> <Gold.Chemscore.Metal.Weighted>
-0.0000

> <Gold.Chemscore.Lipo.Weighted>
-12.5681

> <Gold.Chemscore.Internal_Hbond.Weighted>
0.0000

> <Gold.Chemscore.DEClash.Weighted>
0.0021

> <Gold.Chemscore.DEInternal.Weighted>
1.9806

> <Gold.Chemscore.Rot.Weighted>
4.1243

> <Gold.Chemscore.Internal.Correction.Weighted>
   9.000000E+99

> <Gold.Protein.RotatedTorsions>
[ 6907 6896 6895 6894 ] final -118.19 input  -60.11 | X-H torsion
[ 7974 7965 7964 7962 ] final   92.65 input  175.53 | X-H torsion
[ 8008 7997 7996 7995 ] final -136.91 input   59.86 | X-H torsion
[ 10167 10162 10161 10158 ] final -178.36 input  -65.29 | X-H torsion
[ 10718 10713 10712 10709 ] final  107.70 input   66.30 | X-H torsion
[ 10763 10752 10751 10750 ] final   81.77 input  -60.55 | X-H torsion
[ 11005 11000 10999 10996 ] final  -81.08 input  -57.11 | X-H torsion

> <Gold.Protein.ActiveResidues>
 VAL166  LYS551  ARG553  GLY616  TRP617  ASP618  TYR619  PRO620  LYS621  CYS622 
 ASP623  PHE694  ASN695  SER759  ASP760  ASP761  ALA762  ILE779  LEU786  VAL792 
 PHE793  MET794  SER795  GLU796  ALA797  LYS798  CYS799  TRP800  GLU811  SER814 

> <Gold.Protein.RotatedAtoms>
  150.8199  133.8271  159.3143 H   0  0  0  0  0  0  0  0  0  0  0  0  # atno 6907 bound_to 6896
  151.6032  135.1044  160.0074 H   0  0  0  0  0  0  0  0  0  0  0  0  # atno 6908 bound_to 6896
  152.4289  133.7202  159.6585 H   0  0  0  0  0  0  0  0  0  0  0  0  # atno 6909 bound_to 6896
  145.4894  139.2277  143.2838 H   0  0  0  0  0  0  0  0  0  0  0  0  # atno 7974 bound_to 7965
  155.4030  140.0507  157.3036 H   0  0  0  0  0  0  0  0  0  0  0  0  # atno 8008 bound_to 7997
  154.4982  140.2146  155.9363 H   0  0  0  0  0  0  0  0  0  0  0  0  # atno 8009 bound_to 7997
  156.1433  140.3150  155.8534 H   0  0  0  0  0  0  0  0  0  0  0  0  # atno 8010 bound_to 7997
  139.5436  144.2296  152.0944 H   0  0  0  0  0  0  0  0  0  0  0  0  # atno 10167 bound_to 10162
  157.6617  131.0878  150.6195 H   0  0  0  0  0  0  0  0  0  0  0  0  # atno 10718 bound_to 10713
  153.1145  135.4753  154.9092 H   0  0  0  0  0  0  0  0  0  0  0  0  # atno 10763 bound_to 10752
  154.7515  135.3107  154.8552 H   0  0  0  0  0  0  0  0  0  0  0  0  # atno 10764 bound_to 10752
  153.9132  135.6863  153.4804 H   0  0  0  0  0  0  0  0  0  0  0  0  # atno 10765 bound_to 10752
  141.1667  133.7180  156.8369 H   0  0  0  0  0  0  0  0  0  0  0  0  # atno 11005 bound_to 11000
  146.2293  140.5687  142.8982 LP  0  0  0  0  0  0  0  0  0  0  0  0  # atno 17320 bound_to 7965
  144.7843  140.5904  143.6584 LP  0  0  0  0  0  0  0  0  0  0  0  0  # atno 17321 bound_to 7965
  140.1778  144.4873  150.6544 LP  0  0  0  0  0  0  0  0  0  0  0  0  # atno 17342 bound_to 10162
  140.6676  143.2273  151.5705 LP  0  0  0  0  0  0  0  0  0  0  0  0  # atno 17343 bound_to 10162
  156.6498  130.4482  149.5723 LP  0  0  0  0  0  0  0  0  0  0  0  0  # atno 17370 bound_to 10713
  156.2146  130.6700  151.1305 LP  0  0  0  0  0  0  0  0  0  0  0  0  # atno 17371 bound_to 10713
  140.2011  134.8896  157.3170 LP  0  0  0  0  0  0  0  0  0  0  0  0  # atno 17394 bound_to 11000
  140.2186  134.4050  155.7577 LP  0  0  0  0  0  0  0  0  0  0  0  0  # atno 17395 bound_to 11000

$$$$
