AV-unprocessed.smi:1198|AV-procd|sdf|5013|dock3
  -GOLD-   22720 4 33D 1   1.00000     0.00000
 Structure written by MMmdl.
 40 41  0  0  0  0  0  0  0  0  2 V2000
  152.5358  140.5837  158.2540 C   0  0  0  0  0  0  0  0  0  0  0  0
  151.9537  140.8028  156.9733 O   0  0  0  0  0  0  0  0  0  0  0  0
  151.3689  139.7321  156.3284 C   0  0  0  0  0  0  0  0  0  0  0  0
  151.0866  138.5684  157.0708 C   0  0  0  0  0  0  0  0  0  0  0  0
  150.4922  137.4734  156.4156 C   0  0  0  0  0  0  0  0  0  0  0  0
  150.2050  137.5677  155.0388 C   0  0  0  0  0  0  0  0  0  0  0  0
  149.5897  136.4527  154.4070 N   0  0  0  0  0  0  0  0  0  0  0  0
  149.1706  135.3030  154.9634 C   0  0  0  0  0  0  0  0  0  0  0  0
  149.2088  135.0380  156.1647 O   0  0  0  0  0  0  0  0  0  0  0  0
  148.6709  134.4687  154.0401 N   0  0  0  0  0  0  0  0  0  0  0  0
  148.1552  133.1283  154.3036 C   0  0  0  0  0  0  0  0  0  0  0  0
  147.9158  132.3266  153.0092 C   0  0  1  0  0  0  0  0  0  0  0  0
  146.9635  131.1441  153.1885 C   0  0  0  0  0  0  0  0  0  0  0  0
  146.4227  130.8634  151.7804 C   0  0  0  0  0  0  0  0  0  0  0  0
  146.7066  132.0687  150.9676 N   0  3  1  0  0  0  0  0  0  0  0  0
  145.5801  132.5246  150.1270 C   0  0  0  0  0  0  0  0  0  0  0  0
  147.2452  133.1024  151.8731 C   0  0  0  0  0  0  0  0  0  0  0  0
  150.5139  138.7855  154.3845 C   0  0  0  0  0  0  0  0  0  0  0  0
  151.0832  139.8390  155.0074 N   0  0  0  0  0  0  0  0  0  0  0  0
  152.9511  141.5197  158.6273 H   0  0  0  0  0  0  0  0  0  0  0  0
  153.3492  139.8584  158.2038 H   0  0  0  0  0  0  0  0  0  0  0  0
  151.7937  140.2403  158.9762 H   0  0  0  0  0  0  0  0  0  0  0  0
  151.3218  138.5173  158.1238 H   0  0  0  0  0  0  0  0  0  0  0  0
  150.2646  136.5721  156.9660 H   0  0  0  0  0  0  0  0  0  0  0  0
  149.4140  136.5595  153.4186 H   0  0  0  0  0  0  0  0  0  0  0  0
  148.6736  134.7719  153.0769 H   0  0  0  0  0  0  0  0  0  0  0  0
  148.8903  132.6097  154.9194 H   0  0  0  0  0  0  0  0  0  0  0  0
  147.2426  133.1782  154.9005 H   0  0  0  0  0  0  0  0  0  0  0  0
  148.8708  131.9419  152.6467 H   0  0  0  0  0  0  0  0  0  0  0  0
  147.4516  130.2753  153.6310 H   0  0  0  0  0  0  0  0  0  0  0  0
  146.1372  131.4269  153.8426 H   0  0  0  0  0  0  0  0  0  0  0  0
  146.9314  130.0116  151.3281 H   0  0  0  0  0  0  0  0  0  0  0  0
  145.3571  130.6310  151.8168 H   0  0  0  0  0  0  0  0  0  0  0  0
  144.7191  132.7999  150.7378 H   0  0  0  0  0  0  0  0  0  0  0  0
  145.2751  131.7356  149.4389 H   0  0  0  0  0  0  0  0  0  0  0  0
  145.8735  133.3930  149.5364 H   0  0  0  0  0  0  0  0  0  0  0  0
  146.4262  133.7064  152.2677 H   0  0  0  0  0  0  0  0  0  0  0  0
  147.9345  133.7667  151.3511 H   0  0  0  0  0  0  0  0  0  0  0  0
  150.2902  138.9497  153.3423 H   0  0  0  0  0  0  0  0  0  0  0  0
  147.4623  131.8167  150.3467 H   0  0  0  0  0  0  0  0  0  0  0  0
  1  2  1  0  0  0  0
  1 20  1  0  0  0  0
  1 21  1  0  0  0  0
  1 22  1  0  0  0  0
  2  3  1  0  0  0  0
  3 19  1  0  0  0  0
  3  4  2  0  0  0  0
  4  5  1  0  0  0  0
  4 23  1  0  0  0  0
  5  6  2  0  0  0  0
  5 24  1  0  0  0  0
  6  7  1  0  0  0  0
  6 18  1  0  0  0  0
  7  8  1  0  0  0  0
  7 25  1  0  0  0  0
  8  9  2  0  0  0  0
  8 10  1  0  0  0  0
 10 11  1  0  0  0  0
 10 26  1  0  0  0  0
 11 12  1  0  0  0  0
 11 27  1  0  0  0  0
 11 28  1  0  0  0  0
 12 17  1  0  0  0  0
 12 13  1  0  0  0  0
 12 29  1  0  0  0  0
 13 14  1  0  0  0  0
 13 30  1  0  0  0  0
 13 31  1  0  0  0  0
 14 15  1  0  0  0  0
 14 32  1  0  0  0  0
 14 33  1  0  0  0  0
 15 16  1  0  0  0  0
 15 17  1  0  0  0  0
 15 40  1  0  0  0  0
 16 34  1  0  0  0  0
 16 35  1  0  0  0  0
 16 36  1  0  0  0  0
 17 37  1  0  0  0  0
 17 38  1  0  0  0  0
 18 19  2  0  0  0  0
 18 39  1  0  0  0  0
M  CHG  1  15   1
M  END
> <s_m_source_file>
AV-unprocessed.smi

> <i_m_source_file_index>
1198

> <i_lp_mmshare_version>
43012

> <i_f3d_flags>
0

> <s_epik_input>
W0NIM11PYzFbY0hdW2NIXWMoW2NIXW4xKVtOSF1DKD1PKVtOSF1bQ0gyXVtDQEBIXTJbQ0gyXVtDSDJdTihbQ0gzXSlbQ0gyXTI=

> <s_epik_cmdline>
J2VwaWtfcHl0aG9uJywgJy1waCcsICc3LjAnLCAnLXRuJywgJzgnLCAnLW1hJywgJzIwMCcsICctbWV0YWxfYmluZGluZycsICctaW1hZScsICc8aW5maWxlLm1hZT4nLCAnLW9tYWUnLCAnPG91dGZpbGUubWFlPic=

> <r_lp_tautomer_probability>
1

> <r_epik_Ionization_Penalty>
0.00131396

> <r_epik_Ionization_Penalty_Charging>
0.0012301

> <r_epik_Ionization_Penalty_Neutral>
8.38549e-05

> <r_epik_State_Penalty>
0.00081314

> <r_epik_Charging_Adjusted_Penalty>
0.00204324

> <i_epik_Tot_Q>
1

> <i_epik_Tot_abs_Q>
1

> <r_epik_Metal_State_Penalty>
-0

> <b_epik_Metal_Only>
0

> <s_lp_Force_Field>
OPLS_2005

> <r_lp_Energy>
29.2509

> <b_lp_Chiralities_Consistent>
1

> <s_lp_Variant>
AV-unprocessed.smi:1198-4

> <Gold.Version>
5.8.1

> <Gold.Id.Protein>
6NUR|6NUR_protein|mol2

> <Gold.PLP.Fitness>
41.0807

> <Gold.PLP.PLP>
-27.0238

> <Gold.PLP.part.hbond>
-4.0000

> <Gold.PLP.part.metal>
0.0000

> <Gold.PLP.part.buried>
-3.2439

> <Gold.PLP.part.nonpolar>
-19.4671

> <Gold.PLP.part.repulsive>
0.1303

> <Gold.PLP.ligand.clash>
0.0048

> <Gold.PLP.ligand.torsion>
0.4032

> <Gold.PLP.Chemscore.Hbond>
3.9520

> <Gold.PLP.Chemscore.CHOScore>
1.0000

> <Gold.PLP.Chemscore.Metal>
0.0000

> <Gold.Chemscore.Hbonds>
donor molecule, donor type, donor heavy atom, donor atom, acceptor molecule, acceptor atom, score
      L1  H     7    25       P1  7948  1.00
      L1  H    10    26       P1  7948  0.94
      L1  H    15    40       P1 10747  0.86
      P1  H  7989  7998       L1    19  1.00
      L1  C    18    39       P1  7957  1.00

> <Gold.PLP.Chemscore.Internal.Correction>
0.0119

> <Gold.Rescore>
     Score         DG    S(hbond)    S(metal)    S(lipo)     H(rot)  DE(clash)    DE(int)     intcor
     17.36     -19.27       3.00        0.00      65.48       1.51       0.02       1.89       ----

> <Gold.Chemscore.Fitness>
17.3566

> <Gold.Chemscore.DG>
-19.2689

> <Gold.Chemscore.ZeroCoef>
-5.4800

> <Gold.Chemscore.Hbond>
2.9958

> <Gold.Chemscore.Metal>
0.0000

> <Gold.Chemscore.Lipo>
65.4787

> <Gold.Chemscore.Internal_Hbond>
0.0000

> <Gold.Chemscore.DEClash>
0.0231

> <Gold.Chemscore.DEInternal>
1.8892

> <Gold.Chemscore.Rot>
1.5149

> <Gold.Chemscore.Internal.Correction>
   9.000000E+99

> <Gold.Chemscore.Hbonds>
donor molecule, donor type, donor heavy atom, donor atom, acceptor molecule, acceptor atom, score
      L1  H     7    25       P1  7948  0.81
      L1  H    10    26       P1  7948  0.28
      L1  H    15    40       P1 10747  0.85
      P1  H  7989  7998       L1    19  0.26

> <Gold.Chemscore.Hbond.Weighted>
-10.0060

> <Gold.Chemscore.Metal.Weighted>
-0.0000

> <Gold.Chemscore.Lipo.Weighted>
-7.6610

> <Gold.Chemscore.Internal_Hbond.Weighted>
0.0000

> <Gold.Chemscore.DEClash.Weighted>
0.0231

> <Gold.Chemscore.DEInternal.Weighted>
1.8892

> <Gold.Chemscore.Rot.Weighted>
3.8781

> <Gold.Chemscore.Internal.Correction.Weighted>
   9.000000E+99

> <Gold.Protein.RotatedTorsions>
[ 6907 6896 6895 6894 ] final  140.62 input  -60.11 | X-H torsion
[ 7974 7965 7964 7962 ] final  168.79 input  175.53 | X-H torsion
[ 8008 7997 7996 7995 ] final  166.08 input   59.86 | X-H torsion
[ 10167 10162 10161 10158 ] final -109.77 input  -65.29 | X-H torsion
[ 10718 10713 10712 10709 ] final  126.27 input   66.30 | X-H torsion
[ 10763 10752 10751 10750 ] final  140.18 input  -60.55 | X-H torsion
[ 11005 11000 10999 10996 ] final -149.07 input  -57.11 | X-H torsion

> <Gold.Protein.ActiveResidues>
 VAL166  LYS551  ARG553  GLY616  TRP617  ASP618  TYR619  PRO620  LYS621  CYS622 
 ASP623  PHE694  ASN695  SER759  ASP760  ASP761  ALA762  ILE779  LEU786  VAL792 
 PHE793  MET794  SER795  GLU796  ALA797  LYS798  CYS799  TRP800  GLU811  SER814 

> <Gold.Protein.RotatedAtoms>
  152.2408  133.5134  159.5268 H   0  0  0  0  0  0  0  0  0  0  0  0  # atno 6907 bound_to 6896
  150.7064  134.1091  159.4002 H   0  0  0  0  0  0  0  0  0  0  0  0  # atno 6908 bound_to 6896
  151.9012  135.0377  160.0557 H   0  0  0  0  0  0  0  0  0  0  0  0  # atno 6909 bound_to 6896
  144.7376  139.8959  143.6406 H   0  0  0  0  0  0  0  0  0  0  0  0  # atno 7974 bound_to 7965
  156.1748  140.1653  156.8382 H   0  0  0  0  0  0  0  0  0  0  0  0  # atno 8008 bound_to 7997
  154.5295  140.0760  156.8353 H   0  0  0  0  0  0  0  0  0  0  0  0  # atno 8009 bound_to 7997
  155.3436  140.3386  155.4241 H   0  0  0  0  0  0  0  0  0  0  0  0  # atno 8010 bound_to 7997
  140.1517  143.4194  152.1490 H   0  0  0  0  0  0  0  0  0  0  0  0  # atno 10167 bound_to 10162
  157.5433  131.1096  150.8823 H   0  0  0  0  0  0  0  0  0  0  0  0  # atno 10718 bound_to 10713
  153.9185  135.3003  155.3448 H   0  0  0  0  0  0  0  0  0  0  0  0  # atno 10763 bound_to 10752
  154.7587  135.4944  153.9427 H   0  0  0  0  0  0  0  0  0  0  0  0  # atno 10764 bound_to 10752
  153.1154  135.6769  153.9529 H   0  0  0  0  0  0  0  0  0  0  0  0  # atno 10765 bound_to 10752
  140.7546  134.3368  157.5117 H   0  0  0  0  0  0  0  0  0  0  0  0  # atno 11005 bound_to 11000
  146.1107  139.4112  143.0289 LP  0  0  0  0  0  0  0  0  0  0  0  0  # atno 17320 bound_to 7965
  145.7446  140.9995  143.1282 LP  0  0  0  0  0  0  0  0  0  0  0  0  # atno 17321 bound_to 7965
  139.5423  144.7267  151.4695 LP  0  0  0  0  0  0  0  0  0  0  0  0  # atno 17342 bound_to 10162
  140.6698  143.8318  150.6986 LP  0  0  0  0  0  0  0  0  0  0  0  0  # atno 17343 bound_to 10162
  156.9370  130.5370  149.5279 LP  0  0  0  0  0  0  0  0  0  0  0  0  # atno 17370 bound_to 10713
  156.0514  130.5583  150.8998 LP  0  0  0  0  0  0  0  0  0  0  0  0  # atno 17371 bound_to 10713
  139.8781  134.9163  156.3152 LP  0  0  0  0  0  0  0  0  0  0  0  0  # atno 17394 bound_to 11000
  140.9719  133.7321  156.0547 LP  0  0  0  0  0  0  0  0  0  0  0  0  # atno 17395 bound_to 11000

$$$$
