AV-unprocessed.smi:3287|AV-procd|sdf|12592|dock1
  -GOLD-   2272018513D 1   1.00000     0.00000
 Structure written by MMmdl.
 43 44  0  0  0  0  0  0  0  0  2 V2000
  152.2785  143.8247  162.0746 C   0  0  0  0  0  0  0  0  0  0  0  0
  152.5008  143.8776  160.5524 C   0  0  2  0  0  0  0  0  0  0  0  0
  151.4688  144.8241  159.9064 C   0  0  0  0  0  0  0  0  0  0  0  0
  151.6426  144.9234  158.3822 C   0  0  0  0  0  0  0  0  0  0  0  0
  151.5922  143.5440  157.7043 C   0  0  2  0  0  0  0  0  0  0  0  0
  150.2168  142.9957  157.7483 N   0  3  0  0  0  0  0  0  0  0  0  0
  150.0559  141.6285  157.2078 C   0  0  0  0  0  0  0  0  0  0  0  0
  150.4977  141.5537  155.7362 C   0  0  2  0  0  0  0  0  0  0  0  0
  149.4095  141.9353  154.9164 O   0  0  0  0  0  0  0  0  0  0  0  0
  151.0075  140.1645  155.3866 C   0  0  0  0  0  0  0  0  0  0  0  0
  150.3374  139.3778  154.4264 C   0  0  0  0  0  0  0  0  0  0  0  0
  150.8482  138.0988  154.1275 C   0  0  0  0  0  0  0  0  0  0  0  0
  151.9514  137.5858  154.7126 N   0  0  0  0  0  0  0  0  0  0  0  0
  152.5910  138.3433  155.6292 C   0  0  0  0  0  0  0  0  0  0  0  0
  152.1638  139.6340  155.9994 C   0  0  0  0  0  0  0  0  0  0  0  0
  152.6238  142.5982  158.3542 C   0  0  0  0  0  0  0  0  0  0  0  0
  152.4537  142.4776  159.8847 C   0  0  1  0  0  0  0  0  0  0  0  0
  153.5071  141.5082  160.4499 C   0  0  0  0  0  0  0  0  0  0  0  0
  151.3342  143.3390  162.3218 H   0  0  0  0  0  0  0  0  0  0  0  0
  152.2560  144.8279  162.5012 H   0  0  0  0  0  0  0  0  0  0  0  0
  153.0774  143.2854  162.5827 H   0  0  0  0  0  0  0  0  0  0  0  0
  153.4913  144.3022  160.3807 H   0  0  0  0  0  0  0  0  0  0  0  0
  150.4597  144.4815  160.1389 H   0  0  0  0  0  0  0  0  0  0  0  0
  151.5572  145.8204  160.3417 H   0  0  0  0  0  0  0  0  0  0  0  0
  150.8818  145.5812  157.9601 H   0  0  0  0  0  0  0  0  0  0  0  0
  152.6027  145.3941  158.1652 H   0  0  0  0  0  0  0  0  0  0  0  0
  151.8539  143.6819  156.6541 H   0  0  0  0  0  0  0  0  0  0  0  0
  149.8929  143.0084  158.7053 H   0  0  0  0  0  0  0  0  0  0  0  0
  150.6598  140.9456  157.8068 H   0  0  0  0  0  0  0  0  0  0  0  0
  149.0198  141.3026  157.2994 H   0  0  0  0  0  0  0  0  0  0  0  0
  151.3028  142.2696  155.5637 H   0  0  0  0  0  0  0  0  0  0  0  0
  149.3466  142.8787  154.9214 H   0  0  0  0  0  0  0  0  0  0  0  0
  149.4514  139.7407  153.9258 H   0  0  0  0  0  0  0  0  0  0  0  0
  150.3576  137.4722  153.3973 H   0  0  0  0  0  0  0  0  0  0  0  0
  153.4710  137.9092  156.0801 H   0  0  0  0  0  0  0  0  0  0  0  0
  152.7153  140.1993  156.7366 H   0  0  0  0  0  0  0  0  0  0  0  0
  152.5862  141.6121  157.8926 H   0  0  0  0  0  0  0  0  0  0  0  0
  153.6242  142.9780  158.1411 H   0  0  0  0  0  0  0  0  0  0  0  0
  151.4738  142.0396  160.0802 H   0  0  0  0  0  0  0  0  0  0  0  0
  154.5138  141.9160  160.3552 H   0  0  0  0  0  0  0  0  0  0  0  0
  153.4857  140.5551  159.9210 H   0  0  0  0  0  0  0  0  0  0  0  0
  153.3316  141.2871  161.5023 H   0  0  0  0  0  0  0  0  0  0  0  0
  149.6241  143.6063  157.2042 H   0  0  0  0  0  0  0  0  0  0  0  0
  1  2  1  0  0  0  0
  1 19  1  0  0  0  0
  1 20  1  0  0  0  0
  1 21  1  0  0  0  0
  2 17  1  0  0  0  0
  2  3  1  0  0  0  0
  2 22  1  0  0  0  0
  3  4  1  0  0  0  0
  3 23  1  0  0  0  0
  3 24  1  0  0  0  0
  4  5  1  0  0  0  0
  4 25  1  0  0  0  0
  4 26  1  0  0  0  0
  5  6  1  0  0  0  0
  5 16  1  0  0  0  0
  5 27  1  0  0  0  0
  6  7  1  0  0  0  0
  6 28  1  0  0  0  0
  6 43  1  0  0  0  0
  7  8  1  0  0  0  0
  7 29  1  0  0  0  0
  7 30  1  0  0  0  0
  8  9  1  0  0  0  0
  8 10  1  0  0  0  0
  8 31  1  0  0  0  0
  9 32  1  0  0  0  0
 10 15  1  0  0  0  0
 10 11  2  0  0  0  0
 11 12  1  0  0  0  0
 11 33  1  0  0  0  0
 12 13  2  0  0  0  0
 12 34  1  0  0  0  0
 13 14  1  0  0  0  0
 14 15  2  0  0  0  0
 14 35  1  0  0  0  0
 15 36  1  0  0  0  0
 16 17  1  0  0  0  0
 16 37  1  0  0  0  0
 16 38  1  0  0  0  0
 17 18  1  0  0  0  0
 17 39  1  0  0  0  0
 18 40  1  0  0  0  0
 18 41  1  0  0  0  0
 18 42  1  0  0  0  0
M  CHG  1   6   1
M  END
> <s_m_source_file>
AV-unprocessed.smi

> <i_m_source_file_index>
3287

> <i_lp_mmshare_version>
43012

> <i_f3d_flags>
0

> <s_epik_input>
W0NIM11bQ0BASF0xW0NIMl1bQ0gyXVtDQEhdKFtDSDJdW0NASF0xW0NIM10pW05IXVtDSDJdW0NASF0oW09IXSljMltjSF1bY0hdbltjSF1bY0hdMg==

> <s_epik_cmdline>
J2VwaWtfcHl0aG9uJywgJy1waCcsICc3LjAnLCAnLXRuJywgJzgnLCAnLW1hJywgJzIwMCcsICctbWV0YWxfYmluZGluZycsICctaW1hZScsICc8aW5maWxlLm1hZT4nLCAnLW9tYWUnLCAnPG91dGZpbGUubWFlPic=

> <r_lp_tautomer_probability>
1

> <r_epik_Ionization_Penalty>
0.00537262

> <r_epik_Ionization_Penalty_Charging>
0.00321624

> <r_epik_Ionization_Penalty_Neutral>
0.00215638

> <r_epik_State_Penalty>
-0

> <r_epik_Charging_Adjusted_Penalty>
0.00321624

> <i_epik_Tot_Q>
1

> <i_epik_Tot_abs_Q>
1

> <r_epik_Metal_State_Penalty>
-0

> <b_epik_Metal_Only>
0

> <s_lp_Force_Field>
OPLS_2005

> <r_lp_Energy>
19.3861

> <b_lp_Chiralities_Consistent>
1

> <s_lp_Variant>
AV-unprocessed.smi:3287-3

> <Gold.Version>
5.8.1

> <Gold.Id.Protein>
6NUR|6NUR_protein|mol2

> <Gold.PLP.Fitness>
60.8409

> <Gold.PLP.PLP>
-47.6628

> <Gold.PLP.part.hbond>
-3.3158

> <Gold.PLP.part.metal>
0.0000

> <Gold.PLP.part.buried>
-2.8103

> <Gold.PLP.part.nonpolar>
-40.4019

> <Gold.PLP.part.repulsive>
0.1372

> <Gold.PLP.ligand.clash>
0.0000

> <Gold.PLP.ligand.torsion>
0.3822

> <Gold.PLP.Chemscore.Hbond>
3.5149

> <Gold.PLP.Chemscore.CHOScore>
1.1217

> <Gold.PLP.Chemscore.Metal>
0.0000

> <Gold.Chemscore.Hbonds>
donor molecule, donor type, donor heavy atom, donor atom, acceptor molecule, acceptor atom, score
      L1  H     6    43       P1  8028  2.00
      L1  H     9    32       P1  8028  1.00
      P1  H 10752 10763       L1    13  0.50
      L1  C    12    34       P1  7948  0.77
      L1  C    12    34       P1  7949  0.35

> <Gold.PLP.Chemscore.Internal.Correction>
0.0326

> <Gold.Rescore>
     Score         DG    S(hbond)    S(metal)    S(lipo)     H(rot)  DE(clash)    DE(int)     intcor
     23.36     -24.33       2.07        0.00     143.63       1.90       0.61       0.36       ----

> <Gold.Chemscore.Fitness>
23.3648

> <Gold.Chemscore.DG>
-24.3290

> <Gold.Chemscore.ZeroCoef>
-5.4800

> <Gold.Chemscore.Hbond>
2.0710

> <Gold.Chemscore.Metal>
0.0000

> <Gold.Chemscore.Lipo>
143.6310

> <Gold.Chemscore.Internal_Hbond>
0.0000

> <Gold.Chemscore.DEClash>
0.6076

> <Gold.Chemscore.DEInternal>
0.3566

> <Gold.Chemscore.Rot>
1.9035

> <Gold.Chemscore.Internal.Correction>
   9.000000E+99

> <Gold.Chemscore.Hbonds>
donor molecule, donor type, donor heavy atom, donor atom, acceptor molecule, acceptor atom, score
      L1  H     6    43       P1  8028  0.80
      L1  H     9    32       P1  8028  0.93
      P1  H 10752 10763       L1    13  0.40

> <Gold.Chemscore.Hbond.Weighted>
-6.9170

> <Gold.Chemscore.Metal.Weighted>
-0.0000

> <Gold.Chemscore.Lipo.Weighted>
-16.8048

> <Gold.Chemscore.Internal_Hbond.Weighted>
0.0000

> <Gold.Chemscore.DEClash.Weighted>
0.6076

> <Gold.Chemscore.DEInternal.Weighted>
0.3566

> <Gold.Chemscore.Rot.Weighted>
4.8729

> <Gold.Chemscore.Internal.Correction.Weighted>
   9.000000E+99

> <Gold.Protein.RotatedTorsions>
[ 6907 6896 6895 6894 ] final -160.11 input  -60.11 | X-H torsion
[ 7974 7965 7964 7962 ] final  -74.85 input  175.53 | X-H torsion
[ 8008 7997 7996 7995 ] final -130.85 input   59.86 | X-H torsion
[ 10167 10162 10161 10158 ] final   46.84 input  -65.29 | X-H torsion
[ 10718 10713 10712 10709 ] final  103.42 input   66.30 | X-H torsion
[ 10763 10752 10751 10750 ] final   48.55 input  -60.55 | X-H torsion
[ 11005 11000 10999 10996 ] final  155.33 input  -57.11 | X-H torsion

> <Gold.Protein.ActiveResidues>
 VAL166  LYS551  ARG553  GLY616  TRP617  ASP618  TYR619  PRO620  LYS621  CYS622 
 ASP623  PHE694  ASN695  SER759  ASP760  ASP761  ALA762  ILE779  LEU786  VAL792 
 PHE793  MET794  SER795  GLU796  ALA797  LYS798  CYS799  TRP800  GLU811  SER814 

> <Gold.Protein.RotatedAtoms>
  151.3440  133.3951  159.2673 H   0  0  0  0  0  0  0  0  0  0  0  0  # atno 6907 bound_to 6896
  150.9855  134.9202  159.7879 H   0  0  0  0  0  0  0  0  0  0  0  0  # atno 6908 bound_to 6896
  152.5231  134.3404  159.9267 H   0  0  0  0  0  0  0  0  0  0  0  0  # atno 6909 bound_to 6896
  145.6338  140.9330  143.1073 H   0  0  0  0  0  0  0  0  0  0  0  0  # atno 7974 bound_to 7965
  155.3026  140.0453  157.3030 H   0  0  0  0  0  0  0  0  0  0  0  0  # atno 8008 bound_to 7997
  154.5478  140.2308  155.8502 H   0  0  0  0  0  0  0  0  0  0  0  0  # atno 8009 bound_to 7997
  156.1939  140.3043  155.9395 H   0  0  0  0  0  0  0  0  0  0  0  0  # atno 8010 bound_to 7997
  140.3098  144.2834  150.6202 H   0  0  0  0  0  0  0  0  0  0  0  0  # atno 10167 bound_to 10162
  157.6773  131.0778  150.5553 H   0  0  0  0  0  0  0  0  0  0  0  0  # atno 10718 bound_to 10713
  152.9791  135.5940  154.3944 H   0  0  0  0  0  0  0  0  0  0  0  0  # atno 10763 bound_to 10752
  154.3596  135.2767  155.2329 H   0  0  0  0  0  0  0  0  0  0  0  0  # atno 10764 bound_to 10752
  154.4332  135.6031  153.6137 H   0  0  0  0  0  0  0  0  0  0  0  0  # atno 10765 bound_to 10752
  140.1571  134.8635  157.2528 H   0  0  0  0  0  0  0  0  0  0  0  0  # atno 11005 bound_to 11000
  144.7183  139.8117  143.7391 LP  0  0  0  0  0  0  0  0  0  0  0  0  # atno 17320 bound_to 7965
  146.1336  139.4376  143.0153 LP  0  0  0  0  0  0  0  0  0  0  0  0  # atno 17321 bound_to 7965
  140.5578  143.2196  151.7817 LP  0  0  0  0  0  0  0  0  0  0  0  0  # atno 17342 bound_to 10162
  139.4896  144.4390  151.9786 LP  0  0  0  0  0  0  0  0  0  0  0  0  # atno 17343 bound_to 10162
  156.5856  130.4316  149.5958 LP  0  0  0  0  0  0  0  0  0  0  0  0  # atno 17370 bound_to 10713
  156.2625  130.6970  151.1743 LP  0  0  0  0  0  0  0  0  0  0  0  0  # atno 17371 bound_to 10713
  140.2534  134.3656  155.7433 LP  0  0  0  0  0  0  0  0  0  0  0  0  # atno 17394 bound_to 11000
  141.2205  133.7329  156.8970 LP  0  0  0  0  0  0  0  0  0  0  0  0  # atno 17395 bound_to 11000

$$$$
