AV-unprocessed.smi:2067|AV-procd|sdf|8423|dock7
  -GOLD-   2272011113D 1   1.00000     0.00000
 Structure written by MMmdl.
 47 48  0  0  0  0  0  0  0  0  1 V2000
  152.7206  132.3757  157.0094 C   0  0  0  0  0  0  0  0  0  0  0  0
  151.5636  131.5908  156.3694 C   0  0  2  0  0  0  0  0  0  0  0  0
  152.1027  130.3911  155.5643 C   0  0  0  0  0  0  0  0  0  0  0  0
  150.9694  129.5884  154.9077 C   0  0  0  0  0  0  0  0  0  0  0  0
  150.0993  130.4893  154.0208 C   0  0  0  0  0  0  0  0  0  0  0  0
  149.5461  131.6796  154.8180 C   0  0  0  0  0  0  0  0  0  0  0  0
  150.6791  132.4944  155.4794 C   0  0  1  0  0  0  0  0  0  0  0  0
  150.1329  133.5137  156.3084 O   0  0  0  0  0  0  0  0  0  0  0  0
  149.3672  134.4947  155.6240 C   0  0  0  0  0  0  0  0  0  0  0  0
  150.3260  135.4688  154.9343 C   0  0  0  0  0  0  0  0  0  0  0  0
  149.6499  136.7057  154.5772 N   0  0  0  0  0  0  0  0  0  0  0  0
  150.0010  137.9995  154.9495 C   0  0  0  0  0  0  0  0  0  0  0  0
  151.0684  138.2457  155.7608 C   0  0  0  0  0  0  0  0  0  0  0  0
  151.8915  137.2174  156.3160 C   0  0  0  0  0  0  0  0  0  0  0  0
  152.5619  136.3765  156.7460 N   0  0  0  0  0  0  0  0  0  0  0  0
  151.4318  139.5995  156.1734 C   0  0  0  0  0  0  0  0  0  0  0  0
  152.3985  139.8626  156.8930 O   0  0  0  0  0  0  0  0  0  0  0  0
  150.5832  140.6139  155.6866 N   0  0  0  0  0  0  0  0  0  0  0  0
  150.9069  141.9685  156.0893 C   0  0  0  0  0  0  0  0  0  0  0  0
  149.4681  140.3870  154.8530 C   0  0  0  0  0  0  0  0  0  0  0  0
  148.7546  141.3130  154.4557 O   0  0  0  0  0  0  0  0  0  0  0  0
  149.1983  139.0458  154.4849 N   0  0  0  0  0  0  0  0  0  0  0  0
  148.0534  138.8800  153.6116 C   0  0  0  0  0  0  0  0  0  0  0  0
  153.3716  132.8116  156.2509 H   0  0  0  0  0  0  0  0  0  0  0  0
  153.3311  131.7293  157.6403 H   0  0  0  0  0  0  0  0  0  0  0  0
  152.3520  133.1872  157.6375 H   0  0  0  0  0  0  0  0  0  0  0  0
  150.9432  131.1991  157.1770 H   0  0  0  0  0  0  0  0  0  0  0  0
  152.7903  130.7435  154.7940 H   0  0  0  0  0  0  0  0  0  0  0  0
  152.6813  129.7356  156.2160 H   0  0  0  0  0  0  0  0  0  0  0  0
  151.3858  128.7732  154.3153 H   0  0  0  0  0  0  0  0  0  0  0  0
  150.3525  129.1262  155.6794 H   0  0  0  0  0  0  0  0  0  0  0  0
  150.6892  130.8551  153.1796 H   0  0  0  0  0  0  0  0  0  0  0  0
  149.2781  129.9119  153.5956 H   0  0  0  0  0  0  0  0  0  0  0  0
  148.9575  132.3076  154.1501 H   0  0  0  0  0  0  0  0  0  0  0  0
  148.8603  131.3170  155.5848 H   0  0  0  0  0  0  0  0  0  0  0  0
  151.3083  132.9406  154.7068 H   0  0  0  0  0  0  0  0  0  0  0  0
  148.7406  134.0149  154.8710 H   0  0  0  0  0  0  0  0  0  0  0  0
  148.7084  135.0342  156.3049 H   0  0  0  0  0  0  0  0  0  0  0  0
  151.1771  135.6907  155.5786 H   0  0  0  0  0  0  0  0  0  0  0  0
  150.7147  134.9920  154.0345 H   0  0  0  0  0  0  0  0  0  0  0  0
  149.1721  136.6375  153.6896 H   0  0  0  0  0  0  0  0  0  0  0  0
  150.1760  142.6847  155.7158 H   0  0  0  0  0  0  0  0  0  0  0  0
  151.8935  142.1980  155.6828 H   0  0  0  0  0  0  0  0  0  0  0  0
  150.9112  141.9913  157.1807 H   0  0  0  0  0  0  0  0  0  0  0  0
  147.1696  139.1911  154.1717 H   0  0  0  0  0  0  0  0  0  0  0  0
  147.9532  137.8428  153.2998 H   0  0  0  0  0  0  0  0  0  0  0  0
  148.2147  139.5032  152.7299 H   0  0  0  0  0  0  0  0  0  0  0  0
  1  2  1  0  0  0  0
  1 24  1  0  0  0  0
  1 25  1  0  0  0  0
  1 26  1  0  0  0  0
  2  7  1  0  0  0  0
  2  3  1  0  0  0  0
  2 27  1  0  0  0  0
  3  4  1  0  0  0  0
  3 28  1  0  0  0  0
  3 29  1  0  0  0  0
  4  5  1  0  0  0  0
  4 30  1  0  0  0  0
  4 31  1  0  0  0  0
  5  6  1  0  0  0  0
  5 32  1  0  0  0  0
  5 33  1  0  0  0  0
  6  7  1  0  0  0  0
  6 34  1  0  0  0  0
  6 35  1  0  0  0  0
  7  8  1  0  0  0  0
  7 36  1  0  0  0  0
  8  9  1  0  0  0  0
  9 10  1  0  0  0  0
  9 37  1  0  0  0  0
  9 38  1  0  0  0  0
 10 11  1  0  0  0  0
 10 39  1  0  0  0  0
 10 40  1  0  0  0  0
 11 12  1  0  0  0  0
 11 41  1  0  0  0  0
 12 22  1  0  0  0  0
 12 13  2  0  0  0  0
 13 14  1  0  0  0  0
 13 16  1  0  0  0  0
 14 15  3  0  0  0  0
 16 17  2  0  0  0  0
 16 18  1  0  0  0  0
 18 19  1  0  0  0  0
 18 20  1  0  0  0  0
 19 42  1  0  0  0  0
 19 43  1  0  0  0  0
 19 44  1  0  0  0  0
 20 21  2  0  0  0  0
 20 22  1  0  0  0  0
 22 23  1  0  0  0  0
 23 45  1  0  0  0  0
 23 46  1  0  0  0  0
 23 47  1  0  0  0  0
M  END
> <s_m_source_file>
AV-unprocessed.smi

> <i_m_source_file_index>
2067

> <i_lp_mmshare_version>
43012

> <i_f3d_flags>
0

> <s_epik_input>
W0NIM11bQ0BASF0xW0NIMl1bQ0gyXVtDSDJdW0NIMl1bQ0BIXTFPW0NIMl1bQ0gyXVtOSF1jMmMoQyNOKWMoPU8pbihbQ0gzXSljKD1PKW4yW0NIM10=

> <s_epik_cmdline>
J2VwaWtfcHl0aG9uJywgJy1waCcsICc3LjAnLCAnLXRuJywgJzgnLCAnLW1hJywgJzIwMCcsICctbWV0YWxfYmluZGluZycsICctaW1hZScsICc8aW5maWxlLm1hZT4nLCAnLW9tYWUnLCAnPG91dGZpbGUubWFlPic=

> <r_epik_Ionization_Penalty>
0.00056529

> <r_epik_Ionization_Penalty_Charging>
3.94678e-10

> <r_epik_Ionization_Penalty_Neutral>
0.000565289

> <r_epik_State_Penalty>
0.000354611

> <r_epik_Charging_Adjusted_Penalty>
0.000354611

> <i_epik_Tot_Q>
0

> <i_epik_Tot_abs_Q>
0

> <r_epik_Metal_State_Penalty>
-0

> <b_epik_Metal_Only>
0

> <s_lp_Force_Field>
OPLS_2005

> <r_lp_Energy>
32.0891

> <b_lp_Chiralities_Consistent>
1

> <s_lp_Variant>
AV-unprocessed.smi:2067-1

> <Gold.Version>
5.8.1

> <Gold.Id.Protein>
6NUR|6NUR_protein|mol2

> <Gold.PLP.Fitness>
44.5937

> <Gold.PLP.PLP>
-35.9220

> <Gold.PLP.part.hbond>
-3.0000

> <Gold.PLP.part.metal>
0.0000

> <Gold.PLP.part.buried>
-4.5764

> <Gold.PLP.part.nonpolar>
-27.1052

> <Gold.PLP.part.repulsive>
0.1753

> <Gold.PLP.ligand.clash>
8.7922

> <Gold.PLP.ligand.torsion>
0.1666

> <Gold.PLP.Chemscore.Hbond>
3.0000

> <Gold.PLP.Chemscore.CHOScore>
0.0000

> <Gold.PLP.Chemscore.Metal>
0.0000

> <Gold.Chemscore.Hbonds>
donor molecule, donor type, donor heavy atom, donor atom, acceptor molecule, acceptor atom, score
      L1  H    11    41       P1  7948  1.00
      P1  H  7997  8008       L1    17  0.99
      P1  H 10752 10764       L1    15  1.00

> <Gold.PLP.Chemscore.Internal.Correction>
8.7971

> <Gold.Rescore>
     Score         DG    S(hbond)    S(metal)    S(lipo)     H(rot)  DE(clash)    DE(int)     intcor
     13.26     -16.05       2.24        0.00      64.84       1.76       0.13       2.67       ----

> <Gold.Chemscore.Fitness>
13.2557

> <Gold.Chemscore.DG>
-16.0506

> <Gold.Chemscore.ZeroCoef>
-5.4800

> <Gold.Chemscore.Hbond>
2.2413

> <Gold.Chemscore.Metal>
0.0000

> <Gold.Chemscore.Lipo>
64.8353

> <Gold.Chemscore.Internal_Hbond>
0.0000

> <Gold.Chemscore.DEClash>
0.1287

> <Gold.Chemscore.DEInternal>
2.6662

> <Gold.Chemscore.Rot>
1.7583

> <Gold.Chemscore.Internal.Correction>
   9.000000E+99

> <Gold.Chemscore.Hbonds>
donor molecule, donor type, donor heavy atom, donor atom, acceptor molecule, acceptor atom, score
      L1  H    11    41       P1  7948  0.97
      P1  H  7997  8008       L1    17  0.91
      P1  H 10752 10764       L1    15  0.60

> <Gold.Chemscore.Hbond.Weighted>
-7.4861

> <Gold.Chemscore.Metal.Weighted>
-0.0000

> <Gold.Chemscore.Lipo.Weighted>
-7.5857

> <Gold.Chemscore.Internal_Hbond.Weighted>
0.0000

> <Gold.Chemscore.DEClash.Weighted>
0.1287

> <Gold.Chemscore.DEInternal.Weighted>
2.6662

> <Gold.Chemscore.Rot.Weighted>
4.5012

> <Gold.Chemscore.Internal.Correction.Weighted>
   9.000000E+99

> <Gold.Protein.RotatedTorsions>
[ 6907 6896 6895 6894 ] final -135.36 input  -60.11 | X-H torsion
[ 7974 7965 7964 7962 ] final  123.72 input  175.53 | X-H torsion
[ 8008 7997 7996 7995 ] final  -67.85 input   59.86 | X-H torsion
[ 10167 10162 10161 10158 ] final   11.41 input  -65.29 | X-H torsion
[ 10718 10713 10712 10709 ] final  179.39 input   66.30 | X-H torsion
[ 10763 10752 10751 10750 ] final  -14.58 input  -60.55 | X-H torsion
[ 11005 11000 10999 10996 ] final   23.46 input  -57.11 | X-H torsion

> <Gold.Protein.ActiveResidues>
 VAL166  LYS551  ARG553  GLY616  TRP617  ASP618  TYR619  PRO620  LYS621  CYS622 
 ASP623  PHE694  ASN695  SER759  ASP760  ASP761  ALA762  ILE779  LEU786  VAL792 
 PHE793  MET794  SER795  GLU796  ALA797  LYS798  CYS799  TRP800  GLU811  SER814 

> <Gold.Protein.RotatedAtoms>
  150.9970  133.6093  159.2700 H   0  0  0  0  0  0  0  0  0  0  0  0  # atno 6907 bound_to 6896
  151.3294  135.0837  159.9343 H   0  0  0  0  0  0  0  0  0  0  0  0  # atno 6908 bound_to 6896
  152.5263  133.9602  159.7768 H   0  0  0  0  0  0  0  0  0  0  0  0  # atno 6909 bound_to 6896
  145.0926  139.3575  143.4853 H   0  0  0  0  0  0  0  0  0  0  0  0  # atno 7974 bound_to 7965
  154.4828  140.0884  156.7417 H   0  0  0  0  0  0  0  0  0  0  0  0  # atno 8008 bound_to 7997
  155.4427  140.3454  155.4273 H   0  0  0  0  0  0  0  0  0  0  0  0  # atno 8009 bound_to 7997
  156.1217  140.1476  156.9184 H   0  0  0  0  0  0  0  0  0  0  0  0  # atno 8010 bound_to 7997
  140.6134  143.8360  150.7090 H   0  0  0  0  0  0  0  0  0  0  0  0  # atno 10167 bound_to 10162
  156.8764  130.9801  151.3067 H   0  0  0  0  0  0  0  0  0  0  0  0  # atno 10718 bound_to 10713
  153.5303  135.7014  153.5686 H   0  0  0  0  0  0  0  0  0  0  0  0  # atno 10763 bound_to 10752
  153.3697  135.3948  155.1779 H   0  0  0  0  0  0  0  0  0  0  0  0  # atno 10764 bound_to 10752
  154.8685  135.3809  154.4800 H   0  0  0  0  0  0  0  0  0  0  0  0  # atno 10765 bound_to 10752
  140.3694  134.2039  155.7667 H   0  0  0  0  0  0  0  0  0  0  0  0  # atno 11005 bound_to 11000
  146.3531  140.0768  142.8620 LP  0  0  0  0  0  0  0  0  0  0  0  0  # atno 17320 bound_to 7965
  145.1048  140.9368  143.4691 LP  0  0  0  0  0  0  0  0  0  0  0  0  # atno 17321 bound_to 7965
  140.1934  143.4018  152.1846 LP  0  0  0  0  0  0  0  0  0  0  0  0  # atno 17342 bound_to 10162
  139.5379  144.7228  151.4832 LP  0  0  0  0  0  0  0  0  0  0  0  0  # atno 17343 bound_to 10162
  157.6166  130.8623  149.9038 LP  0  0  0  0  0  0  0  0  0  0  0  0  # atno 17370 bound_to 10713
  156.0700  130.3686  150.0797 LP  0  0  0  0  0  0  0  0  0  0  0  0  # atno 17371 bound_to 10713
  141.1959  133.8094  157.0693 LP  0  0  0  0  0  0  0  0  0  0  0  0  # atno 17394 bound_to 11000
  140.0564  134.9778  157.1227 LP  0  0  0  0  0  0  0  0  0  0  0  0  # atno 17395 bound_to 11000

$$$$
