AV-unprocessed.smi:2812|AV-procd|sdf|10834|dock3
  -GOLD-   2272015273D 1   1.00000     0.00000
 Structure written by MMmdl.
 55 56  0  0  0  0  0  0  0  0  2 V2000
  148.0568  132.5850  153.0885 C   0  0  0  0  0  0  0  0  0  0  0  0
  146.8241  132.5999  152.1968 C   0  0  0  0  0  0  0  0  0  0  0  0
  146.2634  131.3361  151.7644 C   0  0  0  0  0  0  0  0  0  0  0  0
  145.2002  131.3286  150.9482 C   0  0  0  0  0  0  0  0  0  0  0  0
  144.6093  132.5179  150.4969 N   0  0  0  0  0  0  0  0  0  0  0  0
  143.4526  132.4079  149.6046 C   0  0  0  0  0  0  0  0  0  0  0  0
  145.0758  133.7464  150.8618 C   0  0  0  0  0  0  0  0  0  0  0  0
  144.5459  134.7809  150.4492 O   0  0  0  0  0  0  0  0  0  0  0  0
  146.2391  133.7535  151.7702 C   0  0  0  0  0  0  0  0  0  0  0  0
  146.7142  135.0153  152.1458 N   0  0  0  0  0  0  0  0  0  0  0  0
  146.0140  135.9103  152.8609 C   0  0  0  0  0  0  0  0  0  0  0  0
  144.8808  135.7185  153.3040 O   0  0  0  0  0  0  0  0  0  0  0  0
  146.7003  137.0469  153.0405 N   0  0  0  0  0  0  0  0  0  0  0  0
  146.2196  138.1943  153.8041 C   0  0  0  0  0  0  0  0  0  0  0  0
  147.3655  138.9662  154.5224 C   0  0  1  0  0  0  0  0  0  0  0  0
  148.4580  137.9512  154.9538 C   0  0  0  0  0  0  0  0  0  0  0  0
  149.6962  138.6172  155.5555 C   0  0  0  0  0  0  0  0  0  0  0  0
  150.2515  139.6311  154.5590 C   0  0  0  0  0  0  0  0  0  0  0  0
  149.1743  140.6663  154.2236 C   0  0  0  0  0  0  0  0  0  0  0  0
  147.9426  140.0471  153.6572 N   0  3  2  0  0  0  0  0  0  0  0  0
  146.9749  141.1093  153.2581 C   0  0  0  0  0  0  0  0  0  0  0  0
  146.8190  142.1778  154.3582 C   0  0  0  0  0  0  0  0  0  0  0  0
  146.3346  141.5424  155.6697 C   0  0  0  0  0  0  0  0  0  0  0  0
  145.8720  143.3107  153.9286 C   0  0  0  0  0  0  0  0  0  0  0  0
  148.5500  131.6134  153.0547 H   0  0  0  0  0  0  0  0  0  0  0  0
  147.7818  132.7845  154.1241 H   0  0  0  0  0  0  0  0  0  0  0  0
  148.7830  133.3336  152.7702 H   0  0  0  0  0  0  0  0  0  0  0  0
  146.6947  130.4030  152.0961 H   0  0  0  0  0  0  0  0  0  0  0  0
  144.7401  130.4175  150.5951 H   0  0  0  0  0  0  0  0  0  0  0  0
  142.5787  132.8861  150.0496 H   0  0  0  0  0  0  0  0  0  0  0  0
  143.1827  131.3735  149.3899 H   0  0  0  0  0  0  0  0  0  0  0  0
  143.6572  132.8942  148.6496 H   0  0  0  0  0  0  0  0  0  0  0  0
  147.5879  135.3076  151.7331 H   0  0  0  0  0  0  0  0  0  0  0  0
  147.6216  137.1191  152.6335 H   0  0  0  0  0  0  0  0  0  0  0  0
  145.7054  138.8611  153.1115 H   0  0  0  0  0  0  0  0  0  0  0  0
  145.4540  137.8289  154.4853 H   0  0  0  0  0  0  0  0  0  0  0  0
  146.9727  139.4500  155.4183 H   0  0  0  0  0  0  0  0  0  0  0  0
  148.0570  137.2472  155.6835 H   0  0  0  0  0  0  0  0  0  0  0  0
  148.7629  137.3552  154.0921 H   0  0  0  0  0  0  0  0  0  0  0  0
  149.4377  139.1118  156.4928 H   0  0  0  0  0  0  0  0  0  0  0  0
  150.4513  137.8668  155.7918 H   0  0  0  0  0  0  0  0  0  0  0  0
  151.1269  140.1268  154.9796 H   0  0  0  0  0  0  0  0  0  0  0  0
  150.5836  139.1259  153.6509 H   0  0  0  0  0  0  0  0  0  0  0  0
  148.9191  141.2265  155.1248 H   0  0  0  0  0  0  0  0  0  0  0  0
  149.5795  141.3853  153.5105 H   0  0  0  0  0  0  0  0  0  0  0  0
  147.2396  141.5922  152.3205 H   0  0  0  0  0  0  0  0  0  0  0  0
  146.0042  140.6569  153.0482 H   0  0  0  0  0  0  0  0  0  0  0  0
  147.7982  142.6160  154.5553 H   0  0  0  0  0  0  0  0  0  0  0  0
  145.3555  141.0777  155.5476 H   0  0  0  0  0  0  0  0  0  0  0  0
  146.2523  142.2876  156.4615 H   0  0  0  0  0  0  0  0  0  0  0  0
  147.0272  140.7740  156.0152 H   0  0  0  0  0  0  0  0  0  0  0  0
  144.8766  142.9297  153.6983 H   0  0  0  0  0  0  0  0  0  0  0  0
  146.2430  143.8292  153.0443 H   0  0  0  0  0  0  0  0  0  0  0  0
  145.7672  144.0547  154.7188 H   0  0  0  0  0  0  0  0  0  0  0  0
  148.2219  139.5857  152.8033 H   0  0  0  0  0  0  0  0  0  0  0  0
  1  2  1  0  0  0  0
  1 25  1  0  0  0  0
  1 26  1  0  0  0  0
  1 27  1  0  0  0  0
  2  9  2  0  0  0  0
  2  3  1  0  0  0  0
  3  4  2  0  0  0  0
  3 28  1  0  0  0  0
  4  5  1  0  0  0  0
  4 29  1  0  0  0  0
  5  6  1  0  0  0  0
  5  7  1  0  0  0  0
  6 30  1  0  0  0  0
  6 31  1  0  0  0  0
  6 32  1  0  0  0  0
  7  8  2  0  0  0  0
  7  9  1  0  0  0  0
  9 10  1  0  0  0  0
 10 11  1  0  0  0  0
 10 33  1  0  0  0  0
 11 12  2  0  0  0  0
 11 13  1  0  0  0  0
 13 14  1  0  0  0  0
 13 34  1  0  0  0  0
 14 15  1  0  0  0  0
 14 35  1  0  0  0  0
 14 36  1  0  0  0  0
 15 20  1  0  0  0  0
 15 16  1  0  0  0  0
 15 37  1  0  0  0  0
 16 17  1  0  0  0  0
 16 38  1  0  0  0  0
 16 39  1  0  0  0  0
 17 18  1  0  0  0  0
 17 40  1  0  0  0  0
 17 41  1  0  0  0  0
 18 19  1  0  0  0  0
 18 42  1  0  0  0  0
 18 43  1  0  0  0  0
 19 20  1  0  0  0  0
 19 44  1  0  0  0  0
 19 45  1  0  0  0  0
 20 21  1  0  0  0  0
 20 55  1  0  0  0  0
 21 22  1  0  0  0  0
 21 46  1  0  0  0  0
 21 47  1  0  0  0  0
 22 23  1  0  0  0  0
 22 24  1  0  0  0  0
 22 48  1  0  0  0  0
 23 49  1  0  0  0  0
 23 50  1  0  0  0  0
 23 51  1  0  0  0  0
 24 52  1  0  0  0  0
 24 53  1  0  0  0  0
 24 54  1  0  0  0  0
M  CHG  1  20   1
M  END
> <s_m_source_file>
AV-unprocessed.smi

> <i_m_source_file_index>
2812

> <i_lp_mmshare_version>
43012

> <i_f3d_flags>
0

> <s_epik_input>
W0NIM11jMVtjSF1bY0hdbihbQ0gzXSljKD1PKWMxW05IXUMoPU8pW05IXVtDSDJdW0NAQEhdMltDSDJdW0NIMl1bQ0gyXVtDSDJdTjJbQ0gyXVtDSF0oW0NIM10pW0NIM10=

> <s_epik_cmdline>
J2VwaWtfcHl0aG9uJywgJy1waCcsICc3LjAnLCAnLXRuJywgJzgnLCAnLW1hJywgJzIwMCcsICctbWV0YWxfYmluZGluZycsICctaW1hZScsICc8aW5maWxlLm1hZT4nLCAnLW9tYWUnLCAnPG91dGZpbGUubWFlPic=

> <r_lp_tautomer_probability>
1

> <r_epik_Ionization_Penalty>
0.0010902

> <r_epik_Ionization_Penalty_Charging>
0.00107091

> <r_epik_Ionization_Penalty_Neutral>
1.92854e-05

> <r_epik_State_Penalty>
0.000697184

> <r_epik_Charging_Adjusted_Penalty>
0.0017681

> <i_epik_Tot_Q>
1

> <i_epik_Tot_abs_Q>
1

> <r_epik_Metal_State_Penalty>
-0

> <b_epik_Metal_Only>
0

> <s_lp_Force_Field>
OPLS_2005

> <r_lp_Energy>
40.1667

> <b_lp_Chiralities_Consistent>
1

> <s_lp_Variant>
AV-unprocessed.smi:2812-2

> <Gold.Version>
5.8.1

> <Gold.Id.Protein>
6NUR|6NUR_protein|mol2

> <Gold.PLP.Fitness>
47.9576

> <Gold.PLP.PLP>
-42.0148

> <Gold.PLP.part.hbond>
-2.9502

> <Gold.PLP.part.metal>
0.0000

> <Gold.PLP.part.buried>
-3.7655

> <Gold.PLP.part.nonpolar>
-35.6751

> <Gold.PLP.part.repulsive>
0.9575

> <Gold.PLP.ligand.clash>
0.0000

> <Gold.PLP.ligand.torsion>
1.2794

> <Gold.PLP.Chemscore.Hbond>
2.5013

> <Gold.PLP.Chemscore.CHOScore>
0.0000

> <Gold.PLP.Chemscore.Metal>
0.0000

> <Gold.Chemscore.Hbonds>
donor molecule, donor type, donor heavy atom, donor atom, acceptor molecule, acceptor atom, score
      L1  H    10    33       P1  7948  0.99
      L1  H    13    34       P1  7948  0.91
      L1  H    20    55       P1  7957  0.43

> <Gold.PLP.Chemscore.Internal.Correction>
0.9978

> <Gold.Rescore>
     Score         DG    S(hbond)    S(metal)    S(lipo)     H(rot)  DE(clash)    DE(int)     intcor
     19.00     -20.84       2.33        0.00      97.81       1.52       0.38       1.46       ----

> <Gold.Chemscore.Fitness>
18.9970

> <Gold.Chemscore.DG>
-20.8361

> <Gold.Chemscore.ZeroCoef>
-5.4800

> <Gold.Chemscore.Hbond>
2.3331

> <Gold.Chemscore.Metal>
0.0000

> <Gold.Chemscore.Lipo>
97.8102

> <Gold.Chemscore.Internal_Hbond>
0.0000

> <Gold.Chemscore.DEClash>
0.3830

> <Gold.Chemscore.DEInternal>
1.4561

> <Gold.Chemscore.Rot>
1.5157

> <Gold.Chemscore.Internal.Correction>
   9.000000E+99

> <Gold.Chemscore.Hbonds>
donor molecule, donor type, donor heavy atom, donor atom, acceptor molecule, acceptor atom, score
      L1  H    10    33       P1  7948  0.85
      L1  H    13    34       P1  7948  0.90
      L1  H    20    55       P1  7957  0.43

> <Gold.Chemscore.Hbond.Weighted>
-7.7926

> <Gold.Chemscore.Metal.Weighted>
-0.0000

> <Gold.Chemscore.Lipo.Weighted>
-11.4438

> <Gold.Chemscore.Internal_Hbond.Weighted>
0.0000

> <Gold.Chemscore.DEClash.Weighted>
0.3830

> <Gold.Chemscore.DEInternal.Weighted>
1.4561

> <Gold.Chemscore.Rot.Weighted>
3.8803

> <Gold.Chemscore.Internal.Correction.Weighted>
   9.000000E+99

> <Gold.Protein.RotatedTorsions>
[ 6907 6896 6895 6894 ] final  119.81 input  -60.11 | X-H torsion
[ 7974 7965 7964 7962 ] final   63.36 input  175.53 | X-H torsion
[ 8008 7997 7996 7995 ] final  -64.78 input   59.86 | X-H torsion
[ 10167 10162 10161 10158 ] final   97.66 input  -65.29 | X-H torsion
[ 10718 10713 10712 10709 ] final  177.28 input   66.30 | X-H torsion
[ 10763 10752 10751 10750 ] final  -13.18 input  -60.55 | X-H torsion
[ 11005 11000 10999 10996 ] final  103.83 input  -57.11 | X-H torsion

> <Gold.Protein.ActiveResidues>
 VAL166  LYS551  ARG553  GLY616  TRP617  ASP618  TYR619  PRO620  LYS621  CYS622 
 ASP623  PHE694  ASN695  SER759  ASP760  ASP761  ALA762  ILE779  LEU786  VAL792 
 PHE793  MET794  SER795  GLU796  ALA797  LYS798  CYS799  TRP800  GLU811  SER814 

> <Gold.Protein.RotatedAtoms>
  152.4444  133.7509  159.6693 H   0  0  0  0  0  0  0  0  0  0  0  0  # atno 6907 bound_to 6896
  150.8341  133.8032  159.3093 H   0  0  0  0  0  0  0  0  0  0  0  0  # atno 6908 bound_to 6896
  151.5676  135.1066  160.0039 H   0  0  0  0  0  0  0  0  0  0  0  0  # atno 6909 bound_to 6896
  145.8627  139.3325  143.0809 H   0  0  0  0  0  0  0  0  0  0  0  0  # atno 7974 bound_to 7965
  154.4632  140.0946  156.6950 H   0  0  0  0  0  0  0  0  0  0  0  0  # atno 8008 bound_to 7997
  155.4933  140.3471  155.4340 H   0  0  0  0  0  0  0  0  0  0  0  0  # atno 8009 bound_to 7997
  156.0909  140.1397  156.9582 H   0  0  0  0  0  0  0  0  0  0  0  0  # atno 8010 bound_to 7997
  139.7780  144.6898  151.0062 H   0  0  0  0  0  0  0  0  0  0  0  0  # atno 10167 bound_to 10162
  156.9076  130.9899  151.3026 H   0  0  0  0  0  0  0  0  0  0  0  0  # atno 10718 bound_to 10713
  153.5095  135.7016  153.5788 H   0  0  0  0  0  0  0  0  0  0  0  0  # atno 10763 bound_to 10752
  153.3885  135.3902  155.1906 H   0  0  0  0  0  0  0  0  0  0  0  0  # atno 10764 bound_to 10752
  154.8704  135.3852  154.4574 H   0  0  0  0  0  0  0  0  0  0  0  0  # atno 10765 bound_to 10752
  139.8787  134.9278  156.5270 H   0  0  0  0  0  0  0  0  0  0  0  0  # atno 11005 bound_to 11000
  145.9230  140.9102  143.0395 LP  0  0  0  0  0  0  0  0  0  0  0  0  # atno 17320 bound_to 7965
  144.6726  140.1314  143.7443 LP  0  0  0  0  0  0  0  0  0  0  0  0  # atno 17321 bound_to 7965
  140.7817  143.4514  151.0408 LP  0  0  0  0  0  0  0  0  0  0  0  0  # atno 17342 bound_to 10162
  139.8195  143.7839  152.3176 LP  0  0  0  0  0  0  0  0  0  0  0  0  # atno 17343 bound_to 10162
  157.5987  130.8497  149.8769 LP  0  0  0  0  0  0  0  0  0  0  0  0  # atno 17370 bound_to 10713
  156.0551  130.3710  150.1109 LP  0  0  0  0  0  0  0  0  0  0  0  0  # atno 17371 bound_to 10713
  140.8409  133.8206  155.9074 LP  0  0  0  0  0  0  0  0  0  0  0  0  # atno 17394 bound_to 11000
  140.9238  134.2108  157.4909 LP  0  0  0  0  0  0  0  0  0  0  0  0  # atno 17395 bound_to 11000

$$$$
