AV-unprocessed.smi:1555|AV-procd|sdf|6265|dock5
  -GOLD-   22720 6453D 1   1.00000     0.00000
 Structure written by MMmdl.
 42 43  0  0  0  0  0  0  0  0  2 V2000
  153.7736  141.2317  161.0311 C   0  0  0  0  0  0  0  0  0  0  0  0
  152.5805  141.5665  160.1245 C   0  0  1  0  0  0  0  0  0  0  0  0
  152.8687  142.7900  159.2342 C   0  0  0  0  0  0  0  0  0  0  0  0
  151.8922  143.8669  159.4274 N   0  0  0  0  0  0  0  0  0  0  0  0
  151.7042  144.6289  160.5523 C   0  0  0  0  0  0  0  0  0  0  0  0
  150.6897  145.5053  160.2652 C   0  0  0  0  0  0  0  0  0  0  0  0
  150.3013  145.2411  158.9791 N   0  3  0  0  0  0  0  0  0  0  0  0
  151.0326  144.2434  158.4719 C   0  0  0  0  0  0  0  0  0  0  0  0
  152.2578  140.4096  159.2923 N   0  0  0  0  0  0  0  0  0  0  0  0
  153.1423  139.6238  158.6548 C   0  0  0  0  0  0  0  0  0  0  0  0
  154.3561  139.8253  158.7098 O   0  0  0  0  0  0  0  0  0  0  0  0
  152.5886  138.6000  157.9568 N   0  0  0  0  0  0  0  0  0  0  0  0
  151.1698  138.2050  157.9608 C   0  0  0  0  0  0  0  0  0  0  0  0
  150.5418  138.6104  156.6157 C   0  0  0  0  0  0  0  0  0  0  0  0
  151.2977  137.9750  155.4274 C   0  0  0  0  0  0  0  0  0  0  0  0
  150.7299  138.4667  154.0837 C   0  0  0  0  0  0  0  0  0  0  0  0
  149.3483  138.1892  153.9914 O   0  0  0  0  0  0  0  0  0  0  0  0
  152.8185  138.2305  155.5505 C   0  0  0  0  0  0  0  0  0  0  0  0
  153.3422  137.8473  156.9469 C   0  0  0  0  0  0  0  0  0  0  0  0
  154.0255  142.0744  161.6752 H   0  0  0  0  0  0  0  0  0  0  0  0
  154.6602  140.9828  160.4466 H   0  0  0  0  0  0  0  0  0  0  0  0
  153.5505  140.3815  161.6765 H   0  0  0  0  0  0  0  0  0  0  0  0
  151.7317  141.8106  160.7657 H   0  0  0  0  0  0  0  0  0  0  0  0
  153.8568  143.1980  159.4520 H   0  0  0  0  0  0  0  0  0  0  0  0
  152.8655  142.5135  158.1786 H   0  0  0  0  0  0  0  0  0  0  0  0
  152.2921  144.4964  161.4490 H   0  0  0  0  0  0  0  0  0  0  0  0
  150.2278  146.2770  160.8639 H   0  0  0  0  0  0  0  0  0  0  0  0
  150.9482  143.8269  157.4838 H   0  0  0  0  0  0  0  0  0  0  0  0
  151.2789  140.1852  159.1885 H   0  0  0  0  0  0  0  0  0  0  0  0
  151.1003  137.1242  158.0922 H   0  0  0  0  0  0  0  0  0  0  0  0
  150.5920  138.6287  158.7822 H   0  0  0  0  0  0  0  0  0  0  0  0
  149.4937  138.3100  156.5941 H   0  0  0  0  0  0  0  0  0  0  0  0
  150.5537  139.6975  156.5240 H   0  0  0  0  0  0  0  0  0  0  0  0
  151.1367  136.8971  155.4855 H   0  0  0  0  0  0  0  0  0  0  0  0
  150.8665  139.5440  153.9849 H   0  0  0  0  0  0  0  0  0  0  0  0
  151.2492  137.9986  153.2469 H   0  0  0  0  0  0  0  0  0  0  0  0
  149.1664  137.8540  153.1266 H   0  0  0  0  0  0  0  0  0  0  0  0
  153.3589  137.6651  154.7908 H   0  0  0  0  0  0  0  0  0  0  0  0
  153.0336  139.2832  155.3611 H   0  0  0  0  0  0  0  0  0  0  0  0
  154.4170  138.0256  157.0003 H   0  0  0  0  0  0  0  0  0  0  0  0
  153.2117  136.7777  157.1167 H   0  0  0  0  0  0  0  0  0  0  0  0
  149.5676  145.7296  158.4811 H   0  0  0  0  0  0  0  0  0  0  0  0
  1  2  1  0  0  0  0
  1 20  1  0  0  0  0
  1 21  1  0  0  0  0
  1 22  1  0  0  0  0
  2  3  1  0  0  0  0
  2  9  1  0  0  0  0
  2 23  1  0  0  0  0
  3  4  1  0  0  0  0
  3 24  1  0  0  0  0
  3 25  1  0  0  0  0
  4  8  1  0  0  0  0
  4  5  1  0  0  0  0
  5  6  2  0  0  0  0
  5 26  1  0  0  0  0
  6  7  1  0  0  0  0
  6 27  1  0  0  0  0
  7  8  2  0  0  0  0
  7 42  1  0  0  0  0
  8 28  1  0  0  0  0
  9 10  1  0  0  0  0
  9 29  1  0  0  0  0
 10 11  2  0  0  0  0
 10 12  1  0  0  0  0
 12 19  1  0  0  0  0
 12 13  1  0  0  0  0
 13 14  1  0  0  0  0
 13 30  1  0  0  0  0
 13 31  1  0  0  0  0
 14 15  1  0  0  0  0
 14 32  1  0  0  0  0
 14 33  1  0  0  0  0
 15 16  1  0  0  0  0
 15 18  1  0  0  0  0
 15 34  1  0  0  0  0
 16 17  1  0  0  0  0
 16 35  1  0  0  0  0
 16 36  1  0  0  0  0
 17 37  1  0  0  0  0
 18 19  1  0  0  0  0
 18 38  1  0  0  0  0
 18 39  1  0  0  0  0
 19 40  1  0  0  0  0
 19 41  1  0  0  0  0
M  CHG  1   7   1
M  END
> <s_m_source_file>
AV-unprocessed.smi

> <i_m_source_file_index>
1555

> <i_lp_mmshare_version>
43012

> <i_f3d_flags>
0

> <s_epik_input>
W2NIXTFuW2NIXVtjSF1uMVtDSDJdW0NAQEhdKFtDSDNdKVtOSF1DKD1PKU4yW0NIMl1bQ0gyXVtDSF0oW0NIMl1bT0hdKVtDSDJdW0NIMl0y

> <s_epik_cmdline>
J2VwaWtfcHl0aG9uJywgJy1waCcsICc3LjAnLCAnLXRuJywgJzgnLCAnLW1hJywgJzIwMCcsICctbWV0YWxfYmluZGluZycsICctaW1hZScsICc8aW5maWxlLm1hZT4nLCAnLW9tYWUnLCAnPG91dGZpbGUubWFlPic=

> <r_lp_tautomer_probability>
1

> <r_epik_Ionization_Penalty>
0.253261

> <r_epik_Ionization_Penalty_Charging>
0

> <r_epik_Ionization_Penalty_Neutral>
0.253261

> <r_epik_State_Penalty>
0.244619

> <r_epik_Charging_Adjusted_Penalty>
0.244619

> <i_epik_Tot_Q>
1

> <i_epik_Tot_abs_Q>
1

> <r_epik_Metal_State_Penalty>
0.535039

> <b_epik_Metal_Only>
0

> <s_lp_Force_Field>
OPLS_2005

> <r_lp_Energy>
35.1674

> <b_lp_Chiralities_Consistent>
1

> <s_lp_Variant>
AV-unprocessed.smi:1555-2

> <Gold.Version>
5.8.1

> <Gold.Id.Protein>
6NUR|6NUR_protein|mol2

> <Gold.PLP.Fitness>
47.8963

> <Gold.PLP.PLP>
-37.6019

> <Gold.PLP.part.hbond>
-3.0000

> <Gold.PLP.part.metal>
0.0000

> <Gold.PLP.part.buried>
-3.0215

> <Gold.PLP.part.nonpolar>
-32.2828

> <Gold.PLP.part.repulsive>
0.3745

> <Gold.PLP.ligand.clash>
0.0000

> <Gold.PLP.ligand.torsion>
1.1064

> <Gold.PLP.Chemscore.Hbond>
4.0000

> <Gold.PLP.Chemscore.CHOScore>
0.1587

> <Gold.PLP.Chemscore.Metal>
0.0000

> <Gold.Chemscore.Hbonds>
donor molecule, donor type, donor heavy atom, donor atom, acceptor molecule, acceptor atom, score
      L1  H     7    42       P1  8029  1.89
      L1  H    17    37       P1  7948  0.97
      P1  H  7997  8010       L1    11  1.00
      L1  C     8    28       P1  8028  0.12

> <Gold.PLP.Chemscore.Internal.Correction>
0.0309

> <Gold.Rescore>
     Score         DG    S(hbond)    S(metal)    S(lipo)     H(rot)  DE(clash)    DE(int)     intcor
     15.62     -18.35       2.84        0.00      85.13       2.56       0.06       2.67       ----

> <Gold.Chemscore.Fitness>
15.6226

> <Gold.Chemscore.DG>
-18.3523

> <Gold.Chemscore.ZeroCoef>
-5.4800

> <Gold.Chemscore.Hbond>
2.8364

> <Gold.Chemscore.Metal>
0.0000

> <Gold.Chemscore.Lipo>
85.1287

> <Gold.Chemscore.Internal_Hbond>
0.0000

> <Gold.Chemscore.DEClash>
0.0562

> <Gold.Chemscore.DEInternal>
2.6735

> <Gold.Chemscore.Rot>
2.5630

> <Gold.Chemscore.Internal.Correction>
   9.000000E+99

> <Gold.Chemscore.Hbonds>
donor molecule, donor type, donor heavy atom, donor atom, acceptor molecule, acceptor atom, score
      L1  H     7    42       P1  8029  0.81
      L1  H    17    37       P1  7948  0.87
      P1  H  7997  8010       L1    11  0.57

> <Gold.Chemscore.Hbond.Weighted>
-9.4734

> <Gold.Chemscore.Metal.Weighted>
-0.0000

> <Gold.Chemscore.Lipo.Weighted>
-9.9601

> <Gold.Chemscore.Internal_Hbond.Weighted>
0.0000

> <Gold.Chemscore.DEClash.Weighted>
0.0562

> <Gold.Chemscore.DEInternal.Weighted>
2.6735

> <Gold.Chemscore.Rot.Weighted>
6.5612

> <Gold.Chemscore.Internal.Correction.Weighted>
   9.000000E+99

> <Gold.Protein.RotatedTorsions>
[ 6907 6896 6895 6894 ] final   39.57 input  -60.11 | X-H torsion
[ 7974 7965 7964 7962 ] final  138.42 input  175.53 | X-H torsion
[ 8008 7997 7996 7995 ] final   17.15 input   59.86 | X-H torsion
[ 10167 10162 10161 10158 ] final  131.73 input  -65.29 | X-H torsion
[ 10718 10713 10712 10709 ] final -101.76 input   66.30 | X-H torsion
[ 10763 10752 10751 10750 ] final -106.69 input  -60.55 | X-H torsion
[ 11005 11000 10999 10996 ] final -109.98 input  -57.11 | X-H torsion

> <Gold.Protein.ActiveResidues>
 VAL166  LYS551  ARG553  GLY616  TRP617  ASP618  TYR619  PRO620  LYS621  CYS622 
 ASP623  PHE694  ASN695  SER759  ASP760  ASP761  ALA762  ILE779  LEU786  VAL792 
 PHE793  MET794  SER795  GLU796  ALA797  LYS798  CYS799  TRP800  GLU811  SER814 

> <Gold.Protein.RotatedAtoms>
  152.1712  134.8832  160.0533 H   0  0  0  0  0  0  0  0  0  0  0  0  # atno 6907 bound_to 6896
  151.9791  133.3746  159.4109 H   0  0  0  0  0  0  0  0  0  0  0  0  # atno 6908 bound_to 6896
  150.6902  134.3981  159.5150 H   0  0  0  0  0  0  0  0  0  0  0  0  # atno 6909 bound_to 6896
  144.9374  139.4972  143.5588 H   0  0  0  0  0  0  0  0  0  0  0  0  # atno 7974 bound_to 7965
  154.8873  140.2982  155.5391 H   0  0  0  0  0  0  0  0  0  0  0  0  # atno 8008 bound_to 7997
  156.3021  140.2431  156.3818 H   0  0  0  0  0  0  0  0  0  0  0  0  # atno 8009 bound_to 7997
  154.8655  140.0403  157.1681 H   0  0  0  0  0  0  0  0  0  0  0  0  # atno 8010 bound_to 7997
  139.5371  144.6693  151.4750 H   0  0  0  0  0  0  0  0  0  0  0  0  # atno 10167 bound_to 10162
  156.0205  130.5388  150.7009 H   0  0  0  0  0  0  0  0  0  0  0  0  # atno 10718 bound_to 10713
  154.8028  135.4702  154.0318 H   0  0  0  0  0  0  0  0  0  0  0  0  # atno 10763 bound_to 10752
  153.1810  135.6840  153.8485 H   0  0  0  0  0  0  0  0  0  0  0  0  # atno 10764 bound_to 10752
  153.8035  135.3226  155.3370 H   0  0  0  0  0  0  0  0  0  0  0  0  # atno 10765 bound_to 10752
  141.0817  133.9208  157.2273 H   0  0  0  0  0  0  0  0  0  0  0  0  # atno 11005 bound_to 11000
  146.3272  139.8369  142.8898 LP  0  0  0  0  0  0  0  0  0  0  0  0  # atno 17320 bound_to 7965
  145.3045  141.0203  143.3590 LP  0  0  0  0  0  0  0  0  0  0  0  0  # atno 17321 bound_to 7965
  140.6583  143.8553  150.6859 LP  0  0  0  0  0  0  0  0  0  0  0  0  # atno 17342 bound_to 10162
  140.1940  143.4013  152.1842 LP  0  0  0  0  0  0  0  0  0  0  0  0  # atno 17343 bound_to 10162
  157.4670  131.0889  151.0684 LP  0  0  0  0  0  0  0  0  0  0  0  0  # atno 17370 bound_to 10713
  157.1156  130.6040  149.5492 LP  0  0  0  0  0  0  0  0  0  0  0  0  # atno 17371 bound_to 10713
  139.9632  135.0149  156.9316 LP  0  0  0  0  0  0  0  0  0  0  0  0  # atno 17394 bound_to 11000
  140.5453  134.0680  155.7353 LP  0  0  0  0  0  0  0  0  0  0  0  0  # atno 17395 bound_to 11000

$$$$
