AV-unprocessed.smi:134|AV-procd|sdf|1168|dock4
  -GOLD-   2262018313D 1   1.00000     0.00000
 Structure written by MMmdl.
 51 54  0  0  0  0  0  0  0  0  1 V2000
  149.9979  135.9590  158.6506 O   0  0  0  0  0  0  0  0  0  0  0  0
  149.0254  135.3876  158.1603 C   0  0  0  0  0  0  0  0  0  0  0  0
  149.0344  135.0853  156.6497 C   0  0  0  0  0  0  0  0  0  0  0  0
  149.1943  136.2686  155.7710 N   0  0  0  0  0  0  0  0  0  0  0  0
  150.5042  136.6792  155.4176 C   0  0  0  0  0  0  0  0  0  0  0  0
  151.4942  136.0678  155.8215 O   0  0  0  0  0  0  0  0  0  0  0  0
  150.5876  137.8641  154.5717 C   0  0  0  0  0  0  0  0  0  0  0  0
  151.7905  138.3289  154.1941 F   0  0  0  0  0  0  0  0  0  0  0  0
  149.4739  138.5070  154.1655 C   0  0  0  0  0  0  0  0  0  0  0  0
  148.2006  138.0932  154.5136 N   0  0  0  0  0  0  0  0  0  0  0  0
  146.9673  138.8315  154.0354 C   0  0  1  0  0  0  0  0  0  0  0  0
  146.9964  140.2846  154.5171 C   0  0  0  0  0  0  0  0  0  0  0  0
  147.7118  140.9722  153.3763 C   0  0  0  0  0  0  0  0  0  0  0  0
  147.1879  140.1951  152.1730 C   0  0  0  0  0  0  0  0  0  0  0  0
  146.9603  138.8647  152.6370 O   0  0  0  0  0  0  0  0  0  0  0  0
  148.0369  136.9597  155.3395 C   0  0  0  0  0  0  0  0  0  0  0  0
  146.9118  136.5901  155.6818 O   0  0  0  0  0  0  0  0  0  0  0  0
  147.9532  134.9842  158.8687 N   0  0  0  0  0  0  0  0  0  0  0  0
  147.6817  135.1428  160.2553 C   0  0  0  0  0  0  0  0  0  0  0  0
  148.1047  136.2776  160.9892 C   0  0  0  0  0  0  0  0  0  0  0  0
  147.7806  136.4048  162.3537 C   0  0  0  0  0  0  0  0  0  0  0  0
  147.0230  135.4085  162.9962 C   0  0  0  0  0  0  0  0  0  0  0  0
  146.5836  134.2851  162.2719 C   0  0  0  0  0  0  0  0  0  0  0  0
  146.9076  134.1519  160.9068 C   0  0  0  0  0  0  0  0  0  0  0  0
  146.3441  132.7226  160.0303 S   0  0  0  0  0  0  0  0  0  0  0  0
  147.0239  131.4514  161.0436 C   0  0  0  0  0  0  0  0  0  0  0  0
  146.2178  130.3727  161.4587 C   0  0  0  0  0  0  0  0  0  0  0  0
  146.7595  129.3675  162.2825 C   0  0  0  0  0  0  0  0  0  0  0  0
  148.1073  129.4387  162.6871 C   0  0  0  0  0  0  0  0  0  0  0  0
  148.7700  128.2092  163.6998 Cl  0  0  0  0  0  0  0  0  0  0  0  0
  148.9142  130.5144  162.2654 C   0  0  0  0  0  0  0  0  0  0  0  0
  148.3731  131.5214  161.4426 C   0  0  0  0  0  0  0  0  0  0  0  0
  149.8259  134.3593  156.4580 H   0  0  0  0  0  0  0  0  0  0  0  0
  148.1209  134.5392  156.4097 H   0  0  0  0  0  0  0  0  0  0  0  0
  149.6008  139.3823  153.5463 H   0  0  0  0  0  0  0  0  0  0  0  0
  146.1150  138.2558  154.4000 H   0  0  0  0  0  0  0  0  0  0  0  0
  145.9710  140.6460  154.6026 H   0  0  0  0  0  0  0  0  0  0  0  0
  147.4918  140.3932  155.4798 H   0  0  0  0  0  0  0  0  0  0  0  0
  147.5018  142.0404  153.3201 H   0  0  0  0  0  0  0  0  0  0  0  0
  148.7901  140.8408  153.4746 H   0  0  0  0  0  0  0  0  0  0  0  0
  146.2372  140.6121  151.8387 H   0  0  0  0  0  0  0  0  0  0  0  0
  147.8800  140.2119  151.3309 H   0  0  0  0  0  0  0  0  0  0  0  0
  147.2769  134.4323  158.3611 H   0  0  0  0  0  0  0  0  0  0  0  0
  148.6648  137.0719  160.5202 H   0  0  0  0  0  0  0  0  0  0  0  0
  148.1077  137.2735  162.9058 H   0  0  0  0  0  0  0  0  0  0  0  0
  146.7740  135.5087  164.0425 H   0  0  0  0  0  0  0  0  0  0  0  0
  145.9990  133.5236  162.7673 H   0  0  0  0  0  0  0  0  0  0  0  0
  145.1851  130.3138  161.1502 H   0  0  0  0  0  0  0  0  0  0  0  0
  146.1396  128.5432  162.6033 H   0  0  0  0  0  0  0  0  0  0  0  0
  149.9479  130.5696  162.5740 H   0  0  0  0  0  0  0  0  0  0  0  0
  148.9927  132.3467  161.1234 H   0  0  0  0  0  0  0  0  0  0  0  0
  1  2  2  0  0  0  0
  2  3  1  0  0  0  0
  2 18  1  0  0  0  0
  3  4  1  0  0  0  0
  3 33  1  0  0  0  0
  3 34  1  0  0  0  0
  4 16  1  0  0  0  0
  4  5  1  0  0  0  0
  5  6  2  0  0  0  0
  5  7  1  0  0  0  0
  7  8  1  0  0  0  0
  7  9  2  0  0  0  0
  9 10  1  0  0  0  0
  9 35  1  0  0  0  0
 10 11  1  0  0  0  0
 10 16  1  0  0  0  0
 11 15  1  0  0  0  0
 11 12  1  0  0  0  0
 11 36  1  0  0  0  0
 12 13  1  0  0  0  0
 12 37  1  0  0  0  0
 12 38  1  0  0  0  0
 13 14  1  0  0  0  0
 13 39  1  0  0  0  0
 13 40  1  0  0  0  0
 14 15  1  0  0  0  0
 14 41  1  0  0  0  0
 14 42  1  0  0  0  0
 16 17  2  0  0  0  0
 18 19  1  0  0  0  0
 18 43  1  0  0  0  0
 19 24  1  0  0  0  0
 19 20  2  0  0  0  0
 20 21  1  0  0  0  0
 20 44  1  0  0  0  0
 21 22  2  0  0  0  0
 21 45  1  0  0  0  0
 22 23  1  0  0  0  0
 22 46  1  0  0  0  0
 23 24  2  0  0  0  0
 23 47  1  0  0  0  0
 24 25  1  0  0  0  0
 25 26  1  0  0  0  0
 26 32  1  0  0  0  0
 26 27  2  0  0  0  0
 27 28  1  0  0  0  0
 27 48  1  0  0  0  0
 28 29  2  0  0  0  0
 28 49  1  0  0  0  0
 29 30  1  0  0  0  0
 29 31  1  0  0  0  0
 31 32  2  0  0  0  0
 31 50  1  0  0  0  0
 32 51  1  0  0  0  0
M  END
> <s_m_source_file>
AV-unprocessed.smi

> <i_m_source_file_index>
134

> <i_lp_mmshare_version>
43012

> <i_f3d_flags>
0

> <s_epik_input>
TzFbQ0gyXVtDSDJdW0NIMl1bQ0BIXTFuKGMyPU8pW2NIXWMoRiljKD1PKW4yW0NIMl1DKD1PKVtOSF1jM1tjSF1bY0hdW2NIXVtjSF1jM1NjNFtjSF1bY0hdYyhDbClbY0hdW2NIXTQ=

> <s_epik_cmdline>
J2VwaWtfcHl0aG9uJywgJy1waCcsICc3LjAnLCAnLXRuJywgJzgnLCAnLW1hJywgJzIwMCcsICctbWV0YWxfYmluZGluZycsICctaW1hZScsICc8aW5maWxlLm1hZT4nLCAnLW9tYWUnLCAnPG91dGZpbGUubWFlPic=

> <r_lp_tautomer_probability>
1

> <r_epik_Ionization_Penalty>
2.01717e-06

> <r_epik_Ionization_Penalty_Charging>
3.88729e-08

> <r_epik_Ionization_Penalty_Neutral>
1.9783e-06

> <r_epik_State_Penalty>
-0

> <r_epik_Charging_Adjusted_Penalty>
3.88729e-08

> <i_epik_Tot_Q>
0

> <i_epik_Tot_abs_Q>
0

> <r_epik_Metal_State_Penalty>
-0

> <b_epik_Metal_Only>
0

> <s_epik_Chemistry_Notes>
This compound contains an acetal/aminal-like group ( X-CH(R)-Y where X, Y are N, S, or O) that may be acid/base labile, releasing an aldehyde.

> <s_lp_Force_Field>
OPLS_2005

> <r_lp_Energy>
34.7756

> <b_lp_Chiralities_Consistent>
1

> <s_lp_Variant>
AV-unprocessed.smi:134-2

> <Gold.Version>
5.8.1

> <Gold.Id.Protein>
6NUR|6NUR_protein|mol2

> <Gold.PLP.Fitness>
52.6217

> <Gold.PLP.PLP>
-45.1427

> <Gold.PLP.part.hbond>
-2.0000

> <Gold.PLP.part.metal>
0.0000

> <Gold.PLP.part.buried>
-2.3663

> <Gold.PLP.part.nonpolar>
-41.4784

> <Gold.PLP.part.repulsive>
0.4293

> <Gold.PLP.ligand.clash>
0.0000

> <Gold.PLP.ligand.torsion>
0.7433

> <Gold.PLP.Chemscore.Hbond>
2.0000

> <Gold.PLP.Chemscore.CHOScore>
0.9581

> <Gold.PLP.Chemscore.Metal>
0.0000

> <Gold.Chemscore.Hbonds>
donor molecule, donor type, donor heavy atom, donor atom, acceptor molecule, acceptor atom, score
      P1  H  6896  6907       L1     1  1.00
      P1  H 10752 10764       L1     6  1.00
      L1  C     9    35       P1  7957  1.00

> <Gold.PLP.Chemscore.Internal.Correction>
0.0912

> <Gold.Rescore>
     Score         DG    S(hbond)    S(metal)    S(lipo)     H(rot)  DE(clash)    DE(int)     intcor
     19.20     -20.86       1.95        0.00     118.71       1.95       0.37       1.30       ----

> <Gold.Chemscore.Fitness>
19.1984

> <Gold.Chemscore.DG>
-20.8631

> <Gold.Chemscore.ZeroCoef>
-5.4800

> <Gold.Chemscore.Hbond>
1.9456

> <Gold.Chemscore.Metal>
0.0000

> <Gold.Chemscore.Lipo>
118.7136

> <Gold.Chemscore.Internal_Hbond>
0.0000

> <Gold.Chemscore.DEClash>
0.3652

> <Gold.Chemscore.DEInternal>
1.2995

> <Gold.Chemscore.Rot>
1.9549

> <Gold.Chemscore.Internal.Correction>
   9.000000E+99

> <Gold.Chemscore.Hbonds>
donor molecule, donor type, donor heavy atom, donor atom, acceptor molecule, acceptor atom, score
      P1  H  6896  6907       L1     1  0.65
      P1  H 10752 10764       L1     6  1.00

> <Gold.Chemscore.Hbond.Weighted>
-6.4982

> <Gold.Chemscore.Metal.Weighted>
-0.0000

> <Gold.Chemscore.Lipo.Weighted>
-13.8895

> <Gold.Chemscore.Internal_Hbond.Weighted>
0.0000

> <Gold.Chemscore.DEClash.Weighted>
0.3652

> <Gold.Chemscore.DEInternal.Weighted>
1.2995

> <Gold.Chemscore.Rot.Weighted>
5.0046

> <Gold.Chemscore.Internal.Correction.Weighted>
   9.000000E+99

> <Gold.Protein.RotatedTorsions>
[ 6907 6896 6895 6894 ] final  -51.85 input  -60.11 | X-H torsion
[ 7974 7965 7964 7962 ] final   99.73 input  175.53 | X-H torsion
[ 8008 7997 7996 7995 ] final   79.34 input   59.86 | X-H torsion
[ 10167 10162 10161 10158 ] final   50.12 input  -65.29 | X-H torsion
[ 10718 10713 10712 10709 ] final  -22.63 input   66.30 | X-H torsion
[ 10763 10752 10751 10750 ] final  -39.02 input  -60.55 | X-H torsion
[ 11005 11000 10999 10996 ] final -114.86 input  -57.11 | X-H torsion

> <Gold.Protein.ActiveResidues>
 VAL166  LYS551  ARG553  GLY616  TRP617  ASP618  TYR619  PRO620  LYS621  CYS622 
 ASP623  PHE694  ASN695  SER759  ASP760  ASP761  ALA762  ILE779  LEU786  VAL792 
 PHE793  MET794  SER795  GLU796  ALA797  LYS798  CYS799  TRP800  GLU811  SER814 

> <Gold.Protein.RotatedAtoms>
  150.8573  134.7915  159.7055 H   0  0  0  0  0  0  0  0  0  0  0  0  # atno 6907 bound_to 6896
  152.4621  134.5158  159.9777 H   0  0  0  0  0  0  0  0  0  0  0  0  # atno 6908 bound_to 6896
  151.5268  133.3418  159.2946 H   0  0  0  0  0  0  0  0  0  0  0  0  # atno 6909 bound_to 6896
  145.3950  139.2356  143.3331 H   0  0  0  0  0  0  0  0  0  0  0  0  # atno 7974 bound_to 7965
  155.8684  140.3450  155.5804 H   0  0  0  0  0  0  0  0  0  0  0  0  # atno 8008 bound_to 7997
  155.7855  140.0864  157.2056 H   0  0  0  0  0  0  0  0  0  0  0  0  # atno 8009 bound_to 7997
  154.4016  140.1493  156.3089 H   0  0  0  0  0  0  0  0  0  0  0  0  # atno 8010 bound_to 7997
  140.2757  144.3214  150.6277 H   0  0  0  0  0  0  0  0  0  0  0  0  # atno 10167 bound_to 10162
  156.5019  130.4590  149.6696 H   0  0  0  0  0  0  0  0  0  0  0  0  # atno 10718 bound_to 10713
  153.9224  135.6781  153.4747 H   0  0  0  0  0  0  0  0  0  0  0  0  # atno 10763 bound_to 10752
  153.1021  135.4823  154.8883 H   0  0  0  0  0  0  0  0  0  0  0  0  # atno 10764 bound_to 10752
  154.7471  135.3175  154.8582 H   0  0  0  0  0  0  0  0  0  0  0  0  # atno 10765 bound_to 10752
  141.0525  133.9664  157.2811 H   0  0  0  0  0  0  0  0  0  0  0  0  # atno 11005 bound_to 11000
  146.2779  140.4639  142.8788 LP  0  0  0  0  0  0  0  0  0  0  0  0  # atno 17320 bound_to 7965
  144.8413  140.6862  143.6227 LP  0  0  0  0  0  0  0  0  0  0  0  0  # atno 17321 bound_to 7965
  140.5853  143.2170  151.7354 LP  0  0  0  0  0  0  0  0  0  0  0  0  # atno 17342 bound_to 10162
  139.4976  144.4020  152.0171 LP  0  0  0  0  0  0  0  0  0  0  0  0  # atno 17343 bound_to 10162
  156.3324  130.7339  151.2270 LP  0  0  0  0  0  0  0  0  0  0  0  0  # atno 17370 bound_to 10713
  157.7462  131.0426  150.4703 LP  0  0  0  0  0  0  0  0  0  0  0  0  # atno 17371 bound_to 10713
  139.9362  135.0196  156.8564 LP  0  0  0  0  0  0  0  0  0  0  0  0  # atno 17394 bound_to 11000
  140.6028  134.0156  155.7544 LP  0  0  0  0  0  0  0  0  0  0  0  0  # atno 17395 bound_to 11000

$$$$
