AV-unprocessed.smi:1400|AV-procd|sdf|5686|dock8
  -GOLD-   22720 5313D 1   1.00000     0.00000
 Structure written by MMmdl.
 34 35  0  0  0  0  0  0  0  0  1 V2000
  152.7094  142.1172  161.8663 C   0  0  0  0  0  0  0  0  0  0  0  0
  152.5655  143.4375  161.1056 C   0  0  0  0  0  0  0  0  0  0  0  0
  152.2206  144.4353  161.7389 O   0  0  0  0  0  0  0  0  0  0  0  0
  152.8263  143.4680  159.7763 N   0  0  0  0  0  0  0  0  0  0  0  0
  153.1513  142.2639  159.0029 C   0  0  0  0  0  0  0  0  0  0  0  0
  151.9652  141.9310  158.0790 C   0  0  0  0  0  0  0  0  0  0  0  0
  151.6037  143.1288  157.1739 C   0  0  0  0  0  0  0  0  0  0  0  0
  150.3552  142.8575  156.4660 N   0  0  0  0  0  0  0  0  0  0  0  0
  150.0719  141.7474  155.7686 C   0  0  0  0  0  0  0  0  0  0  0  0
  150.8509  140.8021  155.6421 O   0  0  0  0  0  0  0  0  0  0  0  0
  148.8390  141.8130  155.2358 N   0  0  0  0  0  0  0  0  0  0  0  0
  148.1775  140.8496  154.4293 C   0  0  0  0  0  0  0  0  0  0  0  0
  147.1749  141.1291  153.5881 N   0  0  0  0  0  0  0  0  0  0  0  0
  146.7136  139.9891  152.9250 C   0  0  0  0  0  0  0  0  0  0  0  0
  147.3807  138.8420  153.2759 C   0  0  0  0  0  0  0  0  0  0  0  0
  148.6230  139.1497  154.4599 S   0  0  0  0  0  0  0  0  0  0  0  0
  151.4683  144.4339  157.9875 C   0  0  0  0  0  0  0  0  0  0  0  0
  152.6827  144.6440  158.9092 C   0  0  0  0  0  0  0  0  0  0  0  0
  153.7214  141.7228  161.7699 H   0  0  0  0  0  0  0  0  0  0  0  0
  152.0018  141.3766  161.4930 H   0  0  0  0  0  0  0  0  0  0  0  0
  152.5103  142.2629  162.9285 H   0  0  0  0  0  0  0  0  0  0  0  0
  154.0491  142.4455  158.4105 H   0  0  0  0  0  0  0  0  0  0  0  0
  153.3818  141.4049  159.6343 H   0  0  0  0  0  0  0  0  0  0  0  0
  152.2016  141.0585  157.4689 H   0  0  0  0  0  0  0  0  0  0  0  0
  151.1044  141.6565  158.6910 H   0  0  0  0  0  0  0  0  0  0  0  0
  152.4230  143.2681  156.4662 H   0  0  0  0  0  0  0  0  0  0  0  0
  149.6480  143.5766  156.5130 H   0  0  0  0  0  0  0  0  0  0  0  0
  148.3122  142.6527  155.4263 H   0  0  0  0  0  0  0  0  0  0  0  0
  145.9034  140.0857  152.2174 H   0  0  0  0  0  0  0  0  0  0  0  0
  147.2170  137.8390  152.9109 H   0  0  0  0  0  0  0  0  0  0  0  0
  151.3599  145.2848  157.3139 H   0  0  0  0  0  0  0  0  0  0  0  0
  150.5617  144.4019  158.5940 H   0  0  0  0  0  0  0  0  0  0  0  0
  152.5776  145.5801  159.4556 H   0  0  0  0  0  0  0  0  0  0  0  0
  153.5873  144.7590  158.3102 H   0  0  0  0  0  0  0  0  0  0  0  0
  1  2  1  0  0  0  0
  1 19  1  0  0  0  0
  1 20  1  0  0  0  0
  1 21  1  0  0  0  0
  2  3  2  0  0  0  0
  2  4  1  0  0  0  0
  4 18  1  0  0  0  0
  4  5  1  0  0  0  0
  5  6  1  0  0  0  0
  5 22  1  0  0  0  0
  5 23  1  0  0  0  0
  6  7  1  0  0  0  0
  6 24  1  0  0  0  0
  6 25  1  0  0  0  0
  7  8  1  0  0  0  0
  7 17  1  0  0  0  0
  7 26  1  0  0  0  0
  8  9  1  0  0  0  0
  8 27  1  0  0  0  0
  9 10  2  0  0  0  0
  9 11  1  0  0  0  0
 11 12  1  0  0  0  0
 11 28  1  0  0  0  0
 12 16  1  0  0  0  0
 12 13  2  0  0  0  0
 13 14  1  0  0  0  0
 14 15  2  0  0  0  0
 14 29  1  0  0  0  0
 15 16  1  0  0  0  0
 15 30  1  0  0  0  0
 17 18  1  0  0  0  0
 17 31  1  0  0  0  0
 17 32  1  0  0  0  0
 18 33  1  0  0  0  0
 18 34  1  0  0  0  0
M  END
> <s_m_source_file>
AV-unprocessed.smi

> <i_m_source_file_index>
1400

> <i_lp_mmshare_version>
43012

> <i_f3d_flags>
0

> <s_epik_input>
W0NIM11DKD1PKU4xW0NIMl1bQ0gyXVtDSF0oW0NIMl1bQ0gyXTEpW05IXUMoPU8pW05IXWMybltjSF1bY0hdczI=

> <s_epik_cmdline>
J2VwaWtfcHl0aG9uJywgJy1waCcsICc3LjAnLCAnLXRuJywgJzgnLCAnLW1hJywgJzIwMCcsICctbWV0YWxfYmluZGluZycsICctaW1hZScsICc8aW5maWxlLm1hZT4nLCAnLW9tYWUnLCAnPG91dGZpbGUubWFlPic=

> <r_lp_tautomer_probability>
1

> <r_epik_Ionization_Penalty>
0.000151384

> <r_epik_Ionization_Penalty_Charging>
0

> <r_epik_Ionization_Penalty_Neutral>
0.000151384

> <r_epik_State_Penalty>
-0

> <r_epik_Charging_Adjusted_Penalty>
0

> <i_epik_Tot_Q>
0

> <i_epik_Tot_abs_Q>
0

> <r_epik_Metal_State_Penalty>
0.0312905

> <b_epik_Metal_Only>
0

> <s_lp_Force_Field>
OPLS_2005

> <r_lp_Energy>
21.754

> <b_lp_Chiralities_Consistent>
1

> <s_lp_Variant>
AV-unprocessed.smi:1400-1

> <Gold.Version>
5.8.1

> <Gold.Id.Protein>
6NUR|6NUR_protein|mol2

> <Gold.PLP.Fitness>
48.5677

> <Gold.PLP.PLP>
-37.0627

> <Gold.PLP.part.hbond>
-2.8294

> <Gold.PLP.part.metal>
0.0000

> <Gold.PLP.part.buried>
-3.3878

> <Gold.PLP.part.nonpolar>
-30.7207

> <Gold.PLP.part.repulsive>
1.1848

> <Gold.PLP.ligand.clash>
0.0000

> <Gold.PLP.ligand.torsion>
0.1865

> <Gold.PLP.Chemscore.Hbond>
1.9538

> <Gold.PLP.Chemscore.CHOScore>
2.0000

> <Gold.PLP.Chemscore.Metal>
0.0000

> <Gold.Chemscore.Hbonds>
donor molecule, donor type, donor heavy atom, donor atom, acceptor molecule, acceptor atom, score
      L1  H     8    27       P1  8028  0.90
      L1  H    11    28       P1  8028  0.48
      P1  H  7989  7998       L1    10  0.31
      L1  C    14    29       P1 10175  1.00
      L1  C    15    30       P1  7948  0.83

> <Gold.PLP.Chemscore.Internal.Correction>
0.0165

> <Gold.Rescore>
     Score         DG    S(hbond)    S(metal)    S(lipo)     H(rot)  DE(clash)    DE(int)     intcor
     15.21     -18.40       1.57        0.00      87.53       1.00       0.56       2.64       ----

> <Gold.Chemscore.Fitness>
15.2095

> <Gold.Chemscore.DG>
-18.4031

> <Gold.Chemscore.ZeroCoef>
-5.4800

> <Gold.Chemscore.Hbond>
1.5694

> <Gold.Chemscore.Metal>
0.0000

> <Gold.Chemscore.Lipo>
87.5337

> <Gold.Chemscore.Internal_Hbond>
0.0000

> <Gold.Chemscore.DEClash>
0.5550

> <Gold.Chemscore.DEInternal>
2.6385

> <Gold.Chemscore.Rot>
1.0000

> <Gold.Chemscore.Internal.Correction>
   9.000000E+99

> <Gold.Chemscore.Hbonds>
donor molecule, donor type, donor heavy atom, donor atom, acceptor molecule, acceptor atom, score
      L1  H     8    27       P1  8028  0.86
      L1  H    11    28       P1  8028  0.48
      P1  H  7989  7998       L1    10  0.17

> <Gold.Chemscore.Hbond.Weighted>
-5.2416

> <Gold.Chemscore.Metal.Weighted>
-0.0000

> <Gold.Chemscore.Lipo.Weighted>
-10.2414

> <Gold.Chemscore.Internal_Hbond.Weighted>
0.0000

> <Gold.Chemscore.DEClash.Weighted>
0.5550

> <Gold.Chemscore.DEInternal.Weighted>
2.6385

> <Gold.Chemscore.Rot.Weighted>
2.5600

> <Gold.Chemscore.Internal.Correction.Weighted>
   9.000000E+99

> <Gold.Protein.RotatedTorsions>
[ 6907 6896 6895 6894 ] final  -39.24 input  -60.11 | X-H torsion
[ 7974 7965 7964 7962 ] final  -23.34 input  175.53 | X-H torsion
[ 8008 7997 7996 7995 ] final  122.56 input   59.86 | X-H torsion
[ 10167 10162 10161 10158 ] final  147.25 input  -65.29 | X-H torsion
[ 10718 10713 10712 10709 ] final  -19.06 input   66.30 | X-H torsion
[ 10763 10752 10751 10750 ] final -128.72 input  -60.55 | X-H torsion
[ 11005 11000 10999 10996 ] final -112.34 input  -57.11 | X-H torsion

> <Gold.Protein.ActiveResidues>
 VAL166  LYS551  ARG553  GLY616  TRP617  ASP618  TYR619  PRO620  LYS621  CYS622 
 ASP623  PHE694  ASN695  SER759  ASP760  ASP761  ALA762  ILE779  LEU786  VAL792 
 PHE793  MET794  SER795  GLU796  ALA797  LYS798  CYS799  TRP800  GLU811  SER814 

> <Gold.Protein.RotatedAtoms>
  150.9927  134.9258  159.7908 H   0  0  0  0  0  0  0  0  0  0  0  0  # atno 6907 bound_to 6896
  152.5255  134.3260  159.9175 H   0  0  0  0  0  0  0  0  0  0  0  0  # atno 6908 bound_to 6896
  151.3266  133.3976  159.2693 H   0  0  0  0  0  0  0  0  0  0  0  0  # atno 6909 bound_to 6896
  146.1622  140.4602  142.8566 H   0  0  0  0  0  0  0  0  0  0  0  0  # atno 7974 bound_to 7965
  156.2732  140.2783  156.1488 H   0  0  0  0  0  0  0  0  0  0  0  0  # atno 8008 bound_to 7997
  155.0876  140.0388  157.2676 H   0  0  0  0  0  0  0  0  0  0  0  0  # atno 8009 bound_to 7997
  154.6915  140.2630  155.6814 H   0  0  0  0  0  0  0  0  0  0  0  0  # atno 8010 bound_to 7997
  139.4893  144.5769  151.6947 H   0  0  0  0  0  0  0  0  0  0  0  0  # atno 10167 bound_to 10162
  156.5510  130.4701  149.6452 H   0  0  0  0  0  0  0  0  0  0  0  0  # atno 10718 bound_to 10713
  154.8757  135.3919  154.3804 H   0  0  0  0  0  0  0  0  0  0  0  0  # atno 10763 bound_to 10752
  153.4552  135.7028  153.6089 H   0  0  0  0  0  0  0  0  0  0  0  0  # atno 10764 bound_to 10752
  153.4612  135.3811  155.2308 H   0  0  0  0  0  0  0  0  0  0  0  0  # atno 10765 bound_to 10752
  141.0681  133.9426  157.2539 H   0  0  0  0  0  0  0  0  0  0  0  0  # atno 11005 bound_to 11000
  144.8043  140.6270  143.6457 LP  0  0  0  0  0  0  0  0  0  0  0  0  # atno 17320 bound_to 7965
  145.4559  139.1518  143.3893 LP  0  0  0  0  0  0  0  0  0  0  0  0  # atno 17321 bound_to 7965
  140.5368  144.0643  150.6073 LP  0  0  0  0  0  0  0  0  0  0  0  0  # atno 17342 bound_to 10162
  140.3652  143.2885  152.0339 LP  0  0  0  0  0  0  0  0  0  0  0  0  # atno 17343 bound_to 10162
  156.2885  130.7111  151.1953 LP  0  0  0  0  0  0  0  0  0  0  0  0  # atno 17370 bound_to 10713
  157.7387  131.0537  150.5275 LP  0  0  0  0  0  0  0  0  0  0  0  0  # atno 17371 bound_to 10713
  139.9496  135.0178  156.8954 LP  0  0  0  0  0  0  0  0  0  0  0  0  # atno 17394 bound_to 11000
  140.5731  134.0424  155.7437 LP  0  0  0  0  0  0  0  0  0  0  0  0  # atno 17395 bound_to 11000

$$$$
