AV-unprocessed.smi:1379|AV-procd|sdf|5598|dock10
  -GOLD-   22720 5203D 1   1.00000     0.00000
 Structure written by MMmdl.
 34 35  0  0  0  0  0  0  0  0  1 V2000
  151.2357  135.8231  156.5368 C   0  0  0  0  0  0  0  0  0  0  0  0
  151.5385  136.2644  155.2254 O   0  0  0  0  0  0  0  0  0  0  0  0
  150.5039  137.0603  154.6671 C   0  0  0  0  0  0  0  0  0  0  0  0
  150.7541  138.5350  154.9898 C   0  0  0  0  0  0  0  0  0  0  0  0
  150.7806  139.3705  154.0859 O   0  0  0  0  0  0  0  0  0  0  0  0
  150.9537  138.8094  156.2919 N   0  0  0  0  0  0  0  0  0  0  0  0
  151.2109  140.0645  156.9079 C   0  0  0  0  0  0  0  0  0  0  0  0
  151.0601  141.3165  156.2652 C   0  0  0  0  0  0  0  0  0  0  0  0
  151.3322  142.4916  156.9915 C   0  0  0  0  0  0  0  0  0  0  0  0
  151.7350  142.3840  158.3383 C   0  0  0  0  0  0  0  0  0  0  0  0
  152.0092  143.5580  159.0563 N   0  0  0  0  0  0  0  0  0  0  0  0
  150.9854  144.5885  158.9978 C   0  0  0  0  0  0  0  0  0  0  0  0
  151.3269  145.5637  160.1270 C   0  0  0  0  0  0  0  0  0  0  0  0
  152.1757  144.7457  161.1083 C   0  0  0  0  0  0  0  0  0  0  0  0
  152.2928  143.3597  160.4677 C   0  0  0  0  0  0  0  0  0  0  0  0
  151.8684  141.1898  158.9632 N   0  0  0  0  0  0  0  0  0  0  0  0
  151.6074  140.0668  158.2612 C   0  0  0  0  0  0  0  0  0  0  0  0
  152.0606  135.2235  156.9211 H   0  0  0  0  0  0  0  0  0  0  0  0
  150.3370  135.2052  156.5467 H   0  0  0  0  0  0  0  0  0  0  0  0
  151.0888  136.6664  157.2128 H   0  0  0  0  0  0  0  0  0  0  0  0
  150.4684  136.9294  153.5842 H   0  0  0  0  0  0  0  0  0  0  0  0
  149.5365  136.7630  155.0755 H   0  0  0  0  0  0  0  0  0  0  0  0
  150.9810  138.0114  156.9102 H   0  0  0  0  0  0  0  0  0  0  0  0
  150.7313  141.4024  155.2416 H   0  0  0  0  0  0  0  0  0  0  0  0
  151.2268  143.4586  156.5217 H   0  0  0  0  0  0  0  0  0  0  0  0
  150.9816  145.0840  158.0265 H   0  0  0  0  0  0  0  0  0  0  0  0
  149.9959  144.1594  159.1614 H   0  0  0  0  0  0  0  0  0  0  0  0
  151.9112  146.3999  159.7409 H   0  0  0  0  0  0  0  0  0  0  0  0
  150.4291  145.9716  160.5922 H   0  0  0  0  0  0  0  0  0  0  0  0
  153.1613  145.2003  161.2153 H   0  0  0  0  0  0  0  0  0  0  0  0
  151.7253  144.6905  162.0997 H   0  0  0  0  0  0  0  0  0  0  0  0
  151.5649  142.6784  160.9108 H   0  0  0  0  0  0  0  0  0  0  0  0
  153.2851  142.9321  160.6131 H   0  0  0  0  0  0  0  0  0  0  0  0
  151.7249  139.1373  158.7993 H   0  0  0  0  0  0  0  0  0  0  0  0
  1  2  1  0  0  0  0
  1 18  1  0  0  0  0
  1 19  1  0  0  0  0
  1 20  1  0  0  0  0
  2  3  1  0  0  0  0
  3  4  1  0  0  0  0
  3 21  1  0  0  0  0
  3 22  1  0  0  0  0
  4  5  2  0  0  0  0
  4  6  1  0  0  0  0
  6  7  1  0  0  0  0
  6 23  1  0  0  0  0
  7 17  1  0  0  0  0
  7  8  2  0  0  0  0
  8  9  1  0  0  0  0
  8 24  1  0  0  0  0
  9 10  2  0  0  0  0
  9 25  1  0  0  0  0
 10 11  1  0  0  0  0
 10 16  1  0  0  0  0
 11 15  1  0  0  0  0
 11 12  1  0  0  0  0
 12 13  1  0  0  0  0
 12 26  1  0  0  0  0
 12 27  1  0  0  0  0
 13 14  1  0  0  0  0
 13 28  1  0  0  0  0
 13 29  1  0  0  0  0
 14 15  1  0  0  0  0
 14 30  1  0  0  0  0
 14 31  1  0  0  0  0
 15 32  1  0  0  0  0
 15 33  1  0  0  0  0
 16 17  2  0  0  0  0
 17 34  1  0  0  0  0
M  END
> <s_m_source_file>
AV-unprocessed.smi

> <i_m_source_file_index>
1379

> <i_lp_mmshare_version>
43012

> <i_f3d_flags>
0

> <s_epik_input>
W0NIM11PW0NIMl1DKD1PKVtOSF1jMVtjSF1bY0hdYyhuW2NIXTEpTjJbQ0gyXVtDSDJdW0NIMl1bQ0gyXTI=

> <s_epik_cmdline>
J2VwaWtfcHl0aG9uJywgJy1waCcsICc3LjAnLCAnLXRuJywgJzgnLCAnLW1hJywgJzIwMCcsICctbWV0YWxfYmluZGluZycsICctaW1hZScsICc8aW5maWxlLm1hZT4nLCAnLW9tYWUnLCAnPG91dGZpbGUubWFlPic=

> <r_lp_tautomer_probability>
1

> <r_epik_Ionization_Penalty>
0.0264378

> <r_epik_Ionization_Penalty_Charging>
0

> <r_epik_Ionization_Penalty_Neutral>
0.0264378

> <r_epik_State_Penalty>
0.0211097

> <r_epik_Charging_Adjusted_Penalty>
0.0211097

> <i_epik_Tot_Q>
0

> <i_epik_Tot_abs_Q>
0

> <r_epik_Metal_State_Penalty>
0.0201313

> <b_epik_Metal_Only>
0

> <s_lp_Force_Field>
OPLS_2005

> <r_lp_Energy>
37.8316

> <b_lp_Chiralities_Consistent>
1

> <s_lp_Variant>
AV-unprocessed.smi:1379-1

> <Gold.Version>
5.8.1

> <Gold.Id.Protein>
6NUR|6NUR_protein|mol2

> <Gold.PLP.Fitness>
37.3267

> <Gold.PLP.PLP>
-32.0909

> <Gold.PLP.part.hbond>
-2.0000

> <Gold.PLP.part.metal>
0.0000

> <Gold.PLP.part.buried>
-5.1163

> <Gold.PLP.part.nonpolar>
-25.1143

> <Gold.PLP.part.repulsive>
0.3504

> <Gold.PLP.ligand.clash>
0.0000

> <Gold.PLP.ligand.torsion>
0.3913

> <Gold.PLP.Chemscore.Hbond>
2.0000

> <Gold.PLP.Chemscore.CHOScore>
0.0000

> <Gold.PLP.Chemscore.Metal>
0.0000

> <Gold.Chemscore.Hbonds>
donor molecule, donor type, donor heavy atom, donor atom, acceptor molecule, acceptor atom, score
      P1  H  7989  7998       L1     5  1.00
      P1  H 10752 10765       L1     2  1.00

> <Gold.PLP.Chemscore.Internal.Correction>
0.0185

> <Gold.Rescore>
     Score         DG    S(hbond)    S(metal)    S(lipo)     H(rot)  DE(clash)    DE(int)     intcor
     16.08     -17.67       1.97        0.00      78.91       1.42       0.05       1.53       ----

> <Gold.Chemscore.Fitness>
16.0827

> <Gold.Chemscore.DG>
-17.6680

> <Gold.Chemscore.ZeroCoef>
-5.4800

> <Gold.Chemscore.Hbond>
1.9698

> <Gold.Chemscore.Metal>
0.0000

> <Gold.Chemscore.Lipo>
78.9051

> <Gold.Chemscore.Internal_Hbond>
0.0000

> <Gold.Chemscore.DEClash>
0.0518

> <Gold.Chemscore.DEInternal>
1.5336

> <Gold.Chemscore.Rot>
1.4153

> <Gold.Chemscore.Internal.Correction>
   9.000000E+99

> <Gold.Chemscore.Hbonds>
donor molecule, donor type, donor heavy atom, donor atom, acceptor molecule, acceptor atom, score
      P1  H  7989  7998       L1     5  1.00
      P1  H 10752 10765       L1     2  0.93

> <Gold.Chemscore.Hbond.Weighted>
-6.5793

> <Gold.Chemscore.Metal.Weighted>
-0.0000

> <Gold.Chemscore.Lipo.Weighted>
-9.2319

> <Gold.Chemscore.Internal_Hbond.Weighted>
0.0000

> <Gold.Chemscore.DEClash.Weighted>
0.0518

> <Gold.Chemscore.DEInternal.Weighted>
1.5336

> <Gold.Chemscore.Rot.Weighted>
3.6231

> <Gold.Chemscore.Internal.Correction.Weighted>
   9.000000E+99

> <Gold.Protein.RotatedTorsions>
[ 6907 6896 6895 6894 ] final  146.82 input  -60.11 | X-H torsion
[ 7974 7965 7964 7962 ] final   61.34 input  175.53 | X-H torsion
[ 8008 7997 7996 7995 ] final   -0.02 input   59.86 | X-H torsion
[ 10167 10162 10161 10158 ] final  145.01 input  -65.29 | X-H torsion
[ 10718 10713 10712 10709 ] final -161.18 input   66.30 | X-H torsion
[ 10763 10752 10751 10750 ] final  174.85 input  -60.55 | X-H torsion
[ 11005 11000 10999 10996 ] final   80.23 input  -57.11 | X-H torsion

> <Gold.Protein.ActiveResidues>
 VAL166  LYS551  ARG553  GLY616  TRP617  ASP618  TYR619  PRO620  LYS621  CYS622 
 ASP623  PHE694  ASN695  SER759  ASP760  ASP761  ALA762  ILE779  LEU786  VAL792 
 PHE793  MET794  SER795  GLU796  ALA797  LYS798  CYS799  TRP800  GLU811  SER814 

> <Gold.Protein.RotatedAtoms>
  152.1629  133.4593  159.4869 H   0  0  0  0  0  0  0  0  0  0  0  0  # atno 6907 bound_to 6896
  150.6909  134.2049  159.4346 H   0  0  0  0  0  0  0  0  0  0  0  0  # atno 6908 bound_to 6896
  151.9952  134.9957  160.0613 H   0  0  0  0  0  0  0  0  0  0  0  0  # atno 6909 bound_to 6896
  145.8858  139.3476  143.0678 H   0  0  0  0  0  0  0  0  0  0  0  0  # atno 7974 bound_to 7965
  154.6628  140.2594  155.7090 H   0  0  0  0  0  0  0  0  0  0  0  0  # atno 8008 bound_to 7997
  156.2626  140.2845  156.1028 H   0  0  0  0  0  0  0  0  0  0  0  0  # atno 8009 bound_to 7997
  155.1283  140.0378  157.2758 H   0  0  0  0  0  0  0  0  0  0  0  0  # atno 8010 bound_to 7997
  139.4935  144.5932  151.6638 H   0  0  0  0  0  0  0  0  0  0  0  0  # atno 10167 bound_to 10162
  156.5926  130.8777  151.2894 H   0  0  0  0  0  0  0  0  0  0  0  0  # atno 10718 bound_to 10713
  154.4596  135.2767  155.1722 H   0  0  0  0  0  0  0  0  0  0  0  0  # atno 10763 bound_to 10752
  154.3516  135.6149  153.5649 H   0  0  0  0  0  0  0  0  0  0  0  0  # atno 10764 bound_to 10752
  152.9853  135.5813  154.4956 H   0  0  0  0  0  0  0  0  0  0  0  0  # atno 10765 bound_to 10752
  139.9142  134.7904  156.1882 H   0  0  0  0  0  0  0  0  0  0  0  0  # atno 11005 bound_to 11000
  145.8968  140.9268  143.0523 LP  0  0  0  0  0  0  0  0  0  0  0  0  # atno 17320 bound_to 7965
  144.6728  140.0979  143.7462 LP  0  0  0  0  0  0  0  0  0  0  0  0  # atno 17321 bound_to 7965
  140.5564  144.0342  150.6149 LP  0  0  0  0  0  0  0  0  0  0  0  0  # atno 17342 bound_to 10162
  140.3413  143.3018  152.0585 LP  0  0  0  0  0  0  0  0  0  0  0  0  # atno 17343 bound_to 10162
  157.7300  130.9679  150.1811 LP  0  0  0  0  0  0  0  0  0  0  0  0  # atno 17370 bound_to 10713
  156.2536  130.3703  149.8205 LP  0  0  0  0  0  0  0  0  0  0  0  0  # atno 17371 bound_to 10713
  141.0600  133.6846  156.1934 LP  0  0  0  0  0  0  0  0  0  0  0  0  # atno 17394 bound_to 11000
  140.6676  134.4901  157.5586 LP  0  0  0  0  0  0  0  0  0  0  0  0  # atno 17395 bound_to 11000

$$$$
