AV-unprocessed.smi:970|AV-procd|sdf|4291|dock7
  -GOLD-   22720 2193D 1   1.00000     0.00000
 Structure written by MMmdl.
 31 31  0  0  0  0  0  0  0  0  1 V2000
  151.1278  137.4585  154.7759 C   0  0  0  0  0  0  0  0  0  0  0  0
  150.7253  138.7989  155.1728 N   0  0  0  0  0  0  0  0  0  0  0  0
  151.5714  139.7399  155.6156 C   0  0  0  0  0  0  0  0  0  0  0  0
  152.7853  139.5563  155.7234 O   0  0  0  0  0  0  0  0  0  0  0  0
  150.9499  141.1002  155.9720 C   0  0  2  0  0  0  0  0  0  0  0  0
  151.2064  141.3627  157.4653 C   0  0  0  0  0  0  0  0  0  0  0  0
  149.5035  141.0728  155.7636 N   0  0  0  0  0  0  0  0  0  0  0  0
  148.8884  141.0930  154.5691 C   0  0  0  0  0  0  0  0  0  0  0  0
  149.5029  141.1392  153.5024 O   0  0  0  0  0  0  0  0  0  0  0  0
  147.3501  141.0396  154.5926 C   0  0  2  0  0  0  0  0  0  0  0  0
  146.7660  141.0283  156.0198 C   0  0  0  0  0  0  0  0  0  0  0  0
  146.8568  139.9175  153.8022 N   0  0  0  0  0  0  0  0  0  0  0  0
  147.0697  139.6106  152.5208 C   0  0  0  0  0  0  0  0  0  0  0  0
  146.4890  138.4838  152.1332 N   0  0  0  0  0  0  0  0  0  0  0  0
  145.8970  138.1166  153.3082 C   0  0  0  0  0  0  0  0  0  0  0  0
  146.0902  138.9366  154.3410 N   0  0  0  0  0  0  0  0  0  0  0  0
  150.2518  136.8749  154.4935 H   0  0  0  0  0  0  0  0  0  0  0  0
  151.6306  136.9435  155.5958 H   0  0  0  0  0  0  0  0  0  0  0  0
  151.8038  137.4951  153.9206 H   0  0  0  0  0  0  0  0  0  0  0  0
  149.7430  139.0252  155.1097 H   0  0  0  0  0  0  0  0  0  0  0  0
  151.4029  141.8953  155.3763 H   0  0  0  0  0  0  0  0  0  0  0  0
  152.2746  141.4037  157.6820 H   0  0  0  0  0  0  0  0  0  0  0  0
  150.7676  140.5887  158.0970 H   0  0  0  0  0  0  0  0  0  0  0  0
  150.7780  142.3177  157.7709 H   0  0  0  0  0  0  0  0  0  0  0  0
  148.9281  141.0245  156.5916 H   0  0  0  0  0  0  0  0  0  0  0  0
  147.0010  141.9522  154.1067 H   0  0  0  0  0  0  0  0  0  0  0  0
  147.0740  141.9120  156.5798 H   0  0  0  0  0  0  0  0  0  0  0  0
  147.0843  140.1507  156.5837 H   0  0  0  0  0  0  0  0  0  0  0  0
  145.6761  141.0253  155.9921 H   0  0  0  0  0  0  0  0  0  0  0  0
  147.6658  140.2217  151.8590 H   0  0  0  0  0  0  0  0  0  0  0  0
  145.3104  137.2151  153.4069 H   0  0  0  0  0  0  0  0  0  0  0  0
  1  2  1  0  0  0  0
  1 17  1  0  0  0  0
  1 18  1  0  0  0  0
  1 19  1  0  0  0  0
  2  3  1  0  0  0  0
  2 20  1  0  0  0  0
  3  4  2  0  0  0  0
  3  5  1  0  0  0  0
  5  6  1  0  0  0  0
  5  7  1  0  0  0  0
  5 21  1  0  0  0  0
  6 22  1  0  0  0  0
  6 23  1  0  0  0  0
  6 24  1  0  0  0  0
  7  8  1  0  0  0  0
  7 25  1  0  0  0  0
  8  9  2  0  0  0  0
  8 10  1  0  0  0  0
 10 11  1  0  0  0  0
 10 12  1  0  0  0  0
 10 26  1  0  0  0  0
 11 27  1  0  0  0  0
 11 28  1  0  0  0  0
 11 29  1  0  0  0  0
 12 16  1  0  0  0  0
 12 13  1  0  0  0  0
 13 14  2  0  0  0  0
 13 30  1  0  0  0  0
 14 15  1  0  0  0  0
 15 16  2  0  0  0  0
 15 31  1  0  0  0  0
M  END
> <s_m_source_file>
AV-unprocessed.smi

> <i_m_source_file_index>
970

> <i_lp_mmshare_version>
43012

> <i_f3d_flags>
0

> <s_epik_input>
W0NIM11bTkhdQyg9TylbQ0BIXShbQ0gzXSlbTkhdQyg9TylbQ0BIXShbQ0gzXSluMVtjSF1uW2NIXW4x

> <s_epik_cmdline>
J2VwaWtfcHl0aG9uJywgJy1waCcsICc3LjAnLCAnLXRuJywgJzgnLCAnLW1hJywgJzIwMCcsICctbWV0YWxfYmluZGluZycsICctaW1hZScsICc8aW5maWxlLm1hZT4nLCAnLW9tYWUnLCAnPG91dGZpbGUubWFlPic=

> <r_lp_tautomer_probability>
1

> <r_epik_Ionization_Penalty>
1.07271e-05

> <r_epik_Ionization_Penalty_Charging>
0

> <r_epik_Ionization_Penalty_Neutral>
1.07271e-05

> <r_epik_State_Penalty>
-0

> <r_epik_Charging_Adjusted_Penalty>
0

> <i_epik_Tot_Q>
0

> <i_epik_Tot_abs_Q>
0

> <r_epik_Metal_State_Penalty>
-0

> <b_epik_Metal_Only>
0

> <s_lp_Force_Field>
OPLS_2005

> <r_lp_Energy>
8.61602

> <b_lp_Chiralities_Consistent>
1

> <s_lp_Variant>
AV-unprocessed.smi:970-1

> <Gold.Version>
5.8.1

> <Gold.Id.Protein>
6NUR|6NUR_protein|mol2

> <Gold.PLP.Fitness>
31.3780

> <Gold.PLP.PLP>
-22.1876

> <Gold.PLP.part.hbond>
-3.0000

> <Gold.PLP.part.metal>
0.0000

> <Gold.PLP.part.buried>
-2.8861

> <Gold.PLP.part.nonpolar>
-20.0654

> <Gold.PLP.part.repulsive>
4.1964

> <Gold.PLP.ligand.clash>
0.0036

> <Gold.PLP.ligand.torsion>
0.2041

> <Gold.PLP.Chemscore.Hbond>
2.1622

> <Gold.PLP.Chemscore.CHOScore>
1.0000

> <Gold.PLP.Chemscore.Metal>
0.0000

> <Gold.Chemscore.Hbonds>
donor molecule, donor type, donor heavy atom, donor atom, acceptor molecule, acceptor atom, score
      P1  H  7989  7998       L1     9  0.17
      P1  H  7997  8009       L1     4  1.00
      P1  H  8011  8017       L1     9  1.00
      L1  C    13    30       P1  7957  1.00

> <Gold.PLP.Chemscore.Internal.Correction>
0.1154

> <Gold.Rescore>
     Score         DG    S(hbond)    S(metal)    S(lipo)     H(rot)  DE(clash)    DE(int)     intcor
      7.91      -8.81       2.09        0.00      25.28       2.59       0.45       0.45       ----

> <Gold.Chemscore.Fitness>
7.9134

> <Gold.Chemscore.DG>
-8.8124

> <Gold.Chemscore.ZeroCoef>
-5.4800

> <Gold.Chemscore.Hbond>
2.0935

> <Gold.Chemscore.Metal>
0.0000

> <Gold.Chemscore.Lipo>
25.2838

> <Gold.Chemscore.Internal_Hbond>
0.0000

> <Gold.Chemscore.DEClash>
0.4479

> <Gold.Chemscore.DEInternal>
0.4511

> <Gold.Chemscore.Rot>
2.5852

> <Gold.Chemscore.Internal.Correction>
   9.000000E+99

> <Gold.Chemscore.Hbonds>
donor molecule, donor type, donor heavy atom, donor atom, acceptor molecule, acceptor atom, score
      P1  H  7989  7998       L1     9  0.18
      P1  H  7997  8009       L1     4  1.00
      P1  H  8011  8017       L1     9  0.95

> <Gold.Chemscore.Hbond.Weighted>
-6.9923

> <Gold.Chemscore.Metal.Weighted>
-0.0000

> <Gold.Chemscore.Lipo.Weighted>
-2.9582

> <Gold.Chemscore.Internal_Hbond.Weighted>
0.0000

> <Gold.Chemscore.DEClash.Weighted>
0.4479

> <Gold.Chemscore.DEInternal.Weighted>
0.4511

> <Gold.Chemscore.Rot.Weighted>
6.6182

> <Gold.Chemscore.Internal.Correction.Weighted>
   9.000000E+99

> <Gold.Protein.RotatedTorsions>
[ 6907 6896 6895 6894 ] final  -20.95 input  -60.11 | X-H torsion
[ 7974 7965 7964 7962 ] final   44.99 input  175.53 | X-H torsion
[ 8008 7997 7996 7995 ] final -147.17 input   59.86 | X-H torsion
[ 10167 10162 10161 10158 ] final  -45.51 input  -65.29 | X-H torsion
[ 10718 10713 10712 10709 ] final   22.35 input   66.30 | X-H torsion
[ 10763 10752 10751 10750 ] final  -21.59 input  -60.55 | X-H torsion
[ 11005 11000 10999 10996 ] final  -15.34 input  -57.11 | X-H torsion

> <Gold.Protein.ActiveResidues>
 VAL166  LYS551  ARG553  GLY616  TRP617  ASP618  TYR619  PRO620  LYS621  CYS622 
 ASP623  PHE694  ASN695  SER759  ASP760  ASP761  ALA762  ILE779  LEU786  VAL792 
 PHE793  MET794  SER795  GLU796  ALA797  LYS798  CYS799  TRP800  GLU811  SER814 

> <Gold.Protein.RotatedAtoms>
  151.2405  135.0587  159.9022 H   0  0  0  0  0  0  0  0  0  0  0  0  # atno 6907 bound_to 6896
  152.5393  134.0439  159.8090 H   0  0  0  0  0  0  0  0  0  0  0  0  # atno 6908 bound_to 6896
  151.0632  133.5478  159.2664 H   0  0  0  0  0  0  0  0  0  0  0  0  # atno 6909 bound_to 6896
  146.0519  139.5013  142.9713 H   0  0  0  0  0  0  0  0  0  0  0  0  # atno 7974 bound_to 7965
  155.5713  140.0634  157.2806 H   0  0  0  0  0  0  0  0  0  0  0  0  # atno 8008 bound_to 7997
  154.4360  140.1868  156.0928 H   0  0  0  0  0  0  0  0  0  0  0  0  # atno 8009 bound_to 7997
  156.0374  140.3299  155.7210 H   0  0  0  0  0  0  0  0  0  0  0  0  # atno 8010 bound_to 7997
  140.6855  143.2876  151.3650 H   0  0  0  0  0  0  0  0  0  0  0  0  # atno 10167 bound_to 10162
  157.1511  130.6675  149.6012 H   0  0  0  0  0  0  0  0  0  0  0  0  # atno 10718 bound_to 10713
  153.6385  135.6986  153.5250 H   0  0  0  0  0  0  0  0  0  0  0  0  # atno 10763 bound_to 10752
  153.2801  135.4188  155.1070 H   0  0  0  0  0  0  0  0  0  0  0  0  # atno 10764 bound_to 10752
  154.8505  135.3600  154.5929 H   0  0  0  0  0  0  0  0  0  0  0  0  # atno 10765 bound_to 10752
  140.7957  133.8253  155.9421 H   0  0  0  0  0  0  0  0  0  0  0  0  # atno 11005 bound_to 11000
  145.6709  141.0216  143.1658 LP  0  0  0  0  0  0  0  0  0  0  0  0  # atno 17320 bound_to 7965
  144.7127  139.8309  143.7409 LP  0  0  0  0  0  0  0  0  0  0  0  0  # atno 17321 bound_to 7965
  139.6210  144.0907  152.2391 LP  0  0  0  0  0  0  0  0  0  0  0  0  # atno 17342 bound_to 10162
  140.0351  144.6050  150.7456 LP  0  0  0  0  0  0  0  0  0  0  0  0  # atno 17343 bound_to 10162
  155.9770  130.4744  150.6567 LP  0  0  0  0  0  0  0  0  0  0  0  0  # atno 17370 bound_to 10713
  157.4219  131.0838  151.1122 LP  0  0  0  0  0  0  0  0  0  0  0  0  # atno 17371 bound_to 10713
  140.9345  134.1979  157.4841 LP  0  0  0  0  0  0  0  0  0  0  0  0  # atno 17394 bound_to 11000
  139.8726  134.9847  156.5249 LP  0  0  0  0  0  0  0  0  0  0  0  0  # atno 17395 bound_to 11000

$$$$
