AV-unprocessed.smi:315|AV-procd|sdf|2323|dock7
  -GOLD-   2262022223D 1   1.00000     0.00000
 Structure written by MMmdl.
 47 49  0  0  0  0  0  0  0  0  2 V2000
  151.6648  137.4930  155.3238 C   0  0  0  0  0  0  0  0  0  0  0  0
  151.3162  138.6534  154.3885 C   0  0  0  0  0  0  0  0  0  0  0  0
  150.0007  138.4477  153.8844 O   0  0  0  0  0  0  0  0  0  0  0  0
  149.0964  139.4917  153.9379 C   0  0  0  0  0  0  0  0  0  0  0  0
  149.5245  140.6984  154.3858 N   0  0  0  0  0  0  0  0  0  0  0  0
  148.6389  141.7147  154.4372 C   0  0  0  0  0  0  0  0  0  0  0  0
  147.2906  141.5823  154.0563 C   0  0  0  0  0  0  0  0  0  0  0  0
  146.8443  140.3311  153.5922 C   0  0  0  0  0  0  0  0  0  0  0  0
  147.7664  139.2598  153.5186 C   0  0  0  0  0  0  0  0  0  0  0  0
  147.4242  137.9515  153.0839 N   0  0  0  0  0  0  0  0  0  0  0  0
  146.2056  137.4359  152.8335 C   0  0  0  0  0  0  0  0  0  0  0  0
  145.1452  138.0404  152.9735 O   0  0  0  0  0  0  0  0  0  0  0  0
  146.2312  136.1693  152.3819 N   0  0  0  0  0  0  0  0  0  0  0  0
  145.0922  135.3246  152.0180 C   0  0  1  0  0  0  0  0  0  0  0  0
  145.4585  134.1366  151.1128 C   0  0  0  0  0  0  0  0  0  0  0  0
  144.6157  132.9530  151.6270 C   0  0  0  0  0  0  0  0  0  0  0  0
  143.7325  133.4900  152.6870 N   0  3  2  0  0  0  0  0  0  0  0  0
  142.3738  133.8144  152.1717 C   0  0  0  0  0  0  0  0  0  0  0  0
  141.5355  134.5847  153.1998 C   0  0  0  0  0  0  0  0  0  0  0  0
  142.2510  135.8765  153.6027 C   0  0  0  0  0  0  0  0  0  0  0  0
  143.6306  135.5386  154.1788 C   0  0  0  0  0  0  0  0  0  0  0  0
  144.4774  134.6445  153.2452 C   0  0  2  0  0  0  0  0  0  0  0  0
  152.6676  137.6116  155.7343 H   0  0  0  0  0  0  0  0  0  0  0  0
  151.6305  136.5400  154.7951 H   0  0  0  0  0  0  0  0  0  0  0  0
  150.9655  137.4398  156.1585 H   0  0  0  0  0  0  0  0  0  0  0  0
  151.3723  139.5957  154.9358 H   0  0  0  0  0  0  0  0  0  0  0  0
  152.0363  138.6927  153.5696 H   0  0  0  0  0  0  0  0  0  0  0  0
  149.0147  142.6607  154.7982 H   0  0  0  0  0  0  0  0  0  0  0  0
  146.6132  142.4207  154.1225 H   0  0  0  0  0  0  0  0  0  0  0  0
  145.8075  140.2148  153.3165 H   0  0  0  0  0  0  0  0  0  0  0  0
  148.2085  137.3613  152.8486 H   0  0  0  0  0  0  0  0  0  0  0  0
  147.1441  135.7513  152.2720 H   0  0  0  0  0  0  0  0  0  0  0  0
  144.3253  135.9274  151.5284 H   0  0  0  0  0  0  0  0  0  0  0  0
  145.2395  134.3631  150.0688 H   0  0  0  0  0  0  0  0  0  0  0  0
  146.5201  133.8929  151.1783 H   0  0  0  0  0  0  0  0  0  0  0  0
  144.0610  132.4570  150.8291 H   0  0  0  0  0  0  0  0  0  0  0  0
  145.2720  132.2062  152.0756 H   0  0  0  0  0  0  0  0  0  0  0  0
  142.4532  134.4041  151.2568 H   0  0  0  0  0  0  0  0  0  0  0  0
  141.8666  132.8878  151.9008 H   0  0  0  0  0  0  0  0  0  0  0  0
  140.5554  134.8169  152.7816 H   0  0  0  0  0  0  0  0  0  0  0  0
  141.3601  133.9638  154.0794 H   0  0  0  0  0  0  0  0  0  0  0  0
  142.3513  136.5351  152.7392 H   0  0  0  0  0  0  0  0  0  0  0  0
  141.6604  136.4198  154.3408 H   0  0  0  0  0  0  0  0  0  0  0  0
  144.1722  136.4543  154.4185 H   0  0  0  0  0  0  0  0  0  0  0  0
  143.4901  135.0173  155.1267 H   0  0  0  0  0  0  0  0  0  0  0  0
  145.2936  134.2288  153.8401 H   0  0  0  0  0  0  0  0  0  0  0  0
  143.6195  132.7962  153.4125 H   0  0  0  0  0  0  0  0  0  0  0  0
  1  2  1  0  0  0  0
  1 23  1  0  0  0  0
  1 24  1  0  0  0  0
  1 25  1  0  0  0  0
  2  3  1  0  0  0  0
  2 26  1  0  0  0  0
  2 27  1  0  0  0  0
  3  4  1  0  0  0  0
  4  9  1  0  0  0  0
  4  5  2  0  0  0  0
  5  6  1  0  0  0  0
  6  7  2  0  0  0  0
  6 28  1  0  0  0  0
  7  8  1  0  0  0  0
  7 29  1  0  0  0  0
  8  9  2  0  0  0  0
  8 30  1  0  0  0  0
  9 10  1  0  0  0  0
 10 11  1  0  0  0  0
 10 31  1  0  0  0  0
 11 12  2  0  0  0  0
 11 13  1  0  0  0  0
 13 14  1  0  0  0  0
 13 32  1  0  0  0  0
 14 22  1  0  0  0  0
 14 15  1  0  0  0  0
 14 33  1  0  0  0  0
 15 16  1  0  0  0  0
 15 34  1  0  0  0  0
 15 35  1  0  0  0  0
 16 17  1  0  0  0  0
 16 36  1  0  0  0  0
 16 37  1  0  0  0  0
 17 22  1  0  0  0  0
 17 18  1  0  0  0  0
 17 47  1  0  0  0  0
 18 19  1  0  0  0  0
 18 38  1  0  0  0  0
 18 39  1  0  0  0  0
 19 20  1  0  0  0  0
 19 40  1  0  0  0  0
 19 41  1  0  0  0  0
 20 21  1  0  0  0  0
 20 42  1  0  0  0  0
 20 43  1  0  0  0  0
 21 22  1  0  0  0  0
 21 44  1  0  0  0  0
 21 45  1  0  0  0  0
 22 46  1  0  0  0  0
M  CHG  1  17   1
M  END
> <s_m_source_file>
AV-unprocessed.smi

> <i_m_source_file_index>
315

> <i_lp_mmshare_version>
43012

> <i_f3d_flags>
0

> <s_epik_input>
W0NIM11bQ0gyXU9jMW5bY0hdW2NIXVtjSF1jMVtOSF1DKD1PKVtOSF1bQ0BIXShbQ0gyXVtDSDJdMilbQ0BASF0oTjIzKVtDSDJdW0NIMl1bQ0gyXVtDSDJdMw==

> <s_epik_cmdline>
J2VwaWtfcHl0aG9uJywgJy1waCcsICc3LjAnLCAnLXRuJywgJzgnLCAnLW1hJywgJzIwMCcsICctbWV0YWxfYmluZGluZycsICctaW1hZScsICc8aW5maWxlLm1hZT4nLCAnLW9tYWUnLCAnPG91dGZpbGUubWFlPic=

> <r_lp_tautomer_probability>
1

> <r_epik_Ionization_Penalty>
0.00106455

> <r_epik_Ionization_Penalty_Charging>
0.000974069

> <r_epik_Ionization_Penalty_Neutral>
9.04821e-05

> <r_epik_State_Penalty>
0.000633842

> <r_epik_Charging_Adjusted_Penalty>
0.00160791

> <i_epik_Tot_Q>
1

> <i_epik_Tot_abs_Q>
1

> <r_epik_Metal_State_Penalty>
-0

> <b_epik_Metal_Only>
0

> <s_lp_Force_Field>
OPLS_2005

> <r_lp_Energy>
51.0433

> <b_lp_Chiralities_Consistent>
1

> <s_lp_Variant>
AV-unprocessed.smi:315-8

> <Gold.Version>
5.8.1

> <Gold.Id.Protein>
6NUR|6NUR_protein|mol2

> <Gold.PLP.Fitness>
46.1854

> <Gold.PLP.PLP>
-32.2681

> <Gold.PLP.part.hbond>
-3.9639

> <Gold.PLP.part.metal>
0.0000

> <Gold.PLP.part.buried>
-0.9321

> <Gold.PLP.part.nonpolar>
-29.7185

> <Gold.PLP.part.repulsive>
2.4094

> <Gold.PLP.ligand.clash>
0.0000

> <Gold.PLP.ligand.torsion>
0.6906

> <Gold.PLP.Chemscore.Hbond>
4.0932

> <Gold.PLP.Chemscore.CHOScore>
1.0000

> <Gold.PLP.Chemscore.Metal>
0.0000

> <Gold.Chemscore.Hbonds>
donor molecule, donor type, donor heavy atom, donor atom, acceptor molecule, acceptor atom, score
      L1  H    10    31       P1  7948  1.00
      L1  H    13    32       P1  7948  0.83
      L1  H    17    47       P1 10957  2.00
      P1  H  7989  7998       L1     5  0.26
      L1  C     6    28       P1  8028  1.00

> <Gold.PLP.Chemscore.Internal.Correction>
0.0190

> <Gold.Rescore>
     Score         DG    S(hbond)    S(metal)    S(lipo)     H(rot)  DE(clash)    DE(int)     intcor
     16.53     -19.97       2.64        0.00      78.49       1.38       1.48       1.95       ----

> <Gold.Chemscore.Fitness>
16.5322

> <Gold.Chemscore.DG>
-19.9681

> <Gold.Chemscore.ZeroCoef>
-5.4800

> <Gold.Chemscore.Hbond>
2.6438

> <Gold.Chemscore.Metal>
0.0000

> <Gold.Chemscore.Lipo>
78.4880

> <Gold.Chemscore.Internal_Hbond>
0.0000

> <Gold.Chemscore.DEClash>
1.4813

> <Gold.Chemscore.DEInternal>
1.9546

> <Gold.Chemscore.Rot>
1.3770

> <Gold.Chemscore.Internal.Correction>
   9.000000E+99

> <Gold.Chemscore.Hbonds>
donor molecule, donor type, donor heavy atom, donor atom, acceptor molecule, acceptor atom, score
      L1  H    10    31       P1  7948  0.95
      L1  H    13    32       P1  7948  0.81
      L1  H    17    47       P1 10957  0.59
      P1  H  7989  7998       L1     5  0.12

> <Gold.Chemscore.Hbond.Weighted>
-8.8302

> <Gold.Chemscore.Metal.Weighted>
-0.0000

> <Gold.Chemscore.Lipo.Weighted>
-9.1831

> <Gold.Chemscore.Internal_Hbond.Weighted>
0.0000

> <Gold.Chemscore.DEClash.Weighted>
1.4813

> <Gold.Chemscore.DEInternal.Weighted>
1.9546

> <Gold.Chemscore.Rot.Weighted>
3.5252

> <Gold.Chemscore.Internal.Correction.Weighted>
   9.000000E+99

> <Gold.Protein.RotatedTorsions>
[ 6907 6896 6895 6894 ] final -116.45 input  -60.11 | X-H torsion
[ 7974 7965 7964 7962 ] final  -38.51 input  175.53 | X-H torsion
[ 8008 7997 7996 7995 ] final  -24.44 input   59.86 | X-H torsion
[ 10167 10162 10161 10158 ] final   35.78 input  -65.29 | X-H torsion
[ 10718 10713 10712 10709 ] final   83.48 input   66.30 | X-H torsion
[ 10763 10752 10751 10750 ] final  -51.74 input  -60.55 | X-H torsion
[ 11005 11000 10999 10996 ] final  -76.32 input  -57.11 | X-H torsion

> <Gold.Protein.ActiveResidues>
 VAL166  LYS551  ARG553  GLY616  TRP617  ASP618  TYR619  PRO620  LYS621  CYS622 
 ASP623  PHE694  ASN695  SER759  ASP760  ASP761  ALA762  ILE779  LEU786  VAL792 
 PHE793  MET794  SER795  GLU796  ALA797  LYS798  CYS799  TRP800  GLU811  SER814 

> <Gold.Protein.RotatedAtoms>
  150.8057  133.8514  159.3206 H   0  0  0  0  0  0  0  0  0  0  0  0  # atno 6907 bound_to 6896
  151.6314  135.1021  160.0132 H   0  0  0  0  0  0  0  0  0  0  0  0  # atno 6908 bound_to 6896
  152.4148  133.6980  159.6464 H   0  0  0  0  0  0  0  0  0  0  0  0  # atno 6909 bound_to 6896
  146.0480  140.6520  142.9055 H   0  0  0  0  0  0  0  0  0  0  0  0  # atno 7974 bound_to 7965
  154.4529  140.1953  156.0465 H   0  0  0  0  0  0  0  0  0  0  0  0  # atno 8008 bound_to 7997
  156.0686  140.3287  155.7520 H   0  0  0  0  0  0  0  0  0  0  0  0  # atno 8009 bound_to 7997
  155.5299  140.0577  157.2881 H   0  0  0  0  0  0  0  0  0  0  0  0  # atno 8010 bound_to 7997
  140.4190  144.1487  150.6146 H   0  0  0  0  0  0  0  0  0  0  0  0  # atno 10167 bound_to 10162
  157.6880  131.0092  150.2530 H   0  0  0  0  0  0  0  0  0  0  0  0  # atno 10718 bound_to 10713
  154.1315  135.6519  153.4923 H   0  0  0  0  0  0  0  0  0  0  0  0  # atno 10763 bound_to 10752
  153.0194  135.5294  154.6996 H   0  0  0  0  0  0  0  0  0  0  0  0  # atno 10764 bound_to 10752
  154.6232  135.2967  155.0272 H   0  0  0  0  0  0  0  0  0  0  0  0  # atno 10765 bound_to 10752
  141.1653  133.6979  156.7651 H   0  0  0  0  0  0  0  0  0  0  0  0  # atno 11005 bound_to 11000
  144.7107  140.4029  143.7082 LP  0  0  0  0  0  0  0  0  0  0  0  0  # atno 17320 bound_to 7965
  145.6773  139.1611  143.2720 LP  0  0  0  0  0  0  0  0  0  0  0  0  # atno 17321 bound_to 7965
  140.4555  143.2469  151.9290 LP  0  0  0  0  0  0  0  0  0  0  0  0  # atno 17342 bound_to 10162
  139.4782  144.5520  151.8371 LP  0  0  0  0  0  0  0  0  0  0  0  0  # atno 17343 bound_to 10162
  156.3123  130.3773  149.7650 LP  0  0  0  0  0  0  0  0  0  0  0  0  # atno 17370 bound_to 10713
  156.5247  130.8230  151.3216 LP  0  0  0  0  0  0  0  0  0  0  0  0  # atno 17371 bound_to 10713
  140.2505  134.8544  157.3662 LP  0  0  0  0  0  0  0  0  0  0  0  0  # atno 17394 bound_to 11000
  140.1707  134.4612  155.7833 LP  0  0  0  0  0  0  0  0  0  0  0  0  # atno 17395 bound_to 11000

$$$$
