AV-unprocessed.smi:1504|AV-procd|sdf|6073|dock8
  -GOLD-   22720 6193D 1   1.00000     0.00000
 Structure written by MMmdl.
 40 41  0  0  0  0  0  0  0  0  2 V2000
  152.1115  139.1653  155.9907 O   0  0  0  0  0  0  0  0  0  0  0  0
  151.0166  139.3746  155.4681 C   0  0  0  0  0  0  0  0  0  0  0  0
  150.3738  140.5497  155.5173 N   0  0  0  0  0  0  0  0  0  0  0  0
  150.8717  141.7442  156.1895 C   0  0  0  0  0  0  0  0  0  0  0  0
  150.2087  141.9379  157.5638 C   0  0  0  0  0  0  0  0  0  0  0  0
  150.8899  143.0150  158.3850 C   0  0  0  0  0  0  0  0  0  0  0  0
  151.7276  142.7082  159.4794 C   0  0  0  0  0  0  0  0  0  0  0  0
  152.3318  143.7592  160.2004 C   0  0  0  0  0  0  0  0  0  0  0  0
  152.0874  145.0930  159.8118 C   0  0  0  0  0  0  0  0  0  0  0  0
  151.2443  145.3420  158.7095 C   0  0  0  0  0  0  0  0  0  0  0  0
  150.6836  144.3079  158.0445 N   0  3  0  0  0  0  0  0  0  0  0  0
  150.3235  138.4551  154.7854 N   0  0  0  0  0  0  0  0  0  0  0  0
  150.7717  137.0863  154.5641 C   0  0  0  0  0  0  0  0  0  0  0  0
  150.4482  136.1943  155.7748 C   0  0  2  0  0  0  0  0  0  0  0  0
  150.5990  134.6939  155.4567 C   0  0  0  0  0  0  0  0  0  0  0  0
  150.0073  133.8886  156.6173 C   0  0  0  0  0  0  0  0  0  0  0  0
  148.5814  134.8688  157.2154 S   0  0  0  0  0  0  0  0  0  0  0  0
  147.3414  134.3363  156.6310 O   0  0  0  0  0  0  0  0  0  0  0  0
  148.7106  135.0675  158.6669 O   0  0  0  0  0  0  0  0  0  0  0  0
  149.0333  136.4154  156.3395 C   0  0  0  0  0  0  0  0  0  0  0  0
  149.4788  140.6235  155.0557 H   0  0  0  0  0  0  0  0  0  0  0  0
  151.9567  141.6889  156.2930 H   0  0  0  0  0  0  0  0  0  0  0  0
  150.6639  142.6018  155.5493 H   0  0  0  0  0  0  0  0  0  0  0  0
  149.1575  142.2015  157.4386 H   0  0  0  0  0  0  0  0  0  0  0  0
  150.2259  141.0034  158.1265 H   0  0  0  0  0  0  0  0  0  0  0  0
  151.9065  141.6814  159.7641 H   0  0  0  0  0  0  0  0  0  0  0  0
  152.9752  143.5448  161.0411 H   0  0  0  0  0  0  0  0  0  0  0  0
  152.5403  145.9122  160.3511 H   0  0  0  0  0  0  0  0  0  0  0  0
  151.0029  146.3289  158.3425 H   0  0  0  0  0  0  0  0  0  0  0  0
  149.4316  138.7163  154.3913 H   0  0  0  0  0  0  0  0  0  0  0  0
  150.2945  136.6915  153.6656 H   0  0  0  0  0  0  0  0  0  0  0  0
  151.8475  137.0862  154.3811 H   0  0  0  0  0  0  0  0  0  0  0  0
  151.1578  136.4248  156.5711 H   0  0  0  0  0  0  0  0  0  0  0  0
  150.0427  134.4615  154.5475 H   0  0  0  0  0  0  0  0  0  0  0  0
  151.6386  134.4214  155.2730 H   0  0  0  0  0  0  0  0  0  0  0  0
  149.6857  132.8885  156.3268 H   0  0  0  0  0  0  0  0  0  0  0  0
  150.7248  133.8033  157.4337 H   0  0  0  0  0  0  0  0  0  0  0  0
  148.9744  137.2625  157.0229 H   0  0  0  0  0  0  0  0  0  0  0  0
  148.3091  136.5656  155.5381 H   0  0  0  0  0  0  0  0  0  0  0  0
  150.0768  144.5117  157.2499 H   0  0  0  0  0  0  0  0  0  0  0  0
  1  2  2  0  0  0  0
  2  3  1  0  0  0  0
  2 12  1  0  0  0  0
  3  4  1  0  0  0  0
  3 21  1  0  0  0  0
  4  5  1  0  0  0  0
  4 22  1  0  0  0  0
  4 23  1  0  0  0  0
  5  6  1  0  0  0  0
  5 24  1  0  0  0  0
  5 25  1  0  0  0  0
  6 11  1  0  0  0  0
  6  7  2  0  0  0  0
  7  8  1  0  0  0  0
  7 26  1  0  0  0  0
  8  9  2  0  0  0  0
  8 27  1  0  0  0  0
  9 10  1  0  0  0  0
  9 28  1  0  0  0  0
 10 11  2  0  0  0  0
 10 29  1  0  0  0  0
 11 40  1  0  0  0  0
 12 13  1  0  0  0  0
 12 30  1  0  0  0  0
 13 14  1  0  0  0  0
 13 31  1  0  0  0  0
 13 32  1  0  0  0  0
 14 20  1  0  0  0  0
 14 15  1  0  0  0  0
 14 33  1  0  0  0  0
 15 16  1  0  0  0  0
 15 34  1  0  0  0  0
 15 35  1  0  0  0  0
 16 17  1  0  0  0  0
 16 36  1  0  0  0  0
 16 37  1  0  0  0  0
 17 18  2  0  0  0  0
 17 19  2  0  0  0  0
 17 20  1  0  0  0  0
 20 38  1  0  0  0  0
 20 39  1  0  0  0  0
M  CHG  1  11   1
M  END
> <s_m_source_file>
AV-unprocessed.smi

> <i_m_source_file_index>
1504

> <i_lp_mmshare_version>
43012

> <i_f3d_flags>
0

> <s_epik_input>
Tz1TMSg9TylbQ0gyXVtDSDJdW0NASF0oW0NIMl0xKVtDSDJdW05IXUMoPU8pW05IXVtDSDJdW0NIMl1jMltjSF1bY0hdW2NIXVtjSF1uMg==

> <s_epik_cmdline>
J2VwaWtfcHl0aG9uJywgJy1waCcsICc3LjAnLCAnLXRuJywgJzgnLCAnLW1hJywgJzIwMCcsICctbWV0YWxfYmluZGluZycsICctaW1hZScsICc8aW5maWxlLm1hZT4nLCAnLW9tYWUnLCAnPG91dGZpbGUubWFlPic=

> <r_epik_Ionization_Penalty>
1.57393

> <r_epik_Ionization_Penalty_Charging>
1.57388

> <r_epik_Ionization_Penalty_Neutral>
4.82054e-05

> <r_epik_State_Penalty>
1.66991

> <r_epik_Charging_Adjusted_Penalty>
3.24379

> <i_epik_Tot_Q>
1

> <i_epik_Tot_abs_Q>
1

> <r_epik_Metal_State_Penalty>
1.71052

> <b_epik_Metal_Only>
0

> <s_lp_Force_Field>
OPLS_2005

> <r_lp_Energy>
6.68719

> <b_lp_Chiralities_Consistent>
1

> <s_lp_Variant>
AV-unprocessed.smi:1504-3

> <Gold.Version>
5.8.1

> <Gold.Id.Protein>
6NUR|6NUR_protein|mol2

> <Gold.PLP.Fitness>
41.6843

> <Gold.PLP.PLP>
-33.8861

> <Gold.PLP.part.hbond>
-1.9412

> <Gold.PLP.part.metal>
0.0000

> <Gold.PLP.part.buried>
-5.7153

> <Gold.PLP.part.nonpolar>
-26.4306

> <Gold.PLP.part.repulsive>
0.2401

> <Gold.PLP.ligand.clash>
0.0000

> <Gold.PLP.ligand.torsion>
0.6121

> <Gold.PLP.Chemscore.Hbond>
3.0000

> <Gold.PLP.Chemscore.CHOScore>
0.0000

> <Gold.PLP.Chemscore.Metal>
0.0000

> <Gold.Chemscore.Hbonds>
donor molecule, donor type, donor heavy atom, donor atom, acceptor molecule, acceptor atom, score
      L1  H    11    40       P1  8028  2.00
      P1  H  6896  6909       L1    19  0.59

> <Gold.PLP.Chemscore.Internal.Correction>
0.0224

> <Gold.Rescore>
     Score         DG    S(hbond)    S(metal)    S(lipo)     H(rot)  DE(clash)    DE(int)     intcor
     16.48     -17.57       1.86        0.00      94.43       2.01       0.50       0.60       ----

> <Gold.Chemscore.Fitness>
16.4757

> <Gold.Chemscore.DG>
-17.5735

> <Gold.Chemscore.ZeroCoef>
-5.4800

> <Gold.Chemscore.Hbond>
1.8569

> <Gold.Chemscore.Metal>
0.0000

> <Gold.Chemscore.Lipo>
94.4347

> <Gold.Chemscore.Internal_Hbond>
0.0000

> <Gold.Chemscore.DEClash>
0.4985

> <Gold.Chemscore.DEInternal>
0.5993

> <Gold.Chemscore.Rot>
2.0146

> <Gold.Chemscore.Internal.Correction>
   9.000000E+99

> <Gold.Chemscore.Hbonds>
donor molecule, donor type, donor heavy atom, donor atom, acceptor molecule, acceptor atom, score
      L1  H    11    40       P1  8028  0.39
      P1  H  6896  6909       L1    19  0.54

> <Gold.Chemscore.Hbond.Weighted>
-6.2019

> <Gold.Chemscore.Metal.Weighted>
-0.0000

> <Gold.Chemscore.Lipo.Weighted>
-11.0489

> <Gold.Chemscore.Internal_Hbond.Weighted>
0.0000

> <Gold.Chemscore.DEClash.Weighted>
0.4985

> <Gold.Chemscore.DEInternal.Weighted>
0.5993

> <Gold.Chemscore.Rot.Weighted>
5.1573

> <Gold.Chemscore.Internal.Correction.Weighted>
   9.000000E+99

> <Gold.Protein.RotatedTorsions>
[ 6907 6896 6895 6894 ] final   48.41 input  -60.11 | X-H torsion
[ 7974 7965 7964 7962 ] final -105.73 input  175.53 | X-H torsion
[ 8008 7997 7996 7995 ] final  159.68 input   59.86 | X-H torsion
[ 10167 10162 10161 10158 ] final  148.38 input  -65.29 | X-H torsion
[ 10718 10713 10712 10709 ] final   59.40 input   66.30 | X-H torsion
[ 10763 10752 10751 10750 ] final   74.56 input  -60.55 | X-H torsion
[ 11005 11000 10999 10996 ] final  -48.96 input  -57.11 | X-H torsion

> <Gold.Protein.ActiveResidues>
 VAL166  LYS551  ARG553  GLY616  TRP617  ASP618  TYR619  PRO620  LYS621  CYS622 
 ASP623  PHE694  ASN695  SER759  ASP760  ASP761  ALA762  ILE779  LEU786  VAL792 
 PHE793  MET794  SER795  GLU796  ALA797  LYS798  CYS799  TRP800  GLU811  SER814 

> <Gold.Protein.RotatedAtoms>
  152.2792  134.7847  160.0399 H   0  0  0  0  0  0  0  0  0  0  0  0  # atno 6907 bound_to 6896
  151.8432  133.3422  159.3658 H   0  0  0  0  0  0  0  0  0  0  0  0  # atno 6908 bound_to 6896
  150.7183  134.5299  159.5739 H   0  0  0  0  0  0  0  0  0  0  0  0  # atno 6909 bound_to 6896
  145.2268  140.9155  143.3228 H   0  0  0  0  0  0  0  0  0  0  0  0  # atno 7974 bound_to 7965
  156.2223  140.1825  156.7448 H   0  0  0  0  0  0  0  0  0  0  0  0  # atno 8008 bound_to 7997
  154.5885  140.0654  156.9233 H   0  0  0  0  0  0  0  0  0  0  0  0  # atno 8009 bound_to 7997
  155.2378  140.3319  155.4298 H   0  0  0  0  0  0  0  0  0  0  0  0  # atno 8010 bound_to 7997
  139.4876  144.5684  151.7101 H   0  0  0  0  0  0  0  0  0  0  0  0  # atno 10167 bound_to 10162
  157.5673  130.8880  149.9208 H   0  0  0  0  0  0  0  0  0  0  0  0  # atno 10718 bound_to 10713
  153.0595  135.5021  154.8060 H   0  0  0  0  0  0  0  0  0  0  0  0  # atno 10763 bound_to 10752
  154.6860  135.2976  154.9549 H   0  0  0  0  0  0  0  0  0  0  0  0  # atno 10764 bound_to 10752
  154.0319  135.6728  153.4834 H   0  0  0  0  0  0  0  0  0  0  0  0  # atno 10765 bound_to 10752
  141.0731  133.6673  156.3517 H   0  0  0  0  0  0  0  0  0  0  0  0  # atno 11005 bound_to 11000
  144.9714  139.3876  143.6307 LP  0  0  0  0  0  0  0  0  0  0  0  0  # atno 17320 bound_to 7965
  146.3363  139.8813  142.8824 LP  0  0  0  0  0  0  0  0  0  0  0  0  # atno 17321 bound_to 7965
  140.5266  144.0795  150.6040 LP  0  0  0  0  0  0  0  0  0  0  0  0  # atno 17342 bound_to 10162
  140.3771  143.2822  152.0212 LP  0  0  0  0  0  0  0  0  0  0  0  0  # atno 17343 bound_to 10162
  156.0720  130.3684  150.0756 LP  0  0  0  0  0  0  0  0  0  0  0  0  # atno 17370 bound_to 10713
  156.8913  130.9589  151.3588 LP  0  0  0  0  0  0  0  0  0  0  0  0  # atno 17371 bound_to 10713
  140.5630  134.5915  157.5438 LP  0  0  0  0  0  0  0  0  0  0  0  0  # atno 17394 bound_to 11000
  139.9544  134.7560  156.0375 LP  0  0  0  0  0  0  0  0  0  0  0  0  # atno 17395 bound_to 11000

$$$$
