AV-unprocessed.smi:1495|AV-procd|sdf|6054|dock4
  -GOLD-   22720 6173D 1   1.00000     0.00000
 Structure written by MMmdl.
 40 41  0  0  0  0  0  0  0  0  1 V2000
  148.0312  141.4689  154.2640 C   0  0  0  0  0  0  0  0  0  0  0  0
  148.6103  140.2514  153.5335 C   0  0  0  0  0  0  0  0  0  0  0  0
  149.6033  139.4532  154.3924 C   0  0  1  0  0  0  0  0  0  0  0  0
  149.9636  138.1007  153.7486 C   0  0  0  0  0  0  0  0  0  0  0  0
  150.9382  137.4190  154.6120 N   0  0  0  0  0  0  0  0  0  0  0  0
  150.7862  136.2079  155.1996 C   0  0  0  0  0  0  0  0  0  0  0  0
  151.4545  135.8358  156.1647 O   0  0  0  0  0  0  0  0  0  0  0  0
  149.7921  135.4685  154.6823 N   0  0  0  0  0  0  0  0  0  0  0  0
  149.4427  134.1034  155.0616 C   0  0  0  0  0  0  0  0  0  0  0  0
  149.5085  133.1534  153.8523 C   0  0  0  0  0  0  0  0  0  0  0  0
  149.4291  131.7040  154.2386 C   0  0  0  0  0  0  0  0  0  0  0  0
  150.2415  131.0423  155.1258 C   0  0  0  0  0  0  0  0  0  0  0  0
  149.8310  129.3540  155.2481 S   0  0  0  0  0  0  0  0  0  0  0  0
  148.5425  129.6147  154.0784 C   0  0  0  0  0  0  0  0  0  0  0  0
  147.6352  128.5324  153.6031 C   0  0  0  0  0  0  0  0  0  0  0  0
  148.4647  130.8779  153.6530 N   0  0  0  0  0  0  0  0  0  0  0  0
  152.1615  138.2144  154.7325 C   0  0  0  0  0  0  0  0  0  0  0  0
  151.7895  139.5785  155.3417 C   0  0  0  0  0  0  0  0  0  0  0  0
  150.8007  140.2174  154.5369 O   0  0  0  0  0  0  0  0  0  0  0  0
  147.3245  142.0022  153.6281 H   0  0  0  0  0  0  0  0  0  0  0  0
  148.8156  142.1705  154.5493 H   0  0  0  0  0  0  0  0  0  0  0  0
  147.5031  141.1693  155.1695 H   0  0  0  0  0  0  0  0  0  0  0  0
  147.7873  139.6010  153.2349 H   0  0  0  0  0  0  0  0  0  0  0  0
  149.0959  140.5743  152.6120 H   0  0  0  0  0  0  0  0  0  0  0  0
  149.1634  139.2806  155.3766 H   0  0  0  0  0  0  0  0  0  0  0  0
  149.0592  137.5208  153.5633 H   0  0  0  0  0  0  0  0  0  0  0  0
  150.4123  138.2604  152.7668 H   0  0  0  0  0  0  0  0  0  0  0  0
  149.2659  135.8681  153.9186 H   0  0  0  0  0  0  0  0  0  0  0  0
  150.0738  133.7302  155.8694 H   0  0  0  0  0  0  0  0  0  0  0  0
  148.4255  134.1242  155.4535 H   0  0  0  0  0  0  0  0  0  0  0  0
  148.6944  133.3955  153.1680 H   0  0  0  0  0  0  0  0  0  0  0  0
  150.4271  133.3431  153.2960 H   0  0  0  0  0  0  0  0  0  0  0  0
  151.0616  131.4425  155.7036 H   0  0  0  0  0  0  0  0  0  0  0  0
  146.6102  128.8990  153.5394 H   0  0  0  0  0  0  0  0  0  0  0  0
  147.6607  127.6875  154.2915 H   0  0  0  0  0  0  0  0  0  0  0  0
  147.9486  128.1902  152.6165 H   0  0  0  0  0  0  0  0  0  0  0  0
  152.9175  137.7348  155.3557 H   0  0  0  0  0  0  0  0  0  0  0  0
  152.6109  138.3458  153.7473 H   0  0  0  0  0  0  0  0  0  0  0  0
  151.4176  139.4596  156.3607 H   0  0  0  0  0  0  0  0  0  0  0  0
  152.6688  140.2204  155.3955 H   0  0  0  0  0  0  0  0  0  0  0  0
  1  2  1  0  0  0  0
  1 20  1  0  0  0  0
  1 21  1  0  0  0  0
  1 22  1  0  0  0  0
  2  3  1  0  0  0  0
  2 23  1  0  0  0  0
  2 24  1  0  0  0  0
  3 19  1  0  0  0  0
  3  4  1  0  0  0  0
  3 25  1  0  0  0  0
  4  5  1  0  0  0  0
  4 26  1  0  0  0  0
  4 27  1  0  0  0  0
  5  6  1  0  0  0  0
  5 17  1  0  0  0  0
  6  7  2  0  0  0  0
  6  8  1  0  0  0  0
  8  9  1  0  0  0  0
  8 28  1  0  0  0  0
  9 10  1  0  0  0  0
  9 29  1  0  0  0  0
  9 30  1  0  0  0  0
 10 11  1  0  0  0  0
 10 31  1  0  0  0  0
 10 32  1  0  0  0  0
 11 16  1  0  0  0  0
 11 12  2  0  0  0  0
 12 13  1  0  0  0  0
 12 33  1  0  0  0  0
 13 14  1  0  0  0  0
 14 15  1  0  0  0  0
 14 16  2  0  0  0  0
 15 34  1  0  0  0  0
 15 35  1  0  0  0  0
 15 36  1  0  0  0  0
 17 18  1  0  0  0  0
 17 37  1  0  0  0  0
 17 38  1  0  0  0  0
 18 19  1  0  0  0  0
 18 39  1  0  0  0  0
 18 40  1  0  0  0  0
M  END
> <s_m_source_file>
AV-unprocessed.smi

> <i_m_source_file_index>
1495

> <i_lp_mmshare_version>
43012

> <i_f3d_flags>
0

> <s_epik_input>
W0NIM11bQ0gyXVtDQEBIXTFbQ0gyXU4oW0NIMl1bQ0gyXU8xKUMoPU8pW05IXVtDSDJdW0NIMl1jMltjSF1zYyhuMilbQ0gzXQ==

> <s_epik_cmdline>
J2VwaWtfcHl0aG9uJywgJy1waCcsICc3LjAnLCAnLXRuJywgJzgnLCAnLW1hJywgJzIwMCcsICctbWV0YWxfYmluZGluZycsICctaW1hZScsICc8aW5maWxlLm1hZT4nLCAnLW9tYWUnLCAnPG91dGZpbGUubWFlPic=

> <r_epik_Ionization_Penalty>
0.00206013

> <r_epik_Ionization_Penalty_Charging>
0

> <r_epik_Ionization_Penalty_Neutral>
0.00206013

> <r_epik_State_Penalty>
0.00138662

> <r_epik_Charging_Adjusted_Penalty>
0.00138662

> <i_epik_Tot_Q>
0

> <i_epik_Tot_abs_Q>
0

> <r_epik_Metal_State_Penalty>
-0

> <b_epik_Metal_Only>
0

> <s_lp_Force_Field>
OPLS_2005

> <r_lp_Energy>
24.1464

> <b_lp_Chiralities_Consistent>
1

> <s_lp_Variant>
AV-unprocessed.smi:1495-2

> <Gold.Version>
5.8.1

> <Gold.Id.Protein>
6NUR|6NUR_protein|mol2

> <Gold.PLP.Fitness>
44.7459

> <Gold.PLP.PLP>
-37.3657

> <Gold.PLP.part.hbond>
-3.0000

> <Gold.PLP.part.metal>
0.0000

> <Gold.PLP.part.buried>
0.3084

> <Gold.PLP.part.nonpolar>
-35.0888

> <Gold.PLP.part.repulsive>
0.2577

> <Gold.PLP.ligand.clash>
0.0000

> <Gold.PLP.ligand.torsion>
0.2820

> <Gold.PLP.Chemscore.Hbond>
2.6400

> <Gold.PLP.Chemscore.CHOScore>
0.0000

> <Gold.PLP.Chemscore.Metal>
0.0000

> <Gold.Chemscore.Hbonds>
donor molecule, donor type, donor heavy atom, donor atom, acceptor molecule, acceptor atom, score
      L1  H     8    28       P1  7948  0.86
      P1  H  7989  7998       L1    19  0.88
      P1  H 10752 10765       L1     7  0.26

> <Gold.PLP.Chemscore.Internal.Correction>
0.0241

> <Gold.Rescore>
     Score         DG    S(hbond)    S(metal)    S(lipo)     H(rot)  DE(clash)    DE(int)     intcor
     15.98     -17.37       1.72        0.00      83.68       1.42       1.12       0.27       ----

> <Gold.Chemscore.Fitness>
15.9807

> <Gold.Chemscore.DG>
-17.3655

> <Gold.Chemscore.ZeroCoef>
-5.4800

> <Gold.Chemscore.Hbond>
1.7168

> <Gold.Chemscore.Metal>
0.0000

> <Gold.Chemscore.Lipo>
83.6760

> <Gold.Chemscore.Internal_Hbond>
0.0000

> <Gold.Chemscore.DEClash>
1.1168

> <Gold.Chemscore.DEInternal>
0.2680

> <Gold.Chemscore.Rot>
1.4214

> <Gold.Chemscore.Internal.Correction>
   9.000000E+99

> <Gold.Chemscore.Hbonds>
donor molecule, donor type, donor heavy atom, donor atom, acceptor molecule, acceptor atom, score
      L1  H     8    28       P1  7948  0.62
      P1  H  7989  7998       L1    19  0.30

> <Gold.Chemscore.Hbond.Weighted>
-5.7342

> <Gold.Chemscore.Metal.Weighted>
-0.0000

> <Gold.Chemscore.Lipo.Weighted>
-9.7901

> <Gold.Chemscore.Internal_Hbond.Weighted>
0.0000

> <Gold.Chemscore.DEClash.Weighted>
1.1168

> <Gold.Chemscore.DEInternal.Weighted>
0.2680

> <Gold.Chemscore.Rot.Weighted>
3.6388

> <Gold.Chemscore.Internal.Correction.Weighted>
   9.000000E+99

> <Gold.Protein.RotatedTorsions>
[ 6907 6896 6895 6894 ] final  -92.93 input  -60.11 | X-H torsion
[ 7974 7965 7964 7962 ] final -113.08 input  175.53 | X-H torsion
[ 8008 7997 7996 7995 ] final  116.88 input   59.86 | X-H torsion
[ 10167 10162 10161 10158 ] final  -22.73 input  -65.29 | X-H torsion
[ 10718 10713 10712 10709 ] final -123.68 input   66.30 | X-H torsion
[ 10763 10752 10751 10750 ] final -168.91 input  -60.55 | X-H torsion
[ 11005 11000 10999 10996 ] final    2.88 input  -57.11 | X-H torsion

> <Gold.Protein.ActiveResidues>
 VAL166  LYS551  ARG553  GLY616  TRP617  ASP618  TYR619  PRO620  LYS621  CYS622 
 ASP623  PHE694  ASN695  SER759  ASP760  ASP761  ALA762  ILE779  LEU786  VAL792 
 PHE793  MET794  SER795  GLU796  ALA797  LYS798  CYS799  TRP800  GLU811  SER814 

> <Gold.Protein.RotatedAtoms>
  150.6914  134.2045  159.4334 H   0  0  0  0  0  0  0  0  0  0  0  0  # atno 6907 bound_to 6896
  152.0010  134.9926  160.0574 H   0  0  0  0  0  0  0  0  0  0  0  0  # atno 6908 bound_to 6896
  152.1579  133.4528  159.4883 H   0  0  0  0  0  0  0  0  0  0  0  0  # atno 6909 bound_to 6896
  145.1363  140.8753  143.3728 H   0  0  0  0  0  0  0  0  0  0  0  0  # atno 7974 bound_to 7965
  156.2464  140.2908  156.0592 H   0  0  0  0  0  0  0  0  0  0  0  0  # atno 8008 bound_to 7997
  155.1795  140.0404  157.2896 H   0  0  0  0  0  0  0  0  0  0  0  0  # atno 8009 bound_to 7997
  154.6270  140.2490  155.7487 H   0  0  0  0  0  0  0  0  0  0  0  0  # atno 8010 bound_to 7997
  140.7286  143.4508  151.0519 H   0  0  0  0  0  0  0  0  0  0  0  0  # atno 10167 bound_to 10162
  156.1523  130.6543  150.9931 H   0  0  0  0  0  0  0  0  0  0  0  0  # atno 10718 bound_to 10713
  154.6579  135.2920  154.9905 H   0  0  0  0  0  0  0  0  0  0  0  0  # atno 10763 bound_to 10752
  154.0975  135.6581  153.4866 H   0  0  0  0  0  0  0  0  0  0  0  0  # atno 10764 bound_to 10752
  153.0413  135.5234  154.7516 H   0  0  0  0  0  0  0  0  0  0  0  0  # atno 10765 bound_to 10752
  140.5993  133.9851  155.8124 H   0  0  0  0  0  0  0  0  0  0  0  0  # atno 11005 bound_to 11000
  145.0580  139.3128  143.5894 LP  0  0  0  0  0  0  0  0  0  0  0  0  # atno 17320 bound_to 7965
  146.3509  140.0012  142.8676 LP  0  0  0  0  0  0  0  0  0  0  0  0  # atno 17321 bound_to 7965
  139.8184  143.7854  152.3175 LP  0  0  0  0  0  0  0  0  0  0  0  0  # atno 17342 bound_to 10162
  139.7928  144.7404  150.9931 LP  0  0  0  0  0  0  0  0  0  0  0  0  # atno 17343 bound_to 10162
  157.6667  131.0870  150.7712 LP  0  0  0  0  0  0  0  0  0  0  0  0  # atno 17370 bound_to 10713
  156.7780  130.4850  149.5406 LP  0  0  0  0  0  0  0  0  0  0  0  0  # atno 17371 bound_to 10713
  141.0883  133.9957  157.3278 LP  0  0  0  0  0  0  0  0  0  0  0  0  # atno 17394 bound_to 11000
  139.9239  135.0201  156.8165 LP  0  0  0  0  0  0  0  0  0  0  0  0  # atno 17395 bound_to 11000

$$$$
