AV-unprocessed.smi:1794|AV-procd|sdf|7236|dock3
  -GOLD-   22720 8483D 1   1.00000     0.00000
 Structure written by MMmdl.
 55 57  0  0  0  0  0  0  0  0  4 V2000
  156.3207  139.4866  160.2923 C   0  0  0  0  0  0  0  0  0  0  0  0
  154.8892  139.1171  160.7807 C   0  0  0  0  0  0  0  0  0  0  0  0
  154.1021  140.4602  160.9115 C   0  0  0  0  0  0  0  0  0  0  0  0
  154.1435  138.1877  159.7550 C   0  0  0  0  0  0  0  0  0  0  0  0
  153.9369  138.8436  158.4616 N   0  5  0  0  0  0  0  0  0  0  0  0
  152.7355  138.9588  157.8377 C   0  0  0  0  0  0  0  0  0  0  0  0
  151.8609  138.0939  157.7125 O   0  0  0  0  0  0  0  0  0  0  0  0
  152.5634  140.1798  157.3039 N   0  0  0  0  0  0  0  0  0  0  0  0
  151.4712  140.6711  156.5362 C   0  0  0  0  0  0  0  0  0  0  0  0
  150.6978  139.8013  155.7264 C   0  0  0  0  0  0  0  0  0  0  0  0
  149.6319  140.3141  154.9635 C   0  0  0  0  0  0  0  0  0  0  0  0
  149.3510  141.6895  155.0273 C   0  0  0  0  0  0  0  0  0  0  0  0
  150.0908  142.4871  155.8253 N   0  3  0  0  0  0  0  0  0  0  0  0
  151.1201  142.0513  156.5949 C   0  0  0  0  0  0  0  0  0  0  0  0
  151.7956  143.0057  157.3903 N   0  0  0  0  0  0  0  0  0  0  0  0
  151.6504  144.4311  157.1205 C   0  0  0  0  0  0  0  0  0  0  0  0
  152.2351  145.1273  158.3463 C   0  0  0  0  0  0  0  0  0  0  0  0
  151.8501  144.1788  159.4779 C   0  0  0  0  0  0  0  0  0  0  0  0
  151.9195  142.7924  158.8290 C   0  0  0  0  0  0  0  0  0  0  0  0
  154.9497  138.3730  162.1023 N   0  3  0  0  0  0  0  0  0  0  0  0
  155.5469  139.1188  163.2545 C   0  0  0  0  0  0  0  0  0  0  0  0
  155.7754  138.1820  164.4494 C   0  0  0  0  0  0  0  0  0  0  0  0
  154.5319  137.6221  164.8439 O   0  0  0  0  0  0  0  0  0  0  0  0
  153.9622  136.8368  163.8073 C   0  0  0  0  0  0  0  0  0  0  0  0
  153.6985  137.7019  162.5614 C   0  0  0  0  0  0  0  0  0  0  0  0
  156.3002  140.1249  159.4069 H   0  0  0  0  0  0  0  0  0  0  0  0
  156.9330  138.6195  160.0374 H   0  0  0  0  0  0  0  0  0  0  0  0
  156.8576  140.0469  161.0584 H   0  0  0  0  0  0  0  0  0  0  0  0
  154.0278  141.0016  159.9660 H   0  0  0  0  0  0  0  0  0  0  0  0
  154.6034  141.1536  161.5873 H   0  0  0  0  0  0  0  0  0  0  0  0
  153.0832  140.3219  161.2793 H   0  0  0  0  0  0  0  0  0  0  0  0
  154.7142  137.2662  159.6366 H   0  0  0  0  0  0  0  0  0  0  0  0
  153.1938  137.8781  160.1932 H   0  0  0  0  0  0  0  0  0  0  0  0
  153.3663  140.7888  157.3601 H   0  0  0  0  0  0  0  0  0  0  0  0
  150.9066  138.7427  155.6843 H   0  0  0  0  0  0  0  0  0  0  0  0
  149.0409  139.6606  154.3385 H   0  0  0  0  0  0  0  0  0  0  0  0
  148.5572  142.1722  154.4762 H   0  0  0  0  0  0  0  0  0  0  0  0
  152.1695  144.7188  156.2055 H   0  0  0  0  0  0  0  0  0  0  0  0
  150.5963  144.6925  157.0170 H   0  0  0  0  0  0  0  0  0  0  0  0
  153.3214  145.1833  158.2616 H   0  0  0  0  0  0  0  0  0  0  0  0
  151.8520  146.1389  158.4849 H   0  0  0  0  0  0  0  0  0  0  0  0
  152.4976  144.2706  160.3505 H   0  0  0  0  0  0  0  0  0  0  0  0
  150.8269  144.3843  159.7956 H   0  0  0  0  0  0  0  0  0  0  0  0
  151.1402  142.1345  159.2164 H   0  0  0  0  0  0  0  0  0  0  0  0
  152.8875  142.3332  159.0334 H   0  0  0  0  0  0  0  0  0  0  0  0
  156.4987  139.5768  162.9869 H   0  0  0  0  0  0  0  0  0  0  0  0
  154.8827  139.9266  163.5644 H   0  0  0  0  0  0  0  0  0  0  0  0
  156.4900  137.3954  164.2017 H   0  0  0  0  0  0  0  0  0  0  0  0
  156.1915  138.7393  165.2888 H   0  0  0  0  0  0  0  0  0  0  0  0
  154.6224  136.0023  163.5656 H   0  0  0  0  0  0  0  0  0  0  0  0
  153.0280  136.4055  164.1673 H   0  0  0  0  0  0  0  0  0  0  0  0
  152.9364  138.4527  162.7755 H   0  0  0  0  0  0  0  0  0  0  0  0
  153.2970  137.0329  161.8022 H   0  0  0  0  0  0  0  0  0  0  0  0
  155.5868  137.6114  161.9162 H   0  0  0  0  0  0  0  0  0  0  0  0
  149.8560  143.4790  155.8583 H   0  0  0  0  0  0  0  0  0  0  0  0
  1  2  1  0  0  0  0
  1 26  1  0  0  0  0
  1 27  1  0  0  0  0
  1 28  1  0  0  0  0
  2  3  1  0  0  0  0
  2  4  1  0  0  0  0
  2 20  1  0  0  0  0
  3 29  1  0  0  0  0
  3 30  1  0  0  0  0
  3 31  1  0  0  0  0
  4  5  1  0  0  0  0
  4 32  1  0  0  0  0
  4 33  1  0  0  0  0
  5  6  1  0  0  0  0
  6  7  2  0  0  0  0
  6  8  1  0  0  0  0
  8  9  1  0  0  0  0
  8 34  1  0  0  0  0
  9 14  1  0  0  0  0
  9 10  2  0  0  0  0
 10 11  1  0  0  0  0
 10 35  1  0  0  0  0
 11 12  2  0  0  0  0
 11 36  1  0  0  0  0
 12 13  1  0  0  0  0
 12 37  1  0  0  0  0
 13 14  2  0  0  0  0
 13 55  1  0  0  0  0
 14 15  1  0  0  0  0
 15 19  1  0  0  0  0
 15 16  1  0  0  0  0
 16 17  1  0  0  0  0
 16 38  1  0  0  0  0
 16 39  1  0  0  0  0
 17 18  1  0  0  0  0
 17 40  1  0  0  0  0
 17 41  1  0  0  0  0
 18 19  1  0  0  0  0
 18 42  1  0  0  0  0
 18 43  1  0  0  0  0
 19 44  1  0  0  0  0
 19 45  1  0  0  0  0
 20 25  1  0  0  0  0
 20 21  1  0  0  0  0
 20 54  1  0  0  0  0
 21 22  1  0  0  0  0
 21 46  1  0  0  0  0
 21 47  1  0  0  0  0
 22 23  1  0  0  0  0
 22 48  1  0  0  0  0
 22 49  1  0  0  0  0
 23 24  1  0  0  0  0
 24 25  1  0  0  0  0
 24 50  1  0  0  0  0
 24 51  1  0  0  0  0
 25 52  1  0  0  0  0
 25 53  1  0  0  0  0
M  CHG  1   5  -1
M  CHG  1  13   1
M  CHG  1  20   1
M  END
> <s_m_source_file>
AV-unprocessed.smi

> <i_m_source_file_index>
1794

> <i_lp_mmshare_version>
43012

> <i_f3d_flags>
0

> <s_epik_input>
W0NIMl0xW0NIMl1PW0NIMl1bQ0gyXU4xQyhbQ0gzXSkoW0NIM10pW0NIMl1bTkhdQyg9TylbTkhdYzJbY0hdW2NIXVtjSF1uYzJOM1tDSDJdW0NIMl1bQ0gyXVtDSDJdMw==

> <s_epik_cmdline>
J2VwaWtfcHl0aG9uJywgJy1waCcsICc3LjAnLCAnLXRuJywgJzgnLCAnLW1hJywgJzIwMCcsICctbWV0YWxfYmluZGluZycsICctaW1hZScsICc8aW5maWxlLm1hZT4nLCAnLW9tYWUnLCAnPG91dGZpbGUubWFlPic=

> <r_lp_tautomer_probability>
0.999994

> <r_epik_Ionization_Penalty>
8.57565

> <r_epik_Ionization_Penalty_Charging>
8.57565

> <r_epik_Ionization_Penalty_Neutral>
3.55275e-06

> <r_epik_State_Penalty>
8.56988

> <r_epik_Charging_Adjusted_Penalty>
17.1455

> <i_epik_Tot_Q>
1

> <i_epik_Tot_abs_Q>
3

> <r_epik_Metal_State_Penalty>
4.56715

> <b_epik_Metal_Only>
1

> <s_lp_Force_Field>
OPLS_2005

> <r_lp_Energy>
59.2957

> <b_lp_Chiralities_Consistent>
1

> <s_lp_Variant>
AV-unprocessed.smi:1794-5

> <Gold.Version>
5.8.1

> <Gold.Id.Protein>
6NUR|6NUR_protein|mol2

> <Gold.PLP.Fitness>
54.0442

> <Gold.PLP.PLP>
-43.3129

> <Gold.PLP.part.hbond>
-1.9210

> <Gold.PLP.part.metal>
0.0000

> <Gold.PLP.part.buried>
-3.3264

> <Gold.PLP.part.nonpolar>
-39.3154

> <Gold.PLP.part.repulsive>
1.8287

> <Gold.PLP.ligand.clash>
0.0000

> <Gold.PLP.ligand.torsion>
0.9656

> <Gold.PLP.Chemscore.Hbond>
4.0000

> <Gold.PLP.Chemscore.CHOScore>
0.0000

> <Gold.PLP.Chemscore.Metal>
0.0000

> <Gold.Chemscore.Hbonds>
donor molecule, donor type, donor heavy atom, donor atom, acceptor molecule, acceptor atom, score
      L1  H    13    55       P1  8028  2.00
      P1  H  7997  8010       L1     5  2.00

> <Gold.PLP.Chemscore.Internal.Correction>
0.6626

> <Gold.Rescore>
     Score         DG    S(hbond)    S(metal)    S(lipo)     H(rot)  DE(clash)    DE(int)     intcor
     16.97     -20.53       1.53        0.00     120.15       1.60       0.52       3.05       ----

> <Gold.Chemscore.Fitness>
16.9651

> <Gold.Chemscore.DG>
-20.5332

> <Gold.Chemscore.ZeroCoef>
-5.4800

> <Gold.Chemscore.Hbond>
1.5276

> <Gold.Chemscore.Metal>
0.0000

> <Gold.Chemscore.Lipo>
120.1548

> <Gold.Chemscore.Internal_Hbond>
0.0000

> <Gold.Chemscore.DEClash>
0.5153

> <Gold.Chemscore.DEInternal>
3.0527

> <Gold.Chemscore.Rot>
1.6044

> <Gold.Chemscore.Internal.Correction>
   9.000000E+99

> <Gold.Chemscore.Hbonds>
donor molecule, donor type, donor heavy atom, donor atom, acceptor molecule, acceptor atom, score
      L1  H    13    55       P1  8028  0.95
      P1  H  7997  8010       L1     5  0.25

> <Gold.Chemscore.Hbond.Weighted>
-5.1023

> <Gold.Chemscore.Metal.Weighted>
-0.0000

> <Gold.Chemscore.Lipo.Weighted>
-14.0581

> <Gold.Chemscore.Internal_Hbond.Weighted>
0.0000

> <Gold.Chemscore.DEClash.Weighted>
0.5153

> <Gold.Chemscore.DEInternal.Weighted>
3.0527

> <Gold.Chemscore.Rot.Weighted>
4.1072

> <Gold.Chemscore.Internal.Correction.Weighted>
   9.000000E+99

> <Gold.Protein.RotatedTorsions>
[ 6907 6896 6895 6894 ] final -105.04 input  -60.11 | X-H torsion
[ 7974 7965 7964 7962 ] final   -2.34 input  175.53 | X-H torsion
[ 8008 7997 7996 7995 ] final    3.09 input   59.86 | X-H torsion
[ 10167 10162 10161 10158 ] final  100.75 input  -65.29 | X-H torsion
[ 10718 10713 10712 10709 ] final   22.55 input   66.30 | X-H torsion
[ 10763 10752 10751 10750 ] final   72.37 input  -60.55 | X-H torsion
[ 11005 11000 10999 10996 ] final   62.30 input  -57.11 | X-H torsion

> <Gold.Protein.ActiveResidues>
 VAL166  LYS551  ARG553  GLY616  TRP617  ASP618  TYR619  PRO620  LYS621  CYS622 
 ASP623  PHE694  ASN695  SER759  ASP760  ASP761  ALA762  ILE779  LEU786  VAL792 
 PHE793  MET794  SER795  GLU796  ALA797  LYS798  CYS799  TRP800  GLU811  SER814 

> <Gold.Protein.RotatedAtoms>
  150.7317  134.0186  159.3693 H   0  0  0  0  0  0  0  0  0  0  0  0  # atno 6907 bound_to 6896
  151.8149  135.0667  160.0427 H   0  0  0  0  0  0  0  0  0  0  0  0  # atno 6908 bound_to 6896
  152.3045  133.5653  159.5677 H   0  0  0  0  0  0  0  0  0  0  0  0  # atno 6909 bound_to 6896
  146.2406  140.1556  142.8333 H   0  0  0  0  0  0  0  0  0  0  0  0  # atno 7974 bound_to 7965
  154.6995  140.2670  155.6734 H   0  0  0  0  0  0  0  0  0  0  0  0  # atno 8008 bound_to 7997
  156.2760  140.2775  156.1524 H   0  0  0  0  0  0  0  0  0  0  0  0  # atno 8009 bound_to 7997
  155.0785  140.0372  157.2621 H   0  0  0  0  0  0  0  0  0  0  0  0  # atno 8010 bound_to 7997
  139.7499  144.6987  151.0447 H   0  0  0  0  0  0  0  0  0  0  0  0  # atno 10167 bound_to 10162
  157.1539  130.6687  149.6021 H   0  0  0  0  0  0  0  0  0  0  0  0  # atno 10718 bound_to 10713
  153.0455  135.5102  154.7734 H   0  0  0  0  0  0  0  0  0  0  0  0  # atno 10763 bound_to 10752
  154.6637  135.2942  154.9835 H   0  0  0  0  0  0  0  0  0  0  0  0  # atno 10764 bound_to 10752
  154.0677  135.6682  153.4872 H   0  0  0  0  0  0  0  0  0  0  0  0  # atno 10765 bound_to 10752
  140.0102  134.6308  155.9793 H   0  0  0  0  0  0  0  0  0  0  0  0  # atno 11005 bound_to 11000
  145.0132  140.8731  143.5211 LP  0  0  0  0  0  0  0  0  0  0  0  0  # atno 17320 bound_to 7965
  145.1592  139.2468  143.5400 LP  0  0  0  0  0  0  0  0  0  0  0  0  # atno 17321 bound_to 7965
  140.7796  143.4821  151.0004 LP  0  0  0  0  0  0  0  0  0  0  0  0  # atno 17342 bound_to 10162
  139.8509  143.7440  152.3178 LP  0  0  0  0  0  0  0  0  0  0  0  0  # atno 17343 bound_to 10162
  155.9765  130.4735  150.6536 LP  0  0  0  0  0  0  0  0  0  0  0  0  # atno 17370 bound_to 10713
  157.4195  131.0835  151.1144 LP  0  0  0  0  0  0  0  0  0  0  0  0  # atno 17371 bound_to 10713
  141.1705  133.6537  156.4635 LP  0  0  0  0  0  0  0  0  0  0  0  0  # atno 17394 bound_to 11000
  140.4569  134.6877  157.5067 LP  0  0  0  0  0  0  0  0  0  0  0  0  # atno 17395 bound_to 11000

$$$$
