AV-unprocessed.smi:2953|AV-procd|sdf|11296|dock9
  -GOLD-   2272016193D 1   1.00000     0.00000
 Structure written by MMmdl.
 46 48  0  0  0  0  0  0  0  0  2 V2000
  151.5817  144.8995  159.2317 C   0  0  0  0  0  0  0  0  0  0  0  0
  152.1566  143.5229  159.5059 C   0  0  0  0  0  0  0  0  0  0  0  0
  153.1810  143.3873  160.4662 C   0  0  0  0  0  0  0  0  0  0  0  0
  153.7352  142.1246  160.7411 C   0  0  0  0  0  0  0  0  0  0  0  0
  153.2670  140.9919  160.0528 C   0  0  0  0  0  0  0  0  0  0  0  0
  152.2462  141.1212  159.0921 C   0  0  0  0  0  0  0  0  0  0  0  0
  151.6771  142.3893  158.8061 C   0  0  0  0  0  0  0  0  0  0  0  0
  150.6761  142.5825  157.8747 O   0  0  0  0  0  0  0  0  0  0  0  0
  150.1435  141.4412  157.2141 C   0  0  0  0  0  0  0  0  0  0  0  0
  150.9165  141.1894  155.9124 C   0  0  0  0  0  0  0  0  0  0  0  0
  150.2615  140.1962  155.0469 N   0  0  0  0  0  0  0  0  0  0  0  0
  150.6418  138.9355  154.6818 C   0  0  0  0  0  0  0  0  0  0  0  0
  151.8983  138.2139  155.0768 C   0  0  1  0  0  0  0  0  0  0  0  0
  153.1457  139.0055  154.6563 C   0  0  0  0  0  0  0  0  0  0  0  0
  151.9481  137.9688  156.5132 N   0  0  0  0  0  0  0  0  0  0  0  0
  152.0977  136.7623  157.0737 C   0  0  0  0  0  0  0  0  0  0  0  0
  152.2113  135.7287  156.4203 O   0  0  0  0  0  0  0  0  0  0  0  0
  149.6805  138.4575  153.8395 N   0  3  0  0  0  0  0  0  0  0  0  0
  148.6719  139.4069  153.6796 C   0  0  0  0  0  0  0  0  0  0  0  0
  147.4980  139.3731  152.9333 C   0  0  0  0  0  0  0  0  0  0  0  0
  146.6822  140.5224  152.9851 C   0  0  0  0  0  0  0  0  0  0  0  0
  147.0442  141.6452  153.7574 C   0  0  0  0  0  0  0  0  0  0  0  0
  148.2367  141.6666  154.5104 C   0  0  0  0  0  0  0  0  0  0  0  0
  149.0382  140.5266  154.4525 C   0  0  0  0  0  0  0  0  0  0  0  0
  151.7602  145.5733  160.0702 H   0  0  0  0  0  0  0  0  0  0  0  0
  150.5048  144.8533  159.0676 H   0  0  0  0  0  0  0  0  0  0  0  0
  152.0525  145.3270  158.3471 H   0  0  0  0  0  0  0  0  0  0  0  0
  153.5471  144.2539  160.9971 H   0  0  0  0  0  0  0  0  0  0  0  0
  154.5187  142.0257  161.4780 H   0  0  0  0  0  0  0  0  0  0  0  0
  153.6920  140.0211  160.2610 H   0  0  0  0  0  0  0  0  0  0  0  0
  151.9202  140.2261  158.5848 H   0  0  0  0  0  0  0  0  0  0  0  0
  150.2109  140.5655  157.8615 H   0  0  0  0  0  0  0  0  0  0  0  0
  149.0913  141.6024  156.9751 H   0  0  0  0  0  0  0  0  0  0  0  0
  151.0389  142.1152  155.3493 H   0  0  0  0  0  0  0  0  0  0  0  0
  151.9221  140.8384  156.1391 H   0  0  0  0  0  0  0  0  0  0  0  0
  151.9287  137.2548  154.5578 H   0  0  0  0  0  0  0  0  0  0  0  0
  153.1350  139.2137  153.5871 H   0  0  0  0  0  0  0  0  0  0  0  0
  154.0567  138.4471  154.8745 H   0  0  0  0  0  0  0  0  0  0  0  0
  153.2120  139.9616  155.1772 H   0  0  0  0  0  0  0  0  0  0  0  0
  151.8650  138.7695  157.1229 H   0  0  0  0  0  0  0  0  0  0  0  0
  152.1075  136.8157  158.1728 H   0  0  0  0  0  0  0  0  0  0  0  0
  147.2190  138.5141  152.3406 H   0  0  0  0  0  0  0  0  0  0  0  0
  145.7608  140.5436  152.4208 H   0  0  0  0  0  0  0  0  0  0  0  0
  146.3945  142.5086  153.7720 H   0  0  0  0  0  0  0  0  0  0  0  0
  148.5043  142.5314  155.0993 H   0  0  0  0  0  0  0  0  0  0  0  0
  149.7161  137.5436  153.4069 H   0  0  0  0  0  0  0  0  0  0  0  0
  1  2  1  0  0  0  0
  1 25  1  0  0  0  0
  1 26  1  0  0  0  0
  1 27  1  0  0  0  0
  2  7  1  0  0  0  0
  2  3  2  0  0  0  0
  3  4  1  0  0  0  0
  3 28  1  0  0  0  0
  4  5  2  0  0  0  0
  4 29  1  0  0  0  0
  5  6  1  0  0  0  0
  5 30  1  0  0  0  0
  6  7  2  0  0  0  0
  6 31  1  0  0  0  0
  7  8  1  0  0  0  0
  8  9  1  0  0  0  0
  9 10  1  0  0  0  0
  9 32  1  0  0  0  0
  9 33  1  0  0  0  0
 10 11  1  0  0  0  0
 10 34  1  0  0  0  0
 10 35  1  0  0  0  0
 11 24  1  0  0  0  0
 11 12  1  0  0  0  0
 12 13  1  0  0  0  0
 12 18  2  0  0  0  0
 13 14  1  0  0  0  0
 13 15  1  0  0  0  0
 13 36  1  0  0  0  0
 14 37  1  0  0  0  0
 14 38  1  0  0  0  0
 14 39  1  0  0  0  0
 15 16  1  0  0  0  0
 15 40  1  0  0  0  0
 16 17  2  0  0  0  0
 16 41  1  0  0  0  0
 18 19  1  0  0  0  0
 18 46  1  0  0  0  0
 19 24  2  0  0  0  0
 19 20  1  0  0  0  0
 20 21  2  0  0  0  0
 20 42  1  0  0  0  0
 21 22  1  0  0  0  0
 21 43  1  0  0  0  0
 22 23  2  0  0  0  0
 22 44  1  0  0  0  0
 23 24  1  0  0  0  0
 23 45  1  0  0  0  0
M  CHG  1  18   1
M  END
> <s_m_source_file>
AV-unprocessed.smi

> <i_m_source_file_index>
2953

> <i_lp_mmshare_version>
43012

> <i_f3d_flags>
0

> <s_epik_input>
W0NIM11jMVtjSF1bY0hdW2NIXVtjSF1jMU9bQ0gyXVtDSDJdbihjKG4yKVtDQEhdKFtDSDNdKVtOSF1bQ0hdPU8pYyhjMjMpW2NIXVtjSF1bY0hdW2NIXTM=

> <s_epik_cmdline>
J2VwaWtfcHl0aG9uJywgJy1waCcsICc3LjAnLCAnLXRuJywgJzgnLCAnLW1hJywgJzIwMCcsICctbWV0YWxfYmluZGluZycsICctaW1hZScsICc8aW5maWxlLm1hZT4nLCAnLW9tYWUnLCAnPG91dGZpbGUubWFlPic=

> <r_lp_tautomer_probability>
1

> <r_epik_Ionization_Penalty>
1.14644

> <r_epik_Ionization_Penalty_Charging>
1.14644

> <r_epik_Ionization_Penalty_Neutral>
5.5802e-08

> <r_epik_State_Penalty>
1.20743

> <r_epik_Charging_Adjusted_Penalty>
2.35387

> <i_epik_Tot_Q>
1

> <i_epik_Tot_abs_Q>
1

> <r_epik_Metal_State_Penalty>
1.28856

> <b_epik_Metal_Only>
0

> <s_lp_Force_Field>
OPLS_2005

> <r_lp_Energy>
17.243

> <b_lp_Chiralities_Consistent>
1

> <s_lp_Variant>
AV-unprocessed.smi:2953-4

> <Gold.Version>
5.8.1

> <Gold.Id.Protein>
6NUR|6NUR_protein|mol2

> <Gold.PLP.Fitness>
60.8333

> <Gold.PLP.PLP>
-52.4626

> <Gold.PLP.part.hbond>
-2.8045

> <Gold.PLP.part.metal>
0.0000

> <Gold.PLP.part.buried>
0.5717

> <Gold.PLP.part.nonpolar>
-50.7540

> <Gold.PLP.part.repulsive>
0.2392

> <Gold.PLP.ligand.clash>
0.0000

> <Gold.PLP.ligand.torsion>
0.3507

> <Gold.PLP.Chemscore.Hbond>
3.0000

> <Gold.PLP.Chemscore.CHOScore>
0.0000

> <Gold.PLP.Chemscore.Metal>
0.0000

> <Gold.Chemscore.Hbonds>
donor molecule, donor type, donor heavy atom, donor atom, acceptor molecule, acceptor atom, score
      L1  H    18    46       P1  7948  1.44
      P1  H 10752 10764       L1    17  1.00

> <Gold.PLP.Chemscore.Internal.Correction>
0.0720

> <Gold.Rescore>
     Score         DG    S(hbond)    S(metal)    S(lipo)     H(rot)  DE(clash)    DE(int)     intcor
     20.35     -23.03       1.87        0.00     147.29       2.32       1.99       0.69       ----

> <Gold.Chemscore.Fitness>
20.3521

> <Gold.Chemscore.DG>
-23.0288

> <Gold.Chemscore.ZeroCoef>
-5.4800

> <Gold.Chemscore.Hbond>
1.8745

> <Gold.Chemscore.Metal>
0.0000

> <Gold.Chemscore.Lipo>
147.2909

> <Gold.Chemscore.Internal_Hbond>
0.0000

> <Gold.Chemscore.DEClash>
1.9851

> <Gold.Chemscore.DEInternal>
0.6915

> <Gold.Chemscore.Rot>
2.3223

> <Gold.Chemscore.Internal.Correction>
   9.000000E+99

> <Gold.Chemscore.Hbonds>
donor molecule, donor type, donor heavy atom, donor atom, acceptor molecule, acceptor atom, score
      L1  H    18    46       P1  7948  0.51
      P1  H 10752 10764       L1    17  1.00

> <Gold.Chemscore.Hbond.Weighted>
-6.2607

> <Gold.Chemscore.Metal.Weighted>
-0.0000

> <Gold.Chemscore.Lipo.Weighted>
-17.2330

> <Gold.Chemscore.Internal_Hbond.Weighted>
0.0000

> <Gold.Chemscore.DEClash.Weighted>
1.9851

> <Gold.Chemscore.DEInternal.Weighted>
0.6915

> <Gold.Chemscore.Rot.Weighted>
5.9450

> <Gold.Chemscore.Internal.Correction.Weighted>
   9.000000E+99

> <Gold.Protein.RotatedTorsions>
[ 6907 6896 6895 6894 ] final  -80.85 input  -60.11 | X-H torsion
[ 7974 7965 7964 7962 ] final  171.86 input  175.53 | X-H torsion
[ 8008 7997 7996 7995 ] final   80.00 input   59.86 | X-H torsion
[ 10167 10162 10161 10158 ] final  167.76 input  -65.29 | X-H torsion
[ 10718 10713 10712 10709 ] final   27.47 input   66.30 | X-H torsion
[ 10763 10752 10751 10750 ] final  -24.24 input  -60.55 | X-H torsion
[ 11005 11000 10999 10996 ] final   77.61 input  -57.11 | X-H torsion

> <Gold.Protein.ActiveResidues>
 VAL166  LYS551  ARG553  GLY616  TRP617  ASP618  TYR619  PRO620  LYS621  CYS622 
 ASP623  PHE694  ASN695  SER759  ASP760  ASP761  ALA762  ILE779  LEU786  VAL792 
 PHE793  MET794  SER795  GLU796  ALA797  LYS798  CYS799  TRP800  GLU811  SER814 

> <Gold.Protein.RotatedAtoms>
  150.6922  134.3907  159.5074 H   0  0  0  0  0  0  0  0  0  0  0  0  # atno 6907 bound_to 6896
  152.1696  134.8843  160.0544 H   0  0  0  0  0  0  0  0  0  0  0  0  # atno 6908 bound_to 6896
  151.9874  133.3744  159.4168 H   0  0  0  0  0  0  0  0  0  0  0  0  # atno 6909 bound_to 6896
  144.7283  139.9413  143.6428 H   0  0  0  0  0  0  0  0  0  0  0  0  # atno 7974 bound_to 7965
  155.8775  140.3446  155.5864 H   0  0  0  0  0  0  0  0  0  0  0  0  # atno 8008 bound_to 7997
  155.7758  140.0851  157.2104 H   0  0  0  0  0  0  0  0  0  0  0  0  # atno 8009 bound_to 7997
  154.4022  140.1510  156.2982 H   0  0  0  0  0  0  0  0  0  0  0  0  # atno 8010 bound_to 7997
  139.4952  144.3887  151.9541 H   0  0  0  0  0  0  0  0  0  0  0  0  # atno 10167 bound_to 10162
  157.2206  130.6977  149.6268 H   0  0  0  0  0  0  0  0  0  0  0  0  # atno 10718 bound_to 10713
  153.6806  135.6967  153.5119 H   0  0  0  0  0  0  0  0  0  0  0  0  # atno 10763 bound_to 10752
  153.2488  135.4282  155.0775 H   0  0  0  0  0  0  0  0  0  0  0  0  # atno 10764 bound_to 10752
  154.8401  135.3526  154.6349 H   0  0  0  0  0  0  0  0  0  0  0  0  # atno 10765 bound_to 10752
  139.9247  134.7697  156.1544 H   0  0  0  0  0  0  0  0  0  0  0  0  # atno 11005 bound_to 11000
  146.0783  139.3770  143.0480 LP  0  0  0  0  0  0  0  0  0  0  0  0  # atno 17320 bound_to 7965
  145.7876  140.9829  143.1066 LP  0  0  0  0  0  0  0  0  0  0  0  0  # atno 17321 bound_to 7965
  140.3325  144.3300  150.5984 LP  0  0  0  0  0  0  0  0  0  0  0  0  # atno 17342 bound_to 10162
  140.5633  143.2189  151.7727 LP  0  0  0  0  0  0  0  0  0  0  0  0  # atno 17343 bound_to 10162
  155.9682  130.4521  150.5761 LP  0  0  0  0  0  0  0  0  0  0  0  0  # atno 17370 bound_to 10713
  157.3580  131.0745  151.1660 LP  0  0  0  0  0  0  0  0  0  0  0  0  # atno 17371 bound_to 10713
  141.0796  133.6760  156.2308 LP  0  0  0  0  0  0  0  0  0  0  0  0  # atno 17394 bound_to 11000
  140.6371  134.5205  157.5566 LP  0  0  0  0  0  0  0  0  0  0  0  0  # atno 17395 bound_to 11000

$$$$
