AV-unprocessed.smi:145|AV-procd|sdf|1197|dock3
  -GOLD-   2262018353D 1   1.00000     0.00000
 Structure written by MMmdl.
 40 42  0  0  0  0  0  0  0  0  1 V2000
  151.3586  140.2077  155.5473 O   0  0  0  0  0  0  0  0  0  0  0  0
  151.1087  139.5249  156.5415 C   0  0  0  0  0  0  0  0  0  0  0  0
  150.6296  138.0720  156.3916 C   0  0  0  0  0  0  0  0  0  0  0  0
  149.4105  137.7634  157.1718 N   0  0  0  0  0  0  0  0  0  0  0  0
  148.1460  138.0357  156.5929 C   0  0  0  0  0  0  0  0  0  0  0  0
  148.0512  138.5373  155.4718 O   0  0  0  0  0  0  0  0  0  0  0  0
  146.9904  137.6722  157.4050 C   0  0  0  0  0  0  0  0  0  0  0  0
  145.7505  137.8796  156.9302 F   0  0  0  0  0  0  0  0  0  0  0  0
  147.1461  137.1246  158.6278 C   0  0  0  0  0  0  0  0  0  0  0  0
  148.3842  136.8843  159.1902 N   0  0  0  0  0  0  0  0  0  0  0  0
  148.4627  136.2207  160.5456 C   0  0  2  0  0  0  0  0  0  0  0  0
  147.7838  134.8388  160.5970 C   0  0  0  0  0  0  0  0  0  0  0  0
  146.7433  135.0117  161.6913 C   0  0  0  0  0  0  0  0  0  0  0  0
  147.2757  136.2021  162.4818 C   0  0  0  0  0  0  0  0  0  0  0  0
  147.8288  137.0398  161.4791 O   0  0  0  0  0  0  0  0  0  0  0  0
  149.5544  137.1732  158.4506 C   0  0  0  0  0  0  0  0  0  0  0  0
  150.6712  136.9122  158.9010 O   0  0  0  0  0  0  0  0  0  0  0  0
  151.1966  139.9660  157.8095 N   0  0  0  0  0  0  0  0  0  0  0  0
  151.6077  141.2431  158.2788 C   0  0  0  0  0  0  0  0  0  0  0  0
  151.5818  142.4144  157.4828 C   0  0  0  0  0  0  0  0  0  0  0  0
  152.0244  143.6419  158.0135 C   0  0  0  0  0  0  0  0  0  0  0  0
  152.5038  143.7096  159.3350 C   0  0  0  0  0  0  0  0  0  0  0  0
  152.5478  142.5460  160.1255 C   0  0  0  0  0  0  0  0  0  0  0  0
  153.2706  142.6392  162.0853 I   0  0  0  0  0  0  0  0  0  0  0  0
  152.1063  141.3176  159.5964 C   0  0  0  0  0  0  0  0  0  0  0  0
  150.4728  137.8657  155.3316 H   0  0  0  0  0  0  0  0  0  0  0  0
  151.4502  137.4087  156.6694 H   0  0  0  0  0  0  0  0  0  0  0  0
  146.2573  136.8680  159.1858 H   0  0  0  0  0  0  0  0  0  0  0  0
  149.5243  136.1563  160.7885 H   0  0  0  0  0  0  0  0  0  0  0  0
  147.3512  134.5474  159.6396 H   0  0  0  0  0  0  0  0  0  0  0  0
  148.5306  134.0957  160.8786 H   0  0  0  0  0  0  0  0  0  0  0  0
  145.7757  135.2591  161.2541 H   0  0  0  0  0  0  0  0  0  0  0  0
  146.6173  134.1185  162.3035 H   0  0  0  0  0  0  0  0  0  0  0  0
  146.4985  136.7137  163.0497 H   0  0  0  0  0  0  0  0  0  0  0  0
  148.0614  135.8912  163.1726 H   0  0  0  0  0  0  0  0  0  0  0  0
  150.8683  139.3290  158.5205 H   0  0  0  0  0  0  0  0  0  0  0  0
  151.2406  142.3931  156.4594 H   0  0  0  0  0  0  0  0  0  0  0  0
  152.0006  144.5320  157.4023 H   0  0  0  0  0  0  0  0  0  0  0  0
  152.8431  144.6523  159.7384 H   0  0  0  0  0  0  0  0  0  0  0  0
  152.1466  140.4301  160.2110 H   0  0  0  0  0  0  0  0  0  0  0  0
  1  2  2  0  0  0  0
  2  3  1  0  0  0  0
  2 18  1  0  0  0  0
  3  4  1  0  0  0  0
  3 26  1  0  0  0  0
  3 27  1  0  0  0  0
  4 16  1  0  0  0  0
  4  5  1  0  0  0  0
  5  6  2  0  0  0  0
  5  7  1  0  0  0  0
  7  8  1  0  0  0  0
  7  9  2  0  0  0  0
  9 10  1  0  0  0  0
  9 28  1  0  0  0  0
 10 11  1  0  0  0  0
 10 16  1  0  0  0  0
 11 15  1  0  0  0  0
 11 12  1  0  0  0  0
 11 29  1  0  0  0  0
 12 13  1  0  0  0  0
 12 30  1  0  0  0  0
 12 31  1  0  0  0  0
 13 14  1  0  0  0  0
 13 32  1  0  0  0  0
 13 33  1  0  0  0  0
 14 15  1  0  0  0  0
 14 34  1  0  0  0  0
 14 35  1  0  0  0  0
 16 17  2  0  0  0  0
 18 19  1  0  0  0  0
 18 36  1  0  0  0  0
 19 25  1  0  0  0  0
 19 20  2  0  0  0  0
 20 21  1  0  0  0  0
 20 37  1  0  0  0  0
 21 22  2  0  0  0  0
 21 38  1  0  0  0  0
 22 23  1  0  0  0  0
 22 39  1  0  0  0  0
 23 24  1  0  0  0  0
 23 25  2  0  0  0  0
 25 40  1  0  0  0  0
M  END
> <s_m_source_file>
AV-unprocessed.smi

> <i_m_source_file_index>
145

> <i_lp_mmshare_version>
43012

> <i_f3d_flags>
0

> <s_epik_input>
SWMoW2NIXTEpW2NIXVtjSF1bY0hdYzFbTkhdQyg9TylbQ0gyXW4yYyg9TyljKEYpW2NIXW4oYzI9TylbQ0BASF0zW0NIMl1bQ0gyXVtDSDJdTzM=

> <s_epik_cmdline>
J2VwaWtfcHl0aG9uJywgJy1waCcsICc3LjAnLCAnLXRuJywgJzgnLCAnLW1hJywgJzIwMCcsICctbWV0YWxfYmluZGluZycsICctaW1hZScsICc8aW5maWxlLm1hZT4nLCAnLW9tYWUnLCAnPG91dGZpbGUubWFlPic=

> <r_lp_tautomer_probability>
1

> <r_epik_Ionization_Penalty>
9.72367e-07

> <r_epik_Ionization_Penalty_Charging>
3.88729e-08

> <r_epik_Ionization_Penalty_Neutral>
9.33494e-07

> <r_epik_State_Penalty>
-0

> <r_epik_Charging_Adjusted_Penalty>
3.88729e-08

> <i_epik_Tot_Q>
0

> <i_epik_Tot_abs_Q>
0

> <r_epik_Metal_State_Penalty>
-0

> <b_epik_Metal_Only>
0

> <s_epik_Chemistry_Notes>
This compound contains an acetal/aminal-like group ( X-CH(R)-Y where X, Y are N, S, or O) that may be acid/base labile, releasing an aldehyde.

> <s_lp_Force_Field>
OPLS_2005

> <r_lp_Energy>
28.2642

> <b_lp_Chiralities_Consistent>
1

> <s_lp_Variant>
AV-unprocessed.smi:145-1

> <Gold.Version>
5.8.1

> <Gold.Id.Protein>
6NUR|6NUR_protein|mol2

> <Gold.PLP.Fitness>
51.3861

> <Gold.PLP.PLP>
-42.5413

> <Gold.PLP.part.hbond>
-3.5431

> <Gold.PLP.part.metal>
0.0000

> <Gold.PLP.part.buried>
-6.5932

> <Gold.PLP.part.nonpolar>
-32.2183

> <Gold.PLP.part.repulsive>
0.1361

> <Gold.PLP.ligand.clash>
0.0000

> <Gold.PLP.ligand.torsion>
0.5743

> <Gold.PLP.Chemscore.Hbond>
3.3213

> <Gold.PLP.Chemscore.CHOScore>
0.0000

> <Gold.PLP.Chemscore.Metal>
0.0000

> <Gold.Chemscore.Hbonds>
donor molecule, donor type, donor heavy atom, donor atom, acceptor molecule, acceptor atom, score
      P1  H  6896  6907       L1    17  0.81
      P1  H  6931  6943       L1    15  1.00
      P1  H  6934  6947       L1    15  0.53
      P1  H  7989  7998       L1     1  0.65

> <Gold.PLP.Chemscore.Internal.Correction>
0.0296

> <Gold.Rescore>
     Score         DG    S(hbond)    S(metal)    S(lipo)     H(rot)  DE(clash)    DE(int)     intcor
     20.47     -22.44       2.84        0.00     100.24       1.66       0.27       1.71       ----

> <Gold.Chemscore.Fitness>
20.4668

> <Gold.Chemscore.DG>
-22.4448

> <Gold.Chemscore.ZeroCoef>
-5.4800

> <Gold.Chemscore.Hbond>
2.8418

> <Gold.Chemscore.Metal>
0.0000

> <Gold.Chemscore.Lipo>
100.2408

> <Gold.Chemscore.Internal_Hbond>
0.0000

> <Gold.Chemscore.DEClash>
0.2713

> <Gold.Chemscore.DEInternal>
1.7066

> <Gold.Chemscore.Rot>
1.6621

> <Gold.Chemscore.Internal.Correction>
   9.000000E+99

> <Gold.Chemscore.Hbonds>
donor molecule, donor type, donor heavy atom, donor atom, acceptor molecule, acceptor atom, score
      P1  H  6896  6907       L1    17  0.79
      P1  H  6931  6943       L1    15  0.48
      P1  H  6934  6947       L1    15  0.53
      P1  H  7989  7998       L1     1  0.62

> <Gold.Chemscore.Hbond.Weighted>
-9.4915

> <Gold.Chemscore.Metal.Weighted>
-0.0000

> <Gold.Chemscore.Lipo.Weighted>
-11.7282

> <Gold.Chemscore.Internal_Hbond.Weighted>
0.0000

> <Gold.Chemscore.DEClash.Weighted>
0.2713

> <Gold.Chemscore.DEInternal.Weighted>
1.7066

> <Gold.Chemscore.Rot.Weighted>
4.2550

> <Gold.Chemscore.Internal.Correction.Weighted>
   9.000000E+99

> <Gold.Protein.RotatedTorsions>
[ 6907 6896 6895 6894 ] final  -25.14 input  -60.11 | X-H torsion
[ 7974 7965 7964 7962 ] final  -12.10 input  175.53 | X-H torsion
[ 8008 7997 7996 7995 ] final -148.05 input   59.86 | X-H torsion
[ 10167 10162 10161 10158 ] final  -11.96 input  -65.29 | X-H torsion
[ 10718 10713 10712 10709 ] final  -55.76 input   66.30 | X-H torsion
[ 10763 10752 10751 10750 ] final  -37.51 input  -60.55 | X-H torsion
[ 11005 11000 10999 10996 ] final   51.16 input  -57.11 | X-H torsion

> <Gold.Protein.ActiveResidues>
 VAL166  LYS551  ARG553  GLY616  TRP617  ASP618  TYR619  PRO620  LYS621  CYS622 
 ASP623  PHE694  ASN695  SER759  ASP760  ASP761  ALA762  ILE779  LEU786  VAL792 
 PHE793  MET794  SER795  GLU796  ALA797  LYS798  CYS799  TRP800  GLU811  SER814 

> <Gold.Protein.RotatedAtoms>
  151.1794  135.0354  159.8785 H   0  0  0  0  0  0  0  0  0  0  0  0  # atno 6907 bound_to 6896
  152.5445  134.1080  159.8356 H   0  0  0  0  0  0  0  0  0  0  0  0  # atno 6908 bound_to 6896
  151.1195  133.5067  159.2635 H   0  0  0  0  0  0  0  0  0  0  0  0  # atno 6909 bound_to 6896
  146.2164  140.3007  142.8375 H   0  0  0  0  0  0  0  0  0  0  0  0  # atno 7974 bound_to 7965
  155.5854  140.0647  157.2772 H   0  0  0  0  0  0  0  0  0  0  0  0  # atno 8008 bound_to 7997
  154.4320  140.1845  156.1066 H   0  0  0  0  0  0  0  0  0  0  0  0  # atno 8009 bound_to 7997
  156.0273  140.3310  155.7106 H   0  0  0  0  0  0  0  0  0  0  0  0  # atno 8010 bound_to 7997
  140.7150  143.5583  150.9224 H   0  0  0  0  0  0  0  0  0  0  0  0  # atno 10167 bound_to 10162
  156.1342  130.4157  150.0214 H   0  0  0  0  0  0  0  0  0  0  0  0  # atno 10718 bound_to 10713
  153.8974  135.6806  153.4757 H   0  0  0  0  0  0  0  0  0  0  0  0  # atno 10763 bound_to 10752
  153.1148  135.4766  154.9094 H   0  0  0  0  0  0  0  0  0  0  0  0  # atno 10764 bound_to 10752
  154.7592  135.3206  154.8365 H   0  0  0  0  0  0  0  0  0  0  0  0  # atno 10765 bound_to 10752
  140.0956  134.5150  155.8810 H   0  0  0  0  0  0  0  0  0  0  0  0  # atno 11005 bound_to 11000
  144.9059  140.7699  143.5838 LP  0  0  0  0  0  0  0  0  0  0  0  0  # atno 17320 bound_to 7965
  145.2936  139.1875  143.4727 LP  0  0  0  0  0  0  0  0  0  0  0  0  # atno 17321 bound_to 7965
  139.9308  143.6495  152.3076 LP  0  0  0  0  0  0  0  0  0  0  0  0  # atno 17342 bound_to 10162
  139.6945  144.7643  151.1380 LP  0  0  0  0  0  0  0  0  0  0  0  0  # atno 17343 bound_to 10162
  156.8118  130.9327  151.3644 LP  0  0  0  0  0  0  0  0  0  0  0  0  # atno 17370 bound_to 10713
  157.6517  130.8890  149.9646 LP  0  0  0  0  0  0  0  0  0  0  0  0  # atno 17371 bound_to 10713
  141.2091  133.6680  156.6415 LP  0  0  0  0  0  0  0  0  0  0  0  0  # atno 17394 bound_to 11000
  140.3291  134.7943  157.4312 LP  0  0  0  0  0  0  0  0  0  0  0  0  # atno 17395 bound_to 11000

$$$$
