AV-unprocessed.smi:136|AV-procd|sdf|1172|dock9
  -GOLD-   2262018323D 1   1.00000     0.00000
 Structure written by MMmdl.
 54 58  0  0  0  0  0  0  0  0  1 V2000
  149.9367  127.7927  154.3417 O   0  0  0  0  0  0  0  0  0  0  0  0
  149.6731  128.9401  153.9768 C   0  0  0  0  0  0  0  0  0  0  0  0
  150.6467  130.0933  154.3024 C   0  0  0  0  0  0  0  0  0  0  0  0
  150.4477  130.6726  155.6487 N   0  0  0  0  0  0  0  0  0  0  0  0
  150.6578  129.8482  156.7817 C   0  0  0  0  0  0  0  0  0  0  0  0
  151.0048  128.6726  156.6609 O   0  0  0  0  0  0  0  0  0  0  0  0
  150.4307  130.4849  158.0740 C   0  0  0  0  0  0  0  0  0  0  0  0
  150.6263  129.7845  159.2042 F   0  0  0  0  0  0  0  0  0  0  0  0
  150.0294  131.7702  158.1553 C   0  0  0  0  0  0  0  0  0  0  0  0
  149.8046  132.5572  157.0394 N   0  0  0  0  0  0  0  0  0  0  0  0
  149.3539  133.9999  157.1469 C   0  0  1  0  0  0  0  0  0  0  0  0
  147.9670  134.1883  156.5000 C   0  0  0  0  0  0  0  0  0  0  0  0
  147.1652  134.8505  157.6034 C   0  0  0  0  0  0  0  0  0  0  0  0
  147.8507  134.3225  158.8542 C   0  0  0  0  0  0  0  0  0  0  0  0
  149.2248  134.3597  158.4931 O   0  0  0  0  0  0  0  0  0  0  0  0
  150.0229  132.0185  155.7526 C   0  0  0  0  0  0  0  0  0  0  0  0
  149.8390  132.7063  154.7457 O   0  0  0  0  0  0  0  0  0  0  0  0
  148.5415  129.2313  153.2973 N   0  0  0  0  0  0  0  0  0  0  0  0
  148.1738  130.4968  152.9748 N   0  0  0  0  0  0  0  0  0  0  0  0
  147.0039  130.4883  152.4524 C   0  0  0  0  0  0  0  0  0  0  0  0
  146.2895  131.6946  151.9797 C   0  0  0  0  0  0  0  0  0  0  0  0
  144.9565  131.5781  151.5242 C   0  0  0  0  0  0  0  0  0  0  0  0
  144.2757  132.7257  151.0732 C   0  0  0  0  0  0  0  0  0  0  0  0
  144.9207  133.9789  151.0764 C   0  0  0  0  0  0  0  0  0  0  0  0
  144.0814  135.3807  150.5218 Cl  0  0  0  0  0  0  0  0  0  0  0  0
  146.2501  134.0891  151.5312 C   0  0  0  0  0  0  0  0  0  0  0  0
  146.9414  132.9483  151.9842 C   0  0  0  0  0  0  0  0  0  0  0  0
  146.4015  129.1277  152.3471 C   0  0  0  0  0  0  0  0  0  0  0  0
  147.5213  128.2486  152.9103 C   0  0  1  0  0  0  0  0  0  0  0  0
  148.0205  127.2337  151.9244 C   0  0  0  0  0  0  0  0  0  0  0  0
  148.5449  127.3287  150.6650 C   0  0  0  0  0  0  0  0  0  0  0  0
  148.8448  126.0008  150.2533 C   0  0  0  0  0  0  0  0  0  0  0  0
  148.4868  125.1935  151.2951 C   0  0  0  0  0  0  0  0  0  0  0  0
  147.9867  125.9296  152.3239 O   0  0  0  0  0  0  0  0  0  0  0  0
  151.6687  129.7290  154.1856 H   0  0  0  0  0  0  0  0  0  0  0  0
  150.5506  130.8647  153.5365 H   0  0  0  0  0  0  0  0  0  0  0  0
  149.8845  132.1808  159.1427 H   0  0  0  0  0  0  0  0  0  0  0  0
  150.1480  134.5887  156.6846 H   0  0  0  0  0  0  0  0  0  0  0  0
  148.0368  134.7970  155.5981 H   0  0  0  0  0  0  0  0  0  0  0  0
  147.5332  133.2208  156.2419 H   0  0  0  0  0  0  0  0  0  0  0  0
  147.2735  135.9344  157.5482 H   0  0  0  0  0  0  0  0  0  0  0  0
  146.1026  134.6091  157.5639 H   0  0  0  0  0  0  0  0  0  0  0  0
  147.6501  134.9310  159.7358 H   0  0  0  0  0  0  0  0  0  0  0  0
  147.5423  133.2974  159.0635 H   0  0  0  0  0  0  0  0  0  0  0  0
  144.4442  130.6268  151.5152 H   0  0  0  0  0  0  0  0  0  0  0  0
  143.2568  132.6427  150.7247 H   0  0  0  0  0  0  0  0  0  0  0  0
  146.7423  135.0507  151.5326 H   0  0  0  0  0  0  0  0  0  0  0  0
  147.9598  133.0588  152.3258 H   0  0  0  0  0  0  0  0  0  0  0  0
  145.4930  129.0500  152.9455 H   0  0  0  0  0  0  0  0  0  0  0  0
  146.1619  128.8824  151.3113 H   0  0  0  0  0  0  0  0  0  0  0  0
  147.1668  127.7396  153.8083 H   0  0  0  0  0  0  0  0  0  0  0  0
  148.6917  128.2421  150.1079 H   0  0  0  0  0  0  0  0  0  0  0  0
  149.2699  125.6768  149.3148 H   0  0  0  0  0  0  0  0  0  0  0  0
  148.5195  124.1274  151.4645 H   0  0  0  0  0  0  0  0  0  0  0  0
  1  2  2  0  0  0  0
  2  3  1  0  0  0  0
  2 18  1  0  0  0  0
  3  4  1  0  0  0  0
  3 35  1  0  0  0  0
  3 36  1  0  0  0  0
  4 16  1  0  0  0  0
  4  5  1  0  0  0  0
  5  6  2  0  0  0  0
  5  7  1  0  0  0  0
  7  8  1  0  0  0  0
  7  9  2  0  0  0  0
  9 10  1  0  0  0  0
  9 37  1  0  0  0  0
 10 11  1  0  0  0  0
 10 16  1  0  0  0  0
 11 15  1  0  0  0  0
 11 12  1  0  0  0  0
 11 38  1  0  0  0  0
 12 13  1  0  0  0  0
 12 39  1  0  0  0  0
 12 40  1  0  0  0  0
 13 14  1  0  0  0  0
 13 41  1  0  0  0  0
 13 42  1  0  0  0  0
 14 15  1  0  0  0  0
 14 43  1  0  0  0  0
 14 44  1  0  0  0  0
 16 17  2  0  0  0  0
 18 29  1  0  0  0  0
 18 19  1  0  0  0  0
 19 20  2  0  0  0  0
 20 21  1  0  0  0  0
 20 28  1  0  0  0  0
 21 27  1  0  0  0  0
 21 22  2  0  0  0  0
 22 23  1  0  0  0  0
 22 45  1  0  0  0  0
 23 24  2  0  0  0  0
 23 46  1  0  0  0  0
 24 25  1  0  0  0  0
 24 26  1  0  0  0  0
 26 27  2  0  0  0  0
 26 47  1  0  0  0  0
 27 48  1  0  0  0  0
 28 29  1  0  0  0  0
 28 49  1  0  0  0  0
 28 50  1  0  0  0  0
 29 30  1  0  0  0  0
 29 51  1  0  0  0  0
 30 34  1  0  0  0  0
 30 31  2  0  0  0  0
 31 32  1  0  0  0  0
 31 52  1  0  0  0  0
 32 33  2  0  0  0  0
 32 53  1  0  0  0  0
 33 34  1  0  0  0  0
 33 54  1  0  0  0  0
M  END
> <s_m_source_file>
AV-unprocessed.smi

> <i_m_source_file_index>
136

> <i_lp_mmshare_version>
43012

> <i_f3d_flags>
0

> <s_epik_input>
bzFbY0hdW2NIXVtjSF1jMVtDQEBIXTJbQ0gyXUMoYzNbY0hdW2NIXWMoQ2wpW2NIXVtjSF0zKT1OTjJDKD1PKVtDSDJdbjRjKD1PKWMoRilbY0hdbihjND1PKVtDQEBIXTVbQ0gyXVtDSDJdW0NIMl1PNQ==

> <s_epik_cmdline>
J2VwaWtfcHl0aG9uJywgJy1waCcsICc3LjAnLCAnLXRuJywgJzgnLCAnLW1hJywgJzIwMCcsICctbWV0YWxfYmluZGluZycsICctaW1hZScsICc8aW5maWxlLm1hZT4nLCAnLW9tYWUnLCAnPG91dGZpbGUubWFlPic=

> <r_lp_tautomer_probability>
1

> <r_epik_Ionization_Penalty>
2.55467e-08

> <r_epik_Ionization_Penalty_Charging>
4.85705e-09

> <r_epik_Ionization_Penalty_Neutral>
2.06897e-08

> <r_epik_State_Penalty>
-0

> <r_epik_Charging_Adjusted_Penalty>
4.85705e-09

> <i_epik_Tot_Q>
0

> <i_epik_Tot_abs_Q>
0

> <r_epik_Metal_State_Penalty>
-0

> <b_epik_Metal_Only>
0

> <s_epik_Chemistry_Notes>
This compound has an imine and may undergo hydrolysis. This compound contains an acetal/aminal-like group ( X-CH(R)-Y where X, Y are N, S, or O) that may be acid/base labile, releasing an aldehyde.

> <s_lp_Force_Field>
OPLS_2005

> <r_lp_Energy>
41.711

> <b_lp_Chiralities_Consistent>
1

> <s_lp_Variant>
AV-unprocessed.smi:136-2

> <Gold.Version>
5.8.1

> <Gold.Id.Protein>
6NUR|6NUR_protein|mol2

> <Gold.PLP.Fitness>
51.4770

> <Gold.PLP.PLP>
-49.2342

> <Gold.PLP.part.hbond>
-1.5017

> <Gold.PLP.part.metal>
0.0000

> <Gold.PLP.part.buried>
-6.5152

> <Gold.PLP.part.nonpolar>
-42.8022

> <Gold.PLP.part.repulsive>
1.8727

> <Gold.PLP.ligand.clash>
0.0000

> <Gold.PLP.ligand.torsion>
0.4089

> <Gold.PLP.Chemscore.Hbond>
1.0000

> <Gold.PLP.Chemscore.CHOScore>
0.0000

> <Gold.PLP.Chemscore.Metal>
0.0000

> <Gold.Chemscore.Hbonds>
donor molecule, donor type, donor heavy atom, donor atom, acceptor molecule, acceptor atom, score
      P1  H  6896  6907       L1    15  1.00

> <Gold.PLP.Chemscore.Internal.Correction>
0.0606

> <Gold.Rescore>
     Score         DG    S(hbond)    S(metal)    S(lipo)     H(rot)  DE(clash)    DE(int)     intcor
     14.45     -17.22       0.96        0.00     112.54       1.81       0.58       2.19       ----

> <Gold.Chemscore.Fitness>
14.4470

> <Gold.Chemscore.DG>
-17.2170

> <Gold.Chemscore.ZeroCoef>
-5.4800

> <Gold.Chemscore.Hbond>
0.9557

> <Gold.Chemscore.Metal>
0.0000

> <Gold.Chemscore.Lipo>
112.5409

> <Gold.Chemscore.Internal_Hbond>
0.0000

> <Gold.Chemscore.DEClash>
0.5768

> <Gold.Chemscore.DEInternal>
2.1932

> <Gold.Chemscore.Rot>
1.8056

> <Gold.Chemscore.Internal.Correction>
   9.000000E+99

> <Gold.Chemscore.Hbonds>
donor molecule, donor type, donor heavy atom, donor atom, acceptor molecule, acceptor atom, score
      P1  H  6896  6907       L1    15  0.58

> <Gold.Chemscore.Hbond.Weighted>
-3.1920

> <Gold.Chemscore.Metal.Weighted>
-0.0000

> <Gold.Chemscore.Lipo.Weighted>
-13.1673

> <Gold.Chemscore.Internal_Hbond.Weighted>
0.0000

> <Gold.Chemscore.DEClash.Weighted>
0.5768

> <Gold.Chemscore.DEInternal.Weighted>
2.1932

> <Gold.Chemscore.Rot.Weighted>
4.6223

> <Gold.Chemscore.Internal.Correction.Weighted>
   9.000000E+99

> <Gold.Protein.RotatedTorsions>
[ 6907 6896 6895 6894 ] final -113.65 input  -60.11 | X-H torsion
[ 7974 7965 7964 7962 ] final  115.30 input  175.53 | X-H torsion
[ 8008 7997 7996 7995 ] final   74.49 input   59.86 | X-H torsion
[ 10167 10162 10161 10158 ] final  -60.69 input  -65.29 | X-H torsion
[ 10718 10713 10712 10709 ] final  -60.56 input   66.30 | X-H torsion
[ 10763 10752 10751 10750 ] final   42.08 input  -60.55 | X-H torsion
[ 11005 11000 10999 10996 ] final  122.61 input  -57.11 | X-H torsion

> <Gold.Protein.ActiveResidues>
 VAL166  LYS551  ARG553  GLY616  TRP617  ASP618  TYR619  PRO620  LYS621  CYS622 
 ASP623  PHE694  ASN695  SER759  ASP760  ASP761  ALA762  ILE779  LEU786  VAL792 
 PHE793  MET794  SER795  GLU796  ALA797  LYS798  CYS799  TRP800  GLU811  SER814 

> <Gold.Protein.RotatedAtoms>
  150.7844  133.8915  159.3314 H   0  0  0  0  0  0  0  0  0  0  0  0  # atno 6907 bound_to 6896
  151.6769  135.0966  160.0218 H   0  0  0  0  0  0  0  0  0  0  0  0  # atno 6908 bound_to 6896
  152.3904  133.6632  159.6268 H   0  0  0  0  0  0  0  0  0  0  0  0  # atno 6909 bound_to 6896
  145.1937  139.2987  143.4355 H   0  0  0  0  0  0  0  0  0  0  0  0  # atno 7974 bound_to 7965
  155.7992  140.3477  155.5393 H   0  0  0  0  0  0  0  0  0  0  0  0  # atno 8008 bound_to 7997
  155.8555  140.0963  157.1667 H   0  0  0  0  0  0  0  0  0  0  0  0  # atno 8009 bound_to 7997
  154.4009  140.1368  156.3884 H   0  0  0  0  0  0  0  0  0  0  0  0  # atno 8010 bound_to 7997
  140.6055  143.2372  151.5831 H   0  0  0  0  0  0  0  0  0  0  0  0  # atno 10167 bound_to 10162
  156.0982  130.4190  150.0871 H   0  0  0  0  0  0  0  0  0  0  0  0  # atno 10718 bound_to 10713
  152.9892  135.6142  154.2891 H   0  0  0  0  0  0  0  0  0  0  0  0  # atno 10763 bound_to 10752
  154.2617  135.2782  155.2777 H   0  0  0  0  0  0  0  0  0  0  0  0  # atno 10764 bound_to 10752
  154.5200  135.5817  153.6730 H   0  0  0  0  0  0  0  0  0  0  0  0  # atno 10765 bound_to 10752
  139.9276  134.9641  156.8135 H   0  0  0  0  0  0  0  0  0  0  0  0  # atno 11005 bound_to 11000
  146.3431  140.2158  142.8590 LP  0  0  0  0  0  0  0  0  0  0  0  0  # atno 17320 bound_to 7965
  145.0016  140.8636  143.5278 LP  0  0  0  0  0  0  0  0  0  0  0  0  # atno 17321 bound_to 7965
  139.5322  144.2884  152.1172 LP  0  0  0  0  0  0  0  0  0  0  0  0  # atno 17342 bound_to 10162
  140.2073  144.4598  150.6402 LP  0  0  0  0  0  0  0  0  0  0  0  0  # atno 17343 bound_to 10162
  156.8865  130.9574  151.3593 LP  0  0  0  0  0  0  0  0  0  0  0  0  # atno 17370 bound_to 10713
  157.6147  130.8610  149.9009 LP  0  0  0  0  0  0  0  0  0  0  0  0  # atno 17371 bound_to 10713
  140.6293  133.9921  155.7654 LP  0  0  0  0  0  0  0  0  0  0  0  0  # atno 17394 bound_to 11000
  141.0844  134.0013  157.3337 LP  0  0  0  0  0  0  0  0  0  0  0  0  # atno 17395 bound_to 11000

$$$$
