AV-unprocessed.smi:731|AV-procd|sdf|3526|dock4
  -GOLD-   22720 0523D 1   1.00000     0.00000
 Structure written by MMmdl.
 34 35  0  0  0  0  0  0  0  0  1 V2000
  146.7745  134.7338  152.5844 O   0  0  0  0  0  0  0  0  0  0  0  0
  147.0855  133.8000  151.8441 C   0  0  0  0  0  0  0  0  0  0  0  0
  148.0994  132.9590  152.1049 N   0  0  0  0  0  0  0  0  0  0  0  0
  148.9886  133.0345  153.2621 C   0  0  0  0  0  0  0  0  0  0  0  0
  148.5645  132.0839  154.3988 C   0  0  0  0  0  0  0  0  0  0  0  0
  149.4547  130.8946  154.5652 C   0  0  0  0  0  0  0  0  0  0  0  0
  150.7023  130.9716  155.0346 N   0  0  0  0  0  0  0  0  0  0  0  0
  151.3562  129.7347  155.0415 C   0  0  0  0  0  0  0  0  0  0  0  0
  152.7724  129.6434  155.5314 C   0  0  0  0  0  0  0  0  0  0  0  0
  152.8813  128.8090  156.5657 F   0  0  0  0  0  0  0  0  0  0  0  0
  153.5850  129.2011  154.5720 F   0  0  0  0  0  0  0  0  0  0  0  0
  153.2215  130.8340  155.9277 F   0  0  0  0  0  0  0  0  0  0  0  0
  150.5723  128.7100  154.5690 C   0  0  0  0  0  0  0  0  0  0  0  0
  148.9901  129.2627  154.0960 S   0  0  0  0  0  0  0  0  0  0  0  0
  146.3176  133.5577  150.5349 C   0  0  0  0  0  0  0  0  0  0  0  0
  145.0640  134.4582  150.4299 C   0  0  0  0  0  0  0  0  0  0  0  0
  143.8521  133.5259  150.3116 C   0  0  0  0  0  0  0  0  0  0  0  0
  144.3233  132.1836  150.8630 C   0  0  0  0  0  0  0  0  0  0  0  0
  145.7899  132.1126  150.4408 C   0  0  0  0  0  0  0  0  0  0  0  0
  148.2814  132.2210  151.4403 H   0  0  0  0  0  0  0  0  0  0  0  0
  150.0190  132.8259  152.9689 H   0  0  0  0  0  0  0  0  0  0  0  0
  148.9818  134.0618  153.6268 H   0  0  0  0  0  0  0  0  0  0  0  0
  148.5346  132.6302  155.3422 H   0  0  0  0  0  0  0  0  0  0  0  0
  147.5492  131.7288  154.2194 H   0  0  0  0  0  0  0  0  0  0  0  0
  150.8313  127.6665  154.4679 H   0  0  0  0  0  0  0  0  0  0  0  0
  146.9841  133.7499  149.6925 H   0  0  0  0  0  0  0  0  0  0  0  0
  144.9479  135.0968  151.3076 H   0  0  0  0  0  0  0  0  0  0  0  0
  145.1250  135.1239  149.5684 H   0  0  0  0  0  0  0  0  0  0  0  0
  142.9768  133.9088  150.8370 H   0  0  0  0  0  0  0  0  0  0  0  0
  143.5819  133.4111  149.2608 H   0  0  0  0  0  0  0  0  0  0  0  0
  144.2487  132.1829  151.9514 H   0  0  0  0  0  0  0  0  0  0  0  0
  143.7365  131.3451  150.4869 H   0  0  0  0  0  0  0  0  0  0  0  0
  145.8559  131.7699  149.4074 H   0  0  0  0  0  0  0  0  0  0  0  0
  146.3524  131.4016  151.0483 H   0  0  0  0  0  0  0  0  0  0  0  0
  1  2  2  0  0  0  0
  2  3  1  0  0  0  0
  2 15  1  0  0  0  0
  3  4  1  0  0  0  0
  3 20  1  0  0  0  0
  4  5  1  0  0  0  0
  4 21  1  0  0  0  0
  4 22  1  0  0  0  0
  5  6  1  0  0  0  0
  5 23  1  0  0  0  0
  5 24  1  0  0  0  0
  6 14  1  0  0  0  0
  6  7  2  0  0  0  0
  7  8  1  0  0  0  0
  8  9  1  0  0  0  0
  8 13  2  0  0  0  0
  9 10  1  0  0  0  0
  9 11  1  0  0  0  0
  9 12  1  0  0  0  0
 13 14  1  0  0  0  0
 13 25  1  0  0  0  0
 15 19  1  0  0  0  0
 15 16  1  0  0  0  0
 15 26  1  0  0  0  0
 16 17  1  0  0  0  0
 16 27  1  0  0  0  0
 16 28  1  0  0  0  0
 17 18  1  0  0  0  0
 17 29  1  0  0  0  0
 17 30  1  0  0  0  0
 18 19  1  0  0  0  0
 18 31  1  0  0  0  0
 18 32  1  0  0  0  0
 19 33  1  0  0  0  0
 19 34  1  0  0  0  0
M  END
> <s_m_source_file>
AV-unprocessed.smi

> <i_m_source_file_index>
731

> <i_lp_mmshare_version>
43012

> <i_f3d_flags>
0

> <s_epik_input>
W0NIMl0xW0NIMl1bQ0gyXVtDSDJdW0NIXTFDKD1PKVtOSF1bQ0gyXVtDSDJdYzJuYyhDKEYpKEYpRilbY0hdczI=

> <s_epik_cmdline>
J2VwaWtfcHl0aG9uJywgJy1waCcsICc3LjAnLCAnLXRuJywgJzgnLCAnLW1hJywgJzIwMCcsICctbWV0YWxfYmluZGluZycsICctaW1hZScsICc8aW5maWxlLm1hZT4nLCAnLW9tYWUnLCAnPG91dGZpbGUubWFlPic=

> <r_lp_tautomer_probability>
1

> <r_epik_Ionization_Penalty>
2.28973e-08

> <r_epik_Ionization_Penalty_Charging>
0

> <r_epik_Ionization_Penalty_Neutral>
2.28973e-08

> <r_epik_State_Penalty>
-0

> <r_epik_Charging_Adjusted_Penalty>
0

> <i_epik_Tot_Q>
0

> <i_epik_Tot_abs_Q>
0

> <r_epik_Metal_State_Penalty>
-0

> <b_epik_Metal_Only>
0

> <s_lp_Force_Field>
OPLS_2005

> <r_lp_Energy>
15.4873

> <b_lp_Chiralities_Consistent>
1

> <s_lp_Variant>
AV-unprocessed.smi:731-1

> <Gold.Version>
5.8.1

> <Gold.Id.Protein>
6NUR|6NUR_protein|mol2

> <Gold.PLP.Fitness>
40.6148

> <Gold.PLP.PLP>
-37.6089

> <Gold.PLP.part.hbond>
-1.0000

> <Gold.PLP.part.metal>
0.0000

> <Gold.PLP.part.buried>
-1.6900

> <Gold.PLP.part.nonpolar>
-34.6293

> <Gold.PLP.part.repulsive>
0.1245

> <Gold.PLP.ligand.clash>
0.0000

> <Gold.PLP.ligand.torsion>
0.7168

> <Gold.PLP.Chemscore.Hbond>
1.0000

> <Gold.PLP.Chemscore.CHOScore>
0.4688

> <Gold.PLP.Chemscore.Metal>
0.0000

> <Gold.Chemscore.Hbonds>
donor molecule, donor type, donor heavy atom, donor atom, acceptor molecule, acceptor atom, score
      L1  H     3    20       P1 10747  1.00

> <Gold.PLP.Chemscore.Internal.Correction>
0.0330

> <Gold.Rescore>
     Score         DG    S(hbond)    S(metal)    S(lipo)     H(rot)  DE(clash)    DE(int)     intcor
     13.31     -14.20       0.99        0.00      83.96       1.73       0.06       0.83       ----

> <Gold.Chemscore.Fitness>
13.3050

> <Gold.Chemscore.DG>
-14.1958

> <Gold.Chemscore.ZeroCoef>
-5.4800

> <Gold.Chemscore.Hbond>
0.9918

> <Gold.Chemscore.Metal>
0.0000

> <Gold.Chemscore.Lipo>
83.9564

> <Gold.Chemscore.Internal_Hbond>
0.0000

> <Gold.Chemscore.DEClash>
0.0649

> <Gold.Chemscore.DEInternal>
0.8259

> <Gold.Chemscore.Rot>
1.7264

> <Gold.Chemscore.Internal.Correction>
   9.000000E+99

> <Gold.Chemscore.Hbonds>
donor molecule, donor type, donor heavy atom, donor atom, acceptor molecule, acceptor atom, score
      L1  H     3    20       P1 10747  1.00

> <Gold.Chemscore.Hbond.Weighted>
-3.3125

> <Gold.Chemscore.Metal.Weighted>
-0.0000

> <Gold.Chemscore.Lipo.Weighted>
-9.8229

> <Gold.Chemscore.Internal_Hbond.Weighted>
0.0000

> <Gold.Chemscore.DEClash.Weighted>
0.0649

> <Gold.Chemscore.DEInternal.Weighted>
0.8259

> <Gold.Chemscore.Rot.Weighted>
4.4196

> <Gold.Chemscore.Internal.Correction.Weighted>
   9.000000E+99

> <Gold.Protein.RotatedTorsions>
[ 6907 6896 6895 6894 ] final -119.55 input  -60.11 | X-H torsion
[ 7974 7965 7964 7962 ] final   18.32 input  175.53 | X-H torsion
[ 8008 7997 7996 7995 ] final  -73.70 input   59.86 | X-H torsion
[ 10167 10162 10161 10158 ] final  -99.17 input  -65.29 | X-H torsion
[ 10718 10713 10712 10709 ] final -174.49 input   66.30 | X-H torsion
[ 10763 10752 10751 10750 ] final  -41.83 input  -60.55 | X-H torsion
[ 11005 11000 10999 10996 ] final -117.20 input  -57.11 | X-H torsion

> <Gold.Protein.ActiveResidues>
 VAL166  LYS551  ARG553  GLY616  TRP617  ASP618  TYR619  PRO620  LYS621  CYS622 
 ASP623  PHE694  ASN695  SER759  ASP760  ASP761  ALA762  ILE779  LEU786  VAL792 
 PHE793  MET794  SER795  GLU796  ALA797  LYS798  CYS799  TRP800  GLU811  SER814 

> <Gold.Protein.RotatedAtoms>
  150.8315  133.8083  159.3096 H   0  0  0  0  0  0  0  0  0  0  0  0  # atno 6907 bound_to 6896
  151.5812  135.1056  160.0027 H   0  0  0  0  0  0  0  0  0  0  0  0  # atno 6908 bound_to 6896
  152.4394  133.7378  159.6680 H   0  0  0  0  0  0  0  0  0  0  0  0  # atno 6909 bound_to 6896
  146.2189  139.8475  142.8629 H   0  0  0  0  0  0  0  0  0  0  0  0  # atno 7974 bound_to 7965
  154.5269  140.0774  156.8274 H   0  0  0  0  0  0  0  0  0  0  0  0  # atno 8008 bound_to 7997
  155.3457  140.3410  155.4221 H   0  0  0  0  0  0  0  0  0  0  0  0  # atno 8009 bound_to 7997
  156.1741  140.1629  156.8382 H   0  0  0  0  0  0  0  0  0  0  0  0  # atno 8010 bound_to 7997
  140.2653  143.3380  152.0587 H   0  0  0  0  0  0  0  0  0  0  0  0  # atno 10167 bound_to 10162
  156.7859  130.9500  151.3120 H   0  0  0  0  0  0  0  0  0  0  0  0  # atno 10718 bound_to 10713
  153.9689  135.6730  153.4746 H   0  0  0  0  0  0  0  0  0  0  0  0  # atno 10763 bound_to 10752
  153.0802  135.4927  154.8484 H   0  0  0  0  0  0  0  0  0  0  0  0  # atno 10764 bound_to 10752
  154.7230  135.3121  154.8977 H   0  0  0  0  0  0  0  0  0  0  0  0  # atno 10765 bound_to 10752
  141.0370  133.9894  157.3054 H   0  0  0  0  0  0  0  0  0  0  0  0  # atno 11005 bound_to 11000
  145.2836  141.0146  143.3703 LP  0  0  0  0  0  0  0  0  0  0  0  0  # atno 17320 bound_to 7965
  144.9131  139.4504  143.6577 LP  0  0  0  0  0  0  0  0  0  0  0  0  # atno 17321 bound_to 7965
  139.5004  144.6692  151.6283 LP  0  0  0  0  0  0  0  0  0  0  0  0  # atno 17342 bound_to 10162
  140.5933  143.9740  150.6338 LP  0  0  0  0  0  0  0  0  0  0  0  0  # atno 17343 bound_to 10162
  157.6624  130.8977  149.9858 LP  0  0  0  0  0  0  0  0  0  0  0  0  # atno 17370 bound_to 10713
  156.1189  130.3646  149.9921 LP  0  0  0  0  0  0  0  0  0  0  0  0  # atno 17371 bound_to 10713
  139.9248  135.0201  156.8195 LP  0  0  0  0  0  0  0  0  0  0  0  0  # atno 17394 bound_to 11000
  140.6303  133.9912  155.7659 LP  0  0  0  0  0  0  0  0  0  0  0  0  # atno 17395 bound_to 11000

$$$$
