AV-unprocessed.smi:1079|AV-procd|sdf|4704|dock7
  -GOLD-   22720 3233D 1   1.00000     0.00000
 Structure written by MMmdl.
 44 45  0  0  0  0  0  0  0  0  1 V2000
  146.2887  132.9464  150.5298 C   0  0  0  0  0  0  0  0  0  0  0  0
  146.0331  132.8447  151.9190 O   0  0  0  0  0  0  0  0  0  0  0  0
  147.0775  132.1889  152.6194 C   0  0  0  0  0  0  0  0  0  0  0  0
  148.3156  133.1001  152.6633 C   0  0  0  0  0  0  0  0  0  0  0  0
  148.9512  133.1308  153.9670 N   0  0  0  0  0  0  0  0  0  0  0  0
  149.0469  134.2783  154.7608 C   0  0  0  0  0  0  0  0  0  0  0  0
  148.5073  135.4586  154.2706 N   0  0  0  0  0  0  0  0  0  0  0  0
  149.6792  134.2625  155.9721 C   0  0  0  0  0  0  0  0  0  0  0  0
  149.7434  135.4094  156.7861 N   0  0  0  0  0  0  0  0  0  0  0  0
  148.4689  135.9369  157.2981 C   0  0  0  0  0  0  0  0  0  0  0  0
  148.1922  135.5173  158.7319 C   0  0  0  0  0  0  0  0  0  0  0  0
  148.1531  136.4873  159.7558 C   0  0  0  0  0  0  0  0  0  0  0  0
  147.8841  136.1054  161.0842 C   0  0  0  0  0  0  0  0  0  0  0  0
  147.6543  134.7512  161.3946 C   0  0  0  0  0  0  0  0  0  0  0  0
  147.6928  133.7797  160.3759 C   0  0  0  0  0  0  0  0  0  0  0  0
  147.9613  134.1616  159.0470 C   0  0  0  0  0  0  0  0  0  0  0  0
  150.9194  136.0291  157.0667 C   0  0  0  0  0  0  0  0  0  0  0  0
  150.9324  137.2140  158.0398 C   0  0  0  0  0  0  0  0  0  0  0  0
  151.9940  135.6612  156.5920 O   0  0  0  0  0  0  0  0  0  0  0  0
  150.2604  133.0179  156.4951 C   0  0  0  0  0  0  0  0  0  0  0  0
  150.8173  132.8870  157.5845 O   0  0  0  0  0  0  0  0  0  0  0  0
  150.1467  131.9178  155.6499 N   0  0  0  0  0  0  0  0  0  0  0  0
  149.5312  131.9155  154.4036 C   0  0  0  0  0  0  0  0  0  0  0  0
  149.5147  130.8775  153.7410 O   0  0  0  0  0  0  0  0  0  0  0  0
  150.5478  131.0475  155.9683 H   0  0  0  0  0  0  0  0  0  0  0  0
  145.4569  133.4540  150.0412 H   0  0  0  0  0  0  0  0  0  0  0  0
  146.3966  131.9609  150.0750 H   0  0  0  0  0  0  0  0  0  0  0  0
  147.1944  133.5228  150.3372 H   0  0  0  0  0  0  0  0  0  0  0  0
  146.7511  131.9701  153.6370 H   0  0  0  0  0  0  0  0  0  0  0  0
  147.3162  131.2361  152.1446 H   0  0  0  0  0  0  0  0  0  0  0  0
  149.0660  132.7925  151.9362 H   0  0  0  0  0  0  0  0  0  0  0  0
  148.0686  134.1285  152.3931 H   0  0  0  0  0  0  0  0  0  0  0  0
  148.0565  135.4975  153.3675 H   0  0  0  0  0  0  0  0  0  0  0  0
  148.3799  136.2650  154.8655 H   0  0  0  0  0  0  0  0  0  0  0  0
  148.4353  137.0250  157.2208 H   0  0  0  0  0  0  0  0  0  0  0  0
  147.6421  135.5858  156.6792 H   0  0  0  0  0  0  0  0  0  0  0  0
  148.3242  137.5282  159.5229 H   0  0  0  0  0  0  0  0  0  0  0  0
  147.8528  136.8511  161.8646 H   0  0  0  0  0  0  0  0  0  0  0  0
  147.4479  134.4586  162.4135 H   0  0  0  0  0  0  0  0  0  0  0  0
  147.5154  132.7411  160.6133 H   0  0  0  0  0  0  0  0  0  0  0  0
  147.9858  133.4114  158.2703 H   0  0  0  0  0  0  0  0  0  0  0  0
  150.3932  136.9776  158.9577 H   0  0  0  0  0  0  0  0  0  0  0  0
  150.4815  138.0951  157.5836 H   0  0  0  0  0  0  0  0  0  0  0  0
  151.9562  137.4699  158.3153 H   0  0  0  0  0  0  0  0  0  0  0  0
  1  2  1  0  0  0  0
  1 26  1  0  0  0  0
  1 27  1  0  0  0  0
  1 28  1  0  0  0  0
  2  3  1  0  0  0  0
  3  4  1  0  0  0  0
  3 29  1  0  0  0  0
  3 30  1  0  0  0  0
  4  5  1  0  0  0  0
  4 31  1  0  0  0  0
  4 32  1  0  0  0  0
  5 23  1  0  0  0  0
  5  6  1  0  0  0  0
  6  7  1  0  0  0  0
  6  8  2  0  0  0  0
  7 33  1  0  0  0  0
  7 34  1  0  0  0  0
  8  9  1  0  0  0  0
  8 20  1  0  0  0  0
  9 10  1  0  0  0  0
  9 17  1  0  0  0  0
 10 11  1  0  0  0  0
 10 35  1  0  0  0  0
 10 36  1  0  0  0  0
 11 16  1  0  0  0  0
 11 12  2  0  0  0  0
 12 13  1  0  0  0  0
 12 37  1  0  0  0  0
 13 14  2  0  0  0  0
 13 38  1  0  0  0  0
 14 15  1  0  0  0  0
 14 39  1  0  0  0  0
 15 16  2  0  0  0  0
 15 40  1  0  0  0  0
 16 41  1  0  0  0  0
 17 18  1  0  0  0  0
 17 19  2  0  0  0  0
 18 42  1  0  0  0  0
 18 43  1  0  0  0  0
 18 44  1  0  0  0  0
 20 21  2  0  0  0  0
 20 22  1  0  0  0  0
 22 25  1  0  0  0  0
 22 23  1  0  0  0  0
 23 24  2  0  0  0  0
M  END
> <s_m_source_file>
AV-unprocessed.smi

> <i_m_source_file_index>
1079

> <i_lp_mmshare_version>
43012

> <i_f3d_flags>
0

> <s_epik_input>
W0NIM11PW0NIMl1bQ0gyXW4xYyhbTkgyXSljKGMoPU8pW25IXWMxPU8pTihDKD1PKVtDSDNdKVtDSDJdYzJbY0hdW2NIXVtjSF1bY0hdW2NIXTI=

> <s_epik_cmdline>
J2VwaWtfcHl0aG9uJywgJy1waCcsICc3LjAnLCAnLXRuJywgJzgnLCAnLW1hJywgJzIwMCcsICctbWV0YWxfYmluZGluZycsICctaW1hZScsICc8aW5maWxlLm1hZT4nLCAnLW9tYWUnLCAnPG91dGZpbGUubWFlPic=

> <r_lp_tautomer_probability>
1

> <r_epik_Ionization_Penalty>
1.40243e-05

> <r_epik_Ionization_Penalty_Charging>
7.95939e-06

> <r_epik_Ionization_Penalty_Neutral>
6.06489e-06

> <r_epik_State_Penalty>
-0

> <r_epik_Charging_Adjusted_Penalty>
7.95939e-06

> <i_epik_Tot_Q>
0

> <i_epik_Tot_abs_Q>
0

> <r_epik_Metal_State_Penalty>
0.00752988

> <b_epik_Metal_Only>
0

> <s_epik_Chemistry_Notes>
This compound has an imine and may undergo hydrolysis.

> <s_lp_Force_Field>
OPLS_2005

> <r_lp_Energy>
29.3793

> <b_lp_Chiralities_Consistent>
1

> <s_lp_Variant>
AV-unprocessed.smi:1079-1

> <Gold.Version>
5.8.1

> <Gold.Id.Protein>
6NUR|6NUR_protein|mol2

> <Gold.PLP.Fitness>
40.7420

> <Gold.PLP.PLP>
-34.7877

> <Gold.PLP.part.hbond>
-2.9980

> <Gold.PLP.part.metal>
0.0000

> <Gold.PLP.part.buried>
-4.8681

> <Gold.PLP.part.nonpolar>
-27.8555

> <Gold.PLP.part.repulsive>
0.2189

> <Gold.PLP.ligand.clash>
0.0000

> <Gold.PLP.ligand.torsion>
1.9614

> <Gold.PLP.Chemscore.Hbond>
2.4960

> <Gold.PLP.Chemscore.CHOScore>
0.0000

> <Gold.PLP.Chemscore.Metal>
0.0000

> <Gold.Chemscore.Hbonds>
donor molecule, donor type, donor heavy atom, donor atom, acceptor molecule, acceptor atom, score
      L1  H     7    33       P1  7948  0.42
      P1  H  6896  6908       L1    21  1.00
      P1  H 10752 10765       L1    19  1.00

> <Gold.PLP.Chemscore.Internal.Correction>
2.3892

> <Gold.Rescore>
     Score         DG    S(hbond)    S(metal)    S(lipo)     H(rot)  DE(clash)    DE(int)     intcor
     15.31     -17.45       2.88        0.00      64.36       2.02       0.11       2.04       ----

> <Gold.Chemscore.Fitness>
15.3066

> <Gold.Chemscore.DG>
-17.4519

> <Gold.Chemscore.ZeroCoef>
-5.4800

> <Gold.Chemscore.Hbond>
2.8757

> <Gold.Chemscore.Metal>
0.0000

> <Gold.Chemscore.Lipo>
64.3647

> <Gold.Chemscore.Internal_Hbond>
0.0000

> <Gold.Chemscore.DEClash>
0.1053

> <Gold.Chemscore.DEInternal>
2.0400

> <Gold.Chemscore.Rot>
2.0170

> <Gold.Chemscore.Internal.Correction>
   9.000000E+99

> <Gold.Chemscore.Hbonds>
donor molecule, donor type, donor heavy atom, donor atom, acceptor molecule, acceptor atom, score
      L1  H     7    33       P1  7948  0.42
      P1  H  6896  6908       L1    21  0.96
      P1  H 10752 10765       L1    19  1.00

> <Gold.Chemscore.Hbond.Weighted>
-9.6048

> <Gold.Chemscore.Metal.Weighted>
-0.0000

> <Gold.Chemscore.Lipo.Weighted>
-7.5307

> <Gold.Chemscore.Internal_Hbond.Weighted>
0.0000

> <Gold.Chemscore.DEClash.Weighted>
0.1053

> <Gold.Chemscore.DEInternal.Weighted>
2.0400

> <Gold.Chemscore.Rot.Weighted>
5.1636

> <Gold.Chemscore.Internal.Correction.Weighted>
   9.000000E+99

> <Gold.Protein.RotatedTorsions>
[ 6907 6896 6895 6894 ] final   79.99 input  -60.11 | X-H torsion
[ 7974 7965 7964 7962 ] final    5.24 input  175.53 | X-H torsion
[ 8008 7997 7996 7995 ] final   75.20 input   59.86 | X-H torsion
[ 10167 10162 10161 10158 ] final  -53.55 input  -65.29 | X-H torsion
[ 10718 10713 10712 10709 ] final  141.00 input   66.30 | X-H torsion
[ 10763 10752 10751 10750 ] final -136.63 input  -60.55 | X-H torsion
[ 11005 11000 10999 10996 ] final  -19.82 input  -57.11 | X-H torsion

> <Gold.Protein.ActiveResidues>
 VAL166  LYS551  ARG553  GLY616  TRP617  ASP618  TYR619  PRO620  LYS621  CYS622 
 ASP623  PHE694  ASN695  SER759  ASP760  ASP761  ALA762  ILE779  LEU786  VAL792 
 PHE793  MET794  SER795  GLU796  ALA797  LYS798  CYS799  TRP800  GLU811  SER814 

> <Gold.Protein.RotatedAtoms>
  152.5219  134.3426  159.9222 H   0  0  0  0  0  0  0  0  0  0  0  0  # atno 6907 bound_to 6896
  151.3376  133.3969  159.2676 H   0  0  0  0  0  0  0  0  0  0  0  0  # atno 6908 bound_to 6896
  150.9829  134.9199  159.7913 H   0  0  0  0  0  0  0  0  0  0  0  0  # atno 6909 bound_to 6896
  146.2441  140.0414  142.8382 H   0  0  0  0  0  0  0  0  0  0  0  0  # atno 7974 bound_to 7965
  155.8094  140.3473  155.5449 H   0  0  0  0  0  0  0  0  0  0  0  0  # atno 8008 bound_to 7997
  155.8456  140.0948  157.1727 H   0  0  0  0  0  0  0  0  0  0  0  0  # atno 8009 bound_to 7997
  154.4006  140.1386  156.3769 H   0  0  0  0  0  0  0  0  0  0  0  0  # atno 8010 bound_to 7997
  140.6479  143.2546  151.4808 H   0  0  0  0  0  0  0  0  0  0  0  0  # atno 10167 bound_to 10162
  157.3970  131.1012  151.0590 H   0  0  0  0  0  0  0  0  0  0  0  0  # atno 10718 bound_to 10713
  154.8680  135.3667  154.5092 H   0  0  0  0  0  0  0  0  0  0  0  0  # atno 10763 bound_to 10752
  153.5728  135.7020  153.5502 H   0  0  0  0  0  0  0  0  0  0  0  0  # atno 10764 bound_to 10752
  153.3527  135.4068  155.1621 H   0  0  0  0  0  0  0  0  0  0  0  0  # atno 10765 bound_to 10752
  140.8404  133.7930  155.9855 H   0  0  0  0  0  0  0  0  0  0  0  0  # atno 11005 bound_to 11000
  145.1066  140.9379  143.4681 LP  0  0  0  0  0  0  0  0  0  0  0  0  # atno 17320 bound_to 7965
  145.0618  139.3099  143.5876 LP  0  0  0  0  0  0  0  0  0  0  0  0  # atno 17321 bound_to 7965
  139.5691  144.1972  152.1809 LP  0  0  0  0  0  0  0  0  0  0  0  0  # atno 17342 bound_to 10162
  140.1263  144.5329  150.6831 LP  0  0  0  0  0  0  0  0  0  0  0  0  # atno 17343 bound_to 10162
  157.1603  130.6222  149.5609 LP  0  0  0  0  0  0  0  0  0  0  0  0  # atno 17370 bound_to 10713
  155.9813  130.4819  150.6819 LP  0  0  0  0  0  0  0  0  0  0  0  0  # atno 17371 bound_to 10713
  140.8901  134.2506  157.5099 LP  0  0  0  0  0  0  0  0  0  0  0  0  # atno 17394 bound_to 11000
  139.8703  134.9657  156.4538 LP  0  0  0  0  0  0  0  0  0  0  0  0  # atno 17395 bound_to 11000

$$$$
