AV-unprocessed.smi:1817|AV-procd|sdf|7375|dock1
  -GOLD-   22720 9 43D 1   1.00000     0.00000
 Structure written by MMmdl.
 42 43  0  0  0  0  0  0  0  0  3 V2000
  145.9406  143.2788  153.9195 C   0  0  0  0  0  0  0  0  0  0  0  0
  146.1905  142.7904  155.3537 C   0  0  0  0  0  0  0  0  0  0  0  0
  147.5642  142.2640  155.5493 N   0  3  0  0  0  0  0  0  0  0  0  0
  147.9798  141.3571  154.4502 C   0  0  0  0  0  0  0  0  0  0  0  0
  149.4159  140.8329  154.6790 C   0  0  0  0  0  0  0  0  0  0  0  0
  149.5496  140.1236  155.9606 N   0  0  0  0  0  0  0  0  0  0  0  0
  148.8065  138.8455  156.0338 C   0  0  1  0  0  0  0  0  0  0  0  0
  148.7920  138.1549  154.6498 C   0  0  0  0  0  0  0  0  0  0  0  0
  149.3894  137.8826  157.1047 C   0  0  0  0  0  0  0  0  0  0  0  0
  148.5206  137.7651  158.2721 N   0  0  0  0  0  0  0  0  0  0  0  0
  148.7966  137.0579  159.3780 C   0  0  0  0  0  0  0  0  0  0  0  0
  149.8501  136.4198  159.4529 O   0  0  0  0  0  0  0  0  0  0  0  0
  147.8403  137.1373  160.3300 N   0  5  0  0  0  0  0  0  0  0  0  0
  147.4957  136.0418  161.0268 C   0  0  0  0  0  0  0  0  0  0  0  0
  146.9168  136.1116  162.2361 N   0  0  0  0  0  0  0  0  0  0  0  0
  146.6382  134.8655  162.7810 N   0  0  0  0  0  0  0  0  0  0  0  0
  147.0091  133.8829  161.9606 C   0  0  0  0  0  0  0  0  0  0  0  0
  147.7327  134.3904  160.4489 S   0  0  0  0  0  0  0  0  0  0  0  0
  149.2221  141.1117  156.9980 C   0  0  0  0  0  0  0  0  0  0  0  0
  147.7697  141.6155  156.8689 C   0  0  0  0  0  0  0  0  0  0  0  0
  144.8963  143.5637  153.7901 H   0  0  0  0  0  0  0  0  0  0  0  0
  146.1617  142.4978  153.1915 H   0  0  0  0  0  0  0  0  0  0  0  0
  146.5439  144.1522  153.6734 H   0  0  0  0  0  0  0  0  0  0  0  0
  145.9903  143.5879  156.0710 H   0  0  0  0  0  0  0  0  0  0  0  0
  145.4743  141.9957  155.5664 H   0  0  0  0  0  0  0  0  0  0  0  0
  147.2682  140.5372  154.3471 H   0  0  0  0  0  0  0  0  0  0  0  0
  147.9502  141.9055  153.5082 H   0  0  0  0  0  0  0  0  0  0  0  0
  149.7309  140.2083  153.8452 H   0  0  0  0  0  0  0  0  0  0  0  0
  150.1094  141.6752  154.6742 H   0  0  0  0  0  0  0  0  0  0  0  0
  147.7739  139.0493  156.3107 H   0  0  0  0  0  0  0  0  0  0  0  0
  148.3315  137.1682  154.6962 H   0  0  0  0  0  0  0  0  0  0  0  0
  149.8022  138.0240  154.2609 H   0  0  0  0  0  0  0  0  0  0  0  0
  148.2139  138.7107  153.9132 H   0  0  0  0  0  0  0  0  0  0  0  0
  149.5365  136.8891  156.6802 H   0  0  0  0  0  0  0  0  0  0  0  0
  150.3598  138.2087  157.4759 H   0  0  0  0  0  0  0  0  0  0  0  0
  147.6479  138.2719  158.2482 H   0  0  0  0  0  0  0  0  0  0  0  0
  146.8539  132.8532  162.2462 H   0  0  0  0  0  0  0  0  0  0  0  0
  149.4131  140.7217  157.9955 H   0  0  0  0  0  0  0  0  0  0  0  0
  149.9045  141.9577  156.9018 H   0  0  0  0  0  0  0  0  0  0  0  0
  147.5827  142.3349  157.6652 H   0  0  0  0  0  0  0  0  0  0  0  0
  147.0546  140.8041  157.0111 H   0  0  0  0  0  0  0  0  0  0  0  0
  148.1909  143.0548  155.5125 H   0  0  0  0  0  0  0  0  0  0  0  0
  1  2  1  0  0  0  0
  1 21  1  0  0  0  0
  1 22  1  0  0  0  0
  1 23  1  0  0  0  0
  2  3  1  0  0  0  0
  2 24  1  0  0  0  0
  2 25  1  0  0  0  0
  3 20  1  0  0  0  0
  3  4  1  0  0  0  0
  3 42  1  0  0  0  0
  4  5  1  0  0  0  0
  4 26  1  0  0  0  0
  4 27  1  0  0  0  0
  5  6  1  0  0  0  0
  5 28  1  0  0  0  0
  5 29  1  0  0  0  0
  6  7  1  0  0  0  0
  6 19  1  0  0  0  0
  7  8  1  0  0  0  0
  7  9  1  0  0  0  0
  7 30  1  0  0  0  0
  8 31  1  0  0  0  0
  8 32  1  0  0  0  0
  8 33  1  0  0  0  0
  9 10  1  0  0  0  0
  9 34  1  0  0  0  0
  9 35  1  0  0  0  0
 10 11  1  0  0  0  0
 10 36  1  0  0  0  0
 11 12  2  0  0  0  0
 11 13  1  0  0  0  0
 13 14  1  0  0  0  0
 14 18  1  0  0  0  0
 14 15  2  0  0  0  0
 15 16  1  0  0  0  0
 16 17  2  0  0  0  0
 17 18  1  0  0  0  0
 17 37  1  0  0  0  0
 19 20  1  0  0  0  0
 19 38  1  0  0  0  0
 19 39  1  0  0  0  0
 20 40  1  0  0  0  0
 20 41  1  0  0  0  0
M  CHG  1   3   1
M  CHG  1  13  -1
M  END
> <s_m_source_file>
AV-unprocessed.smi

> <i_m_source_file_index>
1817

> <i_lp_mmshare_version>
43012

> <i_f3d_flags>
0

> <s_epik_input>
W0NIM11bQ0gyXU4xW0NIMl1bQ0gyXU4oW0NIMl1bQ0gyXTEpW0NASF0oW0NIM10pW0NIMl1bTkhdQyg9TylbTkhdYzJubltjSF1zMg==

> <s_epik_cmdline>
J2VwaWtfcHl0aG9uJywgJy1waCcsICc3LjAnLCAnLXRuJywgJzgnLCAnLW1hJywgJzIwMCcsICctbWV0YWxfYmluZGluZycsICctaW1hZScsICc8aW5maWxlLm1hZT4nLCAnLW9tYWUnLCAnPG91dGZpbGUubWFlPic=

> <r_lp_tautomer_probability>
1

> <r_epik_Ionization_Penalty>
3.58527

> <r_epik_Ionization_Penalty_Charging>
3.54445

> <r_epik_Ionization_Penalty_Neutral>
0.0408199

> <r_epik_State_Penalty>
3.6633

> <r_epik_Charging_Adjusted_Penalty>
7.20774

> <i_epik_Tot_Q>
0

> <i_epik_Tot_abs_Q>
2

> <r_epik_Metal_State_Penalty>
0.683711

> <b_epik_Metal_Only>
1

> <s_lp_Force_Field>
OPLS_2005

> <r_lp_Energy>
13.2913

> <b_lp_Chiralities_Consistent>
1

> <s_lp_Variant>
AV-unprocessed.smi:1817-8

> <Gold.Version>
5.8.1

> <Gold.Id.Protein>
6NUR|6NUR_protein|mol2

> <Gold.PLP.Fitness>
45.6161

> <Gold.PLP.PLP>
-30.7615

> <Gold.PLP.part.hbond>
-4.0000

> <Gold.PLP.part.metal>
0.0000

> <Gold.PLP.part.buried>
-6.3100

> <Gold.PLP.part.nonpolar>
-21.2268

> <Gold.PLP.part.repulsive>
0.2146

> <Gold.PLP.ligand.clash>
0.0060

> <Gold.PLP.ligand.torsion>
1.6762

> <Gold.PLP.Chemscore.Hbond>
5.9948

> <Gold.PLP.Chemscore.CHOScore>
0.0000

> <Gold.PLP.Chemscore.Metal>
0.0000

> <Gold.Chemscore.Hbonds>
donor molecule, donor type, donor heavy atom, donor atom, acceptor molecule, acceptor atom, score
      L1  H     3    42       P1  8028  2.00
      P1  H  6896  6907       L1    12  1.00
      P1  H  6931  6943       L1    13  0.56
      P1  H  6934  6947       L1    13  1.49

> <Gold.PLP.Chemscore.Internal.Correction>
0.2285

> <Gold.Rescore>
     Score         DG    S(hbond)    S(metal)    S(lipo)     H(rot)  DE(clash)    DE(int)     intcor
     14.27     -16.06       2.77        0.00      52.60       1.88       0.00       1.79       ----

> <Gold.Chemscore.Fitness>
14.2656

> <Gold.Chemscore.DG>
-16.0574

> <Gold.Chemscore.ZeroCoef>
-5.4800

> <Gold.Chemscore.Hbond>
2.7671

> <Gold.Chemscore.Metal>
0.0000

> <Gold.Chemscore.Lipo>
52.6016

> <Gold.Chemscore.Internal_Hbond>
0.0000

> <Gold.Chemscore.DEClash>
0.0000

> <Gold.Chemscore.DEInternal>
1.7918

> <Gold.Chemscore.Rot>
1.8825

> <Gold.Chemscore.Internal.Correction>
   9.000000E+99

> <Gold.Chemscore.Hbonds>
donor molecule, donor type, donor heavy atom, donor atom, acceptor molecule, acceptor atom, score
      L1  H     3    42       P1  8028  0.92
      P1  H  6896  6907       L1    12  1.00
      P1  H  6931  6943       L1    13  0.02
      P1  H  6934  6947       L1    13  0.67

> <Gold.Chemscore.Hbond.Weighted>
-9.2421

> <Gold.Chemscore.Metal.Weighted>
-0.0000

> <Gold.Chemscore.Lipo.Weighted>
-6.1544

> <Gold.Chemscore.Internal_Hbond.Weighted>
0.0000

> <Gold.Chemscore.DEClash.Weighted>
0.0000

> <Gold.Chemscore.DEInternal.Weighted>
1.7918

> <Gold.Chemscore.Rot.Weighted>
4.8191

> <Gold.Chemscore.Internal.Correction.Weighted>
   9.000000E+99

> <Gold.Protein.RotatedTorsions>
[ 6907 6896 6895 6894 ] final  -43.12 input  -60.11 | X-H torsion
[ 7974 7965 7964 7962 ] final  158.48 input  175.53 | X-H torsion
[ 8008 7997 7996 7995 ] final   15.14 input   59.86 | X-H torsion
[ 10167 10162 10161 10158 ] final  -56.71 input  -65.29 | X-H torsion
[ 10718 10713 10712 10709 ] final  146.11 input   66.30 | X-H torsion
[ 10763 10752 10751 10750 ] final  -41.00 input  -60.55 | X-H torsion
[ 11005 11000 10999 10996 ] final   91.91 input  -57.11 | X-H torsion

> <Gold.Protein.ActiveResidues>
 VAL166  LYS551  ARG553  GLY616  TRP617  ASP618  TYR619  PRO620  LYS621  CYS622 
 ASP623  PHE694  ASN695  SER759  ASP760  ASP761  ALA762  ILE779  LEU786  VAL792 
 PHE793  MET794  SER795  GLU796  ALA797  LYS798  CYS799  TRP800  GLU811  SER814 

> <Gold.Protein.RotatedAtoms>
  150.9475  134.8879  159.7651 H   0  0  0  0  0  0  0  0  0  0  0  0  # atno 6907 bound_to 6896
  152.5106  134.3853  159.9375 H   0  0  0  0  0  0  0  0  0  0  0  0  # atno 6908 bound_to 6896
  151.3871  133.3761  159.2751 H   0  0  0  0  0  0  0  0  0  0  0  0  # atno 6909 bound_to 6896
  144.7843  139.7485  143.6247 H   0  0  0  0  0  0  0  0  0  0  0  0  # atno 7974 bound_to 7965
  154.8584  140.2940  155.5554 H   0  0  0  0  0  0  0  0  0  0  0  0  # atno 8008 bound_to 7997
  156.3019  140.2482  156.3487 H   0  0  0  0  0  0  0  0  0  0  0  0  # atno 8009 bound_to 7997
  154.8945  140.0393  157.1846 H   0  0  0  0  0  0  0  0  0  0  0  0  # atno 8010 bound_to 7997
  140.6301  143.2455  151.5262 H   0  0  0  0  0  0  0  0  0  0  0  0  # atno 10167 bound_to 10162
  157.3372  131.0930  151.1113 H   0  0  0  0  0  0  0  0  0  0  0  0  # atno 10718 bound_to 10713
  153.9552  135.6746  153.4744 H   0  0  0  0  0  0  0  0  0  0  0  0  # atno 10763 bound_to 10752
  153.0865  135.4896  154.8603 H   0  0  0  0  0  0  0  0  0  0  0  0  # atno 10764 bound_to 10752
  154.7303  135.3137  154.8861 H   0  0  0  0  0  0  0  0  0  0  0  0  # atno 10765 bound_to 10752
  139.8831  134.8702  156.3497 H   0  0  0  0  0  0  0  0  0  0  0  0  # atno 11005 bound_to 11000
  146.2067  139.5396  142.9708 LP  0  0  0  0  0  0  0  0  0  0  0  0  # atno 17320 bound_to 7965
  145.5964  141.0362  143.2042 LP  0  0  0  0  0  0  0  0  0  0  0  0  # atno 17321 bound_to 7965
  139.5516  144.2380  152.1541 LP  0  0  0  0  0  0  0  0  0  0  0  0  # atno 17342 bound_to 10162
  140.1622  144.5015  150.6626 LP  0  0  0  0  0  0  0  0  0  0  0  0  # atno 17343 bound_to 10162
  157.2339  130.6538  149.5861 LP  0  0  0  0  0  0  0  0  0  0  0  0  # atno 17370 bound_to 10713
  155.9703  130.4590  150.6019 LP  0  0  0  0  0  0  0  0  0  0  0  0  # atno 17371 bound_to 10713
  140.9603  133.7393  156.0392 LP  0  0  0  0  0  0  0  0  0  0  0  0  # atno 17394 bound_to 11000
  140.7998  134.3522  157.5442 LP  0  0  0  0  0  0  0  0  0  0  0  0  # atno 17395 bound_to 11000

$$$$
