AV-unprocessed.smi:102|AV-procd|sdf|973|dock9
  -GOLD-   2262017523D 1   1.00000     0.00000
 Structure written by MMmdl.
 43 44  0  0  0  0  0  0  0  0  2 V2000
  143.5361  139.6023  158.9369 C   0  0  0  0  0  0  0  0  0  0  0  0
  144.6555  138.6498  159.3373 C   0  0  0  0  0  0  0  0  0  0  0  0
  145.1874  138.7162  160.4456 O   0  0  0  0  0  0  0  0  0  0  0  0
  144.9651  137.7815  158.3627 O   0  0  0  0  0  0  0  0  0  0  0  0
  145.8973  136.7408  158.6109 C   0  0  0  0  0  0  0  0  0  0  0  0
  147.3228  137.2320  158.3017 C   0  0  2  0  0  0  0  0  0  0  0  0
  147.4271  137.3509  156.8815 O   0  0  0  0  0  0  0  0  0  0  0  0
  148.3537  136.4405  156.3587 C   0  0  1  0  0  0  0  0  0  0  0  0
  149.6186  137.1732  155.9578 N   0  0  0  0  0  0  0  0  0  0  0  0
  149.7172  138.5523  156.0545 C   0  0  0  0  0  0  0  0  0  0  0  0
  150.8509  139.1987  155.7157 C   0  0  0  0  0  0  0  0  0  0  0  0
  150.9161  140.5369  155.8246 F   0  0  0  0  0  0  0  0  0  0  0  0
  152.0021  138.4370  155.2363 C   0  0  0  0  0  0  0  0  0  0  0  0
  153.0336  139.0324  154.9292 O   0  0  0  0  0  0  0  0  0  0  0  0
  151.8786  137.0810  155.1512 N   0  5  0  0  0  0  0  0  0  0  0  0
  150.7343  136.4216  155.4971 C   0  0  0  0  0  0  0  0  0  0  0  0
  150.6190  135.1979  155.4343 O   0  0  0  0  0  0  0  0  0  0  0  0
  148.6721  135.4298  157.4659 C   0  0  2  0  0  0  0  0  0  0  0  0
  147.7504  134.3465  157.3939 O   0  0  0  0  0  0  0  0  0  0  0  0
  147.9260  133.2441  158.1417 C   0  0  0  0  0  0  0  0  0  0  0  0
  146.7522  132.2792  158.0361 C   0  0  0  0  0  0  0  0  0  0  0  0
  148.8975  132.9931  158.8539 O   0  0  0  0  0  0  0  0  0  0  0  0
  148.4535  136.2728  158.7091 C   0  0  2  0  0  0  0  0  0  0  0  0
  148.2009  135.4667  159.8551 O   0  0  0  0  0  0  0  0  0  0  0  0
  147.6603  136.0085  160.9598 C   0  0  0  0  0  0  0  0  0  0  0  0
  147.4296  134.9784  162.0570 C   0  0  0  0  0  0  0  0  0  0  0  0
  147.3525  137.1904  161.1132 O   0  0  0  0  0  0  0  0  0  0  0  0
  143.2058  139.4096  157.9157 H   0  0  0  0  0  0  0  0  0  0  0  0
  143.8809  140.6346  158.9973 H   0  0  0  0  0  0  0  0  0  0  0  0
  142.6827  139.4828  159.6043 H   0  0  0  0  0  0  0  0  0  0  0  0
  145.8302  136.3799  159.6377 H   0  0  0  0  0  0  0  0  0  0  0  0
  145.6451  135.9032  157.9595 H   0  0  0  0  0  0  0  0  0  0  0  0
  147.4729  138.2149  158.7496 H   0  0  0  0  0  0  0  0  0  0  0  0
  147.9652  136.0015  155.4380 H   0  0  0  0  0  0  0  0  0  0  0  0
  148.8829  139.1369  156.4102 H   0  0  0  0  0  0  0  0  0  0  0  0
  149.7049  135.0842  157.4006 H   0  0  0  0  0  0  0  0  0  0  0  0
  146.2051  132.4346  157.1058 H   0  0  0  0  0  0  0  0  0  0  0  0
  146.0667  132.4288  158.8702 H   0  0  0  0  0  0  0  0  0  0  0  0
  147.1056  131.2482  158.0597 H   0  0  0  0  0  0  0  0  0  0  0  0
  149.3627  136.8573  158.8593 H   0  0  0  0  0  0  0  0  0  0  0  0
  148.2589  134.2719  162.0993 H   0  0  0  0  0  0  0  0  0  0  0  0
  146.5112  134.4241  161.8646 H   0  0  0  0  0  0  0  0  0  0  0  0
  147.3427  135.4668  163.0278 H   0  0  0  0  0  0  0  0  0  0  0  0
  1  2  1  0  0  0  0
  1 28  1  0  0  0  0
  1 29  1  0  0  0  0
  1 30  1  0  0  0  0
  2  3  2  0  0  0  0
  2  4  1  0  0  0  0
  4  5  1  0  0  0  0
  5  6  1  0  0  0  0
  5 31  1  0  0  0  0
  5 32  1  0  0  0  0
  6 23  1  0  0  0  0
  6  7  1  0  0  0  0
  6 33  1  0  0  0  0
  7  8  1  0  0  0  0
  8  9  1  0  0  0  0
  8 18  1  0  0  0  0
  8 34  1  0  0  0  0
  9 16  1  0  0  0  0
  9 10  1  0  0  0  0
 10 11  2  0  0  0  0
 10 35  1  0  0  0  0
 11 12  1  0  0  0  0
 11 13  1  0  0  0  0
 13 14  2  0  0  0  0
 13 15  1  0  0  0  0
 15 16  1  0  0  0  0
 16 17  2  0  0  0  0
 18 19  1  0  0  0  0
 18 23  1  0  0  0  0
 18 36  1  0  0  0  0
 19 20  1  0  0  0  0
 20 21  1  0  0  0  0
 20 22  2  0  0  0  0
 21 37  1  0  0  0  0
 21 38  1  0  0  0  0
 21 39  1  0  0  0  0
 23 24  1  0  0  0  0
 23 40  1  0  0  0  0
 24 25  1  0  0  0  0
 25 26  1  0  0  0  0
 25 27  2  0  0  0  0
 26 41  1  0  0  0  0
 26 42  1  0  0  0  0
 26 43  1  0  0  0  0
M  CHG  1  15  -1
M  END
> <s_m_source_file>
AV-unprocessed.smi

> <i_m_source_file_index>
102

> <i_lp_mmshare_version>
43012

> <i_f3d_flags>
0

> <s_epik_input>
W0NIM11DKD1PKU9bQ0gyXVtDQEBIXTFPW0NASF0oW0NAQEhdKE9DKD1PKVtDSDNdKVtDQEhdMU9DKD1PKVtDSDNdKW4yW2NIXWMoRiljKD1PKVtuSF1jMj1P

> <s_epik_cmdline>
J2VwaWtfcHl0aG9uJywgJy1waCcsICc3LjAnLCAnLXRuJywgJzgnLCAnLW1hJywgJzIwMCcsICctbWV0YWxfYmluZGluZycsICctaW1hZScsICc8aW5maWxlLm1hZT4nLCAnLW9tYWUnLCAnPG91dGZpbGUubWFlPic=

> <r_epik_Ionization_Penalty>
1.40304

> <r_epik_Ionization_Penalty_Charging>
1.43915e-08

> <r_epik_Ionization_Penalty_Neutral>
1.40304

> <r_epik_State_Penalty>
1.48536

> <r_epik_Charging_Adjusted_Penalty>
1.48536

> <i_epik_Tot_Q>
-1

> <i_epik_Tot_abs_Q>
1

> <r_epik_Metal_State_Penalty>
0.00663881

> <b_epik_Metal_Only>
0

> <s_epik_Chemistry_Notes>
This compound has an ester and may undergo hydrolysis at high or low pH. This compound contains an acetal/aminal-like group ( X-CH(R)-Y where X, Y are N, S, or O) that may be acid/base labile, releasing an aldehyde.

> <s_lp_Force_Field>
OPLS_2005

> <r_lp_Energy>
27.0853

> <b_lp_Chiralities_Consistent>
1

> <s_lp_Variant>
AV-unprocessed.smi:102-29

> <Gold.Version>
5.8.1

> <Gold.Id.Protein>
6NUR|6NUR_protein|mol2

> <Gold.PLP.Fitness>
43.6071

> <Gold.PLP.PLP>
-27.0990

> <Gold.PLP.part.hbond>
-5.9937

> <Gold.PLP.part.metal>
0.0000

> <Gold.PLP.part.buried>
-5.8624

> <Gold.PLP.part.nonpolar>
-16.3722

> <Gold.PLP.part.repulsive>
0.1626

> <Gold.PLP.ligand.clash>
0.0000

> <Gold.PLP.ligand.torsion>
0.5428

> <Gold.PLP.Chemscore.Hbond>
5.8313

> <Gold.PLP.Chemscore.CHOScore>
0.0000

> <Gold.PLP.Chemscore.Metal>
0.0000

> <Gold.Chemscore.Hbonds>
donor molecule, donor type, donor heavy atom, donor atom, acceptor molecule, acceptor atom, score
      P1  H  6896  6908       L1    22  0.89
      P1  H  6931  6943       L1    27  0.62
      P1  H  6934  6947       L1    27  1.00
      P1  H  7997  8009       L1    14  0.91
      P1  H 10752 10764       L1    15  1.88

> <Gold.PLP.Chemscore.Internal.Correction>
0.1000

> <Gold.Rescore>
     Score         DG    S(hbond)    S(metal)    S(lipo)     H(rot)  DE(clash)    DE(int)     intcor
      7.66     -10.81       3.78        0.00      25.02       4.00       0.00       3.14       ----

> <Gold.Chemscore.Fitness>
7.6607

> <Gold.Chemscore.DG>
-10.8091

> <Gold.Chemscore.ZeroCoef>
-5.4800

> <Gold.Chemscore.Hbond>
3.7811

> <Gold.Chemscore.Metal>
0.0000

> <Gold.Chemscore.Lipo>
25.0219

> <Gold.Chemscore.Internal_Hbond>
0.0000

> <Gold.Chemscore.DEClash>
0.0048

> <Gold.Chemscore.DEInternal>
3.1436

> <Gold.Chemscore.Rot>
3.9951

> <Gold.Chemscore.Internal.Correction>
   9.000000E+99

> <Gold.Chemscore.Hbonds>
donor molecule, donor type, donor heavy atom, donor atom, acceptor molecule, acceptor atom, score
      P1  H  6896  6908       L1    22  0.82
      P1  H  6931  6943       L1    27  0.45
      P1  H  6934  6947       L1    27  0.97
      P1  H  7997  8009       L1    14  0.87
      P1  H 10752 10764       L1    15  0.20

> <Gold.Chemscore.Hbond.Weighted>
-12.6289

> <Gold.Chemscore.Metal.Weighted>
-0.0000

> <Gold.Chemscore.Lipo.Weighted>
-2.9276

> <Gold.Chemscore.Internal_Hbond.Weighted>
0.0000

> <Gold.Chemscore.DEClash.Weighted>
0.0048

> <Gold.Chemscore.DEInternal.Weighted>
3.1436

> <Gold.Chemscore.Rot.Weighted>
10.2274

> <Gold.Chemscore.Internal.Correction.Weighted>
   9.000000E+99

> <Gold.Protein.RotatedTorsions>
[ 6907 6896 6895 6894 ] final  122.22 input  -60.11 | X-H torsion
[ 7974 7965 7964 7962 ] final   41.99 input  175.53 | X-H torsion
[ 8008 7997 7996 7995 ] final -137.18 input   59.86 | X-H torsion
[ 10167 10162 10161 10158 ] final  141.45 input  -65.29 | X-H torsion
[ 10718 10713 10712 10709 ] final   95.48 input   66.30 | X-H torsion
[ 10763 10752 10751 10750 ] final  -52.59 input  -60.55 | X-H torsion
[ 11005 11000 10999 10996 ] final  -63.05 input  -57.11 | X-H torsion

> <Gold.Protein.ActiveResidues>
 VAL166  LYS551  ARG553  GLY616  TRP617  ASP618  TYR619  PRO620  LYS621  CYS622 
 ASP623  PHE694  ASN695  SER759  ASP760  ASP761  ALA762  ILE779  LEU786  VAL792 
 PHE793  MET794  SER795  GLU796  ALA797  LYS798  CYS799  TRP800  GLU811  SER814 

> <Gold.Protein.RotatedAtoms>
  152.4260  133.7196  159.6525 H   0  0  0  0  0  0  0  0  0  0  0  0  # atno 6907 bound_to 6896
  150.8137  133.8365  159.3176 H   0  0  0  0  0  0  0  0  0  0  0  0  # atno 6908 bound_to 6896
  151.6067  135.1045  160.0124 H   0  0  0  0  0  0  0  0  0  0  0  0  # atno 6909 bound_to 6896
  146.0778  139.5352  142.9556 H   0  0  0  0  0  0  0  0  0  0  0  0  # atno 7974 bound_to 7965
  155.4076  140.0510  157.3033 H   0  0  0  0  0  0  0  0  0  0  0  0  # atno 8008 bound_to 7997
  154.4961  140.2139  155.9404 H   0  0  0  0  0  0  0  0  0  0  0  0  # atno 8009 bound_to 7997
  156.1407  140.3155  155.8496 H   0  0  0  0  0  0  0  0  0  0  0  0  # atno 8010 bound_to 7997
  139.5020  144.6170  151.6140 H   0  0  0  0  0  0  0  0  0  0  0  0  # atno 10167 bound_to 10162
  157.6938  131.0547  150.4346 H   0  0  0  0  0  0  0  0  0  0  0  0  # atno 10718 bound_to 10713
  154.1452  135.6499  153.4951 H   0  0  0  0  0  0  0  0  0  0  0  0  # atno 10763 bound_to 10752
  153.0154  135.5325  154.6864 H   0  0  0  0  0  0  0  0  0  0  0  0  # atno 10764 bound_to 10752
  154.6136  135.2956  155.0375 H   0  0  0  0  0  0  0  0  0  0  0  0  # atno 10765 bound_to 10752
  141.1380  133.6647  156.5621 H   0  0  0  0  0  0  0  0  0  0  0  0  # atno 11005 bound_to 11000
  145.6274  141.0311  143.1882 LP  0  0  0  0  0  0  0  0  0  0  0  0  # atno 17320 bound_to 7965
  144.7273  139.7836  143.7360 LP  0  0  0  0  0  0  0  0  0  0  0  0  # atno 17321 bound_to 7965
  140.5861  143.9861  150.6297 LP  0  0  0  0  0  0  0  0  0  0  0  0  # atno 17342 bound_to 10162
  140.3026  143.3250  152.0957 LP  0  0  0  0  0  0  0  0  0  0  0  0  # atno 17343 bound_to 10162
  156.4710  130.4052  149.6518 LP  0  0  0  0  0  0  0  0  0  0  0  0  # atno 17370 bound_to 10713
  156.3599  130.7476  151.2446 LP  0  0  0  0  0  0  0  0  0  0  0  0  # atno 17371 bound_to 10713
  140.3980  134.7382  157.4762 LP  0  0  0  0  0  0  0  0  0  0  0  0  # atno 17394 bound_to 11000
  140.0517  134.6121  155.8854 LP  0  0  0  0  0  0  0  0  0  0  0  0  # atno 17395 bound_to 11000

$$$$
