AV-unprocessed.smi:283|AV-procd|sdf|2154|dock10
  -GOLD-   2262021503D 1   1.00000     0.00000
 Structure written by MMmdl.
 48 51  0  0  0  0  0  0  0  0  1 V2000
  152.7774  140.1572  158.2327 C   0  0  0  0  0  0  0  0  0  0  0  0
  151.6371  141.1525  157.9792 C   0  0  1  0  0  0  0  0  0  0  0  0
  150.3507  140.4872  158.1742 N   0  0  0  0  0  0  0  0  0  0  0  0
  149.3982  140.5074  157.2153 C   0  0  0  0  0  0  0  0  0  0  0  0
  149.1339  141.7239  156.6826 N   0  0  0  0  0  0  0  0  0  0  0  0
  148.2229  141.8483  155.7141 C   0  0  0  0  0  0  0  0  0  0  0  0
  147.4756  140.9008  155.1470 N   0  0  0  0  0  0  0  0  0  0  0  0
  147.7230  139.6720  155.6859 C   0  0  0  0  0  0  0  0  0  0  0  0
  148.6591  139.3908  156.7229 C   0  0  0  0  0  0  0  0  0  0  0  0
  148.6171  138.0339  157.0209 N   0  0  0  0  0  0  0  0  0  0  0  0
  147.7276  137.5472  156.2009 C   0  0  0  0  0  0  0  0  0  0  0  0
  147.1370  138.4631  155.3614 N   0  0  0  0  0  0  0  0  0  0  0  0
  146.0890  138.1918  154.3234 C   0  0  2  0  0  0  0  0  0  0  0  0
  145.8586  136.8154  154.2428 O   0  0  0  0  0  0  0  0  0  0  0  0
  146.1006  136.3445  152.9179 C   0  0  1  0  0  0  0  0  0  0  0  0
  145.1563  135.1685  152.6224 C   0  0  0  0  0  0  0  0  0  0  0  0
  145.3257  134.7125  151.2972 O   0  0  0  0  0  0  0  0  0  0  0  0
  145.8821  137.5878  152.0510 C   0  0  2  0  0  0  0  0  0  0  0  0
  146.4899  137.5098  150.7757 O   0  0  0  0  0  0  0  0  0  0  0  0
  146.4748  138.6901  152.9172 C   0  0  2  0  0  0  0  0  0  0  0  0
  147.8744  138.8402  152.7305 O   0  0  0  0  0  0  0  0  0  0  0  0
  151.8386  142.4171  158.8196 C   0  0  0  0  0  0  0  0  0  0  0  0
  152.2110  142.3084  160.1801 C   0  0  0  0  0  0  0  0  0  0  0  0
  152.3955  143.4591  160.9690 C   0  0  0  0  0  0  0  0  0  0  0  0
  152.2176  144.7343  160.4038 C   0  0  0  0  0  0  0  0  0  0  0  0
  151.8628  144.8557  159.0477 C   0  0  0  0  0  0  0  0  0  0  0  0
  151.6778  143.7068  158.2526 C   0  0  0  0  0  0  0  0  0  0  0  0
  151.2586  143.9182  156.5882 Cl  0  0  0  0  0  0  0  0  0  0  0  0
  145.1891  138.6740  154.7076 H   0  0  0  0  0  0  0  0  0  0  0  0
  147.1412  136.0209  152.8603 H   0  0  0  0  0  0  0  0  0  0  0  0
  144.8127  137.7647  151.9249 H   0  0  0  0  0  0  0  0  0  0  0  0
  145.9999  139.6532  152.7282 H   0  0  0  0  0  0  0  0  0  0  0  0
  153.7460  140.6052  158.0088 H   0  0  0  0  0  0  0  0  0  0  0  0
  152.6737  139.2716  157.6052 H   0  0  0  0  0  0  0  0  0  0  0  0
  152.7950  139.8292  159.2726 H   0  0  0  0  0  0  0  0  0  0  0  0
  151.6814  141.4164  156.9240 H   0  0  0  0  0  0  0  0  0  0  0  0
  150.1294  140.2765  159.1366 H   0  0  0  0  0  0  0  0  0  0  0  0
  148.0725  142.8495  155.3380 H   0  0  0  0  0  0  0  0  0  0  0  0
  147.4746  136.4970  156.1886 H   0  0  0  0  0  0  0  0  0  0  0  0
  145.3759  134.3383  153.2943 H   0  0  0  0  0  0  0  0  0  0  0  0
  144.1153  135.4483  152.7866 H   0  0  0  0  0  0  0  0  0  0  0  0
  145.1917  133.7772  151.2814 H   0  0  0  0  0  0  0  0  0  0  0  0
  145.8685  137.8182  150.1336 H   0  0  0  0  0  0  0  0  0  0  0  0
  148.2282  138.0125  152.4431 H   0  0  0  0  0  0  0  0  0  0  0  0
  152.3550  141.3372  160.6304 H   0  0  0  0  0  0  0  0  0  0  0  0
  152.6739  143.3623  162.0082 H   0  0  0  0  0  0  0  0  0  0  0  0
  152.3580  145.6187  161.0076 H   0  0  0  0  0  0  0  0  0  0  0  0
  151.7341  145.8370  158.6150 H   0  0  0  0  0  0  0  0  0  0  0  0
  1  2  1  0  0  0  0
  1 33  1  0  0  0  0
  1 34  1  0  0  0  0
  1 35  1  0  0  0  0
  2  3  1  0  0  0  0
  2 22  1  0  0  0  0
  2 36  1  0  0  0  0
  3  4  1  0  0  0  0
  3 37  1  0  0  0  0
  4  9  1  0  0  0  0
  4  5  2  0  0  0  0
  5  6  1  0  0  0  0
  6  7  2  0  0  0  0
  6 38  1  0  0  0  0
  7  8  1  0  0  0  0
  8 12  1  0  0  0  0
  8  9  2  0  0  0  0
  9 10  1  0  0  0  0
 10 11  2  0  0  0  0
 11 12  1  0  0  0  0
 11 39  1  0  0  0  0
 12 13  1  0  0  0  0
 13 29  1  0  0  0  0
 13 20  1  0  0  0  0
 13 14  1  0  0  0  0
 14 15  1  0  0  0  0
 15 30  1  0  0  0  0
 15 16  1  0  0  0  0
 15 18  1  0  0  0  0
 16 17  1  0  0  0  0
 16 40  1  0  0  0  0
 16 41  1  0  0  0  0
 17 42  1  0  0  0  0
 18 31  1  0  0  0  0
 18 19  1  0  0  0  0
 18 20  1  0  0  0  0
 19 43  1  0  0  0  0
 20 32  1  0  0  0  0
 20 21  1  0  0  0  0
 21 44  1  0  0  0  0
 22 27  1  0  0  0  0
 22 23  2  0  0  0  0
 23 24  1  0  0  0  0
 23 45  1  0  0  0  0
 24 25  2  0  0  0  0
 24 46  1  0  0  0  0
 25 26  1  0  0  0  0
 25 47  1  0  0  0  0
 26 27  2  0  0  0  0
 26 48  1  0  0  0  0
 27 28  1  0  0  0  0
M  END
> <s_m_source_file>
AV-unprocessed.smi

> <i_m_source_file_index>
283

> <i_lp_mmshare_version>
43012

> <i_f3d_flags>
0

> <s_epik_input>
Q2xjMVtjSF1bY0hdW2NIXVtjSF1jMVtDQEhdKFtDSDNdKVtOSF1jKG5bY0hdbjIpYyhjMjMpbltjSF1uM1tDQEBIXTRPW0NASF0oW0NIMl1bT0hdKVtDQEBIXShbT0hdKVtDQEhdNFtPSF0=

> <s_epik_cmdline>
J2VwaWtfcHl0aG9uJywgJy1waCcsICc3LjAnLCAnLXRuJywgJzgnLCAnLW1hJywgJzIwMCcsICctbWV0YWxfYmluZGluZycsICctaW1hZScsICc8aW5maWxlLm1hZT4nLCAnLW9tYWUnLCAnPG91dGZpbGUubWFlPic=

> <r_lp_tautomer_probability>
1

> <r_epik_Ionization_Penalty>
0.000266407

> <r_epik_Ionization_Penalty_Charging>
0

> <r_epik_Ionization_Penalty_Neutral>
0.000266407

> <r_epik_State_Penalty>
-0

> <r_epik_Charging_Adjusted_Penalty>
0

> <i_epik_Tot_Q>
0

> <i_epik_Tot_abs_Q>
0

> <r_epik_Metal_State_Penalty>
-0

> <b_epik_Metal_Only>
0

> <s_epik_Chemistry_Notes>
This compound contains an acetal/aminal-like group ( X-CH(R)-Y where X, Y are N, S, or O) that may be acid/base labile, releasing an aldehyde.

> <s_lp_Force_Field>
OPLS_2005

> <r_lp_Energy>
52.4072

> <b_lp_Chiralities_Consistent>
1

> <s_lp_Variant>
AV-unprocessed.smi:283-30

> <Gold.Version>
5.8.1

> <Gold.Id.Protein>
6NUR|6NUR_protein|mol2

> <Gold.PLP.Fitness>
46.4940

> <Gold.PLP.PLP>
-37.4894

> <Gold.PLP.part.hbond>
-5.0000

> <Gold.PLP.part.metal>
0.0000

> <Gold.PLP.part.buried>
0.4126

> <Gold.PLP.part.nonpolar>
-33.2366

> <Gold.PLP.part.repulsive>
0.4392

> <Gold.PLP.ligand.clash>
0.0000

> <Gold.PLP.ligand.torsion>
0.9997

> <Gold.PLP.Chemscore.Hbond>
2.6334

> <Gold.PLP.Chemscore.CHOScore>
1.0000

> <Gold.PLP.Chemscore.Metal>
0.0000

> <Gold.Chemscore.Hbonds>
donor molecule, donor type, donor heavy atom, donor atom, acceptor molecule, acceptor atom, score
      L1  H    19    43       P1 10171  0.66
      L1  H    21    44       P1  7948  1.00
      P1  H  7954  7966       L1    19  1.00
      L1  C     6    38       P1  8028  1.00

> <Gold.PLP.Chemscore.Internal.Correction>
0.1039

> <Gold.Rescore>
     Score         DG    S(hbond)    S(metal)    S(lipo)     H(rot)  DE(clash)    DE(int)     intcor
     12.67     -15.92       2.21        0.00     115.74       4.10       2.61       0.64       ----

> <Gold.Chemscore.Fitness>
12.6745

> <Gold.Chemscore.DG>
-15.9154

> <Gold.Chemscore.ZeroCoef>
-5.4800

> <Gold.Chemscore.Hbond>
2.2100

> <Gold.Chemscore.Metal>
0.0000

> <Gold.Chemscore.Lipo>
115.7434

> <Gold.Chemscore.Internal_Hbond>
0.0000

> <Gold.Chemscore.DEClash>
2.6054

> <Gold.Chemscore.DEInternal>
0.6355

> <Gold.Chemscore.Rot>
4.0968

> <Gold.Chemscore.Internal.Correction>
   9.000000E+99

> <Gold.Chemscore.Hbonds>
donor molecule, donor type, donor heavy atom, donor atom, acceptor molecule, acceptor atom, score
      L1  H    19    43       P1 10171  0.64
      L1  H    21    44       P1  7948  0.97
      P1  H  7954  7966       L1    19  0.29

> <Gold.Chemscore.Hbond.Weighted>
-7.3814

> <Gold.Chemscore.Metal.Weighted>
-0.0000

> <Gold.Chemscore.Lipo.Weighted>
-13.5420

> <Gold.Chemscore.Internal_Hbond.Weighted>
0.0000

> <Gold.Chemscore.DEClash.Weighted>
2.6054

> <Gold.Chemscore.DEInternal.Weighted>
0.6355

> <Gold.Chemscore.Rot.Weighted>
10.4879

> <Gold.Chemscore.Internal.Correction.Weighted>
   9.000000E+99

> <Gold.Protein.RotatedTorsions>
[ 6907 6896 6895 6894 ] final  153.96 input  -60.11 | X-H torsion
[ 7974 7965 7964 7962 ] final   82.95 input  175.53 | X-H torsion
[ 8008 7997 7996 7995 ] final -107.76 input   59.86 | X-H torsion
[ 10167 10162 10161 10158 ] final -163.35 input  -65.29 | X-H torsion
[ 10718 10713 10712 10709 ] final  139.83 input   66.30 | X-H torsion
[ 10763 10752 10751 10750 ] final  158.40 input  -60.55 | X-H torsion
[ 11005 11000 10999 10996 ] final -154.64 input  -57.11 | X-H torsion

> <Gold.Protein.ActiveResidues>
 VAL166  LYS551  ARG553  GLY616  TRP617  ASP618  TYR619  PRO620  LYS621  CYS622 
 ASP623  PHE694  ASN695  SER759  ASP760  ASP761  ALA762  ILE779  LEU786  VAL792 
 PHE793  MET794  SER795  GLU796  ALA797  LYS798  CYS799  TRP800  GLU811  SER814 

> <Gold.Protein.RotatedAtoms>
  152.0653  133.4081  159.4435 H   0  0  0  0  0  0  0  0  0  0  0  0  # atno 6907 bound_to 6896
  150.6865  134.3154  159.4773 H   0  0  0  0  0  0  0  0  0  0  0  0  # atno 6908 bound_to 6896
  152.0979  134.9361  160.0621 H   0  0  0  0  0  0  0  0  0  0  0  0  # atno 6909 bound_to 6896
  145.6184  139.2381  143.2152 H   0  0  0  0  0  0  0  0  0  0  0  0  # atno 7974 bound_to 7965
  154.9342  140.0404  157.2063 H   0  0  0  0  0  0  0  0  0  0  0  0  # atno 8008 bound_to 7997
  154.8132  140.2871  155.5817 H   0  0  0  0  0  0  0  0  0  0  0  0  # atno 8009 bound_to 7997
  156.2973  140.2533  156.3024 H   0  0  0  0  0  0  0  0  0  0  0  0  # atno 8010 bound_to 7997
  139.6327  144.0409  152.2029 H   0  0  0  0  0  0  0  0  0  0  0  0  # atno 10167 bound_to 10162
  157.4100  131.1027  151.0464 H   0  0  0  0  0  0  0  0  0  0  0  0  # atno 10718 bound_to 10713
  154.2154  135.2784  155.2943 H   0  0  0  0  0  0  0  0  0  0  0  0  # atno 10763 bound_to 10752
  154.5745  135.5608  153.7129 H   0  0  0  0  0  0  0  0  0  0  0  0  # atno 10764 bound_to 10752
  153.0054  135.6329  154.2294 H   0  0  0  0  0  0  0  0  0  0  0  0  # atno 10765 bound_to 10752
  140.6952  134.3998  157.5215 H   0  0  0  0  0  0  0  0  0  0  0  0  # atno 11005 bound_to 11000
  146.1450  140.7004  142.9349 LP  0  0  0  0  0  0  0  0  0  0  0  0  # atno 17320 bound_to 7965
  144.7241  140.4469  143.6986 LP  0  0  0  0  0  0  0  0  0  0  0  0  # atno 17321 bound_to 7965
  140.0078  144.6246  150.7673 LP  0  0  0  0  0  0  0  0  0  0  0  0  # atno 17342 bound_to 10162
  140.7448  143.2866  151.3446 LP  0  0  0  0  0  0  0  0  0  0  0  0  # atno 17343 bound_to 10162
  157.1432  130.6152  149.5561 LP  0  0  0  0  0  0  0  0  0  0  0  0  # atno 17370 bound_to 10713
  155.9848  130.4874  150.6999 LP  0  0  0  0  0  0  0  0  0  0  0  0  # atno 17371 bound_to 10713
  139.8912  134.8785  156.2331 LP  0  0  0  0  0  0  0  0  0  0  0  0  # atno 17394 bound_to 11000
  141.0209  133.7042  156.1267 LP  0  0  0  0  0  0  0  0  0  0  0  0  # atno 17395 bound_to 11000

$$$$
