AV-unprocessed.smi:3255|AV-procd|sdf|12464|dock1
  -GOLD-   2272018363D 1   1.00000     0.00000
 Structure written by MMmdl.
 38 39  0  0  0  0  0  0  0  0  1 V2000
  147.1103  140.3467  153.2317 C   0  0  0  0  0  0  0  0  0  0  0  0
  147.8432  139.2421  154.0130 C   0  0  1  0  0  0  0  0  0  0  0  0
  147.5844  137.9448  153.3938 N   0  0  0  0  0  0  0  0  0  0  0  0
  146.3860  137.3498  153.3152 C   0  0  0  0  0  0  0  0  0  0  0  0
  145.3393  137.8453  153.7334 O   0  0  0  0  0  0  0  0  0  0  0  0
  146.4655  136.1469  152.7303 N   0  0  0  0  0  0  0  0  0  0  0  0
  145.3358  135.2523  152.5087 C   0  0  0  0  0  0  0  0  0  0  0  0
  144.9259  135.2174  151.0273 C   0  0  0  0  0  0  0  0  0  0  0  0
  145.0607  133.8867  150.4714 N   0  0  0  0  0  0  0  0  0  0  0  0
  146.2094  133.1077  150.4355 C   0  0  0  0  0  0  0  0  0  0  0  0
  145.8628  131.9256  149.8209 C   0  0  0  0  0  0  0  0  0  0  0  0
  144.5139  131.9553  149.4739 N   0  0  0  0  0  0  0  0  0  0  0  0
  144.1060  133.1472  149.8907 C   0  0  0  0  0  0  0  0  0  0  0  0
  149.3645  139.4777  154.0681 C   0  0  1  0  0  0  0  0  0  0  0  0
  149.8321  140.3921  155.2022 C   0  0  0  0  0  0  0  0  0  0  0  0
  151.2621  139.9445  155.4640 C   0  0  0  0  0  0  0  0  0  0  0  0
  151.3789  138.6100  154.7236 C   0  0  0  0  0  0  0  0  0  0  0  0
  150.0471  138.2692  154.3672 O   0  0  0  0  0  0  0  0  0  0  0  0
  147.2549  141.3230  153.6944 H   0  0  0  0  0  0  0  0  0  0  0  0
  146.0359  140.1625  153.1994 H   0  0  0  0  0  0  0  0  0  0  0  0
  147.4680  140.4091  152.2036 H   0  0  0  0  0  0  0  0  0  0  0  0
  147.4631  139.2282  155.0363 H   0  0  0  0  0  0  0  0  0  0  0  0
  148.3846  137.4529  153.0242 H   0  0  0  0  0  0  0  0  0  0  0  0
  147.3713  135.8249  152.4216 H   0  0  0  0  0  0  0  0  0  0  0  0
  145.5791  134.2490  152.8631 H   0  0  0  0  0  0  0  0  0  0  0  0
  144.5023  135.6029  153.1180 H   0  0  0  0  0  0  0  0  0  0  0  0
  143.8912  135.5416  150.9081 H   0  0  0  0  0  0  0  0  0  0  0  0
  145.5420  135.8986  150.4389 H   0  0  0  0  0  0  0  0  0  0  0  0
  147.1511  133.4495  150.8396 H   0  0  0  0  0  0  0  0  0  0  0  0
  146.4752  131.0628  149.6047 H   0  0  0  0  0  0  0  0  0  0  0  0
  143.0884  133.4896  149.7726 H   0  0  0  0  0  0  0  0  0  0  0  0
  149.7280  139.8585  153.1113 H   0  0  0  0  0  0  0  0  0  0  0  0
  149.7618  141.4495  154.9458 H   0  0  0  0  0  0  0  0  0  0  0  0
  149.2303  140.2228  156.0962 H   0  0  0  0  0  0  0  0  0  0  0  0
  151.9855  140.6638  155.0789 H   0  0  0  0  0  0  0  0  0  0  0  0
  151.4404  139.8276  156.5335 H   0  0  0  0  0  0  0  0  0  0  0  0
  151.9740  138.7255  153.8166 H   0  0  0  0  0  0  0  0  0  0  0  0
  151.8349  137.8296  155.3334 H   0  0  0  0  0  0  0  0  0  0  0  0
  1  2  1  0  0  0  0
  1 19  1  0  0  0  0
  1 20  1  0  0  0  0
  1 21  1  0  0  0  0
  2  3  1  0  0  0  0
  2 14  1  0  0  0  0
  2 22  1  0  0  0  0
  3  4  1  0  0  0  0
  3 23  1  0  0  0  0
  4  5  2  0  0  0  0
  4  6  1  0  0  0  0
  6  7  1  0  0  0  0
  6 24  1  0  0  0  0
  7  8  1  0  0  0  0
  7 25  1  0  0  0  0
  7 26  1  0  0  0  0
  8  9  1  0  0  0  0
  8 27  1  0  0  0  0
  8 28  1  0  0  0  0
  9 13  1  0  0  0  0
  9 10  1  0  0  0  0
 10 11  2  0  0  0  0
 10 29  1  0  0  0  0
 11 12  1  0  0  0  0
 11 30  1  0  0  0  0
 12 13  2  0  0  0  0
 13 31  1  0  0  0  0
 14 18  1  0  0  0  0
 14 15  1  0  0  0  0
 14 32  1  0  0  0  0
 15 16  1  0  0  0  0
 15 33  1  0  0  0  0
 15 34  1  0  0  0  0
 16 17  1  0  0  0  0
 16 35  1  0  0  0  0
 16 36  1  0  0  0  0
 17 18  1  0  0  0  0
 17 37  1  0  0  0  0
 17 38  1  0  0  0  0
M  END
> <s_m_source_file>
AV-unprocessed.smi

> <i_m_source_file_index>
3255

> <i_lp_mmshare_version>
43012

> <i_f3d_flags>
0

> <s_epik_input>
TzFbQ0gyXVtDSDJdW0NIMl1bQ0BIXTFbQ0BIXShbQ0gzXSlbTkhdQyg9TylbTkhdW0NIMl1bQ0gyXW4yW2NIXVtjSF1uW2NIXTI=

> <s_epik_cmdline>
J2VwaWtfcHl0aG9uJywgJy1waCcsICc3LjAnLCAnLXRuJywgJzgnLCAnLW1hJywgJzIwMCcsICctbWV0YWxfYmluZGluZycsICctaW1hZScsICc8aW5maWxlLm1hZT4nLCAnLW9tYWUnLCAnPG91dGZpbGUubWFlPic=

> <r_lp_tautomer_probability>
1

> <r_epik_Ionization_Penalty>
0.620274

> <r_epik_Ionization_Penalty_Charging>
0.620225

> <r_epik_Ionization_Penalty_Neutral>
4.91362e-05

> <r_epik_State_Penalty>
0.636186

> <r_epik_Charging_Adjusted_Penalty>
1.25641

> <i_epik_Tot_Q>
0

> <i_epik_Tot_abs_Q>
0

> <r_epik_Metal_State_Penalty>
0.306491

> <b_epik_Metal_Only>
0

> <s_lp_Force_Field>
OPLS_2005

> <r_lp_Energy>
17.3194

> <b_lp_Chiralities_Consistent>
1

> <s_lp_Variant>
AV-unprocessed.smi:3255-8

> <Gold.Version>
5.8.1

> <Gold.Id.Protein>
6NUR|6NUR_protein|mol2

> <Gold.PLP.Fitness>
42.3286

> <Gold.PLP.PLP>
-32.5652

> <Gold.PLP.part.hbond>
-2.9761

> <Gold.PLP.part.metal>
0.0000

> <Gold.PLP.part.buried>
-1.7089

> <Gold.PLP.part.nonpolar>
-28.9777

> <Gold.PLP.part.repulsive>
0.5754

> <Gold.PLP.ligand.clash>
0.0000

> <Gold.PLP.ligand.torsion>
1.0088

> <Gold.PLP.Chemscore.Hbond>
2.0128

> <Gold.PLP.Chemscore.CHOScore>
1.8948

> <Gold.PLP.Chemscore.Metal>
0.0000

> <Gold.Chemscore.Hbonds>
donor molecule, donor type, donor heavy atom, donor atom, acceptor molecule, acceptor atom, score
      L1  H     3    23       P1  7948  0.93
      L1  H     6    24       P1  7948  0.98
      P1  H 10785 10796       L1    12  0.11
      L1  C    11    30       P1 10747  0.79
      L1  C    13    31       P1 10186  1.00

> <Gold.PLP.Chemscore.Internal.Correction>
0.0582

> <Gold.Rescore>
     Score         DG    S(hbond)    S(metal)    S(lipo)     H(rot)  DE(clash)    DE(int)     intcor
     15.37     -16.41       2.56        0.00      68.01       2.18       0.06       0.97       ----

> <Gold.Chemscore.Fitness>
15.3729

> <Gold.Chemscore.DG>
-16.4056

> <Gold.Chemscore.ZeroCoef>
-5.4800

> <Gold.Chemscore.Hbond>
2.5618

> <Gold.Chemscore.Metal>
0.0000

> <Gold.Chemscore.Lipo>
68.0122

> <Gold.Chemscore.Internal_Hbond>
0.0000

> <Gold.Chemscore.DEClash>
0.0611

> <Gold.Chemscore.DEInternal>
0.9716

> <Gold.Chemscore.Rot>
2.1828

> <Gold.Chemscore.Internal.Correction>
   9.000000E+99

> <Gold.Chemscore.Hbonds>
donor molecule, donor type, donor heavy atom, donor atom, acceptor molecule, acceptor atom, score
      L1  H     3    23       P1  7948  0.90
      L1  H     6    24       P1  7948  0.93
      P1  H 10785 10796       L1    12  0.12

> <Gold.Chemscore.Hbond.Weighted>
-8.5563

> <Gold.Chemscore.Metal.Weighted>
-0.0000

> <Gold.Chemscore.Lipo.Weighted>
-7.9574

> <Gold.Chemscore.Internal_Hbond.Weighted>
0.0000

> <Gold.Chemscore.DEClash.Weighted>
0.0611

> <Gold.Chemscore.DEInternal.Weighted>
0.9716

> <Gold.Chemscore.Rot.Weighted>
5.5881

> <Gold.Chemscore.Internal.Correction.Weighted>
   9.000000E+99

> <Gold.Protein.RotatedTorsions>
[ 6907 6896 6895 6894 ] final   15.13 input  -60.11 | X-H torsion
[ 7974 7965 7964 7962 ] final  141.49 input  175.53 | X-H torsion
[ 8008 7997 7996 7995 ] final   86.06 input   59.86 | X-H torsion
[ 10167 10162 10161 10158 ] final -128.68 input  -65.29 | X-H torsion
[ 10718 10713 10712 10709 ] final  -85.92 input   66.30 | X-H torsion
[ 10763 10752 10751 10750 ] final -146.83 input  -60.55 | X-H torsion
[ 11005 11000 10999 10996 ] final -161.49 input  -57.11 | X-H torsion

> <Gold.Protein.ActiveResidues>
 VAL166  LYS551  ARG553  GLY616  TRP617  ASP618  TYR619  PRO620  LYS621  CYS622 
 ASP623  PHE694  ASN695  SER759  ASP760  ASP761  ALA762  ILE779  LEU786  VAL792 
 PHE793  MET794  SER795  GLU796  ALA797  LYS798  CYS799  TRP800  GLU811  SER814 

> <Gold.Protein.RotatedAtoms>
  151.8132  135.0674  160.0415 H   0  0  0  0  0  0  0  0  0  0  0  0  # atno 6907 bound_to 6896
  152.3005  133.5646  159.5624 H   0  0  0  0  0  0  0  0  0  0  0  0  # atno 6908 bound_to 6896
  150.7271  134.0214  159.3744 H   0  0  0  0  0  0  0  0  0  0  0  0  # atno 6909 bound_to 6896
  144.9092  139.5316  143.5717 H   0  0  0  0  0  0  0  0  0  0  0  0  # atno 7974 bound_to 7965
  155.9580  140.3395  155.6466 H   0  0  0  0  0  0  0  0  0  0  0  0  # atno 8008 bound_to 7997
  155.6835  140.0740  157.2494 H   0  0  0  0  0  0  0  0  0  0  0  0  # atno 8009 bound_to 7997
  154.4136  140.1670  156.1995 H   0  0  0  0  0  0  0  0  0  0  0  0  # atno 8010 bound_to 7997
  139.9477  143.6091  152.2485 H   0  0  0  0  0  0  0  0  0  0  0  0  # atno 10167 bound_to 10162
  155.9993  130.4747  150.4636 H   0  0  0  0  0  0  0  0  0  0  0  0  # atno 10718 bound_to 10713
  154.8316  135.3376  154.6723 H   0  0  0  0  0  0  0  0  0  0  0  0  # atno 10763 bound_to 10752
  153.7342  135.6950  153.4986 H   0  0  0  0  0  0  0  0  0  0  0  0  # atno 10764 bound_to 10752
  153.2290  135.4423  155.0526 H   0  0  0  0  0  0  0  0  0  0  0  0  # atno 10765 bound_to 10752
  140.6199  134.4762  157.5222 H   0  0  0  0  0  0  0  0  0  0  0  0  # atno 11005 bound_to 11000
  146.3149  139.7884  142.8991 LP  0  0  0  0  0  0  0  0  0  0  0  0  # atno 17320 bound_to 7965
  145.3483  141.0302  143.3353 LP  0  0  0  0  0  0  0  0  0  0  0  0  # atno 17321 bound_to 7965
  139.6653  144.7662  151.1884 LP  0  0  0  0  0  0  0  0  0  0  0  0  # atno 17342 bound_to 10162
  140.7592  143.5947  150.8760 LP  0  0  0  0  0  0  0  0  0  0  0  0  # atno 17343 bound_to 10162
  157.2658  131.0576  151.2291 LP  0  0  0  0  0  0  0  0  0  0  0  0  # atno 17370 bound_to 10713
  157.3390  130.7023  149.6370 LP  0  0  0  0  0  0  0  0  0  0  0  0  # atno 17371 bound_to 10713
  139.9158  134.8250  156.1373 LP  0  0  0  0  0  0  0  0  0  0  0  0  # atno 17394 bound_to 11000
  141.0750  133.6779  156.2217 LP  0  0  0  0  0  0  0  0  0  0  0  0  # atno 17395 bound_to 11000

$$$$
