AV-unprocessed.smi:1509|AV-procd|sdf|6093|dock8
  -GOLD-   22720 6223D 1   1.00000     0.00000
 Structure written by MMmdl.
 42 43  0  0  0  0  0  0  0  0  2 V2000
  149.6355  144.9540  160.1132 C   0  0  0  0  0  0  0  0  0  0  0  0
  150.3179  144.5858  158.7883 C   0  0  1  0  0  0  0  0  0  0  0  0
  151.8467  144.5232  158.9429 C   0  0  0  0  0  0  0  0  0  0  0  0
  152.5002  144.1236  157.6140 C   0  0  0  0  0  0  0  0  0  0  0  0
  151.9126  142.8050  157.0864 C   0  0  0  0  0  0  0  0  0  0  0  0
  150.4371  142.8988  156.9408 N   0  3  1  0  0  0  0  0  0  0  0  0
  149.8553  141.6898  156.3045 C   0  0  0  0  0  0  0  0  0  0  0  0
  149.6452  141.8704  154.7916 C   0  0  0  0  0  0  0  0  0  0  0  0
  148.9503  140.6575  154.1512 C   0  0  0  0  0  0  0  0  0  0  0  0
  149.7829  139.4625  154.2199 N   0  0  0  0  0  0  0  0  0  0  0  0
  149.4230  138.3060  154.8002 C   0  0  0  0  0  0  0  0  0  0  0  0
  148.3423  138.1431  155.3658 O   0  0  0  0  0  0  0  0  0  0  0  0
  150.4376  137.1610  154.7500 C   0  0  0  0  0  0  0  0  0  0  0  0
  151.6930  137.5273  155.3804 N   0  0  0  0  0  0  0  0  0  0  0  0
  152.5589  138.5050  155.1057 C   0  0  0  0  0  0  0  0  0  0  0  0
  153.5967  138.4843  155.9279 N   0  0  0  0  0  0  0  0  0  0  0  0
  153.3200  137.4095  156.7568 N   0  0  0  0  0  0  0  0  0  0  0  0
  152.1913  136.8380  156.4372 N   0  0  0  0  0  0  0  0  0  0  0  0
  149.7826  143.2519  158.2295 C   0  0  0  0  0  0  0  0  0  0  0  0
  149.8286  144.2042  160.8812 H   0  0  0  0  0  0  0  0  0  0  0  0
  148.5550  145.0335  159.9905 H   0  0  0  0  0  0  0  0  0  0  0  0
  149.9952  145.9130  160.4870 H   0  0  0  0  0  0  0  0  0  0  0  0
  150.0825  145.3714  158.0685 H   0  0  0  0  0  0  0  0  0  0  0  0
  152.2342  145.4881  159.2717 H   0  0  0  0  0  0  0  0  0  0  0  0
  152.1143  143.8002  159.7147 H   0  0  0  0  0  0  0  0  0  0  0  0
  152.3473  144.9138  156.8775 H   0  0  0  0  0  0  0  0  0  0  0  0
  153.5785  144.0259  157.7436 H   0  0  0  0  0  0  0  0  0  0  0  0
  152.3658  142.5757  156.1212 H   0  0  0  0  0  0  0  0  0  0  0  0
  152.1628  141.9828  157.7589 H   0  0  0  0  0  0  0  0  0  0  0  0
  150.5323  140.8464  156.4480 H   0  0  0  0  0  0  0  0  0  0  0  0
  148.9209  141.4207  156.7994 H   0  0  0  0  0  0  0  0  0  0  0  0
  149.0509  142.7619  154.5926 H   0  0  0  0  0  0  0  0  0  0  0  0
  150.6129  142.0319  154.3144 H   0  0  0  0  0  0  0  0  0  0  0  0
  147.9874  140.4686  154.6295 H   0  0  0  0  0  0  0  0  0  0  0  0
  148.7389  140.8621  153.1014 H   0  0  0  0  0  0  0  0  0  0  0  0
  150.6901  139.5119  153.7787 H   0  0  0  0  0  0  0  0  0  0  0  0
  150.0286  136.2859  155.2564 H   0  0  0  0  0  0  0  0  0  0  0  0
  150.6314  136.8737  153.7152 H   0  0  0  0  0  0  0  0  0  0  0  0
  152.4326  139.2220  154.3079 H   0  0  0  0  0  0  0  0  0  0  0  0
  149.9457  142.4489  158.9505 H   0  0  0  0  0  0  0  0  0  0  0  0
  148.7049  143.3328  158.0904 H   0  0  0  0  0  0  0  0  0  0  0  0
  150.2690  143.6651  156.3043 H   0  0  0  0  0  0  0  0  0  0  0  0
  1  2  1  0  0  0  0
  1 20  1  0  0  0  0
  1 21  1  0  0  0  0
  1 22  1  0  0  0  0
  2 19  1  0  0  0  0
  2  3  1  0  0  0  0
  2 23  1  0  0  0  0
  3  4  1  0  0  0  0
  3 24  1  0  0  0  0
  3 25  1  0  0  0  0
  4  5  1  0  0  0  0
  4 26  1  0  0  0  0
  4 27  1  0  0  0  0
  5  6  1  0  0  0  0
  5 28  1  0  0  0  0
  5 29  1  0  0  0  0
  6  7  1  0  0  0  0
  6 19  1  0  0  0  0
  6 42  1  0  0  0  0
  7  8  1  0  0  0  0
  7 30  1  0  0  0  0
  7 31  1  0  0  0  0
  8  9  1  0  0  0  0
  8 32  1  0  0  0  0
  8 33  1  0  0  0  0
  9 10  1  0  0  0  0
  9 34  1  0  0  0  0
  9 35  1  0  0  0  0
 10 11  1  0  0  0  0
 10 36  1  0  0  0  0
 11 12  2  0  0  0  0
 11 13  1  0  0  0  0
 13 14  1  0  0  0  0
 13 37  1  0  0  0  0
 13 38  1  0  0  0  0
 14 18  1  0  0  0  0
 14 15  1  0  0  0  0
 15 16  2  0  0  0  0
 15 39  1  0  0  0  0
 16 17  1  0  0  0  0
 17 18  2  0  0  0  0
 19 40  1  0  0  0  0
 19 41  1  0  0  0  0
M  CHG  1   6   1
M  END
> <s_m_source_file>
AV-unprocessed.smi

> <i_m_source_file_index>
1509

> <i_lp_mmshare_version>
43012

> <i_f3d_flags>
0

> <s_epik_input>
W0NIM11bQ0BASF0xW0NIMl1bQ0gyXVtDSDJdTihbQ0gyXTEpW0NIMl1bQ0gyXVtDSDJdW05IXUMoPU8pW0NIMl1uMltjSF1ubm4y

> <s_epik_cmdline>
J2VwaWtfcHl0aG9uJywgJy1waCcsICc3LjAnLCAnLXRuJywgJzgnLCAnLW1hJywgJzIwMCcsICctbWV0YWxfYmluZGluZycsICctaW1hZScsICc8aW5maWxlLm1hZT4nLCAnLW9tYWUnLCAnPG91dGZpbGUubWFlPic=

> <r_lp_tautomer_probability>
1

> <r_epik_Ionization_Penalty>
0.00044216

> <r_epik_Ionization_Penalty_Charging>
0.000440775

> <r_epik_Ionization_Penalty_Neutral>
1.38512e-06

> <r_epik_State_Penalty>
0.000271914

> <r_epik_Charging_Adjusted_Penalty>
0.000712689

> <i_epik_Tot_Q>
1

> <i_epik_Tot_abs_Q>
1

> <r_epik_Metal_State_Penalty>
-0

> <b_epik_Metal_Only>
0

> <s_lp_Force_Field>
OPLS_2005

> <r_lp_Energy>
20.7135

> <b_lp_Chiralities_Consistent>
1

> <s_lp_Variant>
AV-unprocessed.smi:1509-4

> <Gold.Version>
5.8.1

> <Gold.Id.Protein>
6NUR|6NUR_protein|mol2

> <Gold.PLP.Fitness>
43.6324

> <Gold.PLP.PLP>
-33.7455

> <Gold.PLP.part.hbond>
-4.0787

> <Gold.PLP.part.metal>
0.0000

> <Gold.PLP.part.buried>
-4.7229

> <Gold.PLP.part.nonpolar>
-26.2253

> <Gold.PLP.part.repulsive>
0.1401

> <Gold.PLP.ligand.clash>
0.0000

> <Gold.PLP.ligand.torsion>
0.5744

> <Gold.PLP.Chemscore.Hbond>
3.6640

> <Gold.PLP.Chemscore.CHOScore>
0.0000

> <Gold.PLP.Chemscore.Metal>
0.0000

> <Gold.Chemscore.Hbonds>
donor molecule, donor type, donor heavy atom, donor atom, acceptor molecule, acceptor atom, score
      L1  H     6    42       P1  8028  1.66
      P1  H  7997  8010       L1    16  0.75
      P1  H 10752 10763       L1    18  0.21

> <Gold.PLP.Chemscore.Internal.Correction>
0.0438

> <Gold.Rescore>
     Score         DG    S(hbond)    S(metal)    S(lipo)     H(rot)  DE(clash)    DE(int)     intcor
     13.80     -14.76       2.40        0.00      75.68       2.97       0.15       0.81       ----

> <Gold.Chemscore.Fitness>
13.7976

> <Gold.Chemscore.DG>
-14.7583

> <Gold.Chemscore.ZeroCoef>
-5.4800

> <Gold.Chemscore.Hbond>
2.4018

> <Gold.Chemscore.Metal>
0.0000

> <Gold.Chemscore.Lipo>
75.6789

> <Gold.Chemscore.Internal_Hbond>
0.0000

> <Gold.Chemscore.DEClash>
0.1489

> <Gold.Chemscore.DEInternal>
0.8118

> <Gold.Chemscore.Rot>
2.9680

> <Gold.Chemscore.Internal.Correction>
   9.000000E+99

> <Gold.Chemscore.Hbonds>
donor molecule, donor type, donor heavy atom, donor atom, acceptor molecule, acceptor atom, score
      L1  H     6    42       P1  8028  0.83
      P1  H  7997  8010       L1    16  0.65

> <Gold.Chemscore.Hbond.Weighted>
-8.0219

> <Gold.Chemscore.Metal.Weighted>
-0.0000

> <Gold.Chemscore.Lipo.Weighted>
-8.8544

> <Gold.Chemscore.Internal_Hbond.Weighted>
0.0000

> <Gold.Chemscore.DEClash.Weighted>
0.1489

> <Gold.Chemscore.DEInternal.Weighted>
0.8118

> <Gold.Chemscore.Rot.Weighted>
7.5980

> <Gold.Chemscore.Internal.Correction.Weighted>
   9.000000E+99

> <Gold.Protein.RotatedTorsions>
[ 6907 6896 6895 6894 ] final   53.00 input  -60.11 | X-H torsion
[ 7974 7965 7964 7962 ] final  -27.16 input  175.53 | X-H torsion
[ 8008 7997 7996 7995 ] final   88.93 input   59.86 | X-H torsion
[ 10167 10162 10161 10158 ] final -152.01 input  -65.29 | X-H torsion
[ 10718 10713 10712 10709 ] final  -97.40 input   66.30 | X-H torsion
[ 10763 10752 10751 10750 ] final   95.03 input  -60.55 | X-H torsion
[ 11005 11000 10999 10996 ] final -115.33 input  -57.11 | X-H torsion

> <Gold.Protein.ActiveResidues>
 VAL166  LYS551  ARG553  GLY616  TRP617  ASP618  TYR619  PRO620  LYS621  CYS622 
 ASP623  PHE694  ASN695  SER759  ASP760  ASP761  ALA762  ILE779  LEU786  VAL792 
 PHE793  MET794  SER795  GLU796  ALA797  LYS798  CYS799  TRP800  GLU811  SER814 

> <Gold.Protein.RotatedAtoms>
  152.3291  134.7282  160.0293 H   0  0  0  0  0  0  0  0  0  0  0  0  # atno 6907 bound_to 6896
  151.7705  133.3335  159.3451 H   0  0  0  0  0  0  0  0  0  0  0  0  # atno 6908 bound_to 6896
  150.7413  134.5955  159.6054 H   0  0  0  0  0  0  0  0  0  0  0  0  # atno 6909 bound_to 6896
  146.1376  140.5115  142.8666 H   0  0  0  0  0  0  0  0  0  0  0  0  # atno 7974 bound_to 7965
  155.9937  140.3366  155.6778 H   0  0  0  0  0  0  0  0  0  0  0  0  # atno 8008 bound_to 7997
  155.6385  140.0692  157.2644 H   0  0  0  0  0  0  0  0  0  0  0  0  # atno 8009 bound_to 7997
  154.4227  140.1747  156.1535 H   0  0  0  0  0  0  0  0  0  0  0  0  # atno 8010 bound_to 7997
  139.7218  143.8945  152.2506 H   0  0  0  0  0  0  0  0  0  0  0  0  # atno 10167 bound_to 10162
  156.0083  130.5193  150.6370 H   0  0  0  0  0  0  0  0  0  0  0  0  # atno 10718 bound_to 10713
  153.2485  135.4268  155.0773 H   0  0  0  0  0  0  0  0  0  0  0  0  # atno 10763 bound_to 10752
  154.8371  135.3420  154.6547 H   0  0  0  0  0  0  0  0  0  0  0  0  # atno 10764 bound_to 10752
  153.6969  135.7030  153.5131 H   0  0  0  0  0  0  0  0  0  0  0  0  # atno 10765 bound_to 10752
  141.0494  133.9711  157.2862 H   0  0  0  0  0  0  0  0  0  0  0  0  # atno 11005 bound_to 11000
  144.7757  140.5734  143.6639 LP  0  0  0  0  0  0  0  0  0  0  0  0  # atno 17320 bound_to 7965
  145.5119  139.1479  143.3600 LP  0  0  0  0  0  0  0  0  0  0  0  0  # atno 17321 bound_to 7965
  139.8843  144.7000  150.8842 LP  0  0  0  0  0  0  0  0  0  0  0  0  # atno 17342 bound_to 10162
  140.7755  143.3636  151.1781 LP  0  0  0  0  0  0  0  0  0  0  0  0  # atno 17343 bound_to 10162
  157.4157  131.0830  151.1179 LP  0  0  0  0  0  0  0  0  0  0  0  0  # atno 17370 bound_to 10713
  157.1797  130.6304  149.5667 LP  0  0  0  0  0  0  0  0  0  0  0  0  # atno 17371 bound_to 10713
  139.9338  135.0198  156.8489 LP  0  0  0  0  0  0  0  0  0  0  0  0  # atno 17394 bound_to 11000
  140.6084  134.0106  155.7566 LP  0  0  0  0  0  0  0  0  0  0  0  0  # atno 17395 bound_to 11000

$$$$
