AV-unprocessed.smi:1701|AV-procd|sdf|6822|dock2
  -GOLD-   22720 8 03D 1   1.00000     0.00000
 Structure written by MMmdl.
 55 57  0  0  0  0  0  0  0  0  3 V2000
  151.6219  143.7518  157.6968 C   0  0  0  0  0  0  0  0  0  0  0  0
  151.1631  142.7319  156.6440 C   0  0  0  0  0  0  0  0  0  0  0  0
  151.0514  141.3705  157.1678 N   0  0  0  0  0  0  0  0  0  0  0  0
  151.4804  141.0908  158.5404 C   0  0  0  0  0  0  0  0  0  0  0  0
  152.5011  139.9465  158.6349 C   0  0  0  0  0  0  0  0  0  0  0  0
  150.3665  140.3763  156.4269 C   0  0  0  0  0  0  0  0  0  0  0  0
  150.6260  140.0961  155.0615 C   0  0  0  0  0  0  0  0  0  0  0  0
  149.8973  139.0886  154.3971 C   0  0  0  0  0  0  0  0  0  0  0  0
  148.9176  138.3531  155.0948 C   0  0  0  0  0  0  0  0  0  0  0  0
  148.1972  137.3595  154.3778 N   0  0  0  0  0  0  0  0  0  0  0  0
  146.9934  136.8235  154.6607 C   0  0  0  0  0  0  0  0  0  0  0  0
  146.3332  137.0775  155.6651 O   0  0  0  0  0  0  0  0  0  0  0  0
  146.5532  135.9399  153.7467 N   0  0  0  0  0  0  0  0  0  0  0  0
  145.2992  135.1823  153.7468 C   0  0  1  0  0  0  0  0  0  0  0  0
  144.1655  135.9097  153.0342 C   0  0  0  0  0  0  0  0  0  0  0  0
  143.1634  134.7893  152.7394 C   0  0  0  0  0  0  0  0  0  0  0  0
  143.9431  133.5309  152.6438 N   0  3  1  0  0  0  0  0  0  0  0  0
  143.7552  132.7991  151.3624 C   0  0  0  0  0  0  0  0  0  0  0  0
  144.8544  131.7446  151.1669 C   0  0  0  0  0  0  0  0  0  0  0  0
  146.2499  132.3925  151.0903 C   0  0  0  0  0  0  0  0  0  0  0  0
  146.3011  133.7675  151.7839 C   0  0  0  0  0  0  0  0  0  0  0  0
  145.3577  133.8285  153.0102 C   0  0  1  0  0  0  0  0  0  0  0  0
  148.6869  138.6726  156.4532 C   0  0  0  0  0  0  0  0  0  0  0  0
  149.4071  139.6472  157.0486 N   0  3  0  0  0  0  0  0  0  0  0  0
  151.6439  144.7553  157.2718 H   0  0  0  0  0  0  0  0  0  0  0  0
  152.6258  143.5321  158.0576 H   0  0  0  0  0  0  0  0  0  0  0  0
  150.9535  143.7736  158.5573 H   0  0  0  0  0  0  0  0  0  0  0  0
  150.2179  143.0412  156.1983 H   0  0  0  0  0  0  0  0  0  0  0  0
  151.8773  142.7319  155.8202 H   0  0  0  0  0  0  0  0  0  0  0  0
  151.8855  141.9941  158.9974 H   0  0  0  0  0  0  0  0  0  0  0  0
  150.6056  140.8339  159.1385 H   0  0  0  0  0  0  0  0  0  0  0  0
  152.8066  139.7921  159.6699 H   0  0  0  0  0  0  0  0  0  0  0  0
  153.4001  140.1595  158.0563 H   0  0  0  0  0  0  0  0  0  0  0  0
  152.0873  139.0056  158.2753 H   0  0  0  0  0  0  0  0  0  0  0  0
  151.3698  140.6412  154.5012 H   0  0  0  0  0  0  0  0  0  0  0  0
  150.0968  138.8830  153.3554 H   0  0  0  0  0  0  0  0  0  0  0  0
  148.6658  136.9878  153.5651 H   0  0  0  0  0  0  0  0  0  0  0  0
  147.1735  135.7576  152.9705 H   0  0  0  0  0  0  0  0  0  0  0  0
  144.9794  135.0134  154.7770 H   0  0  0  0  0  0  0  0  0  0  0  0
  143.7335  136.7140  153.6305 H   0  0  0  0  0  0  0  0  0  0  0  0
  144.5216  136.3408  152.0971 H   0  0  0  0  0  0  0  0  0  0  0  0
  142.4635  134.6864  153.5693 H   0  0  0  0  0  0  0  0  0  0  0  0
  142.5761  135.0011  151.8448 H   0  0  0  0  0  0  0  0  0  0  0  0
  142.7698  132.3318  151.3616 H   0  0  0  0  0  0  0  0  0  0  0  0
  143.7747  133.4964  150.5231 H   0  0  0  0  0  0  0  0  0  0  0  0
  144.8235  131.0422  152.0010 H   0  0  0  0  0  0  0  0  0  0  0  0
  144.6664  131.1572  150.2677 H   0  0  0  0  0  0  0  0  0  0  0  0
  146.9787  131.7184  151.5414 H   0  0  0  0  0  0  0  0  0  0  0  0
  146.5518  132.5105  150.0489 H   0  0  0  0  0  0  0  0  0  0  0  0
  147.3318  133.9818  152.0665 H   0  0  0  0  0  0  0  0  0  0  0  0
  146.0158  134.5423  151.0708 H   0  0  0  0  0  0  0  0  0  0  0  0
  145.6872  133.0616  153.7124 H   0  0  0  0  0  0  0  0  0  0  0  0
  147.9523  138.2028  157.0893 H   0  0  0  0  0  0  0  0  0  0  0  0
  143.5913  132.9258  153.3724 H   0  0  0  0  0  0  0  0  0  0  0  0
  149.2133  139.8492  158.0295 H   0  0  0  0  0  0  0  0  0  0  0  0
  1  2  1  0  0  0  0
  1 25  1  0  0  0  0
  1 26  1  0  0  0  0
  1 27  1  0  0  0  0
  2  3  1  0  0  0  0
  2 28  1  0  0  0  0
  2 29  1  0  0  0  0
  3  4  1  0  0  0  0
  3  6  1  0  0  0  0
  4  5  1  0  0  0  0
  4 30  1  0  0  0  0
  4 31  1  0  0  0  0
  5 32  1  0  0  0  0
  5 33  1  0  0  0  0
  5 34  1  0  0  0  0
  6 24  1  0  0  0  0
  6  7  2  0  0  0  0
  7  8  1  0  0  0  0
  7 35  1  0  0  0  0
  8  9  2  0  0  0  0
  8 36  1  0  0  0  0
  9 10  1  0  0  0  0
  9 23  1  0  0  0  0
 10 11  1  0  0  0  0
 10 37  1  0  0  0  0
 11 12  2  0  0  0  0
 11 13  1  0  0  0  0
 13 14  1  0  0  0  0
 13 38  1  0  0  0  0
 14 22  1  0  0  0  0
 14 15  1  0  0  0  0
 14 39  1  0  0  0  0
 15 16  1  0  0  0  0
 15 40  1  0  0  0  0
 15 41  1  0  0  0  0
 16 17  1  0  0  0  0
 16 42  1  0  0  0  0
 16 43  1  0  0  0  0
 17 22  1  0  0  0  0
 17 18  1  0  0  0  0
 17 54  1  0  0  0  0
 18 19  1  0  0  0  0
 18 44  1  0  0  0  0
 18 45  1  0  0  0  0
 19 20  1  0  0  0  0
 19 46  1  0  0  0  0
 19 47  1  0  0  0  0
 20 21  1  0  0  0  0
 20 48  1  0  0  0  0
 20 49  1  0  0  0  0
 21 22  1  0  0  0  0
 21 50  1  0  0  0  0
 21 51  1  0  0  0  0
 22 52  1  0  0  0  0
 23 24  2  0  0  0  0
 23 53  1  0  0  0  0
 24 55  1  0  0  0  0
M  CHG  1  17   1
M  CHG  1  24   1
M  END
> <s_m_source_file>
AV-unprocessed.smi

> <i_m_source_file_index>
1701

> <i_lp_mmshare_version>
43012

> <i_f3d_flags>
0

> <s_epik_input>
W0NIM11bQ0gyXU4oW0NIMl1bQ0gzXSljMVtjSF1bY0hdYyhbY0hdbjEpW05IXUMoPU8pW05IXVtDQEhdKFtDSDJdW0NIMl0yKVtDQEBIXShOMjMpW0NIMl1bQ0gyXVtDSDJdW0NIMl0z

> <s_epik_cmdline>
J2VwaWtfcHl0aG9uJywgJy1waCcsICc3LjAnLCAnLXRuJywgJzgnLCAnLW1hJywgJzIwMCcsICctbWV0YWxfYmluZGluZycsICctaW1hZScsICc8aW5maWxlLm1hZT4nLCAnLW9tYWUnLCAnPG91dGZpbGUubWFlPic=

> <r_lp_tautomer_probability>
0.999994

> <r_epik_Ionization_Penalty>
0.302862

> <r_epik_Ionization_Penalty_Charging>
0.302842

> <r_epik_Ionization_Penalty_Neutral>
1.95166e-05

> <r_epik_State_Penalty>
0.019791

> <r_epik_Charging_Adjusted_Penalty>
0.322633

> <i_epik_Tot_Q>
2

> <i_epik_Tot_abs_Q>
2

> <r_epik_Metal_State_Penalty>
0.0536763

> <b_epik_Metal_Only>
0

> <s_lp_Force_Field>
OPLS_2005

> <r_lp_Energy>
68.1576

> <b_lp_Chiralities_Consistent>
1

> <s_lp_Variant>
AV-unprocessed.smi:1701-2

> <Gold.Version>
5.8.1

> <Gold.Id.Protein>
6NUR|6NUR_protein|mol2

> <Gold.PLP.Fitness>
43.9791

> <Gold.PLP.PLP>
-35.4367

> <Gold.PLP.part.hbond>
-2.8538

> <Gold.PLP.part.metal>
0.0000

> <Gold.PLP.part.buried>
-3.6911

> <Gold.PLP.part.nonpolar>
-29.3280

> <Gold.PLP.part.repulsive>
0.0442

> <Gold.PLP.ligand.clash>
0.0000

> <Gold.PLP.ligand.torsion>
1.3806

> <Gold.PLP.Chemscore.Hbond>
3.7150

> <Gold.PLP.Chemscore.CHOScore>
0.0000

> <Gold.PLP.Chemscore.Metal>
0.0000

> <Gold.Chemscore.Hbonds>
donor molecule, donor type, donor heavy atom, donor atom, acceptor molecule, acceptor atom, score
      L1  H    10    37       P1  7948  1.00
      L1  H    13    38       P1  7948  0.73
      L1  H    17    54       P1 10957  1.95

> <Gold.PLP.Chemscore.Internal.Correction>
0.1585

> <Gold.Rescore>
     Score         DG    S(hbond)    S(metal)    S(lipo)     H(rot)  DE(clash)    DE(int)     intcor
     18.83     -21.58       2.56        0.00      92.89       1.30       0.29       2.46       ----

> <Gold.Chemscore.Fitness>
18.8320

> <Gold.Chemscore.DG>
-21.5808

> <Gold.Chemscore.ZeroCoef>
-5.4800

> <Gold.Chemscore.Hbond>
2.5644

> <Gold.Chemscore.Metal>
0.0000

> <Gold.Chemscore.Lipo>
92.8946

> <Gold.Chemscore.Internal_Hbond>
0.0000

> <Gold.Chemscore.DEClash>
0.2877

> <Gold.Chemscore.DEInternal>
2.4612

> <Gold.Chemscore.Rot>
1.3020

> <Gold.Chemscore.Internal.Correction>
   9.000000E+99

> <Gold.Chemscore.Hbonds>
donor molecule, donor type, donor heavy atom, donor atom, acceptor molecule, acceptor atom, score
      L1  H    10    37       P1  7948  1.00
      L1  H    13    38       P1  7948  0.69
      L1  H    17    54       P1 10957  0.68

> <Gold.Chemscore.Hbond.Weighted>
-8.5652

> <Gold.Chemscore.Metal.Weighted>
-0.0000

> <Gold.Chemscore.Lipo.Weighted>
-10.8687

> <Gold.Chemscore.Internal_Hbond.Weighted>
0.0000

> <Gold.Chemscore.DEClash.Weighted>
0.2877

> <Gold.Chemscore.DEInternal.Weighted>
2.4612

> <Gold.Chemscore.Rot.Weighted>
3.3330

> <Gold.Chemscore.Internal.Correction.Weighted>
   9.000000E+99

> <Gold.Protein.RotatedTorsions>
[ 6907 6896 6895 6894 ] final  139.63 input  -60.11 | X-H torsion
[ 7974 7965 7964 7962 ] final   -1.69 input  175.53 | X-H torsion
[ 8008 7997 7996 7995 ] final   56.08 input   59.86 | X-H torsion
[ 10167 10162 10161 10158 ] final -167.62 input  -65.29 | X-H torsion
[ 10718 10713 10712 10709 ] final  -60.94 input   66.30 | X-H torsion
[ 10763 10752 10751 10750 ] final   31.25 input  -60.55 | X-H torsion
[ 11005 11000 10999 10996 ] final  -50.45 input  -57.11 | X-H torsion

> <Gold.Protein.ActiveResidues>
 VAL166  LYS551  ARG553  GLY616  TRP617  ASP618  TYR619  PRO620  LYS621  CYS622 
 ASP623  PHE694  ASN695  SER759  ASP760  ASP761  ALA762  ILE779  LEU786  VAL792 
 PHE793  MET794  SER795  GLU796  ALA797  LYS798  CYS799  TRP800  GLU811  SER814 

> <Gold.Protein.RotatedAtoms>
  152.2526  133.5228  159.5334 H   0  0  0  0  0  0  0  0  0  0  0  0  # atno 6907 bound_to 6896
  150.7098  134.0939  159.3950 H   0  0  0  0  0  0  0  0  0  0  0  0  # atno 6908 bound_to 6896
  151.8859  135.0435  160.0544 H   0  0  0  0  0  0  0  0  0  0  0  0  # atno 6909 bound_to 6896
  146.2414  140.1458  142.8334 H   0  0  0  0  0  0  0  0  0  0  0  0  # atno 7974 bound_to 7965
  155.5116  140.3477  155.4389 H   0  0  0  0  0  0  0  0  0  0  0  0  # atno 8008 bound_to 7997
  156.0845  140.1395  156.9697 H   0  0  0  0  0  0  0  0  0  0  0  0  # atno 8009 bound_to 7997
  154.4599  140.0939  156.6839 H   0  0  0  0  0  0  0  0  0  0  0  0  # atno 8010 bound_to 7997
  139.6037  144.0957  152.1770 H   0  0  0  0  0  0  0  0  0  0  0  0  # atno 10167 bound_to 10162
  156.0955  130.4193  150.0925 H   0  0  0  0  0  0  0  0  0  0  0  0  # atno 10718 bound_to 10713
  153.0326  135.6443  154.1171 H   0  0  0  0  0  0  0  0  0  0  0  0  # atno 10763 bound_to 10752
  154.0891  135.2867  155.3277 H   0  0  0  0  0  0  0  0  0  0  0  0  # atno 10764 bound_to 10752
  154.6477  135.5437  153.7928 H   0  0  0  0  0  0  0  0  0  0  0  0  # atno 10765 bound_to 10752
  141.0817  133.6652  156.3734 H   0  0  0  0  0  0  0  0  0  0  0  0  # atno 11005 bound_to 11000
  145.0209  140.8792  143.5167 LP  0  0  0  0  0  0  0  0  0  0  0  0  # atno 17320 bound_to 7965
  145.1506  139.2516  143.5443 LP  0  0  0  0  0  0  0  0  0  0  0  0  # atno 17321 bound_to 7965
  140.0559  144.5895  150.7300 LP  0  0  0  0  0  0  0  0  0  0  0  0  # atno 17342 bound_to 10162
  140.7269  143.2646  151.4089 LP  0  0  0  0  0  0  0  0  0  0  0  0  # atno 17343 bound_to 10162
  156.8925  130.9593  151.3586 LP  0  0  0  0  0  0  0  0  0  0  0  0  # atno 17370 bound_to 10713
  157.6115  130.8587  149.8960 LP  0  0  0  0  0  0  0  0  0  0  0  0  # atno 17371 bound_to 10713
  140.5454  134.6079  157.5392 LP  0  0  0  0  0  0  0  0  0  0  0  0  # atno 17394 bound_to 11000
  139.9631  134.7418  156.0195 LP  0  0  0  0  0  0  0  0  0  0  0  0  # atno 17395 bound_to 11000

$$$$
