AV-unprocessed.smi:287|AV-procd|sdf|2203|dock4
  -GOLD-   2262022 23D 1   1.00000     0.00000
 Structure written by MMmdl.
 55 58  0  0  0  0  0  0  0  0  1 V2000
  154.0901  127.9443  154.0625 C   0  0  0  0  0  0  0  0  0  0  0  0
  153.2454  129.0180  154.6578 C   0  0  0  0  0  0  0  0  0  0  0  0
  151.9969  129.4970  154.3867 C   0  0  0  0  0  0  0  0  0  0  0  0
  151.7335  130.5502  155.3128 C   0  0  0  0  0  0  0  0  0  0  0  0
  150.4556  131.3749  155.3885 C   0  0  1  0  0  0  0  0  0  0  0  0
  149.5693  131.0728  154.1687 C   0  0  0  0  0  0  0  0  0  0  0  0
  149.6619  131.0567  156.5153 O   0  0  0  0  0  0  0  0  0  0  0  0
  150.7351  132.8927  155.4794 C   0  0  0  0  0  0  0  0  0  0  0  0
  149.7719  133.5986  156.3143 N   0  0  0  0  0  0  0  0  0  0  0  0
  149.9488  134.8961  156.6411 C   0  0  0  0  0  0  0  0  0  0  0  0
  149.5665  135.2341  157.8948 N   0  0  0  0  0  0  0  0  0  0  0  0
  149.6920  136.4939  158.3170 C   0  0  0  0  0  0  0  0  0  0  0  0
  150.1689  137.5488  157.6566 N   0  0  0  0  0  0  0  0  0  0  0  0
  150.5686  137.2226  156.3923 C   0  0  0  0  0  0  0  0  0  0  0  0
  150.4859  135.9237  155.8083 C   0  0  0  0  0  0  0  0  0  0  0  0
  150.9650  135.9767  154.5048 N   0  0  0  0  0  0  0  0  0  0  0  0
  151.3022  137.2245  154.3337 C   0  0  0  0  0  0  0  0  0  0  0  0
  151.1250  138.0447  155.4261 N   0  0  0  0  0  0  0  0  0  0  0  0
  151.4013  139.5240  155.4979 C   0  0  1  0  0  0  0  0  0  0  0  0
  150.6205  140.1895  154.5534 O   0  0  0  0  0  0  0  0  0  0  0  0
  149.4040  140.6091  155.1585 C   0  0  2  0  0  0  0  0  0  0  0  0
  148.6746  141.6460  154.2868 C   0  0  0  0  0  0  0  0  0  0  0  0
  147.6034  142.2160  155.0084 O   0  0  0  0  0  0  0  0  0  0  0  0
  149.9033  141.1103  156.5183 C   0  0  2  0  0  0  0  0  0  0  0  0
  150.4222  142.4259  156.4043 O   0  0  0  0  0  0  0  0  0  0  0  0
  150.9763  140.0788  156.8748 C   0  0  2  0  0  0  0  0  0  0  0  0
  152.0501  140.6329  157.6128 O   0  0  0  0  0  0  0  0  0  0  0  0
  152.8625  130.6206  156.0937 C   0  0  0  0  0  0  0  0  0  0  0  0
  153.2736  131.4717  157.2500 C   0  0  0  0  0  0  0  0  0  0  0  0
  153.7843  129.6975  155.7012 O   0  0  0  0  0  0  0  0  0  0  0  0
  152.4645  139.6152  155.2734 H   0  0  0  0  0  0  0  0  0  0  0  0
  148.7632  139.7401  155.3233 H   0  0  0  0  0  0  0  0  0  0  0  0
  149.1029  141.1263  157.2589 H   0  0  0  0  0  0  0  0  0  0  0  0
  150.5179  139.2862  157.4676 H   0  0  0  0  0  0  0  0  0  0  0  0
  153.6815  127.6126  153.1078 H   0  0  0  0  0  0  0  0  0  0  0  0
  154.1413  127.0812  154.7263 H   0  0  0  0  0  0  0  0  0  0  0  0
  155.1060  128.2997  153.8892 H   0  0  0  0  0  0  0  0  0  0  0  0
  151.3435  129.1351  153.6067 H   0  0  0  0  0  0  0  0  0  0  0  0
  150.0781  131.3246  153.2375 H   0  0  0  0  0  0  0  0  0  0  0  0
  148.6399  131.6430  154.1972 H   0  0  0  0  0  0  0  0  0  0  0  0
  149.3066  130.0153  154.1223 H   0  0  0  0  0  0  0  0  0  0  0  0
  149.3961  131.8622  156.9316 H   0  0  0  0  0  0  0  0  0  0  0  0
  151.7168  133.0375  155.9325 H   0  0  0  0  0  0  0  0  0  0  0  0
  150.7756  133.3377  154.4842 H   0  0  0  0  0  0  0  0  0  0  0  0
  148.9875  133.0489  156.6352 H   0  0  0  0  0  0  0  0  0  0  0  0
  149.3643  136.6847  159.3282 H   0  0  0  0  0  0  0  0  0  0  0  0
  151.6981  137.5837  153.3950 H   0  0  0  0  0  0  0  0  0  0  0  0
  149.3542  142.4551  154.0174 H   0  0  0  0  0  0  0  0  0  0  0  0
  148.3110  141.2025  153.3593 H   0  0  0  0  0  0  0  0  0  0  0  0
  147.7684  143.1410  155.1091 H   0  0  0  0  0  0  0  0  0  0  0  0
  149.7382  142.9870  156.0713 H   0  0  0  0  0  0  0  0  0  0  0  0
  151.8119  140.6452  158.5272 H   0  0  0  0  0  0  0  0  0  0  0  0
  152.5548  131.3891  158.0651 H   0  0  0  0  0  0  0  0  0  0  0  0
  153.3347  132.5192  156.9558 H   0  0  0  0  0  0  0  0  0  0  0  0
  154.2500  131.1742  157.6331 H   0  0  0  0  0  0  0  0  0  0  0  0
  1  2  1  0  0  0  0
  1 35  1  0  0  0  0
  1 36  1  0  0  0  0
  1 37  1  0  0  0  0
  2 30  1  0  0  0  0
  2  3  2  0  0  0  0
  3  4  1  0  0  0  0
  3 38  1  0  0  0  0
  4  5  1  0  0  0  0
  4 28  2  0  0  0  0
  5  6  1  0  0  0  0
  5  7  1  0  0  0  0
  5  8  1  0  0  0  0
  6 39  1  0  0  0  0
  6 40  1  0  0  0  0
  6 41  1  0  0  0  0
  7 42  1  0  0  0  0
  8  9  1  0  0  0  0
  8 43  1  0  0  0  0
  8 44  1  0  0  0  0
  9 10  1  0  0  0  0
  9 45  1  0  0  0  0
 10 15  1  0  0  0  0
 10 11  2  0  0  0  0
 11 12  1  0  0  0  0
 12 13  2  0  0  0  0
 12 46  1  0  0  0  0
 13 14  1  0  0  0  0
 14 18  1  0  0  0  0
 14 15  2  0  0  0  0
 15 16  1  0  0  0  0
 16 17  2  0  0  0  0
 17 18  1  0  0  0  0
 17 47  1  0  0  0  0
 18 19  1  0  0  0  0
 19 31  1  0  0  0  0
 19 26  1  0  0  0  0
 19 20  1  0  0  0  0
 20 21  1  0  0  0  0
 21 32  1  0  0  0  0
 21 22  1  0  0  0  0
 21 24  1  0  0  0  0
 22 23  1  0  0  0  0
 22 48  1  0  0  0  0
 22 49  1  0  0  0  0
 23 50  1  0  0  0  0
 24 33  1  0  0  0  0
 24 25  1  0  0  0  0
 24 26  1  0  0  0  0
 25 51  1  0  0  0  0
 26 34  1  0  0  0  0
 26 27  1  0  0  0  0
 27 52  1  0  0  0  0
 28 29  1  0  0  0  0
 28 30  1  0  0  0  0
 29 53  1  0  0  0  0
 29 54  1  0  0  0  0
 29 55  1  0  0  0  0
M  END
> <s_m_source_file>
AV-unprocessed.smi

> <i_m_source_file_index>
287

> <i_lp_mmshare_version>
43012

> <i_f3d_flags>
0

> <s_epik_input>
W0NIM11jMVtjSF1jKGMobzEpW0NIM10pW0NAQF0oW0NIM10pKFtPSF0pW0NIMl1bTkhdYyhuW2NIXW4yKWMoYzIzKW5bY0hdbjNbQ0BASF00T1tDQEhdKFtDSDJdW09IXSlbQ0BASF0oW09IXSlbQ0BIXTRbT0hd

> <s_epik_cmdline>
J2VwaWtfcHl0aG9uJywgJy1waCcsICc3LjAnLCAnLXRuJywgJzgnLCAnLW1hJywgJzIwMCcsICctbWV0YWxfYmluZGluZycsICctaW1hZScsICc8aW5maWxlLm1hZT4nLCAnLW9tYWUnLCAnPG91dGZpbGUubWFlPic=

> <r_lp_tautomer_probability>
1

> <r_epik_Ionization_Penalty>
0.000992612

> <r_epik_Ionization_Penalty_Charging>
0

> <r_epik_Ionization_Penalty_Neutral>
0.000992612

> <r_epik_State_Penalty>
-0

> <r_epik_Charging_Adjusted_Penalty>
0

> <i_epik_Tot_Q>
0

> <i_epik_Tot_abs_Q>
0

> <r_epik_Metal_State_Penalty>
-0

> <b_epik_Metal_Only>
0

> <s_epik_Chemistry_Notes>
This compound contains an acetal/aminal-like group ( X-CH(R)-Y where X, Y are N, S, or O) that may be acid/base labile, releasing an aldehyde.

> <s_lp_Force_Field>
OPLS_2005

> <r_lp_Energy>
46.8376

> <b_lp_Chiralities_Consistent>
1

> <s_lp_Variant>
AV-unprocessed.smi:287-27

> <Gold.Version>
5.8.1

> <Gold.Id.Protein>
6NUR|6NUR_protein|mol2

> <Gold.PLP.Fitness>
54.5954

> <Gold.PLP.PLP>
-42.2619

> <Gold.PLP.part.hbond>
-4.9506

> <Gold.PLP.part.metal>
0.0000

> <Gold.PLP.part.buried>
-3.4797

> <Gold.PLP.part.nonpolar>
-33.7820

> <Gold.PLP.part.repulsive>
0.6024

> <Gold.PLP.ligand.clash>
0.0000

> <Gold.PLP.ligand.torsion>
1.4096

> <Gold.PLP.Chemscore.Hbond>
4.3000

> <Gold.PLP.Chemscore.CHOScore>
0.6914

> <Gold.PLP.Chemscore.Metal>
0.0000

> <Gold.Chemscore.Hbonds>
donor molecule, donor type, donor heavy atom, donor atom, acceptor molecule, acceptor atom, score
      L1  H    23    50       P1  8028  1.00
      L1  H    25    51       P1  8028  1.00
      P1  H  6896  6908       L1    11  0.76
      P1  H  7989  7998       L1    20  1.00
      P1  H 10752 10763       L1    16  0.20
      L1  C    17    47       P1  7949  0.63

> <Gold.PLP.Chemscore.Internal.Correction>
0.1786

> <Gold.Rescore>
     Score         DG    S(hbond)    S(metal)    S(lipo)     H(rot)  DE(clash)    DE(int)     intcor
      8.39     -11.09       3.11        0.00      74.54       5.27       0.10       2.60       ----

> <Gold.Chemscore.Fitness>
8.3939

> <Gold.Chemscore.DG>
-11.0927

> <Gold.Chemscore.ZeroCoef>
-5.4800

> <Gold.Chemscore.Hbond>
3.1066

> <Gold.Chemscore.Metal>
0.0000

> <Gold.Chemscore.Lipo>
74.5353

> <Gold.Chemscore.Internal_Hbond>
0.0000

> <Gold.Chemscore.DEClash>
0.0974

> <Gold.Chemscore.DEInternal>
2.6014

> <Gold.Chemscore.Rot>
5.2672

> <Gold.Chemscore.Internal.Correction>
   9.000000E+99

> <Gold.Chemscore.Hbonds>
donor molecule, donor type, donor heavy atom, donor atom, acceptor molecule, acceptor atom, score
      L1  H    23    50       P1  8028  0.58
      L1  H    25    51       P1  8028  0.96
      P1  H  6896  6908       L1    11  0.11
      P1  H  7989  7998       L1    20  0.64

> <Gold.Chemscore.Hbond.Weighted>
-10.3760

> <Gold.Chemscore.Metal.Weighted>
-0.0000

> <Gold.Chemscore.Lipo.Weighted>
-8.7206

> <Gold.Chemscore.Internal_Hbond.Weighted>
0.0000

> <Gold.Chemscore.DEClash.Weighted>
0.0974

> <Gold.Chemscore.DEInternal.Weighted>
2.6014

> <Gold.Chemscore.Rot.Weighted>
13.4839

> <Gold.Chemscore.Internal.Correction.Weighted>
   9.000000E+99

> <Gold.Protein.RotatedTorsions>
[ 6907 6896 6895 6894 ] final  154.89 input  -60.11 | X-H torsion
[ 7974 7965 7964 7962 ] final -141.17 input  175.53 | X-H torsion
[ 8008 7997 7996 7995 ] final  -65.91 input   59.86 | X-H torsion
[ 10167 10162 10161 10158 ] final   53.83 input  -65.29 | X-H torsion
[ 10718 10713 10712 10709 ] final -176.48 input   66.30 | X-H torsion
[ 10763 10752 10751 10750 ] final   40.62 input  -60.55 | X-H torsion
[ 11005 11000 10999 10996 ] final   24.58 input  -57.11 | X-H torsion

> <Gold.Protein.ActiveResidues>
 VAL166  LYS551  ARG553  GLY616  TRP617  ASP618  TYR619  PRO620  LYS621  CYS622 
 ASP623  PHE694  ASN695  SER759  ASP760  ASP761  ALA762  ILE779  LEU786  VAL792 
 PHE793  MET794  SER795  GLU796  ALA797  LYS798  CYS799  TRP800  GLU811  SER814 

> <Gold.Protein.RotatedAtoms>
  152.0520  133.4023  159.4380 H   0  0  0  0  0  0  0  0  0  0  0  0  # atno 6907 bound_to 6896
  150.6870  134.3297  159.4831 H   0  0  0  0  0  0  0  0  0  0  0  0  # atno 6908 bound_to 6896
  152.1108  134.9275  160.0617 H   0  0  0  0  0  0  0  0  0  0  0  0  # atno 6909 bound_to 6896
  144.8540  140.6112  143.5371 H   0  0  0  0  0  0  0  0  0  0  0  0  # atno 7974 bound_to 7965
  154.4701  140.0923  156.7123 H   0  0  0  0  0  0  0  0  0  0  0  0  # atno 8008 bound_to 7997
  155.4747  140.3465  155.4312 H   0  0  0  0  0  0  0  0  0  0  0  0  # atno 8009 bound_to 7997
  156.1024  140.1426  156.9437 H   0  0  0  0  0  0  0  0  0  0  0  0  # atno 8010 bound_to 7997
  140.2366  144.3629  150.6395 H   0  0  0  0  0  0  0  0  0  0  0  0  # atno 10167 bound_to 10162
  156.8153  130.9600  151.3114 H   0  0  0  0  0  0  0  0  0  0  0  0  # atno 10718 bound_to 10713
  152.9931  135.6186  154.2655 H   0  0  0  0  0  0  0  0  0  0  0  0  # atno 10763 bound_to 10752
  154.2389  135.2789  155.2863 H   0  0  0  0  0  0  0  0  0  0  0  0  # atno 10764 bound_to 10752
  154.5386  135.5767  153.6877 H   0  0  0  0  0  0  0  0  0  0  0  0  # atno 10765 bound_to 10752
  140.3572  134.2165  155.7675 H   0  0  0  0  0  0  0  0  0  0  0  0  # atno 11005 bound_to 11000
  145.4442  139.1531  143.3953 LP  0  0  0  0  0  0  0  0  0  0  0  0  # atno 17320 bound_to 7965
  146.2808  140.4565  142.8777 LP  0  0  0  0  0  0  0  0  0  0  0  0  # atno 17321 bound_to 7965
  140.6145  143.2171  151.6819 LP  0  0  0  0  0  0  0  0  0  0  0  0  # atno 17342 bound_to 10162
  139.5091  144.3587  152.0583 LP  0  0  0  0  0  0  0  0  0  0  0  0  # atno 17343 bound_to 10162
  157.6485  130.8864  149.9586 LP  0  0  0  0  0  0  0  0  0  0  0  0  # atno 17370 bound_to 10713
  156.1020  130.3655  150.0200 LP  0  0  0  0  0  0  0  0  0  0  0  0  # atno 17371 bound_to 10713
  141.1995  133.8010  157.0534 LP  0  0  0  0  0  0  0  0  0  0  0  0  # atno 17394 bound_to 11000
  140.0656  134.9731  157.1380 LP  0  0  0  0  0  0  0  0  0  0  0  0  # atno 17395 bound_to 11000

$$$$
