AV-unprocessed.smi:194|AV-procd|sdf|1521|dock3
  -GOLD-   2262019363D 1   1.00000     0.00000
 Structure written by MMmdl.
 53 55  0  0  0  0  0  0  0  0  1 V2000
  146.3754  136.3044  158.7335 C   0  0  0  0  0  0  0  0  0  0  0  0
  145.5576  135.1460  159.3574 C   0  0  1  0  0  0  0  0  0  0  0  0
  144.6717  135.6785  160.5097 C   0  0  0  0  0  0  0  0  0  0  0  0
  145.7524  136.2955  161.8883 S   0  0  1  0  0  0  0  0  0  0  0  0
  146.7127  134.7278  162.1255 C   0  0  0  0  0  0  0  0  0  0  0  0
  146.7128  137.3158  161.2746 O   0  0  0  0  0  0  0  0  0  0  0  0
  144.7481  134.4386  158.3500 N   0  0  0  0  0  0  0  0  0  0  0  0
  143.7970  133.4375  158.8260 C   0  0  0  0  0  0  0  0  0  0  0  0
  145.4289  133.9589  157.2847 C   0  0  0  0  0  0  0  0  0  0  0  0
  146.3442  132.9862  157.5172 N   0  0  0  0  0  0  0  0  0  0  0  0
  147.0405  132.4704  156.4998 C   0  0  0  0  0  0  0  0  0  0  0  0
  146.9809  132.7829  155.2032 N   0  0  0  0  0  0  0  0  0  0  0  0
  146.0705  133.7721  154.9698 C   0  0  0  0  0  0  0  0  0  0  0  0
  145.2538  134.4087  155.9458 C   0  0  0  0  0  0  0  0  0  0  0  0
  144.4388  135.3565  155.3401 N   0  0  0  0  0  0  0  0  0  0  0  0
  144.7510  135.2791  154.0756 C   0  0  0  0  0  0  0  0  0  0  0  0
  145.7361  134.3677  153.7652 N   0  0  0  0  0  0  0  0  0  0  0  0
  146.2644  134.0768  152.4399 C   0  0  0  0  0  0  0  0  0  0  0  0
  145.2075  133.7513  151.3405 C   0  0  0  0  0  0  0  0  0  0  0  0
  144.5056  135.0496  150.8396 C   0  0  0  0  0  0  0  0  0  0  0  0
  145.3775  135.9582  150.1980 O   0  0  0  0  0  0  0  0  0  0  0  0
  145.8425  132.9524  150.1731 C   0  0  0  0  0  0  0  0  0  0  0  0
  144.7901  132.3343  149.2368 C   0  0  0  0  0  0  0  0  0  0  0  0
  143.9317  131.4779  149.9787 O   0  0  0  0  0  0  0  0  0  0  0  0
  143.1939  132.1689  150.9780 C   0  0  0  0  0  0  0  0  0  0  0  0
  144.1528  132.8209  151.9938 C   0  0  0  0  0  0  0  0  0  0  0  0
  146.9616  136.8393  159.4796 H   0  0  0  0  0  0  0  0  0  0  0  0
  145.7219  137.0299  158.2477 H   0  0  0  0  0  0  0  0  0  0  0  0
  147.0888  135.9505  157.9891 H   0  0  0  0  0  0  0  0  0  0  0  0
  146.2547  134.4227  159.7820 H   0  0  0  0  0  0  0  0  0  0  0  0
  144.0117  136.4746  160.1639 H   0  0  0  0  0  0  0  0  0  0  0  0
  144.0444  134.8950  160.9331 H   0  0  0  0  0  0  0  0  0  0  0  0
  146.0428  133.9024  162.3665 H   0  0  0  0  0  0  0  0  0  0  0  0
  147.4261  134.8448  162.9411 H   0  0  0  0  0  0  0  0  0  0  0  0
  147.2626  134.4778  161.2182 H   0  0  0  0  0  0  0  0  0  0  0  0
  143.4991  132.7425  158.0386 H   0  0  0  0  0  0  0  0  0  0  0  0
  142.8894  133.9224  159.1853 H   0  0  0  0  0  0  0  0  0  0  0  0
  144.2240  132.8574  159.6447 H   0  0  0  0  0  0  0  0  0  0  0  0
  147.7461  131.6959  156.7619 H   0  0  0  0  0  0  0  0  0  0  0  0
  144.2764  135.8986  153.3288 H   0  0  0  0  0  0  0  0  0  0  0  0
  146.8659  134.9352  152.1375 H   0  0  0  0  0  0  0  0  0  0  0  0
  146.9659  133.2469  152.5356 H   0  0  0  0  0  0  0  0  0  0  0  0
  143.7174  134.8266  150.1233 H   0  0  0  0  0  0  0  0  0  0  0  0
  144.0205  135.5621  151.6710 H   0  0  0  0  0  0  0  0  0  0  0  0
  145.6471  135.5860  149.3723 H   0  0  0  0  0  0  0  0  0  0  0  0
  146.5283  133.5724  149.5956 H   0  0  0  0  0  0  0  0  0  0  0  0
  146.4465  132.1405  150.5801 H   0  0  0  0  0  0  0  0  0  0  0  0
  144.2111  133.1024  148.7228 H   0  0  0  0  0  0  0  0  0  0  0  0
  145.2837  131.7448  148.4639 H   0  0  0  0  0  0  0  0  0  0  0  0
  142.5304  132.9001  150.5164 H   0  0  0  0  0  0  0  0  0  0  0  0
  142.5499  131.4526  151.4884 H   0  0  0  0  0  0  0  0  0  0  0  0
  144.6591  132.0165  152.5296 H   0  0  0  0  0  0  0  0  0  0  0  0
  143.5791  133.3652  152.7451 H   0  0  0  0  0  0  0  0  0  0  0  0
  1  2  1  0  0  0  0
  1 27  1  0  0  0  0
  1 28  1  0  0  0  0
  1 29  1  0  0  0  0
  2  3  1  0  0  0  0
  2  7  1  0  0  0  0
  2 30  1  0  0  0  0
  3  4  1  0  0  0  0
  3 31  1  0  0  0  0
  3 32  1  0  0  0  0
  4  5  1  0  0  0  0
  4  6  2  0  0  0  0
  5 33  1  0  0  0  0
  5 34  1  0  0  0  0
  5 35  1  0  0  0  0
  7  8  1  0  0  0  0
  7  9  1  0  0  0  0
  8 36  1  0  0  0  0
  8 37  1  0  0  0  0
  8 38  1  0  0  0  0
  9 14  1  0  0  0  0
  9 10  2  0  0  0  0
 10 11  1  0  0  0  0
 11 12  2  0  0  0  0
 11 39  1  0  0  0  0
 12 13  1  0  0  0  0
 13 17  1  0  0  0  0
 13 14  2  0  0  0  0
 14 15  1  0  0  0  0
 15 16  2  0  0  0  0
 16 17  1  0  0  0  0
 16 40  1  0  0  0  0
 17 18  1  0  0  0  0
 18 19  1  0  0  0  0
 18 41  1  0  0  0  0
 18 42  1  0  0  0  0
 19 26  1  0  0  0  0
 19 20  1  0  0  0  0
 19 22  1  0  0  0  0
 20 21  1  0  0  0  0
 20 43  1  0  0  0  0
 20 44  1  0  0  0  0
 21 45  1  0  0  0  0
 22 23  1  0  0  0  0
 22 46  1  0  0  0  0
 22 47  1  0  0  0  0
 23 24  1  0  0  0  0
 23 48  1  0  0  0  0
 23 49  1  0  0  0  0
 24 25  1  0  0  0  0
 25 26  1  0  0  0  0
 25 50  1  0  0  0  0
 25 51  1  0  0  0  0
 26 52  1  0  0  0  0
 26 53  1  0  0  0  0
M  END
> <s_m_source_file>
AV-unprocessed.smi

> <i_m_source_file_index>
194

> <i_lp_mmshare_version>
43012

> <i_f3d_flags>
0

> <s_epik_input>
W0NIM11bU0BAXSg9TylbQ0gyXVtDQEBIXShbQ0gzXSlOKFtDSDNdKWMobltjSF1uMSljKGMxMiluW2NIXW4yW0NIMl1DMyhbQ0gyXVtPSF0pW0NIMl1bQ0gyXU9bQ0gyXVtDSDJdMw==

> <s_epik_cmdline>
J2VwaWtfcHl0aG9uJywgJy1waCcsICc3LjAnLCAnLXRuJywgJzgnLCAnLW1hJywgJzIwMCcsICctbWV0YWxfYmluZGluZycsICctaW1hZScsICc8aW5maWxlLm1hZT4nLCAnLW9tYWUnLCAnPG91dGZpbGUubWFlPic=

> <r_lp_tautomer_probability>
1

> <r_epik_Ionization_Penalty>
0.00101625

> <r_epik_Ionization_Penalty_Charging>
0

> <r_epik_Ionization_Penalty_Neutral>
0.00101625

> <r_epik_State_Penalty>
0.000568005

> <r_epik_Charging_Adjusted_Penalty>
0.000568005

> <i_epik_Tot_Q>
0

> <i_epik_Tot_abs_Q>
0

> <r_epik_Metal_State_Penalty>
-0

> <b_epik_Metal_Only>
0

> <s_lp_Force_Field>
OPLS_2005

> <r_lp_Energy>
31.1686

> <b_lp_Chiralities_Consistent>
1

> <s_lp_Variant>
AV-unprocessed.smi:194-2

> <Gold.Version>
5.8.1

> <Gold.Id.Protein>
6NUR|6NUR_protein|mol2

> <Gold.PLP.Fitness>
36.3017

> <Gold.PLP.PLP>
-28.3441

> <Gold.PLP.part.hbond>
-3.8825

> <Gold.PLP.part.metal>
0.0000

> <Gold.PLP.part.buried>
-4.0323

> <Gold.PLP.part.nonpolar>
-20.8783

> <Gold.PLP.part.repulsive>
0.2708

> <Gold.PLP.ligand.clash>
0.0000

> <Gold.PLP.ligand.torsion>
0.5574

> <Gold.PLP.Chemscore.Hbond>
2.8112

> <Gold.PLP.Chemscore.CHOScore>
0.0000

> <Gold.PLP.Chemscore.Metal>
0.0000

> <Gold.Chemscore.Hbonds>
donor molecule, donor type, donor heavy atom, donor atom, acceptor molecule, acceptor atom, score
      L1  H    21    45       P1  7921  1.00
      P1  H  6934  6947       L1     6  1.00
      P1  H 10785 10796       L1    24  0.72

> <Gold.PLP.Chemscore.Internal.Correction>
0.6388

> <Gold.Rescore>
     Score         DG    S(hbond)    S(metal)    S(lipo)     H(rot)  DE(clash)    DE(int)     intcor
     12.05     -13.44       2.64        0.00      65.07       3.31       0.09       1.30       ----

> <Gold.Chemscore.Fitness>
12.0489

> <Gold.Chemscore.DG>
-13.4373

> <Gold.Chemscore.ZeroCoef>
-5.4800

> <Gold.Chemscore.Hbond>
2.6398

> <Gold.Chemscore.Metal>
0.0000

> <Gold.Chemscore.Lipo>
65.0717

> <Gold.Chemscore.Internal_Hbond>
0.0000

> <Gold.Chemscore.DEClash>
0.0870

> <Gold.Chemscore.DEInternal>
1.3014

> <Gold.Chemscore.Rot>
3.3098

> <Gold.Chemscore.Internal.Correction>
   9.000000E+99

> <Gold.Chemscore.Hbonds>
donor molecule, donor type, donor heavy atom, donor atom, acceptor molecule, acceptor atom, score
      L1  H    21    45       P1  7921  0.99
      P1  H  6934  6947       L1     6  1.00
      P1  H 10785 10796       L1    24  0.46

> <Gold.Chemscore.Hbond.Weighted>
-8.8169

> <Gold.Chemscore.Metal.Weighted>
-0.0000

> <Gold.Chemscore.Lipo.Weighted>
-7.6134

> <Gold.Chemscore.Internal_Hbond.Weighted>
0.0000

> <Gold.Chemscore.DEClash.Weighted>
0.0870

> <Gold.Chemscore.DEInternal.Weighted>
1.3014

> <Gold.Chemscore.Rot.Weighted>
8.4730

> <Gold.Chemscore.Internal.Correction.Weighted>
   9.000000E+99

> <Gold.Protein.RotatedTorsions>
[ 6907 6896 6895 6894 ] final  -50.33 input  -60.11 | X-H torsion
[ 7974 7965 7964 7962 ] final  -96.58 input  175.53 | X-H torsion
[ 8008 7997 7996 7995 ] final  -42.39 input   59.86 | X-H torsion
[ 10167 10162 10161 10158 ] final  156.14 input  -65.29 | X-H torsion
[ 10718 10713 10712 10709 ] final  -82.76 input   66.30 | X-H torsion
[ 10763 10752 10751 10750 ] final   16.94 input  -60.55 | X-H torsion
[ 11005 11000 10999 10996 ] final -123.65 input  -57.11 | X-H torsion

> <Gold.Protein.ActiveResidues>
 VAL166  LYS551  ARG553  GLY616  TRP617  ASP618  TYR619  PRO620  LYS621  CYS622 
 ASP623  PHE694  ASN695  SER759  ASP760  ASP761  ALA762  ILE779  LEU786  VAL792 
 PHE793  MET794  SER795  GLU796  ALA797  LYS798  CYS799  TRP800  GLU811  SER814 

> <Gold.Protein.RotatedAtoms>
  150.8718  134.8093  159.7159 H   0  0  0  0  0  0  0  0  0  0  0  0  # atno 6907 bound_to 6896
  152.4719  134.4935  159.9712 H   0  0  0  0  0  0  0  0  0  0  0  0  # atno 6908 bound_to 6896
  151.5023  133.3463  159.2906 H   0  0  0  0  0  0  0  0  0  0  0  0  # atno 6909 bound_to 6896
  145.3449  140.9466  143.2587 H   0  0  0  0  0  0  0  0  0  0  0  0  # atno 7974 bound_to 7965
  154.3999  140.1475  156.3347 H   0  0  0  0  0  0  0  0  0  0  0  0  # atno 8008 bound_to 7997
  155.8411  140.3462  155.5611 H   0  0  0  0  0  0  0  0  0  0  0  0  # atno 8009 bound_to 7997
  155.8085  140.0880  157.1907 H   0  0  0  0  0  0  0  0  0  0  0  0  # atno 8010 bound_to 7997
  139.4821  144.5036  151.8131 H   0  0  0  0  0  0  0  0  0  0  0  0  # atno 10167 bound_to 10162
  156.0028  130.4644  150.4154 H   0  0  0  0  0  0  0  0  0  0  0  0  # atno 10718 bound_to 10713
  153.1384  135.6755  153.9066 H   0  0  0  0  0  0  0  0  0  0  0  0  # atno 10763 bound_to 10752
  153.8531  135.3091  155.3435 H   0  0  0  0  0  0  0  0  0  0  0  0  # atno 10764 bound_to 10752
  154.7767  135.4910  153.9842 H   0  0  0  0  0  0  0  0  0  0  0  0  # atno 10765 bound_to 10752
  140.9902  134.0549  157.3663 H   0  0  0  0  0  0  0  0  0  0  0  0  # atno 11005 bound_to 11000
  144.8761  139.4969  143.6745 LP  0  0  0  0  0  0  0  0  0  0  0  0  # atno 17320 bound_to 7965
  146.2992  139.7372  142.9104 LP  0  0  0  0  0  0  0  0  0  0  0  0  # atno 17321 bound_to 7965
  140.4532  144.1826  150.5899 LP  0  0  0  0  0  0  0  0  0  0  0  0  # atno 17342 bound_to 10162
  140.4563  143.2466  151.9280 LP  0  0  0  0  0  0  0  0  0  0  0  0  # atno 17343 bound_to 10162
  157.2213  131.0483  151.2544 LP  0  0  0  0  0  0  0  0  0  0  0  0  # atno 17370 bound_to 10713
  157.3797  130.7225  149.6622 LP  0  0  0  0  0  0  0  0  0  0  0  0  # atno 17371 bound_to 10713
  139.8989  135.0156  156.7170 LP  0  0  0  0  0  0  0  0  0  0  0  0  # atno 17394 bound_to 11000
  140.7051  133.9272  155.8049 LP  0  0  0  0  0  0  0  0  0  0  0  0  # atno 17395 bound_to 11000

$$$$
