AV-unprocessed.smi:3301|AV-procd|sdf|12655|dock7
  -GOLD-   2272018593D 1   1.00000     0.00000
 Structure written by MMmdl.
 36 37  0  0  0  0  0  0  0  0  1 V2000
  145.9807  132.9610  153.5374 C   0  0  0  0  0  0  0  0  0  0  0  0
  147.1258  132.7985  152.5235 C   0  0  1  0  0  0  0  0  0  0  0  0
  146.7733  133.3126  151.1137 C   0  0  0  0  0  0  0  0  0  0  0  0
  145.4837  132.8389  150.6480 N   0  0  0  0  0  0  0  0  0  0  0  0
  144.5101  133.5784  149.9899 C   0  0  0  0  0  0  0  0  0  0  0  0
  143.4602  132.7209  149.7505 C   0  0  0  0  0  0  0  0  0  0  0  0
  143.7631  131.4571  150.2523 N   0  0  0  0  0  0  0  0  0  0  0  0
  144.9752  131.6048  150.7710 C   0  0  0  0  0  0  0  0  0  0  0  0
  148.3082  133.5067  153.0077 N   0  0  0  0  0  0  0  0  0  0  0  0
  149.0923  133.1293  154.0293 C   0  0  0  0  0  0  0  0  0  0  0  0
  148.8823  132.1260  154.7127 O   0  0  0  0  0  0  0  0  0  0  0  0
  150.2853  134.0472  154.3271 C   0  0  0  0  0  0  0  0  0  0  0  0
  149.8912  135.3561  154.8501 N   0  0  0  0  0  0  0  0  0  0  0  0
  148.5027  135.6379  155.1756 C   0  0  0  0  0  0  0  0  0  0  0  0
  148.4652  137.1372  155.5047 C   0  0  0  0  0  0  0  0  0  0  0  0
  149.9272  137.5671  155.6668 C   0  0  0  0  0  0  0  0  0  0  0  0
  150.7052  136.3867  155.1110 C   0  0  0  0  0  0  0  0  0  0  0  0
  151.9231  136.4103  154.9399 O   0  0  0  0  0  0  0  0  0  0  0  0
  145.1044  132.3815  153.2463 H   0  0  0  0  0  0  0  0  0  0  0  0
  145.6758  134.0041  153.6282 H   0  0  0  0  0  0  0  0  0  0  0  0
  146.2821  132.6144  154.5264 H   0  0  0  0  0  0  0  0  0  0  0  0
  147.3392  131.7312  152.4434 H   0  0  0  0  0  0  0  0  0  0  0  0
  146.7698  134.4036  151.0962 H   0  0  0  0  0  0  0  0  0  0  0  0
  147.5296  132.9915  150.3961 H   0  0  0  0  0  0  0  0  0  0  0  0
  144.6421  134.6239  149.7530 H   0  0  0  0  0  0  0  0  0  0  0  0
  142.5171  132.9151  149.2611 H   0  0  0  0  0  0  0  0  0  0  0  0
  145.5069  130.7949  151.2489 H   0  0  0  0  0  0  0  0  0  0  0  0
  148.5596  134.3512  152.5145 H   0  0  0  0  0  0  0  0  0  0  0  0
  150.9515  133.5605  155.0417 H   0  0  0  0  0  0  0  0  0  0  0  0
  150.8593  134.1776  153.4090 H   0  0  0  0  0  0  0  0  0  0  0  0
  147.8400  135.3917  154.3451 H   0  0  0  0  0  0  0  0  0  0  0  0
  148.2076  135.0396  156.0387 H   0  0  0  0  0  0  0  0  0  0  0  0
  148.0057  137.6893  154.6837 H   0  0  0  0  0  0  0  0  0  0  0  0
  147.8796  137.3378  156.4023 H   0  0  0  0  0  0  0  0  0  0  0  0
  150.1507  138.4848  155.1219 H   0  0  0  0  0  0  0  0  0  0  0  0
  150.1863  137.7094  156.7163 H   0  0  0  0  0  0  0  0  0  0  0  0
  1  2  1  0  0  0  0
  1 19  1  0  0  0  0
  1 20  1  0  0  0  0
  1 21  1  0  0  0  0
  2  3  1  0  0  0  0
  2  9  1  0  0  0  0
  2 22  1  0  0  0  0
  3  4  1  0  0  0  0
  3 23  1  0  0  0  0
  3 24  1  0  0  0  0
  4  8  1  0  0  0  0
  4  5  1  0  0  0  0
  5  6  2  0  0  0  0
  5 25  1  0  0  0  0
  6  7  1  0  0  0  0
  6 26  1  0  0  0  0
  7  8  2  0  0  0  0
  8 27  1  0  0  0  0
  9 10  1  0  0  0  0
  9 28  1  0  0  0  0
 10 11  2  0  0  0  0
 10 12  1  0  0  0  0
 12 13  1  0  0  0  0
 12 29  1  0  0  0  0
 12 30  1  0  0  0  0
 13 17  1  0  0  0  0
 13 14  1  0  0  0  0
 14 15  1  0  0  0  0
 14 31  1  0  0  0  0
 14 32  1  0  0  0  0
 15 16  1  0  0  0  0
 15 33  1  0  0  0  0
 15 34  1  0  0  0  0
 16 17  1  0  0  0  0
 16 35  1  0  0  0  0
 16 36  1  0  0  0  0
 17 18  2  0  0  0  0
M  END
> <s_m_source_file>
AV-unprocessed.smi

> <i_m_source_file_index>
3301

> <i_lp_mmshare_version>
43012

> <i_f3d_flags>
0

> <s_epik_input>
W2NIXTFuW2NIXVtjSF1uMVtDSDJdW0NAQEhdKFtDSDNdKVtOSF1DKD1PKVtDSDJdTjJbQ0gyXVtDSDJdW0NIMl1DMj1P

> <s_epik_cmdline>
J2VwaWtfcHl0aG9uJywgJy1waCcsICc3LjAnLCAnLXRuJywgJzgnLCAnLW1hJywgJzIwMCcsICctbWV0YWxfYmluZGluZycsICctaW1hZScsICc8aW5maWxlLm1hZT4nLCAnLW9tYWUnLCAnPG91dGZpbGUubWFlPic=

> <r_lp_tautomer_probability>
1

> <r_epik_Ionization_Penalty>
0.623868

> <r_epik_Ionization_Penalty_Charging>
0.623868

> <r_epik_Ionization_Penalty_Neutral>
4.45089e-08

> <r_epik_State_Penalty>
0.640129

> <r_epik_Charging_Adjusted_Penalty>
1.264

> <i_epik_Tot_Q>
0

> <i_epik_Tot_abs_Q>
0

> <r_epik_Metal_State_Penalty>
0.307431

> <b_epik_Metal_Only>
0

> <s_lp_Force_Field>
OPLS_2005

> <r_lp_Energy>
14.8621

> <b_lp_Chiralities_Consistent>
1

> <s_lp_Variant>
AV-unprocessed.smi:3301-4

> <Gold.Version>
5.8.1

> <Gold.Id.Protein>
6NUR|6NUR_protein|mol2

> <Gold.PLP.Fitness>
39.5298

> <Gold.PLP.PLP>
-28.3549

> <Gold.PLP.part.hbond>
-3.0000

> <Gold.PLP.part.metal>
0.0000

> <Gold.PLP.part.buried>
-2.5801

> <Gold.PLP.part.nonpolar>
-22.8233

> <Gold.PLP.part.repulsive>
0.2641

> <Gold.PLP.ligand.clash>
0.0000

> <Gold.PLP.ligand.torsion>
0.5744

> <Gold.PLP.Chemscore.Hbond>
2.4517

> <Gold.PLP.Chemscore.CHOScore>
1.6410

> <Gold.PLP.Chemscore.Metal>
0.0000

> <Gold.Chemscore.Hbonds>
donor molecule, donor type, donor heavy atom, donor atom, acceptor molecule, acceptor atom, score
      L1  H     9    28       P1  7948  0.55
      P1  H 10752 10764       L1    18  0.69
      P1  H 10785 10796       L1     7  0.70
      L1  C     5    25       P1  7921  0.48
      L1  C     6    26       P1 10186  1.00

> <Gold.PLP.Chemscore.Internal.Correction>
0.0456

> <Gold.Rescore>
     Score         DG    S(hbond)    S(metal)    S(lipo)     H(rot)  DE(clash)    DE(int)     intcor
     10.16     -11.03       1.83        0.00      44.78       2.26       0.49       0.37       ----

> <Gold.Chemscore.Fitness>
10.1630

> <Gold.Chemscore.DG>
-11.0250

> <Gold.Chemscore.ZeroCoef>
-5.4800

> <Gold.Chemscore.Hbond>
1.8273

> <Gold.Chemscore.Metal>
0.0000

> <Gold.Chemscore.Lipo>
44.7817

> <Gold.Chemscore.Internal_Hbond>
0.0000

> <Gold.Chemscore.DEClash>
0.4871

> <Gold.Chemscore.DEInternal>
0.3750

> <Gold.Chemscore.Rot>
2.2647

> <Gold.Chemscore.Internal.Correction>
   9.000000E+99

> <Gold.Chemscore.Hbonds>
donor molecule, donor type, donor heavy atom, donor atom, acceptor molecule, acceptor atom, score
      L1  H     9    28       P1  7948  0.03
      P1  H 10752 10764       L1    18  0.67
      P1  H 10785 10796       L1     7  0.37

> <Gold.Chemscore.Hbond.Weighted>
-6.1031

> <Gold.Chemscore.Metal.Weighted>
-0.0000

> <Gold.Chemscore.Lipo.Weighted>
-5.2395

> <Gold.Chemscore.Internal_Hbond.Weighted>
0.0000

> <Gold.Chemscore.DEClash.Weighted>
0.4871

> <Gold.Chemscore.DEInternal.Weighted>
0.3750

> <Gold.Chemscore.Rot.Weighted>
5.7975

> <Gold.Chemscore.Internal.Correction.Weighted>
   9.000000E+99

> <Gold.Protein.RotatedTorsions>
[ 6907 6896 6895 6894 ] final  115.71 input  -60.11 | X-H torsion
[ 7974 7965 7964 7962 ] final  -60.44 input  175.53 | X-H torsion
[ 8008 7997 7996 7995 ] final   74.43 input   59.86 | X-H torsion
[ 10167 10162 10161 10158 ] final -118.37 input  -65.29 | X-H torsion
[ 10718 10713 10712 10709 ] final  -53.49 input   66.30 | X-H torsion
[ 10763 10752 10751 10750 ] final  -39.38 input  -60.55 | X-H torsion
[ 11005 11000 10999 10996 ] final  -78.38 input  -57.11 | X-H torsion

> <Gold.Protein.ActiveResidues>
 VAL166  LYS551  ARG553  GLY616  TRP617  ASP618  TYR619  PRO620  LYS621  CYS622 
 ASP623  PHE694  ASN695  SER759  ASP760  ASP761  ALA762  ILE779  LEU786  VAL792 
 PHE793  MET794  SER795  GLU796  ALA797  LYS798  CYS799  TRP800  GLU811  SER814 

> <Gold.Protein.RotatedAtoms>
  152.4724  133.8060  159.6977 H   0  0  0  0  0  0  0  0  0  0  0  0  # atno 6907 bound_to 6896
  150.8721  133.7481  159.2964 H   0  0  0  0  0  0  0  0  0  0  0  0  # atno 6908 bound_to 6896
  151.5013  135.1065  159.9881 H   0  0  0  0  0  0  0  0  0  0  0  0  # atno 6909 bound_to 6896
  145.8154  140.8573  143.0160 H   0  0  0  0  0  0  0  0  0  0  0  0  # atno 7974 bound_to 7965
  155.7982  140.3477  155.5387 H   0  0  0  0  0  0  0  0  0  0  0  0  # atno 8008 bound_to 7997
  155.8565  140.0964  157.1661 H   0  0  0  0  0  0  0  0  0  0  0  0  # atno 8009 bound_to 7997
  154.4010  140.1366  156.3896 H   0  0  0  0  0  0  0  0  0  0  0  0  # atno 8010 bound_to 7997
  140.0582  143.4993  152.2046 H   0  0  0  0  0  0  0  0  0  0  0  0  # atno 10167 bound_to 10162
  156.1531  130.4151  149.9913 H   0  0  0  0  0  0  0  0  0  0  0  0  # atno 10718 bound_to 10713
  153.9285  135.6774  153.4746 H   0  0  0  0  0  0  0  0  0  0  0  0  # atno 10763 bound_to 10752
  153.0992  135.4836  154.8832 H   0  0  0  0  0  0  0  0  0  0  0  0  # atno 10764 bound_to 10752
  154.7440  135.3168  154.8634 H   0  0  0  0  0  0  0  0  0  0  0  0  # atno 10765 bound_to 10752
  141.1664  133.7061  156.7963 H   0  0  0  0  0  0  0  0  0  0  0  0  # atno 11005 bound_to 11000
  144.6753  140.0456  143.7480 LP  0  0  0  0  0  0  0  0  0  0  0  0  # atno 17320 bound_to 7965
  145.9732  139.2885  143.1086 LP  0  0  0  0  0  0  0  0  0  0  0  0  # atno 17321 bound_to 7965
  139.5910  144.7550  151.3401 LP  0  0  0  0  0  0  0  0  0  0  0  0  # atno 17342 bound_to 10162
  140.7184  143.7202  150.7701 LP  0  0  0  0  0  0  0  0  0  0  0  0  # atno 17343 bound_to 10162
  156.7765  130.9205  151.3645 LP  0  0  0  0  0  0  0  0  0  0  0  0  # atno 17370 bound_to 10713
  157.6673  130.9019  149.9960 LP  0  0  0  0  0  0  0  0  0  0  0  0  # atno 17371 bound_to 10713
  140.2289  134.8701  157.3456 LP  0  0  0  0  0  0  0  0  0  0  0  0  # atno 17394 bound_to 11000
  140.1911  134.4370  155.7715 LP  0  0  0  0  0  0  0  0  0  0  0  0  # atno 17395 bound_to 11000

$$$$
