AV-unprocessed.smi:15|AV-procd|sdf|86|dock10
  -GOLD-   2262015223D 1   1.00000     0.00000
 Structure written by MMmdl.
 53 56  0  0  0  0  0  0  0  0  1 V2000
  146.5931  135.6902  158.2352 C   0  0  0  0  0  0  0  0  0  0  0  0
  147.2089  137.0627  158.5370 C   0  0  0  0  0  0  0  0  0  0  0  0
  148.4567  136.9698  159.2948 N   0  0  0  0  0  0  0  0  0  0  0  0
  148.4277  136.6974  160.7332 C   0  0  0  0  0  0  0  0  0  0  0  0
  147.1158  136.0379  161.1995 C   0  0  1  0  0  0  0  0  0  0  0  0
  147.2384  134.5352  161.4386 C   0  0  0  0  0  0  0  0  0  0  0  0
  146.1196  134.2404  162.4263 C   0  0  0  0  0  0  0  0  0  0  0  0
  145.7429  135.6162  162.9834 C   0  0  0  0  0  0  0  0  0  0  0  0
  146.7372  136.5000  162.4871 O   0  0  0  0  0  0  0  0  0  0  0  0
  149.4782  137.7681  158.9009 C   0  0  0  0  0  0  0  0  0  0  0  0
  150.7407  137.3075  159.0919 N   0  0  0  0  0  0  0  0  0  0  0  0
  151.7901  138.0580  158.7453 C   0  0  0  0  0  0  0  0  0  0  0  0
  151.8018  139.2800  158.2097 N   0  0  0  0  0  0  0  0  0  0  0  0
  150.5357  139.7524  158.0248 C   0  0  0  0  0  0  0  0  0  0  0  0
  149.3264  139.0687  158.3371 C   0  0  0  0  0  0  0  0  0  0  0  0
  148.2373  139.8760  158.0281 N   0  0  0  0  0  0  0  0  0  0  0  0
  148.7715  140.9679  157.5539 C   0  0  0  0  0  0  0  0  0  0  0  0
  150.1470  140.9775  157.5116 N   0  0  0  0  0  0  0  0  0  0  0  0
  150.9960  142.0615  157.0406 C   0  0  0  0  0  0  0  0  0  0  0  0
  151.0198  143.2851  157.9932 C   0  0  2  0  0  0  0  0  0  0  0  0
  149.6946  143.7805  158.0967 O   0  0  0  0  0  0  0  0  0  0  0  0
  151.9085  144.4251  157.5051 C   0  0  0  0  0  0  0  0  0  0  0  0
  152.3127  145.1177  158.7971 C   0  0  0  0  0  0  0  0  0  0  0  0
  152.5288  144.0277  159.6761 O   0  0  0  0  0  0  0  0  0  0  0  0
  151.5394  143.0290  159.4364 C   0  0  2  0  0  0  0  0  0  0  0  0
  152.1930  141.6634  159.7031 C   0  0  0  0  0  0  0  0  0  0  0  0
  145.7092  135.7978  157.6064 H   0  0  0  0  0  0  0  0  0  0  0  0
  146.2824  135.1764  159.1448 H   0  0  0  0  0  0  0  0  0  0  0  0
  147.2998  135.0493  157.7073 H   0  0  0  0  0  0  0  0  0  0  0  0
  147.3989  137.5675  157.5887 H   0  0  0  0  0  0  0  0  0  0  0  0
  146.4902  137.6776  159.0785 H   0  0  0  0  0  0  0  0  0  0  0  0
  149.2639  136.0430  160.9762 H   0  0  0  0  0  0  0  0  0  0  0  0
  148.6045  137.6139  161.2975 H   0  0  0  0  0  0  0  0  0  0  0  0
  146.3060  136.2263  160.4928 H   0  0  0  0  0  0  0  0  0  0  0  0
  147.1582  133.9551  160.5190 H   0  0  0  0  0  0  0  0  0  0  0  0
  148.2003  134.3051  161.8990 H   0  0  0  0  0  0  0  0  0  0  0  0
  145.2627  133.7808  161.9326 H   0  0  0  0  0  0  0  0  0  0  0  0
  146.4590  133.5630  163.2105 H   0  0  0  0  0  0  0  0  0  0  0  0
  144.7667  135.9281  162.6097 H   0  0  0  0  0  0  0  0  0  0  0  0
  145.7123  135.6349  164.0729 H   0  0  0  0  0  0  0  0  0  0  0  0
  152.7596  137.6179  158.9272 H   0  0  0  0  0  0  0  0  0  0  0  0
  148.1729  141.8025  157.2187 H   0  0  0  0  0  0  0  0  0  0  0  0
  152.0037  141.6676  156.9022 H   0  0  0  0  0  0  0  0  0  0  0  0
  150.6405  142.3525  156.0520 H   0  0  0  0  0  0  0  0  0  0  0  0
  149.4591  144.1777  157.2722 H   0  0  0  0  0  0  0  0  0  0  0  0
  152.8042  144.0247  157.0285 H   0  0  0  0  0  0  0  0  0  0  0  0
  151.4218  145.0920  156.7917 H   0  0  0  0  0  0  0  0  0  0  0  0
  153.2074  145.7305  158.6872 H   0  0  0  0  0  0  0  0  0  0  0  0
  151.5055  145.7452  159.1776 H   0  0  0  0  0  0  0  0  0  0  0  0
  150.7370  143.1730  160.1624 H   0  0  0  0  0  0  0  0  0  0  0  0
  151.4889  140.8461  159.5477 H   0  0  0  0  0  0  0  0  0  0  0  0
  152.5423  141.5998  160.7339 H   0  0  0  0  0  0  0  0  0  0  0  0
  153.0555  141.4998  159.0570 H   0  0  0  0  0  0  0  0  0  0  0  0
  1  2  1  0  0  0  0
  1 27  1  0  0  0  0
  1 28  1  0  0  0  0
  1 29  1  0  0  0  0
  2  3  1  0  0  0  0
  2 30  1  0  0  0  0
  2 31  1  0  0  0  0
  3  4  1  0  0  0  0
  3 10  1  0  0  0  0
  4  5  1  0  0  0  0
  4 32  1  0  0  0  0
  4 33  1  0  0  0  0
  5  9  1  0  0  0  0
  5  6  1  0  0  0  0
  5 34  1  0  0  0  0
  6  7  1  0  0  0  0
  6 35  1  0  0  0  0
  6 36  1  0  0  0  0
  7  8  1  0  0  0  0
  7 37  1  0  0  0  0
  7 38  1  0  0  0  0
  8  9  1  0  0  0  0
  8 39  1  0  0  0  0
  8 40  1  0  0  0  0
 10 15  1  0  0  0  0
 10 11  2  0  0  0  0
 11 12  1  0  0  0  0
 12 13  2  0  0  0  0
 12 41  1  0  0  0  0
 13 14  1  0  0  0  0
 14 18  1  0  0  0  0
 14 15  2  0  0  0  0
 15 16  1  0  0  0  0
 16 17  2  0  0  0  0
 17 18  1  0  0  0  0
 17 42  1  0  0  0  0
 18 19  1  0  0  0  0
 19 20  1  0  0  0  0
 19 43  1  0  0  0  0
 19 44  1  0  0  0  0
 20 25  1  0  0  0  0
 20 21  1  0  0  0  0
 20 22  1  0  0  0  0
 21 45  1  0  0  0  0
 22 23  1  0  0  0  0
 22 46  1  0  0  0  0
 22 47  1  0  0  0  0
 23 24  1  0  0  0  0
 23 48  1  0  0  0  0
 23 49  1  0  0  0  0
 24 25  1  0  0  0  0
 25 26  1  0  0  0  0
 25 50  1  0  0  0  0
 26 51  1  0  0  0  0
 26 52  1  0  0  0  0
 26 53  1  0  0  0  0
M  END
> <s_m_source_file>
AV-unprocessed.smi

> <i_m_source_file_index>
15

> <i_lp_mmshare_version>
43012

> <i_f3d_flags>
0

> <s_epik_input>
TzFbQ0gyXVtDSDJdW0NIMl1bQ0BIXTFbQ0gyXU4oW0NIMl1bQ0gzXSljKG5bY0hdbjIpYyhjMjMpbltjSF1uM1tDSDJdW0NAQF00KFtPSF0pW0NIMl1bQ0gyXU9bQ0BIXTRbQ0gzXQ==

> <s_epik_cmdline>
J2VwaWtfcHl0aG9uJywgJy1waCcsICc3LjAnLCAnLXRuJywgJzgnLCAnLW1hJywgJzIwMCcsICctbWV0YWxfYmluZGluZycsICctaW1hZScsICc8aW5maWxlLm1hZT4nLCAnLW9tYWUnLCAnPG91dGZpbGUubWFlPic=

> <r_lp_tautomer_probability>
1

> <r_epik_Ionization_Penalty>
0.00360814

> <r_epik_Ionization_Penalty_Charging>
0

> <r_epik_Ionization_Penalty_Neutral>
0.00360814

> <r_epik_State_Penalty>
0.00237482

> <r_epik_Charging_Adjusted_Penalty>
0.00237482

> <i_epik_Tot_Q>
0

> <i_epik_Tot_abs_Q>
0

> <r_epik_Metal_State_Penalty>
-0

> <b_epik_Metal_Only>
0

> <s_lp_Force_Field>
OPLS_2005

> <r_lp_Energy>
45.3604

> <b_lp_Chiralities_Consistent>
1

> <s_lp_Variant>
AV-unprocessed.smi:15-8

> <Gold.Version>
5.8.1

> <Gold.Id.Protein>
6NUR|6NUR_protein|mol2

> <Gold.PLP.Fitness>
48.9654

> <Gold.PLP.PLP>
-46.0451

> <Gold.PLP.part.hbond>
-2.6253

> <Gold.PLP.part.metal>
0.0000

> <Gold.PLP.part.buried>
-8.3118

> <Gold.PLP.part.nonpolar>
-35.7628

> <Gold.PLP.part.repulsive>
0.0076

> <Gold.PLP.ligand.clash>
0.0000

> <Gold.PLP.ligand.torsion>
1.9150

> <Gold.PLP.Chemscore.Hbond>
1.9263

> <Gold.PLP.Chemscore.CHOScore>
0.0000

> <Gold.PLP.Chemscore.Metal>
0.0000

> <Gold.Chemscore.Hbonds>
donor molecule, donor type, donor heavy atom, donor atom, acceptor molecule, acceptor atom, score
      L1  H    21    45       P1  8028  0.95
      P1  H  6896  6908       L1    11  0.13

> <Gold.PLP.Chemscore.Internal.Correction>
0.9716

> <Gold.Rescore>
     Score         DG    S(hbond)    S(metal)    S(lipo)     H(rot)  DE(clash)    DE(int)     intcor
     13.63     -17.67       1.81        0.00     105.95       2.44       0.10       3.94       ----

> <Gold.Chemscore.Fitness>
13.6316

> <Gold.Chemscore.DG>
-17.6670

> <Gold.Chemscore.ZeroCoef>
-5.4800

> <Gold.Chemscore.Hbond>
1.8101

> <Gold.Chemscore.Metal>
0.0000

> <Gold.Chemscore.Lipo>
105.9456

> <Gold.Chemscore.Internal_Hbond>
0.0000

> <Gold.Chemscore.DEClash>
0.0997

> <Gold.Chemscore.DEInternal>
3.9356

> <Gold.Chemscore.Rot>
2.4431

> <Gold.Chemscore.Internal.Correction>
   9.000000E+99

> <Gold.Chemscore.Hbonds>
donor molecule, donor type, donor heavy atom, donor atom, acceptor molecule, acceptor atom, score
      L1  H    21    45       P1  8028  0.22
      P1  H  6896  6908       L1    11  0.14

> <Gold.Chemscore.Hbond.Weighted>
-6.0458

> <Gold.Chemscore.Metal.Weighted>
-0.0000

> <Gold.Chemscore.Lipo.Weighted>
-12.3956

> <Gold.Chemscore.Internal_Hbond.Weighted>
0.0000

> <Gold.Chemscore.DEClash.Weighted>
0.0997

> <Gold.Chemscore.DEInternal.Weighted>
3.9356

> <Gold.Chemscore.Rot.Weighted>
6.2544

> <Gold.Chemscore.Internal.Correction.Weighted>
   9.000000E+99

> <Gold.Protein.RotatedTorsions>
[ 6907 6896 6895 6894 ] final -138.11 input  -60.11 | X-H torsion
[ 7974 7965 7964 7962 ] final  -19.34 input  175.53 | X-H torsion
[ 8008 7997 7996 7995 ] final -100.48 input   59.86 | X-H torsion
[ 10167 10162 10161 10158 ] final  165.30 input  -65.29 | X-H torsion
[ 10718 10713 10712 10709 ] final   61.80 input   66.30 | X-H torsion
[ 10763 10752 10751 10750 ] final  137.26 input  -60.55 | X-H torsion
[ 11005 11000 10999 10996 ] final   -8.66 input  -57.11 | X-H torsion

> <Gold.Protein.ActiveResidues>
 VAL166  LYS551  ARG553  GLY616  TRP617  ASP618  TYR619  PRO620  LYS621  CYS622 
 ASP623  PHE694  ASN695  SER759  ASP760  ASP761  ALA762  ILE779  LEU786  VAL792 
 PHE793  MET794  SER795  GLU796  ALA797  LYS798  CYS799  TRP800  GLU811  SER814 

> <Gold.Protein.RotatedAtoms>
  151.0310  133.5791  159.2660 H   0  0  0  0  0  0  0  0  0  0  0  0  # atno 6907 bound_to 6896
  151.2873  135.0730  159.9201 H   0  0  0  0  0  0  0  0  0  0  0  0  # atno 6908 bound_to 6896
  152.5344  134.0014  159.7950 H   0  0  0  0  0  0  0  0  0  0  0  0  # atno 6909 bound_to 6896
  146.1846  140.4048  142.8481 H   0  0  0  0  0  0  0  0  0  0  0  0  # atno 7974 bound_to 7965
  154.8292  140.0440  157.1465 H   0  0  0  0  0  0  0  0  0  0  0  0  # atno 8008 bound_to 7997
  154.9172  140.3022  155.5215 H   0  0  0  0  0  0  0  0  0  0  0  0  # atno 8009 bound_to 7997
  156.2986  140.2347  156.4217 H   0  0  0  0  0  0  0  0  0  0  0  0  # atno 8010 bound_to 7997
  139.4903  144.4146  151.9259 H   0  0  0  0  0  0  0  0  0  0  0  0  # atno 10167 bound_to 10162
  157.5855  130.9015  149.9507 H   0  0  0  0  0  0  0  0  0  0  0  0  # atno 10718 bound_to 10713
  153.8702  135.3056  155.3441 H   0  0  0  0  0  0  0  0  0  0  0  0  # atno 10763 bound_to 10752
  154.7809  135.4836  153.9846 H   0  0  0  0  0  0  0  0  0  0  0  0  # atno 10764 bound_to 10752
  153.1411  135.6824  153.9122 H   0  0  0  0  0  0  0  0  0  0  0  0  # atno 10765 bound_to 10752
  140.7259  133.8789  155.8856 H   0  0  0  0  0  0  0  0  0  0  0  0  # atno 11005 bound_to 11000
  144.8375  140.6804  143.6251 LP  0  0  0  0  0  0  0  0  0  0  0  0  # atno 17320 bound_to 7965
  145.3976  139.1604  143.4195 LP  0  0  0  0  0  0  0  0  0  0  0  0  # atno 17321 bound_to 7965
  140.3588  144.2998  150.5937 LP  0  0  0  0  0  0  0  0  0  0  0  0  # atno 17342 bound_to 10162
  140.5421  143.2221  151.8068 LP  0  0  0  0  0  0  0  0  0  0  0  0  # atno 17343 bound_to 10162
  156.0903  130.3664  150.0407 LP  0  0  0  0  0  0  0  0  0  0  0  0  # atno 17370 bound_to 10713
  156.8539  130.9468  151.3623 LP  0  0  0  0  0  0  0  0  0  0  0  0  # atno 17371 bound_to 10713
  140.9963  134.1210  157.4360 LP  0  0  0  0  0  0  0  0  0  0  0  0  # atno 17394 bound_to 11000
  139.8837  135.0055  156.6320 LP  0  0  0  0  0  0  0  0  0  0  0  0  # atno 17395 bound_to 11000

$$$$
