AV-unprocessed.smi:3201|AV-procd|sdf|12238|dock9
  -GOLD-   2272018 73D 1   1.00000     0.00000
 Structure written by MMmdl.
 41 43  0  0  0  0  0  0  0  0  2 V2000
  149.6816  138.1557  154.4887 C   0  0  0  0  0  0  0  0  0  0  0  0
  149.2078  139.5726  154.4390 C   0  0  0  0  0  0  0  0  0  0  0  0
  149.6948  140.7006  155.0437 C   0  0  0  0  0  0  0  0  0  0  0  0
  150.8776  140.8501  155.9606 C   0  0  0  0  0  0  0  0  0  0  0  0
  151.0198  142.2929  156.4627 C   0  0  0  0  0  0  0  0  0  0  0  0
  149.9282  142.6412  157.3945 N   0  3  0  0  0  0  0  0  0  0  0  0
  150.3809  143.1575  158.7048 C   0  0  1  0  0  0  0  0  0  0  0  0
  151.6186  142.4028  159.2451 C   0  0  0  0  0  0  0  0  0  0  0  0
  152.6493  143.5289  159.4432 C   0  0  2  0  0  0  0  0  0  0  0  0
  152.2110  144.4328  160.6105 C   0  0  0  0  0  0  0  0  0  0  0  0
  151.0162  145.2011  160.0142 C   0  0  0  0  0  0  0  0  0  0  0  0
  150.9024  144.6072  158.5970 C   0  0  1  0  0  0  0  0  0  0  0  0
  152.3720  144.4132  158.2341 C   0  0  0  0  0  0  0  0  0  0  0  0
  148.8105  141.7263  154.6048 C   0  0  0  0  0  0  0  0  0  0  0  0
  147.8599  141.2772  153.8053 N   0  0  0  0  0  0  0  0  0  0  0  0
  148.1033  139.9548  153.7005 N   0  0  0  0  0  0  0  0  0  0  0  0
  147.2317  139.1347  152.8816 C   0  0  0  0  0  0  0  0  0  0  0  0
  150.5401  138.0478  155.1512 H   0  0  0  0  0  0  0  0  0  0  0  0
  149.9795  137.8127  153.4977 H   0  0  0  0  0  0  0  0  0  0  0  0
  148.8936  137.4959  154.8525 H   0  0  0  0  0  0  0  0  0  0  0  0
  150.7866  140.1764  156.8134 H   0  0  0  0  0  0  0  0  0  0  0  0
  151.7945  140.5554  155.4485 H   0  0  0  0  0  0  0  0  0  0  0  0
  151.9771  142.4182  156.9705 H   0  0  0  0  0  0  0  0  0  0  0  0
  151.0121  142.9821  155.6175 H   0  0  0  0  0  0  0  0  0  0  0  0
  149.3315  143.3324  156.9631 H   0  0  0  0  0  0  0  0  0  0  0  0
  149.5467  143.1082  159.4067 H   0  0  0  0  0  0  0  0  0  0  0  0
  151.4060  141.8695  160.1725 H   0  0  0  0  0  0  0  0  0  0  0  0
  151.9960  141.6751  158.5249 H   0  0  0  0  0  0  0  0  0  0  0  0
  153.6761  143.1717  159.5275 H   0  0  0  0  0  0  0  0  0  0  0  0
  151.9375  143.8588  161.4966 H   0  0  0  0  0  0  0  0  0  0  0  0
  153.0082  145.1227  160.8911 H   0  0  0  0  0  0  0  0  0  0  0  0
  150.1037  145.0719  160.5975 H   0  0  0  0  0  0  0  0  0  0  0  0
  151.2335  146.2692  159.9695 H   0  0  0  0  0  0  0  0  0  0  0  0
  150.3340  145.2367  157.9113 H   0  0  0  0  0  0  0  0  0  0  0  0
  152.9458  145.3418  158.2371 H   0  0  0  0  0  0  0  0  0  0  0  0
  152.5228  143.9038  157.2807 H   0  0  0  0  0  0  0  0  0  0  0  0
  148.8305  142.7790  154.8454 H   0  0  0  0  0  0  0  0  0  0  0  0
  147.8278  138.5474  152.1825 H   0  0  0  0  0  0  0  0  0  0  0  0
  146.5380  139.7571  152.3142 H   0  0  0  0  0  0  0  0  0  0  0  0
  146.6604  138.4588  153.5187 H   0  0  0  0  0  0  0  0  0  0  0  0
  149.3858  141.8050  157.5585 H   0  0  0  0  0  0  0  0  0  0  0  0
  1  2  1  0  0  0  0
  1 18  1  0  0  0  0
  1 19  1  0  0  0  0
  1 20  1  0  0  0  0
  2 16  1  0  0  0  0
  2  3  2  0  0  0  0
  3  4  1  0  0  0  0
  3 14  1  0  0  0  0
  4  5  1  0  0  0  0
  4 21  1  0  0  0  0
  4 22  1  0  0  0  0
  5  6  1  0  0  0  0
  5 23  1  0  0  0  0
  5 24  1  0  0  0  0
  6  7  1  0  0  0  0
  6 25  1  0  0  0  0
  6 41  1  0  0  0  0
  7 12  1  0  0  0  0
  7  8  1  0  0  0  0
  7 26  1  0  0  0  0
  8  9  1  0  0  0  0
  8 27  1  0  0  0  0
  8 28  1  0  0  0  0
  9 13  1  0  0  0  0
  9 10  1  0  0  0  0
  9 29  1  0  0  0  0
 10 11  1  0  0  0  0
 10 30  1  0  0  0  0
 10 31  1  0  0  0  0
 11 12  1  0  0  0  0
 11 32  1  0  0  0  0
 11 33  1  0  0  0  0
 12 13  1  0  0  0  0
 12 34  1  0  0  0  0
 13 35  1  0  0  0  0
 13 36  1  0  0  0  0
 14 15  2  0  0  0  0
 14 37  1  0  0  0  0
 15 16  1  0  0  0  0
 16 17  1  0  0  0  0
 17 38  1  0  0  0  0
 17 39  1  0  0  0  0
 17 40  1  0  0  0  0
M  CHG  1   6   1
M  END
> <s_m_source_file>
AV-unprocessed.smi

> <i_m_source_file_index>
3201

> <i_lp_mmshare_version>
43012

> <i_f3d_flags>
0

> <s_epik_input>
W0NIM11uMW5bY0hdYyhjMVtDSDNdKVtDSDJdW0NIMl1bTkhdW0NASF0oW0NIMl1bQ0BIXTIzKVtDQEhdKFtDSDJdMylbQ0gyXVtDSDJdMg==

> <s_epik_cmdline>
J2VwaWtfcHl0aG9uJywgJy1waCcsICc3LjAnLCAnLXRuJywgJzgnLCAnLW1hJywgJzIwMCcsICctbWV0YWxfYmluZGluZycsICctaW1hZScsICc8aW5maWxlLm1hZT4nLCAnLW9tYWUnLCAnPG91dGZpbGUubWFlPic=

> <r_lp_tautomer_probability>
1

> <r_epik_Ionization_Penalty>
0.000331174

> <r_epik_Ionization_Penalty_Charging>
0.000242709

> <r_epik_Ionization_Penalty_Neutral>
8.84659e-05

> <r_epik_State_Penalty>
-0

> <r_epik_Charging_Adjusted_Penalty>
0.000242709

> <i_epik_Tot_Q>
1

> <i_epik_Tot_abs_Q>
1

> <r_epik_Metal_State_Penalty>
-0

> <b_epik_Metal_Only>
0

> <s_lp_Force_Field>
OPLS_2005

> <r_lp_Energy>
49.6372

> <b_lp_Chiralities_Consistent>
1

> <s_lp_Variant>
AV-unprocessed.smi:3201-2

> <Gold.Version>
5.8.1

> <Gold.Id.Protein>
6NUR|6NUR_protein|mol2

> <Gold.PLP.Fitness>
50.3306

> <Gold.PLP.PLP>
-42.4024

> <Gold.PLP.part.hbond>
-1.0000

> <Gold.PLP.part.metal>
0.0000

> <Gold.PLP.part.buried>
-2.1656

> <Gold.PLP.part.nonpolar>
-39.5809

> <Gold.PLP.part.repulsive>
0.1818

> <Gold.PLP.ligand.clash>
0.0000

> <Gold.PLP.ligand.torsion>
0.5435

> <Gold.PLP.Chemscore.Hbond>
2.0000

> <Gold.PLP.Chemscore.CHOScore>
1.0000

> <Gold.PLP.Chemscore.Metal>
0.0000

> <Gold.Chemscore.Hbonds>
donor molecule, donor type, donor heavy atom, donor atom, acceptor molecule, acceptor atom, score
      L1  H     6    25       P1  8028  2.00
      L1  C    14    37       P1  8028  1.00

> <Gold.PLP.Chemscore.Internal.Correction>
0.0151

> <Gold.Rescore>
     Score         DG    S(hbond)    S(metal)    S(lipo)     H(rot)  DE(clash)    DE(int)     intcor
     19.54     -20.41       0.97        0.00     129.53       1.36       0.28       0.59       ----

> <Gold.Chemscore.Fitness>
19.5429

> <Gold.Chemscore.DG>
-20.4059

> <Gold.Chemscore.ZeroCoef>
-5.4800

> <Gold.Chemscore.Hbond>
0.9727

> <Gold.Chemscore.Metal>
0.0000

> <Gold.Chemscore.Lipo>
129.5340

> <Gold.Chemscore.Internal_Hbond>
0.0000

> <Gold.Chemscore.DEClash>
0.2763

> <Gold.Chemscore.DEInternal>
0.5866

> <Gold.Chemscore.Rot>
1.3588

> <Gold.Chemscore.Internal.Correction>
   9.000000E+99

> <Gold.Chemscore.Hbonds>
donor molecule, donor type, donor heavy atom, donor atom, acceptor molecule, acceptor atom, score
      L1  H     6    25       P1  8028  0.92

> <Gold.Chemscore.Hbond.Weighted>
-3.2490

> <Gold.Chemscore.Metal.Weighted>
-0.0000

> <Gold.Chemscore.Lipo.Weighted>
-15.1555

> <Gold.Chemscore.Internal_Hbond.Weighted>
0.0000

> <Gold.Chemscore.DEClash.Weighted>
0.2763

> <Gold.Chemscore.DEInternal.Weighted>
0.5866

> <Gold.Chemscore.Rot.Weighted>
3.4786

> <Gold.Chemscore.Internal.Correction.Weighted>
   9.000000E+99

> <Gold.Protein.RotatedTorsions>
[ 6907 6896 6895 6894 ] final  142.07 input  -60.11 | X-H torsion
[ 7974 7965 7964 7962 ] final  -22.17 input  175.53 | X-H torsion
[ 8008 7997 7996 7995 ] final  -65.61 input   59.86 | X-H torsion
[ 10167 10162 10161 10158 ] final  -86.97 input  -65.29 | X-H torsion
[ 10718 10713 10712 10709 ] final   70.25 input   66.30 | X-H torsion
[ 10763 10752 10751 10750 ] final  112.16 input  -60.55 | X-H torsion
[ 11005 11000 10999 10996 ] final   23.98 input  -57.11 | X-H torsion

> <Gold.Protein.ActiveResidues>
 VAL166  LYS551  ARG553  GLY616  TRP617  ASP618  TYR619  PRO620  LYS621  CYS622 
 ASP623  PHE694  ASN695  SER759  ASP760  ASP761  ALA762  ILE779  LEU786  VAL792 
 PHE793  MET794  SER795  GLU796  ALA797  LYS798  CYS799  TRP800  GLU811  SER814 

> <Gold.Protein.RotatedAtoms>
  152.2233  133.5000  159.5174 H   0  0  0  0  0  0  0  0  0  0  0  0  # atno 6907 bound_to 6896
  150.7018  134.1314  159.4080 H   0  0  0  0  0  0  0  0  0  0  0  0  # atno 6908 bound_to 6896
  151.9234  135.0288  160.0574 H   0  0  0  0  0  0  0  0  0  0  0  0  # atno 6909 bound_to 6896
  146.1691  140.4442  142.8540 H   0  0  0  0  0  0  0  0  0  0  0  0  # atno 7974 bound_to 7965
  154.4682  140.0929  156.7077 H   0  0  0  0  0  0  0  0  0  0  0  0  # atno 8008 bound_to 7997
  155.4797  140.3467  155.4319 H   0  0  0  0  0  0  0  0  0  0  0  0  # atno 8009 bound_to 7997
  156.0994  140.1418  156.9476 H   0  0  0  0  0  0  0  0  0  0  0  0  # atno 8010 bound_to 7997
  140.3890  143.2713  151.9288 H   0  0  0  0  0  0  0  0  0  0  0  0  # atno 10167 bound_to 10162
  157.6390  130.9468  150.0625 H   0  0  0  0  0  0  0  0  0  0  0  0  # atno 10718 bound_to 10713
  153.4738  135.3694  155.2405 H   0  0  0  0  0  0  0  0  0  0  0  0  # atno 10763 bound_to 10752
  154.8756  135.3938  154.3780 H   0  0  0  0  0  0  0  0  0  0  0  0  # atno 10764 bound_to 10752
  153.4373  135.7083  153.6256 H   0  0  0  0  0  0  0  0  0  0  0  0  # atno 10765 bound_to 10752
  140.3637  134.2098  155.7670 H   0  0  0  0  0  0  0  0  0  0  0  0  # atno 11005 bound_to 11000
  144.8136  140.6429  143.6399 LP  0  0  0  0  0  0  0  0  0  0  0  0  # atno 17320 bound_to 7965
  145.4388  139.1538  143.3982 LP  0  0  0  0  0  0  0  0  0  0  0  0  # atno 17321 bound_to 7965
  139.4790  144.5746  151.8033 LP  0  0  0  0  0  0  0  0  0  0  0  0  # atno 17342 bound_to 10162
  140.4859  144.1381  150.5941 LP  0  0  0  0  0  0  0  0  0  0  0  0  # atno 17343 bound_to 10162
  156.1654  130.3645  149.9240 LP  0  0  0  0  0  0  0  0  0  0  0  0  # atno 17370 bound_to 10713
  156.7228  130.9013  151.3619 LP  0  0  0  0  0  0  0  0  0  0  0  0  # atno 17371 bound_to 10713
  141.1976  133.8055  157.0619 LP  0  0  0  0  0  0  0  0  0  0  0  0  # atno 17394 bound_to 11000
  140.0607  134.9756  157.1299 LP  0  0  0  0  0  0  0  0  0  0  0  0  # atno 17395 bound_to 11000

$$$$
