AV-unprocessed.smi:2568|AV-procd|sdf|10096|dock5
  -GOLD-   2272014113D 1   1.00000     0.00000
 Structure written by MMmdl.
 24 25  0  0  0  0  0  0  0  0  1 V2000
  148.1586  127.3311  151.5893 C   0  0  0  0  0  0  0  0  0  0  0  0
  147.0914  128.3365  151.8589 C   0  0  0  0  0  0  0  0  0  0  0  0
  146.3503  128.2801  152.9642 N   0  0  0  0  0  0  0  0  0  0  0  0
  145.5368  129.3460  152.8098 N   0  0  0  0  0  0  0  0  0  0  0  0
  145.8274  129.9637  151.6626 C   0  0  0  0  0  0  0  0  0  0  0  0
  145.0842  131.1800  151.2077 C   0  0  2  0  0  0  0  0  0  0  0  0
  145.6847  131.7911  149.9265 C   0  0  0  0  0  0  0  0  0  0  0  0
  144.9764  133.0201  149.5731 N   0  0  0  0  0  0  0  0  0  0  0  0
  144.9768  133.9680  150.6864 C   0  0  0  0  0  0  0  0  0  0  0  0
  144.4045  133.3069  151.9536 C   0  0  0  0  0  0  0  0  0  0  0  0
  145.1532  132.1360  152.2625 O   0  0  0  0  0  0  0  0  0  0  0  0
  146.8138  129.3641  151.0014 N   0  0  0  0  0  0  0  0  0  0  0  0
  144.8304  129.6039  153.4840 H   0  0  0  0  0  0  0  0  0  0  0  0
  148.0822  126.4878  152.2767 H   0  0  0  0  0  0  0  0  0  0  0  0
  149.1418  127.7863  151.7085 H   0  0  0  0  0  0  0  0  0  0  0  0
  148.0728  126.9527  150.5704 H   0  0  0  0  0  0  0  0  0  0  0  0
  144.0415  130.9034  151.0384 H   0  0  0  0  0  0  0  0  0  0  0  0
  146.7427  132.0071  150.0811 H   0  0  0  0  0  0  0  0  0  0  0  0
  145.6264  131.0761  149.1054 H   0  0  0  0  0  0  0  0  0  0  0  0
  145.4173  133.4461  148.7640 H   0  0  0  0  0  0  0  0  0  0  0  0
  145.9935  134.3112  150.8810 H   0  0  0  0  0  0  0  0  0  0  0  0
  144.3925  134.8509  150.4264 H   0  0  0  0  0  0  0  0  0  0  0  0
  144.4658  133.9964  152.7957 H   0  0  0  0  0  0  0  0  0  0  0  0
  143.3502  133.0575  151.8231 H   0  0  0  0  0  0  0  0  0  0  0  0
  1  2  1  0  0  0  0
  1 14  1  0  0  0  0
  1 15  1  0  0  0  0
  1 16  1  0  0  0  0
  2 12  1  0  0  0  0
  2  3  2  0  0  0  0
  3  4  1  0  0  0  0
  4 13  1  0  0  0  0
  4  5  1  0  0  0  0
  5  6  1  0  0  0  0
  5 12  2  0  0  0  0
  6 11  1  0  0  0  0
  6  7  1  0  0  0  0
  6 17  1  0  0  0  0
  7  8  1  0  0  0  0
  7 18  1  0  0  0  0
  7 19  1  0  0  0  0
  8  9  1  0  0  0  0
  8 20  1  0  0  0  0
  9 10  1  0  0  0  0
  9 21  1  0  0  0  0
  9 22  1  0  0  0  0
 10 11  1  0  0  0  0
 10 23  1  0  0  0  0
 10 24  1  0  0  0  0
M  END
> <s_m_source_file>
AV-unprocessed.smi

> <i_m_source_file_index>
2568

> <i_lp_mmshare_version>
43012

> <i_f3d_flags>
0

> <s_epik_input>
W0NIM11jMW5bbkhdYyhuMSlbQ0BASF0yW0NIMl1bTkhdW0NIMl1bQ0gyXU8y

> <s_epik_cmdline>
J2VwaWtfcHl0aG9uJywgJy1waCcsICc3LjAnLCAnLXRuJywgJzgnLCAnLW1hJywgJzIwMCcsICctbWV0YWxfYmluZGluZycsICctaW1hZScsICc8aW5maWxlLm1hZT4nLCAnLW9tYWUnLCAnPG91dGZpbGUubWFlPic=

> <r_lp_tautomer_probability>
0.948284

> <r_epik_Ionization_Penalty>
0.982563

> <r_epik_Ionization_Penalty_Charging>
0

> <r_epik_Ionization_Penalty_Neutral>
0.982563

> <r_epik_State_Penalty>
2.21233

> <r_epik_Charging_Adjusted_Penalty>
2.21233

> <i_epik_Tot_Q>
0

> <i_epik_Tot_abs_Q>
0

> <r_epik_Metal_State_Penalty>
2.51138

> <b_epik_Metal_Only>
0

> <s_lp_Force_Field>
OPLS_2005

> <r_lp_Energy>
12.795

> <b_lp_Chiralities_Consistent>
1

> <s_lp_Variant>
AV-unprocessed.smi:2568-9

> <Gold.Version>
5.8.1

> <Gold.Id.Protein>
6NUR|6NUR_protein|mol2

> <Gold.PLP.Fitness>
27.9185

> <Gold.PLP.PLP>
-22.0604

> <Gold.PLP.part.hbond>
-2.0000

> <Gold.PLP.part.metal>
0.0000

> <Gold.PLP.part.buried>
-4.9737

> <Gold.PLP.part.nonpolar>
-17.8575

> <Gold.PLP.part.repulsive>
2.7994

> <Gold.PLP.ligand.clash>
0.0000

> <Gold.PLP.ligand.torsion>
0.0714

> <Gold.PLP.Chemscore.Hbond>
2.0000

> <Gold.PLP.Chemscore.CHOScore>
0.0000

> <Gold.PLP.Chemscore.Metal>
0.0000

> <Gold.Chemscore.Hbonds>
donor molecule, donor type, donor heavy atom, donor atom, acceptor molecule, acceptor atom, score
      L1  H     4    13       P1 10956  1.00
      L1  H     8    20       P1  7921  1.00

> <Gold.PLP.Chemscore.Internal.Correction>
0.0009

> <Gold.Rescore>
     Score         DG    S(hbond)    S(metal)    S(lipo)     H(rot)  DE(clash)    DE(int)     intcor
      9.83     -11.41       1.12        0.00      40.51       1.00       1.57       0.01       ----

> <Gold.Chemscore.Fitness>
9.8349

> <Gold.Chemscore.DG>
-11.4134

> <Gold.Chemscore.ZeroCoef>
-5.4800

> <Gold.Chemscore.Hbond>
1.1240

> <Gold.Chemscore.Metal>
0.0000

> <Gold.Chemscore.Lipo>
40.5054

> <Gold.Chemscore.Internal_Hbond>
0.0000

> <Gold.Chemscore.DEClash>
1.5730

> <Gold.Chemscore.DEInternal>
0.0055

> <Gold.Chemscore.Rot>
1.0000

> <Gold.Chemscore.Internal.Correction>
   9.000000E+99

> <Gold.Chemscore.Hbonds>
donor molecule, donor type, donor heavy atom, donor atom, acceptor molecule, acceptor atom, score
      L1  H     4    13       P1 10956  0.24
      L1  H     8    20       P1  7921  0.30

> <Gold.Chemscore.Hbond.Weighted>
-3.7542

> <Gold.Chemscore.Metal.Weighted>
-0.0000

> <Gold.Chemscore.Lipo.Weighted>
-4.7391

> <Gold.Chemscore.Internal_Hbond.Weighted>
0.0000

> <Gold.Chemscore.DEClash.Weighted>
1.5730

> <Gold.Chemscore.DEInternal.Weighted>
0.0055

> <Gold.Chemscore.Rot.Weighted>
2.5600

> <Gold.Chemscore.Internal.Correction.Weighted>
   9.000000E+99

> <Gold.Protein.RotatedTorsions>
[ 6907 6896 6895 6894 ] final   23.41 input  -60.11 | X-H torsion
[ 7974 7965 7964 7962 ] final  175.78 input  175.53 | X-H torsion
[ 8008 7997 7996 7995 ] final   41.31 input   59.86 | X-H torsion
[ 10167 10162 10161 10158 ] final -120.18 input  -65.29 | X-H torsion
[ 10718 10713 10712 10709 ] final -124.71 input   66.30 | X-H torsion
[ 10763 10752 10751 10750 ] final -121.82 input  -60.55 | X-H torsion
[ 11005 11000 10999 10996 ] final  -24.05 input  -57.11 | X-H torsion

> <Gold.Protein.ActiveResidues>
 VAL166  LYS551  ARG553  GLY616  TRP617  ASP618  TYR619  PRO620  LYS621  CYS622 
 ASP623  PHE694  ASN695  SER759  ASP760  ASP761  ALA762  ILE779  LEU786  VAL792 
 PHE793  MET794  SER795  GLU796  ALA797  LYS798  CYS799  TRP800  GLU811  SER814 

> <Gold.Protein.RotatedAtoms>
  151.9419  135.0209  160.0536 H   0  0  0  0  0  0  0  0  0  0  0  0  # atno 6907 bound_to 6896
  152.2028  133.4849  159.5076 H   0  0  0  0  0  0  0  0  0  0  0  0  # atno 6908 bound_to 6896
  150.6958  134.1485  159.4174 H   0  0  0  0  0  0  0  0  0  0  0  0  # atno 6909 bound_to 6896
  144.7195  139.9998  143.6440 H   0  0  0  0  0  0  0  0  0  0  0  0  # atno 7974 bound_to 7965
  155.2676  140.3363  155.4268 H   0  0  0  0  0  0  0  0  0  0  0  0  # atno 8008 bound_to 7997
  156.2147  140.1784  156.7658 H   0  0  0  0  0  0  0  0  0  0  0  0  # atno 8009 bound_to 7997
  154.5736  140.0665  156.8986 H   0  0  0  0  0  0  0  0  0  0  0  0  # atno 8010 bound_to 7997
  140.0387  143.5175  152.2141 H   0  0  0  0  0  0  0  0  0  0  0  0  # atno 10167 bound_to 10162
  156.1611  130.6602  151.0051 H   0  0  0  0  0  0  0  0  0  0  0  0  # atno 10718 bound_to 10713
  154.8676  135.4154  154.2681 H   0  0  0  0  0  0  0  0  0  0  0  0  # atno 10763 bound_to 10752
  153.3597  135.7003  153.6728 H   0  0  0  0  0  0  0  0  0  0  0  0  # atno 10764 bound_to 10752
  153.5634  135.3605  155.2781 H   0  0  0  0  0  0  0  0  0  0  0  0  # atno 10765 bound_to 10752
  140.8809  133.7655  156.0301 H   0  0  0  0  0  0  0  0  0  0  0  0  # atno 11005 bound_to 11000
  146.0344  139.3364  143.0735 LP  0  0  0  0  0  0  0  0  0  0  0  0  # atno 17320 bound_to 7965
  145.8412  140.9579  143.0798 LP  0  0  0  0  0  0  0  0  0  0  0  0  # atno 17321 bound_to 7965
  139.6028  144.7587  151.3131 LP  0  0  0  0  0  0  0  0  0  0  0  0  # atno 17342 bound_to 10162
  140.7270  143.6975  150.7872 LP  0  0  0  0  0  0  0  0  0  0  0  0  # atno 17343 bound_to 10162
  157.6733  131.0856  150.7557 LP  0  0  0  0  0  0  0  0  0  0  0  0  # atno 17370 bound_to 10713
  156.7620  130.4801  149.5435 LP  0  0  0  0  0  0  0  0  0  0  0  0  # atno 17371 bound_to 10713
  140.8462  134.3008  157.5294 LP  0  0  0  0  0  0  0  0  0  0  0  0  # atno 17394 bound_to 11000
  139.8719  134.9443  156.3878 LP  0  0  0  0  0  0  0  0  0  0  0  0  # atno 17395 bound_to 11000

$$$$
