AV-unprocessed.smi:3162|AV-procd|sdf|12068|dock9
  -GOLD-   2272017503D 1   1.00000     0.00000
 Structure written by MMmdl.
 36 36  0  0  0  0  0  0  0  0  1 V2000
  151.1867  139.3342  155.7160 C   0  0  0  0  0  0  0  0  0  0  0  0
  150.1810  140.0071  154.7685 C   0  0  0  0  0  0  0  0  0  0  0  0
  149.3230  141.1082  155.4292 C   0  0  1  0  0  0  0  0  0  0  0  0
  150.2153  142.1118  156.0457 N   0  0  0  0  0  0  0  0  0  0  0  0
  150.7617  141.8083  157.3714 C   0  0  2  0  0  0  0  0  0  0  0  0
  149.5771  141.4134  158.2686 C   0  0  0  0  0  0  0  0  0  0  0  0
  151.5922  142.9785  157.9576 C   0  0  0  0  0  0  0  0  0  0  0  0
  152.2366  142.6664  159.2241 N   0  0  0  0  0  0  0  0  0  0  0  0
  152.1089  143.3144  160.4349 C   0  0  0  0  0  0  0  0  0  0  0  0
  152.9008  142.6626  161.3374 C   0  0  0  0  0  0  0  0  0  0  0  0
  153.1113  142.9619  162.7934 C   0  0  0  0  0  0  0  0  0  0  0  0
  153.4877  141.6182  160.5680 C   0  0  0  0  0  0  0  0  0  0  0  0
  153.0932  141.6254  159.3054 N   0  0  0  0  0  0  0  0  0  0  0  0
  148.3232  141.7228  154.4330 C   0  0  0  0  0  0  0  0  0  0  0  0
  147.4994  142.6651  154.8991 N   0  0  0  0  0  0  0  0  0  0  0  0
  148.3109  141.3662  153.2564 O   0  0  0  0  0  0  0  0  0  0  0  0
  151.8028  138.6152  155.1758 H   0  0  0  0  0  0  0  0  0  0  0  0
  150.6863  138.7956  156.5209 H   0  0  0  0  0  0  0  0  0  0  0  0
  151.8542  140.0690  156.1663 H   0  0  0  0  0  0  0  0  0  0  0  0
  150.7411  140.4445  153.9407 H   0  0  0  0  0  0  0  0  0  0  0  0
  149.5390  139.2462  154.3223 H   0  0  0  0  0  0  0  0  0  0  0  0
  148.7561  140.6266  156.2258 H   0  0  0  0  0  0  0  0  0  0  0  0
  149.7688  143.0175  156.0760 H   0  0  0  0  0  0  0  0  0  0  0  0
  151.4057  140.9315  157.3066 H   0  0  0  0  0  0  0  0  0  0  0  0
  149.9142  141.1845  159.2800 H   0  0  0  0  0  0  0  0  0  0  0  0
  149.0716  140.5268  157.8843 H   0  0  0  0  0  0  0  0  0  0  0  0
  148.8357  142.2103  158.3383 H   0  0  0  0  0  0  0  0  0  0  0  0
  152.3662  143.2582  157.2411 H   0  0  0  0  0  0  0  0  0  0  0  0
  150.9861  143.8743  158.0882 H   0  0  0  0  0  0  0  0  0  0  0  0
  151.4665  144.1744  160.5547 H   0  0  0  0  0  0  0  0  0  0  0  0
  152.9796  142.0724  163.4095 H   0  0  0  0  0  0  0  0  0  0  0  0
  152.4106  143.7126  163.1599 H   0  0  0  0  0  0  0  0  0  0  0  0
  154.1160  143.3395  162.9841 H   0  0  0  0  0  0  0  0  0  0  0  0
  154.1857  140.8589  160.8890 H   0  0  0  0  0  0  0  0  0  0  0  0
  146.8279  143.0976  154.2819 H   0  0  0  0  0  0  0  0  0  0  0  0
  147.5531  142.9422  155.8685 H   0  0  0  0  0  0  0  0  0  0  0  0
  1  2  1  0  0  0  0
  1 17  1  0  0  0  0
  1 18  1  0  0  0  0
  1 19  1  0  0  0  0
  2  3  1  0  0  0  0
  2 20  1  0  0  0  0
  2 21  1  0  0  0  0
  3  4  1  0  0  0  0
  3 14  1  0  0  0  0
  3 22  1  0  0  0  0
  4  5  1  0  0  0  0
  4 23  1  0  0  0  0
  5  6  1  0  0  0  0
  5  7  1  0  0  0  0
  5 24  1  0  0  0  0
  6 25  1  0  0  0  0
  6 26  1  0  0  0  0
  6 27  1  0  0  0  0
  7  8  1  0  0  0  0
  7 28  1  0  0  0  0
  7 29  1  0  0  0  0
  8 13  1  0  0  0  0
  8  9  1  0  0  0  0
  9 10  2  0  0  0  0
  9 30  1  0  0  0  0
 10 11  1  0  0  0  0
 10 12  1  0  0  0  0
 11 31  1  0  0  0  0
 11 32  1  0  0  0  0
 11 33  1  0  0  0  0
 12 13  2  0  0  0  0
 12 34  1  0  0  0  0
 14 15  1  0  0  0  0
 14 16  2  0  0  0  0
 15 35  1  0  0  0  0
 15 36  1  0  0  0  0
M  END
> <s_m_source_file>
AV-unprocessed.smi

> <i_m_source_file_index>
3162

> <i_lp_mmshare_version>
43012

> <i_f3d_flags>
0

> <s_epik_input>
W0NIM11bQ0gyXVtDQEBIXShDKD1PKVtOSDJdKVtOSF1bQ0BIXShbQ0gzXSlbQ0gyXW4xW2NIXWMoW0NIM10pW2NIXW4x

> <s_epik_cmdline>
J2VwaWtfcHl0aG9uJywgJy1waCcsICc3LjAnLCAnLXRuJywgJzgnLCAnLW1hJywgJzIwMCcsICctbWV0YWxfYmluZGluZycsICctaW1hZScsICc8aW5maWxlLm1hZT4nLCAnLW9tYWUnLCAnPG91dGZpbGUubWFlPic=

> <r_lp_tautomer_probability>
1

> <r_epik_Ionization_Penalty>
1.04167

> <r_epik_Ionization_Penalty_Charging>
0

> <r_epik_Ionization_Penalty_Neutral>
1.04167

> <r_epik_State_Penalty>
1.09367

> <r_epik_Charging_Adjusted_Penalty>
1.09367

> <i_epik_Tot_Q>
0

> <i_epik_Tot_abs_Q>
0

> <r_epik_Metal_State_Penalty>
1.09362

> <b_epik_Metal_Only>
0

> <s_lp_Force_Field>
OPLS_2005

> <r_lp_Energy>
2.92083

> <b_lp_Chiralities_Consistent>
1

> <s_lp_Variant>
AV-unprocessed.smi:3162-6

> <Gold.Version>
5.8.1

> <Gold.Id.Protein>
6NUR|6NUR_protein|mol2

> <Gold.PLP.Fitness>
41.1008

> <Gold.PLP.PLP>
-36.1731

> <Gold.PLP.part.hbond>
-3.0000

> <Gold.PLP.part.metal>
0.0000

> <Gold.PLP.part.buried>
-1.9386

> <Gold.PLP.part.nonpolar>
-33.0475

> <Gold.PLP.part.repulsive>
2.4164

> <Gold.PLP.ligand.clash>
0.0000

> <Gold.PLP.ligand.torsion>
0.3161

> <Gold.PLP.Chemscore.Hbond>
1.7840

> <Gold.PLP.Chemscore.CHOScore>
0.0000

> <Gold.PLP.Chemscore.Metal>
0.0000

> <Gold.Chemscore.Hbonds>
donor molecule, donor type, donor heavy atom, donor atom, acceptor molecule, acceptor atom, score
      L1  H     4    23       P1  8028  1.00
      P1  H  8011  8017       L1    16  0.78

> <Gold.PLP.Chemscore.Internal.Correction>
0.2079

> <Gold.Rescore>
     Score         DG    S(hbond)    S(metal)    S(lipo)     H(rot)  DE(clash)    DE(int)     intcor
     12.52     -13.80       1.34        0.00      86.10       2.43       0.69       0.60       ----

> <Gold.Chemscore.Fitness>
12.5196

> <Gold.Chemscore.DG>
-13.8011

> <Gold.Chemscore.ZeroCoef>
-5.4800

> <Gold.Chemscore.Hbond>
1.3399

> <Gold.Chemscore.Metal>
0.0000

> <Gold.Chemscore.Lipo>
86.1001

> <Gold.Chemscore.Internal_Hbond>
0.0000

> <Gold.Chemscore.DEClash>
0.6858

> <Gold.Chemscore.DEInternal>
0.5957

> <Gold.Chemscore.Rot>
2.4328

> <Gold.Chemscore.Internal.Correction>
   9.000000E+99

> <Gold.Chemscore.Hbonds>
donor molecule, donor type, donor heavy atom, donor atom, acceptor molecule, acceptor atom, score
      L1  H     4    23       P1  8028  0.99
      L1  H    15    36       P1  8028  0.01
      P1  H  8011  8017       L1    16  0.44

> <Gold.Chemscore.Hbond.Weighted>
-4.4753

> <Gold.Chemscore.Metal.Weighted>
-0.0000

> <Gold.Chemscore.Lipo.Weighted>
-10.0737

> <Gold.Chemscore.Internal_Hbond.Weighted>
0.0000

> <Gold.Chemscore.DEClash.Weighted>
0.6858

> <Gold.Chemscore.DEInternal.Weighted>
0.5957

> <Gold.Chemscore.Rot.Weighted>
6.2279

> <Gold.Chemscore.Internal.Correction.Weighted>
   9.000000E+99

> <Gold.Protein.RotatedTorsions>
[ 6907 6896 6895 6894 ] final  129.68 input  -60.11 | X-H torsion
[ 7974 7965 7964 7962 ] final  -25.46 input  175.53 | X-H torsion
[ 8008 7997 7996 7995 ] final  106.36 input   59.86 | X-H torsion
[ 10167 10162 10161 10158 ] final  123.18 input  -65.29 | X-H torsion
[ 10718 10713 10712 10709 ] final  -34.91 input   66.30 | X-H torsion
[ 10763 10752 10751 10750 ] final  -49.13 input  -60.55 | X-H torsion
[ 11005 11000 10999 10996 ] final   93.61 input  -57.11 | X-H torsion

> <Gold.Protein.ActiveResidues>
 VAL166  LYS551  ARG553  GLY616  TRP617  ASP618  TYR619  PRO620  LYS621  CYS622 
 ASP623  PHE694  ASN695  SER759  ASP760  ASP761  ALA762  ILE779  LEU786  VAL792 
 PHE793  MET794  SER795  GLU796  ALA797  LYS798  CYS799  TRP800  GLU811  SER814 

> <Gold.Protein.RotatedAtoms>
  152.3600  133.6285  159.6007 H   0  0  0  0  0  0  0  0  0  0  0  0  # atno 6907 bound_to 6896
  150.7595  133.9438  159.3473 H   0  0  0  0  0  0  0  0  0  0  0  0  # atno 6908 bound_to 6896
  151.7278  135.0882  160.0346 H   0  0  0  0  0  0  0  0  0  0  0  0  # atno 6909 bound_to 6896
  146.1489  140.4889  142.8620 H   0  0  0  0  0  0  0  0  0  0  0  0  # atno 7974 bound_to 7965
  156.1736  140.3114  155.9018 H   0  0  0  0  0  0  0  0  0  0  0  0  # atno 8008 bound_to 7997
  155.3535  140.0472  157.3063 H   0  0  0  0  0  0  0  0  0  0  0  0  # atno 8009 bound_to 7997
  154.5267  140.2216  155.8888 H   0  0  0  0  0  0  0  0  0  0  0  0  # atno 8010 bound_to 7997
  139.5815  144.6988  151.3517 H   0  0  0  0  0  0  0  0  0  0  0  0  # atno 10167 bound_to 10162
  156.3449  130.4299  149.7755 H   0  0  0  0  0  0  0  0  0  0  0  0  # atno 10718 bound_to 10713
  154.0891  135.6580  153.4849 H   0  0  0  0  0  0  0  0  0  0  0  0  # atno 10763 bound_to 10752
  153.0328  135.5198  154.7398 H   0  0  0  0  0  0  0  0  0  0  0  0  # atno 10764 bound_to 10752
  154.6517  135.3002  154.9947 H   0  0  0  0  0  0  0  0  0  0  0  0  # atno 10765 bound_to 10752
  139.8808  134.8800  156.3743 H   0  0  0  0  0  0  0  0  0  0  0  0  # atno 11005 bound_to 11000
  144.7880  140.5975  143.6561 LP  0  0  0  0  0  0  0  0  0  0  0  0  # atno 17320 bound_to 7965
  145.4870  139.1491  143.3730 LP  0  0  0  0  0  0  0  0  0  0  0  0  # atno 17321 bound_to 7965
  140.7092  143.7434  150.7537 LP  0  0  0  0  0  0  0  0  0  0  0  0  # atno 17342 bound_to 10162
  140.0968  143.4826  152.2448 LP  0  0  0  0  0  0  0  0  0  0  0  0  # atno 17343 bound_to 10162
  156.4977  130.8114  151.3120 LP  0  0  0  0  0  0  0  0  0  0  0  0  # atno 17370 bound_to 10713
  157.7452  130.9955  150.2745 LP  0  0  0  0  0  0  0  0  0  0  0  0  # atno 17371 bound_to 10713
  140.9442  133.7494  156.0187 LP  0  0  0  0  0  0  0  0  0  0  0  0  # atno 17394 bound_to 11000
  140.8183  134.3319  157.5390 LP  0  0  0  0  0  0  0  0  0  0  0  0  # atno 17395 bound_to 11000

$$$$
