AV-unprocessed.smi:2752|AV-procd|sdf|10606|dock1
  -GOLD-   2272015 53D 1   1.00000     0.00000
 Structure written by MMmdl.
 34 35  0  0  0  0  0  0  0  0  1 V2000
  148.4540  138.5193  157.0828 C   0  0  0  0  0  0  0  0  0  0  0  0
  148.6747  139.8065  156.5295 O   0  0  0  0  0  0  0  0  0  0  0  0
  149.1520  139.7806  155.1868 C   0  0  1  0  0  0  0  0  0  0  0  0
  148.0938  139.1229  154.2945 C   0  0  0  0  0  0  0  0  0  0  0  0
  147.0915  140.2406  154.0200 C   0  0  0  0  0  0  0  0  0  0  0  0
  147.9425  141.5080  153.8984 C   0  0  0  0  0  0  0  0  0  0  0  0
  149.2646  141.2209  154.6372 C   0  0  1  0  0  0  0  0  0  0  0  0
  149.5176  142.2131  155.6799 N   0  0  0  0  0  0  0  0  0  0  0  0
  150.3003  142.0139  156.7498 C   0  0  0  0  0  0  0  0  0  0  0  0
  150.9091  140.9639  156.9578 O   0  0  0  0  0  0  0  0  0  0  0  0
  150.3195  143.0964  157.5470 N   0  0  0  0  0  0  0  0  0  0  0  0
  151.0262  143.2766  158.7657 C   0  0  0  0  0  0  0  0  0  0  0  0
  150.8249  144.5262  159.3950 C   0  0  0  0  0  0  0  0  0  0  0  0
  151.4821  144.8049  160.6093 C   0  0  0  0  0  0  0  0  0  0  0  0
  152.3245  143.8241  161.1620 C   0  0  0  0  0  0  0  0  0  0  0  0
  152.9772  144.0464  162.3275 F   0  0  0  0  0  0  0  0  0  0  0  0
  152.4713  142.6062  160.4727 C   0  0  0  0  0  0  0  0  0  0  0  0
  151.8421  142.3382  159.3090 N   0  0  0  0  0  0  0  0  0  0  0  0
  148.0669  138.6207  158.0966 H   0  0  0  0  0  0  0  0  0  0  0  0
  149.3847  137.9534  157.1362 H   0  0  0  0  0  0  0  0  0  0  0  0
  147.7299  137.9468  156.5030 H   0  0  0  0  0  0  0  0  0  0  0  0
  150.1170  139.2732  155.1291 H   0  0  0  0  0  0  0  0  0  0  0  0
  148.5534  138.8104  153.3560 H   0  0  0  0  0  0  0  0  0  0  0  0
  147.6292  138.2435  154.7401 H   0  0  0  0  0  0  0  0  0  0  0  0
  146.4891  140.0542  153.1305 H   0  0  0  0  0  0  0  0  0  0  0  0
  146.4115  140.3353  154.8676 H   0  0  0  0  0  0  0  0  0  0  0  0
  148.1503  141.7157  152.8482 H   0  0  0  0  0  0  0  0  0  0  0  0
  147.4110  142.3738  154.2955 H   0  0  0  0  0  0  0  0  0  0  0  0
  150.0718  141.2583  153.9031 H   0  0  0  0  0  0  0  0  0  0  0  0
  149.0473  143.1013  155.5874 H   0  0  0  0  0  0  0  0  0  0  0  0
  149.7621  143.8826  157.2476 H   0  0  0  0  0  0  0  0  0  0  0  0
  150.1735  145.2676  158.9552 H   0  0  0  0  0  0  0  0  0  0  0  0
  151.3414  145.7533  161.1062 H   0  0  0  0  0  0  0  0  0  0  0  0
  153.1092  141.8275  160.8640 H   0  0  0  0  0  0  0  0  0  0  0  0
  1  2  1  0  0  0  0
  1 19  1  0  0  0  0
  1 20  1  0  0  0  0
  1 21  1  0  0  0  0
  2  3  1  0  0  0  0
  3  7  1  0  0  0  0
  3  4  1  0  0  0  0
  3 22  1  0  0  0  0
  4  5  1  0  0  0  0
  4 23  1  0  0  0  0
  4 24  1  0  0  0  0
  5  6  1  0  0  0  0
  5 25  1  0  0  0  0
  5 26  1  0  0  0  0
  6  7  1  0  0  0  0
  6 27  1  0  0  0  0
  6 28  1  0  0  0  0
  7  8  1  0  0  0  0
  7 29  1  0  0  0  0
  8  9  1  0  0  0  0
  8 30  1  0  0  0  0
  9 10  2  0  0  0  0
  9 11  1  0  0  0  0
 11 12  1  0  0  0  0
 11 31  1  0  0  0  0
 12 18  1  0  0  0  0
 12 13  2  0  0  0  0
 13 14  1  0  0  0  0
 13 32  1  0  0  0  0
 14 15  2  0  0  0  0
 14 33  1  0  0  0  0
 15 16  1  0  0  0  0
 15 17  1  0  0  0  0
 17 18  2  0  0  0  0
 17 34  1  0  0  0  0
M  END
> <s_m_source_file>
AV-unprocessed.smi

> <i_m_source_file_index>
2752

> <i_lp_mmshare_version>
43012

> <i_f3d_flags>
0

> <s_epik_input>
W0NIM11PW0NAQEhdMVtDSDJdW0NIMl1bQ0gyXVtDQEhdMVtOSF1DKD1PKVtOSF1jMltjSF1bY0hdYyhGKVtjSF1uMg==

> <s_epik_cmdline>
J2VwaWtfcHl0aG9uJywgJy1waCcsICc3LjAnLCAnLXRuJywgJzgnLCAnLW1hJywgJzIwMCcsICctbWV0YWxfYmluZGluZycsICctaW1hZScsICc8aW5maWxlLm1hZT4nLCAnLW9tYWUnLCAnPG91dGZpbGUubWFlPic=

> <r_lp_tautomer_probability>
1

> <r_epik_Ionization_Penalty>
3.49853e-05

> <r_epik_Ionization_Penalty_Charging>
0

> <r_epik_Ionization_Penalty_Neutral>
3.49853e-05

> <r_epik_State_Penalty>
-0

> <r_epik_Charging_Adjusted_Penalty>
0

> <i_epik_Tot_Q>
0

> <i_epik_Tot_abs_Q>
0

> <r_epik_Metal_State_Penalty>
-0

> <b_epik_Metal_Only>
0

> <s_lp_Force_Field>
OPLS_2005

> <r_lp_Energy>
23.7986

> <b_lp_Chiralities_Consistent>
1

> <s_lp_Variant>
AV-unprocessed.smi:2752-2

> <Gold.Version>
5.8.1

> <Gold.Id.Protein>
6NUR|6NUR_protein|mol2

> <Gold.PLP.Fitness>
38.8562

> <Gold.PLP.PLP>
-33.5129

> <Gold.PLP.part.hbond>
-2.0000

> <Gold.PLP.part.metal>
0.0000

> <Gold.PLP.part.buried>
-4.8801

> <Gold.PLP.part.nonpolar>
-26.8261

> <Gold.PLP.part.repulsive>
0.1881

> <Gold.PLP.ligand.clash>
0.0000

> <Gold.PLP.ligand.torsion>
0.3344

> <Gold.PLP.Chemscore.Hbond>
2.0000

> <Gold.PLP.Chemscore.CHOScore>
0.0000

> <Gold.PLP.Chemscore.Metal>
0.0000

> <Gold.Chemscore.Hbonds>
donor molecule, donor type, donor heavy atom, donor atom, acceptor molecule, acceptor atom, score
      L1  H     8    30       P1  8028  1.00
      L1  H    11    31       P1  8028  0.90

> <Gold.PLP.Chemscore.Internal.Correction>
0.0120

> <Gold.Rescore>
     Score         DG    S(hbond)    S(metal)    S(lipo)     H(rot)  DE(clash)    DE(int)     intcor
     10.74     -17.34       1.92        0.00      74.56       1.28       0.68       5.93       ----

> <Gold.Chemscore.Fitness>
10.7373

> <Gold.Chemscore.DG>
-17.3433

> <Gold.Chemscore.ZeroCoef>
-5.4800

> <Gold.Chemscore.Hbond>
1.9226

> <Gold.Chemscore.Metal>
0.0000

> <Gold.Chemscore.Lipo>
74.5626

> <Gold.Chemscore.Internal_Hbond>
0.0000

> <Gold.Chemscore.DEClash>
0.6805

> <Gold.Chemscore.DEInternal>
5.9254

> <Gold.Chemscore.Rot>
1.2821

> <Gold.Chemscore.Internal.Correction>
   9.000000E+99

> <Gold.Chemscore.Hbonds>
donor molecule, donor type, donor heavy atom, donor atom, acceptor molecule, acceptor atom, score
      L1  H     8    30       P1  8028  0.98
      L1  H    11    31       P1  8028  0.64

> <Gold.Chemscore.Hbond.Weighted>
-6.4216

> <Gold.Chemscore.Metal.Weighted>
-0.0000

> <Gold.Chemscore.Lipo.Weighted>
-8.7238

> <Gold.Chemscore.Internal_Hbond.Weighted>
0.0000

> <Gold.Chemscore.DEClash.Weighted>
0.6805

> <Gold.Chemscore.DEInternal.Weighted>
5.9254

> <Gold.Chemscore.Rot.Weighted>
3.2822

> <Gold.Chemscore.Internal.Correction.Weighted>
   9.000000E+99

> <Gold.Protein.RotatedTorsions>
[ 6907 6896 6895 6894 ] final  152.41 input  -60.11 | X-H torsion
[ 7974 7965 7964 7962 ] final -152.16 input  175.53 | X-H torsion
[ 8008 7997 7996 7995 ] final   13.61 input   59.86 | X-H torsion
[ 10167 10162 10161 10158 ] final  -29.65 input  -65.29 | X-H torsion
[ 10718 10713 10712 10709 ] final -126.06 input   66.30 | X-H torsion
[ 10763 10752 10751 10750 ] final -174.39 input  -60.55 | X-H torsion
[ 11005 11000 10999 10996 ] final  166.34 input  -57.11 | X-H torsion

> <Gold.Protein.ActiveResidues>
 VAL166  LYS551  ARG553  GLY616  TRP617  ASP618  TYR619  PRO620  LYS621  CYS622 
 ASP623  PHE694  ASN695  SER759  ASP760  ASP761  ALA762  ILE779  LEU786  VAL792 
 PHE793  MET794  SER795  GLU796  ALA797  LYS798  CYS799  TRP800  GLU811  SER814 

> <Gold.Protein.RotatedAtoms>
  152.0871  133.4181  159.4526 H   0  0  0  0  0  0  0  0  0  0  0  0  # atno 6907 bound_to 6896
  150.6862  134.2915  159.4678 H   0  0  0  0  0  0  0  0  0  0  0  0  # atno 6908 bound_to 6896
  152.0763  134.9500  160.0624 H   0  0  0  0  0  0  0  0  0  0  0  0  # atno 6909 bound_to 6896
  144.7809  140.4700  143.5840 H   0  0  0  0  0  0  0  0  0  0  0  0  # atno 7974 bound_to 7965
  154.8369  140.2908  155.5685 H   0  0  0  0  0  0  0  0  0  0  0  0  # atno 8008 bound_to 7997
  156.3009  140.2521  156.3236 H   0  0  0  0  0  0  0  0  0  0  0  0  # atno 8009 bound_to 7997
  154.9169  140.0387  157.1966 H   0  0  0  0  0  0  0  0  0  0  0  0  # atno 8010 bound_to 7997
  140.7258  143.3911  151.1428 H   0  0  0  0  0  0  0  0  0  0  0  0  # atno 10167 bound_to 10162
  156.1731  130.6681  151.0207 H   0  0  0  0  0  0  0  0  0  0  0  0  # atno 10718 bound_to 10713
  154.5968  135.2850  155.0577 H   0  0  0  0  0  0  0  0  0  0  0  0  # atno 10763 bound_to 10752
  154.1857  135.6449  153.5050 H   0  0  0  0  0  0  0  0  0  0  0  0  # atno 10764 bound_to 10752
  153.0142  135.5434  154.6673 H   0  0  0  0  0  0  0  0  0  0  0  0  # atno 10765 bound_to 10752
  140.2654  134.7869  157.3628 H   0  0  0  0  0  0  0  0  0  0  0  0  # atno 11005 bound_to 11000
  145.6052  139.1507  143.3107 LP  0  0  0  0  0  0  0  0  0  0  0  0  # atno 17320 bound_to 7965
  146.2017  140.6171  142.9099 LP  0  0  0  0  0  0  0  0  0  0  0  0  # atno 17321 bound_to 7965
  139.7516  143.8770  152.3078 LP  0  0  0  0  0  0  0  0  0  0  0  0  # atno 17342 bound_to 10162
  139.8625  144.7110  150.9082 LP  0  0  0  0  0  0  0  0  0  0  0  0  # atno 17343 bound_to 10162
  157.6817  131.0836  150.7352 LP  0  0  0  0  0  0  0  0  0  0  0  0  # atno 17370 bound_to 10713
  156.7411  130.4739  149.5477 LP  0  0  0  0  0  0  0  0  0  0  0  0  # atno 17371 bound_to 10713
  140.1424  134.4955  155.8021 LP  0  0  0  0  0  0  0  0  0  0  0  0  # atno 17394 bound_to 11000
  141.2185  133.6830  156.7234 LP  0  0  0  0  0  0  0  0  0  0  0  0  # atno 17395 bound_to 11000

$$$$
