AV-unprocessed.smi:2093|AV-procd|sdf|8551|dock2
  -GOLD-   2272011273D 1   1.00000     0.00000
 Structure written by MMmdl.
 30 31  0  0  0  0  0  0  0  0  2 V2000
  148.0630  141.2170  155.4449 C   0  0  0  0  0  0  0  0  0  0  0  0
  149.5645  141.3116  155.1194 C   0  0  1  0  0  0  0  0  0  0  0  0
  150.1784  142.3582  155.9339 N   0  0  0  0  0  0  0  0  0  0  0  0
  150.5229  142.2591  157.2259 C   0  0  0  0  0  0  0  0  0  0  0  0
  150.3296  141.2051  157.8363 O   0  0  0  0  0  0  0  0  0  0  0  0
  151.0717  143.3879  157.7302 N   0  5  0  0  0  0  0  0  0  0  0  0
  151.6492  143.3705  158.9425 C   0  0  0  0  0  0  0  0  0  0  0  0
  152.4132  142.3599  159.3735 N   0  0  0  0  0  0  0  0  0  0  0  0
  152.9162  142.5543  160.6612 C   0  0  0  0  0  0  0  0  0  0  0  0
  152.5350  143.7455  161.2197 C   0  0  0  0  0  0  0  0  0  0  0  0
  151.5245  144.6630  160.1394 S   0  0  0  0  0  0  0  0  0  0  0  0
  150.2996  139.9811  155.3726 C   0  0  1  0  0  0  0  0  0  0  0  0
  149.9715  138.8657  154.3778 C   0  0  0  0  0  0  0  0  0  0  0  0
  151.2145  137.9881  154.3900 C   0  0  0  0  0  0  0  0  0  0  0  0
  152.2631  138.8344  155.1158 C   0  0  0  0  0  0  0  0  0  0  0  0
  151.6986  140.1351  155.1849 O   0  0  0  0  0  0  0  0  0  0  0  0
  147.5674  140.4708  154.8241 H   0  0  0  0  0  0  0  0  0  0  0  0
  147.5599  142.1681  155.2683 H   0  0  0  0  0  0  0  0  0  0  0  0
  147.9009  140.9447  156.4882 H   0  0  0  0  0  0  0  0  0  0  0  0
  149.6785  141.5680  154.0645 H   0  0  0  0  0  0  0  0  0  0  0  0
  150.3496  143.2430  155.4795 H   0  0  0  0  0  0  0  0  0  0  0  0
  153.5407  141.7918  161.1023 H   0  0  0  0  0  0  0  0  0  0  0  0
  152.7849  144.1382  162.1936 H   0  0  0  0  0  0  0  0  0  0  0  0
  150.1179  139.6329  156.3917 H   0  0  0  0  0  0  0  0  0  0  0  0
  149.0670  138.3187  154.6452 H   0  0  0  0  0  0  0  0  0  0  0  0
  149.8301  139.2806  153.3788 H   0  0  0  0  0  0  0  0  0  0  0  0
  151.0414  137.0502  154.9188 H   0  0  0  0  0  0  0  0  0  0  0  0
  151.5267  137.7483  153.3731 H   0  0  0  0  0  0  0  0  0  0  0  0
  152.4249  138.4604  156.1277 H   0  0  0  0  0  0  0  0  0  0  0  0
  153.2233  138.8479  154.6000 H   0  0  0  0  0  0  0  0  0  0  0  0
  1  2  1  0  0  0  0
  1 17  1  0  0  0  0
  1 18  1  0  0  0  0
  1 19  1  0  0  0  0
  2  3  1  0  0  0  0
  2 12  1  0  0  0  0
  2 20  1  0  0  0  0
  3  4  1  0  0  0  0
  3 21  1  0  0  0  0
  4  5  2  0  0  0  0
  4  6  1  0  0  0  0
  6  7  1  0  0  0  0
  7 11  1  0  0  0  0
  7  8  2  0  0  0  0
  8  9  1  0  0  0  0
  9 10  2  0  0  0  0
  9 22  1  0  0  0  0
 10 11  1  0  0  0  0
 10 23  1  0  0  0  0
 12 16  1  0  0  0  0
 12 13  1  0  0  0  0
 12 24  1  0  0  0  0
 13 14  1  0  0  0  0
 13 25  1  0  0  0  0
 13 26  1  0  0  0  0
 14 15  1  0  0  0  0
 14 27  1  0  0  0  0
 14 28  1  0  0  0  0
 15 16  1  0  0  0  0
 15 29  1  0  0  0  0
 15 30  1  0  0  0  0
M  CHG  1   6  -1
M  END
> <s_m_source_file>
AV-unprocessed.smi

> <i_m_source_file_index>
2093

> <i_lp_mmshare_version>
43012

> <i_f3d_flags>
0

> <s_epik_input>
TzFbQ0gyXVtDSDJdW0NIMl1bQ0BIXTFbQ0BIXShbQ0gzXSlbTkhdQyg9TylbTkhdYzJuW2NIXVtjSF1zMg==

> <s_epik_cmdline>
J2VwaWtfcHl0aG9uJywgJy1waCcsICc3LjAnLCAnLXRuJywgJzgnLCAnLW1hJywgJzIwMCcsICctbWV0YWxfYmluZGluZycsICctaW1hZScsICc8aW5maWxlLm1hZT4nLCAnLW9tYWUnLCAnPG91dGZpbGUubWFlPic=

> <r_lp_tautomer_probability>
0.999

> <r_epik_Ionization_Penalty>
8.26346

> <r_epik_Ionization_Penalty_Charging>
6.6559

> <r_epik_Ionization_Penalty_Neutral>
1.60756

> <r_epik_State_Penalty>
6.65607

> <r_epik_Charging_Adjusted_Penalty>
13.312

> <i_epik_Tot_Q>
-1

> <i_epik_Tot_abs_Q>
1

> <r_epik_Metal_State_Penalty>
2.5789

> <b_epik_Metal_Only>
1

> <s_lp_Force_Field>
OPLS_2005

> <r_lp_Energy>
13.9073

> <b_lp_Chiralities_Consistent>
1

> <s_lp_Variant>
AV-unprocessed.smi:2093-8

> <Gold.Version>
5.8.1

> <Gold.Id.Protein>
6NUR|6NUR_protein|mol2

> <Gold.PLP.Fitness>
39.5461

> <Gold.PLP.PLP>
-36.5309

> <Gold.PLP.part.hbond>
-2.0000

> <Gold.PLP.part.metal>
0.0000

> <Gold.PLP.part.buried>
-6.5109

> <Gold.PLP.part.nonpolar>
-29.2488

> <Gold.PLP.part.repulsive>
0.3603

> <Gold.PLP.ligand.clash>
0.0000

> <Gold.PLP.ligand.torsion>
0.6347

> <Gold.PLP.Chemscore.Hbond>
1.3920

> <Gold.PLP.Chemscore.CHOScore>
0.0000

> <Gold.PLP.Chemscore.Metal>
0.0000

> <Gold.Chemscore.Hbonds>
donor molecule, donor type, donor heavy atom, donor atom, acceptor molecule, acceptor atom, score
      L1  H     3    21       P1  8028  0.32
      P1  H  7989  7998       L1    16  0.85

> <Gold.PLP.Chemscore.Internal.Correction>
0.1087

> <Gold.Rescore>
     Score         DG    S(hbond)    S(metal)    S(lipo)     H(rot)  DE(clash)    DE(int)     intcor
     12.75     -16.04       1.62        0.00      71.91       1.28       0.05       3.24       ----

> <Gold.Chemscore.Fitness>
12.7476

> <Gold.Chemscore.DG>
-16.0361

> <Gold.Chemscore.ZeroCoef>
-5.4800

> <Gold.Chemscore.Hbond>
1.6210

> <Gold.Chemscore.Metal>
0.0000

> <Gold.Chemscore.Lipo>
71.9054

> <Gold.Chemscore.Internal_Hbond>
0.0000

> <Gold.Chemscore.DEClash>
0.0522

> <Gold.Chemscore.DEInternal>
3.2363

> <Gold.Chemscore.Rot>
1.2778

> <Gold.Chemscore.Internal.Correction>
   9.000000E+99

> <Gold.Chemscore.Hbonds>
donor molecule, donor type, donor heavy atom, donor atom, acceptor molecule, acceptor atom, score
      L1  H     3    21       P1  8028  0.33
      P1  H  7989  7998       L1    16  0.11

> <Gold.Chemscore.Hbond.Weighted>
-5.4143

> <Gold.Chemscore.Metal.Weighted>
-0.0000

> <Gold.Chemscore.Lipo.Weighted>
-8.4129

> <Gold.Chemscore.Internal_Hbond.Weighted>
0.0000

> <Gold.Chemscore.DEClash.Weighted>
0.0522

> <Gold.Chemscore.DEInternal.Weighted>
3.2363

> <Gold.Chemscore.Rot.Weighted>
3.2711

> <Gold.Chemscore.Internal.Correction.Weighted>
   9.000000E+99

> <Gold.Protein.RotatedTorsions>
[ 6907 6896 6895 6894 ] final   50.19 input  -60.11 | X-H torsion
[ 7974 7965 7964 7962 ] final  149.02 input  175.53 | X-H torsion
[ 8008 7997 7996 7995 ] final   22.18 input   59.86 | X-H torsion
[ 10167 10162 10161 10158 ] final  147.97 input  -65.29 | X-H torsion
[ 10718 10713 10712 10709 ] final  -45.19 input   66.30 | X-H torsion
[ 10763 10752 10751 10750 ] final    4.17 input  -60.55 | X-H torsion
[ 11005 11000 10999 10996 ] final  -95.76 input  -57.11 | X-H torsion

> <Gold.Protein.ActiveResidues>
 VAL166  LYS551  ARG553  GLY616  TRP617  ASP618  TYR619  PRO620  LYS621  CYS622 
 ASP623  PHE694  ASN695  SER759  ASP760  ASP761  ALA762  ILE779  LEU786  VAL792 
 PHE793  MET794  SER795  GLU796  ALA797  LYS798  CYS799  TRP800  GLU811  SER814 

> <Gold.Protein.RotatedAtoms>
  152.2991  134.7632  160.0361 H   0  0  0  0  0  0  0  0  0  0  0  0  # atno 6907 bound_to 6896
  151.8152  133.3382  159.3575 H   0  0  0  0  0  0  0  0  0  0  0  0  # atno 6908 bound_to 6896
  150.7265  134.5556  159.5861 H   0  0  0  0  0  0  0  0  0  0  0  0  # atno 6909 bound_to 6896
  144.8469  139.6228  143.5991 H   0  0  0  0  0  0  0  0  0  0  0  0  # atno 7974 bound_to 7965
  154.9617  140.3079  155.5027 H   0  0  0  0  0  0  0  0  0  0  0  0  # atno 8008 bound_to 7997
  156.2976  140.2300  156.4642 H   0  0  0  0  0  0  0  0  0  0  0  0  # atno 8009 bound_to 7997
  154.7958  140.0437  157.1224 H   0  0  0  0  0  0  0  0  0  0  0  0  # atno 8010 bound_to 7997
  139.4882  144.5715  151.7046 H   0  0  0  0  0  0  0  0  0  0  0  0  # atno 10167 bound_to 10162
  156.2308  130.4172  149.8877 H   0  0  0  0  0  0  0  0  0  0  0  0  # atno 10718 bound_to 10713
  153.2744  135.6935  153.7448 H   0  0  0  0  0  0  0  0  0  0  0  0  # atno 10763 bound_to 10752
  153.6459  135.3385  155.3086 H   0  0  0  0  0  0  0  0  0  0  0  0  # atno 10764 bound_to 10752
  154.8475  135.4443  154.1777 H   0  0  0  0  0  0  0  0  0  0  0  0  # atno 10765 bound_to 10752
  141.1432  133.8049  157.0479 H   0  0  0  0  0  0  0  0  0  0  0  0  # atno 11005 bound_to 11000
  146.2752  139.6735  142.9268 LP  0  0  0  0  0  0  0  0  0  0  0  0  # atno 17320 bound_to 7965
  145.4578  141.0431  143.2768 LP  0  0  0  0  0  0  0  0  0  0  0  0  # atno 17321 bound_to 7965
  140.5303  144.0740  150.6051 LP  0  0  0  0  0  0  0  0  0  0  0  0  # atno 17342 bound_to 10162
  140.3728  143.2845  152.0258 LP  0  0  0  0  0  0  0  0  0  0  0  0  # atno 17343 bound_to 10162
  156.6492  130.8736  151.3528 LP  0  0  0  0  0  0  0  0  0  0  0  0  # atno 17370 bound_to 10713
  157.7132  130.9465  150.1162 LP  0  0  0  0  0  0  0  0  0  0  0  0  # atno 17371 bound_to 10713
  140.0651  134.9733  157.1371 LP  0  0  0  0  0  0  0  0  0  0  0  0  # atno 17394 bound_to 11000
  140.3792  134.2305  155.7172 LP  0  0  0  0  0  0  0  0  0  0  0  0  # atno 17395 bound_to 11000

$$$$
