AV-unprocessed.smi:927|AV-procd|sdf|4188|dock10
  -GOLD-   22720 2 93D 1   1.00000     0.00000
 Structure written by MMmdl.
 21 21  0  0  0  0  0  0  0  0  2 V2000
  146.4927  137.6943  151.1543 N   0  3  0  0  0  0  0  0  0  0  0  0
  145.9117  136.4691  150.5769 C   0  0  0  0  0  0  0  0  0  0  0  0
  145.0725  135.6929  151.6078 C   0  0  1  0  0  0  0  0  0  0  0  0
  143.8208  136.3357  151.7523 O   0  0  0  0  0  0  0  0  0  0  0  0
  144.9133  134.2358  151.2028 C   0  0  0  0  0  0  0  0  0  0  0  0
  143.6364  133.6442  151.0892 C   0  0  0  0  0  0  0  0  0  0  0  0
  143.5521  132.2909  150.7052 C   0  0  0  0  0  0  0  0  0  0  0  0
  144.6333  131.5283  150.4363 N   0  0  0  0  0  0  0  0  0  0  0  0
  145.8519  132.0994  150.5439 C   0  0  0  0  0  0  0  0  0  0  0  0
  146.0460  133.4437  150.9206 C   0  0  0  0  0  0  0  0  0  0  0  0
  147.3821  137.4786  151.5812 H   0  0  0  0  0  0  0  0  0  0  0  0
  145.8656  138.0712  151.8505 H   0  0  0  0  0  0  0  0  0  0  0  0
  145.3083  136.7363  149.7084 H   0  0  0  0  0  0  0  0  0  0  0  0
  146.7309  135.8459  150.2164 H   0  0  0  0  0  0  0  0  0  0  0  0
  145.5700  135.7284  152.5781 H   0  0  0  0  0  0  0  0  0  0  0  0
  143.8529  137.1612  151.2919 H   0  0  0  0  0  0  0  0  0  0  0  0
  142.7387  134.2106  151.2900 H   0  0  0  0  0  0  0  0  0  0  0  0
  142.5902  131.8089  150.6101 H   0  0  0  0  0  0  0  0  0  0  0  0
  146.6985  131.4666  150.3220 H   0  0  0  0  0  0  0  0  0  0  0  0
  147.0440  133.8510  150.9898 H   0  0  0  0  0  0  0  0  0  0  0  0
  146.6270  138.3750  150.4199 H   0  0  0  0  0  0  0  0  0  0  0  0
  1  2  1  0  0  0  0
  1 11  1  0  0  0  0
  1 12  1  0  0  0  0
  1 21  1  0  0  0  0
  2  3  1  0  0  0  0
  2 13  1  0  0  0  0
  2 14  1  0  0  0  0
  3  4  1  0  0  0  0
  3  5  1  0  0  0  0
  3 15  1  0  0  0  0
  4 16  1  0  0  0  0
  5 10  1  0  0  0  0
  5  6  2  0  0  0  0
  6  7  1  0  0  0  0
  6 17  1  0  0  0  0
  7  8  2  0  0  0  0
  7 18  1  0  0  0  0
  8  9  1  0  0  0  0
  9 10  2  0  0  0  0
  9 19  1  0  0  0  0
 10 20  1  0  0  0  0
M  CHG  1   1   1
M  END
> <s_m_source_file>
AV-unprocessed.smi

> <i_m_source_file_index>
927

> <i_lp_mmshare_version>
43012

> <i_f3d_flags>
0

> <s_epik_input>
W05IMl1bQ0gyXVtDQEhdKFtPSF0pYzFbY0hdW2NIXW5bY0hdW2NIXTE=

> <s_epik_cmdline>
J2VwaWtfcHl0aG9uJywgJy1waCcsICc3LjAnLCAnLXRuJywgJzgnLCAnLW1hJywgJzIwMCcsICctbWV0YWxfYmluZGluZycsICctaW1hZScsICc8aW5maWxlLm1hZT4nLCAnLW9tYWUnLCAnPG91dGZpbGUubWFlPic=

> <r_epik_Ionization_Penalty>
0.0159363

> <r_epik_Ionization_Penalty_Charging>
0.0140431

> <r_epik_Ionization_Penalty_Neutral>
0.00189321

> <r_epik_State_Penalty>
0.0109628

> <r_epik_Charging_Adjusted_Penalty>
0.0250059

> <i_epik_Tot_Q>
1

> <i_epik_Tot_abs_Q>
1

> <r_epik_Metal_State_Penalty>
0.0113463

> <b_epik_Metal_Only>
0

> <s_lp_Force_Field>
OPLS_2005

> <r_lp_Energy>
4.52461

> <b_lp_Chiralities_Consistent>
1

> <s_lp_Variant>
AV-unprocessed.smi:927-2

> <Gold.Version>
5.8.1

> <Gold.Id.Protein>
6NUR|6NUR_protein|mol2

> <Gold.PLP.Fitness>
35.5466

> <Gold.PLP.PLP>
-20.9947

> <Gold.PLP.part.hbond>
-3.0930

> <Gold.PLP.part.metal>
0.0000

> <Gold.PLP.part.buried>
-2.4795

> <Gold.PLP.part.nonpolar>
-16.0909

> <Gold.PLP.part.repulsive>
0.7202

> <Gold.PLP.ligand.clash>
0.0000

> <Gold.PLP.ligand.torsion>
0.2273

> <Gold.PLP.Chemscore.Hbond>
3.0000

> <Gold.PLP.Chemscore.CHOScore>
2.0000

> <Gold.PLP.Chemscore.Metal>
0.0000

> <Gold.Chemscore.Hbonds>
donor molecule, donor type, donor heavy atom, donor atom, acceptor molecule, acceptor atom, score
      L1  H     1    11       P1  7948  2.00
      L1  H     4    16       P1 10171  0.96
      L1  C     7    18       P1 10952  1.00
      L1  C     9    19       P1 10747  1.00

> <Gold.PLP.Chemscore.Internal.Correction>
0.0065

> <Gold.Rescore>
     Score         DG    S(hbond)    S(metal)    S(lipo)     H(rot)  DE(clash)    DE(int)     intcor
     12.41     -12.99       1.91        0.00      51.24       1.90       0.40       0.19       ----

> <Gold.Chemscore.Fitness>
12.4075

> <Gold.Chemscore.DG>
-12.9943

> <Gold.Chemscore.ZeroCoef>
-5.4800

> <Gold.Chemscore.Hbond>
1.9098

> <Gold.Chemscore.Metal>
0.0000

> <Gold.Chemscore.Lipo>
51.2356

> <Gold.Chemscore.Internal_Hbond>
0.0000

> <Gold.Chemscore.DEClash>
0.3973

> <Gold.Chemscore.DEInternal>
0.1895

> <Gold.Chemscore.Rot>
1.8981

> <Gold.Chemscore.Internal.Correction>
   9.000000E+99

> <Gold.Chemscore.Hbonds>
donor molecule, donor type, donor heavy atom, donor atom, acceptor molecule, acceptor atom, score
      L1  H     1    11       P1  7948  0.91
      L1  H     4    16       P1 10171  0.91

> <Gold.Chemscore.Hbond.Weighted>
-6.3789

> <Gold.Chemscore.Metal.Weighted>
-0.0000

> <Gold.Chemscore.Lipo.Weighted>
-5.9946

> <Gold.Chemscore.Internal_Hbond.Weighted>
0.0000

> <Gold.Chemscore.DEClash.Weighted>
0.3973

> <Gold.Chemscore.DEInternal.Weighted>
0.1895

> <Gold.Chemscore.Rot.Weighted>
4.8592

> <Gold.Chemscore.Internal.Correction.Weighted>
   9.000000E+99

> <Gold.Protein.RotatedTorsions>
[ 6907 6896 6895 6894 ] final   75.76 input  -60.11 | X-H torsion
[ 7974 7965 7964 7962 ] final  145.67 input  175.53 | X-H torsion
[ 8008 7997 7996 7995 ] final   -0.68 input   59.86 | X-H torsion
[ 10167 10162 10161 10158 ] final  -28.87 input  -65.29 | X-H torsion
[ 10718 10713 10712 10709 ] final   -3.69 input   66.30 | X-H torsion
[ 10763 10752 10751 10750 ] final  175.63 input  -60.55 | X-H torsion
[ 11005 11000 10999 10996 ] final  -91.56 input  -57.11 | X-H torsion

> <Gold.Protein.ActiveResidues>
 VAL166  LYS551  ARG553  GLY616  TRP617  ASP618  TYR619  PRO620  LYS621  CYS622 
 ASP623  PHE694  ASN695  SER759  ASP760  ASP761  ALA762  ILE779  LEU786  VAL792 
 PHE793  MET794  SER795  GLU796  ALA797  LYS798  CYS799  TRP800  GLU811  SER814 

> <Gold.Protein.RotatedAtoms>
  152.5041  134.4071  159.9435 H   0  0  0  0  0  0  0  0  0  0  0  0  # atno 6907 bound_to 6896
  151.4037  133.3743  159.2743 H   0  0  0  0  0  0  0  0  0  0  0  0  # atno 6908 bound_to 6896
  150.9342  134.8777  159.7630 H   0  0  0  0  0  0  0  0  0  0  0  0  # atno 6909 bound_to 6896
  144.8733  139.5812  143.5877 H   0  0  0  0  0  0  0  0  0  0  0  0  # atno 7974 bound_to 7965
  154.6554  140.2578  155.7168 H   0  0  0  0  0  0  0  0  0  0  0  0  # atno 8008 bound_to 7997
  156.2594  140.2859  156.0925 H   0  0  0  0  0  0  0  0  0  0  0  0  # atno 8009 bound_to 7997
  155.1388  140.0380  157.2783 H   0  0  0  0  0  0  0  0  0  0  0  0  # atno 8010 bound_to 7997
  140.7266  143.3975  151.1322 H   0  0  0  0  0  0  0  0  0  0  0  0  # atno 10167 bound_to 10162
  156.7723  130.5304  149.5765 H   0  0  0  0  0  0  0  0  0  0  0  0  # atno 10718 bound_to 10713
  154.4702  135.2771  155.1648 H   0  0  0  0  0  0  0  0  0  0  0  0  # atno 10763 bound_to 10752
  154.3400  135.6172  153.5595 H   0  0  0  0  0  0  0  0  0  0  0  0  # atno 10764 bound_to 10752
  152.9863  135.5786  154.5082 H   0  0  0  0  0  0  0  0  0  0  0  0  # atno 10765 bound_to 10752
  141.1542  133.7763  156.9896 H   0  0  0  0  0  0  0  0  0  0  0  0  # atno 11005 bound_to 11000
  146.2945  139.7238  142.9136 LP  0  0  0  0  0  0  0  0  0  0  0  0  # atno 17320 bound_to 7965
  145.4089  141.0394  143.3028 LP  0  0  0  0  0  0  0  0  0  0  0  0  # atno 17321 bound_to 7965
  139.7590  143.8664  152.3095 LP  0  0  0  0  0  0  0  0  0  0  0  0  # atno 17342 bound_to 10162
  139.8544  144.7148  150.9175 LP  0  0  0  0  0  0  0  0  0  0  0  0  # atno 17343 bound_to 10162
  156.1270  130.6151  151.0278 LP  0  0  0  0  0  0  0  0  0  0  0  0  # atno 17370 bound_to 10713
  157.6685  131.0866  150.7669 LP  0  0  0  0  0  0  0  0  0  0  0  0  # atno 17371 bound_to 10713
  140.1012  134.9534  157.1925 LP  0  0  0  0  0  0  0  0  0  0  0  0  # atno 17394 bound_to 11000
  140.3316  134.2803  155.7227 LP  0  0  0  0  0  0  0  0  0  0  0  0  # atno 17395 bound_to 11000

$$$$
