AV-unprocessed.smi:2067|AV-procd|sdf|8425|dock2
  -GOLD-   2272011123D 1   1.00000     0.00000
 Structure written by MMmdl.
 47 48  0  0  0  0  0  0  0  0  1 V2000
  152.7900  139.0582  154.7194 C   0  0  0  0  0  0  0  0  0  0  0  0
  151.9365  140.0994  155.4578 C   0  0  2  0  0  0  0  0  0  0  0  0
  152.0860  139.9921  156.9884 C   0  0  0  0  0  0  0  0  0  0  0  0
  151.2674  141.0771  157.7072 C   0  0  0  0  0  0  0  0  0  0  0  0
  149.7889  141.0342  157.2897 C   0  0  0  0  0  0  0  0  0  0  0  0
  149.6345  141.1263  155.7615 C   0  0  0  0  0  0  0  0  0  0  0  0
  150.4509  140.0333  155.0409 C   0  0  2  0  0  0  0  0  0  0  0  0
  149.9308  138.7544  155.3866 O   0  0  0  0  0  0  0  0  0  0  0  0
  150.0111  137.7878  154.3504 C   0  0  0  0  0  0  0  0  0  0  0  0
  150.3668  136.4339  154.9705 C   0  0  0  0  0  0  0  0  0  0  0  0
  149.6205  135.3491  154.3520 N   0  0  0  0  0  0  0  0  0  0  0  0
  149.8854  133.9900  154.4922 C   0  0  0  0  0  0  0  0  0  0  0  0
  150.9127  133.5400  155.2675 C   0  0  0  0  0  0  0  0  0  0  0  0
  151.7595  134.4045  156.0289 C   0  0  0  0  0  0  0  0  0  0  0  0
  152.4478  135.1166  156.6292 N   0  0  0  0  0  0  0  0  0  0  0  0
  151.2119  132.1163  155.4153 C   0  0  0  0  0  0  0  0  0  0  0  0
  152.1284  131.6849  156.1180 O   0  0  0  0  0  0  0  0  0  0  0  0
  150.3582  131.2590  154.6874 N   0  0  0  0  0  0  0  0  0  0  0  0
  150.5684  129.8264  154.7571 C   0  0  0  0  0  0  0  0  0  0  0  0
  149.2796  131.6975  153.8957 C   0  0  0  0  0  0  0  0  0  0  0  0
  148.5584  130.8915  153.2985 O   0  0  0  0  0  0  0  0  0  0  0  0
  149.0536  133.0925  153.8171 N   0  0  0  0  0  0  0  0  0  0  0  0
  147.9238  133.4712  152.9948 C   0  0  0  0  0  0  0  0  0  0  0  0
  152.4801  138.0442  154.9666 H   0  0  0  0  0  0  0  0  0  0  0  0
  153.8436  139.1567  154.9819 H   0  0  0  0  0  0  0  0  0  0  0  0
  152.7065  139.1766  153.6389 H   0  0  0  0  0  0  0  0  0  0  0  0
  152.3142  141.0795  155.1624 H   0  0  0  0  0  0  0  0  0  0  0  0
  151.7637  139.0057  157.3257 H   0  0  0  0  0  0  0  0  0  0  0  0
  153.1360  140.0835  157.2681 H   0  0  0  0  0  0  0  0  0  0  0  0
  151.3524  140.9524  158.7870 H   0  0  0  0  0  0  0  0  0  0  0  0
  151.6821  142.0591  157.4766 H   0  0  0  0  0  0  0  0  0  0  0  0
  149.3353  140.1096  157.6491 H   0  0  0  0  0  0  0  0  0  0  0  0
  149.2449  141.8492  157.7677 H   0  0  0  0  0  0  0  0  0  0  0  0
  148.5807  141.0612  155.4917 H   0  0  0  0  0  0  0  0  0  0  0  0
  149.9720  142.1074  155.4250 H   0  0  0  0  0  0  0  0  0  0  0  0
  150.3902  140.1832  153.9611 H   0  0  0  0  0  0  0  0  0  0  0  0
  149.0543  137.6996  153.8351 H   0  0  0  0  0  0  0  0  0  0  0  0
  150.7540  138.0888  153.6103 H   0  0  0  0  0  0  0  0  0  0  0  0
  151.4392  136.2695  154.8678 H   0  0  0  0  0  0  0  0  0  0  0  0
  150.1423  136.4419  156.0371 H   0  0  0  0  0  0  0  0  0  0  0  0
  149.2476  135.6081  153.4497 H   0  0  0  0  0  0  0  0  0  0  0  0
  150.6225  129.4497  153.7342 H   0  0  0  0  0  0  0  0  0  0  0  0
  149.7165  129.4043  155.2927 H   0  0  0  0  0  0  0  0  0  0  0  0
  151.4983  129.5846  155.2707 H   0  0  0  0  0  0  0  0  0  0  0  0
  148.1324  133.1318  151.9787 H   0  0  0  0  0  0  0  0  0  0  0  0
  147.7841  134.5497  153.0064 H   0  0  0  0  0  0  0  0  0  0  0  0
  147.0377  132.9856  153.4083 H   0  0  0  0  0  0  0  0  0  0  0  0
  1  2  1  0  0  0  0
  1 24  1  0  0  0  0
  1 25  1  0  0  0  0
  1 26  1  0  0  0  0
  2  7  1  0  0  0  0
  2  3  1  0  0  0  0
  2 27  1  0  0  0  0
  3  4  1  0  0  0  0
  3 28  1  0  0  0  0
  3 29  1  0  0  0  0
  4  5  1  0  0  0  0
  4 30  1  0  0  0  0
  4 31  1  0  0  0  0
  5  6  1  0  0  0  0
  5 32  1  0  0  0  0
  5 33  1  0  0  0  0
  6  7  1  0  0  0  0
  6 34  1  0  0  0  0
  6 35  1  0  0  0  0
  7  8  1  0  0  0  0
  7 36  1  0  0  0  0
  8  9  1  0  0  0  0
  9 10  1  0  0  0  0
  9 37  1  0  0  0  0
  9 38  1  0  0  0  0
 10 11  1  0  0  0  0
 10 39  1  0  0  0  0
 10 40  1  0  0  0  0
 11 12  1  0  0  0  0
 11 41  1  0  0  0  0
 12 22  1  0  0  0  0
 12 13  2  0  0  0  0
 13 14  1  0  0  0  0
 13 16  1  0  0  0  0
 14 15  3  0  0  0  0
 16 17  2  0  0  0  0
 16 18  1  0  0  0  0
 18 19  1  0  0  0  0
 18 20  1  0  0  0  0
 19 42  1  0  0  0  0
 19 43  1  0  0  0  0
 19 44  1  0  0  0  0
 20 21  2  0  0  0  0
 20 22  1  0  0  0  0
 22 23  1  0  0  0  0
 23 45  1  0  0  0  0
 23 46  1  0  0  0  0
 23 47  1  0  0  0  0
M  END
> <s_m_source_file>
AV-unprocessed.smi

> <i_m_source_file_index>
2067

> <i_lp_mmshare_version>
43012

> <i_f3d_flags>
0

> <s_epik_input>
W0NIM11bQ0BASF0xW0NIMl1bQ0gyXVtDSDJdW0NIMl1bQ0BIXTFPW0NIMl1bQ0gyXVtOSF1jMmMoQyNOKWMoPU8pbihbQ0gzXSljKD1PKW4yW0NIM10=

> <s_epik_cmdline>
J2VwaWtfcHl0aG9uJywgJy1waCcsICc3LjAnLCAnLXRuJywgJzgnLCAnLW1hJywgJzIwMCcsICctbWV0YWxfYmluZGluZycsICctaW1hZScsICc8aW5maWxlLm1hZT4nLCAnLW9tYWUnLCAnPG91dGZpbGUubWFlPic=

> <r_epik_Ionization_Penalty>
0.00056529

> <r_epik_Ionization_Penalty_Charging>
3.94678e-10

> <r_epik_Ionization_Penalty_Neutral>
0.000565289

> <r_epik_State_Penalty>
0.000354611

> <r_epik_Charging_Adjusted_Penalty>
0.000354611

> <i_epik_Tot_Q>
0

> <i_epik_Tot_abs_Q>
0

> <r_epik_Metal_State_Penalty>
-0

> <b_epik_Metal_Only>
0

> <s_lp_Force_Field>
OPLS_2005

> <r_lp_Energy>
32.9241

> <b_lp_Chiralities_Consistent>
1

> <s_lp_Variant>
AV-unprocessed.smi:2067-3

> <Gold.Version>
5.8.1

> <Gold.Id.Protein>
6NUR|6NUR_protein|mol2

> <Gold.PLP.Fitness>
42.3362

> <Gold.PLP.PLP>
-38.9510

> <Gold.PLP.part.hbond>
-2.3470

> <Gold.PLP.part.metal>
0.0000

> <Gold.PLP.part.buried>
0.3652

> <Gold.PLP.part.nonpolar>
-35.1456

> <Gold.PLP.part.repulsive>
0.1803

> <Gold.PLP.ligand.clash>
10.1185

> <Gold.PLP.ligand.torsion>
1.0611

> <Gold.PLP.Chemscore.Hbond>
1.8287

> <Gold.PLP.Chemscore.CHOScore>
0.0000

> <Gold.PLP.Chemscore.Metal>
0.0000

> <Gold.Chemscore.Hbonds>
donor molecule, donor type, donor heavy atom, donor atom, acceptor molecule, acceptor atom, score
      L1  H    11    41       P1  7948  1.00
      P1  H 10752 10763       L1    15  0.60

> <Gold.PLP.Chemscore.Internal.Correction>
10.1398

> <Gold.Rescore>
     Score         DG    S(hbond)    S(metal)    S(lipo)     H(rot)  DE(clash)    DE(int)     intcor
     10.32     -14.41       1.58        0.00      69.80       1.76       0.25       3.84       ----

> <Gold.Chemscore.Fitness>
10.3219

> <Gold.Chemscore.DG>
-14.4117

> <Gold.Chemscore.ZeroCoef>
-5.4800

> <Gold.Chemscore.Hbond>
1.5768

> <Gold.Chemscore.Metal>
0.0000

> <Gold.Chemscore.Lipo>
69.7995

> <Gold.Chemscore.Internal_Hbond>
0.0000

> <Gold.Chemscore.DEClash>
0.2502

> <Gold.Chemscore.DEInternal>
3.8397

> <Gold.Chemscore.Rot>
1.7583

> <Gold.Chemscore.Internal.Correction>
   9.000000E+99

> <Gold.Chemscore.Hbonds>
donor molecule, donor type, donor heavy atom, donor atom, acceptor molecule, acceptor atom, score
      L1  H    11    41       P1  7948  0.45
      P1  H 10752 10763       L1    15  0.04

> <Gold.Chemscore.Hbond.Weighted>
-5.2664

> <Gold.Chemscore.Metal.Weighted>
-0.0000

> <Gold.Chemscore.Lipo.Weighted>
-8.1665

> <Gold.Chemscore.Internal_Hbond.Weighted>
0.0000

> <Gold.Chemscore.DEClash.Weighted>
0.2502

> <Gold.Chemscore.DEInternal.Weighted>
3.8397

> <Gold.Chemscore.Rot.Weighted>
4.5012

> <Gold.Chemscore.Internal.Correction.Weighted>
   9.000000E+99

> <Gold.Protein.RotatedTorsions>
[ 6907 6896 6895 6894 ] final  -47.81 input  -60.11 | X-H torsion
[ 7974 7965 7964 7962 ] final -173.93 input  175.53 | X-H torsion
[ 8008 7997 7996 7995 ] final   -1.64 input   59.86 | X-H torsion
[ 10167 10162 10161 10158 ] final   51.91 input  -65.29 | X-H torsion
[ 10718 10713 10712 10709 ] final -117.88 input   66.30 | X-H torsion
[ 10763 10752 10751 10750 ] final  112.45 input  -60.55 | X-H torsion
[ 11005 11000 10999 10996 ] final -121.22 input  -57.11 | X-H torsion

> <Gold.Protein.ActiveResidues>
 VAL166  LYS551  ARG553  GLY616  TRP617  ASP618  TYR619  PRO620  LYS621  CYS622 
 ASP623  PHE694  ASN695  SER759  ASP760  ASP761  ALA762  ILE779  LEU786  VAL792 
 PHE793  MET794  SER795  GLU796  ALA797  LYS798  CYS799  TRP800  GLU811  SER814 

> <Gold.Protein.RotatedAtoms>
  150.8969  134.8378  159.7332 H   0  0  0  0  0  0  0  0  0  0  0  0  # atno 6907 bound_to 6896
  152.4870  134.4561  159.9600 H   0  0  0  0  0  0  0  0  0  0  0  0  # atno 6908 bound_to 6896
  151.4618  133.3552  159.2845 H   0  0  0  0  0  0  0  0  0  0  0  0  # atno 6909 bound_to 6896
  144.7135  140.1547  143.6381 H   0  0  0  0  0  0  0  0  0  0  0  0  # atno 7974 bound_to 7965
  154.6445  140.2554  155.7283 H   0  0  0  0  0  0  0  0  0  0  0  0  # atno 8008 bound_to 7997
  156.2545  140.2880  156.0774 H   0  0  0  0  0  0  0  0  0  0  0  0  # atno 8009 bound_to 7997
  155.1545  140.0383  157.2819 H   0  0  0  0  0  0  0  0  0  0  0  0  # atno 8010 bound_to 7997
  140.2569  144.3417  150.6330 H   0  0  0  0  0  0  0  0  0  0  0  0  # atno 10167 bound_to 10162
  156.1066  130.6215  150.9220 H   0  0  0  0  0  0  0  0  0  0  0  0  # atno 10718 bound_to 10713
  153.4780  135.3686  155.2427 H   0  0  0  0  0  0  0  0  0  0  0  0  # atno 10763 bound_to 10752
  154.8756  135.3947  154.3734 H   0  0  0  0  0  0  0  0  0  0  0  0  # atno 10764 bound_to 10752
  153.4333  135.7083  153.6282 H   0  0  0  0  0  0  0  0  0  0  0  0  # atno 10765 bound_to 10752
  141.0086  134.0297  157.3443 H   0  0  0  0  0  0  0  0  0  0  0  0  # atno 11005 bound_to 11000
  145.9084  139.2472  143.1452 LP  0  0  0  0  0  0  0  0  0  0  0  0  # atno 17320 bound_to 7965
  145.9741  140.8737  143.0148 LP  0  0  0  0  0  0  0  0  0  0  0  0  # atno 17321 bound_to 7965
  140.5997  143.2167  151.7097 LP  0  0  0  0  0  0  0  0  0  0  0  0  # atno 17342 bound_to 10162
  139.5029  144.3813  152.0373 LP  0  0  0  0  0  0  0  0  0  0  0  0  # atno 17343 bound_to 10162
  157.6243  131.0927  150.8564 LP  0  0  0  0  0  0  0  0  0  0  0  0  # atno 17370 bound_to 10713
  156.8682  130.5137  149.5298 LP  0  0  0  0  0  0  0  0  0  0  0  0  # atno 17371 bound_to 10713
  139.9077  135.0183  156.7559 LP  0  0  0  0  0  0  0  0  0  0  0  0  # atno 17394 bound_to 11000
  140.6771  133.9508  155.7889 LP  0  0  0  0  0  0  0  0  0  0  0  0  # atno 17395 bound_to 11000

$$$$
