AV-unprocessed.smi:79|AV-procd|sdf|784|dock4
  -GOLD-   2262017153D 1   1.00000     0.00000
 Structure written by MMmdl.
 56 59  0  0  0  0  0  0  0  0  2 V2000
  145.5014  132.1738  150.2443 C   0  0  0  0  0  0  0  0  0  0  0  0
  144.2859  133.1085  150.2888 C   0  0  1  0  0  0  0  0  0  0  0  0
  143.5364  132.9131  149.1065 O   0  0  0  0  0  0  0  0  0  0  0  0
  143.3875  132.8323  151.5107 C   0  0  0  0  0  0  0  0  0  0  0  0
  143.8054  133.5982  152.7129 N   0  3  1  0  0  0  0  0  0  0  0  0
  145.2815  133.6324  152.8764 C   0  0  0  0  0  0  0  0  0  0  0  0
  145.6814  134.3325  154.1866 C   0  0  0  0  0  0  0  0  0  0  0  0
  145.0660  135.6550  154.2739 N   0  0  0  0  0  0  0  0  0  0  0  0
  145.8191  136.6813  153.7986 C   0  0  0  0  0  0  0  0  0  0  0  0
  145.4810  137.2904  152.6308 N   0  0  0  0  0  0  0  0  0  0  0  0
  146.2181  138.2983  152.1555 C   0  0  0  0  0  0  0  0  0  0  0  0
  147.3146  138.8485  152.6793 N   0  0  0  0  0  0  0  0  0  0  0  0
  147.6597  138.2443  153.8519 C   0  0  0  0  0  0  0  0  0  0  0  0
  146.9748  137.1634  154.4757 C   0  0  0  0  0  0  0  0  0  0  0  0
  147.6133  136.8218  155.6616 N   0  0  0  0  0  0  0  0  0  0  0  0
  148.6205  137.6489  155.7318 C   0  0  0  0  0  0  0  0  0  0  0  0
  148.7289  138.5336  154.6823 N   0  0  0  0  0  0  0  0  0  0  0  0
  149.7424  139.5639  154.5117 C   0  0  0  0  0  0  0  0  0  0  0  0
  149.6562  140.7011  155.5466 C   0  0  0  0  0  0  0  0  0  0  0  0
  148.4462  141.5906  155.1976 C   0  0  0  0  0  0  0  0  0  0  0  0
  148.6500  142.3451  154.0196 O   0  0  0  0  0  0  0  0  0  0  0  0
  149.7705  140.2549  157.0111 C   0  0  0  0  0  0  0  0  0  0  0  0
  150.8326  141.1976  157.2763 O   0  0  0  0  0  0  0  0  0  0  0  0
  150.9663  141.4387  155.8582 C   0  0  0  0  0  0  0  0  0  0  0  0
  143.6112  135.6889  154.0896 C   0  0  2  0  0  0  0  0  0  0  0  0
  142.8775  135.1166  155.3147 C   0  0  0  0  0  0  0  0  0  0  0  0
  143.2074  134.9591  152.7884 C   0  0  0  0  0  0  0  0  0  0  0  0
  146.1254  132.3014  151.1291 H   0  0  0  0  0  0  0  0  0  0  0  0
  146.1237  132.3787  149.3723 H   0  0  0  0  0  0  0  0  0  0  0  0
  145.1992  131.1269  150.1993 H   0  0  0  0  0  0  0  0  0  0  0  0
  144.6468  134.1363  150.2985 H   0  0  0  0  0  0  0  0  0  0  0  0
  142.6534  133.2174  149.2525 H   0  0  0  0  0  0  0  0  0  0  0  0
  142.3604  133.0918  151.2485 H   0  0  0  0  0  0  0  0  0  0  0  0
  143.3794  131.7674  151.7483 H   0  0  0  0  0  0  0  0  0  0  0  0
  145.6797  132.6172  152.8771 H   0  0  0  0  0  0  0  0  0  0  0  0
  145.7271  134.1494  152.0249 H   0  0  0  0  0  0  0  0  0  0  0  0
  145.3599  133.7377  155.0417 H   0  0  0  0  0  0  0  0  0  0  0  0
  146.7678  134.3866  154.2505 H   0  0  0  0  0  0  0  0  0  0  0  0
  145.8807  138.7256  151.2226 H   0  0  0  0  0  0  0  0  0  0  0  0
  149.3136  137.6377  156.5604 H   0  0  0  0  0  0  0  0  0  0  0  0
  150.7250  139.0912  154.5407 H   0  0  0  0  0  0  0  0  0  0  0  0
  149.6385  139.9599  153.5008 H   0  0  0  0  0  0  0  0  0  0  0  0
  147.5490  140.9920  155.0428 H   0  0  0  0  0  0  0  0  0  0  0  0
  148.2285  142.2855  156.0092 H   0  0  0  0  0  0  0  0  0  0  0  0
  148.7637  143.2521  154.2589 H   0  0  0  0  0  0  0  0  0  0  0  0
  148.8799  140.4432  157.6116 H   0  0  0  0  0  0  0  0  0  0  0  0
  150.1071  139.2249  157.1368 H   0  0  0  0  0  0  0  0  0  0  0  0
  151.8575  140.9569  155.4552 H   0  0  0  0  0  0  0  0  0  0  0  0
  150.9526  142.5001  155.6083 H   0  0  0  0  0  0  0  0  0  0  0  0
  143.2877  136.7278  154.0092 H   0  0  0  0  0  0  0  0  0  0  0  0
  141.7976  135.2142  155.2017 H   0  0  0  0  0  0  0  0  0  0  0  0
  143.1599  135.6508  156.2223 H   0  0  0  0  0  0  0  0  0  0  0  0
  143.0961  134.0599  155.4693 H   0  0  0  0  0  0  0  0  0  0  0  0
  143.5380  135.5345  151.9228 H   0  0  0  0  0  0  0  0  0  0  0  0
  142.1211  134.9108  152.7251 H   0  0  0  0  0  0  0  0  0  0  0  0
  143.4523  133.0839  153.5076 H   0  0  0  0  0  0  0  0  0  0  0  0
  1  2  1  0  0  0  0
  1 28  1  0  0  0  0
  1 29  1  0  0  0  0
  1 30  1  0  0  0  0
  2  3  1  0  0  0  0
  2  4  1  0  0  0  0
  2 31  1  0  0  0  0
  3 32  1  0  0  0  0
  4  5  1  0  0  0  0
  4 33  1  0  0  0  0
  4 34  1  0  0  0  0
  5 27  1  0  0  0  0
  5  6  1  0  0  0  0
  5 56  1  0  0  0  0
  6  7  1  0  0  0  0
  6 35  1  0  0  0  0
  6 36  1  0  0  0  0
  7  8  1  0  0  0  0
  7 37  1  0  0  0  0
  7 38  1  0  0  0  0
  8  9  1  0  0  0  0
  8 25  1  0  0  0  0
  9 14  1  0  0  0  0
  9 10  2  0  0  0  0
 10 11  1  0  0  0  0
 11 12  2  0  0  0  0
 11 39  1  0  0  0  0
 12 13  1  0  0  0  0
 13 17  1  0  0  0  0
 13 14  2  0  0  0  0
 14 15  1  0  0  0  0
 15 16  2  0  0  0  0
 16 17  1  0  0  0  0
 16 40  1  0  0  0  0
 17 18  1  0  0  0  0
 18 19  1  0  0  0  0
 18 41  1  0  0  0  0
 18 42  1  0  0  0  0
 19 24  1  0  0  0  0
 19 20  1  0  0  0  0
 19 22  1  0  0  0  0
 20 21  1  0  0  0  0
 20 43  1  0  0  0  0
 20 44  1  0  0  0  0
 21 45  1  0  0  0  0
 22 23  1  0  0  0  0
 22 46  1  0  0  0  0
 22 47  1  0  0  0  0
 23 24  1  0  0  0  0
 24 48  1  0  0  0  0
 24 49  1  0  0  0  0
 25 26  1  0  0  0  0
 25 27  1  0  0  0  0
 25 50  1  0  0  0  0
 26 51  1  0  0  0  0
 26 52  1  0  0  0  0
 26 53  1  0  0  0  0
 27 54  1  0  0  0  0
 27 55  1  0  0  0  0
M  CHG  1   5   1
M  END
> <s_m_source_file>
AV-unprocessed.smi

> <i_m_source_file_index>
79

> <i_lp_mmshare_version>
43012

> <i_f3d_flags>
0

> <s_epik_input>
W0NIM11bQ0BIXShbT0hdKVtDSDJdTjFbQ0gyXVtDSDJdTihbQ0BASF0oW0NIM10pW0NIMl0xKWMobltjSF1uMiljKGMyMyluW2NIXW4zW0NIMl1DNChbQ0gyXVtPSF0pW0NIMl1PW0NIMl00

> <s_epik_cmdline>
J2VwaWtfcHl0aG9uJywgJy1waCcsICc3LjAnLCAnLXRuJywgJzgnLCAnLW1hJywgJzIwMCcsICctbWV0YWxfYmluZGluZycsICctaW1hZScsICc8aW5maWxlLm1hZT4nLCAnLW9tYWUnLCAnPG91dGZpbGUubWFlPic=

> <r_lp_tautomer_probability>
1

> <r_epik_Ionization_Penalty>
0.00515943

> <r_epik_Ionization_Penalty_Charging>
0.00509693

> <r_epik_Ionization_Penalty_Neutral>
6.25007e-05

> <r_epik_State_Penalty>
-0

> <r_epik_Charging_Adjusted_Penalty>
0.00509693

> <i_epik_Tot_Q>
1

> <i_epik_Tot_abs_Q>
1

> <r_epik_Metal_State_Penalty>
-0

> <b_epik_Metal_Only>
0

> <s_lp_Force_Field>
OPLS_2005

> <r_lp_Energy>
50.645

> <b_lp_Chiralities_Consistent>
1

> <s_lp_Variant>
AV-unprocessed.smi:79-8

> <Gold.Version>
5.8.1

> <Gold.Id.Protein>
6NUR|6NUR_protein|mol2

> <Gold.PLP.Fitness>
43.2041

> <Gold.PLP.PLP>
-31.0172

> <Gold.PLP.part.hbond>
-4.0799

> <Gold.PLP.part.metal>
0.0000

> <Gold.PLP.part.buried>
-4.6086

> <Gold.PLP.part.nonpolar>
-24.5228

> <Gold.PLP.part.repulsive>
1.5657

> <Gold.PLP.ligand.clash>
0.0000

> <Gold.PLP.ligand.torsion>
1.9185

> <Gold.PLP.Chemscore.Hbond>
4.0886

> <Gold.PLP.Chemscore.CHOScore>
1.0000

> <Gold.PLP.Chemscore.Metal>
0.0000

> <Gold.Chemscore.Hbonds>
donor molecule, donor type, donor heavy atom, donor atom, acceptor molecule, acceptor atom, score
      L1  H     3    32       P1 10186  0.94
      L1  H     5    56       P1 10957  2.00
      L1  H    21    45       P1  8028  1.00
      P1  H  8011  8017       L1    21  0.17
      L1  C    11    39       P1 10171  1.00

> <Gold.PLP.Chemscore.Internal.Correction>
0.7582

> <Gold.Rescore>
     Score         DG    S(hbond)    S(metal)    S(lipo)     H(rot)  DE(clash)    DE(int)     intcor
     11.09     -14.75       2.89        0.00      70.92       3.39       1.67       1.99       ----

> <Gold.Chemscore.Fitness>
11.0904

> <Gold.Chemscore.DG>
-14.7491

> <Gold.Chemscore.ZeroCoef>
-5.4800

> <Gold.Chemscore.Hbond>
2.8866

> <Gold.Chemscore.Metal>
0.0000

> <Gold.Chemscore.Lipo>
70.9227

> <Gold.Chemscore.Internal_Hbond>
0.0000

> <Gold.Chemscore.DEClash>
1.6720

> <Gold.Chemscore.DEInternal>
1.9868

> <Gold.Chemscore.Rot>
3.3868

> <Gold.Chemscore.Internal.Correction>
   9.000000E+99

> <Gold.Chemscore.Hbonds>
donor molecule, donor type, donor heavy atom, donor atom, acceptor molecule, acceptor atom, score
      L1  H     3    32       P1 10186  0.90
      L1  H     5    56       P1 10957  0.90
      L1  H    21    45       P1  8028  0.92
      P1  H  8011  8017       L1    21  0.02

> <Gold.Chemscore.Hbond.Weighted>
-9.6413

> <Gold.Chemscore.Metal.Weighted>
-0.0000

> <Gold.Chemscore.Lipo.Weighted>
-8.2980

> <Gold.Chemscore.Internal_Hbond.Weighted>
0.0000

> <Gold.Chemscore.DEClash.Weighted>
1.6720

> <Gold.Chemscore.DEInternal.Weighted>
1.9868

> <Gold.Chemscore.Rot.Weighted>
8.6701

> <Gold.Chemscore.Internal.Correction.Weighted>
   9.000000E+99

> <Gold.Protein.RotatedTorsions>
[ 6907 6896 6895 6894 ] final  -89.19 input  -60.11 | X-H torsion
[ 7974 7965 7964 7962 ] final -135.34 input  175.53 | X-H torsion
[ 8008 7997 7996 7995 ] final  -75.71 input   59.86 | X-H torsion
[ 10167 10162 10161 10158 ] final  -89.18 input  -65.29 | X-H torsion
[ 10718 10713 10712 10709 ] final  121.85 input   66.30 | X-H torsion
[ 10763 10752 10751 10750 ] final  108.36 input  -60.55 | X-H torsion
[ 11005 11000 10999 10996 ] final  178.25 input  -57.11 | X-H torsion

> <Gold.Protein.ActiveResidues>
 VAL166  LYS551  ARG553  GLY616  TRP617  ASP618  TYR619  PRO620  LYS621  CYS622 
 ASP623  PHE694  ASN695  SER759  ASP760  ASP761  ALA762  ILE779  LEU786  VAL792 
 PHE793  MET794  SER795  GLU796  ALA797  LYS798  CYS799  TRP800  GLU811  SER814 

> <Gold.Protein.RotatedAtoms>
  150.6872  134.2626  159.4555 H   0  0  0  0  0  0  0  0  0  0  0  0  # atno 6907 bound_to 6896
  152.0555  134.9625  160.0584 H   0  0  0  0  0  0  0  0  0  0  0  0  # atno 6908 bound_to 6896
  152.1072  133.4246  159.4651 H   0  0  0  0  0  0  0  0  0  0  0  0  # atno 6909 bound_to 6896
  144.9022  140.6786  143.5078 H   0  0  0  0  0  0  0  0  0  0  0  0  # atno 7974 bound_to 7965
  154.5440  140.0739  156.8558 H   0  0  0  0  0  0  0  0  0  0  0  0  # atno 8008 bound_to 7997
  155.3123  140.3391  155.4225 H   0  0  0  0  0  0  0  0  0  0  0  0  # atno 8009 bound_to 7997
  156.1901  140.1683  156.8095 H   0  0  0  0  0  0  0  0  0  0  0  0  # atno 8010 bound_to 7997
  140.3673  143.2812  151.9542 H   0  0  0  0  0  0  0  0  0  0  0  0  # atno 10167 bound_to 10162
  157.5787  131.1077  150.8229 H   0  0  0  0  0  0  0  0  0  0  0  0  # atno 10718 bound_to 10713
  153.4196  135.3814  155.2103 H   0  0  0  0  0  0  0  0  0  0  0  0  # atno 10763 bound_to 10752
  154.8744  135.3814  154.4400 H   0  0  0  0  0  0  0  0  0  0  0  0  # atno 10764 bound_to 10752
  153.4919  135.7088  153.5942 H   0  0  0  0  0  0  0  0  0  0  0  0  # atno 10765 bound_to 10752
  140.3931  134.6844  157.4519 H   0  0  0  0  0  0  0  0  0  0  0  0  # atno 11005 bound_to 11000
  145.3596  139.1685  143.4390 LP  0  0  0  0  0  0  0  0  0  0  0  0  # atno 17320 bound_to 7965
  146.3114  140.3657  142.8669 LP  0  0  0  0  0  0  0  0  0  0  0  0  # atno 17321 bound_to 7965
  139.4807  144.5939  151.7725 LP  0  0  0  0  0  0  0  0  0  0  0  0  # atno 17342 bound_to 10162
  140.5068  144.1086  150.5984 LP  0  0  0  0  0  0  0  0  0  0  0  0  # atno 17343 bound_to 10162
  156.8681  130.5136  149.5298 LP  0  0  0  0  0  0  0  0  0  0  0  0  # atno 17370 bound_to 10713
  156.0832  130.5837  150.9601 LP  0  0  0  0  0  0  0  0  0  0  0  0  # atno 17371 bound_to 10713
  140.0392  134.6292  155.9003 LP  0  0  0  0  0  0  0  0  0  0  0  0  # atno 17394 bound_to 11000
  141.1884  133.6562  156.5321 LP  0  0  0  0  0  0  0  0  0  0  0  0  # atno 17395 bound_to 11000

$$$$
