AV-unprocessed.smi:415|AV-procd|sdf|2519|dock6
  -GOLD-   2262022473D 1   1.00000     0.00000
 Structure written by MMmdl.
 53 54  0  0  0  0  0  0  0  0  1 V2000
  145.6496  143.8338  153.7267 C   0  0  0  0  0  0  0  0  0  0  0  0
  146.1559  142.8668  154.6301 O   0  0  0  0  0  0  0  0  0  0  0  0
  147.3980  142.3282  154.2105 C   0  0  0  0  0  0  0  0  0  0  0  0
  147.1303  141.1256  153.2938 C   0  0  0  0  0  0  0  0  0  0  0  0
  147.5841  139.8736  153.8676 N   0  0  0  0  0  0  0  0  0  0  0  0
  146.7172  138.8585  154.2623 C   0  0  0  0  0  0  0  0  0  0  0  0
  145.3539  139.0181  154.0905 N   0  0  0  0  0  0  0  0  0  0  0  0
  147.1788  137.7074  154.7993 C   0  0  0  0  0  0  0  0  0  0  0  0
  148.6016  137.4640  154.9894 C   0  0  0  0  0  0  0  0  0  0  0  0
  149.0404  136.4330  155.5003 O   0  0  0  0  0  0  0  0  0  0  0  0
  149.4655  138.4947  154.5525 N   0  0  0  0  0  0  0  0  0  0  0  0
  150.9234  138.3113  154.7305 C   0  0  0  0  0  0  0  0  0  0  0  0
  151.6124  139.5142  155.3933 C   0  0  0  0  0  0  0  0  0  0  0  0
  152.7345  139.8780  155.0384 O   0  0  0  0  0  0  0  0  0  0  0  0
  150.9217  140.1145  156.3743 N   0  0  0  0  0  0  0  0  0  0  0  0
  151.3787  141.2645  157.1516 C   0  0  1  0  0  0  0  0  0  0  0  0
  150.1694  141.9802  157.7841 C   0  0  0  0  0  0  0  0  0  0  0  0
  150.6089  143.2146  158.5855 C   0  0  0  0  0  0  0  0  0  0  0  0
  151.6666  142.8560  159.6409 C   0  0  0  0  0  0  0  0  0  0  0  0
  152.8738  142.1351  159.0070 C   0  0  1  0  0  0  0  0  0  0  0  0
  153.9845  141.8665  160.0361 C   0  0  0  0  0  0  0  0  0  0  0  0
  152.4364  140.8707  158.2195 C   0  0  1  0  0  0  0  0  0  0  0  0
  151.9785  139.7050  159.1271 C   0  0  0  0  0  0  0  0  0  0  0  0
  148.9869  139.6980  153.9849 C   0  0  0  0  0  0  0  0  0  0  0  0
  149.7780  140.5673  153.6084 O   0  0  0  0  0  0  0  0  0  0  0  0
  144.6964  144.2141  154.0940 H   0  0  0  0  0  0  0  0  0  0  0  0
  145.4808  143.4022  152.7393 H   0  0  0  0  0  0  0  0  0  0  0  0
  146.3332  144.6780  153.6279 H   0  0  0  0  0  0  0  0  0  0  0  0
  147.9696  143.0879  153.6749 H   0  0  0  0  0  0  0  0  0  0  0  0
  147.9852  142.0229  155.0780 H   0  0  0  0  0  0  0  0  0  0  0  0
  146.0734  141.0256  153.0410 H   0  0  0  0  0  0  0  0  0  0  0  0
  147.6381  141.2381  152.3364 H   0  0  0  0  0  0  0  0  0  0  0  0
  144.9617  139.8552  153.6840 H   0  0  0  0  0  0  0  0  0  0  0  0
  144.6977  138.2903  154.3350 H   0  0  0  0  0  0  0  0  0  0  0  0
  146.4801  136.9395  155.0993 H   0  0  0  0  0  0  0  0  0  0  0  0
  151.1280  137.4167  155.3212 H   0  0  0  0  0  0  0  0  0  0  0  0
  151.4216  138.1164  153.7799 H   0  0  0  0  0  0  0  0  0  0  0  0
  150.0098  139.7469  156.6033 H   0  0  0  0  0  0  0  0  0  0  0  0
  151.8414  141.9722  156.4602 H   0  0  0  0  0  0  0  0  0  0  0  0
  149.4695  142.2859  157.0054 H   0  0  0  0  0  0  0  0  0  0  0  0
  149.6222  141.2968  158.4344 H   0  0  0  0  0  0  0  0  0  0  0  0
  151.0156  143.9629  157.9041 H   0  0  0  0  0  0  0  0  0  0  0  0
  149.7445  143.6735  159.0659 H   0  0  0  0  0  0  0  0  0  0  0  0
  151.9988  143.7669  160.1403 H   0  0  0  0  0  0  0  0  0  0  0  0
  151.2180  142.2323  160.4148 H   0  0  0  0  0  0  0  0  0  0  0  0
  153.3036  142.8231  158.2771 H   0  0  0  0  0  0  0  0  0  0  0  0
  153.6298  141.2595  160.8691 H   0  0  0  0  0  0  0  0  0  0  0  0
  154.3591  142.8008  160.4548 H   0  0  0  0  0  0  0  0  0  0  0  0
  154.8288  141.3507  159.5781 H   0  0  0  0  0  0  0  0  0  0  0  0
  153.3157  140.5111  157.6831 H   0  0  0  0  0  0  0  0  0  0  0  0
  151.1079  139.9692  159.7261 H   0  0  0  0  0  0  0  0  0  0  0  0
  152.7676  139.3963  159.8115 H   0  0  0  0  0  0  0  0  0  0  0  0
  151.7187  138.8218  158.5438 H   0  0  0  0  0  0  0  0  0  0  0  0
  1  2  1  0  0  0  0
  1 26  1  0  0  0  0
  1 27  1  0  0  0  0
  1 28  1  0  0  0  0
  2  3  1  0  0  0  0
  3  4  1  0  0  0  0
  3 29  1  0  0  0  0
  3 30  1  0  0  0  0
  4  5  1  0  0  0  0
  4 31  1  0  0  0  0
  4 32  1  0  0  0  0
  5 24  1  0  0  0  0
  5  6  1  0  0  0  0
  6  7  1  0  0  0  0
  6  8  2  0  0  0  0
  7 33  1  0  0  0  0
  7 34  1  0  0  0  0
  8  9  1  0  0  0  0
  8 35  1  0  0  0  0
  9 10  2  0  0  0  0
  9 11  1  0  0  0  0
 11 12  1  0  0  0  0
 11 24  1  0  0  0  0
 12 13  1  0  0  0  0
 12 36  1  0  0  0  0
 12 37  1  0  0  0  0
 13 14  2  0  0  0  0
 13 15  1  0  0  0  0
 15 16  1  0  0  0  0
 15 38  1  0  0  0  0
 16 22  1  0  0  0  0
 16 17  1  0  0  0  0
 16 39  1  0  0  0  0
 17 18  1  0  0  0  0
 17 40  1  0  0  0  0
 17 41  1  0  0  0  0
 18 19  1  0  0  0  0
 18 42  1  0  0  0  0
 18 43  1  0  0  0  0
 19 20  1  0  0  0  0
 19 44  1  0  0  0  0
 19 45  1  0  0  0  0
 20 21  1  0  0  0  0
 20 22  1  0  0  0  0
 20 46  1  0  0  0  0
 21 47  1  0  0  0  0
 21 48  1  0  0  0  0
 21 49  1  0  0  0  0
 22 23  1  0  0  0  0
 22 50  1  0  0  0  0
 23 51  1  0  0  0  0
 23 52  1  0  0  0  0
 23 53  1  0  0  0  0
 24 25  2  0  0  0  0
M  END
> <s_m_source_file>
AV-unprocessed.smi

> <i_m_source_file_index>
415

> <i_lp_mmshare_version>
43012

> <i_f3d_flags>
0

> <s_epik_input>
W0NIM11PW0NIMl1bQ0gyXW4xYyhbTkgyXSlbY0hdYyg9TyluKGMxPU8pW0NIMl1DKD1PKVtOSF1bQ0BASF0yW0NIMl1bQ0gyXVtDSDJdW0NAQEhdKFtDSDNdKVtDQEhdMltDSDNd

> <s_epik_cmdline>
J2VwaWtfcHl0aG9uJywgJy1waCcsICc3LjAnLCAnLXRuJywgJzgnLCAnLW1hJywgJzIwMCcsICctbWV0YWxfYmluZGluZycsICctaW1hZScsICc8aW5maWxlLm1hZT4nLCAnLW9tYWUnLCAnPG91dGZpbGUubWFlPic=

> <r_lp_tautomer_probability>
1

> <r_epik_Ionization_Penalty>
8.6647e-06

> <r_epik_Ionization_Penalty_Charging>
1.81162e-08

> <r_epik_Ionization_Penalty_Neutral>
8.64658e-06

> <r_epik_State_Penalty>
-0

> <r_epik_Charging_Adjusted_Penalty>
1.81162e-08

> <i_epik_Tot_Q>
0

> <i_epik_Tot_abs_Q>
0

> <r_epik_Metal_State_Penalty>
-0

> <b_epik_Metal_Only>
0

> <s_lp_Force_Field>
OPLS_2005

> <r_lp_Energy>
22.062

> <b_lp_Chiralities_Consistent>
1

> <s_lp_Variant>
AV-unprocessed.smi:415-2

> <Gold.Version>
5.8.1

> <Gold.Id.Protein>
6NUR|6NUR_protein|mol2

> <Gold.PLP.Fitness>
46.9620

> <Gold.PLP.PLP>
-40.6787

> <Gold.PLP.part.hbond>
-4.4832

> <Gold.PLP.part.metal>
0.0000

> <Gold.PLP.part.buried>
-4.4253

> <Gold.PLP.part.nonpolar>
-34.9217

> <Gold.PLP.part.repulsive>
4.7592

> <Gold.PLP.ligand.clash>
0.0000

> <Gold.PLP.ligand.torsion>
1.2716

> <Gold.PLP.Chemscore.Hbond>
2.9278

> <Gold.PLP.Chemscore.CHOScore>
0.0000

> <Gold.PLP.Chemscore.Metal>
0.0000

> <Gold.Chemscore.Hbonds>
donor molecule, donor type, donor heavy atom, donor atom, acceptor molecule, acceptor atom, score
      L1  H     7    33       P1 10175  0.86
      P1  H  7989  7998       L1    25  0.50
      P1  H  7997  8010       L1    14  1.00
      P1  H  8011  8017       L1    25  0.47

> <Gold.PLP.Chemscore.Internal.Correction>
0.0433

> <Gold.Rescore>
     Score         DG    S(hbond)    S(metal)    S(lipo)     H(rot)  DE(clash)    DE(int)     intcor
     15.39     -19.69       2.61        0.00      96.45       2.26       1.55       2.74       ----

> <Gold.Chemscore.Fitness>
15.3944

> <Gold.Chemscore.DG>
-19.6879

> <Gold.Chemscore.ZeroCoef>
-5.4800

> <Gold.Chemscore.Hbond>
2.6110

> <Gold.Chemscore.Metal>
0.0000

> <Gold.Chemscore.Lipo>
96.4479

> <Gold.Chemscore.Internal_Hbond>
0.0000

> <Gold.Chemscore.DEClash>
1.5497

> <Gold.Chemscore.DEInternal>
2.7439

> <Gold.Chemscore.Rot>
2.2645

> <Gold.Chemscore.Internal.Correction>
   9.000000E+99

> <Gold.Chemscore.Hbonds>
donor molecule, donor type, donor heavy atom, donor atom, acceptor molecule, acceptor atom, score
      L1  H     7    33       P1 10175  0.85
      P1  H  7989  7998       L1    25  0.50
      P1  H  7997  8010       L1    14  0.94
      P1  H  8011  8017       L1    25  0.47

> <Gold.Chemscore.Hbond.Weighted>
-8.7207

> <Gold.Chemscore.Metal.Weighted>
-0.0000

> <Gold.Chemscore.Lipo.Weighted>
-11.2844

> <Gold.Chemscore.Internal_Hbond.Weighted>
0.0000

> <Gold.Chemscore.DEClash.Weighted>
1.5497

> <Gold.Chemscore.DEInternal.Weighted>
2.7439

> <Gold.Chemscore.Rot.Weighted>
5.7972

> <Gold.Chemscore.Internal.Correction.Weighted>
   9.000000E+99

> <Gold.Protein.RotatedTorsions>
[ 6907 6896 6895 6894 ] final  -54.82 input  -60.11 | X-H torsion
[ 7974 7965 7964 7962 ] final    2.70 input  175.53 | X-H torsion
[ 8008 7997 7996 7995 ] final   84.86 input   59.86 | X-H torsion
[ 10167 10162 10161 10158 ] final  -72.98 input  -65.29 | X-H torsion
[ 10718 10713 10712 10709 ] final   36.29 input   66.30 | X-H torsion
[ 10763 10752 10751 10750 ] final  -81.43 input  -60.55 | X-H torsion
[ 11005 11000 10999 10996 ] final -143.65 input  -57.11 | X-H torsion

> <Gold.Protein.ActiveResidues>
 VAL166  LYS551  ARG553  GLY616  TRP617  ASP618  TYR619  PRO620  LYS621  CYS622 
 ASP623  PHE694  ASN695  SER759  ASP760  ASP761  ALA762  ILE779  LEU786  VAL792 
 PHE793  MET794  SER795  GLU796  ALA797  LYS798  CYS799  TRP800  GLU811  SER814 

> <Gold.Protein.RotatedAtoms>
  150.8305  134.7556  159.6848 H   0  0  0  0  0  0  0  0  0  0  0  0  # atno 6907 bound_to 6896
  152.4410  134.5588  159.9898 H   0  0  0  0  0  0  0  0  0  0  0  0  # atno 6908 bound_to 6896
  151.5750  133.3347  159.3033 H   0  0  0  0  0  0  0  0  0  0  0  0  # atno 6909 bound_to 6896
  146.2444  140.0797  142.8357 H   0  0  0  0  0  0  0  0  0  0  0  0  # atno 7974 bound_to 7965
  155.9426  140.3407  155.6340 H   0  0  0  0  0  0  0  0  0  0  0  0  # atno 8008 bound_to 7997
  155.7021  140.0761  157.2424 H   0  0  0  0  0  0  0  0  0  0  0  0  # atno 8009 bound_to 7997
  154.4105  140.1638  156.2190 H   0  0  0  0  0  0  0  0  0  0  0  0  # atno 8010 bound_to 7997
  140.5148  143.2339  151.7531 H   0  0  0  0  0  0  0  0  0  0  0  0  # atno 10167 bound_to 10162
  157.3331  130.7508  149.6861 H   0  0  0  0  0  0  0  0  0  0  0  0  # atno 10718 bound_to 10713
  154.5634  135.5626  153.7028 H   0  0  0  0  0  0  0  0  0  0  0  0  # atno 10763 bound_to 10752
  153.0025  135.6279  154.2213 H   0  0  0  0  0  0  0  0  0  0  0  0  # atno 10764 bound_to 10752
  154.2151  135.2872  155.2924 H   0  0  0  0  0  0  0  0  0  0  0  0  # atno 10765 bound_to 10752
  140.8103  134.2752  157.4943 H   0  0  0  0  0  0  0  0  0  0  0  0  # atno 11005 bound_to 11000
  145.0744  140.9177  143.4863 LP  0  0  0  0  0  0  0  0  0  0  0  0  # atno 17320 bound_to 7965
  145.0937  139.2871  143.5721 LP  0  0  0  0  0  0  0  0  0  0  0  0  # atno 17321 bound_to 7965
  139.4906  144.4339  151.9841 LP  0  0  0  0  0  0  0  0  0  0  0  0  # atno 17342 bound_to 10162
  140.3433  144.3177  150.5963 LP  0  0  0  0  0  0  0  0  0  0  0  0  # atno 17343 bound_to 10162
  155.9698  130.4189  150.4351 LP  0  0  0  0  0  0  0  0  0  0  0  0  # atno 17370 bound_to 10713
  157.2386  131.0520  151.2450 LP  0  0  0  0  0  0  0  0  0  0  0  0  # atno 17371 bound_to 10713
  139.8714  134.9479  156.3982 LP  0  0  0  0  0  0  0  0  0  0  0  0  # atno 17394 bound_to 11000
  140.9204  133.7649  155.9900 LP  0  0  0  0  0  0  0  0  0  0  0  0  # atno 17395 bound_to 11000

$$$$
