AV-unprocessed.smi:565|AV-procd|sdf|2953|dock1
  -GOLD-   2262023453D 1   1.00000     0.00000
 Structure written by MMmdl.
 50 51  0  0  0  0  0  0  0  0  2 V2000
  150.6864  138.7726  154.4933 C   0  0  0  0  0  0  0  0  0  0  0  0
  150.8813  139.7693  155.5999 C   0  0  0  0  0  0  0  0  0  0  0  0
  151.6552  139.4582  156.6262 N   0  0  0  0  0  0  0  0  0  0  0  0
  151.6263  140.5466  157.4214 N   0  0  0  0  0  0  0  0  0  0  0  0
  152.3840  140.5460  158.6576 C   0  0  0  0  0  0  0  0  0  0  0  0
  150.8313  141.5467  156.8967 C   0  0  0  0  0  0  0  0  0  0  0  0
  150.6434  142.8584  157.5888 C   0  0  0  0  0  0  0  0  0  0  0  0
  150.3266  141.0780  155.7129 C   0  0  0  0  0  0  0  0  0  0  0  0
  149.4065  141.7691  154.7393 C   0  0  0  0  0  0  0  0  0  0  0  0
  148.0938  140.9912  154.6332 C   0  0  0  0  0  0  0  0  0  0  0  0
  147.3365  140.9225  155.6015 O   0  0  0  0  0  0  0  0  0  0  0  0
  147.8291  140.4175  153.4493 N   0  0  0  0  0  0  0  0  0  0  0  0
  146.6095  139.6862  153.1275 C   0  0  0  0  0  0  0  0  0  0  0  0
  146.8514  138.6018  152.0579 C   0  0  0  0  0  0  0  0  0  0  0  0
  145.7649  137.5909  152.0161 N   0  3  1  0  0  0  0  0  0  0  0  0
  146.1304  136.4111  151.1905 C   0  0  0  0  0  0  0  0  0  0  0  0
  144.9365  135.4573  151.0266 C   0  0  0  0  0  0  0  0  0  0  0  0
  144.3860  135.0233  152.3925 C   0  0  0  0  0  0  0  0  0  0  0  0
  144.0664  136.2413  153.2788 C   0  0  2  0  0  0  0  0  0  0  0  0
  142.7905  136.9805  152.8387 C   0  0  0  0  0  0  0  0  0  0  0  0
  145.2856  137.1828  153.3655 C   0  0  0  0  0  0  0  0  0  0  0  0
  150.9294  139.2126  153.5263 H   0  0  0  0  0  0  0  0  0  0  0  0
  149.6511  138.4339  154.4535 H   0  0  0  0  0  0  0  0  0  0  0  0
  151.3183  137.8932  154.6233 H   0  0  0  0  0  0  0  0  0  0  0  0
  151.7017  140.6252  159.5040 H   0  0  0  0  0  0  0  0  0  0  0  0
  153.0673  141.3953  158.6697 H   0  0  0  0  0  0  0  0  0  0  0  0
  152.9638  139.6272  158.7549 H   0  0  0  0  0  0  0  0  0  0  0  0
  150.0019  143.5237  157.0114 H   0  0  0  0  0  0  0  0  0  0  0  0
  151.5997  143.3620  157.7302 H   0  0  0  0  0  0  0  0  0  0  0  0
  150.1848  142.7180  158.5677 H   0  0  0  0  0  0  0  0  0  0  0  0
  149.2070  142.7964  155.0476 H   0  0  0  0  0  0  0  0  0  0  0  0
  149.8514  141.8372  153.7465 H   0  0  0  0  0  0  0  0  0  0  0  0
  148.5073  140.5266  152.7088 H   0  0  0  0  0  0  0  0  0  0  0  0
  146.2072  139.2621  154.0475 H   0  0  0  0  0  0  0  0  0  0  0  0
  145.8717  140.4037  152.7676 H   0  0  0  0  0  0  0  0  0  0  0  0
  146.9189  139.0969  151.0879 H   0  0  0  0  0  0  0  0  0  0  0  0
  147.8065  138.0977  152.2119 H   0  0  0  0  0  0  0  0  0  0  0  0
  146.4624  136.7361  150.2038 H   0  0  0  0  0  0  0  0  0  0  0  0
  146.9705  135.8887  151.6515 H   0  0  0  0  0  0  0  0  0  0  0  0
  144.1529  135.9450  150.4458 H   0  0  0  0  0  0  0  0  0  0  0  0
  145.2381  134.5797  150.4539 H   0  0  0  0  0  0  0  0  0  0  0  0
  143.5010  134.3989  152.2640 H   0  0  0  0  0  0  0  0  0  0  0  0
  145.1287  134.4005  152.8930 H   0  0  0  0  0  0  0  0  0  0  0  0
  143.8711  135.8674  154.2847 H   0  0  0  0  0  0  0  0  0  0  0  0
  142.8919  137.4137  151.8436 H   0  0  0  0  0  0  0  0  0  0  0  0
  142.5512  137.7919  153.5269 H   0  0  0  0  0  0  0  0  0  0  0  0
  141.9345  136.3055  152.8203 H   0  0  0  0  0  0  0  0  0  0  0  0
  146.0993  136.6841  153.8949 H   0  0  0  0  0  0  0  0  0  0  0  0
  145.0194  138.0533  153.9634 H   0  0  0  0  0  0  0  0  0  0  0  0
  144.9850  138.0302  151.5484 H   0  0  0  0  0  0  0  0  0  0  0  0
  1  2  1  0  0  0  0
  1 22  1  0  0  0  0
  1 23  1  0  0  0  0
  1 24  1  0  0  0  0
  2  8  1  0  0  0  0
  2  3  2  0  0  0  0
  3  4  1  0  0  0  0
  4  5  1  0  0  0  0
  4  6  1  0  0  0  0
  5 25  1  0  0  0  0
  5 26  1  0  0  0  0
  5 27  1  0  0  0  0
  6  7  1  0  0  0  0
  6  8  2  0  0  0  0
  7 28  1  0  0  0  0
  7 29  1  0  0  0  0
  7 30  1  0  0  0  0
  8  9  1  0  0  0  0
  9 10  1  0  0  0  0
  9 31  1  0  0  0  0
  9 32  1  0  0  0  0
 10 11  2  0  0  0  0
 10 12  1  0  0  0  0
 12 13  1  0  0  0  0
 12 33  1  0  0  0  0
 13 14  1  0  0  0  0
 13 34  1  0  0  0  0
 13 35  1  0  0  0  0
 14 15  1  0  0  0  0
 14 36  1  0  0  0  0
 14 37  1  0  0  0  0
 15 21  1  0  0  0  0
 15 16  1  0  0  0  0
 15 50  1  0  0  0  0
 16 17  1  0  0  0  0
 16 38  1  0  0  0  0
 16 39  1  0  0  0  0
 17 18  1  0  0  0  0
 17 40  1  0  0  0  0
 17 41  1  0  0  0  0
 18 19  1  0  0  0  0
 18 42  1  0  0  0  0
 18 43  1  0  0  0  0
 19 20  1  0  0  0  0
 19 21  1  0  0  0  0
 19 44  1  0  0  0  0
 20 45  1  0  0  0  0
 20 46  1  0  0  0  0
 20 47  1  0  0  0  0
 21 48  1  0  0  0  0
 21 49  1  0  0  0  0
M  CHG  1  15   1
M  END
> <s_m_source_file>
AV-unprocessed.smi

> <i_m_source_file_index>
565

> <i_lp_mmshare_version>
43012

> <i_f3d_flags>
0

> <s_epik_input>
W0NIM11jMW5uKFtDSDNdKWMoW0NIM10pYzFbQ0gyXUMoPU8pW05IXVtDSDJdW0NIMl1OMltDSDJdW0NIMl1bQ0gyXVtDQEBIXShbQ0gzXSlbQ0gyXTI=

> <s_epik_cmdline>
J2VwaWtfcHl0aG9uJywgJy1waCcsICc3LjAnLCAnLXRuJywgJzgnLCAnLW1hJywgJzIwMCcsICctbWV0YWxfYmluZGluZycsICctaW1hZScsICc8aW5maWxlLm1hZT4nLCAnLW9tYWUnLCAnPG91dGZpbGUubWFlPic=

> <r_lp_tautomer_probability>
1

> <r_epik_Ionization_Penalty>
0.00411138

> <r_epik_Ionization_Penalty_Charging>
0.0019503

> <r_epik_Ionization_Penalty_Neutral>
0.00216107

> <r_epik_State_Penalty>
-0

> <r_epik_Charging_Adjusted_Penalty>
0.0019503

> <i_epik_Tot_Q>
1

> <i_epik_Tot_abs_Q>
1

> <r_epik_Metal_State_Penalty>
-0

> <b_epik_Metal_Only>
0

> <s_lp_Force_Field>
OPLS_2005

> <r_lp_Energy>
13.161

> <b_lp_Chiralities_Consistent>
1

> <s_lp_Variant>
AV-unprocessed.smi:565-3

> <Gold.Version>
5.8.1

> <Gold.Id.Protein>
6NUR|6NUR_protein|mol2

> <Gold.PLP.Fitness>
43.7466

> <Gold.PLP.PLP>
-38.6168

> <Gold.PLP.part.hbond>
-2.0000

> <Gold.PLP.part.metal>
0.0000

> <Gold.PLP.part.buried>
1.2964

> <Gold.PLP.part.nonpolar>
-36.7936

> <Gold.PLP.part.repulsive>
0.1842

> <Gold.PLP.ligand.clash>
0.0000

> <Gold.PLP.ligand.torsion>
0.4237

> <Gold.PLP.Chemscore.Hbond>
1.9600

> <Gold.PLP.Chemscore.CHOScore>
0.0000

> <Gold.PLP.Chemscore.Metal>
0.0000

> <Gold.Chemscore.Hbonds>
donor molecule, donor type, donor heavy atom, donor atom, acceptor molecule, acceptor atom, score
      L1  H    12    33       P1  7957  1.00
      L1  H    15    50       P1 10171  0.73

> <Gold.PLP.Chemscore.Internal.Correction>
0.0973

> <Gold.Rescore>
     Score         DG    S(hbond)    S(metal)    S(lipo)     H(rot)  DE(clash)    DE(int)     intcor
     18.48     -19.43       1.98        0.00      97.93       1.61       0.42       0.53       ----

> <Gold.Chemscore.Fitness>
18.4832

> <Gold.Chemscore.DG>
-19.4324

> <Gold.Chemscore.ZeroCoef>
-5.4800

> <Gold.Chemscore.Hbond>
1.9842

> <Gold.Chemscore.Metal>
0.0000

> <Gold.Chemscore.Lipo>
97.9274

> <Gold.Chemscore.Internal_Hbond>
0.0000

> <Gold.Chemscore.DEClash>
0.4171

> <Gold.Chemscore.DEInternal>
0.5321

> <Gold.Chemscore.Rot>
1.6142

> <Gold.Chemscore.Internal.Correction>
   9.000000E+99

> <Gold.Chemscore.Hbonds>
donor molecule, donor type, donor heavy atom, donor atom, acceptor molecule, acceptor atom, score
      L1  H    12    33       P1  7957  0.98
      L1  H    15    50       P1 10171  0.71

> <Gold.Chemscore.Hbond.Weighted>
-6.6273

> <Gold.Chemscore.Metal.Weighted>
-0.0000

> <Gold.Chemscore.Lipo.Weighted>
-11.4575

> <Gold.Chemscore.Internal_Hbond.Weighted>
0.0000

> <Gold.Chemscore.DEClash.Weighted>
0.4171

> <Gold.Chemscore.DEInternal.Weighted>
0.5321

> <Gold.Chemscore.Rot.Weighted>
4.1324

> <Gold.Chemscore.Internal.Correction.Weighted>
   9.000000E+99

> <Gold.Protein.RotatedTorsions>
[ 6907 6896 6895 6894 ] final   -7.35 input  -60.11 | X-H torsion
[ 7974 7965 7964 7962 ] final  134.18 input  175.53 | X-H torsion
[ 8008 7997 7996 7995 ] final   78.35 input   59.86 | X-H torsion
[ 10167 10162 10161 10158 ] final  119.02 input  -65.29 | X-H torsion
[ 10718 10713 10712 10709 ] final  -83.83 input   66.30 | X-H torsion
[ 10763 10752 10751 10750 ] final  -23.91 input  -60.55 | X-H torsion
[ 11005 11000 10999 10996 ] final  -38.36 input  -57.11 | X-H torsion

> <Gold.Protein.ActiveResidues>
 VAL166  LYS551  ARG553  GLY616  TRP617  ASP618  TYR619  PRO620  LYS621  CYS622 
 ASP623  PHE694  ASN695  SER759  ASP760  ASP761  ALA762  ILE779  LEU786  VAL792 
 PHE793  MET794  SER795  GLU796  ALA797  LYS798  CYS799  TRP800  GLU811  SER814 

> <Gold.Protein.RotatedAtoms>
  151.4510  135.1030  159.9697 H   0  0  0  0  0  0  0  0  0  0  0  0  # atno 6907 bound_to 6896
  152.4888  133.8440  159.7178 H   0  0  0  0  0  0  0  0  0  0  0  0  # atno 6908 bound_to 6896
  150.9022  133.7044  159.2903 H   0  0  0  0  0  0  0  0  0  0  0  0  # atno 6909 bound_to 6896
  144.9789  139.4525  143.5396 H   0  0  0  0  0  0  0  0  0  0  0  0  # atno 7974 bound_to 7965
  155.8544  140.3456  155.5715 H   0  0  0  0  0  0  0  0  0  0  0  0  # atno 8008 bound_to 7997
  155.8002  140.0884  157.1981 H   0  0  0  0  0  0  0  0  0  0  0  0  # atno 8009 bound_to 7997
  154.4009  140.1467  156.3253 H   0  0  0  0  0  0  0  0  0  0  0  0  # atno 8010 bound_to 7997
  139.6073  144.7073  151.2924 H   0  0  0  0  0  0  0  0  0  0  0  0  # atno 10167 bound_to 10162
  156.0013  130.4678  150.4316 H   0  0  0  0  0  0  0  0  0  0  0  0  # atno 10718 bound_to 10713
  153.6754  135.6969  153.5134 H   0  0  0  0  0  0  0  0  0  0  0  0  # atno 10763 bound_to 10752
  153.2525  135.4270  155.0812 H   0  0  0  0  0  0  0  0  0  0  0  0  # atno 10764 bound_to 10752
  154.8415  135.3535  154.6298 H   0  0  0  0  0  0  0  0  0  0  0  0  # atno 10765 bound_to 10752
  141.0022  133.6950  156.2043 H   0  0  0  0  0  0  0  0  0  0  0  0  # atno 11005 bound_to 11000
  146.3403  139.9049  142.8789 LP  0  0  0  0  0  0  0  0  0  0  0  0  # atno 17320 bound_to 7965
  145.2449  141.0023  143.3914 LP  0  0  0  0  0  0  0  0  0  0  0  0  # atno 17321 bound_to 7965
  140.7294  143.6908  150.7923 LP  0  0  0  0  0  0  0  0  0  0  0  0  # atno 17342 bound_to 10162
  140.0496  143.5263  152.2680 LP  0  0  0  0  0  0  0  0  0  0  0  0  # atno 17343 bound_to 10162
  157.2365  131.0516  151.2462 LP  0  0  0  0  0  0  0  0  0  0  0  0  # atno 17370 bound_to 10713
  157.3661  130.7157  149.6534 LP  0  0  0  0  0  0  0  0  0  0  0  0  # atno 17371 bound_to 10713
  140.6871  134.4705  157.5589 LP  0  0  0  0  0  0  0  0  0  0  0  0  # atno 17394 bound_to 11000
  139.9044  134.8481  156.1763 LP  0  0  0  0  0  0  0  0  0  0  0  0  # atno 17395 bound_to 11000

$$$$
