AV-unprocessed.smi:2804|AV-procd|sdf|10812|dock5
  -GOLD-   2272015253D 1   1.00000     0.00000
 Structure written by MMmdl.
 34 35  0  0  0  0  0  0  0  0  2 V2000
  148.7998  141.2456  154.9283 C   0  0  0  0  0  0  0  0  0  0  0  0
  149.8205  141.0462  156.0533 C   0  0  0  0  0  0  0  0  0  0  0  0
  150.6404  142.3149  156.3338 C   0  0  0  0  0  0  0  0  0  0  0  0
  151.6831  142.0640  157.3257 N   0  0  0  0  0  0  0  0  0  0  0  0
  152.6643  141.1345  157.2456 C   0  0  0  0  0  0  0  0  0  0  0  0
  152.8430  140.3599  156.3052 O   0  0  0  0  0  0  0  0  0  0  0  0
  153.4295  141.2280  158.3635 N   0  0  0  0  0  0  0  0  0  0  0  0
  154.6267  140.4318  158.6798 C   0  0  0  0  0  0  0  0  0  0  0  0
  154.8126  139.1710  157.7857 C   0  0  1  0  0  0  0  0  0  0  0  0
  155.4230  139.5587  156.6912 O   0  5  0  0  0  0  0  0  0  0  0  0
  155.7141  138.1176  158.4753 C   0  0  0  0  0  0  0  0  0  0  0  0
  155.9345  137.0872  157.6565 F   0  0  0  0  0  0  0  0  0  0  0  0
  156.8855  138.6382  158.8487 F   0  0  0  0  0  0  0  0  0  0  0  0
  155.1003  137.6472  159.5623 F   0  0  0  0  0  0  0  0  0  0  0  0
  152.9467  142.2881  159.1530 C   0  0  0  0  0  0  0  0  0  0  0  0
  153.4017  142.8143  160.3753 C   0  0  0  0  0  0  0  0  0  0  0  0
  152.6837  143.9041  160.9203 C   0  0  0  0  0  0  0  0  0  0  0  0
  151.5535  144.4377  160.2491 C   0  0  0  0  0  0  0  0  0  0  0  0
  151.1180  143.8922  159.0190 C   0  0  0  0  0  0  0  0  0  0  0  0
  151.8478  142.8075  158.5018 C   0  0  0  0  0  0  0  0  0  0  0  0
  148.2355  140.3304  154.7489 H   0  0  0  0  0  0  0  0  0  0  0  0
  149.2918  141.5216  153.9953 H   0  0  0  0  0  0  0  0  0  0  0  0
  148.0877  142.0322  155.1785 H   0  0  0  0  0  0  0  0  0  0  0  0
  149.2990  140.7379  156.9603 H   0  0  0  0  0  0  0  0  0  0  0  0
  150.4900  140.2270  155.7887 H   0  0  0  0  0  0  0  0  0  0  0  0
  151.0963  142.6822  155.4139 H   0  0  0  0  0  0  0  0  0  0  0  0
  149.9851  143.1138  156.6846 H   0  0  0  0  0  0  0  0  0  0  0  0
  155.5147  141.0656  158.6352 H   0  0  0  0  0  0  0  0  0  0  0  0
  154.5501  140.1279  159.7240 H   0  0  0  0  0  0  0  0  0  0  0  0
  153.8274  138.7060  157.7254 H   0  0  0  0  0  0  0  0  0  0  0  0
  154.2625  142.4035  160.8820 H   0  0  0  0  0  0  0  0  0  0  0  0
  153.0004  144.3348  161.8587 H   0  0  0  0  0  0  0  0  0  0  0  0
  151.0198  145.2710  160.6817 H   0  0  0  0  0  0  0  0  0  0  0  0
  150.2612  144.2969  158.5012 H   0  0  0  0  0  0  0  0  0  0  0  0
  1  2  1  0  0  0  0
  1 21  1  0  0  0  0
  1 22  1  0  0  0  0
  1 23  1  0  0  0  0
  2  3  1  0  0  0  0
  2 24  1  0  0  0  0
  2 25  1  0  0  0  0
  3  4  1  0  0  0  0
  3 26  1  0  0  0  0
  3 27  1  0  0  0  0
  4 20  1  0  0  0  0
  4  5  1  0  0  0  0
  5  6  2  0  0  0  0
  5  7  1  0  0  0  0
  7  8  1  0  0  0  0
  7 15  1  0  0  0  0
  8  9  1  0  0  0  0
  8 28  1  0  0  0  0
  8 29  1  0  0  0  0
  9 10  1  0  0  0  0
  9 11  1  0  0  0  0
  9 30  1  0  0  0  0
 11 12  1  0  0  0  0
 11 13  1  0  0  0  0
 11 14  1  0  0  0  0
 15 20  2  0  0  0  0
 15 16  1  0  0  0  0
 16 17  2  0  0  0  0
 16 31  1  0  0  0  0
 17 18  1  0  0  0  0
 17 32  1  0  0  0  0
 18 19  2  0  0  0  0
 18 33  1  0  0  0  0
 19 20  1  0  0  0  0
 19 34  1  0  0  0  0
M  CHG  1  10  -1
M  END
> <s_m_source_file>
AV-unprocessed.smi

> <i_m_source_file_index>
2804

> <i_lp_mmshare_version>
43012

> <i_f3d_flags>
0

> <s_epik_input>
W2NIXTFbY0hdW2NIXVtjSF1jKGMxMiluKFtDSDJdW0NIMl1bQ0gzXSljKD1PKW4yW0NIMl1bQ0BIXShbT0hdKUMoRikoRilG

> <s_epik_cmdline>
J2VwaWtfcHl0aG9uJywgJy1waCcsICc3LjAnLCAnLXRuJywgJzgnLCAnLW1hJywgJzIwMCcsICctbWV0YWxfYmluZGluZycsICctaW1hZScsICc8aW5maWxlLm1hZT4nLCAnLW9tYWUnLCAnPG91dGZpbGUubWFlPic=

> <r_epik_Ionization_Penalty>
2.32651

> <r_epik_Ionization_Penalty_Charging>
2.32651

> <r_epik_Ionization_Penalty_Neutral>
0

> <r_epik_State_Penalty>
2.47909

> <r_epik_Charging_Adjusted_Penalty>
4.8056

> <i_epik_Tot_Q>
-1

> <i_epik_Tot_abs_Q>
1

> <r_epik_Metal_State_Penalty>
2.47909

> <b_epik_Metal_Only>
0

> <s_lp_Force_Field>
OPLS_2005

> <r_lp_Energy>
44.9553

> <b_lp_Chiralities_Consistent>
1

> <s_lp_Variant>
AV-unprocessed.smi:2804-4

> <Gold.Version>
5.8.1

> <Gold.Id.Protein>
6NUR|6NUR_protein|mol2

> <Gold.PLP.Fitness>
49.0987

> <Gold.PLP.PLP>
-43.9996

> <Gold.PLP.part.hbond>
-2.0000

> <Gold.PLP.part.metal>
0.0000

> <Gold.PLP.part.buried>
-5.2308

> <Gold.PLP.part.nonpolar>
-36.6276

> <Gold.PLP.part.repulsive>
0.0000

> <Gold.PLP.ligand.clash>
0.5147

> <Gold.PLP.ligand.torsion>
0.4324

> <Gold.PLP.Chemscore.Hbond>
2.1421

> <Gold.PLP.Chemscore.CHOScore>
0.0000

> <Gold.PLP.Chemscore.Metal>
0.0000

> <Gold.Chemscore.Hbonds>
donor molecule, donor type, donor heavy atom, donor atom, acceptor molecule, acceptor atom, score
      P1  H  7997  8009       L1     6  0.75

> <Gold.PLP.Chemscore.Internal.Correction>
0.0524

> <Gold.Rescore>
     Score         DG    S(hbond)    S(metal)    S(lipo)     H(rot)  DE(clash)    DE(int)     intcor
     16.63     -18.64       1.60        0.00     104.30       1.72       0.02       1.99       ----

> <Gold.Chemscore.Fitness>
16.6273

> <Gold.Chemscore.DG>
-18.6372

> <Gold.Chemscore.ZeroCoef>
-5.4800

> <Gold.Chemscore.Hbond>
1.6028

> <Gold.Chemscore.Metal>
0.0000

> <Gold.Chemscore.Lipo>
104.3007

> <Gold.Chemscore.Internal_Hbond>
0.0000

> <Gold.Chemscore.DEClash>
0.0216

> <Gold.Chemscore.DEInternal>
1.9883

> <Gold.Chemscore.Rot>
1.7185

> <Gold.Chemscore.Internal.Correction>
   9.000000E+99

> <Gold.Chemscore.Hbonds>
donor molecule, donor type, donor heavy atom, donor atom, acceptor molecule, acceptor atom, score
      P1  H  7997  8009       L1     6  0.55

> <Gold.Chemscore.Hbond.Weighted>
-5.3533

> <Gold.Chemscore.Metal.Weighted>
-0.0000

> <Gold.Chemscore.Lipo.Weighted>
-12.2032

> <Gold.Chemscore.Internal_Hbond.Weighted>
0.0000

> <Gold.Chemscore.DEClash.Weighted>
0.0216

> <Gold.Chemscore.DEInternal.Weighted>
1.9883

> <Gold.Chemscore.Rot.Weighted>
4.3992

> <Gold.Chemscore.Internal.Correction.Weighted>
   9.000000E+99

> <Gold.Protein.RotatedTorsions>
[ 6907 6896 6895 6894 ] final  110.95 input  -60.11 | X-H torsion
[ 7974 7965 7964 7962 ] final   37.32 input  175.53 | X-H torsion
[ 8008 7997 7996 7995 ] final -141.98 input   59.86 | X-H torsion
[ 10167 10162 10161 10158 ] final   65.94 input  -65.29 | X-H torsion
[ 10718 10713 10712 10709 ] final -147.81 input   66.30 | X-H torsion
[ 10763 10752 10751 10750 ] final -125.17 input  -60.55 | X-H torsion
[ 11005 11000 10999 10996 ] final  -39.48 input  -57.11 | X-H torsion

> <Gold.Protein.ActiveResidues>
 VAL166  LYS551  ARG553  GLY616  TRP617  ASP618  TYR619  PRO620  LYS621  CYS622 
 ASP623  PHE694  ASN695  SER759  ASP760  ASP761  ALA762  ILE779  LEU786  VAL792 
 PHE793  MET794  SER795  GLU796  ALA797  LYS798  CYS799  TRP800  GLU811  SER814 

> <Gold.Protein.RotatedAtoms>
  152.4994  133.8727  159.7306 H   0  0  0  0  0  0  0  0  0  0  0  0  # atno 6907 bound_to 6896
  150.9209  133.6872  159.2839 H   0  0  0  0  0  0  0  0  0  0  0  0  # atno 6908 bound_to 6896
  151.4250  135.1007  159.9677 H   0  0  0  0  0  0  0  0  0  0  0  0  # atno 6909 bound_to 6896
  146.1146  139.5908  142.9330 H   0  0  0  0  0  0  0  0  0  0  0  0  # atno 7974 bound_to 7965
  155.4867  140.0564  157.2959 H   0  0  0  0  0  0  0  0  0  0  0  0  # atno 8008 bound_to 7997
  154.4639  140.2009  156.0122 H   0  0  0  0  0  0  0  0  0  0  0  0  # atno 8009 bound_to 7997
  156.0939  140.3229  155.7857 H   0  0  0  0  0  0  0  0  0  0  0  0  # atno 8010 bound_to 7997
  140.1059  144.4862  150.7008 H   0  0  0  0  0  0  0  0  0  0  0  0  # atno 10167 bound_to 10162
  156.4122  130.7987  151.2205 H   0  0  0  0  0  0  0  0  0  0  0  0  # atno 10718 bound_to 10713
  154.8733  135.4038  154.3225 H   0  0  0  0  0  0  0  0  0  0  0  0  # atno 10763 bound_to 10752
  153.4051  135.7019  153.6404 H   0  0  0  0  0  0  0  0  0  0  0  0  # atno 10764 bound_to 10752
  153.5130  135.3703  155.2566 H   0  0  0  0  0  0  0  0  0  0  0  0  # atno 10765 bound_to 10752
  141.0105  133.6910  156.2192 H   0  0  0  0  0  0  0  0  0  0  0  0  # atno 11005 bound_to 11000
  145.5593  141.0406  143.2235 LP  0  0  0  0  0  0  0  0  0  0  0  0  # atno 17320 bound_to 7965
  144.7542  139.7117  143.7261 LP  0  0  0  0  0  0  0  0  0  0  0  0  # atno 17321 bound_to 7965
  140.6953  143.2400  151.5019 LP  0  0  0  0  0  0  0  0  0  0  0  0  # atno 17342 bound_to 10162
  139.5646  144.2074  152.1744 LP  0  0  0  0  0  0  0  0  0  0  0  0  # atno 17343 bound_to 10162
  157.7507  131.0254  150.3917 LP  0  0  0  0  0  0  0  0  0  0  0  0  # atno 17370 bound_to 10713
  156.4217  130.3954  149.6820 LP  0  0  0  0  0  0  0  0  0  0  0  0  # atno 17371 bound_to 10713
  140.6742  134.4836  157.5588 LP  0  0  0  0  0  0  0  0  0  0  0  0  # atno 17394 bound_to 11000
  139.9087  134.8392  156.1608 LP  0  0  0  0  0  0  0  0  0  0  0  0  # atno 17395 bound_to 11000

$$$$
