AV-unprocessed.smi:1158|AV-procd|sdf|4913|dock6
  -GOLD-   22720 3493D 1   1.00000     0.00000
 Structure written by MMmdl.
 43 44  0  0  0  0  0  0  0  0  2 V2000
  151.7714  138.2915  154.4735 C   0  0  0  0  0  0  0  0  0  0  0  0
  150.4005  138.2665  154.0914 O   0  0  0  0  0  0  0  0  0  0  0  0
  149.6469  139.4125  154.2617 C   0  0  0  0  0  0  0  0  0  0  0  0
  150.2442  140.5024  154.8055 N   0  0  0  0  0  0  0  0  0  0  0  0
  149.5083  141.6194  154.9778 C   0  0  0  0  0  0  0  0  0  0  0  0
  148.1486  141.7074  154.6279 C   0  0  0  0  0  0  0  0  0  0  0  0
  147.5269  140.5789  154.0623 C   0  0  0  0  0  0  0  0  0  0  0  0
  148.2901  139.4029  153.8611 C   0  0  0  0  0  0  0  0  0  0  0  0
  147.7649  138.1995  153.3138 N   0  0  0  0  0  0  0  0  0  0  0  0
  146.4893  137.7815  153.2608 C   0  0  0  0  0  0  0  0  0  0  0  0
  145.5173  138.3879  153.7097 O   0  0  0  0  0  0  0  0  0  0  0  0
  146.3975  136.6007  152.6330 N   0  0  0  0  0  0  0  0  0  0  0  0
  145.1578  135.8690  152.3749 C   0  0  2  0  0  0  0  0  0  0  0  0
  144.8971  134.7822  153.4351 C   0  0  0  0  0  0  0  0  0  0  0  0
  145.9027  133.6229  153.3265 C   0  0  0  0  0  0  0  0  0  0  0  0
  145.9002  133.0246  151.9654 N   0  3  2  0  0  0  0  0  0  0  0  0
  146.7765  131.8257  151.8909 C   0  0  0  0  0  0  0  0  0  0  0  0
  146.1633  130.5755  152.5462 C   0  0  0  0  0  0  0  0  0  0  0  0
  145.3040  129.9602  151.7351 F   0  0  0  0  0  0  0  0  0  0  0  0
  147.1343  129.7175  152.8561 F   0  0  0  0  0  0  0  0  0  0  0  0
  146.1945  134.0430  150.9215 C   0  0  0  0  0  0  0  0  0  0  0  0
  145.2018  135.2195  150.9824 C   0  0  0  0  0  0  0  0  0  0  0  0
  152.2171  137.3159  154.2804 H   0  0  0  0  0  0  0  0  0  0  0  0
  151.8857  138.5018  155.5380 H   0  0  0  0  0  0  0  0  0  0  0  0
  152.3321  139.0307  153.8997 H   0  0  0  0  0  0  0  0  0  0  0  0
  150.0175  142.4660  155.4140 H   0  0  0  0  0  0  0  0  0  0  0  0
  147.5934  142.6186  154.7941 H   0  0  0  0  0  0  0  0  0  0  0  0
  146.4797  140.6363  153.8102 H   0  0  0  0  0  0  0  0  0  0  0  0
  148.4403  137.6192  152.8383 H   0  0  0  0  0  0  0  0  0  0  0  0
  147.2504  136.1860  152.2869 H   0  0  0  0  0  0  0  0  0  0  0  0
  144.3346  136.5855  152.3911 H   0  0  0  0  0  0  0  0  0  0  0  0
  144.9237  135.2079  154.4389 H   0  0  0  0  0  0  0  0  0  0  0  0
  143.8876  134.3906  153.3034 H   0  0  0  0  0  0  0  0  0  0  0  0
  146.9081  133.9689  153.5719 H   0  0  0  0  0  0  0  0  0  0  0  0
  145.6438  132.8624  154.0641 H   0  0  0  0  0  0  0  0  0  0  0  0
  147.0642  131.6247  150.8579 H   0  0  0  0  0  0  0  0  0  0  0  0
  147.7006  132.0492  152.4261 H   0  0  0  0  0  0  0  0  0  0  0  0
  145.6418  130.8132  153.4739 H   0  0  0  0  0  0  0  0  0  0  0  0
  147.2180  134.4024  151.0394 H   0  0  0  0  0  0  0  0  0  0  0  0
  146.1293  133.5989  149.9303 H   0  0  0  0  0  0  0  0  0  0  0  0
  144.2054  134.8575  150.7251 H   0  0  0  0  0  0  0  0  0  0  0  0
  145.4563  135.9636  150.2264 H   0  0  0  0  0  0  0  0  0  0  0  0
  144.9570  132.7014  151.8026 H   0  0  0  0  0  0  0  0  0  0  0  0
  1  2  1  0  0  0  0
  1 23  1  0  0  0  0
  1 24  1  0  0  0  0
  1 25  1  0  0  0  0
  2  3  1  0  0  0  0
  3  8  1  0  0  0  0
  3  4  2  0  0  0  0
  4  5  1  0  0  0  0
  5  6  2  0  0  0  0
  5 26  1  0  0  0  0
  6  7  1  0  0  0  0
  6 27  1  0  0  0  0
  7  8  2  0  0  0  0
  7 28  1  0  0  0  0
  8  9  1  0  0  0  0
  9 10  1  0  0  0  0
  9 29  1  0  0  0  0
 10 11  2  0  0  0  0
 10 12  1  0  0  0  0
 12 13  1  0  0  0  0
 12 30  1  0  0  0  0
 13 22  1  0  0  0  0
 13 14  1  0  0  0  0
 13 31  1  0  0  0  0
 14 15  1  0  0  0  0
 14 32  1  0  0  0  0
 14 33  1  0  0  0  0
 15 16  1  0  0  0  0
 15 34  1  0  0  0  0
 15 35  1  0  0  0  0
 16 17  1  0  0  0  0
 16 21  1  0  0  0  0
 16 43  1  0  0  0  0
 17 18  1  0  0  0  0
 17 36  1  0  0  0  0
 17 37  1  0  0  0  0
 18 19  1  0  0  0  0
 18 20  1  0  0  0  0
 18 38  1  0  0  0  0
 21 22  1  0  0  0  0
 21 39  1  0  0  0  0
 21 40  1  0  0  0  0
 22 41  1  0  0  0  0
 22 42  1  0  0  0  0
M  CHG  1  16   1
M  END
> <s_m_source_file>
AV-unprocessed.smi

> <i_m_source_file_index>
1158

> <i_lp_mmshare_version>
43012

> <i_f3d_flags>
0

> <s_epik_input>
W0NIM11PYzFuW2NIXVtjSF1bY0hdYzFbTkhdQyg9TylbTkhdW0NIXTJbQ0gyXVtDSDJdTihbQ0gyXVtDSF0oRilGKVtDSDJdW0NIMl0y

> <s_epik_cmdline>
J2VwaWtfcHl0aG9uJywgJy1waCcsICc3LjAnLCAnLXRuJywgJzgnLCAnLW1hJywgJzIwMCcsICctbWV0YWxfYmluZGluZycsICctaW1hZScsICc8aW5maWxlLm1hZT4nLCAnLW9tYWUnLCAnPG91dGZpbGUubWFlPic=

> <r_lp_tautomer_probability>
1

> <r_epik_Ionization_Penalty>
0.802109

> <r_epik_Ionization_Penalty_Charging>
0.802031

> <r_epik_Ionization_Penalty_Neutral>
7.83352e-05

> <r_epik_State_Penalty>
0.833408

> <r_epik_Charging_Adjusted_Penalty>
1.63544

> <i_epik_Tot_Q>
1

> <i_epik_Tot_abs_Q>
1

> <r_epik_Metal_State_Penalty>
0.833416

> <b_epik_Metal_Only>
0

> <s_lp_Force_Field>
OPLS_2005

> <r_lp_Energy>
20.396

> <b_lp_Chiralities_Consistent>
1

> <s_lp_Variant>
AV-unprocessed.smi:1158-3

> <Gold.Version>
5.8.1

> <Gold.Id.Protein>
6NUR|6NUR_protein|mol2

> <Gold.PLP.Fitness>
44.2893

> <Gold.PLP.PLP>
-34.5113

> <Gold.PLP.part.hbond>
-3.0000

> <Gold.PLP.part.metal>
0.0000

> <Gold.PLP.part.buried>
-1.9067

> <Gold.PLP.part.nonpolar>
-30.3544

> <Gold.PLP.part.repulsive>
1.2704

> <Gold.PLP.ligand.clash>
0.0000

> <Gold.PLP.ligand.torsion>
0.8161

> <Gold.PLP.Chemscore.Hbond>
2.9600

> <Gold.PLP.Chemscore.CHOScore>
0.8346

> <Gold.PLP.Chemscore.Metal>
0.0000

> <Gold.Chemscore.Hbonds>
donor molecule, donor type, donor heavy atom, donor atom, acceptor molecule, acceptor atom, score
      L1  H     9    29       P1  7948  1.00
      L1  H    12    30       P1  7948  1.00
      P1  H  7989  7998       L1     4  0.96
      L1  C     5    26       P1  8028  0.83

> <Gold.PLP.Chemscore.Internal.Correction>
0.0264

> <Gold.Rescore>
     Score         DG    S(hbond)    S(metal)    S(lipo)     H(rot)  DE(clash)    DE(int)     intcor
     14.74     -17.06       2.24        0.00      69.60       1.58       0.47       1.84       ----

> <Gold.Chemscore.Fitness>
14.7424

> <Gold.Chemscore.DG>
-17.0564

> <Gold.Chemscore.ZeroCoef>
-5.4800

> <Gold.Chemscore.Hbond>
2.2368

> <Gold.Chemscore.Metal>
0.0000

> <Gold.Chemscore.Lipo>
69.5958

> <Gold.Chemscore.Internal_Hbond>
0.0000

> <Gold.Chemscore.DEClash>
0.4746

> <Gold.Chemscore.DEInternal>
1.8394

> <Gold.Chemscore.Rot>
1.5770

> <Gold.Chemscore.Internal.Correction>
   9.000000E+99

> <Gold.Chemscore.Hbonds>
donor molecule, donor type, donor heavy atom, donor atom, acceptor molecule, acceptor atom, score
      L1  H     9    29       P1  7948  0.99
      L1  H    12    30       P1  7948  0.98
      P1  H  7989  7998       L1     4  0.21

> <Gold.Chemscore.Hbond.Weighted>
-7.4708

> <Gold.Chemscore.Metal.Weighted>
-0.0000

> <Gold.Chemscore.Lipo.Weighted>
-8.1427

> <Gold.Chemscore.Internal_Hbond.Weighted>
0.0000

> <Gold.Chemscore.DEClash.Weighted>
0.4746

> <Gold.Chemscore.DEInternal.Weighted>
1.8394

> <Gold.Chemscore.Rot.Weighted>
4.0371

> <Gold.Chemscore.Internal.Correction.Weighted>
   9.000000E+99

> <Gold.Protein.RotatedTorsions>
[ 6907 6896 6895 6894 ] final -155.37 input  -60.11 | X-H torsion
[ 7974 7965 7964 7962 ] final  -23.32 input  175.53 | X-H torsion
[ 8008 7997 7996 7995 ] final  -30.69 input   59.86 | X-H torsion
[ 10167 10162 10161 10158 ] final   69.94 input  -65.29 | X-H torsion
[ 10718 10713 10712 10709 ] final  -23.77 input   66.30 | X-H torsion
[ 10763 10752 10751 10750 ] final -124.49 input  -60.55 | X-H torsion
[ 11005 11000 10999 10996 ] final   51.24 input  -57.11 | X-H torsion

> <Gold.Protein.ActiveResidues>
 VAL166  LYS551  ARG553  GLY616  TRP617  ASP618  TYR619  PRO620  LYS621  CYS622 
 ASP623  PHE694  ASN695  SER759  ASP760  ASP761  ALA762  ILE779  LEU786  VAL792 
 PHE793  MET794  SER795  GLU796  ALA797  LYS798  CYS799  TRP800  GLU811  SER814 

> <Gold.Protein.RotatedAtoms>
  151.2714  133.4253  159.2621 H   0  0  0  0  0  0  0  0  0  0  0  0  # atno 6907 bound_to 6896
  151.0441  134.9628  159.8187 H   0  0  0  0  0  0  0  0  0  0  0  0  # atno 6908 bound_to 6896
  152.5371  134.2671  159.9010 H   0  0  0  0  0  0  0  0  0  0  0  0  # atno 6909 bound_to 6896
  146.1623  140.4600  142.8566 H   0  0  0  0  0  0  0  0  0  0  0  0  # atno 7974 bound_to 7965
  154.4241  140.1784  156.1447 H   0  0  0  0  0  0  0  0  0  0  0  0  # atno 8008 bound_to 7997
  155.9964  140.3364  155.6778 H   0  0  0  0  0  0  0  0  0  0  0  0  # atno 8009 bound_to 7997
  155.6303  140.0669  157.2641 H   0  0  0  0  0  0  0  0  0  0  0  0  # atno 8010 bound_to 7997
  140.0624  144.5222  150.7285 H   0  0  0  0  0  0  0  0  0  0  0  0  # atno 10167 bound_to 10162
  156.4866  130.4557  149.6780 H   0  0  0  0  0  0  0  0  0  0  0  0  # atno 10718 bound_to 10713
  154.8724  135.4062  154.3114 H   0  0  0  0  0  0  0  0  0  0  0  0  # atno 10763 bound_to 10752
  153.3957  135.7016  153.6468 H   0  0  0  0  0  0  0  0  0  0  0  0  # atno 10764 bound_to 10752
  153.5232  135.3683  155.2612 H   0  0  0  0  0  0  0  0  0  0  0  0  # atno 10765 bound_to 10752
  140.0949  134.5159  155.8817 H   0  0  0  0  0  0  0  0  0  0  0  0  # atno 11005 bound_to 11000
  144.8044  140.6272  143.6457 LP  0  0  0  0  0  0  0  0  0  0  0  0  # atno 17320 bound_to 7965
  145.4557  139.1518  143.3894 LP  0  0  0  0  0  0  0  0  0  0  0  0  # atno 17321 bound_to 7965
  140.7165  143.2549  151.4416 LP  0  0  0  0  0  0  0  0  0  0  0  0  # atno 17342 bound_to 10162
  139.5886  144.1550  152.2060 LP  0  0  0  0  0  0  0  0  0  0  0  0  # atno 17343 bound_to 10162
  156.3468  130.7411  151.2365 LP  0  0  0  0  0  0  0  0  0  0  0  0  # atno 17370 bound_to 10713
  157.7478  131.0388  150.4520 LP  0  0  0  0  0  0  0  0  0  0  0  0  # atno 17371 bound_to 10713
  141.2089  133.6678  156.6402 LP  0  0  0  0  0  0  0  0  0  0  0  0  # atno 17394 bound_to 11000
  140.3300  134.7936  157.4319 LP  0  0  0  0  0  0  0  0  0  0  0  0  # atno 17395 bound_to 11000

$$$$
