AV-unprocessed.smi:447|AV-procd|sdf|2597|dock2
  -GOLD-   2262022593D 1   1.00000     0.00000
 Structure written by MMmdl.
 45 47  0  0  0  0  0  0  0  0  1 V2000
  153.8954  137.1773  162.4101 C   0  0  0  0  0  0  0  0  0  0  0  0
  153.2943  137.3074  161.0149 C   0  0  0  0  0  0  0  0  0  0  0  0
  153.0671  136.3007  160.3455 O   0  0  0  0  0  0  0  0  0  0  0  0
  153.0419  138.5561  160.5935 N   0  0  0  0  0  0  0  0  0  0  0  0
  152.4522  138.9191  159.3042 C   0  0  2  0  0  0  0  0  0  0  0  0
  153.3247  138.3694  158.1678 C   0  0  0  0  0  0  0  0  0  0  0  0
  152.3062  140.4203  159.2224 C   0  0  0  0  0  0  0  0  0  0  0  0
  152.6433  141.2312  160.2307 N   0  0  0  0  0  0  0  0  0  0  0  0
  152.3673  142.4854  159.7260 C   0  0  0  0  0  0  0  0  0  0  0  0
  152.4972  143.7625  160.3172 C   0  0  0  0  0  0  0  0  0  0  0  0
  152.1514  144.9223  159.5931 C   0  0  0  0  0  0  0  0  0  0  0  0
  151.6741  144.8217  158.2701 C   0  0  0  0  0  0  0  0  0  0  0  0
  151.5394  143.5585  157.6625 C   0  0  0  0  0  0  0  0  0  0  0  0
  151.8831  142.4040  158.3912 C   0  0  0  0  0  0  0  0  0  0  0  0
  151.8714  141.0448  158.0956 N   0  0  0  0  0  0  0  0  0  0  0  0
  151.4757  140.4618  156.8192 C   0  0  0  0  0  0  0  0  0  0  0  0
  150.1188  139.7338  156.8888 C   0  0  2  0  0  0  0  0  0  0  0  0
  150.3193  138.3463  157.0697 O   0  0  0  0  0  0  0  0  0  0  0  0
  149.2697  140.0357  155.6641 C   0  0  0  0  0  0  0  0  0  0  0  0
  148.7490  138.9779  154.8878 C   0  0  0  0  0  0  0  0  0  0  0  0
  147.9553  139.2515  153.7566 C   0  0  0  0  0  0  0  0  0  0  0  0
  147.6762  140.5840  153.3967 C   0  0  0  0  0  0  0  0  0  0  0  0
  148.1892  141.6432  154.1696 C   0  0  0  0  0  0  0  0  0  0  0  0
  148.9825  141.3702  155.3009 C   0  0  0  0  0  0  0  0  0  0  0  0
  153.3154  137.7522  163.1328 H   0  0  0  0  0  0  0  0  0  0  0  0
  154.9217  137.5458  162.4166 H   0  0  0  0  0  0  0  0  0  0  0  0
  153.9039  136.1354  162.7327 H   0  0  0  0  0  0  0  0  0  0  0  0
  153.2555  139.3169  161.2217 H   0  0  0  0  0  0  0  0  0  0  0  0
  151.4696  138.4509  159.2418 H   0  0  0  0  0  0  0  0  0  0  0  0
  152.8950  138.6071  157.1943 H   0  0  0  0  0  0  0  0  0  0  0  0
  153.4149  137.2847  158.2316 H   0  0  0  0  0  0  0  0  0  0  0  0
  154.3299  138.7914  158.1983 H   0  0  0  0  0  0  0  0  0  0  0  0
  152.8632  143.8495  161.3294 H   0  0  0  0  0  0  0  0  0  0  0  0
  152.2541  145.8934  160.0547 H   0  0  0  0  0  0  0  0  0  0  0  0
  151.4122  145.7149  157.7220 H   0  0  0  0  0  0  0  0  0  0  0  0
  151.1747  143.4777  156.6493 H   0  0  0  0  0  0  0  0  0  0  0  0
  151.4193  141.2692  156.0879 H   0  0  0  0  0  0  0  0  0  0  0  0
  152.2578  139.7950  156.4583 H   0  0  0  0  0  0  0  0  0  0  0  0
  149.5798  140.0829  157.7707 H   0  0  0  0  0  0  0  0  0  0  0  0
  150.7849  138.2127  157.8811 H   0  0  0  0  0  0  0  0  0  0  0  0
  148.9555  137.9524  155.1573 H   0  0  0  0  0  0  0  0  0  0  0  0
  147.5595  138.4388  153.1653 H   0  0  0  0  0  0  0  0  0  0  0  0
  147.0673  140.7938  152.5295 H   0  0  0  0  0  0  0  0  0  0  0  0
  147.9735  142.6656  153.8957 H   0  0  0  0  0  0  0  0  0  0  0  0
  149.3684  142.1892  155.8905 H   0  0  0  0  0  0  0  0  0  0  0  0
  1  2  1  0  0  0  0
  1 25  1  0  0  0  0
  1 26  1  0  0  0  0
  1 27  1  0  0  0  0
  2  3  2  0  0  0  0
  2  4  1  0  0  0  0
  4  5  1  0  0  0  0
  4 28  1  0  0  0  0
  5  6  1  0  0  0  0
  5  7  1  0  0  0  0
  5 29  1  0  0  0  0
  6 30  1  0  0  0  0
  6 31  1  0  0  0  0
  6 32  1  0  0  0  0
  7 15  1  0  0  0  0
  7  8  2  0  0  0  0
  8  9  1  0  0  0  0
  9 14  2  0  0  0  0
  9 10  1  0  0  0  0
 10 11  2  0  0  0  0
 10 33  1  0  0  0  0
 11 12  1  0  0  0  0
 11 34  1  0  0  0  0
 12 13  2  0  0  0  0
 12 35  1  0  0  0  0
 13 14  1  0  0  0  0
 13 36  1  0  0  0  0
 14 15  1  0  0  0  0
 15 16  1  0  0  0  0
 16 17  1  0  0  0  0
 16 37  1  0  0  0  0
 16 38  1  0  0  0  0
 17 18  1  0  0  0  0
 17 19  1  0  0  0  0
 17 39  1  0  0  0  0
 18 40  1  0  0  0  0
 19 24  1  0  0  0  0
 19 20  2  0  0  0  0
 20 21  1  0  0  0  0
 20 41  1  0  0  0  0
 21 22  2  0  0  0  0
 21 42  1  0  0  0  0
 22 23  1  0  0  0  0
 22 43  1  0  0  0  0
 23 24  2  0  0  0  0
 23 44  1  0  0  0  0
 24 45  1  0  0  0  0
M  END
> <s_m_source_file>
AV-unprocessed.smi

> <i_m_source_file_index>
447

> <i_lp_mmshare_version>
43012

> <i_f3d_flags>
0

> <s_epik_input>
W0NIM11DKD1PKVtOSF1bQ0BIXShbQ0gzXSljKG4xKW4oYyhjMTIpW2NIXVtjSF1bY0hdW2NIXTIpW0NIMl1bQ0BIXShbT0hdKWMzW2NIXVtjSF1bY0hdW2NIXVtjSF0z

> <s_epik_cmdline>
J2VwaWtfcHl0aG9uJywgJy1waCcsICc3LjAnLCAnLXRuJywgJzgnLCAnLW1hJywgJzIwMCcsICctbWV0YWxfYmluZGluZycsICctaW1hZScsICc8aW5maWxlLm1hZT4nLCAnLW9tYWUnLCAnPG91dGZpbGUubWFlPic=

> <r_epik_Ionization_Penalty>
0.13301

> <r_epik_Ionization_Penalty_Charging>
0

> <r_epik_Ionization_Penalty_Neutral>
0.13301

> <r_epik_State_Penalty>
0.122384

> <r_epik_Charging_Adjusted_Penalty>
0.122384

> <i_epik_Tot_Q>
0

> <i_epik_Tot_abs_Q>
0

> <r_epik_Metal_State_Penalty>
0.0997374

> <b_epik_Metal_Only>
0

> <s_lp_Force_Field>
OPLS_2005

> <r_lp_Energy>
7.61604

> <b_lp_Chiralities_Consistent>
1

> <s_lp_Variant>
AV-unprocessed.smi:447-1

> <Gold.Version>
5.8.1

> <Gold.Id.Protein>
6NUR|6NUR_protein|mol2

> <Gold.PLP.Fitness>
47.8226

> <Gold.PLP.PLP>
-46.1904

> <Gold.PLP.part.hbond>
-1.0000

> <Gold.PLP.part.metal>
0.0000

> <Gold.PLP.part.buried>
-3.6833

> <Gold.PLP.part.nonpolar>
-40.6918

> <Gold.PLP.part.repulsive>
0.0584

> <Gold.PLP.ligand.clash>
0.0000

> <Gold.PLP.ligand.torsion>
0.7593

> <Gold.PLP.Chemscore.Hbond>
1.0000

> <Gold.PLP.Chemscore.CHOScore>
0.0000

> <Gold.PLP.Chemscore.Metal>
0.0000

> <Gold.Chemscore.Hbonds>
donor molecule, donor type, donor heavy atom, donor atom, acceptor molecule, acceptor atom, score
      P1  H  6896  6908       L1     3  1.00

> <Gold.PLP.Chemscore.Internal.Correction>
0.1507

> <Gold.Rescore>
     Score         DG    S(hbond)    S(metal)    S(lipo)     H(rot)  DE(clash)    DE(int)     intcor
     17.42     -18.40       1.00        0.00     133.38       2.35       0.16       0.82       ----

> <Gold.Chemscore.Fitness>
17.4202

> <Gold.Chemscore.DG>
-18.4022

> <Gold.Chemscore.ZeroCoef>
-5.4800

> <Gold.Chemscore.Hbond>
1.0000

> <Gold.Chemscore.Metal>
0.0000

> <Gold.Chemscore.Lipo>
133.3791

> <Gold.Chemscore.Internal_Hbond>
0.0000

> <Gold.Chemscore.DEClash>
0.1590

> <Gold.Chemscore.DEInternal>
0.8231

> <Gold.Chemscore.Rot>
2.3528

> <Gold.Chemscore.Internal.Correction>
   9.000000E+99

> <Gold.Chemscore.Hbonds>
donor molecule, donor type, donor heavy atom, donor atom, acceptor molecule, acceptor atom, score
      P1  H  6896  6908       L1     3  1.00

> <Gold.Chemscore.Hbond.Weighted>
-3.3400

> <Gold.Chemscore.Metal.Weighted>
-0.0000

> <Gold.Chemscore.Lipo.Weighted>
-15.6054

> <Gold.Chemscore.Internal_Hbond.Weighted>
0.0000

> <Gold.Chemscore.DEClash.Weighted>
0.1590

> <Gold.Chemscore.DEInternal.Weighted>
0.8231

> <Gold.Chemscore.Rot.Weighted>
6.0231

> <Gold.Chemscore.Internal.Correction.Weighted>
   9.000000E+99

> <Gold.Protein.RotatedTorsions>
[ 6907 6896 6895 6894 ] final  -89.13 input  -60.11 | X-H torsion
[ 7974 7965 7964 7962 ] final   80.06 input  175.53 | X-H torsion
[ 8008 7997 7996 7995 ] final  113.03 input   59.86 | X-H torsion
[ 10167 10162 10161 10158 ] final -135.17 input  -65.29 | X-H torsion
[ 10718 10713 10712 10709 ] final   89.33 input   66.30 | X-H torsion
[ 10763 10752 10751 10750 ] final -159.45 input  -60.55 | X-H torsion
[ 11005 11000 10999 10996 ] final -161.06 input  -57.11 | X-H torsion

> <Gold.Protein.ActiveResidues>
 VAL166  LYS551  ARG553  GLY616  TRP617  ASP618  TYR619  PRO620  LYS621  CYS622 
 ASP623  PHE694  ASN695  SER759  ASP760  ASP761  ALA762  ILE779  LEU786  VAL792 
 PHE793  MET794  SER795  GLU796  ALA797  LYS798  CYS799  TRP800  GLU811  SER814 

> <Gold.Protein.RotatedAtoms>
  150.6872  134.2634  159.4558 H   0  0  0  0  0  0  0  0  0  0  0  0  # atno 6907 bound_to 6896
  152.0562  134.9620  160.0584 H   0  0  0  0  0  0  0  0  0  0  0  0  # atno 6908 bound_to 6896
  152.1065  133.4243  159.4648 H   0  0  0  0  0  0  0  0  0  0  0  0  # atno 6909 bound_to 6896
  145.6561  139.2459  143.1949 H   0  0  0  0  0  0  0  0  0  0  0  0  # atno 7974 bound_to 7965
  156.2232  140.2987  156.0002 H   0  0  0  0  0  0  0  0  0  0  0  0  # atno 8008 bound_to 7997
  155.2427  140.0423  157.2994 H   0  0  0  0  0  0  0  0  0  0  0  0  # atno 8009 bound_to 7997
  154.5873  140.2392  155.7977 H   0  0  0  0  0  0  0  0  0  0  0  0  # atno 8010 bound_to 7997
  139.8806  143.6844  152.2627 H   0  0  0  0  0  0  0  0  0  0  0  0  # atno 10167 bound_to 10162
  157.6954  131.0329  150.3409 H   0  0  0  0  0  0  0  0  0  0  0  0  # atno 10718 bound_to 10713
  154.7473  135.3083  154.8621 H   0  0  0  0  0  0  0  0  0  0  0  0  # atno 10763 bound_to 10752
  153.9418  135.6774  153.4748 H   0  0  0  0  0  0  0  0  0  0  0  0  # atno 10764 bound_to 10752
  153.1069  135.4885  154.8895 H   0  0  0  0  0  0  0  0  0  0  0  0  # atno 10765 bound_to 10752
  140.6246  134.4715  157.5226 H   0  0  0  0  0  0  0  0  0  0  0  0  # atno 11005 bound_to 11000
  146.1163  140.7365  142.9479 LP  0  0  0  0  0  0  0  0  0  0  0  0  # atno 17320 bound_to 7965
  144.7105  140.4021  143.7084 LP  0  0  0  0  0  0  0  0  0  0  0  0  # atno 17321 bound_to 7965
  139.7200  144.7604  151.0971 LP  0  0  0  0  0  0  0  0  0  0  0  0  # atno 17342 bound_to 10162
  140.7745  143.5220  150.9525 LP  0  0  0  0  0  0  0  0  0  0  0  0  # atno 17343 bound_to 10162
  156.3870  130.3891  149.7058 LP  0  0  0  0  0  0  0  0  0  0  0  0  # atno 17370 bound_to 10713
  156.4421  130.7866  151.2887 LP  0  0  0  0  0  0  0  0  0  0  0  0  # atno 17371 bound_to 10713
  139.9140  134.8285  156.1430 LP  0  0  0  0  0  0  0  0  0  0  0  0  # atno 17394 bound_to 11000
  141.0719  133.6793  156.2157 LP  0  0  0  0  0  0  0  0  0  0  0  0  # atno 17395 bound_to 11000

$$$$
