AV-unprocessed.smi:1565|AV-procd|sdf|6299|dock2
  -GOLD-   22720 6493D 1   1.00000     0.00000
 Structure written by MMmdl.
 40 41  0  0  0  0  0  0  0  0  1 V2000
  144.9628  135.9037  151.3257 C   0  0  0  0  0  0  0  0  0  0  0  0
  145.6628  134.5413  151.2844 C   0  0  1  0  0  0  0  0  0  0  0  0
  146.4810  134.2787  152.5614 C   0  0  0  0  0  0  0  0  0  0  0  0
  147.0259  132.9252  152.5459 N   0  0  0  0  0  0  0  0  0  0  0  0
  148.0520  132.6688  153.4802 C   0  0  0  0  0  0  0  0  0  0  0  0
  148.6639  131.3943  153.5309 C   0  0  0  0  0  0  0  0  0  0  0  0
  149.6895  131.1607  154.4669 C   0  0  0  0  0  0  0  0  0  0  0  0
  150.0866  132.2051  155.3276 C   0  0  0  0  0  0  0  0  0  0  0  0
  151.1618  131.9851  156.3522 C   0  0  0  0  0  0  0  0  0  0  0  0
  151.0904  132.5107  157.4632 O   0  0  0  0  0  0  0  0  0  0  0  0
  152.1453  131.1454  155.9912 N   0  0  0  0  0  0  0  0  0  0  0  0
  153.2605  130.7428  156.8420 C   0  0  0  0  0  0  0  0  0  0  0  0
  154.2577  129.8404  156.0958 C   0  0  0  0  0  0  0  0  0  0  0  0
  153.5835  128.9205  155.4071 F   0  0  0  0  0  0  0  0  0  0  0  0
  154.9984  130.5498  155.2446 F   0  0  0  0  0  0  0  0  0  0  0  0
  155.0580  129.2216  156.9641 F   0  0  0  0  0  0  0  0  0  0  0  0
  149.4049  133.4375  155.2163 C   0  0  0  0  0  0  0  0  0  0  0  0
  148.4212  133.6661  154.3211 N   0  0  0  0  0  0  0  0  0  0  0  0
  146.0067  131.8977  152.3442 C   0  0  0  0  0  0  0  0  0  0  0  0
  145.1605  132.1962  151.0913 C   0  0  2  0  0  0  0  0  0  0  0  0
  145.8936  131.8969  149.7713 C   0  0  0  0  0  0  0  0  0  0  0  0
  144.6615  133.5347  151.1408 O   0  0  0  0  0  0  0  0  0  0  0  0
  145.6859  136.7136  151.4248 H   0  0  0  0  0  0  0  0  0  0  0  0
  144.2714  135.9667  152.1665 H   0  0  0  0  0  0  0  0  0  0  0  0
  144.3933  136.0765  150.4121 H   0  0  0  0  0  0  0  0  0  0  0  0
  146.3239  134.5294  150.4175 H   0  0  0  0  0  0  0  0  0  0  0  0
  147.2657  135.0298  152.6429 H   0  0  0  0  0  0  0  0  0  0  0  0
  145.8473  134.3880  153.4425 H   0  0  0  0  0  0  0  0  0  0  0  0
  148.3505  130.5941  152.8771 H   0  0  0  0  0  0  0  0  0  0  0  0
  150.1608  130.1897  154.5155 H   0  0  0  0  0  0  0  0  0  0  0  0
  152.1086  130.7396  155.0675 H   0  0  0  0  0  0  0  0  0  0  0  0
  153.7670  131.6481  157.1784 H   0  0  0  0  0  0  0  0  0  0  0  0
  152.8963  130.2444  157.7421 H   0  0  0  0  0  0  0  0  0  0  0  0
  149.6458  134.2697  155.8616 H   0  0  0  0  0  0  0  0  0  0  0  0
  146.4667  130.9130  152.2494 H   0  0  0  0  0  0  0  0  0  0  0  0
  145.3608  131.8683  153.2231 H   0  0  0  0  0  0  0  0  0  0  0  0
  144.2865  131.5449  151.1197 H   0  0  0  0  0  0  0  0  0  0  0  0
  146.1424  130.8379  149.7004 H   0  0  0  0  0  0  0  0  0  0  0  0
  146.8260  132.4533  149.6800 H   0  0  0  0  0  0  0  0  0  0  0  0
  145.2682  132.1464  148.9140 H   0  0  0  0  0  0  0  0  0  0  0  0
  1  2  1  0  0  0  0
  1 23  1  0  0  0  0
  1 24  1  0  0  0  0
  1 25  1  0  0  0  0
  2 22  1  0  0  0  0
  2  3  1  0  0  0  0
  2 26  1  0  0  0  0
  3  4  1  0  0  0  0
  3 27  1  0  0  0  0
  3 28  1  0  0  0  0
  4  5  1  0  0  0  0
  4 19  1  0  0  0  0
  5 18  1  0  0  0  0
  5  6  2  0  0  0  0
  6  7  1  0  0  0  0
  6 29  1  0  0  0  0
  7  8  2  0  0  0  0
  7 30  1  0  0  0  0
  8  9  1  0  0  0  0
  8 17  1  0  0  0  0
  9 10  2  0  0  0  0
  9 11  1  0  0  0  0
 11 12  1  0  0  0  0
 11 31  1  0  0  0  0
 12 13  1  0  0  0  0
 12 32  1  0  0  0  0
 12 33  1  0  0  0  0
 13 14  1  0  0  0  0
 13 15  1  0  0  0  0
 13 16  1  0  0  0  0
 17 18  2  0  0  0  0
 17 34  1  0  0  0  0
 19 20  1  0  0  0  0
 19 35  1  0  0  0  0
 19 36  1  0  0  0  0
 20 21  1  0  0  0  0
 20 22  1  0  0  0  0
 20 37  1  0  0  0  0
 21 38  1  0  0  0  0
 21 39  1  0  0  0  0
 21 40  1  0  0  0  0
M  END
> <s_m_source_file>
AV-unprocessed.smi

> <i_m_source_file_index>
1565

> <i_lp_mmshare_version>
43012

> <i_f3d_flags>
0

> <s_epik_input>
W0NIM11bQ0BASF0xW0NIMl1OKFtDSDJdW0NASF0oTzEpW0NIM10pYzJbY0hdW2NIXWMoW2NIXW4yKUMoPU8pW05IXVtDSDJdQyhGKShGKUY=

> <s_epik_cmdline>
J2VwaWtfcHl0aG9uJywgJy1waCcsICc3LjAnLCAnLXRuJywgJzgnLCAnLW1hJywgJzIwMCcsICctbWV0YWxfYmluZGluZycsICctaW1hZScsICc8aW5maWxlLm1hZT4nLCAnLW9tYWUnLCAnPG91dGZpbGUubWFlPic=

> <r_lp_tautomer_probability>
1

> <r_epik_Ionization_Penalty>
1.48031e-05

> <r_epik_Ionization_Penalty_Charging>
0

> <r_epik_Ionization_Penalty_Neutral>
1.48031e-05

> <r_epik_State_Penalty>
-0

> <r_epik_Charging_Adjusted_Penalty>
0

> <i_epik_Tot_Q>
0

> <i_epik_Tot_abs_Q>
0

> <r_epik_Metal_State_Penalty>
0.00620302

> <b_epik_Metal_Only>
0

> <s_lp_Force_Field>
OPLS_2005

> <r_lp_Energy>
19.4369

> <b_lp_Chiralities_Consistent>
1

> <s_lp_Variant>
AV-unprocessed.smi:1565-3

> <Gold.Version>
5.8.1

> <Gold.Id.Protein>
6NUR|6NUR_protein|mol2

> <Gold.PLP.Fitness>
36.9373

> <Gold.PLP.PLP>
-35.3761

> <Gold.PLP.part.hbond>
-1.0000

> <Gold.PLP.part.metal>
0.0000

> <Gold.PLP.part.buried>
-4.0767

> <Gold.PLP.part.nonpolar>
-30.9000

> <Gold.PLP.part.repulsive>
0.3921

> <Gold.PLP.ligand.clash>
0.0000

> <Gold.PLP.ligand.torsion>
0.8929

> <Gold.PLP.Chemscore.Hbond>
1.0000

> <Gold.PLP.Chemscore.CHOScore>
0.0000

> <Gold.PLP.Chemscore.Metal>
0.0000

> <Gold.Chemscore.Hbonds>
donor molecule, donor type, donor heavy atom, donor atom, acceptor molecule, acceptor atom, score
      P1  H  6896  6907       L1    10  1.00

> <Gold.PLP.Chemscore.Internal.Correction>
0.3470

> <Gold.Rescore>
     Score         DG    S(hbond)    S(metal)    S(lipo)     H(rot)  DE(clash)    DE(int)     intcor
     12.54     -13.66       0.95        0.00      71.31       1.31       0.20       0.92       ----

> <Gold.Chemscore.Fitness>
12.5407

> <Gold.Chemscore.DG>
-13.6608

> <Gold.Chemscore.ZeroCoef>
-5.4800

> <Gold.Chemscore.Hbond>
0.9518

> <Gold.Chemscore.Metal>
0.0000

> <Gold.Chemscore.Lipo>
71.3100

> <Gold.Chemscore.Internal_Hbond>
0.0000

> <Gold.Chemscore.DEClash>
0.2036

> <Gold.Chemscore.DEInternal>
0.9165

> <Gold.Chemscore.Rot>
1.3052

> <Gold.Chemscore.Internal.Correction>
   9.000000E+99

> <Gold.Chemscore.Hbonds>
donor molecule, donor type, donor heavy atom, donor atom, acceptor molecule, acceptor atom, score
      P1  H  6896  6907       L1    10  0.93

> <Gold.Chemscore.Hbond.Weighted>
-3.1790

> <Gold.Chemscore.Metal.Weighted>
-0.0000

> <Gold.Chemscore.Lipo.Weighted>
-8.3433

> <Gold.Chemscore.Internal_Hbond.Weighted>
0.0000

> <Gold.Chemscore.DEClash.Weighted>
0.2036

> <Gold.Chemscore.DEInternal.Weighted>
0.9165

> <Gold.Chemscore.Rot.Weighted>
3.3414

> <Gold.Chemscore.Internal.Correction.Weighted>
   9.000000E+99

> <Gold.Protein.RotatedTorsions>
[ 6907 6896 6895 6894 ] final -173.43 input  -60.11 | X-H torsion
[ 7974 7965 7964 7962 ] final -178.18 input  175.53 | X-H torsion
[ 8008 7997 7996 7995 ] final  157.39 input   59.86 | X-H torsion
[ 10167 10162 10161 10158 ] final  -29.94 input  -65.29 | X-H torsion
[ 10718 10713 10712 10709 ] final  116.06 input   66.30 | X-H torsion
[ 10763 10752 10751 10750 ] final   -0.78 input  -60.55 | X-H torsion
[ 11005 11000 10999 10996 ] final  -15.02 input  -57.11 | X-H torsion

> <Gold.Protein.ActiveResidues>
 VAL166  LYS551  ARG553  GLY616  TRP617  ASP618  TYR619  PRO620  LYS621  CYS622 
 ASP623  PHE694  ASN695  SER759  ASP760  ASP761  ALA762  ILE779  LEU786  VAL792 
 PHE793  MET794  SER795  GLU796  ALA797  LYS798  CYS799  TRP800  GLU811  SER814 

> <Gold.Protein.RotatedAtoms>
  151.5560  133.3410  159.2961 H   0  0  0  0  0  0  0  0  0  0  0  0  # atno 6907 bound_to 6896
  150.8450  134.7759  159.6974 H   0  0  0  0  0  0  0  0  0  0  0  0  # atno 6908 bound_to 6896
  152.4510  134.5401  159.9888 H   0  0  0  0  0  0  0  0  0  0  0  0  # atno 6909 bound_to 6896
  144.7130  140.0908  143.6421 H   0  0  0  0  0  0  0  0  0  0  0  0  # atno 7974 bound_to 7965
  156.2367  140.1886  156.7101 H   0  0  0  0  0  0  0  0  0  0  0  0  # atno 8008 bound_to 7997
  154.6119  140.0621  156.9532 H   0  0  0  0  0  0  0  0  0  0  0  0  # atno 8009 bound_to 7997
  155.2002  140.3291  155.4347 H   0  0  0  0  0  0  0  0  0  0  0  0  # atno 8010 bound_to 7997
  140.7255  143.3888  151.1467 H   0  0  0  0  0  0  0  0  0  0  0  0  # atno 10167 bound_to 10162
  157.6184  131.1020  150.7419 H   0  0  0  0  0  0  0  0  0  0  0  0  # atno 10718 bound_to 10713
  153.3364  135.6978  153.6904 H   0  0  0  0  0  0  0  0  0  0  0  0  # atno 10763 bound_to 10752
  153.5686  135.3520  155.2829 H   0  0  0  0  0  0  0  0  0  0  0  0  # atno 10764 bound_to 10752
  154.8628  135.4267  154.2565 H   0  0  0  0  0  0  0  0  0  0  0  0  # atno 10765 bound_to 10752
  140.7924  133.8278  155.9392 H   0  0  0  0  0  0  0  0  0  0  0  0  # atno 11005 bound_to 11000
  145.9622  139.2809  143.1149 LP  0  0  0  0  0  0  0  0  0  0  0  0  # atno 17320 bound_to 7965
  145.9208  140.9116  143.0406 LP  0  0  0  0  0  0  0  0  0  0  0  0  # atno 17321 bound_to 7965
  139.7490  143.8808  152.3071 LP  0  0  0  0  0  0  0  0  0  0  0  0  # atno 17342 bound_to 10162
  139.8655  144.7095  150.9049 LP  0  0  0  0  0  0  0  0  0  0  0  0  # atno 17343 bound_to 10162
  156.7781  130.4850  149.5406 LP  0  0  0  0  0  0  0  0  0  0  0  0  # atno 17370 bound_to 10713
  156.1317  130.6182  151.0342 LP  0  0  0  0  0  0  0  0  0  0  0  0  # atno 17371 bound_to 10713
  140.9376  134.1941  157.4820 LP  0  0  0  0  0  0  0  0  0  0  0  0  # atno 17394 bound_to 11000
  139.8730  134.9859  156.5300 LP  0  0  0  0  0  0  0  0  0  0  0  0  # atno 17395 bound_to 11000

$$$$
