AV-unprocessed.smi:2184|AV-procd|sdf|8869|dock5
  -GOLD-   2272012 73D 1   1.00000     0.00000
 Structure written by MMmdl.
 47 48  0  0  0  0  0  0  0  0  1 V2000
  149.9396  133.1624  154.8625 C   0  0  0  0  0  0  0  0  0  0  0  0
  150.1997  134.9409  154.6215 S   0  0  0  0  0  0  0  0  0  0  0  0
  148.6659  135.6175  155.3263 C   0  0  2  0  0  0  0  0  0  0  0  0
  147.4478  135.0702  154.5659 C   0  0  0  0  0  0  0  0  0  0  0  0
  148.6643  137.1509  155.3327 C   0  0  0  0  0  0  0  0  0  0  0  0
  148.3449  137.7679  156.3496 O   0  0  0  0  0  0  0  0  0  0  0  0
  149.0094  137.7558  154.1851 N   0  0  0  0  0  0  0  0  0  0  0  0
  149.0345  139.1997  153.9798 C   0  0  0  0  0  0  0  0  0  0  0  0
  149.8409  139.9406  155.0333 C   0  0  0  0  0  0  0  0  0  0  0  0
  151.2000  139.6390  155.2460 C   0  0  0  0  0  0  0  0  0  0  0  0
  151.9084  140.3451  156.2369 C   0  0  0  0  0  0  0  0  0  0  0  0
  151.2387  141.3394  156.9893 C   0  0  0  0  0  0  0  0  0  0  0  0
  151.9297  142.0570  157.9892 N   0  0  0  0  0  0  0  0  0  0  0  0
  152.3717  141.3271  159.1753 C   0  0  0  0  0  0  0  0  0  0  0  0
  153.3516  142.1827  159.9992 C   0  0  2  0  0  0  0  0  0  0  0  0
  153.7477  141.4996  161.3123 C   0  0  0  0  0  0  0  0  0  0  0  0
  152.7348  143.4288  160.3108 O   0  0  0  0  0  0  0  0  0  0  0  0
  152.4071  144.1807  159.1453 C   0  0  2  0  0  0  0  0  0  0  0  0
  151.8398  145.5330  159.5896 C   0  0  0  0  0  0  0  0  0  0  0  0
  151.4015  143.3840  158.2926 C   0  0  0  0  0  0  0  0  0  0  0  0
  149.9295  141.6260  156.7803 N   0  0  0  0  0  0  0  0  0  0  0  0
  149.2565  140.9478  155.8278 C   0  0  0  0  0  0  0  0  0  0  0  0
  150.7606  132.6013  154.4164 H   0  0  0  0  0  0  0  0  0  0  0  0
  149.0084  132.8440  154.3938 H   0  0  0  0  0  0  0  0  0  0  0  0
  149.8991  132.9200  155.9237 H   0  0  0  0  0  0  0  0  0  0  0  0
  148.6004  135.2616  156.3557 H   0  0  0  0  0  0  0  0  0  0  0  0
  146.5158  135.4707  154.9666 H   0  0  0  0  0  0  0  0  0  0  0  0
  147.3970  133.9840  154.6453 H   0  0  0  0  0  0  0  0  0  0  0  0
  147.4908  135.3209  153.5051 H   0  0  0  0  0  0  0  0  0  0  0  0
  149.2596  137.1761  153.3970 H   0  0  0  0  0  0  0  0  0  0  0  0
  149.4127  139.4281  152.9817 H   0  0  0  0  0  0  0  0  0  0  0  0
  148.0085  139.5671  154.0120 H   0  0  0  0  0  0  0  0  0  0  0  0
  151.6939  138.8728  154.6667 H   0  0  0  0  0  0  0  0  0  0  0  0
  152.9453  140.1052  156.4190 H   0  0  0  0  0  0  0  0  0  0  0  0
  151.5023  141.0630  159.7794 H   0  0  0  0  0  0  0  0  0  0  0  0
  152.8611  140.3971  158.8824 H   0  0  0  0  0  0  0  0  0  0  0  0
  154.2567  142.3670  159.4175 H   0  0  0  0  0  0  0  0  0  0  0  0
  154.2348  140.5423  161.1251 H   0  0  0  0  0  0  0  0  0  0  0  0
  152.8752  141.3151  161.9396 H   0  0  0  0  0  0  0  0  0  0  0  0
  154.4413  142.1201  161.8802 H   0  0  0  0  0  0  0  0  0  0  0  0
  153.3161  144.3598  158.5681 H   0  0  0  0  0  0  0  0  0  0  0  0
  151.5829  146.1520  158.7297 H   0  0  0  0  0  0  0  0  0  0  0  0
  152.5662  146.0819  160.1894 H   0  0  0  0  0  0  0  0  0  0  0  0
  150.9395  145.4049  160.1914 H   0  0  0  0  0  0  0  0  0  0  0  0
  151.1809  143.9456  157.3860 H   0  0  0  0  0  0  0  0  0  0  0  0
  150.4597  143.2695  158.8311 H   0  0  0  0  0  0  0  0  0  0  0  0
  148.2186  141.2176  155.6992 H   0  0  0  0  0  0  0  0  0  0  0  0
  1  2  1  0  0  0  0
  1 23  1  0  0  0  0
  1 24  1  0  0  0  0
  1 25  1  0  0  0  0
  2  3  1  0  0  0  0
  3  4  1  0  0  0  0
  3  5  1  0  0  0  0
  3 26  1  0  0  0  0
  4 27  1  0  0  0  0
  4 28  1  0  0  0  0
  4 29  1  0  0  0  0
  5  6  2  0  0  0  0
  5  7  1  0  0  0  0
  7  8  1  0  0  0  0
  7 30  1  0  0  0  0
  8  9  1  0  0  0  0
  8 31  1  0  0  0  0
  8 32  1  0  0  0  0
  9 22  1  0  0  0  0
  9 10  2  0  0  0  0
 10 11  1  0  0  0  0
 10 33  1  0  0  0  0
 11 12  2  0  0  0  0
 11 34  1  0  0  0  0
 12 13  1  0  0  0  0
 12 21  1  0  0  0  0
 13 20  1  0  0  0  0
 13 14  1  0  0  0  0
 14 15  1  0  0  0  0
 14 35  1  0  0  0  0
 14 36  1  0  0  0  0
 15 16  1  0  0  0  0
 15 17  1  0  0  0  0
 15 37  1  0  0  0  0
 16 38  1  0  0  0  0
 16 39  1  0  0  0  0
 16 40  1  0  0  0  0
 17 18  1  0  0  0  0
 18 19  1  0  0  0  0
 18 20  1  0  0  0  0
 18 41  1  0  0  0  0
 19 42  1  0  0  0  0
 19 43  1  0  0  0  0
 19 44  1  0  0  0  0
 20 45  1  0  0  0  0
 20 46  1  0  0  0  0
 21 22  2  0  0  0  0
 22 47  1  0  0  0  0
M  END
> <s_m_source_file>
AV-unprocessed.smi

> <i_m_source_file_index>
2184

> <i_lp_mmshare_version>
43012

> <i_f3d_flags>
0

> <s_epik_input>
W0NIM11TW0NASF0oW0NIM10pQyg9TylbTkhdW0NIMl1jMVtjSF1bY0hdYyhuW2NIXTEpTjJbQ0gyXVtDQEBIXShbQ0gzXSlPW0NAQEhdKFtDSDNdKVtDSDJdMg==

> <s_epik_cmdline>
J2VwaWtfcHl0aG9uJywgJy1waCcsICc3LjAnLCAnLXRuJywgJzgnLCAnLW1hJywgJzIwMCcsICctbWV0YWxfYmluZGluZycsICctaW1hZScsICc8aW5maWxlLm1hZT4nLCAnLW9tYWUnLCAnPG91dGZpbGUubWFlPic=

> <r_lp_tautomer_probability>
1

> <r_epik_Ionization_Penalty>
0.00551702

> <r_epik_Ionization_Penalty_Charging>
0

> <r_epik_Ionization_Penalty_Neutral>
0.00551702

> <r_epik_State_Penalty>
0.00403758

> <r_epik_Charging_Adjusted_Penalty>
0.00403758

> <i_epik_Tot_Q>
0

> <i_epik_Tot_abs_Q>
0

> <r_epik_Metal_State_Penalty>
-0

> <b_epik_Metal_Only>
0

> <s_lp_Force_Field>
OPLS_2005

> <r_lp_Energy>
14.0724

> <b_lp_Chiralities_Consistent>
1

> <s_lp_Variant>
AV-unprocessed.smi:2184-1

> <Gold.Version>
5.8.1

> <Gold.Id.Protein>
6NUR|6NUR_protein|mol2

> <Gold.PLP.Fitness>
44.0844

> <Gold.PLP.PLP>
-42.2471

> <Gold.PLP.part.hbond>
-1.0000

> <Gold.PLP.part.metal>
0.0000

> <Gold.PLP.part.buried>
-2.7527

> <Gold.PLP.part.nonpolar>
-37.5779

> <Gold.PLP.part.repulsive>
0.1262

> <Gold.PLP.ligand.clash>
0.0000

> <Gold.PLP.ligand.torsion>
0.7583

> <Gold.PLP.Chemscore.Hbond>
1.0000

> <Gold.PLP.Chemscore.CHOScore>
0.0000

> <Gold.PLP.Chemscore.Metal>
0.0000

> <Gold.Chemscore.Hbonds>
donor molecule, donor type, donor heavy atom, donor atom, acceptor molecule, acceptor atom, score
      L1  H     7    30       P1  7948  1.00

> <Gold.PLP.Chemscore.Internal.Correction>
0.3538

> <Gold.Rescore>
     Score         DG    S(hbond)    S(metal)    S(lipo)     H(rot)  DE(clash)    DE(int)     intcor
     15.96     -17.77       1.00        0.00     111.42       1.59       0.02       1.80       ----

> <Gold.Chemscore.Fitness>
15.9561

> <Gold.Chemscore.DG>
-17.7701

> <Gold.Chemscore.ZeroCoef>
-5.4800

> <Gold.Chemscore.Hbond>
0.9990

> <Gold.Chemscore.Metal>
0.0000

> <Gold.Chemscore.Lipo>
111.4171

> <Gold.Chemscore.Internal_Hbond>
0.0000

> <Gold.Chemscore.DEClash>
0.0155

> <Gold.Chemscore.DEInternal>
1.7985

> <Gold.Chemscore.Rot>
1.5947

> <Gold.Chemscore.Internal.Correction>
   9.000000E+99

> <Gold.Chemscore.Hbonds>
donor molecule, donor type, donor heavy atom, donor atom, acceptor molecule, acceptor atom, score
      L1  H     7    30       P1  7948  0.97

> <Gold.Chemscore.Hbond.Weighted>
-3.3367

> <Gold.Chemscore.Metal.Weighted>
-0.0000

> <Gold.Chemscore.Lipo.Weighted>
-13.0358

> <Gold.Chemscore.Internal_Hbond.Weighted>
0.0000

> <Gold.Chemscore.DEClash.Weighted>
0.0155

> <Gold.Chemscore.DEInternal.Weighted>
1.7985

> <Gold.Chemscore.Rot.Weighted>
4.0824

> <Gold.Chemscore.Internal.Correction.Weighted>
   9.000000E+99

> <Gold.Protein.RotatedTorsions>
[ 6907 6896 6895 6894 ] final  -56.32 input  -60.11 | X-H torsion
[ 7974 7965 7964 7962 ] final  -86.06 input  175.53 | X-H torsion
[ 8008 7997 7996 7995 ] final   -2.99 input   59.86 | X-H torsion
[ 10167 10162 10161 10158 ] final   88.67 input  -65.29 | X-H torsion
[ 10718 10713 10712 10709 ] final   -1.93 input   66.30 | X-H torsion
[ 10763 10752 10751 10750 ] final  -35.60 input  -60.55 | X-H torsion
[ 11005 11000 10999 10996 ] final   54.18 input  -57.11 | X-H torsion

> <Gold.Protein.ActiveResidues>
 VAL166  LYS551  ARG553  GLY616  TRP617  ASP618  TYR619  PRO620  LYS621  CYS622 
 ASP623  PHE694  ASN695  SER759  ASP760  ASP761  ALA762  ILE779  LEU786  VAL792 
 PHE793  MET794  SER795  GLU796  ALA797  LYS798  CYS799  TRP800  GLU811  SER814 

> <Gold.Protein.RotatedAtoms>
  150.8177  134.7368  159.6744 H   0  0  0  0  0  0  0  0  0  0  0  0  # atno 6907 bound_to 6896
  152.4295  134.5802  159.9955 H   0  0  0  0  0  0  0  0  0  0  0  0  # atno 6908 bound_to 6896
  151.5994  133.3320  159.3080 H   0  0  0  0  0  0  0  0  0  0  0  0  # atno 6909 bound_to 6896
  145.4849  140.9555  143.1844 H   0  0  0  0  0  0  0  0  0  0  0  0  # atno 7974 bound_to 7965
  154.6297  140.2520  155.7449 H   0  0  0  0  0  0  0  0  0  0  0  0  # atno 8008 bound_to 7997
  156.2473  140.2909  156.0563 H   0  0  0  0  0  0  0  0  0  0  0  0  # atno 8009 bound_to 7997
  155.1765  140.0388  157.2864 H   0  0  0  0  0  0  0  0  0  0  0  0  # atno 8010 bound_to 7997
  139.8649  144.6524  150.9015 H   0  0  0  0  0  0  0  0  0  0  0  0  # atno 10167 bound_to 10162
  156.7983  130.5384  149.5725 H   0  0  0  0  0  0  0  0  0  0  0  0  # atno 10718 bound_to 10713
  153.8659  135.6835  153.4778 H   0  0  0  0  0  0  0  0  0  0  0  0  # atno 10763 bound_to 10752
  153.1315  135.4696  154.9353 H   0  0  0  0  0  0  0  0  0  0  0  0  # atno 10764 bound_to 10752
  154.7737  135.3246  154.8087 H   0  0  0  0  0  0  0  0  0  0  0  0  # atno 10765 bound_to 10752
  140.0707  134.5474  155.9050 H   0  0  0  0  0  0  0  0  0  0  0  0  # atno 11005 bound_to 11000
  144.7867  139.6412  143.7131 LP  0  0  0  0  0  0  0  0  0  0  0  0  # atno 17320 bound_to 7965
  146.2319  139.5830  142.9549 LP  0  0  0  0  0  0  0  0  0  0  0  0  # atno 17321 bound_to 7965
  140.7769  143.3712  151.1645 LP  0  0  0  0  0  0  0  0  0  0  0  0  # atno 17342 bound_to 10162
  139.7338  143.9031  152.3028 LP  0  0  0  0  0  0  0  0  0  0  0  0  # atno 17343 bound_to 10162
  156.1116  130.6045  151.0057 LP  0  0  0  0  0  0  0  0  0  0  0  0  # atno 17370 bound_to 10713
  157.6566  131.0888  150.7933 LP  0  0  0  0  0  0  0  0  0  0  0  0  # atno 17371 bound_to 10713
  141.2010  133.6616  156.5929 LP  0  0  0  0  0  0  0  0  0  0  0  0  # atno 17394 bound_to 11000
  140.3632  134.7670  157.4548 LP  0  0  0  0  0  0  0  0  0  0  0  0  # atno 17395 bound_to 11000

$$$$
