AV-unprocessed.smi:678|AV-procd|sdf|3315|dock9
  -GOLD-   22720 0283D 1   1.00000     0.00000
 Structure written by MMmdl.
 51 52  0  0  0  0  0  0  0  0  2 V2000
  153.2159  142.5924  161.1605 C   0  0  0  0  0  0  0  0  0  0  0  0
  152.5494  142.8391  159.8185 C   0  0  0  0  0  0  0  0  0  0  0  0
  152.5450  144.0631  159.2472 C   0  0  0  0  0  0  0  0  0  0  0  0
  151.9054  144.2897  157.9739 C   0  0  0  0  0  0  0  0  0  0  0  0
  151.3130  143.2506  157.3685 C   0  0  0  0  0  0  0  0  0  0  0  0
  151.3051  141.9647  157.9406 N   0  0  0  0  0  0  0  0  0  0  0  0
  150.6209  140.9000  157.1864 C   0  0  0  0  0  0  0  0  0  0  0  0
  151.5328  139.7032  156.8834 C   0  0  0  0  0  0  0  0  0  0  0  0
  152.6887  139.8782  156.4963 O   0  0  0  0  0  0  0  0  0  0  0  0
  150.9943  138.4884  157.0670 N   0  0  0  0  0  0  0  0  0  0  0  0
  151.6524  137.2237  156.7584 C   0  0  0  0  0  0  0  0  0  0  0  0
  150.6234  136.1202  156.4524 C   0  0  2  0  0  0  0  0  0  0  0  0
  150.3091  136.0280  154.9423 C   0  0  0  0  0  0  0  0  0  0  0  0
  149.2415  135.0328  154.6603 N   0  3  1  0  0  0  0  0  0  0  0  0
  149.6860  133.6124  154.6869 C   0  0  0  0  0  0  0  0  0  0  0  0
  148.5475  132.6175  154.3729 C   0  0  0  0  0  0  0  0  0  0  0  0
  149.0266  131.1577  154.4443 C   0  0  0  0  0  0  0  0  0  0  0  0
  147.9370  132.9135  152.9950 C   0  0  0  0  0  0  0  0  0  0  0  0
  148.0501  135.2974  155.5031 C   0  0  0  0  0  0  0  0  0  0  0  0
  148.4327  135.3974  156.9899 C   0  0  0  0  0  0  0  0  0  0  0  0
  149.4155  136.4110  157.1495 O   0  0  0  0  0  0  0  0  0  0  0  0
  151.8984  141.6989  159.1467 C   0  0  0  0  0  0  0  0  0  0  0  0
  151.8814  140.5672  159.6362 O   0  0  0  0  0  0  0  0  0  0  0  0
  153.6592  143.5056  161.5587 H   0  0  0  0  0  0  0  0  0  0  0  0
  154.0075  141.8489  161.0627 H   0  0  0  0  0  0  0  0  0  0  0  0
  152.4886  142.2276  161.8866 H   0  0  0  0  0  0  0  0  0  0  0  0
  153.0241  144.8925  159.7470 H   0  0  0  0  0  0  0  0  0  0  0  0
  151.9001  145.2712  157.5228 H   0  0  0  0  0  0  0  0  0  0  0  0
  150.8066  143.3383  156.4183 H   0  0  0  0  0  0  0  0  0  0  0  0
  149.7501  140.5321  157.7304 H   0  0  0  0  0  0  0  0  0  0  0  0
  150.2253  141.3089  156.2543 H   0  0  0  0  0  0  0  0  0  0  0  0
  150.0432  138.4384  157.4031 H   0  0  0  0  0  0  0  0  0  0  0  0
  152.3567  137.3391  155.9326 H   0  0  0  0  0  0  0  0  0  0  0  0
  152.2441  136.9426  157.6301 H   0  0  0  0  0  0  0  0  0  0  0  0
  151.0253  135.1705  156.8086 H   0  0  0  0  0  0  0  0  0  0  0  0
  149.9627  136.9998  154.5876 H   0  0  0  0  0  0  0  0  0  0  0  0
  151.2118  135.8053  154.3752 H   0  0  0  0  0  0  0  0  0  0  0  0
  150.5174  133.4686  153.9971 H   0  0  0  0  0  0  0  0  0  0  0  0
  150.0776  133.3739  155.6768 H   0  0  0  0  0  0  0  0  0  0  0  0
  147.7480  132.7432  155.1024 H   0  0  0  0  0  0  0  0  0  0  0  0
  149.8298  130.9682  153.7314 H   0  0  0  0  0  0  0  0  0  0  0  0
  148.2135  130.4673  154.2175 H   0  0  0  0  0  0  0  0  0  0  0  0
  149.3967  130.9057  155.4383 H   0  0  0  0  0  0  0  0  0  0  0  0
  148.6758  132.8018  152.2006 H   0  0  0  0  0  0  0  0  0  0  0  0
  147.5476  133.9309  152.9468 H   0  0  0  0  0  0  0  0  0  0  0  0
  147.1101  132.2370  152.7770 H   0  0  0  0  0  0  0  0  0  0  0  0
  147.6071  136.2413  155.1829 H   0  0  0  0  0  0  0  0  0  0  0  0
  147.2868  134.5342  155.3469 H   0  0  0  0  0  0  0  0  0  0  0  0
  147.5581  135.6604  157.5851 H   0  0  0  0  0  0  0  0  0  0  0  0
  148.8021  134.4449  157.3729 H   0  0  0  0  0  0  0  0  0  0  0  0
  148.9422  135.1926  153.7087 H   0  0  0  0  0  0  0  0  0  0  0  0
  1  2  1  0  0  0  0
  1 24  1  0  0  0  0
  1 25  1  0  0  0  0
  1 26  1  0  0  0  0
  2 22  1  0  0  0  0
  2  3  2  0  0  0  0
  3  4  1  0  0  0  0
  3 27  1  0  0  0  0
  4  5  2  0  0  0  0
  4 28  1  0  0  0  0
  5  6  1  0  0  0  0
  5 29  1  0  0  0  0
  6  7  1  0  0  0  0
  6 22  1  0  0  0  0
  7  8  1  0  0  0  0
  7 30  1  0  0  0  0
  7 31  1  0  0  0  0
  8  9  2  0  0  0  0
  8 10  1  0  0  0  0
 10 11  1  0  0  0  0
 10 32  1  0  0  0  0
 11 12  1  0  0  0  0
 11 33  1  0  0  0  0
 11 34  1  0  0  0  0
 12 21  1  0  0  0  0
 12 13  1  0  0  0  0
 12 35  1  0  0  0  0
 13 14  1  0  0  0  0
 13 36  1  0  0  0  0
 13 37  1  0  0  0  0
 14 15  1  0  0  0  0
 14 19  1  0  0  0  0
 14 51  1  0  0  0  0
 15 16  1  0  0  0  0
 15 38  1  0  0  0  0
 15 39  1  0  0  0  0
 16 17  1  0  0  0  0
 16 18  1  0  0  0  0
 16 40  1  0  0  0  0
 17 41  1  0  0  0  0
 17 42  1  0  0  0  0
 17 43  1  0  0  0  0
 18 44  1  0  0  0  0
 18 45  1  0  0  0  0
 18 46  1  0  0  0  0
 19 20  1  0  0  0  0
 19 47  1  0  0  0  0
 19 48  1  0  0  0  0
 20 21  1  0  0  0  0
 20 49  1  0  0  0  0
 20 50  1  0  0  0  0
 22 23  2  0  0  0  0
M  CHG  1  14   1
M  END
> <s_m_source_file>
AV-unprocessed.smi

> <i_m_source_file_index>
678

> <i_lp_mmshare_version>
43012

> <i_f3d_flags>
0

> <s_epik_input>
W0NIM11jMVtjSF1bY0hdW2NIXW4oYzE9TylbQ0gyXUMoPU8pW05IXVtDSDJdW0NAQEhdMltDSDJdTihbQ0gyXVtDSDJdTzIpW0NIMl1bQ0hdKFtDSDNdKVtDSDNd

> <s_epik_cmdline>
J2VwaWtfcHl0aG9uJywgJy1waCcsICc3LjAnLCAnLXRuJywgJzgnLCAnLW1hJywgJzIwMCcsICctbWV0YWxfYmluZGluZycsICctaW1hZScsICc8aW5maWxlLm1hZT4nLCAnLW9tYWUnLCAnPG91dGZpbGUubWFlPic=

> <r_lp_tautomer_probability>
1

> <r_epik_Ionization_Penalty>
0.0975937

> <r_epik_Ionization_Penalty_Charging>
0.0975937

> <r_epik_Ionization_Penalty_Neutral>
6.27044e-08

> <r_epik_State_Penalty>
0.0877056

> <r_epik_Charging_Adjusted_Penalty>
0.185299

> <i_epik_Tot_Q>
1

> <i_epik_Tot_abs_Q>
1

> <r_epik_Metal_State_Penalty>
0.0877109

> <b_epik_Metal_Only>
0

> <s_lp_Force_Field>
OPLS_2005

> <r_lp_Energy>
29.877

> <b_lp_Chiralities_Consistent>
1

> <s_lp_Variant>
AV-unprocessed.smi:678-3

> <Gold.Version>
5.8.1

> <Gold.Id.Protein>
6NUR|6NUR_protein|mol2

> <Gold.PLP.Fitness>
53.0005

> <Gold.PLP.PLP>
-42.5889

> <Gold.PLP.part.hbond>
-2.0000

> <Gold.PLP.part.metal>
0.0000

> <Gold.PLP.part.buried>
-1.9902

> <Gold.PLP.part.nonpolar>
-38.0300

> <Gold.PLP.part.repulsive>
0.0372

> <Gold.PLP.ligand.clash>
0.0000

> <Gold.PLP.ligand.torsion>
0.8458

> <Gold.PLP.Chemscore.Hbond>
3.0000

> <Gold.PLP.Chemscore.CHOScore>
1.0000

> <Gold.PLP.Chemscore.Metal>
0.0000

> <Gold.Chemscore.Hbonds>
donor molecule, donor type, donor heavy atom, donor atom, acceptor molecule, acceptor atom, score
      L1  H    14    51       P1  7948  1.72
      P1  H  7997  8008       L1     9  1.00
      L1  C     5    29       P1  8028  1.00

> <Gold.PLP.Chemscore.Internal.Correction>
0.1032

> <Gold.Rescore>
     Score         DG    S(hbond)    S(metal)    S(lipo)     H(rot)  DE(clash)    DE(int)     intcor
     17.07     -19.18       1.94        0.00     102.97       1.89       0.09       2.03       ----

> <Gold.Chemscore.Fitness>
17.0677

> <Gold.Chemscore.DG>
-19.1846

> <Gold.Chemscore.ZeroCoef>
-5.4800

> <Gold.Chemscore.Hbond>
1.9425

> <Gold.Chemscore.Metal>
0.0000

> <Gold.Chemscore.Lipo>
102.9719

> <Gold.Chemscore.Internal_Hbond>
0.0000

> <Gold.Chemscore.DEClash>
0.0899

> <Gold.Chemscore.DEInternal>
2.0271

> <Gold.Chemscore.Rot>
1.8871

> <Gold.Chemscore.Internal.Correction>
   9.000000E+99

> <Gold.Chemscore.Hbonds>
donor molecule, donor type, donor heavy atom, donor atom, acceptor molecule, acceptor atom, score
      L1  H    14    51       P1  7948  0.53
      P1  H  7997  8008       L1     9  1.00

> <Gold.Chemscore.Hbond.Weighted>
-6.4879

> <Gold.Chemscore.Metal.Weighted>
-0.0000

> <Gold.Chemscore.Lipo.Weighted>
-12.0477

> <Gold.Chemscore.Internal_Hbond.Weighted>
0.0000

> <Gold.Chemscore.DEClash.Weighted>
0.0899

> <Gold.Chemscore.DEInternal.Weighted>
2.0271

> <Gold.Chemscore.Rot.Weighted>
4.8309

> <Gold.Chemscore.Internal.Correction.Weighted>
   9.000000E+99

> <Gold.Protein.RotatedTorsions>
[ 6907 6896 6895 6894 ] final -160.65 input  -60.11 | X-H torsion
[ 7974 7965 7964 7962 ] final   -0.25 input  175.53 | X-H torsion
[ 8008 7997 7996 7995 ] final  -42.06 input   59.86 | X-H torsion
[ 10167 10162 10161 10158 ] final  125.35 input  -65.29 | X-H torsion
[ 10718 10713 10712 10709 ] final  -95.18 input   66.30 | X-H torsion
[ 10763 10752 10751 10750 ] final  -27.85 input  -60.55 | X-H torsion
[ 11005 11000 10999 10996 ] final   22.77 input  -57.11 | X-H torsion

> <Gold.Protein.ActiveResidues>
 VAL166  LYS551  ARG553  GLY616  TRP617  ASP618  TYR619  PRO620  LYS621  CYS622 
 ASP623  PHE694  ASN695  SER759  ASP760  ASP761  ALA762  ILE779  LEU786  VAL792 
 PHE793  MET794  SER795  GLU796  ALA797  LYS798  CYS799  TRP800  GLU811  SER814 

> <Gold.Protein.RotatedAtoms>
  151.3524  133.3920  159.2681 H   0  0  0  0  0  0  0  0  0  0  0  0  # atno 6907 bound_to 6896
  150.9790  134.9150  159.7844 H   0  0  0  0  0  0  0  0  0  0  0  0  # atno 6908 bound_to 6896
  152.5211  134.3487  159.9296 H   0  0  0  0  0  0  0  0  0  0  0  0  # atno 6909 bound_to 6896
  146.2429  140.1241  142.8339 H   0  0  0  0  0  0  0  0  0  0  0  0  # atno 7974 bound_to 7965
  154.4000  140.1483  156.3294 H   0  0  0  0  0  0  0  0  0  0  0  0  # atno 8008 bound_to 7997
  155.8457  140.3460  155.5639 H   0  0  0  0  0  0  0  0  0  0  0  0  # atno 8009 bound_to 7997
  155.8038  140.0874  157.1932 H   0  0  0  0  0  0  0  0  0  0  0  0  # atno 8010 bound_to 7997
  139.5690  144.6928  151.3829 H   0  0  0  0  0  0  0  0  0  0  0  0  # atno 10167 bound_to 10162
  156.0039  130.5098  150.6038 H   0  0  0  0  0  0  0  0  0  0  0  0  # atno 10718 bound_to 10713
  153.7387  135.6934  153.4972 H   0  0  0  0  0  0  0  0  0  0  0  0  # atno 10763 bound_to 10752
  153.2084  135.4411  155.0349 H   0  0  0  0  0  0  0  0  0  0  0  0  # atno 10764 bound_to 10752
  154.8228  135.3430  154.6914 H   0  0  0  0  0  0  0  0  0  0  0  0  # atno 10765 bound_to 10752
  140.3770  134.1961  155.7664 H   0  0  0  0  0  0  0  0  0  0  0  0  # atno 11005 bound_to 11000
  145.0381  140.8924  143.5069 LP  0  0  0  0  0  0  0  0  0  0  0  0  # atno 17320 bound_to 7965
  145.1317  139.2628  143.5536 LP  0  0  0  0  0  0  0  0  0  0  0  0  # atno 17321 bound_to 7965
  140.6975  143.7714  150.7349 LP  0  0  0  0  0  0  0  0  0  0  0  0  # atno 17342 bound_to 10162
  140.1215  143.4608  152.2310 LP  0  0  0  0  0  0  0  0  0  0  0  0  # atno 17343 bound_to 10162
  157.3882  131.0791  151.1417 LP  0  0  0  0  0  0  0  0  0  0  0  0  # atno 17370 bound_to 10713
  157.2117  130.6441  149.5777 LP  0  0  0  0  0  0  0  0  0  0  0  0  # atno 17371 bound_to 10713
  141.1936  133.8147  157.0792 LP  0  0  0  0  0  0  0  0  0  0  0  0  # atno 17394 bound_to 11000
  140.0508  134.9806  157.1132 LP  0  0  0  0  0  0  0  0  0  0  0  0  # atno 17395 bound_to 11000

$$$$
