AV-unprocessed.smi:2855|AV-procd|sdf|10981|dock6
  -GOLD-   2272015433D 1   1.00000     0.00000
 Structure written by MMmdl.
 47 48  0  0  0  0  0  0  0  0  1 V2000
  152.2217  144.7494  159.8497 C   0  0  0  0  0  0  0  0  0  0  0  0
  152.2196  143.6065  158.8244 C   0  0  2  0  0  0  0  0  0  0  0  0
  151.0649  143.7532  157.8191 C   0  0  0  0  0  0  0  0  0  0  0  0
  151.0640  142.6122  156.7901 C   0  0  0  0  0  0  0  0  0  0  0  0
  150.9921  141.2232  157.4677 C   0  0  1  0  0  0  0  0  0  0  0  0
  150.8894  140.0450  156.4519 C   0  0  0  0  0  0  0  0  0  0  0  0
  152.1889  139.7704  155.6728 C   0  0  0  0  0  0  0  0  0  0  0  0
  149.7012  140.2013  155.4877 C   0  0  0  0  0  0  0  0  0  0  0  0
  152.1521  141.0771  158.4917 C   0  0  2  0  0  0  0  0  0  0  0  0
  152.0541  139.8097  159.2137 N   0  0  0  0  0  0  0  0  0  0  0  0
  152.9972  138.8561  159.2627 C   0  0  0  0  0  0  0  0  0  0  0  0
  154.1072  138.9691  158.7413 O   0  0  0  0  0  0  0  0  0  0  0  0
  152.6273  137.5792  160.0285 C   0  0  0  0  0  0  0  0  0  0  0  0
  153.5962  137.2603  161.0870 N   0  0  0  0  0  0  0  0  0  0  0  0
  153.8137  138.1479  162.1313 C   0  0  0  0  0  0  0  0  0  0  0  0
  154.6989  137.9206  163.1306 C   0  0  0  0  0  0  0  0  0  0  0  0
  155.4882  136.6936  163.1536 C   0  0  0  0  0  0  0  0  0  0  0  0
  156.3125  136.3966  164.0155 O   0  0  0  0  0  0  0  0  0  0  0  0
  155.2427  135.8275  162.0848 N   0  0  0  0  0  0  0  0  0  0  0  0
  154.3333  136.0560  161.0511 C   0  0  0  0  0  0  0  0  0  0  0  0
  154.1968  135.2259  160.1527 O   0  0  0  0  0  0  0  0  0  0  0  0
  152.1501  142.2317  159.5123 C   0  0  0  0  0  0  0  0  0  0  0  0
  155.7677  134.9655  162.0571 H   0  0  0  0  0  0  0  0  0  0  0  0
  151.3047  144.7551  160.4395 H   0  0  0  0  0  0  0  0  0  0  0  0
  152.3068  145.7182  159.3569 H   0  0  0  0  0  0  0  0  0  0  0  0
  153.0611  144.6561  160.5395 H   0  0  0  0  0  0  0  0  0  0  0  0
  153.1583  143.6600  158.2707 H   0  0  0  0  0  0  0  0  0  0  0  0
  150.1113  143.7657  158.3490 H   0  0  0  0  0  0  0  0  0  0  0  0
  151.1415  144.7097  157.3009 H   0  0  0  0  0  0  0  0  0  0  0  0
  150.2208  142.7554  156.1156 H   0  0  0  0  0  0  0  0  0  0  0  0
  151.9639  142.6860  156.1792 H   0  0  0  0  0  0  0  0  0  0  0  0
  150.0668  141.2064  158.0465 H   0  0  0  0  0  0  0  0  0  0  0  0
  150.6731  139.1402  157.0197 H   0  0  0  0  0  0  0  0  0  0  0  0
  152.4608  140.6074  155.0302 H   0  0  0  0  0  0  0  0  0  0  0  0
  152.0771  138.8939  155.0341 H   0  0  0  0  0  0  0  0  0  0  0  0
  153.0272  139.5719  156.3394 H   0  0  0  0  0  0  0  0  0  0  0  0
  149.8507  141.0210  154.7853 H   0  0  0  0  0  0  0  0  0  0  0  0
  148.7734  140.3876  156.0295 H   0  0  0  0  0  0  0  0  0  0  0  0
  149.5577  139.2944  154.8996 H   0  0  0  0  0  0  0  0  0  0  0  0
  153.0973  141.1289  157.9496 H   0  0  0  0  0  0  0  0  0  0  0  0
  151.1793  139.6265  159.6831 H   0  0  0  0  0  0  0  0  0  0  0  0
  151.6296  137.7134  160.4485 H   0  0  0  0  0  0  0  0  0  0  0  0
  152.5405  136.7356  159.3400 H   0  0  0  0  0  0  0  0  0  0  0  0
  153.2548  139.0727  162.1535 H   0  0  0  0  0  0  0  0  0  0  0  0
  154.8244  138.6511  163.9166 H   0  0  0  0  0  0  0  0  0  0  0  0
  152.9963  142.1200  160.1919 H   0  0  0  0  0  0  0  0  0  0  0  0
  151.2514  142.1772  160.1289 H   0  0  0  0  0  0  0  0  0  0  0  0
  1  2  1  0  0  0  0
  1 24  1  0  0  0  0
  1 25  1  0  0  0  0
  1 26  1  0  0  0  0
  2 22  1  0  0  0  0
  2  3  1  0  0  0  0
  2 27  1  0  0  0  0
  3  4  1  0  0  0  0
  3 28  1  0  0  0  0
  3 29  1  0  0  0  0
  4  5  1  0  0  0  0
  4 30  1  0  0  0  0
  4 31  1  0  0  0  0
  5  6  1  0  0  0  0
  5  9  1  0  0  0  0
  5 32  1  0  0  0  0
  6  7  1  0  0  0  0
  6  8  1  0  0  0  0
  6 33  1  0  0  0  0
  7 34  1  0  0  0  0
  7 35  1  0  0  0  0
  7 36  1  0  0  0  0
  8 37  1  0  0  0  0
  8 38  1  0  0  0  0
  8 39  1  0  0  0  0
  9 10  1  0  0  0  0
  9 22  1  0  0  0  0
  9 40  1  0  0  0  0
 10 11  1  0  0  0  0
 10 41  1  0  0  0  0
 11 12  2  0  0  0  0
 11 13  1  0  0  0  0
 13 14  1  0  0  0  0
 13 42  1  0  0  0  0
 13 43  1  0  0  0  0
 14 20  1  0  0  0  0
 14 15  1  0  0  0  0
 15 16  2  0  0  0  0
 15 44  1  0  0  0  0
 16 17  1  0  0  0  0
 16 45  1  0  0  0  0
 17 18  2  0  0  0  0
 17 19  1  0  0  0  0
 19 23  1  0  0  0  0
 19 20  1  0  0  0  0
 20 21  2  0  0  0  0
 22 46  1  0  0  0  0
 22 47  1  0  0  0  0
M  END
> <s_m_source_file>
AV-unprocessed.smi

> <i_m_source_file_index>
2855

> <i_lp_mmshare_version>
43012

> <i_f3d_flags>
0

> <s_epik_input>
W0NIM11bQ0BASF0xW0NIMl1bQ0gyXVtDQEBIXShbQ0hdKFtDSDNdKVtDSDNdKVtDQEhdKFtDSDJdMSlbTkhdQyg9TylbQ0gyXW4yW2NIXVtjSF1jKD1PKVtuSF1jMj1P

> <s_epik_cmdline>
J2VwaWtfcHl0aG9uJywgJy1waCcsICc3LjAnLCAnLXRuJywgJzgnLCAnLW1hJywgJzIwMCcsICctbWV0YWxfYmluZGluZycsICctaW1hZScsICc8aW5maWxlLm1hZT4nLCAnLW9tYWUnLCAnPG91dGZpbGUubWFlPic=

> <r_lp_tautomer_probability>
0.999537

> <r_epik_Ionization_Penalty>
0.00306256

> <r_epik_Ionization_Penalty_Charging>
0.00306254

> <r_epik_Ionization_Penalty_Neutral>
2.0223e-08

> <r_epik_State_Penalty>
0.0021533

> <r_epik_Charging_Adjusted_Penalty>
0.00521583

> <i_epik_Tot_Q>
0

> <i_epik_Tot_abs_Q>
0

> <r_epik_Metal_State_Penalty>
0.362116

> <b_epik_Metal_Only>
0

> <s_lp_Force_Field>
OPLS_2005

> <r_lp_Energy>
14.402

> <b_lp_Chiralities_Consistent>
1

> <s_lp_Variant>
AV-unprocessed.smi:2855-5

> <Gold.Version>
5.8.1

> <Gold.Id.Protein>
6NUR|6NUR_protein|mol2

> <Gold.PLP.Fitness>
43.7609

> <Gold.PLP.PLP>
-37.8882

> <Gold.PLP.part.hbond>
-2.0000

> <Gold.PLP.part.metal>
0.0000

> <Gold.PLP.part.buried>
-3.5521

> <Gold.PLP.part.nonpolar>
-32.7316

> <Gold.PLP.part.repulsive>
0.1768

> <Gold.PLP.ligand.clash>
0.0000

> <Gold.PLP.ligand.torsion>
0.0931

> <Gold.PLP.Chemscore.Hbond>
2.0000

> <Gold.PLP.Chemscore.CHOScore>
0.0000

> <Gold.PLP.Chemscore.Metal>
0.0000

> <Gold.Chemscore.Hbonds>
donor molecule, donor type, donor heavy atom, donor atom, acceptor molecule, acceptor atom, score
      P1  H  6896  6909       L1    21  1.00
      P1  H  7997  8009       L1    12  1.00

> <Gold.PLP.Chemscore.Internal.Correction>
0.0589

> <Gold.Rescore>
     Score         DG    S(hbond)    S(metal)    S(lipo)     H(rot)  DE(clash)    DE(int)     intcor
     19.20     -19.68       1.96        0.00     105.87       1.85       0.41       0.07       ----

> <Gold.Chemscore.Fitness>
19.1983

> <Gold.Chemscore.DG>
-19.6803

> <Gold.Chemscore.ZeroCoef>
-5.4800

> <Gold.Chemscore.Hbond>
1.9641

> <Gold.Chemscore.Metal>
0.0000

> <Gold.Chemscore.Lipo>
105.8654

> <Gold.Chemscore.Internal_Hbond>
0.0000

> <Gold.Chemscore.DEClash>
0.4072

> <Gold.Chemscore.DEInternal>
0.0748

> <Gold.Chemscore.Rot>
1.8539

> <Gold.Chemscore.Internal.Correction>
   9.000000E+99

> <Gold.Chemscore.Hbonds>
donor molecule, donor type, donor heavy atom, donor atom, acceptor molecule, acceptor atom, score
      P1  H  6896  6909       L1    21  0.82
      P1  H  7997  8009       L1    12  0.96

> <Gold.Chemscore.Hbond.Weighted>
-6.5601

> <Gold.Chemscore.Metal.Weighted>
-0.0000

> <Gold.Chemscore.Lipo.Weighted>
-12.3863

> <Gold.Chemscore.Internal_Hbond.Weighted>
0.0000

> <Gold.Chemscore.DEClash.Weighted>
0.4072

> <Gold.Chemscore.DEInternal.Weighted>
0.0748

> <Gold.Chemscore.Rot.Weighted>
4.7460

> <Gold.Chemscore.Internal.Correction.Weighted>
   9.000000E+99

> <Gold.Protein.RotatedTorsions>
[ 6907 6896 6895 6894 ] final -179.24 input  -60.11 | X-H torsion
[ 7974 7965 7964 7962 ] final  -80.89 input  175.53 | X-H torsion
[ 8008 7997 7996 7995 ] final  121.16 input   59.86 | X-H torsion
[ 10167 10162 10161 10158 ] final   14.44 input  -65.29 | X-H torsion
[ 10718 10713 10712 10709 ] final  -11.68 input   66.30 | X-H torsion
[ 10763 10752 10751 10750 ] final   72.53 input  -60.55 | X-H torsion
[ 11005 11000 10999 10996 ] final   89.94 input  -57.11 | X-H torsion

> <Gold.Protein.ActiveResidues>
 VAL166  LYS551  ARG553  GLY616  TRP617  ASP618  TYR619  PRO620  LYS621  CYS622 
 ASP623  PHE694  ASN695  SER759  ASP760  ASP761  ALA762  ILE779  LEU786  VAL792 
 PHE793  MET794  SER795  GLU796  ALA797  LYS798  CYS799  TRP800  GLU811  SER814 

> <Gold.Protein.RotatedAtoms>
  151.6502  133.3321  159.3149 H   0  0  0  0  0  0  0  0  0  0  0  0  # atno 6907 bound_to 6896
  150.7964  134.7030  159.6570 H   0  0  0  0  0  0  0  0  0  0  0  0  # atno 6908 bound_to 6896
  152.4051  134.6224  160.0106 H   0  0  0  0  0  0  0  0  0  0  0  0  # atno 6909 bound_to 6896
  145.5539  140.9492  143.1484 H   0  0  0  0  0  0  0  0  0  0  0  0  # atno 7974 bound_to 7965
  156.2674  140.2814  156.1264 H   0  0  0  0  0  0  0  0  0  0  0  0  # atno 8008 bound_to 7997
  155.1101  140.0391  157.2739 H   0  0  0  0  0  0  0  0  0  0  0  0  # atno 8009 bound_to 7997
  154.6749  140.2596  155.6974 H   0  0  0  0  0  0  0  0  0  0  0  0  # atno 8010 bound_to 7997
  140.5936  143.8747  150.6896 H   0  0  0  0  0  0  0  0  0  0  0  0  # atno 10167 bound_to 10162
  156.6555  130.4967  149.6048 H   0  0  0  0  0  0  0  0  0  0  0  0  # atno 10718 bound_to 10713
  153.0464  135.5096  154.7758 H   0  0  0  0  0  0  0  0  0  0  0  0  # atno 10763 bound_to 10752
  154.6654  135.2945  154.9814 H   0  0  0  0  0  0  0  0  0  0  0  0  # atno 10764 bound_to 10752
  154.0651  135.6685  153.4869 H   0  0  0  0  0  0  0  0  0  0  0  0  # atno 10765 bound_to 10752
  139.8865  134.8582  156.3213 H   0  0  0  0  0  0  0  0  0  0  0  0  # atno 11005 bound_to 11000
  144.7516  139.7180  143.7271 LP  0  0  0  0  0  0  0  0  0  0  0  0  # atno 17320 bound_to 7965
  146.1898  139.5132  142.9813 LP  0  0  0  0  0  0  0  0  0  0  0  0  # atno 17321 bound_to 7965
  140.2276  143.3761  152.1592 LP  0  0  0  0  0  0  0  0  0  0  0  0  # atno 17342 bound_to 10162
  139.5243  144.7082  151.5288 LP  0  0  0  0  0  0  0  0  0  0  0  0  # atno 17343 bound_to 10162
  156.2051  130.6644  151.1210 LP  0  0  0  0  0  0  0  0  0  0  0  0  # atno 17370 bound_to 10713
  157.7127  131.0726  150.6442 LP  0  0  0  0  0  0  0  0  0  0  0  0  # atno 17371 bound_to 10713
  140.9785  133.7282  156.0637 LP  0  0  0  0  0  0  0  0  0  0  0  0  # atno 17394 bound_to 11000
  140.7780  134.3757  157.5493 LP  0  0  0  0  0  0  0  0  0  0  0  0  # atno 17395 bound_to 11000

$$$$
