AV-unprocessed.smi:2812|AV-procd|sdf|10835|dock10
  -GOLD-   2272015273D 1   1.00000     0.00000
 Structure written by MMmdl.
 55 56  0  0  0  0  0  0  0  0  2 V2000
  144.2679  135.4400  150.3690 C   0  0  0  0  0  0  0  0  0  0  0  0
  144.7725  134.0841  150.8370 C   0  0  0  0  0  0  0  0  0  0  0  0
  144.0679  132.8879  150.4248 C   0  0  0  0  0  0  0  0  0  0  0  0
  144.4979  131.6913  150.8467 C   0  0  0  0  0  0  0  0  0  0  0  0
  145.6262  131.5620  151.6694 N   0  0  0  0  0  0  0  0  0  0  0  0
  146.0264  130.2082  152.0621 C   0  0  0  0  0  0  0  0  0  0  0  0
  146.3607  132.6379  152.0743 C   0  0  0  0  0  0  0  0  0  0  0  0
  147.3894  132.4877  152.7378 O   0  0  0  0  0  0  0  0  0  0  0  0
  145.8537  133.9660  151.6518 C   0  0  0  0  0  0  0  0  0  0  0  0
  146.5421  135.1265  152.0375 N   0  0  0  0  0  0  0  0  0  0  0  0
  146.0190  136.1710  152.7031 C   0  0  0  0  0  0  0  0  0  0  0  0
  144.8591  136.2378  153.1120 O   0  0  0  0  0  0  0  0  0  0  0  0
  146.9104  137.1636  152.8359 N   0  0  0  0  0  0  0  0  0  0  0  0
  146.6394  138.4542  153.4640 C   0  0  0  0  0  0  0  0  0  0  0  0
  147.9146  139.3271  153.6562 C   0  0  2  0  0  0  0  0  0  0  0  0
  149.0118  138.5079  154.3862 C   0  0  0  0  0  0  0  0  0  0  0  0
  150.2988  139.3082  154.5909 C   0  0  0  0  0  0  0  0  0  0  0  0
  149.9761  140.5989  155.3377 C   0  0  0  0  0  0  0  0  0  0  0  0
  148.9084  141.3989  154.5823 C   0  0  0  0  0  0  0  0  0  0  0  0
  147.6520  140.6169  154.3845 N   0  3  1  0  0  0  0  0  0  0  0  0
  146.5696  141.4597  153.7900 C   0  0  0  0  0  0  0  0  0  0  0  0
  146.4931  142.8983  154.3568 C   0  0  0  0  0  0  0  0  0  0  0  0
  145.9250  142.9267  155.7860 C   0  0  0  0  0  0  0  0  0  0  0  0
  145.6536  143.7930  153.4323 C   0  0  0  0  0  0  0  0  0  0  0  0
  143.3868  135.3360  149.7353 H   0  0  0  0  0  0  0  0  0  0  0  0
  145.0358  135.9580  149.7939 H   0  0  0  0  0  0  0  0  0  0  0  0
  143.9958  136.0613  151.2228 H   0  0  0  0  0  0  0  0  0  0  0  0
  143.1980  132.9539  149.7879 H   0  0  0  0  0  0  0  0  0  0  0  0
  144.0128  130.7654  150.5739 H   0  0  0  0  0  0  0  0  0  0  0  0
  146.1520  130.1385  153.1438 H   0  0  0  0  0  0  0  0  0  0  0  0
  146.9734  129.9410  151.5910 H   0  0  0  0  0  0  0  0  0  0  0  0
  145.2925  129.4537  151.7766 H   0  0  0  0  0  0  0  0  0  0  0  0
  147.4688  135.2359  151.6525 H   0  0  0  0  0  0  0  0  0  0  0  0
  147.8391  137.0217  152.4658 H   0  0  0  0  0  0  0  0  0  0  0  0
  145.8973  138.9430  152.8345 H   0  0  0  0  0  0  0  0  0  0  0  0
  146.1634  138.2686  154.4272 H   0  0  0  0  0  0  0  0  0  0  0  0
  148.2943  139.5944  152.6686 H   0  0  0  0  0  0  0  0  0  0  0  0
  148.6350  138.1720  155.3534 H   0  0  0  0  0  0  0  0  0  0  0  0
  149.2635  137.6066  153.8273 H   0  0  0  0  0  0  0  0  0  0  0  0
  151.0263  138.7191  155.1501 H   0  0  0  0  0  0  0  0  0  0  0  0
  150.7530  139.5375  153.6259 H   0  0  0  0  0  0  0  0  0  0  0  0
  149.6250  140.3699  156.3450 H   0  0  0  0  0  0  0  0  0  0  0  0
  150.8799  141.1980  155.4520 H   0  0  0  0  0  0  0  0  0  0  0  0
  148.7220  142.3034  155.1566 H   0  0  0  0  0  0  0  0  0  0  0  0
  149.2949  141.7171  153.6126 H   0  0  0  0  0  0  0  0  0  0  0  0
  146.6922  141.4834  152.7060 H   0  0  0  0  0  0  0  0  0  0  0  0
  145.5916  141.0265  153.9759 H   0  0  0  0  0  0  0  0  0  0  0  0
  147.4866  143.3429  154.3779 H   0  0  0  0  0  0  0  0  0  0  0  0
  144.9244  142.4944  155.8241 H   0  0  0  0  0  0  0  0  0  0  0  0
  145.8589  143.9485  156.1610 H   0  0  0  0  0  0  0  0  0  0  0  0
  146.5556  142.3696  156.4791 H   0  0  0  0  0  0  0  0  0  0  0  0
  144.6242  143.4394  153.3625 H   0  0  0  0  0  0  0  0  0  0  0  0
  146.0670  143.8146  152.4234 H   0  0  0  0  0  0  0  0  0  0  0  0
  145.6264  144.8206  153.7965 H   0  0  0  0  0  0  0  0  0  0  0  0
  147.3277  140.3545  155.3041 H   0  0  0  0  0  0  0  0  0  0  0  0
  1  2  1  0  0  0  0
  1 25  1  0  0  0  0
  1 26  1  0  0  0  0
  1 27  1  0  0  0  0
  2  9  2  0  0  0  0
  2  3  1  0  0  0  0
  3  4  2  0  0  0  0
  3 28  1  0  0  0  0
  4  5  1  0  0  0  0
  4 29  1  0  0  0  0
  5  6  1  0  0  0  0
  5  7  1  0  0  0  0
  6 30  1  0  0  0  0
  6 31  1  0  0  0  0
  6 32  1  0  0  0  0
  7  8  2  0  0  0  0
  7  9  1  0  0  0  0
  9 10  1  0  0  0  0
 10 11  1  0  0  0  0
 10 33  1  0  0  0  0
 11 12  2  0  0  0  0
 11 13  1  0  0  0  0
 13 14  1  0  0  0  0
 13 34  1  0  0  0  0
 14 15  1  0  0  0  0
 14 35  1  0  0  0  0
 14 36  1  0  0  0  0
 15 20  1  0  0  0  0
 15 16  1  0  0  0  0
 15 37  1  0  0  0  0
 16 17  1  0  0  0  0
 16 38  1  0  0  0  0
 16 39  1  0  0  0  0
 17 18  1  0  0  0  0
 17 40  1  0  0  0  0
 17 41  1  0  0  0  0
 18 19  1  0  0  0  0
 18 42  1  0  0  0  0
 18 43  1  0  0  0  0
 19 20  1  0  0  0  0
 19 44  1  0  0  0  0
 19 45  1  0  0  0  0
 20 21  1  0  0  0  0
 20 55  1  0  0  0  0
 21 22  1  0  0  0  0
 21 46  1  0  0  0  0
 21 47  1  0  0  0  0
 22 23  1  0  0  0  0
 22 24  1  0  0  0  0
 22 48  1  0  0  0  0
 23 49  1  0  0  0  0
 23 50  1  0  0  0  0
 23 51  1  0  0  0  0
 24 52  1  0  0  0  0
 24 53  1  0  0  0  0
 24 54  1  0  0  0  0
M  CHG  1  20   1
M  END
> <s_m_source_file>
AV-unprocessed.smi

> <i_m_source_file_index>
2812

> <i_lp_mmshare_version>
43012

> <i_f3d_flags>
0

> <s_epik_input>
W0NIM11jMVtjSF1bY0hdbihbQ0gzXSljKD1PKWMxW05IXUMoPU8pW05IXVtDSDJdW0NAQEhdMltDSDJdW0NIMl1bQ0gyXVtDSDJdTjJbQ0gyXVtDSF0oW0NIM10pW0NIM10=

> <s_epik_cmdline>
J2VwaWtfcHl0aG9uJywgJy1waCcsICc3LjAnLCAnLXRuJywgJzgnLCAnLW1hJywgJzIwMCcsICctbWV0YWxfYmluZGluZycsICctaW1hZScsICc8aW5maWxlLm1hZT4nLCAnLW9tYWUnLCAnPG91dGZpbGUubWFlPic=

> <r_lp_tautomer_probability>
1

> <r_epik_Ionization_Penalty>
0.0010902

> <r_epik_Ionization_Penalty_Charging>
0.00107091

> <r_epik_Ionization_Penalty_Neutral>
1.92854e-05

> <r_epik_State_Penalty>
0.000697184

> <r_epik_Charging_Adjusted_Penalty>
0.0017681

> <i_epik_Tot_Q>
1

> <i_epik_Tot_abs_Q>
1

> <r_epik_Metal_State_Penalty>
-0

> <b_epik_Metal_Only>
0

> <s_lp_Force_Field>
OPLS_2005

> <r_lp_Energy>
39.8559

> <b_lp_Chiralities_Consistent>
1

> <s_lp_Variant>
AV-unprocessed.smi:2812-3

> <Gold.Version>
5.8.1

> <Gold.Id.Protein>
6NUR|6NUR_protein|mol2

> <Gold.PLP.Fitness>
50.5480

> <Gold.PLP.PLP>
-46.1955

> <Gold.PLP.part.hbond>
-1.7082

> <Gold.PLP.part.metal>
0.0000

> <Gold.PLP.part.buried>
-4.9406

> <Gold.PLP.part.nonpolar>
-40.2419

> <Gold.PLP.part.repulsive>
0.3576

> <Gold.PLP.ligand.clash>
0.0000

> <Gold.PLP.ligand.torsion>
0.8144

> <Gold.PLP.Chemscore.Hbond>
1.7418

> <Gold.PLP.Chemscore.CHOScore>
0.0000

> <Gold.PLP.Chemscore.Metal>
0.0000

> <Gold.Chemscore.Hbonds>
donor molecule, donor type, donor heavy atom, donor atom, acceptor molecule, acceptor atom, score
      L1  H    10    33       P1  7948  0.85
      L1  H    13    34       P1  7948  0.89

> <Gold.PLP.Chemscore.Internal.Correction>
0.7560

> <Gold.Rescore>
     Score         DG    S(hbond)    S(metal)    S(lipo)     H(rot)  DE(clash)    DE(int)     intcor
     18.83     -20.06       1.74        0.00     108.22       1.52       0.42       0.81       ----

> <Gold.Chemscore.Fitness>
18.8308

> <Gold.Chemscore.DG>
-20.0614

> <Gold.Chemscore.ZeroCoef>
-5.4800

> <Gold.Chemscore.Hbond>
1.7364

> <Gold.Chemscore.Metal>
0.0000

> <Gold.Chemscore.Lipo>
108.2243

> <Gold.Chemscore.Internal_Hbond>
0.0000

> <Gold.Chemscore.DEClash>
0.4188

> <Gold.Chemscore.DEInternal>
0.8117

> <Gold.Chemscore.Rot>
1.5157

> <Gold.Chemscore.Internal.Correction>
   9.000000E+99

> <Gold.Chemscore.Hbonds>
donor molecule, donor type, donor heavy atom, donor atom, acceptor molecule, acceptor atom, score
      L1  H    10    33       P1  7948  0.75
      L1  H    13    34       P1  7948  0.84

> <Gold.Chemscore.Hbond.Weighted>
-5.7994

> <Gold.Chemscore.Metal.Weighted>
-0.0000

> <Gold.Chemscore.Lipo.Weighted>
-12.6622

> <Gold.Chemscore.Internal_Hbond.Weighted>
0.0000

> <Gold.Chemscore.DEClash.Weighted>
0.4188

> <Gold.Chemscore.DEInternal.Weighted>
0.8117

> <Gold.Chemscore.Rot.Weighted>
3.8803

> <Gold.Chemscore.Internal.Correction.Weighted>
   9.000000E+99

> <Gold.Protein.RotatedTorsions>
[ 6907 6896 6895 6894 ] final  -40.57 input  -60.11 | X-H torsion
[ 7974 7965 7964 7962 ] final  171.91 input  175.53 | X-H torsion
[ 8008 7997 7996 7995 ] final  -73.31 input   59.86 | X-H torsion
[ 10167 10162 10161 10158 ] final   31.73 input  -65.29 | X-H torsion
[ 10718 10713 10712 10709 ] final -119.89 input   66.30 | X-H torsion
[ 10763 10752 10751 10750 ] final   84.05 input  -60.55 | X-H torsion
[ 11005 11000 10999 10996 ] final  -48.99 input  -57.11 | X-H torsion

> <Gold.Protein.ActiveResidues>
 VAL166  LYS551  ARG553  GLY616  TRP617  ASP618  TYR619  PRO620  LYS621  CYS622 
 ASP623  PHE694  ASN695  SER759  ASP760  ASP761  ALA762  ILE779  LEU786  VAL792 
 PHE793  MET794  SER795  GLU796  ALA797  LYS798  CYS799  TRP800  GLU811  SER814 

> <Gold.Protein.RotatedAtoms>
  150.9769  134.9132  159.7821 H   0  0  0  0  0  0  0  0  0  0  0  0  # atno 6907 bound_to 6896
  152.5209  134.3463  159.9245 H   0  0  0  0  0  0  0  0  0  0  0  0  # atno 6908 bound_to 6896
  151.3471  133.3899  159.2711 H   0  0  0  0  0  0  0  0  0  0  0  0  # atno 6909 bound_to 6896
  144.7282  139.9420  143.6429 H   0  0  0  0  0  0  0  0  0  0  0  0  # atno 7974 bound_to 7965
  154.5237  140.0781  156.8218 H   0  0  0  0  0  0  0  0  0  0  0  0  # atno 8008 bound_to 7997
  155.3522  140.3413  155.4221 H   0  0  0  0  0  0  0  0  0  0  0  0  # atno 8009 bound_to 7997
  156.1708  140.1619  156.8437 H   0  0  0  0  0  0  0  0  0  0  0  0  # atno 8010 bound_to 7997
  140.4562  144.0975  150.6202 H   0  0  0  0  0  0  0  0  0  0  0  0  # atno 10167 bound_to 10162
  156.1216  130.6327  150.9473 H   0  0  0  0  0  0  0  0  0  0  0  0  # atno 10718 bound_to 10713
  153.1346  135.4668  154.9402 H   0  0  0  0  0  0  0  0  0  0  0  0  # atno 10763 bound_to 10752
  154.7695  135.3154  154.8222 H   0  0  0  0  0  0  0  0  0  0  0  0  # atno 10764 bound_to 10752
  153.8757  135.6899  153.4825 H   0  0  0  0  0  0  0  0  0  0  0  0  # atno 10765 bound_to 10752
  141.0733  133.6673  156.3521 H   0  0  0  0  0  0  0  0  0  0  0  0  # atno 11005 bound_to 11000
  146.0777  139.3765  143.0483 LP  0  0  0  0  0  0  0  0  0  0  0  0  # atno 17320 bound_to 7965
  145.7883  140.9826  143.1063 LP  0  0  0  0  0  0  0  0  0  0  0  0  # atno 17321 bound_to 7965
  140.4148  143.2639  151.9788 LP  0  0  0  0  0  0  0  0  0  0  0  0  # atno 17342 bound_to 10162
  139.4801  144.5883  151.7815 LP  0  0  0  0  0  0  0  0  0  0  0  0  # atno 17343 bound_to 10162
  157.6399  131.0911  150.8272 LP  0  0  0  0  0  0  0  0  0  0  0  0  # atno 17370 bound_to 10713
  156.8368  130.5034  149.5325 LP  0  0  0  0  0  0  0  0  0  0  0  0  # atno 17371 bound_to 10713
  140.5627  134.5918  157.5438 LP  0  0  0  0  0  0  0  0  0  0  0  0  # atno 17394 bound_to 11000
  139.9546  134.7558  156.0371 LP  0  0  0  0  0  0  0  0  0  0  0  0  # atno 17395 bound_to 11000

$$$$
