AV-unprocessed.smi:1207|AV-procd|sdf|5051|dock5
  -GOLD-   22720 4 83D 1   1.00000     0.00000
 Structure written by MMmdl.
 52 54  0  0  0  0  0  0  0  0  2 V2000
  152.7086  141.4708  159.3560 C   0  0  0  0  0  0  0  0  0  0  0  0
  151.7186  141.4735  158.2044 C   0  0  0  0  0  0  0  0  0  0  0  0
  151.7797  140.4390  157.2438 C   0  0  0  0  0  0  0  0  0  0  0  0
  150.8765  140.4039  156.1592 C   0  0  0  0  0  0  0  0  0  0  0  0
  150.7598  139.5012  155.1165 N   0  0  0  0  0  0  0  0  0  0  0  0
  149.7359  140.0077  154.4365 C   0  0  0  0  0  0  0  0  0  0  0  0
  149.1821  141.1414  154.9090 N   0  0  0  0  0  0  0  0  0  0  0  0
  148.0705  141.8764  154.3323 C   0  0  0  0  0  0  0  0  0  0  0  0
  146.7190  141.1485  154.4917 C   0  0  2  0  0  0  0  0  0  0  0  0
  146.4421  140.5006  153.2661 O   0  0  0  0  0  0  0  0  0  0  0  0
  145.5527  142.0984  154.8525 C   0  0  0  0  0  0  0  0  0  0  0  0
  144.2623  141.4045  155.1224 N   0  3  1  0  0  0  0  0  0  0  0  0
  144.3768  140.3411  156.1498 C   0  0  0  0  0  0  0  0  0  0  0  0
  143.1554  142.3431  155.4444 C   0  0  0  0  0  0  0  0  0  0  0  0
  143.5968  143.4604  156.3564 C   0  0  0  0  0  0  0  0  0  0  0  0
  143.4978  144.8633  156.1292 C   0  0  0  0  0  0  0  0  0  0  0  0
  142.9327  145.5818  154.9377 C   0  0  0  0  0  0  0  0  0  0  0  0
  143.9853  145.5628  157.1387 N   0  0  0  0  0  0  0  0  0  0  0  0
  144.4232  144.6255  158.0789 O   0  0  0  0  0  0  0  0  0  0  0  0
  144.1787  143.3825  157.5932 C   0  0  0  0  0  0  0  0  0  0  0  0
  144.5856  142.2406  158.4632 C   0  0  0  0  0  0  0  0  0  0  0  0
  149.9019  141.4400  156.0611 C   0  0  0  0  0  0  0  0  0  0  0  0
  149.8299  142.4733  157.0119 C   0  0  0  0  0  0  0  0  0  0  0  0
  150.7421  142.4951  158.0875 C   0  0  0  0  0  0  0  0  0  0  0  0
  150.6609  143.6189  159.1057 C   0  0  0  0  0  0  0  0  0  0  0  0
  153.3777  140.6115  159.3040 H   0  0  0  0  0  0  0  0  0  0  0  0
  152.1841  141.4273  160.3108 H   0  0  0  0  0  0  0  0  0  0  0  0
  153.3203  142.3730  159.3368 H   0  0  0  0  0  0  0  0  0  0  0  0
  152.5233  139.6603  157.3328 H   0  0  0  0  0  0  0  0  0  0  0  0
  149.3734  139.5324  153.5365 H   0  0  0  0  0  0  0  0  0  0  0  0
  148.0275  142.8562  154.8114 H   0  0  0  0  0  0  0  0  0  0  0  0
  148.2860  142.0550  153.2781 H   0  0  0  0  0  0  0  0  0  0  0  0
  146.8374  140.3862  155.2604 H   0  0  0  0  0  0  0  0  0  0  0  0
  145.5289  140.6195  153.0550 H   0  0  0  0  0  0  0  0  0  0  0  0
  145.8030  142.6986  155.7283 H   0  0  0  0  0  0  0  0  0  0  0  0
  145.4360  142.7991  154.0268 H   0  0  0  0  0  0  0  0  0  0  0  0
  144.7485  140.7465  157.0918 H   0  0  0  0  0  0  0  0  0  0  0  0
  145.0452  139.5428  155.8298 H   0  0  0  0  0  0  0  0  0  0  0  0
  143.4086  139.8768  156.3404 H   0  0  0  0  0  0  0  0  0  0  0  0
  142.7708  142.7681  154.5166 H   0  0  0  0  0  0  0  0  0  0  0  0
  142.3260  141.7797  155.8741 H   0  0  0  0  0  0  0  0  0  0  0  0
  143.1025  145.0184  154.0201 H   0  0  0  0  0  0  0  0  0  0  0  0
  143.3889  146.5642  154.8087 H   0  0  0  0  0  0  0  0  0  0  0  0
  141.8574  145.7263  155.0453 H   0  0  0  0  0  0  0  0  0  0  0  0
  144.2050  141.2943  158.0796 H   0  0  0  0  0  0  0  0  0  0  0  0
  144.2027  142.3705  159.4756 H   0  0  0  0  0  0  0  0  0  0  0  0
  145.6719  142.1679  158.5191 H   0  0  0  0  0  0  0  0  0  0  0  0
  149.0786  143.2430  156.9155 H   0  0  0  0  0  0  0  0  0  0  0  0
  149.8540  144.3133  158.8693 H   0  0  0  0  0  0  0  0  0  0  0  0
  151.5930  144.1840  159.1258 H   0  0  0  0  0  0  0  0  0  0  0  0
  150.4764  143.2189  160.1029 H   0  0  0  0  0  0  0  0  0  0  0  0
  143.9963  140.9459  154.2628 H   0  0  0  0  0  0  0  0  0  0  0  0
  1  2  1  0  0  0  0
  1 26  1  0  0  0  0
  1 27  1  0  0  0  0
  1 28  1  0  0  0  0
  2 24  1  0  0  0  0
  2  3  2  0  0  0  0
  3  4  1  0  0  0  0
  3 29  1  0  0  0  0
  4 22  2  0  0  0  0
  4  5  1  0  0  0  0
  5  6  2  0  0  0  0
  6  7  1  0  0  0  0
  6 30  1  0  0  0  0
  7  8  1  0  0  0  0
  7 22  1  0  0  0  0
  8  9  1  0  0  0  0
  8 31  1  0  0  0  0
  8 32  1  0  0  0  0
  9 10  1  0  0  0  0
  9 11  1  0  0  0  0
  9 33  1  0  0  0  0
 10 34  1  0  0  0  0
 11 12  1  0  0  0  0
 11 35  1  0  0  0  0
 11 36  1  0  0  0  0
 12 13  1  0  0  0  0
 12 14  1  0  0  0  0
 12 52  1  0  0  0  0
 13 37  1  0  0  0  0
 13 38  1  0  0  0  0
 13 39  1  0  0  0  0
 14 15  1  0  0  0  0
 14 40  1  0  0  0  0
 14 41  1  0  0  0  0
 15 20  2  0  0  0  0
 15 16  1  0  0  0  0
 16 17  1  0  0  0  0
 16 18  2  0  0  0  0
 17 42  1  0  0  0  0
 17 43  1  0  0  0  0
 17 44  1  0  0  0  0
 18 19  1  0  0  0  0
 19 20  1  0  0  0  0
 20 21  1  0  0  0  0
 21 45  1  0  0  0  0
 21 46  1  0  0  0  0
 21 47  1  0  0  0  0
 22 23  1  0  0  0  0
 23 24  2  0  0  0  0
 23 48  1  0  0  0  0
 24 25  1  0  0  0  0
 25 49  1  0  0  0  0
 25 50  1  0  0  0  0
 25 51  1  0  0  0  0
M  CHG  1  12   1
M  END
> <s_m_source_file>
AV-unprocessed.smi

> <i_m_source_file_index>
1207

> <i_lp_mmshare_version>
43012

> <i_f3d_flags>
0

> <s_epik_input>
W0NIM11jKFtjSF0xKWMoW0NIM10pW2NIXWMoYzEyKW4oW2NIXW4yKVtDSDJdW0NASF0oW09IXSlbQ0gyXU4oW0NIM10pW0NIMl1jM2MoW0NIM10pbm9jM1tDSDNd

> <s_epik_cmdline>
J2VwaWtfcHl0aG9uJywgJy1waCcsICc3LjAnLCAnLXRuJywgJzgnLCAnLW1hJywgJzIwMCcsICctbWV0YWxfYmluZGluZycsICctaW1hZScsICc8aW5maWxlLm1hZT4nLCAnLW9tYWUnLCAnPG91dGZpbGUubWFlPic=

> <r_epik_Ionization_Penalty>
0.646518

> <r_epik_Ionization_Penalty_Charging>
0.559419

> <r_epik_Ionization_Penalty_Neutral>
0.0870981

> <r_epik_State_Penalty>
0.661677

> <r_epik_Charging_Adjusted_Penalty>
1.2211

> <i_epik_Tot_Q>
1

> <i_epik_Tot_abs_Q>
1

> <r_epik_Metal_State_Penalty>
0.649158

> <b_epik_Metal_Only>
0

> <s_lp_Force_Field>
OPLS_2005

> <r_lp_Energy>
10.0626

> <b_lp_Chiralities_Consistent>
1

> <s_lp_Variant>
AV-unprocessed.smi:1207-3

> <Gold.Version>
5.8.1

> <Gold.Id.Protein>
6NUR|6NUR_protein|mol2

> <Gold.PLP.Fitness>
48.2461

> <Gold.PLP.PLP>
-38.0993

> <Gold.PLP.part.hbond>
-2.0489

> <Gold.PLP.part.metal>
0.0000

> <Gold.PLP.part.buried>
0.1104

> <Gold.PLP.part.nonpolar>
-36.1511

> <Gold.PLP.part.repulsive>
0.2648

> <Gold.PLP.ligand.clash>
0.0000

> <Gold.PLP.ligand.torsion>
0.9574

> <Gold.PLP.Chemscore.Hbond>
3.0000

> <Gold.PLP.Chemscore.CHOScore>
0.9444

> <Gold.PLP.Chemscore.Metal>
0.0000

> <Gold.Chemscore.Hbonds>
donor molecule, donor type, donor heavy atom, donor atom, acceptor molecule, acceptor atom, score
      L1  H    10    34       P1 10175  1.00
      L1  H    12    52       P1 10175  2.00
      L1  C     6    30       P1  7957  1.00

> <Gold.PLP.Chemscore.Internal.Correction>
0.2286

> <Gold.Rescore>
     Score         DG    S(hbond)    S(metal)    S(lipo)     H(rot)  DE(clash)    DE(int)     intcor
     14.97     -17.74       1.92        0.00     103.77       2.46       1.80       0.97       ----

> <Gold.Chemscore.Fitness>
14.9693

> <Gold.Chemscore.DG>
-17.7406

> <Gold.Chemscore.ZeroCoef>
-5.4800

> <Gold.Chemscore.Hbond>
1.9187

> <Gold.Chemscore.Metal>
0.0000

> <Gold.Chemscore.Lipo>
103.7674

> <Gold.Chemscore.Internal_Hbond>
0.0000

> <Gold.Chemscore.DEClash>
1.7984

> <Gold.Chemscore.DEInternal>
0.9729

> <Gold.Chemscore.Rot>
2.4565

> <Gold.Chemscore.Internal.Correction>
   9.000000E+99

> <Gold.Chemscore.Hbonds>
donor molecule, donor type, donor heavy atom, donor atom, acceptor molecule, acceptor atom, score
      L1  H    10    34       P1 10175  0.78
      L1  H    12    52       P1 10175  0.91

> <Gold.Chemscore.Hbond.Weighted>
-6.4085

> <Gold.Chemscore.Metal.Weighted>
-0.0000

> <Gold.Chemscore.Lipo.Weighted>
-12.1408

> <Gold.Chemscore.Internal_Hbond.Weighted>
0.0000

> <Gold.Chemscore.DEClash.Weighted>
1.7984

> <Gold.Chemscore.DEInternal.Weighted>
0.9729

> <Gold.Chemscore.Rot.Weighted>
6.2887

> <Gold.Chemscore.Internal.Correction.Weighted>
   9.000000E+99

> <Gold.Protein.RotatedTorsions>
[ 6907 6896 6895 6894 ] final  -79.84 input  -60.11 | X-H torsion
[ 7974 7965 7964 7962 ] final -128.42 input  175.53 | X-H torsion
[ 8008 7997 7996 7995 ] final -153.93 input   59.86 | X-H torsion
[ 10167 10162 10161 10158 ] final  134.59 input  -65.29 | X-H torsion
[ 10718 10713 10712 10709 ] final   16.03 input   66.30 | X-H torsion
[ 10763 10752 10751 10750 ] final  -50.68 input  -60.55 | X-H torsion
[ 11005 11000 10999 10996 ] final  179.27 input  -57.11 | X-H torsion

> <Gold.Protein.ActiveResidues>
 VAL166  LYS551  ARG553  GLY616  TRP617  ASP618  TYR619  PRO620  LYS621  CYS622 
 ASP623  PHE694  ASN695  SER759  ASP760  ASP761  ALA762  ILE779  LEU786  VAL792 
 PHE793  MET794  SER795  GLU796  ALA797  LYS798  CYS799  TRP800  GLU811  SER814 

> <Gold.Protein.RotatedAtoms>
  150.6941  134.4060  159.5139 H   0  0  0  0  0  0  0  0  0  0  0  0  # atno 6907 bound_to 6896
  152.1826  134.8738  160.0534 H   0  0  0  0  0  0  0  0  0  0  0  0  # atno 6908 bound_to 6896
  151.9723  133.3695  159.4113 H   0  0  0  0  0  0  0  0  0  0  0  0  # atno 6909 bound_to 6896
  144.9672  140.7508  143.4693 H   0  0  0  0  0  0  0  0  0  0  0  0  # atno 7974 bound_to 7965
  155.6784  140.0741  157.2494 H   0  0  0  0  0  0  0  0  0  0  0  0  # atno 8008 bound_to 7997
  154.4110  140.1686  156.2008 H   0  0  0  0  0  0  0  0  0  0  0  0  # atno 8009 bound_to 7997
  155.9556  140.3374  155.6448 H   0  0  0  0  0  0  0  0  0  0  0  0  # atno 8010 bound_to 7997
  139.5250  144.6560  151.5161 H   0  0  0  0  0  0  0  0  0  0  0  0  # atno 10167 bound_to 10162
  157.0621  130.6313  149.5788 H   0  0  0  0  0  0  0  0  0  0  0  0  # atno 10718 bound_to 10713
  154.1142  135.6544  153.4891 H   0  0  0  0  0  0  0  0  0  0  0  0  # atno 10763 bound_to 10752
  153.0246  135.5255  154.7161 H   0  0  0  0  0  0  0  0  0  0  0  0  # atno 10764 bound_to 10752
  154.6350  135.2981  155.0141 H   0  0  0  0  0  0  0  0  0  0  0  0  # atno 10765 bound_to 10752
  140.4043  134.6749  157.4579 H   0  0  0  0  0  0  0  0  0  0  0  0  # atno 11005 bound_to 11000
  145.2612  139.1991  143.4891 LP  0  0  0  0  0  0  0  0  0  0  0  0  # atno 17320 bound_to 7965
  146.3371  140.2542  142.8599 LP  0  0  0  0  0  0  0  0  0  0  0  0  # atno 17321 bound_to 7965
  140.6386  143.8935  150.6670 LP  0  0  0  0  0  0  0  0  0  0  0  0  # atno 17342 bound_to 10162
  140.2262  143.3771  152.1603 LP  0  0  0  0  0  0  0  0  0  0  0  0  # atno 17343 bound_to 10162
  155.9975  130.5047  150.7538 LP  0  0  0  0  0  0  0  0  0  0  0  0  # atno 17370 bound_to 10713
  157.4946  131.0914  151.0386 LP  0  0  0  0  0  0  0  0  0  0  0  0  # atno 17371 bound_to 10713
  140.0314  134.6401  155.9102 LP  0  0  0  0  0  0  0  0  0  0  0  0  # atno 17394 bound_to 11000
  141.1845  133.6553  156.5160 LP  0  0  0  0  0  0  0  0  0  0  0  0  # atno 17395 bound_to 11000

$$$$
