AV-unprocessed.smi:3235|AV-procd|sdf|12360|dock1
  -GOLD-   2272018223D 1   1.00000     0.00000
 Structure written by MMmdl.
 41 42  0  0  0  0  0  0  0  0  2 V2000
  145.8282  132.9031  150.0673 C   0  0  0  0  0  0  0  0  0  0  0  0
  145.4011  134.2276  150.6312 C   0  0  0  0  0  0  0  0  0  0  0  0
  144.1378  134.8691  150.4899 C   0  0  0  0  0  0  0  0  0  0  0  0
  144.0817  136.0362  151.1110 N   0  0  0  0  0  0  0  0  0  0  0  0
  145.3030  136.1816  151.6667 N   0  0  0  0  0  0  0  0  0  0  0  0
  145.6044  137.3722  152.4373 C   0  0  0  0  0  0  0  0  0  0  0  0
  146.4294  138.3803  151.6244 C   0  0  0  0  0  0  0  0  0  0  0  0
  147.7134  138.6766  152.2883 N   0  3  0  0  0  0  0  0  0  0  0  0
  147.5774  139.0557  153.7080 C   0  0  0  0  0  0  0  0  0  0  0  0
  148.9433  139.0945  154.4046 C   0  0  0  0  0  0  0  0  0  0  0  0
  149.5704  140.4988  154.3811 C   0  0  0  0  0  0  0  0  0  0  0  0
  150.2913  140.7930  155.6169 N   0  0  0  0  0  0  0  0  0  0  0  0
  149.5993  141.3561  156.7643 C   0  0  0  0  0  0  0  0  0  0  0  0
  150.7063  141.6816  157.7775 C   0  0  0  0  0  0  0  0  0  0  0  0
  151.9583  140.9535  157.2760 C   0  0  0  0  0  0  0  0  0  0  0  0
  151.5819  140.5386  155.8638 C   0  0  0  0  0  0  0  0  0  0  0  0
  152.3845  140.0363  155.0785 O   0  0  0  0  0  0  0  0  0  0  0  0
  146.1184  135.1028  151.3970 C   0  0  0  0  0  0  0  0  0  0  0  0
  145.4721  132.7669  149.0460 H   0  0  0  0  0  0  0  0  0  0  0  0
  145.4405  132.0721  150.6567 H   0  0  0  0  0  0  0  0  0  0  0  0
  146.9134  132.8027  150.0441 H   0  0  0  0  0  0  0  0  0  0  0  0
  143.2651  134.5229  149.9559 H   0  0  0  0  0  0  0  0  0  0  0  0
  144.6645  137.8197  152.7646 H   0  0  0  0  0  0  0  0  0  0  0  0
  146.1453  137.0756  153.3370 H   0  0  0  0  0  0  0  0  0  0  0  0
  146.6230  137.9848  150.6261 H   0  0  0  0  0  0  0  0  0  0  0  0
  145.8715  139.3096  151.5001 H   0  0  0  0  0  0  0  0  0  0  0  0
  148.3002  137.8564  152.2307 H   0  0  0  0  0  0  0  0  0  0  0  0
  147.0965  140.0324  153.7747 H   0  0  0  0  0  0  0  0  0  0  0  0
  146.9245  138.3391  154.2083 H   0  0  0  0  0  0  0  0  0  0  0  0
  148.8293  138.7588  155.4363 H   0  0  0  0  0  0  0  0  0  0  0  0
  149.6195  138.3875  153.9221 H   0  0  0  0  0  0  0  0  0  0  0  0
  150.2548  140.5854  153.5360 H   0  0  0  0  0  0  0  0  0  0  0  0
  148.7982  141.2544  154.2289 H   0  0  0  0  0  0  0  0  0  0  0  0
  149.0294  142.2443  156.4883 H   0  0  0  0  0  0  0  0  0  0  0  0
  148.9067  140.6156  157.1670 H   0  0  0  0  0  0  0  0  0  0  0  0
  150.8879  142.7569  157.8019 H   0  0  0  0  0  0  0  0  0  0  0  0
  150.4321  141.3731  158.7870 H   0  0  0  0  0  0  0  0  0  0  0  0
  152.8393  141.5962  157.2818 H   0  0  0  0  0  0  0  0  0  0  0  0
  152.1675  140.0647  157.8718 H   0  0  0  0  0  0  0  0  0  0  0  0
  147.1322  135.0474  151.7655 H   0  0  0  0  0  0  0  0  0  0  0  0
  148.1651  139.4329  151.7943 H   0  0  0  0  0  0  0  0  0  0  0  0
  1  2  1  0  0  0  0
  1 19  1  0  0  0  0
  1 20  1  0  0  0  0
  1 21  1  0  0  0  0
  2 18  2  0  0  0  0
  2  3  1  0  0  0  0
  3  4  2  0  0  0  0
  3 22  1  0  0  0  0
  4  5  1  0  0  0  0
  5  6  1  0  0  0  0
  5 18  1  0  0  0  0
  6  7  1  0  0  0  0
  6 23  1  0  0  0  0
  6 24  1  0  0  0  0
  7  8  1  0  0  0  0
  7 25  1  0  0  0  0
  7 26  1  0  0  0  0
  8  9  1  0  0  0  0
  8 27  1  0  0  0  0
  8 41  1  0  0  0  0
  9 10  1  0  0  0  0
  9 28  1  0  0  0  0
  9 29  1  0  0  0  0
 10 11  1  0  0  0  0
 10 30  1  0  0  0  0
 10 31  1  0  0  0  0
 11 12  1  0  0  0  0
 11 32  1  0  0  0  0
 11 33  1  0  0  0  0
 12 16  1  0  0  0  0
 12 13  1  0  0  0  0
 13 14  1  0  0  0  0
 13 34  1  0  0  0  0
 13 35  1  0  0  0  0
 14 15  1  0  0  0  0
 14 36  1  0  0  0  0
 14 37  1  0  0  0  0
 15 16  1  0  0  0  0
 15 38  1  0  0  0  0
 15 39  1  0  0  0  0
 16 17  2  0  0  0  0
 18 40  1  0  0  0  0
M  CHG  1   8   1
M  END
> <s_m_source_file>
AV-unprocessed.smi

> <i_m_source_file_index>
3235

> <i_lp_mmshare_version>
43012

> <i_f3d_flags>
0

> <s_epik_input>
W0NIM11jMVtjSF1ubihbY0hdMSlbQ0gyXVtDSDJdW05IXVtDSDJdW0NIMl1bQ0gyXU4yW0NIMl1bQ0gyXVtDSDJdQzI9Tw==

> <s_epik_cmdline>
J2VwaWtfcHl0aG9uJywgJy1waCcsICc3LjAnLCAnLXRuJywgJzgnLCAnLW1hJywgJzIwMCcsICctbWV0YWxfYmluZGluZycsICctaW1hZScsICc8aW5maWxlLm1hZT4nLCAnLW9tYWUnLCAnPG91dGZpbGUubWFlPic=

> <r_lp_tautomer_probability>
1

> <r_epik_Ionization_Penalty>
0.00490609

> <r_epik_Ionization_Penalty_Charging>
0.00490019

> <r_epik_Ionization_Penalty_Neutral>
5.89696e-06

> <r_epik_State_Penalty>
-0

> <r_epik_Charging_Adjusted_Penalty>
0.00490019

> <i_epik_Tot_Q>
1

> <i_epik_Tot_abs_Q>
1

> <r_epik_Metal_State_Penalty>
-0

> <b_epik_Metal_Only>
0

> <s_lp_Force_Field>
OPLS_2005

> <r_lp_Energy>
17.6896

> <b_lp_Chiralities_Consistent>
1

> <s_lp_Variant>
AV-unprocessed.smi:3235-1

> <Gold.Version>
5.8.1

> <Gold.Id.Protein>
6NUR|6NUR_protein|mol2

> <Gold.PLP.Fitness>
50.6299

> <Gold.PLP.PLP>
-34.9860

> <Gold.PLP.part.hbond>
-3.4262

> <Gold.PLP.part.metal>
0.0000

> <Gold.PLP.part.buried>
-1.0729

> <Gold.PLP.part.nonpolar>
-31.5424

> <Gold.PLP.part.repulsive>
1.4342

> <Gold.PLP.ligand.clash>
0.0000

> <Gold.PLP.ligand.torsion>
1.5267

> <Gold.PLP.Chemscore.Hbond>
4.1597

> <Gold.PLP.Chemscore.CHOScore>
2.0000

> <Gold.PLP.Chemscore.Metal>
0.0000

> <Gold.Chemscore.Hbonds>
donor molecule, donor type, donor heavy atom, donor atom, acceptor molecule, acceptor atom, score
      L1  H     8    27       P1  7948  2.00
      L1  H     8    41       P1  7957  0.94
      P1  H  7989  7998       L1    17  0.50
      P1  H  7997  8008       L1    17  0.50
      L1  C     3    22       P1 10186  1.00
      L1  C    18    40       P1  7948  1.00

> <Gold.PLP.Chemscore.Internal.Correction>
0.2181

> <Gold.Rescore>
     Score         DG    S(hbond)    S(metal)    S(lipo)     H(rot)  DE(clash)    DE(int)     intcor
     15.05     -16.58       2.42        0.00      72.94       2.16       0.20       1.33       ----

> <Gold.Chemscore.Fitness>
15.0466

> <Gold.Chemscore.DG>
-16.5786

> <Gold.Chemscore.ZeroCoef>
-5.4800

> <Gold.Chemscore.Hbond>
2.4233

> <Gold.Chemscore.Metal>
0.0000

> <Gold.Chemscore.Lipo>
72.9382

> <Gold.Chemscore.Internal_Hbond>
0.0000

> <Gold.Chemscore.DEClash>
0.2038

> <Gold.Chemscore.DEInternal>
1.3282

> <Gold.Chemscore.Rot>
2.1598

> <Gold.Chemscore.Internal.Correction>
   9.000000E+99

> <Gold.Chemscore.Hbonds>
donor molecule, donor type, donor heavy atom, donor atom, acceptor molecule, acceptor atom, score
      L1  H     8    27       P1  7948  1.00
      L1  H     8    41       P1  7957  0.91
      P1  H  7989  7998       L1    17  0.07
      P1  H  7997  8008       L1    17  0.29

> <Gold.Chemscore.Hbond.Weighted>
-8.0939

> <Gold.Chemscore.Metal.Weighted>
-0.0000

> <Gold.Chemscore.Lipo.Weighted>
-8.5338

> <Gold.Chemscore.Internal_Hbond.Weighted>
0.0000

> <Gold.Chemscore.DEClash.Weighted>
0.2038

> <Gold.Chemscore.DEInternal.Weighted>
1.3282

> <Gold.Chemscore.Rot.Weighted>
5.5291

> <Gold.Chemscore.Internal.Correction.Weighted>
   9.000000E+99

> <Gold.Protein.RotatedTorsions>
[ 6907 6896 6895 6894 ] final  144.56 input  -60.11 | X-H torsion
[ 7974 7965 7964 7962 ] final   -7.20 input  175.53 | X-H torsion
[ 8008 7997 7996 7995 ] final  -27.51 input   59.86 | X-H torsion
[ 10167 10162 10161 10158 ] final  104.39 input  -65.29 | X-H torsion
[ 10718 10713 10712 10709 ] final  -45.74 input   66.30 | X-H torsion
[ 10763 10752 10751 10750 ] final  145.06 input  -60.55 | X-H torsion
[ 11005 11000 10999 10996 ] final -145.35 input  -57.11 | X-H torsion

> <Gold.Protein.ActiveResidues>
 VAL166  LYS551  ARG553  GLY616  TRP617  ASP618  TYR619  PRO620  LYS621  CYS622 
 ASP623  PHE694  ASN695  SER759  ASP760  ASP761  ALA762  ILE779  LEU786  VAL792 
 PHE793  MET794  SER795  GLU796  ALA797  LYS798  CYS799  TRP800  GLU811  SER814 

> <Gold.Protein.RotatedAtoms>
  152.1921  133.4780  159.5012 H   0  0  0  0  0  0  0  0  0  0  0  0  # atno 6907 bound_to 6896
  150.6953  134.1699  159.4217 H   0  0  0  0  0  0  0  0  0  0  0  0  # atno 6908 bound_to 6896
  151.9614  135.0121  160.0598 H   0  0  0  0  0  0  0  0  0  0  0  0  # atno 6909 bound_to 6896
  146.2313  140.2284  142.8339 H   0  0  0  0  0  0  0  0  0  0  0  0  # atno 7974 bound_to 7965
  154.4374  140.1870  156.0944 H   0  0  0  0  0  0  0  0  0  0  0  0  # atno 8008 bound_to 7997
  156.0341  140.3327  155.7145 H   0  0  0  0  0  0  0  0  0  0  0  0  # atno 8009 bound_to 7997
  155.5796  140.0620  157.2777 H   0  0  0  0  0  0  0  0  0  0  0  0  # atno 8010 bound_to 7997
  139.7181  144.7064  151.0916 H   0  0  0  0  0  0  0  0  0  0  0  0  # atno 10167 bound_to 10162
  156.2253  130.4169  149.8942 H   0  0  0  0  0  0  0  0  0  0  0  0  # atno 10718 bound_to 10713
  153.9991  135.2925  155.3404 H   0  0  0  0  0  0  0  0  0  0  0  0  # atno 10763 bound_to 10752
  154.7170  135.5125  153.8756 H   0  0  0  0  0  0  0  0  0  0  0  0  # atno 10764 bound_to 10752
  153.0774  135.6668  154.0235 H   0  0  0  0  0  0  0  0  0  0  0  0  # atno 10765 bound_to 10752
  140.7931  134.2945  157.5006 H   0  0  0  0  0  0  0  0  0  0  0  0  # atno 11005 bound_to 11000
  144.9577  140.8243  143.5532 LP  0  0  0  0  0  0  0  0  0  0  0  0  # atno 17320 bound_to 7965
  145.2251  139.2141  143.5072 LP  0  0  0  0  0  0  0  0  0  0  0  0  # atno 17321 bound_to 7965
  140.7748  143.5202  150.9546 LP  0  0  0  0  0  0  0  0  0  0  0  0  # atno 17342 bound_to 10162
  139.8888  143.6979  152.3148 LP  0  0  0  0  0  0  0  0  0  0  0  0  # atno 17343 bound_to 10162
  156.6574  130.8768  151.3541 LP  0  0  0  0  0  0  0  0  0  0  0  0  # atno 17370 bound_to 10713
  157.7107  130.9437  150.1081 LP  0  0  0  0  0  0  0  0  0  0  0  0  # atno 17371 bound_to 10713
  139.8729  134.9386  156.3719 LP  0  0  0  0  0  0  0  0  0  0  0  0  # atno 17394 bound_to 11000
  140.9370  133.7540  156.0097 LP  0  0  0  0  0  0  0  0  0  0  0  0  # atno 17395 bound_to 11000

$$$$
