AV-unprocessed.smi:44|AV-procd|sdf|402|dock7
  -GOLD-   2262016253D 1   1.00000     0.00000
 Structure written by MMmdl.
 29 31  0  0  0  0  0  0  0  0  3 V2000
  153.3693  138.9501  156.8705 O   0  0  0  0  0  0  0  0  0  0  0  0
  152.5058  138.9552  155.9955 C   0  0  0  0  0  0  0  0  0  0  0  0
  152.2988  138.0252  155.0081 N   0  5  0  0  0  0  0  0  0  0  0  0
  151.2725  138.1595  154.0794 C   0  0  0  0  0  0  0  0  0  0  0  0
  150.4115  139.1112  153.9978 N   0  0  0  0  0  0  0  0  0  0  0  0
  150.5423  140.1152  154.9687 C   0  0  0  0  0  0  0  0  0  0  0  0
  151.5204  140.0850  155.9350 C   0  0  0  0  0  0  0  0  0  0  0  0
  151.4078  141.1885  156.7370 N   0  3  0  0  0  0  0  0  0  0  0  0
  150.3650  141.8381  156.2201 C   0  0  0  0  0  0  0  0  0  0  0  0
  149.7816  141.2441  155.1358 N   0  0  0  0  0  0  0  0  0  0  0  0
  148.6090  141.7280  154.3459 C   0  0  2  0  0  0  0  0  0  0  0  0
  147.3609  141.7417  155.2297 C   0  0  0  0  0  0  0  0  0  0  0  0
  146.7791  140.3719  154.9579 C   0  0  0  0  0  0  0  0  0  0  0  0
  147.0973  140.1962  153.4735 C   0  0  2  0  0  0  0  0  0  0  0  0
  147.1462  138.7278  153.0267 C   0  0  0  0  0  0  0  0  0  0  0  0
  147.3692  138.6562  151.6355 O   0  0  0  0  0  0  0  0  0  0  0  0
  148.3762  140.8112  153.3162 O   0  0  0  0  0  0  0  0  0  0  0  0
  151.9782  141.4484  157.5315 H   0  0  0  0  0  0  0  0  0  0  0  0
  148.9073  142.7079  153.9715 H   0  0  0  0  0  0  0  0  0  0  0  0
  146.3632  140.7562  152.8911 H   0  0  0  0  0  0  0  0  0  0  0  0
  151.2535  137.3282  153.3700 H   0  0  0  0  0  0  0  0  0  0  0  0
  150.0060  142.7657  156.6269 H   0  0  0  0  0  0  0  0  0  0  0  0
  147.5981  141.9283  156.2779 H   0  0  0  0  0  0  0  0  0  0  0  0
  146.6880  142.5227  154.8730 H   0  0  0  0  0  0  0  0  0  0  0  0
  147.2884  139.6177  155.5592 H   0  0  0  0  0  0  0  0  0  0  0  0
  145.7117  140.3132  155.1724 H   0  0  0  0  0  0  0  0  0  0  0  0
  147.9149  138.1706  153.5623 H   0  0  0  0  0  0  0  0  0  0  0  0
  146.1913  138.2424  153.2310 H   0  0  0  0  0  0  0  0  0  0  0  0
  148.0505  138.0224  151.4708 H   0  0  0  0  0  0  0  0  0  0  0  0
  1  2  2  0  0  0  0
  2  7  1  0  0  0  0
  2  3  1  0  0  0  0
  3  4  1  0  0  0  0
  4 21  1  0  0  0  0
  4  5  2  0  0  0  0
  5  6  1  0  0  0  0
  6 10  1  0  0  0  0
  6  7  2  0  0  0  0
  7  8  1  0  0  0  0
  8  9  2  0  0  0  0
  8 18  1  0  0  0  0
  9 10  1  0  0  0  0
  9 22  1  0  0  0  0
 10 11  1  0  0  0  0
 11 19  1  0  0  0  0
 11 17  1  0  0  0  0
 11 12  1  0  0  0  0
 12 13  1  0  0  0  0
 12 23  1  0  0  0  0
 12 24  1  0  0  0  0
 13 14  1  0  0  0  0
 13 25  1  0  0  0  0
 13 26  1  0  0  0  0
 14 20  1  0  0  0  0
 14 15  1  0  0  0  0
 14 17  1  0  0  0  0
 15 16  1  0  0  0  0
 15 27  1  0  0  0  0
 15 28  1  0  0  0  0
 16 29  1  0  0  0  0
M  CHG  1   3  -1
M  CHG  1   8   1
M  END
> <s_m_source_file>
AV-unprocessed.smi

> <i_m_source_file_index>
44

> <i_lp_mmshare_version>
43012

> <i_f3d_flags>
0

> <s_epik_input>
bjFbY0hdW25IXWMoPU8pYyhjMTIpbltjSF1uMltDQEhdM1tDSDJdW0NIMl1bQ0BIXShPMylbQ0gyXVtPSF0=

> <s_epik_cmdline>
J2VwaWtfcHl0aG9uJywgJy1waCcsICc3LjAnLCAnLXRuJywgJzgnLCAnLW1hJywgJzIwMCcsICctbWV0YWxfYmluZGluZycsICctaW1hZScsICc8aW5maWxlLm1hZT4nLCAnLW9tYWUnLCAnPG91dGZpbGUubWFlPic=

> <r_lp_tautomer_probability>
0.144281

> <r_epik_Ionization_Penalty>
5.63685

> <r_epik_Ionization_Penalty_Charging>
5.58669

> <r_epik_Ionization_Penalty_Neutral>
0.0501585

> <r_epik_State_Penalty>
1.20809

> <r_epik_Charging_Adjusted_Penalty>
6.79478

> <i_epik_Tot_Q>
0

> <i_epik_Tot_abs_Q>
2

> <r_epik_Metal_State_Penalty>
1.52487

> <b_epik_Metal_Only>
0

> <s_epik_Chemistry_Notes>
This compound contains an acetal/aminal-like group ( X-CH(R)-Y where X, Y are N, S, or O) that may be acid/base labile, releasing an aldehyde.

> <s_lp_Force_Field>
OPLS_2005

> <r_lp_Energy>
43.1819

> <b_lp_Chiralities_Consistent>
1

> <s_lp_Variant>
AV-unprocessed.smi:44-8

> <Gold.Version>
5.8.1

> <Gold.Id.Protein>
6NUR|6NUR_protein|mol2

> <Gold.PLP.Fitness>
41.2388

> <Gold.PLP.PLP>
-29.3751

> <Gold.PLP.part.hbond>
-4.5927

> <Gold.PLP.part.metal>
0.0000

> <Gold.PLP.part.buried>
-4.2619

> <Gold.PLP.part.nonpolar>
-24.8737

> <Gold.PLP.part.repulsive>
3.7187

> <Gold.PLP.ligand.clash>
0.0000

> <Gold.PLP.ligand.torsion>
0.0332

> <Gold.PLP.Chemscore.Hbond>
1.9600

> <Gold.PLP.Chemscore.CHOScore>
2.0115

> <Gold.PLP.Chemscore.Metal>
0.0000

> <Gold.Chemscore.Hbonds>
donor molecule, donor type, donor heavy atom, donor atom, acceptor molecule, acceptor atom, score
      L1  H    16    29       P1  7948  1.00
      P1  H  7997  8009       L1     1  0.83
      L1  C     4    21       P1  7949  1.00
      L1  C     9    22       P1  8028  1.00

> <Gold.PLP.Chemscore.Internal.Correction>
0.0157

> <Gold.Rescore>
     Score         DG    S(hbond)    S(metal)    S(lipo)     H(rot)  DE(clash)    DE(int)     intcor
      6.88      -8.50       1.94        0.00      20.01       2.27       0.06       1.56       ----

> <Gold.Chemscore.Fitness>
6.8824

> <Gold.Chemscore.DG>
-8.4988

> <Gold.Chemscore.ZeroCoef>
-5.4800

> <Gold.Chemscore.Hbond>
1.9444

> <Gold.Chemscore.Metal>
0.0000

> <Gold.Chemscore.Lipo>
20.0080

> <Gold.Chemscore.Internal_Hbond>
0.0000

> <Gold.Chemscore.DEClash>
0.0580

> <Gold.Chemscore.DEInternal>
1.5585

> <Gold.Chemscore.Rot>
2.2720

> <Gold.Chemscore.Internal.Correction>
   9.000000E+99

> <Gold.Chemscore.Hbonds>
donor molecule, donor type, donor heavy atom, donor atom, acceptor molecule, acceptor atom, score
      L1  H    16    29       P1  7948  0.94
      P1  H  7997  8009       L1     1  0.82

> <Gold.Chemscore.Hbond.Weighted>
-6.4943

> <Gold.Chemscore.Metal.Weighted>
-0.0000

> <Gold.Chemscore.Lipo.Weighted>
-2.3409

> <Gold.Chemscore.Internal_Hbond.Weighted>
0.0000

> <Gold.Chemscore.DEClash.Weighted>
0.0580

> <Gold.Chemscore.DEInternal.Weighted>
1.5585

> <Gold.Chemscore.Rot.Weighted>
5.8164

> <Gold.Chemscore.Internal.Correction.Weighted>
   9.000000E+99

> <Gold.Protein.RotatedTorsions>
[ 6907 6896 6895 6894 ] final  -12.26 input  -60.11 | X-H torsion
[ 7974 7965 7964 7962 ] final   34.68 input  175.53 | X-H torsion
[ 8008 7997 7996 7995 ] final  155.12 input   59.86 | X-H torsion
[ 10167 10162 10161 10158 ] final   19.79 input  -65.29 | X-H torsion
[ 10718 10713 10712 10709 ] final  172.54 input   66.30 | X-H torsion
[ 10763 10752 10751 10750 ] final   57.78 input  -60.55 | X-H torsion
[ 11005 11000 10999 10996 ] final -176.54 input  -57.11 | X-H torsion

> <Gold.Protein.ActiveResidues>
 VAL166  LYS551  ARG553  GLY616  TRP617  ASP618  TYR619  PRO620  LYS621  CYS622 
 ASP623  PHE694  ASN695  SER759  ASP760  ASP761  ALA762  ILE779  LEU786  VAL792 
 PHE793  MET794  SER795  GLU796  ALA797  LYS798  CYS799  TRP800  GLU811  SER814 

> <Gold.Protein.RotatedAtoms>
  151.3733  135.0926  159.9472 H   0  0  0  0  0  0  0  0  0  0  0  0  # atno 6907 bound_to 6896
  152.5129  133.9144  159.7514 H   0  0  0  0  0  0  0  0  0  0  0  0  # atno 6908 bound_to 6896
  150.9562  133.6440  159.2792 H   0  0  0  0  0  0  0  0  0  0  0  0  # atno 6909 bound_to 6896
  146.1336  139.6238  142.9210 H   0  0  0  0  0  0  0  0  0  0  0  0  # atno 7974 bound_to 7965
  156.2495  140.1948  156.6752 H   0  0  0  0  0  0  0  0  0  0  0  0  # atno 8008 bound_to 7997
  154.6363  140.0589  156.9818 H   0  0  0  0  0  0  0  0  0  0  0  0  # atno 8009 bound_to 7997
  155.1632  140.3261  155.4410 H   0  0  0  0  0  0  0  0  0  0  0  0  # atno 8010 bound_to 7997
  140.5552  143.9437  150.6604 H   0  0  0  0  0  0  0  0  0  0  0  0  # atno 10167 bound_to 10162
  156.9774  131.0108  151.2890 H   0  0  0  0  0  0  0  0  0  0  0  0  # atno 10718 bound_to 10713
  152.9857  135.5629  154.5446 H   0  0  0  0  0  0  0  0  0  0  0  0  # atno 10763 bound_to 10752
  154.4895  135.2792  155.1510 H   0  0  0  0  0  0  0  0  0  0  0  0  # atno 10764 bound_to 10752
  154.2985  135.6312  153.5468 H   0  0  0  0  0  0  0  0  0  0  0  0  # atno 10765 bound_to 10752
  140.4510  134.6343  157.4801 H   0  0  0  0  0  0  0  0  0  0  0  0  # atno 11005 bound_to 11000
  145.5206  141.0432  143.2437 LP  0  0  0  0  0  0  0  0  0  0  0  0  # atno 17320 bound_to 7965
  144.7716  139.6722  143.7192 LP  0  0  0  0  0  0  0  0  0  0  0  0  # atno 17321 bound_to 7965
  140.2873  143.3348  152.1095 LP  0  0  0  0  0  0  0  0  0  0  0  0  # atno 17342 bound_to 10162
  139.5045  144.6776  151.6089 LP  0  0  0  0  0  0  0  0  0  0  0  0  # atno 17343 bound_to 10162
  157.5550  130.8208  149.8193 LP  0  0  0  0  0  0  0  0  0  0  0  0  # atno 17370 bound_to 10713
  156.0258  130.3780  150.1827 LP  0  0  0  0  0  0  0  0  0  0  0  0  # atno 17371 bound_to 10713
  140.0007  134.6841  155.9535 LP  0  0  0  0  0  0  0  0  0  0  0  0  # atno 17394 bound_to 11000
  141.1664  133.6537  156.4495 LP  0  0  0  0  0  0  0  0  0  0  0  0  # atno 17395 bound_to 11000

$$$$
