AV-unprocessed.smi:109|AV-procd|sdf|1062|dock4
  -GOLD-   2262018143D 1   1.00000     0.00000
 Structure written by MMmdl.
 58 61  0  0  0  0  0  0  0  0  1 V2000
  150.4307  135.8784  158.1309 O   0  0  0  0  0  0  0  0  0  0  0  0
  149.5158  136.8882  158.4982 C   0  0  0  0  0  0  0  0  0  0  0  0
  148.0969  136.4961  158.0516 C   0  0  0  0  0  0  0  0  0  0  0  0
  147.6480  135.0876  158.5146 C   0  0  1  0  0  0  0  0  0  0  0  0
  148.4275  134.0679  157.8089 N   0  0  0  0  0  0  0  0  0  0  0  0
  148.4185  133.9515  156.4623 C   0  0  0  0  0  0  0  0  0  0  0  0
  149.3834  133.2613  155.8006 N   0  0  0  0  0  0  0  0  0  0  0  0
  149.3385  133.1576  154.4694 C   0  0  0  0  0  0  0  0  0  0  0  0
  148.4347  133.6575  153.6245 N   0  0  0  0  0  0  0  0  0  0  0  0
  147.4644  134.3550  154.2827 C   0  0  0  0  0  0  0  0  0  0  0  0
  147.3877  134.5463  155.6903 C   0  0  0  0  0  0  0  0  0  0  0  0
  146.2681  135.3063  156.0020 N   0  0  0  0  0  0  0  0  0  0  0  0
  145.7198  135.5506  154.8420 C   0  0  0  0  0  0  0  0  0  0  0  0
  146.3693  135.0089  153.7552 N   0  0  0  0  0  0  0  0  0  0  0  0
  145.9826  135.1208  152.3170 C   0  0  1  0  0  0  0  0  0  0  0  0
  145.7842  133.8343  151.8259 O   0  0  0  0  0  0  0  0  0  0  0  0
  144.7549  133.8243  150.8348 C   0  0  1  0  0  0  0  0  0  0  0  0
  143.7236  132.7482  151.2164 C   0  0  0  0  0  0  0  0  0  0  0  0
  142.9759  132.3677  150.0811 O   0  0  0  0  0  0  0  0  0  0  0  0
  144.1593  135.2467  150.8375 C   0  0  2  0  0  0  0  0  0  0  0  0
  144.6414  135.9426  149.6994 O   0  0  0  0  0  0  0  0  0  0  0  0
  144.6552  135.8528  152.1477 C   0  0  2  0  0  0  0  0  0  0  0  0
  144.7939  137.2592  152.0691 O   0  0  0  0  0  0  0  0  0  0  0  0
  147.7849  134.8649  160.0486 C   0  0  0  0  0  0  0  0  0  0  0  0
  147.2114  133.4858  160.4659 C   0  0  0  0  0  0  0  0  0  0  0  0
  147.3359  133.2290  161.9757 C   0  0  0  0  0  0  0  0  0  0  0  0
  146.6489  134.3365  162.7831 C   0  0  0  0  0  0  0  0  0  0  0  0
  147.2160  135.7097  162.4043 C   0  0  0  0  0  0  0  0  0  0  0  0
  147.1020  135.9701  160.8931 C   0  0  0  0  0  0  0  0  0  0  0  0
  146.8219  135.5990  151.8094 H   0  0  0  0  0  0  0  0  0  0  0  0
  145.1851  133.5898  149.8590 H   0  0  0  0  0  0  0  0  0  0  0  0
  143.0698  135.2472  150.7883 H   0  0  0  0  0  0  0  0  0  0  0  0
  143.9758  135.5834  152.9565 H   0  0  0  0  0  0  0  0  0  0  0  0
  149.9608  135.2001  157.6703 H   0  0  0  0  0  0  0  0  0  0  0  0
  149.5545  137.0245  159.5794 H   0  0  0  0  0  0  0  0  0  0  0  0
  149.8324  137.8237  158.0372 H   0  0  0  0  0  0  0  0  0  0  0  0
  147.3819  137.2428  158.4002 H   0  0  0  0  0  0  0  0  0  0  0  0
  148.0887  136.5469  156.9643 H   0  0  0  0  0  0  0  0  0  0  0  0
  146.5880  134.9866  158.2822 H   0  0  0  0  0  0  0  0  0  0  0  0
  148.9509  133.4394  158.4016 H   0  0  0  0  0  0  0  0  0  0  0  0
  150.1399  132.5924  154.0171 H   0  0  0  0  0  0  0  0  0  0  0  0
  144.8159  136.1348  154.7478 H   0  0  0  0  0  0  0  0  0  0  0  0
  144.1969  131.8778  151.6692 H   0  0  0  0  0  0  0  0  0  0  0  0
  143.0175  133.1447  151.9464 H   0  0  0  0  0  0  0  0  0  0  0  0
  142.1979  132.9026  150.0404 H   0  0  0  0  0  0  0  0  0  0  0  0
  144.2844  136.8173  149.7075 H   0  0  0  0  0  0  0  0  0  0  0  0
  144.2202  137.5784  151.3894 H   0  0  0  0  0  0  0  0  0  0  0  0
  148.8482  134.8743  160.2951 H   0  0  0  0  0  0  0  0  0  0  0  0
  146.1622  133.4235  160.1740 H   0  0  0  0  0  0  0  0  0  0  0  0
  147.7208  132.6779  159.9403 H   0  0  0  0  0  0  0  0  0  0  0  0
  146.8979  132.2621  162.2251 H   0  0  0  0  0  0  0  0  0  0  0  0
  148.3895  133.1721  162.2522 H   0  0  0  0  0  0  0  0  0  0  0  0
  145.5746  134.3172  162.5955 H   0  0  0  0  0  0  0  0  0  0  0  0
  146.7822  134.1584  163.8507 H   0  0  0  0  0  0  0  0  0  0  0  0
  146.6931  136.4917  162.9556 H   0  0  0  0  0  0  0  0  0  0  0  0
  148.2628  135.7675  162.7054 H   0  0  0  0  0  0  0  0  0  0  0  0
  147.5520  136.9421  160.6979 H   0  0  0  0  0  0  0  0  0  0  0  0
  146.0507  136.0502  160.6138 H   0  0  0  0  0  0  0  0  0  0  0  0
  1  2  1  0  0  0  0
  1 34  1  0  0  0  0
  2  3  1  0  0  0  0
  2 35  1  0  0  0  0
  2 36  1  0  0  0  0
  3  4  1  0  0  0  0
  3 37  1  0  0  0  0
  3 38  1  0  0  0  0
  4  5  1  0  0  0  0
  4 24  1  0  0  0  0
  4 39  1  0  0  0  0
  5  6  1  0  0  0  0
  5 40  1  0  0  0  0
  6 11  1  0  0  0  0
  6  7  2  0  0  0  0
  7  8  1  0  0  0  0
  8  9  2  0  0  0  0
  8 41  1  0  0  0  0
  9 10  1  0  0  0  0
 10 14  1  0  0  0  0
 10 11  2  0  0  0  0
 11 12  1  0  0  0  0
 12 13  2  0  0  0  0
 13 14  1  0  0  0  0
 13 42  1  0  0  0  0
 14 15  1  0  0  0  0
 15 30  1  0  0  0  0
 15 22  1  0  0  0  0
 15 16  1  0  0  0  0
 16 17  1  0  0  0  0
 17 31  1  0  0  0  0
 17 18  1  0  0  0  0
 17 20  1  0  0  0  0
 18 19  1  0  0  0  0
 18 43  1  0  0  0  0
 18 44  1  0  0  0  0
 19 45  1  0  0  0  0
 20 32  1  0  0  0  0
 20 21  1  0  0  0  0
 20 22  1  0  0  0  0
 21 46  1  0  0  0  0
 22 33  1  0  0  0  0
 22 23  1  0  0  0  0
 23 47  1  0  0  0  0
 24 29  1  0  0  0  0
 24 25  1  0  0  0  0
 24 48  1  0  0  0  0
 25 26  1  0  0  0  0
 25 49  1  0  0  0  0
 25 50  1  0  0  0  0
 26 27  1  0  0  0  0
 26 51  1  0  0  0  0
 26 52  1  0  0  0  0
 27 28  1  0  0  0  0
 27 53  1  0  0  0  0
 27 54  1  0  0  0  0
 28 29  1  0  0  0  0
 28 55  1  0  0  0  0
 28 56  1  0  0  0  0
 29 57  1  0  0  0  0
 29 58  1  0  0  0  0
M  END
> <s_m_source_file>
AV-unprocessed.smi

> <i_m_source_file_index>
109

> <i_lp_mmshare_version>
43012

> <i_f3d_flags>
0

> <s_epik_input>
W0NIMl0xW0NIMl1bQ0gyXVtDSDJdW0NIMl1bQ0hdMVtDQEhdKFtDSDJdW0NIMl1bT0hdKVtOSF1jKG5bY0hdbjIpYyhjMjMpbltjSF1uM1tDQEBIXTRPW0NASF0oW0NIMl1bT0hdKVtDQEBIXShbT0hdKVtDQEhdNFtPSF0=

> <s_epik_cmdline>
J2VwaWtfcHl0aG9uJywgJy1waCcsICc3LjAnLCAnLXRuJywgJzgnLCAnLW1hJywgJzIwMCcsICctbWV0YWxfYmluZGluZycsICctaW1hZScsICc8aW5maWxlLm1hZT4nLCAnLW9tYWUnLCAnPG91dGZpbGUubWFlPic=

> <r_lp_tautomer_probability>
1

> <r_epik_Ionization_Penalty>
0.000793976

> <r_epik_Ionization_Penalty_Charging>
0

> <r_epik_Ionization_Penalty_Neutral>
0.000793976

> <r_epik_State_Penalty>
-0

> <r_epik_Charging_Adjusted_Penalty>
0

> <i_epik_Tot_Q>
0

> <i_epik_Tot_abs_Q>
0

> <r_epik_Metal_State_Penalty>
-0

> <b_epik_Metal_Only>
0

> <s_epik_Chemistry_Notes>
This compound contains an acetal/aminal-like group ( X-CH(R)-Y where X, Y are N, S, or O) that may be acid/base labile, releasing an aldehyde.

> <s_lp_Force_Field>
OPLS_2005

> <r_lp_Energy>
55.705

> <b_lp_Chiralities_Consistent>
1

> <s_lp_Variant>
AV-unprocessed.smi:109-32

> <Gold.Version>
5.8.1

> <Gold.Id.Protein>
6NUR|6NUR_protein|mol2

> <Gold.PLP.Fitness>
53.8135

> <Gold.PLP.PLP>
-43.9437

> <Gold.PLP.part.hbond>
-5.9541

> <Gold.PLP.part.metal>
0.0000

> <Gold.PLP.part.buried>
-7.7988

> <Gold.PLP.part.nonpolar>
-30.7917

> <Gold.PLP.part.repulsive>
0.3621

> <Gold.PLP.ligand.clash>
0.0000

> <Gold.PLP.ligand.torsion>
0.4033

> <Gold.PLP.Chemscore.Hbond>
3.5120

> <Gold.PLP.Chemscore.CHOScore>
0.0000

> <Gold.PLP.Chemscore.Metal>
0.0000

> <Gold.Chemscore.Hbonds>
donor molecule, donor type, donor heavy atom, donor atom, acceptor molecule, acceptor atom, score
      L1  H    19    45       P1 10186  1.00
      L1  H    21    46       P1 10171  1.00
      L1  H    23    47       P1 10171  1.00
      P1  H  6896  6907       L1     1  0.64

> <Gold.PLP.Chemscore.Internal.Correction>
0.1404

> <Gold.Rescore>
     Score         DG    S(hbond)    S(metal)    S(lipo)     H(rot)  DE(clash)    DE(int)     intcor
      8.46     -10.37       3.06        0.00      73.91       5.47       0.04       1.87       ----

> <Gold.Chemscore.Fitness>
8.4569

> <Gold.Chemscore.DG>
-10.3676

> <Gold.Chemscore.ZeroCoef>
-5.4800

> <Gold.Chemscore.Hbond>
3.0639

> <Gold.Chemscore.Metal>
0.0000

> <Gold.Chemscore.Lipo>
73.9134

> <Gold.Chemscore.Internal_Hbond>
0.0000

> <Gold.Chemscore.DEClash>
0.0417

> <Gold.Chemscore.DEInternal>
1.8690

> <Gold.Chemscore.Rot>
5.4662

> <Gold.Chemscore.Internal.Correction>
   9.000000E+99

> <Gold.Chemscore.Hbonds>
donor molecule, donor type, donor heavy atom, donor atom, acceptor molecule, acceptor atom, score
      L1  H    19    45       P1 10186  0.97
      L1  H    21    46       P1 10171  1.00
      L1  H    23    47       P1 10171  0.97
      P1  H  6896  6907       L1     1  0.16

> <Gold.Chemscore.Hbond.Weighted>
-10.2333

> <Gold.Chemscore.Metal.Weighted>
-0.0000

> <Gold.Chemscore.Lipo.Weighted>
-8.6479

> <Gold.Chemscore.Internal_Hbond.Weighted>
0.0000

> <Gold.Chemscore.DEClash.Weighted>
0.0417

> <Gold.Chemscore.DEInternal.Weighted>
1.8690

> <Gold.Chemscore.Rot.Weighted>
13.9935

> <Gold.Chemscore.Internal.Correction.Weighted>
   9.000000E+99

> <Gold.Protein.RotatedTorsions>
[ 6907 6896 6895 6894 ] final  -36.22 input  -60.11 | X-H torsion
[ 7974 7965 7964 7962 ] final  128.23 input  175.53 | X-H torsion
[ 8008 7997 7996 7995 ] final   50.83 input   59.86 | X-H torsion
[ 10167 10162 10161 10158 ] final   26.74 input  -65.29 | X-H torsion
[ 10718 10713 10712 10709 ] final   18.32 input   66.30 | X-H torsion
[ 10763 10752 10751 10750 ] final  103.57 input  -60.55 | X-H torsion
[ 11005 11000 10999 10996 ] final -105.71 input  -57.11 | X-H torsion

> <Gold.Protein.ActiveResidues>
 VAL166  LYS551  ARG553  GLY616  TRP617  ASP618  TYR619  PRO620  LYS621  CYS622 
 ASP623  PHE694  ASN695  SER759  ASP760  ASP761  ALA762  ILE779  LEU786  VAL792 
 PHE793  MET794  SER795  GLU796  ALA797  LYS798  CYS799  TRP800  GLU811  SER814 

> <Gold.Protein.RotatedAtoms>
  151.0299  134.9531  159.8104 H   0  0  0  0  0  0  0  0  0  0  0  0  # atno 6907 bound_to 6896
  152.5343  134.2794  159.9011 H   0  0  0  0  0  0  0  0  0  0  0  0  # atno 6908 bound_to 6896
  151.2803  133.4170  159.2660 H   0  0  0  0  0  0  0  0  0  0  0  0  # atno 6909 bound_to 6896
  145.0419  139.3956  143.5098 H   0  0  0  0  0  0  0  0  0  0  0  0  # atno 7974 bound_to 7965
  155.4253  140.3448  155.4275 H   0  0  0  0  0  0  0  0  0  0  0  0  # atno 8008 bound_to 7997
  156.1369  140.1530  156.9012 H   0  0  0  0  0  0  0  0  0  0  0  0  # atno 8009 bound_to 7997
  154.4939  140.0833  156.7634 H   0  0  0  0  0  0  0  0  0  0  0  0  # atno 8010 bound_to 7997
  140.4997  144.0334  150.6328 H   0  0  0  0  0  0  0  0  0  0  0  0  # atno 10167 bound_to 10162
  157.0946  130.6442  149.5857 H   0  0  0  0  0  0  0  0  0  0  0  0  # atno 10718 bound_to 10713
  153.3544  135.3972  155.1670 H   0  0  0  0  0  0  0  0  0  0  0  0  # atno 10763 bound_to 10752
  154.8668  135.3664  154.5181 H   0  0  0  0  0  0  0  0  0  0  0  0  # atno 10764 bound_to 10752
  153.5635  135.7080  153.5597 H   0  0  0  0  0  0  0  0  0  0  0  0  # atno 10765 bound_to 10752
  141.1040  133.8831  157.1767 H   0  0  0  0  0  0  0  0  0  0  0  0  # atno 11005 bound_to 11000
  146.3510  140.0023  142.8675 LP  0  0  0  0  0  0  0  0  0  0  0  0  # atno 17320 bound_to 7965
  145.1637  140.9686  143.4362 LP  0  0  0  0  0  0  0  0  0  0  0  0  # atno 17321 bound_to 7965
  140.3627  143.2899  152.0366 LP  0  0  0  0  0  0  0  0  0  0  0  0  # atno 17342 bound_to 10162
  139.4869  144.6291  151.7106 LP  0  0  0  0  0  0  0  0  0  0  0  0  # atno 17343 bound_to 10162
  155.9889  130.4934  150.7190 LP  0  0  0  0  0  0  0  0  0  0  0  0  # atno 17370 bound_to 10713
  157.4692  131.0891  151.0661 LP  0  0  0  0  0  0  0  0  0  0  0  0  # atno 17371 bound_to 10713
  139.9903  135.0067  156.9959 LP  0  0  0  0  0  0  0  0  0  0  0  0  # atno 17394 bound_to 11000
  140.4949  134.1155  155.7239 LP  0  0  0  0  0  0  0  0  0  0  0  0  # atno 17395 bound_to 11000

$$$$
