AV-unprocessed.smi:100|AV-procd|sdf|912|dock10
  -GOLD-   2262017413D 1   1.00000     0.00000
 Structure written by MMmdl.
 31 33  0  0  0  0  0  0  0  0  1 V2000
  154.5767  138.8772  161.2063 N   0  0  0  0  0  0  0  0  0  0  0  0
  153.9595  139.9176  160.6290 C   0  0  0  0  0  0  0  0  0  0  0  0
  153.9290  141.0958  161.2935 N   0  0  0  0  0  0  0  0  0  0  0  0
  153.3127  142.1456  160.7422 C   0  0  0  0  0  0  0  0  0  0  0  0
  152.6865  142.2226  159.5652 N   0  0  0  0  0  0  0  0  0  0  0  0
  152.7232  141.0360  158.8882 C   0  0  0  0  0  0  0  0  0  0  0  0
  153.3341  139.8393  159.3586 C   0  0  0  0  0  0  0  0  0  0  0  0
  153.1640  138.8227  158.4304 N   0  0  0  0  0  0  0  0  0  0  0  0
  152.4848  139.3883  157.4699 C   0  0  0  0  0  0  0  0  0  0  0  0
  152.2012  140.7279  157.6433 N   0  0  0  0  0  0  0  0  0  0  0  0
  151.4094  141.6162  156.7205 C   0  0  1  0  0  0  0  0  0  0  0  0
  151.0789  140.9062  155.5654 O   0  0  0  0  0  0  0  0  0  0  0  0
  149.8129  140.2904  155.7478 C   0  0  2  0  0  0  0  0  0  0  0  0
  149.2467  139.8417  154.3926 C   0  0  0  0  0  0  0  0  0  0  0  0
  149.2243  140.9209  153.4829 O   0  0  0  0  0  0  0  0  0  0  0  0
  149.0360  141.4116  156.4338 C   0  0  1  0  0  0  0  0  0  0  0  0
  147.9768  140.9535  157.1022 F   0  0  0  0  0  0  0  0  0  0  0  0
  150.0686  142.0155  157.3772 C   0  0  2  0  0  0  0  0  0  0  0  0
  149.9025  143.4158  157.4655 O   0  0  0  0  0  0  0  0  0  0  0  0
  154.6098  137.9863  160.7319 H   0  0  0  0  0  0  0  0  0  0  0  0
  155.0050  138.9855  162.1142 H   0  0  0  0  0  0  0  0  0  0  0  0
  153.3225  143.0538  161.3265 H   0  0  0  0  0  0  0  0  0  0  0  0
  152.1709  138.8362  156.5959 H   0  0  0  0  0  0  0  0  0  0  0  0
  152.0830  142.4463  156.5031 H   0  0  0  0  0  0  0  0  0  0  0  0
  149.9303  139.4356  156.4170 H   0  0  0  0  0  0  0  0  0  0  0  0
  149.8329  139.0230  153.9744 H   0  0  0  0  0  0  0  0  0  0  0  0
  148.2268  139.4772  154.5177 H   0  0  0  0  0  0  0  0  0  0  0  0
  149.1690  140.5735  152.6058 H   0  0  0  0  0  0  0  0  0  0  0  0
  148.6884  142.1410  155.7003 H   0  0  0  0  0  0  0  0  0  0  0  0
  149.9762  141.5703  158.3683 H   0  0  0  0  0  0  0  0  0  0  0  0
  149.4558  143.7129  156.6874 H   0  0  0  0  0  0  0  0  0  0  0  0
  1  2  1  0  0  0  0
  1 20  1  0  0  0  0
  1 21  1  0  0  0  0
  2  7  1  0  0  0  0
  2  3  2  0  0  0  0
  3  4  1  0  0  0  0
  4  5  2  0  0  0  0
  4 22  1  0  0  0  0
  5  6  1  0  0  0  0
  6 10  1  0  0  0  0
  6  7  2  0  0  0  0
  7  8  1  0  0  0  0
  8  9  2  0  0  0  0
  9 10  1  0  0  0  0
  9 23  1  0  0  0  0
 10 11  1  0  0  0  0
 11 18  1  0  0  0  0
 11 12  1  0  0  0  0
 11 24  1  0  0  0  0
 12 13  1  0  0  0  0
 13 14  1  0  0  0  0
 13 16  1  0  0  0  0
 13 25  1  0  0  0  0
 14 15  1  0  0  0  0
 14 26  1  0  0  0  0
 14 27  1  0  0  0  0
 15 28  1  0  0  0  0
 16 17  1  0  0  0  0
 16 18  1  0  0  0  0
 16 29  1  0  0  0  0
 18 19  1  0  0  0  0
 18 30  1  0  0  0  0
 19 31  1  0  0  0  0
M  END
> <s_m_source_file>
AV-unprocessed.smi

> <i_m_source_file_index>
100

> <i_lp_mmshare_version>
43012

> <i_f3d_flags>
0

> <s_epik_input>
bjFbY0hdbmMoW05IMl0pYyhjMTIpbltjSF1uMltDQEBIXTNPW0NAQEhdKFtDSDJdW09IXSlbQ0BIXShGKVtDQEhdM1tPSF0=

> <s_epik_cmdline>
J2VwaWtfcHl0aG9uJywgJy1waCcsICc3LjAnLCAnLXRuJywgJzgnLCAnLW1hJywgJzIwMCcsICctbWV0YWxfYmluZGluZycsICctaW1hZScsICc8aW5maWxlLm1hZT4nLCAnLW9tYWUnLCAnPG91dGZpbGUubWFlPic=

> <r_lp_tautomer_probability>
1

> <r_epik_Ionization_Penalty>
0.000750324

> <r_epik_Ionization_Penalty_Charging>
0

> <r_epik_Ionization_Penalty_Neutral>
0.000750324

> <r_epik_State_Penalty>
-0

> <r_epik_Charging_Adjusted_Penalty>
0

> <i_epik_Tot_Q>
0

> <i_epik_Tot_abs_Q>
0

> <r_epik_Metal_State_Penalty>
-0

> <b_epik_Metal_Only>
0

> <s_epik_Chemistry_Notes>
This compound contains an acetal/aminal-like group ( X-CH(R)-Y where X, Y are N, S, or O) that may be acid/base labile, releasing an aldehyde.

> <s_lp_Force_Field>
OPLS_2005

> <r_lp_Energy>
30.8526

> <b_lp_Chiralities_Consistent>
1

> <s_lp_Variant>
AV-unprocessed.smi:100-16

> <Gold.Version>
5.8.1

> <Gold.Id.Protein>
6NUR|6NUR_protein|mol2

> <Gold.PLP.Fitness>
36.3223

> <Gold.PLP.PLP>
-28.7495

> <Gold.PLP.part.hbond>
-4.9983

> <Gold.PLP.part.metal>
0.0000

> <Gold.PLP.part.buried>
-4.0633

> <Gold.PLP.part.nonpolar>
-17.5126

> <Gold.PLP.part.repulsive>
0.0417

> <Gold.PLP.ligand.clash>
0.0000

> <Gold.PLP.ligand.torsion>
0.0635

> <Gold.PLP.Chemscore.Hbond>
2.5499

> <Gold.PLP.Chemscore.CHOScore>
0.0000

> <Gold.PLP.Chemscore.Metal>
0.0000

> <Gold.Chemscore.Hbonds>
donor molecule, donor type, donor heavy atom, donor atom, acceptor molecule, acceptor atom, score
      L1  H    15    28       P1  7957  1.00
      L1  H    19    31       P1  8028  1.00
      P1  H  7989  7998       L1    12  0.55

> <Gold.PLP.Chemscore.Internal.Correction>
0.0500

> <Gold.Rescore>
     Score         DG    S(hbond)    S(metal)    S(lipo)     H(rot)  DE(clash)    DE(int)     intcor
      8.58      -8.82       2.41        0.00      29.57       3.19       0.21       0.03       ----

> <Gold.Chemscore.Fitness>
8.5802

> <Gold.Chemscore.DG>
-8.8217

> <Gold.Chemscore.ZeroCoef>
-5.4800

> <Gold.Chemscore.Hbond>
2.4096

> <Gold.Chemscore.Metal>
0.0000

> <Gold.Chemscore.Lipo>
29.5750

> <Gold.Chemscore.Internal_Hbond>
0.0000

> <Gold.Chemscore.DEClash>
0.2120

> <Gold.Chemscore.DEInternal>
0.0295

> <Gold.Chemscore.Rot>
3.1901

> <Gold.Chemscore.Internal.Correction>
   9.000000E+99

> <Gold.Chemscore.Hbonds>
donor molecule, donor type, donor heavy atom, donor atom, acceptor molecule, acceptor atom, score
      L1  H    15    28       P1  7957  0.98
      L1  H    19    31       P1  8028  0.91
      P1  H  7989  7998       L1    12  0.42

> <Gold.Chemscore.Hbond.Weighted>
-8.0481

> <Gold.Chemscore.Metal.Weighted>
-0.0000

> <Gold.Chemscore.Lipo.Weighted>
-3.4603

> <Gold.Chemscore.Internal_Hbond.Weighted>
0.0000

> <Gold.Chemscore.DEClash.Weighted>
0.2120

> <Gold.Chemscore.DEInternal.Weighted>
0.0295

> <Gold.Chemscore.Rot.Weighted>
8.1667

> <Gold.Chemscore.Internal.Correction.Weighted>
   9.000000E+99

> <Gold.Protein.RotatedTorsions>
[ 6907 6896 6895 6894 ] final -140.27 input  -60.11 | X-H torsion
[ 7974 7965 7964 7962 ] final  -67.75 input  175.53 | X-H torsion
[ 8008 7997 7996 7995 ] final -107.48 input   59.86 | X-H torsion
[ 10167 10162 10161 10158 ] final    2.21 input  -65.29 | X-H torsion
[ 10718 10713 10712 10709 ] final  175.98 input   66.30 | X-H torsion
[ 10763 10752 10751 10750 ] final  167.26 input  -60.55 | X-H torsion
[ 11005 11000 10999 10996 ] final  120.08 input  -57.11 | X-H torsion

> <Gold.Protein.ActiveResidues>
 VAL166  LYS551  ARG553  GLY616  TRP617  ASP618  TYR619  PRO620  LYS621  CYS622 
 ASP623  PHE694  ASN695  SER759  ASP760  ASP761  ALA762  ILE779  LEU786  VAL792 
 PHE793  MET794  SER795  GLU796  ALA797  LYS798  CYS799  TRP800  GLU811  SER814 

> <Gold.Protein.RotatedAtoms>
  151.0585  133.5564  159.2636 H   0  0  0  0  0  0  0  0  0  0  0  0  # atno 6907 bound_to 6896
  151.2548  135.0633  159.9085 H   0  0  0  0  0  0  0  0  0  0  0  0  # atno 6908 bound_to 6896
  152.5394  134.0340  159.8091 H   0  0  0  0  0  0  0  0  0  0  0  0  # atno 6909 bound_to 6896
  145.7252  140.9021  143.0609 H   0  0  0  0  0  0  0  0  0  0  0  0  # atno 7974 bound_to 7965
  154.9300  140.0405  157.2043 H   0  0  0  0  0  0  0  0  0  0  0  0  # atno 8008 bound_to 7997
  154.8170  140.2877  155.5792 H   0  0  0  0  0  0  0  0  0  0  0  0  # atno 8009 bound_to 7997
  156.2976  140.2526  156.3069 H   0  0  0  0  0  0  0  0  0  0  0  0  # atno 8010 bound_to 7997
  140.6646  143.7214  150.7802 H   0  0  0  0  0  0  0  0  0  0  0  0  # atno 10167 bound_to 10162
  156.9268  130.9958  151.2994 H   0  0  0  0  0  0  0  0  0  0  0  0  # atno 10718 bound_to 10713
  154.3512  135.2753  155.2371 H   0  0  0  0  0  0  0  0  0  0  0  0  # atno 10763 bound_to 10752
  154.4599  135.5909  153.6252 H   0  0  0  0  0  0  0  0  0  0  0  0  # atno 10764 bound_to 10752
  152.9850  135.6062  154.3722 H   0  0  0  0  0  0  0  0  0  0  0  0  # atno 10765 bound_to 10752
  139.9171  134.9632  156.7752 H   0  0  0  0  0  0  0  0  0  0  0  0  # atno 11005 bound_to 11000
  144.6906  139.9256  143.7469 LP  0  0  0  0  0  0  0  0  0  0  0  0  # atno 17320 bound_to 7965
  146.0589  139.3584  143.0593 LP  0  0  0  0  0  0  0  0  0  0  0  0  # atno 17321 bound_to 7965
  140.0888  143.4897  152.2490 LP  0  0  0  0  0  0  0  0  0  0  0  0  # atno 17342 bound_to 10162
  139.5890  144.7543  151.3447 LP  0  0  0  0  0  0  0  0  0  0  0  0  # atno 17343 bound_to 10162
  157.5872  130.8418  149.8607 LP  0  0  0  0  0  0  0  0  0  0  0  0  # atno 17370 bound_to 10713
  156.0465  130.3727  150.1304 LP  0  0  0  0  0  0  0  0  0  0  0  0  # atno 17371 bound_to 10713
  140.6588  133.9664  155.7794 LP  0  0  0  0  0  0  0  0  0  0  0  0  # atno 17394 bound_to 11000
  141.0657  134.0280  157.3596 LP  0  0  0  0  0  0  0  0  0  0  0  0  # atno 17395 bound_to 11000

$$$$
