AV-unprocessed.smi:283|AV-procd|sdf|2155|dock4
  -GOLD-   2262021503D 1   1.00000     0.00000
 Structure written by MMmdl.
 48 51  0  0  0  0  0  0  0  0  1 V2000
  150.4788  141.5920  157.5881 C   0  0  0  0  0  0  0  0  0  0  0  0
  151.9099  141.4166  158.1131 C   0  0  2  0  0  0  0  0  0  0  0  0
  152.1956  139.9951  158.3011 N   0  0  0  0  0  0  0  0  0  0  0  0
  152.0346  139.1140  157.2890 C   0  0  0  0  0  0  0  0  0  0  0  0
  152.9909  139.1396  156.3305 N   0  0  0  0  0  0  0  0  0  0  0  0
  152.9009  138.3298  155.2721 C   0  0  0  0  0  0  0  0  0  0  0  0
  151.9502  137.4403  154.9814 N   0  0  0  0  0  0  0  0  0  0  0  0
  150.9871  137.4009  155.9470 C   0  0  0  0  0  0  0  0  0  0  0  0
  150.9644  138.1844  157.1356 C   0  0  0  0  0  0  0  0  0  0  0  0
  149.8559  137.8306  157.8948 N   0  0  0  0  0  0  0  0  0  0  0  0
  149.2545  136.9162  157.1858 C   0  0  0  0  0  0  0  0  0  0  0  0
  149.8432  136.6291  155.9730 N   0  0  0  0  0  0  0  0  0  0  0  0
  149.4117  135.6401  154.9305 C   0  0  1  0  0  0  0  0  0  0  0  0
  150.3123  134.5699  154.9556 O   0  0  0  0  0  0  0  0  0  0  0  0
  149.7542  133.4429  155.6287 C   0  0  1  0  0  0  0  0  0  0  0  0
  150.0740  133.4964  157.1364 C   0  0  0  0  0  0  0  0  0  0  0  0
  151.4393  133.2160  157.3591 O   0  0  0  0  0  0  0  0  0  0  0  0
  148.2617  133.5541  155.3080 C   0  0  2  0  0  0  0  0  0  0  0  0
  148.0147  132.9036  154.0731 O   0  0  0  0  0  0  0  0  0  0  0  0
  148.0181  135.0619  155.2544 C   0  0  2  0  0  0  0  0  0  0  0  0
  147.0331  135.4102  154.2995 O   0  0  0  0  0  0  0  0  0  0  0  0
  152.1322  142.2885  159.3535 C   0  0  0  0  0  0  0  0  0  0  0  0
  152.5362  141.6929  160.5713 C   0  0  0  0  0  0  0  0  0  0  0  0
  152.7602  142.4792  161.7167 C   0  0  0  0  0  0  0  0  0  0  0  0
  152.5731  143.8718  161.6606 C   0  0  0  0  0  0  0  0  0  0  0  0
  152.1542  144.4739  160.4601 C   0  0  0  0  0  0  0  0  0  0  0  0
  151.9276  143.6912  159.3102 C   0  0  0  0  0  0  0  0  0  0  0  0
  151.3995  144.4855  157.8680 Cl  0  0  0  0  0  0  0  0  0  0  0  0
  149.4733  136.1885  153.9898 H   0  0  0  0  0  0  0  0  0  0  0  0
  150.1915  132.5337  155.2121 H   0  0  0  0  0  0  0  0  0  0  0  0
  147.6393  133.0732  156.0637 H   0  0  0  0  0  0  0  0  0  0  0  0
  147.6975  135.4017  156.2401 H   0  0  0  0  0  0  0  0  0  0  0  0
  150.2727  142.6366  157.3537 H   0  0  0  0  0  0  0  0  0  0  0  0
  149.7431  141.2650  158.3234 H   0  0  0  0  0  0  0  0  0  0  0  0
  150.3198  141.0144  156.6770 H   0  0  0  0  0  0  0  0  0  0  0  0
  152.5776  141.7501  157.3208 H   0  0  0  0  0  0  0  0  0  0  0  0
  152.7780  139.7861  159.0989 H   0  0  0  0  0  0  0  0  0  0  0  0
  153.6999  138.4128  154.5503 H   0  0  0  0  0  0  0  0  0  0  0  0
  148.3507  136.4365  157.5316 H   0  0  0  0  0  0  0  0  0  0  0  0
  149.8672  134.4925  157.5281 H   0  0  0  0  0  0  0  0  0  0  0  0
  149.4666  132.7920  157.7050 H   0  0  0  0  0  0  0  0  0  0  0  0
  151.6420  132.3796  156.9683 H   0  0  0  0  0  0  0  0  0  0  0  0
  147.0795  132.8447  153.9505 H   0  0  0  0  0  0  0  0  0  0  0  0
  147.4649  135.8167  153.5635 H   0  0  0  0  0  0  0  0  0  0  0  0
  152.6843  140.6247  160.6326 H   0  0  0  0  0  0  0  0  0  0  0  0
  153.0761  142.0131  162.6383 H   0  0  0  0  0  0  0  0  0  0  0  0
  152.7455  144.4770  162.5384 H   0  0  0  0  0  0  0  0  0  0  0  0
  152.0044  145.5429  160.4224 H   0  0  0  0  0  0  0  0  0  0  0  0
  1  2  1  0  0  0  0
  1 33  1  0  0  0  0
  1 34  1  0  0  0  0
  1 35  1  0  0  0  0
  2  3  1  0  0  0  0
  2 22  1  0  0  0  0
  2 36  1  0  0  0  0
  3  4  1  0  0  0  0
  3 37  1  0  0  0  0
  4  9  1  0  0  0  0
  4  5  2  0  0  0  0
  5  6  1  0  0  0  0
  6  7  2  0  0  0  0
  6 38  1  0  0  0  0
  7  8  1  0  0  0  0
  8 12  1  0  0  0  0
  8  9  2  0  0  0  0
  9 10  1  0  0  0  0
 10 11  2  0  0  0  0
 11 12  1  0  0  0  0
 11 39  1  0  0  0  0
 12 13  1  0  0  0  0
 13 29  1  0  0  0  0
 13 20  1  0  0  0  0
 13 14  1  0  0  0  0
 14 15  1  0  0  0  0
 15 30  1  0  0  0  0
 15 16  1  0  0  0  0
 15 18  1  0  0  0  0
 16 17  1  0  0  0  0
 16 40  1  0  0  0  0
 16 41  1  0  0  0  0
 17 42  1  0  0  0  0
 18 31  1  0  0  0  0
 18 19  1  0  0  0  0
 18 20  1  0  0  0  0
 19 43  1  0  0  0  0
 20 32  1  0  0  0  0
 20 21  1  0  0  0  0
 21 44  1  0  0  0  0
 22 27  1  0  0  0  0
 22 23  2  0  0  0  0
 23 24  1  0  0  0  0
 23 45  1  0  0  0  0
 24 25  2  0  0  0  0
 24 46  1  0  0  0  0
 25 26  1  0  0  0  0
 25 47  1  0  0  0  0
 26 27  2  0  0  0  0
 26 48  1  0  0  0  0
 27 28  1  0  0  0  0
M  END
> <s_m_source_file>
AV-unprocessed.smi

> <i_m_source_file_index>
283

> <i_lp_mmshare_version>
43012

> <i_f3d_flags>
0

> <s_epik_input>
Q2xjMVtjSF1bY0hdW2NIXVtjSF1jMVtDQEhdKFtDSDNdKVtOSF1jKG5bY0hdbjIpYyhjMjMpbltjSF1uM1tDQEBIXTRPW0NASF0oW0NIMl1bT0hdKVtDQEBIXShbT0hdKVtDQEhdNFtPSF0=

> <s_epik_cmdline>
J2VwaWtfcHl0aG9uJywgJy1waCcsICc3LjAnLCAnLXRuJywgJzgnLCAnLW1hJywgJzIwMCcsICctbWV0YWxfYmluZGluZycsICctaW1hZScsICc8aW5maWxlLm1hZT4nLCAnLW9tYWUnLCAnPG91dGZpbGUubWFlPic=

> <r_lp_tautomer_probability>
1

> <r_epik_Ionization_Penalty>
0.000266407

> <r_epik_Ionization_Penalty_Charging>
0

> <r_epik_Ionization_Penalty_Neutral>
0.000266407

> <r_epik_State_Penalty>
-0

> <r_epik_Charging_Adjusted_Penalty>
0

> <i_epik_Tot_Q>
0

> <i_epik_Tot_abs_Q>
0

> <r_epik_Metal_State_Penalty>
-0

> <b_epik_Metal_Only>
0

> <s_epik_Chemistry_Notes>
This compound contains an acetal/aminal-like group ( X-CH(R)-Y where X, Y are N, S, or O) that may be acid/base labile, releasing an aldehyde.

> <s_lp_Force_Field>
OPLS_2005

> <r_lp_Energy>
45.281

> <b_lp_Chiralities_Consistent>
1

> <s_lp_Variant>
AV-unprocessed.smi:283-31

> <Gold.Version>
5.8.1

> <Gold.Id.Protein>
6NUR|6NUR_protein|mol2

> <Gold.PLP.Fitness>
51.2305

> <Gold.PLP.PLP>
-43.3147

> <Gold.PLP.part.hbond>
-3.9379

> <Gold.PLP.part.metal>
0.0000

> <Gold.PLP.part.buried>
-4.5115

> <Gold.PLP.part.nonpolar>
-35.9797

> <Gold.PLP.part.repulsive>
0.3095

> <Gold.PLP.ligand.clash>
0.0000

> <Gold.PLP.ligand.torsion>
0.9281

> <Gold.PLP.Chemscore.Hbond>
3.2220

> <Gold.PLP.Chemscore.CHOScore>
0.0000

> <Gold.PLP.Chemscore.Metal>
0.0000

> <Gold.Chemscore.Hbonds>
donor molecule, donor type, donor heavy atom, donor atom, acceptor molecule, acceptor atom, score
      L1  H    21    44       P1  7948  0.34
      P1  H  6896  6907       L1    17  0.45
      P1  H  7997  8010       L1     5  1.00
      P1  H 10752 10765       L1     7  0.70

> <Gold.PLP.Chemscore.Internal.Correction>
0.1060

> <Gold.Rescore>
     Score         DG    S(hbond)    S(metal)    S(lipo)     H(rot)  DE(clash)    DE(int)     intcor
     16.30     -18.32       2.94        0.00     115.40       4.10       0.54       1.48       ----

> <Gold.Chemscore.Fitness>
16.2995

> <Gold.Chemscore.DG>
-18.3189

> <Gold.Chemscore.ZeroCoef>
-5.4800

> <Gold.Chemscore.Hbond>
2.9418

> <Gold.Chemscore.Metal>
0.0000

> <Gold.Chemscore.Lipo>
115.3961

> <Gold.Chemscore.Internal_Hbond>
0.0000

> <Gold.Chemscore.DEClash>
0.5398

> <Gold.Chemscore.DEInternal>
1.4797

> <Gold.Chemscore.Rot>
4.0968

> <Gold.Chemscore.Internal.Correction>
   9.000000E+99

> <Gold.Chemscore.Hbonds>
donor molecule, donor type, donor heavy atom, donor atom, acceptor molecule, acceptor atom, score
      L1  H    21    44       P1  7948  0.35
      P1  H  6896  6907       L1    17  0.29
      P1  H  7997  8010       L1     5  0.95
      P1  H 10752 10765       L1     7  0.36

> <Gold.Chemscore.Hbond.Weighted>
-9.8255

> <Gold.Chemscore.Metal.Weighted>
-0.0000

> <Gold.Chemscore.Lipo.Weighted>
-13.5013

> <Gold.Chemscore.Internal_Hbond.Weighted>
0.0000

> <Gold.Chemscore.DEClash.Weighted>
0.5398

> <Gold.Chemscore.DEInternal.Weighted>
1.4797

> <Gold.Chemscore.Rot.Weighted>
10.4879

> <Gold.Chemscore.Internal.Correction.Weighted>
   9.000000E+99

> <Gold.Protein.RotatedTorsions>
[ 6907 6896 6895 6894 ] final  165.15 input  -60.11 | X-H torsion
[ 7974 7965 7964 7962 ] final  162.82 input  175.53 | X-H torsion
[ 8008 7997 7996 7995 ] final   63.48 input   59.86 | X-H torsion
[ 10167 10162 10161 10158 ] final  -57.41 input  -65.29 | X-H torsion
[ 10718 10713 10712 10709 ] final -169.55 input   66.30 | X-H torsion
[ 10763 10752 10751 10750 ] final  175.91 input  -60.55 | X-H torsion
[ 11005 11000 10999 10996 ] final -125.78 input  -57.11 | X-H torsion

> <Gold.Protein.ActiveResidues>
 VAL166  LYS551  ARG553  GLY616  TRP617  ASP618  TYR619  PRO620  LYS621  CYS622 
 ASP623  PHE694  ASN695  SER759  ASP760  ASP761  ALA762  ILE779  LEU786  VAL792 
 PHE793  MET794  SER795  GLU796  ALA797  LYS798  CYS799  TRP800  GLU811  SER814 

> <Gold.Protein.RotatedAtoms>
  151.8989  133.3533  159.3823 H   0  0  0  0  0  0  0  0  0  0  0  0  # atno 6907 bound_to 6896
  150.7085  134.4848  159.5497 H   0  0  0  0  0  0  0  0  0  0  0  0  # atno 6908 bound_to 6896
  152.2433  134.8207  160.0508 H   0  0  0  0  0  0  0  0  0  0  0  0  # atno 6909 bound_to 6896
  144.7619  139.8094  143.6329 H   0  0  0  0  0  0  0  0  0  0  0  0  # atno 7974 bound_to 7965
  155.6310  140.3496  155.4683 H   0  0  0  0  0  0  0  0  0  0  0  0  # atno 8008 bound_to 7997
  156.0003  140.1212  157.0577 H   0  0  0  0  0  0  0  0  0  0  0  0  # atno 8009 bound_to 7997
  154.4247  140.1102  156.5674 H   0  0  0  0  0  0  0  0  0  0  0  0  # atno 8010 bound_to 7997
  140.6259  143.2438  151.5364 H   0  0  0  0  0  0  0  0  0  0  0  0  # atno 10167 bound_to 10162
  156.7132  130.9241  151.3091 H   0  0  0  0  0  0  0  0  0  0  0  0  # atno 10718 bound_to 10713
  154.4739  135.2772  155.1621 H   0  0  0  0  0  0  0  0  0  0  0  0  # atno 10763 bound_to 10752
  154.3359  135.6180  153.5577 H   0  0  0  0  0  0  0  0  0  0  0  0  # atno 10764 bound_to 10752
  152.9867  135.5777  154.5126 H   0  0  0  0  0  0  0  0  0  0  0  0  # atno 10765 bound_to 10752
  140.9734  134.0773  157.3844 H   0  0  0  0  0  0  0  0  0  0  0  0  # atno 11005 bound_to 11000
  146.1689  139.4832  142.9940 LP  0  0  0  0  0  0  0  0  0  0  0  0  # atno 17320 bound_to 7965
  145.6594  141.0244  143.1717 LP  0  0  0  0  0  0  0  0  0  0  0  0  # atno 17321 bound_to 7965
  139.5480  144.2470  152.1478 LP  0  0  0  0  0  0  0  0  0  0  0  0  # atno 17342 bound_to 10162
  140.1702  144.4943  150.6584 LP  0  0  0  0  0  0  0  0  0  0  0  0  # atno 17343 bound_to 10162
  157.6927  130.9250  150.0559 LP  0  0  0  0  0  0  0  0  0  0  0  0  # atno 17370 bound_to 10713
  156.1646  130.3644  149.9251 LP  0  0  0  0  0  0  0  0  0  0  0  0  # atno 17371 bound_to 10713
  139.8921  135.0122  156.6828 LP  0  0  0  0  0  0  0  0  0  0  0  0  # atno 17394 bound_to 11000
  140.7294  133.9072  155.8201 LP  0  0  0  0  0  0  0  0  0  0  0  0  # atno 17395 bound_to 11000

$$$$
