AV-unprocessed.smi:2538|AV-procd|sdf|9981|dock9
  -GOLD-   2272014 23D 1   1.00000     0.00000
 Structure written by MMmdl.
 48 49  0  0  0  0  0  0  0  0  1 V2000
  153.2308  142.3376  161.4951 C   0  0  0  0  0  0  0  0  0  0  0  0
  152.5246  142.1760  160.1605 C   0  0  0  0  0  0  0  0  0  0  0  0
  152.8272  141.0551  159.3548 C   0  0  0  0  0  0  0  0  0  0  0  0
  152.1937  140.8677  158.1068 C   0  0  0  0  0  0  0  0  0  0  0  0
  152.3351  139.8594  157.1687 N   0  0  0  0  0  0  0  0  0  0  0  0
  151.4794  140.2473  156.2274 C   0  0  0  0  0  0  0  0  0  0  0  0
  150.7987  141.3886  156.4463 N   0  0  0  0  0  0  0  0  0  0  0  0
  149.8162  142.0078  155.5751 C   0  0  0  0  0  0  0  0  0  0  0  0
  149.0769  140.9760  154.7016 C   0  0  2  0  0  0  0  0  0  0  0  0
  149.8316  140.7744  153.5225 O   0  0  0  0  0  0  0  0  0  0  0  0
  147.6635  141.4590  154.3105 C   0  0  0  0  0  0  0  0  0  0  0  0
  146.6099  140.9783  155.2249 N   0  0  0  0  0  0  0  0  0  0  0  0
  146.1305  139.6094  154.9922 C   0  0  0  0  0  0  0  0  0  0  0  0
  145.5523  142.1065  156.0171 S   0  0  0  0  0  0  0  0  0  0  0  0
  144.5520  141.3118  156.7470 O   0  0  0  0  0  0  0  0  0  0  0  0
  146.3951  143.0653  156.7489 O   0  0  0  0  0  0  0  0  0  0  0  0
  144.7038  142.9805  154.6120 C   0  0  0  0  0  0  0  0  0  0  0  0
  145.7317  143.6771  153.7090 C   0  0  0  0  0  0  0  0  0  0  0  0
  143.6568  143.9716  155.1405 C   0  0  0  0  0  0  0  0  0  0  0  0
  151.2419  141.8407  157.6837 C   0  0  0  0  0  0  0  0  0  0  0  0
  150.9322  142.9604  158.4759 C   0  0  0  0  0  0  0  0  0  0  0  0
  151.5731  143.1312  159.7209 C   0  0  0  0  0  0  0  0  0  0  0  0
  151.2301  144.3420  160.5704 C   0  0  0  0  0  0  0  0  0  0  0  0
  153.9735  141.5545  161.6500 H   0  0  0  0  0  0  0  0  0  0  0  0
  152.5133  142.2867  162.3146 H   0  0  0  0  0  0  0  0  0  0  0  0
  153.7448  143.2978  161.5436 H   0  0  0  0  0  0  0  0  0  0  0  0
  153.5508  140.3266  159.6897 H   0  0  0  0  0  0  0  0  0  0  0  0
  151.3363  139.6665  155.3280 H   0  0  0  0  0  0  0  0  0  0  0  0
  149.1062  142.5475  156.2031 H   0  0  0  0  0  0  0  0  0  0  0  0
  150.3143  142.7534  154.9534 H   0  0  0  0  0  0  0  0  0  0  0  0
  149.0294  140.0375  155.2523 H   0  0  0  0  0  0  0  0  0  0  0  0
  149.3621  140.1745  152.9635 H   0  0  0  0  0  0  0  0  0  0  0  0
  147.6356  142.5490  154.3317 H   0  0  0  0  0  0  0  0  0  0  0  0
  147.4211  141.1940  153.2808 H   0  0  0  0  0  0  0  0  0  0  0  0
  145.3712  139.5966  154.2105 H   0  0  0  0  0  0  0  0  0  0  0  0
  145.6902  139.2036  155.9028 H   0  0  0  0  0  0  0  0  0  0  0  0
  146.9499  138.9548  154.6945 H   0  0  0  0  0  0  0  0  0  0  0  0
  144.1898  142.2292  154.0168 H   0  0  0  0  0  0  0  0  0  0  0  0
  145.2420  144.1810  152.8756 H   0  0  0  0  0  0  0  0  0  0  0  0
  146.4388  142.9629  153.2874 H   0  0  0  0  0  0  0  0  0  0  0  0
  146.3010  144.4241  154.2627 H   0  0  0  0  0  0  0  0  0  0  0  0
  143.1213  144.4501  154.3202 H   0  0  0  0  0  0  0  0  0  0  0  0
  144.1194  144.7574  155.7387 H   0  0  0  0  0  0  0  0  0  0  0  0
  142.9183  143.4662  155.7634 H   0  0  0  0  0  0  0  0  0  0  0  0
  150.2061  143.6804  158.1281 H   0  0  0  0  0  0  0  0  0  0  0  0
  150.4408  144.9388  160.1124 H   0  0  0  0  0  0  0  0  0  0  0  0
  152.1050  144.9805  160.6939 H   0  0  0  0  0  0  0  0  0  0  0  0
  150.8844  144.0328  161.5569 H   0  0  0  0  0  0  0  0  0  0  0  0
  1  2  1  0  0  0  0
  1 24  1  0  0  0  0
  1 25  1  0  0  0  0
  1 26  1  0  0  0  0
  2 22  1  0  0  0  0
  2  3  2  0  0  0  0
  3  4  1  0  0  0  0
  3 27  1  0  0  0  0
  4 20  2  0  0  0  0
  4  5  1  0  0  0  0
  5  6  2  0  0  0  0
  6  7  1  0  0  0  0
  6 28  1  0  0  0  0
  7  8  1  0  0  0  0
  7 20  1  0  0  0  0
  8  9  1  0  0  0  0
  8 29  1  0  0  0  0
  8 30  1  0  0  0  0
  9 10  1  0  0  0  0
  9 11  1  0  0  0  0
  9 31  1  0  0  0  0
 10 32  1  0  0  0  0
 11 12  1  0  0  0  0
 11 33  1  0  0  0  0
 11 34  1  0  0  0  0
 12 13  1  0  0  0  0
 12 14  1  0  0  0  0
 13 35  1  0  0  0  0
 13 36  1  0  0  0  0
 13 37  1  0  0  0  0
 14 15  2  0  0  0  0
 14 16  2  0  0  0  0
 14 17  1  0  0  0  0
 17 18  1  0  0  0  0
 17 19  1  0  0  0  0
 17 38  1  0  0  0  0
 18 39  1  0  0  0  0
 18 40  1  0  0  0  0
 18 41  1  0  0  0  0
 19 42  1  0  0  0  0
 19 43  1  0  0  0  0
 19 44  1  0  0  0  0
 20 21  1  0  0  0  0
 21 22  2  0  0  0  0
 21 45  1  0  0  0  0
 22 23  1  0  0  0  0
 23 46  1  0  0  0  0
 23 47  1  0  0  0  0
 23 48  1  0  0  0  0
M  END
> <s_m_source_file>
AV-unprocessed.smi

> <i_m_source_file_index>
2538

> <i_lp_mmshare_version>
43012

> <i_f3d_flags>
0

> <s_epik_input>
W0NIM11jKFtjSF0xKWMoW0NIM10pW2NIXWMoYzEyKW4oW2NIXW4yKVtDSDJdW0NASF0oW09IXSlbQ0gyXU4oW0NIM10pUyg9TykoPU8pW0NIXShbQ0gzXSlbQ0gzXQ==

> <s_epik_cmdline>
J2VwaWtfcHl0aG9uJywgJy1waCcsICc3LjAnLCAnLXRuJywgJzgnLCAnLW1hJywgJzIwMCcsICctbWV0YWxfYmluZGluZycsICctaW1hZScsICc8aW5maWxlLm1hZT4nLCAnLW9tYWUnLCAnPG91dGZpbGUubWFlPic=

> <r_epik_Ionization_Penalty>
0.105018

> <r_epik_Ionization_Penalty_Charging>
0

> <r_epik_Ionization_Penalty_Neutral>
0.105018

> <r_epik_State_Penalty>
0.094904

> <r_epik_Charging_Adjusted_Penalty>
0.094904

> <i_epik_Tot_Q>
0

> <i_epik_Tot_abs_Q>
0

> <r_epik_Metal_State_Penalty>
0.000102919

> <b_epik_Metal_Only>
0

> <s_lp_Force_Field>
OPLS_2005

> <r_lp_Energy>
2.81525

> <b_lp_Chiralities_Consistent>
1

> <s_lp_Variant>
AV-unprocessed.smi:2538-1

> <Gold.Version>
5.8.1

> <Gold.Id.Protein>
6NUR|6NUR_protein|mol2

> <Gold.PLP.Fitness>
51.3031

> <Gold.PLP.PLP>
-45.1709

> <Gold.PLP.part.hbond>
-3.3683

> <Gold.PLP.part.metal>
0.0000

> <Gold.PLP.part.buried>
-2.2896

> <Gold.PLP.part.nonpolar>
-39.0115

> <Gold.PLP.part.repulsive>
0.2151

> <Gold.PLP.ligand.clash>
0.0000

> <Gold.PLP.ligand.torsion>
2.4455

> <Gold.PLP.Chemscore.Hbond>
2.8160

> <Gold.PLP.Chemscore.CHOScore>
0.0000

> <Gold.PLP.Chemscore.Metal>
0.0000

> <Gold.Chemscore.Hbonds>
donor molecule, donor type, donor heavy atom, donor atom, acceptor molecule, acceptor atom, score
      L1  H    10    32       P1  7957  0.48
      P1  H  7989  7998       L1    10  0.37
      P1  H  7997  8008       L1     5  0.76
      P1  H  8011  8017       L1    10  0.95

> <Gold.PLP.Chemscore.Internal.Correction>
2.5752

> <Gold.Rescore>
     Score         DG    S(hbond)    S(metal)    S(lipo)     H(rot)  DE(clash)    DE(int)     intcor
     15.78     -19.61       2.09        0.00     111.26       2.29       1.23       2.60       ----

> <Gold.Chemscore.Fitness>
15.7800

> <Gold.Chemscore.DG>
-19.6122

> <Gold.Chemscore.ZeroCoef>
-5.4800

> <Gold.Chemscore.Hbond>
2.0905

> <Gold.Chemscore.Metal>
0.0000

> <Gold.Chemscore.Lipo>
111.2558

> <Gold.Chemscore.Internal_Hbond>
0.0000

> <Gold.Chemscore.DEClash>
1.2314

> <Gold.Chemscore.DEInternal>
2.6008

> <Gold.Chemscore.Rot>
2.2917

> <Gold.Chemscore.Internal.Correction>
   9.000000E+99

> <Gold.Chemscore.Hbonds>
donor molecule, donor type, donor heavy atom, donor atom, acceptor molecule, acceptor atom, score
      L1  H    10    32       P1  7957  0.48
      P1  H  7989  7998       L1    10  0.37
      P1  H  7997  8008       L1     5  0.22
      P1  H  8011  8017       L1    10  0.16

> <Gold.Chemscore.Hbond.Weighted>
-6.9822

> <Gold.Chemscore.Metal.Weighted>
-0.0000

> <Gold.Chemscore.Lipo.Weighted>
-13.0169

> <Gold.Chemscore.Internal_Hbond.Weighted>
0.0000

> <Gold.Chemscore.DEClash.Weighted>
1.2314

> <Gold.Chemscore.DEInternal.Weighted>
2.6008

> <Gold.Chemscore.Rot.Weighted>
5.8669

> <Gold.Chemscore.Internal.Correction.Weighted>
   9.000000E+99

> <Gold.Protein.RotatedTorsions>
[ 6907 6896 6895 6894 ] final -106.99 input  -60.11 | X-H torsion
[ 7974 7965 7964 7962 ] final -121.21 input  175.53 | X-H torsion
[ 8008 7997 7996 7995 ] final  -54.53 input   59.86 | X-H torsion
[ 10167 10162 10161 10158 ] final  -84.32 input  -65.29 | X-H torsion
[ 10718 10713 10712 10709 ] final   41.42 input   66.30 | X-H torsion
[ 10763 10752 10751 10750 ] final  -28.10 input  -60.55 | X-H torsion
[ 11005 11000 10999 10996 ] final   47.37 input  -57.11 | X-H torsion

> <Gold.Protein.ActiveResidues>
 VAL166  LYS551  ARG553  GLY616  TRP617  ASP618  TYR619  PRO620  LYS621  CYS622 
 ASP623  PHE694  ASN695  SER759  ASP760  ASP761  ALA762  ILE779  LEU786  VAL792 
 PHE793  MET794  SER795  GLU796  ALA797  LYS798  CYS799  TRP800  GLU811  SER814 

> <Gold.Protein.RotatedAtoms>
  150.7419  133.9893  159.3601 H   0  0  0  0  0  0  0  0  0  0  0  0  # atno 6907 bound_to 6896
  151.7840  135.0752  160.0387 H   0  0  0  0  0  0  0  0  0  0  0  0  # atno 6908 bound_to 6896
  152.3254  133.5863  159.5809 H   0  0  0  0  0  0  0  0  0  0  0  0  # atno 6909 bound_to 6896
  145.0428  140.8158  143.4256 H   0  0  0  0  0  0  0  0  0  0  0  0  # atno 7974 bound_to 7965
  154.4166  140.1174  156.5331 H   0  0  0  0  0  0  0  0  0  0  0  0  # atno 8008 bound_to 7997
  155.6585  140.3496  155.4755 H   0  0  0  0  0  0  0  0  0  0  0  0  # atno 8009 bound_to 7997
  155.9733  140.1145  157.0783 H   0  0  0  0  0  0  0  0  0  0  0  0  # atno 8010 bound_to 7997
  140.4144  143.2610  151.8975 H   0  0  0  0  0  0  0  0  0  0  0  0  # atno 10167 bound_to 10162
  157.3934  130.7819  149.7288 H   0  0  0  0  0  0  0  0  0  0  0  0  # atno 10718 bound_to 10713
  153.7428  135.6931  153.4963 H   0  0  0  0  0  0  0  0  0  0  0  0  # atno 10763 bound_to 10752
  153.2057  135.4420  155.0319 H   0  0  0  0  0  0  0  0  0  0  0  0  # atno 10764 bound_to 10752
  154.8214  135.3424  154.6953 H   0  0  0  0  0  0  0  0  0  0  0  0  # atno 10765 bound_to 10752
  140.1285  134.4736  155.8540 H   0  0  0  0  0  0  0  0  0  0  0  0  # atno 11005 bound_to 11000
  145.1625  139.2450  143.5384 LP  0  0  0  0  0  0  0  0  0  0  0  0  # atno 17320 bound_to 7965
  146.3511  140.1356  142.8596 LP  0  0  0  0  0  0  0  0  0  0  0  0  # atno 17321 bound_to 7965
  139.4782  144.5504  151.8395 LP  0  0  0  0  0  0  0  0  0  0  0  0  # atno 17342 bound_to 10162
  140.4603  144.1731  150.5905 LP  0  0  0  0  0  0  0  0  0  0  0  0  # atno 17343 bound_to 10162
  155.9804  130.4030  150.3530 LP  0  0  0  0  0  0  0  0  0  0  0  0  # atno 17370 bound_to 10713
  157.1649  131.0354  151.2823 LP  0  0  0  0  0  0  0  0  0  0  0  0  # atno 17371 bound_to 10713
  141.2166  133.6787  156.7024 LP  0  0  0  0  0  0  0  0  0  0  0  0  # atno 17394 bound_to 11000
  140.2873  134.8269  157.3986 LP  0  0  0  0  0  0  0  0  0  0  0  0  # atno 17395 bound_to 11000

$$$$
