AV-unprocessed.smi:2390|AV-procd|sdf|9475|dock9
  -GOLD-   2272013103D 1   1.00000     0.00000
 Structure written by MMmdl.
 45 46  0  0  0  0  0  0  0  0  1 V2000
  153.5899  141.1240  160.0725 C   0  0  0  0  0  0  0  0  0  0  0  0
  152.6736  142.2920  159.7741 C   0  0  0  0  0  0  0  0  0  0  0  0
  152.7519  143.4836  160.5213 C   0  0  0  0  0  0  0  0  0  0  0  0
  151.8753  144.5321  160.1906 C   0  0  0  0  0  0  0  0  0  0  0  0
  150.9643  144.3483  159.1326 C   0  0  0  0  0  0  0  0  0  0  0  0
  150.9511  143.1212  158.4320 C   0  0  0  0  0  0  0  0  0  0  0  0
  150.0030  143.0399  157.3778 N   0  0  0  0  0  0  0  0  0  0  0  0
  149.4500  141.9385  156.8399 C   0  0  0  0  0  0  0  0  0  0  0  0
  149.6439  140.7837  157.2211 O   0  0  0  0  0  0  0  0  0  0  0  0
  148.6378  142.2551  155.8206 N   0  0  0  0  0  0  0  0  0  0  0  0
  147.8746  141.3035  155.0137 C   0  0  2  0  0  0  0  0  0  0  0  0
  148.3432  141.4060  153.5514 C   0  0  0  0  0  0  0  0  0  0  0  0
  146.3324  141.4965  155.1868 C   0  0  1  0  0  0  0  0  0  0  0  0
  145.8972  141.0385  156.6038 C   0  0  0  0  0  0  0  0  0  0  0  0
  145.8564  142.8591  154.8473 N   0  0  0  0  0  0  0  0  0  0  0  0
  145.8800  143.1289  153.4050 C   0  0  0  0  0  0  0  0  0  0  0  0
  145.3658  144.5358  153.0533 C   0  0  0  0  0  0  0  0  0  0  0  0
  144.0517  144.7109  153.5650 O   0  0  0  0  0  0  0  0  0  0  0  0
  143.9994  144.5325  154.9736 C   0  0  0  0  0  0  0  0  0  0  0  0
  144.4977  143.1225  155.3340 C   0  0  0  0  0  0  0  0  0  0  0  0
  151.8002  142.1155  158.7593 N   0  0  0  0  0  0  0  0  0  0  0  0
  154.1042  141.2587  161.0244 H   0  0  0  0  0  0  0  0  0  0  0  0
  154.3413  141.0248  159.2889 H   0  0  0  0  0  0  0  0  0  0  0  0
  153.0215  140.1947  160.1235 H   0  0  0  0  0  0  0  0  0  0  0  0
  153.4639  143.5941  161.3261 H   0  0  0  0  0  0  0  0  0  0  0  0
  151.9012  145.4630  160.7377 H   0  0  0  0  0  0  0  0  0  0  0  0
  150.2851  145.1448  158.8645 H   0  0  0  0  0  0  0  0  0  0  0  0
  149.7263  143.9227  156.9747 H   0  0  0  0  0  0  0  0  0  0  0  0
  148.5373  143.2304  155.5807 H   0  0  0  0  0  0  0  0  0  0  0  0
  148.1661  140.3181  155.3748 H   0  0  0  0  0  0  0  0  0  0  0  0
  147.8330  140.6795  152.9189 H   0  0  0  0  0  0  0  0  0  0  0  0
  149.4126  141.2088  153.4712 H   0  0  0  0  0  0  0  0  0  0  0  0
  148.1610  142.3970  153.1351 H   0  0  0  0  0  0  0  0  0  0  0  0
  145.8561  140.8065  154.4883 H   0  0  0  0  0  0  0  0  0  0  0  0
  146.3272  140.0780  156.8850 H   0  0  0  0  0  0  0  0  0  0  0  0
  144.8188  140.8991  156.6715 H   0  0  0  0  0  0  0  0  0  0  0  0
  146.1877  141.7630  157.3648 H   0  0  0  0  0  0  0  0  0  0  0  0
  146.8930  143.0579  153.0144 H   0  0  0  0  0  0  0  0  0  0  0  0
  145.2832  142.3822  152.8788 H   0  0  0  0  0  0  0  0  0  0  0  0
  146.0284  145.3011  153.4605 H   0  0  0  0  0  0  0  0  0  0  0  0
  145.3466  144.6719  151.9718 H   0  0  0  0  0  0  0  0  0  0  0  0
  144.6034  145.2950  155.4684 H   0  0  0  0  0  0  0  0  0  0  0  0
  142.9721  144.6696  155.3114 H   0  0  0  0  0  0  0  0  0  0  0  0
  143.8089  142.3804  154.9275 H   0  0  0  0  0  0  0  0  0  0  0  0
  144.4547  143.0354  156.4184 H   0  0  0  0  0  0  0  0  0  0  0  0
  1  2  1  0  0  0  0
  1 22  1  0  0  0  0
  1 23  1  0  0  0  0
  1 24  1  0  0  0  0
  2 21  1  0  0  0  0
  2  3  2  0  0  0  0
  3  4  1  0  0  0  0
  3 25  1  0  0  0  0
  4  5  2  0  0  0  0
  4 26  1  0  0  0  0
  5  6  1  0  0  0  0
  5 27  1  0  0  0  0
  6  7  1  0  0  0  0
  6 21  2  0  0  0  0
  7  8  1  0  0  0  0
  7 28  1  0  0  0  0
  8  9  2  0  0  0  0
  8 10  1  0  0  0  0
 10 11  1  0  0  0  0
 10 29  1  0  0  0  0
 11 12  1  0  0  0  0
 11 13  1  0  0  0  0
 11 30  1  0  0  0  0
 12 31  1  0  0  0  0
 12 32  1  0  0  0  0
 12 33  1  0  0  0  0
 13 14  1  0  0  0  0
 13 15  1  0  0  0  0
 13 34  1  0  0  0  0
 14 35  1  0  0  0  0
 14 36  1  0  0  0  0
 14 37  1  0  0  0  0
 15 20  1  0  0  0  0
 15 16  1  0  0  0  0
 16 17  1  0  0  0  0
 16 38  1  0  0  0  0
 16 39  1  0  0  0  0
 17 18  1  0  0  0  0
 17 40  1  0  0  0  0
 17 41  1  0  0  0  0
 18 19  1  0  0  0  0
 19 20  1  0  0  0  0
 19 42  1  0  0  0  0
 19 43  1  0  0  0  0
 20 44  1  0  0  0  0
 20 45  1  0  0  0  0
M  END
> <s_m_source_file>
AV-unprocessed.smi

> <i_m_source_file_index>
2390

> <i_lp_mmshare_version>
43012

> <i_f3d_flags>
0

> <s_epik_input>
W0NIM11jMVtjSF1bY0hdW2NIXWMobjEpW05IXUMoPU8pW05IXVtDQEhdKFtDSDNdKVtDQEhdKFtDSDNdKU4yW0NIMl1bQ0gyXU9bQ0gyXVtDSDJdMg==

> <s_epik_cmdline>
J2VwaWtfcHl0aG9uJywgJy1waCcsICc3LjAnLCAnLXRuJywgJzgnLCAnLW1hJywgJzIwMCcsICctbWV0YWxfYmluZGluZycsICctaW1hZScsICc8aW5maWxlLm1hZT4nLCAnLW9tYWUnLCAnPG91dGZpbGUubWFlPic=

> <r_epik_Ionization_Penalty>
0.266074

> <r_epik_Ionization_Penalty_Charging>
0

> <r_epik_Ionization_Penalty_Neutral>
0.266074

> <r_epik_State_Penalty>
0.257924

> <r_epik_Charging_Adjusted_Penalty>
0.257924

> <i_epik_Tot_Q>
0

> <i_epik_Tot_abs_Q>
0

> <r_epik_Metal_State_Penalty>
0.257919

> <b_epik_Metal_Only>
0

> <s_lp_Force_Field>
OPLS_2005

> <r_lp_Energy>
33.31

> <b_lp_Chiralities_Consistent>
1

> <s_lp_Variant>
AV-unprocessed.smi:2390-3

> <Gold.Version>
5.8.1

> <Gold.Id.Protein>
6NUR|6NUR_protein|mol2

> <Gold.PLP.Fitness>
44.7576

> <Gold.PLP.PLP>
-39.7745

> <Gold.PLP.part.hbond>
-1.8675

> <Gold.PLP.part.metal>
0.0000

> <Gold.PLP.part.buried>
-6.8157

> <Gold.PLP.part.nonpolar>
-31.9616

> <Gold.PLP.part.repulsive>
0.4291

> <Gold.PLP.ligand.clash>
0.0000

> <Gold.PLP.ligand.torsion>
0.4932

> <Gold.PLP.Chemscore.Hbond>
1.9600

> <Gold.PLP.Chemscore.CHOScore>
0.0000

> <Gold.PLP.Chemscore.Metal>
0.0000

> <Gold.Chemscore.Hbonds>
donor molecule, donor type, donor heavy atom, donor atom, acceptor molecule, acceptor atom, score
      L1  H     7    28       P1  8028  0.94
      L1  H    10    29       P1  8028  0.98

> <Gold.PLP.Chemscore.Internal.Correction>
0.0895

> <Gold.Rescore>
     Score         DG    S(hbond)    S(metal)    S(lipo)     H(rot)  DE(clash)    DE(int)     intcor
     17.12     -18.72       1.81        0.00      93.04       1.44       0.06       1.54       ----

> <Gold.Chemscore.Fitness>
17.1169

> <Gold.Chemscore.DG>
-18.7224

> <Gold.Chemscore.ZeroCoef>
-5.4800

> <Gold.Chemscore.Hbond>
1.8089

> <Gold.Chemscore.Metal>
0.0000

> <Gold.Chemscore.Lipo>
93.0439

> <Gold.Chemscore.Internal_Hbond>
0.0000

> <Gold.Chemscore.DEClash>
0.0645

> <Gold.Chemscore.DEInternal>
1.5410

> <Gold.Chemscore.Rot>
1.4396

> <Gold.Chemscore.Internal.Correction>
   9.000000E+99

> <Gold.Chemscore.Hbonds>
donor molecule, donor type, donor heavy atom, donor atom, acceptor molecule, acceptor atom, score
      L1  H     7    28       P1  8028  0.80
      L1  H    10    29       P1  8028  0.89

> <Gold.Chemscore.Hbond.Weighted>
-6.0417

> <Gold.Chemscore.Metal.Weighted>
-0.0000

> <Gold.Chemscore.Lipo.Weighted>
-10.8861

> <Gold.Chemscore.Internal_Hbond.Weighted>
0.0000

> <Gold.Chemscore.DEClash.Weighted>
0.0645

> <Gold.Chemscore.DEInternal.Weighted>
1.5410

> <Gold.Chemscore.Rot.Weighted>
3.6855

> <Gold.Chemscore.Internal.Correction.Weighted>
   9.000000E+99

> <Gold.Protein.RotatedTorsions>
[ 6907 6896 6895 6894 ] final  -51.31 input  -60.11 | X-H torsion
[ 7974 7965 7964 7962 ] final   29.29 input  175.53 | X-H torsion
[ 8008 7997 7996 7995 ] final  126.47 input   59.86 | X-H torsion
[ 10167 10162 10161 10158 ] final -103.67 input  -65.29 | X-H torsion
[ 10718 10713 10712 10709 ] final  177.26 input   66.30 | X-H torsion
[ 10763 10752 10751 10750 ] final   67.10 input  -60.55 | X-H torsion
[ 11005 11000 10999 10996 ] final  138.87 input  -57.11 | X-H torsion

> <Gold.Protein.ActiveResidues>
 VAL166  LYS551  ARG553  GLY616  TRP617  ASP618  TYR619  PRO620  LYS621  CYS622 
 ASP623  PHE694  ASN695  SER759  ASP760  ASP761  ALA762  ILE779  LEU786  VAL792 
 PHE793  MET794  SER795  GLU796  ALA797  LYS798  CYS799  TRP800  GLU811  SER814 

> <Gold.Protein.RotatedAtoms>
  150.8624  134.7979  159.7092 H   0  0  0  0  0  0  0  0  0  0  0  0  # atno 6907 bound_to 6896
  152.4656  134.5079  159.9754 H   0  0  0  0  0  0  0  0  0  0  0  0  # atno 6908 bound_to 6896
  151.5180  133.3433  159.2932 H   0  0  0  0  0  0  0  0  0  0  0  0  # atno 6909 bound_to 6896
  146.1680  139.6941  142.8988 H   0  0  0  0  0  0  0  0  0  0  0  0  # atno 7974 bound_to 7965
  156.2864  140.2692  156.2116 H   0  0  0  0  0  0  0  0  0  0  0  0  # atno 8008 bound_to 7997
  155.0259  140.0386  157.2473 H   0  0  0  0  0  0  0  0  0  0  0  0  # atno 8009 bound_to 7997
  154.7396  140.2722  155.6390 H   0  0  0  0  0  0  0  0  0  0  0  0  # atno 8010 bound_to 7997
  140.2175  143.3700  152.0998 H   0  0  0  0  0  0  0  0  0  0  0  0  # atno 10167 bound_to 10162
  156.9080  130.9900  151.3025 H   0  0  0  0  0  0  0  0  0  0  0  0  # atno 10718 bound_to 10713
  153.0170  135.5296  154.6927 H   0  0  0  0  0  0  0  0  0  0  0  0  # atno 10763 bound_to 10752
  154.6057  135.2873  155.0489 H   0  0  0  0  0  0  0  0  0  0  0  0  # atno 10764 bound_to 10752
  154.1530  135.6560  153.5020 H   0  0  0  0  0  0  0  0  0  0  0  0  # atno 10765 bound_to 10752
  140.0214  134.9395  157.0481 H   0  0  0  0  0  0  0  0  0  0  0  0  # atno 11005 bound_to 11000
  145.4417  141.0423  143.2854 LP  0  0  0  0  0  0  0  0  0  0  0  0  # atno 17320 bound_to 7965
  144.8120  139.5944  143.7025 LP  0  0  0  0  0  0  0  0  0  0  0  0  # atno 17321 bound_to 7965
  139.5156  144.6966  151.5614 LP  0  0  0  0  0  0  0  0  0  0  0  0  # atno 17342 bound_to 10162
  140.6279  143.9133  150.6580 LP  0  0  0  0  0  0  0  0  0  0  0  0  # atno 17343 bound_to 10162
  157.5985  130.8495  149.8766 LP  0  0  0  0  0  0  0  0  0  0  0  0  # atno 17370 bound_to 10713
  156.0550  130.3710  150.1113 LP  0  0  0  0  0  0  0  0  0  0  0  0  # atno 17371 bound_to 10713
  140.4381  134.1710  155.7172 LP  0  0  0  0  0  0  0  0  0  0  0  0  # atno 17394 bound_to 11000
  141.1776  133.8482  157.1369 LP  0  0  0  0  0  0  0  0  0  0  0  0  # atno 17395 bound_to 11000

$$$$
