AV-unprocessed.smi:2100|AV-procd|sdf|8575|dock9
  -GOLD-   2272011303D 1   1.00000     0.00000
 Structure written by MMmdl.
 41 42  0  0  0  0  0  0  0  0  1 V2000
  146.8668  138.8425  151.9040 C   0  0  0  0  0  0  0  0  0  0  0  0
  147.1102  139.6774  153.1659 C   0  0  1  0  0  0  0  0  0  0  0  0
  148.5251  139.4654  153.7312 C   0  0  0  0  0  0  0  0  0  0  0  0
  148.7810  140.3726  154.8585 N   0  0  0  0  0  0  0  0  0  0  0  0
  150.1677  140.0337  155.8396 S   0  0  0  0  0  0  0  0  0  0  0  0
  149.7416  139.2393  157.0022 O   0  0  0  0  0  0  0  0  0  0  0  0
  151.2526  139.5773  154.9579 O   0  0  0  0  0  0  0  0  0  0  0  0
  150.5350  141.6287  156.3824 N   0  0  0  0  0  0  0  0  0  0  0  0
  151.6614  141.8460  157.2918 C   0  0  0  0  0  0  0  0  0  0  0  0
  151.4415  143.0964  158.1595 C   0  0  0  0  0  0  0  0  0  0  0  0
  152.0055  142.9669  159.5657 C   0  0  0  0  0  0  0  0  0  0  0  0
  151.8745  144.0253  160.4901 C   0  0  0  0  0  0  0  0  0  0  0  0
  152.4095  143.8597  161.7824 C   0  0  0  0  0  0  0  0  0  0  0  0
  153.0579  142.6504  162.0980 C   0  0  0  0  0  0  0  0  0  0  0  0
  153.1375  141.6540  161.1051 C   0  0  0  0  0  0  0  0  0  0  0  0
  152.6229  141.8009  159.8652 N   0  0  0  0  0  0  0  0  0  0  0  0
  148.4988  141.7828  154.5391 C   0  0  0  0  0  0  0  0  0  0  0  0
  147.1023  141.9535  153.9117 C   0  0  2  0  0  0  0  0  0  0  0  0
  145.9604  141.8641  154.9385 C   0  0  0  0  0  0  0  0  0  0  0  0
  146.9240  141.0466  152.8270 O   0  0  0  0  0  0  0  0  0  0  0  0
  146.9844  137.7782  152.1088 H   0  0  0  0  0  0  0  0  0  0  0  0
  147.5662  139.1109  151.1117 H   0  0  0  0  0  0  0  0  0  0  0  0
  145.8569  138.9977  151.5234 H   0  0  0  0  0  0  0  0  0  0  0  0
  146.3727  139.3785  153.9108 H   0  0  0  0  0  0  0  0  0  0  0  0
  148.6381  138.4315  154.0580 H   0  0  0  0  0  0  0  0  0  0  0  0
  149.2775  139.6415  152.9610 H   0  0  0  0  0  0  0  0  0  0  0  0
  149.7027  142.1678  156.6227 H   0  0  0  0  0  0  0  0  0  0  0  0
  151.8008  140.9693  157.9252 H   0  0  0  0  0  0  0  0  0  0  0  0
  152.5681  141.9580  156.6967 H   0  0  0  0  0  0  0  0  0  0  0  0
  151.9092  143.9541  157.6748 H   0  0  0  0  0  0  0  0  0  0  0  0
  150.3775  143.3306  158.2187 H   0  0  0  0  0  0  0  0  0  0  0  0
  151.3766  144.9443  160.2179 H   0  0  0  0  0  0  0  0  0  0  0  0
  152.3282  144.6480  162.5161 H   0  0  0  0  0  0  0  0  0  0  0  0
  153.4833  142.4898  163.0774 H   0  0  0  0  0  0  0  0  0  0  0  0
  153.6272  140.7140  161.3120 H   0  0  0  0  0  0  0  0  0  0  0  0
  148.5851  142.4004  155.4326 H   0  0  0  0  0  0  0  0  0  0  0  0
  149.2595  142.1359  153.8417 H   0  0  0  0  0  0  0  0  0  0  0  0
  147.0549  142.9527  153.4778 H   0  0  0  0  0  0  0  0  0  0  0  0
  146.0332  142.6766  155.6598 H   0  0  0  0  0  0  0  0  0  0  0  0
  145.9804  140.9312  155.5009 H   0  0  0  0  0  0  0  0  0  0  0  0
  144.9892  141.9442  154.4504 H   0  0  0  0  0  0  0  0  0  0  0  0
  1  2  1  0  0  0  0
  1 21  1  0  0  0  0
  1 22  1  0  0  0  0
  1 23  1  0  0  0  0
  2 20  1  0  0  0  0
  2  3  1  0  0  0  0
  2 24  1  0  0  0  0
  3  4  1  0  0  0  0
  3 25  1  0  0  0  0
  3 26  1  0  0  0  0
  4  5  1  0  0  0  0
  4 17  1  0  0  0  0
  5  6  2  0  0  0  0
  5  7  2  0  0  0  0
  5  8  1  0  0  0  0
  8  9  1  0  0  0  0
  8 27  1  0  0  0  0
  9 10  1  0  0  0  0
  9 28  1  0  0  0  0
  9 29  1  0  0  0  0
 10 11  1  0  0  0  0
 10 30  1  0  0  0  0
 10 31  1  0  0  0  0
 11 16  1  0  0  0  0
 11 12  2  0  0  0  0
 12 13  1  0  0  0  0
 12 32  1  0  0  0  0
 13 14  2  0  0  0  0
 13 33  1  0  0  0  0
 14 15  1  0  0  0  0
 14 34  1  0  0  0  0
 15 16  2  0  0  0  0
 15 35  1  0  0  0  0
 17 18  1  0  0  0  0
 17 36  1  0  0  0  0
 17 37  1  0  0  0  0
 18 19  1  0  0  0  0
 18 20  1  0  0  0  0
 18 38  1  0  0  0  0
 19 39  1  0  0  0  0
 19 40  1  0  0  0  0
 19 41  1  0  0  0  0
M  END
> <s_m_source_file>
AV-unprocessed.smi

> <i_m_source_file_index>
2100

> <i_lp_mmshare_version>
43012

> <i_f3d_flags>
0

> <s_epik_input>
W0NIM11bQ0BASF0xW0NIMl1OKFtDSDJdW0NASF0oTzEpW0NIM10pUyg9TykoPU8pW05IXVtDSDJdW0NIMl1jMltjSF1bY0hdW2NIXVtjSF1uMg==

> <s_epik_cmdline>
J2VwaWtfcHl0aG9uJywgJy1waCcsICc3LjAnLCAnLXRuJywgJzgnLCAnLW1hJywgJzIwMCcsICctbWV0YWxfYmluZGluZycsICctaW1hZScsICc8aW5maWxlLm1hZT4nLCAnLW9tYWUnLCAnPG91dGZpbGUubWFlPic=

> <r_epik_Ionization_Penalty>
0.085378

> <r_epik_Ionization_Penalty_Charging>
0

> <r_epik_Ionization_Penalty_Neutral>
0.085378

> <r_epik_State_Penalty>
0.0441186

> <r_epik_Charging_Adjusted_Penalty>
0.0441186

> <i_epik_Tot_Q>
0

> <i_epik_Tot_abs_Q>
0

> <r_epik_Metal_State_Penalty>
0.24397

> <b_epik_Metal_Only>
0

> <s_lp_Force_Field>
OPLS_2005

> <r_lp_Energy>
8.75792

> <b_lp_Chiralities_Consistent>
1

> <s_lp_Variant>
AV-unprocessed.smi:2100-3

> <Gold.Version>
5.8.1

> <Gold.Id.Protein>
6NUR|6NUR_protein|mol2

> <Gold.PLP.Fitness>
42.0134

> <Gold.PLP.PLP>
-40.6044

> <Gold.PLP.part.hbond>
-1.0000

> <Gold.PLP.part.metal>
0.0000

> <Gold.PLP.part.buried>
-3.3433

> <Gold.PLP.part.nonpolar>
-35.4473

> <Gold.PLP.part.repulsive>
0.3368

> <Gold.PLP.ligand.clash>
0.0000

> <Gold.PLP.ligand.torsion>
1.1620

> <Gold.PLP.Chemscore.Hbond>
1.0000

> <Gold.PLP.Chemscore.CHOScore>
0.0000

> <Gold.PLP.Chemscore.Metal>
0.0000

> <Gold.Chemscore.Hbonds>
donor molecule, donor type, donor heavy atom, donor atom, acceptor molecule, acceptor atom, score
      P1  H  7989  7998       L1     7  1.00

> <Gold.PLP.Chemscore.Internal.Correction>
0.7330

> <Gold.Rescore>
     Score         DG    S(hbond)    S(metal)    S(lipo)     H(rot)  DE(clash)    DE(int)     intcor
     16.36     -17.80       0.96        0.00     115.25       1.71       0.28       1.16       ----

> <Gold.Chemscore.Fitness>
16.3597

> <Gold.Chemscore.DG>
-17.8025

> <Gold.Chemscore.ZeroCoef>
-5.4800

> <Gold.Chemscore.Hbond>
0.9596

> <Gold.Chemscore.Metal>
0.0000

> <Gold.Chemscore.Lipo>
115.2534

> <Gold.Chemscore.Internal_Hbond>
0.0000

> <Gold.Chemscore.DEClash>
0.2797

> <Gold.Chemscore.DEInternal>
1.1632

> <Gold.Chemscore.Rot>
1.7060

> <Gold.Chemscore.Internal.Correction>
   9.000000E+99

> <Gold.Chemscore.Hbonds>
donor molecule, donor type, donor heavy atom, donor atom, acceptor molecule, acceptor atom, score
      P1  H  7989  7998       L1     7  0.83

> <Gold.Chemscore.Hbond.Weighted>
-3.2052

> <Gold.Chemscore.Metal.Weighted>
-0.0000

> <Gold.Chemscore.Lipo.Weighted>
-13.4847

> <Gold.Chemscore.Internal_Hbond.Weighted>
0.0000

> <Gold.Chemscore.DEClash.Weighted>
0.2797

> <Gold.Chemscore.DEInternal.Weighted>
1.1632

> <Gold.Chemscore.Rot.Weighted>
4.3674

> <Gold.Chemscore.Internal.Correction.Weighted>
   9.000000E+99

> <Gold.Protein.RotatedTorsions>
[ 6907 6896 6895 6894 ] final  -52.88 input  -60.11 | X-H torsion
[ 7974 7965 7964 7962 ] final -116.29 input  175.53 | X-H torsion
[ 8008 7997 7996 7995 ] final  100.16 input   59.86 | X-H torsion
[ 10167 10162 10161 10158 ] final   62.19 input  -65.29 | X-H torsion
[ 10718 10713 10712 10709 ] final  -30.60 input   66.30 | X-H torsion
[ 10763 10752 10751 10750 ] final -164.38 input  -60.55 | X-H torsion
[ 11005 11000 10999 10996 ] final -114.39 input  -57.11 | X-H torsion

> <Gold.Protein.ActiveResidues>
 VAL166  LYS551  ARG553  GLY616  TRP617  ASP618  TYR619  PRO620  LYS621  CYS622 
 ASP623  PHE694  ASN695  SER759  ASP760  ASP761  ALA762  ILE779  LEU786  VAL792 
 PHE793  MET794  SER795  GLU796  ALA797  LYS798  CYS799  TRP800  GLU811  SER814 

> <Gold.Protein.RotatedAtoms>
  150.8477  134.7792  159.6983 H   0  0  0  0  0  0  0  0  0  0  0  0  # atno 6907 bound_to 6896
  152.4550  134.5308  159.9820 H   0  0  0  0  0  0  0  0  0  0  0  0  # atno 6908 bound_to 6896
  151.5435  133.3391  159.2975 H   0  0  0  0  0  0  0  0  0  0  0  0  # atno 6909 bound_to 6896
  145.0984  140.8536  143.3940 H   0  0  0  0  0  0  0  0  0  0  0  0  # atno 7974 bound_to 7965
  156.1176  140.3217  155.8162 H   0  0  0  0  0  0  0  0  0  0  0  0  # atno 8008 bound_to 7997
  155.4562  140.0536  157.3013 H   0  0  0  0  0  0  0  0  0  0  0  0  # atno 8009 bound_to 7997
  154.4804  140.2050  155.9791 H   0  0  0  0  0  0  0  0  0  0  0  0  # atno 8010 bound_to 7997
  140.1466  144.4503  150.6782 H   0  0  0  0  0  0  0  0  0  0  0  0  # atno 10167 bound_to 10162
  156.3978  130.4384  149.7345 H   0  0  0  0  0  0  0  0  0  0  0  0  # atno 10718 bound_to 10713
  154.7033  135.2992  154.9308 H   0  0  0  0  0  0  0  0  0  0  0  0  # atno 10763 bound_to 10752
  154.0233  135.6680  153.4778 H   0  0  0  0  0  0  0  0  0  0  0  0  # atno 10764 bound_to 10752
  153.0698  135.5067  154.8190 H   0  0  0  0  0  0  0  0  0  0  0  0  # atno 10765 bound_to 10752
  141.0554  133.9620  157.2762 H   0  0  0  0  0  0  0  0  0  0  0  0  # atno 11005 bound_to 11000
  145.0984  139.2840  143.5699 LP  0  0  0  0  0  0  0  0  0  0  0  0  # atno 17320 bound_to 7965
  146.3530  140.0543  142.8633 LP  0  0  0  0  0  0  0  0  0  0  0  0  # atno 17321 bound_to 7965
  140.6728  143.2292  151.5583 LP  0  0  0  0  0  0  0  0  0  0  0  0  # atno 17342 bound_to 10162
  139.5446  144.2556  152.1417 LP  0  0  0  0  0  0  0  0  0  0  0  0  # atno 17343 bound_to 10162
  156.4374  130.7844  151.2865 LP  0  0  0  0  0  0  0  0  0  0  0  0  # atno 17370 bound_to 10713
  157.7502  131.0135  150.3428 LP  0  0  0  0  0  0  0  0  0  0  0  0  # atno 17371 bound_to 10713
  139.9386  135.0194  156.8636 LP  0  0  0  0  0  0  0  0  0  0  0  0  # atno 17394 bound_to 11000
  140.5973  134.0205  155.7523 LP  0  0  0  0  0  0  0  0  0  0  0  0  # atno 17395 bound_to 11000

$$$$
