AV-unprocessed.smi:153|AV-procd|sdf|1260|dock3
  -GOLD-   2262018503D 1   1.00000     0.00000
 Structure written by MMmdl.
 59 62  0  0  0  0  0  0  0  0  1 V2000
  144.6703  132.0250  149.2832 C   0  0  0  0  0  0  0  0  0  0  0  0
  144.4234  132.5392  150.7151 C   0  0  2  0  0  0  0  0  0  0  0  0
  143.7468  133.7874  150.6111 O   0  0  0  0  0  0  0  0  0  0  0  0
  144.6812  134.8633  150.6296 C   0  0  0  0  0  0  0  0  0  0  0  0
  146.0295  134.2643  151.0387 C   0  0  0  0  0  0  0  0  0  0  0  0
  145.6898  132.8620  151.5361 C   0  0  2  0  0  0  0  0  0  0  0  0
  146.7543  131.9810  151.2284 O   0  0  0  0  0  0  0  0  0  0  0  0
  145.4815  132.7680  153.0731 C   0  0  0  0  0  0  0  0  0  0  0  0
  146.6027  133.2352  153.8743 N   0  0  0  0  0  0  0  0  0  0  0  0
  147.8620  132.6871  153.9256 C   0  0  0  0  0  0  0  0  0  0  0  0
  148.6902  133.2833  154.7357 N   0  0  0  0  0  0  0  0  0  0  0  0
  147.9612  134.3360  155.2810 C   0  0  0  0  0  0  0  0  0  0  0  0
  148.2372  135.3734  156.2285 C   0  0  0  0  0  0  0  0  0  0  0  0
  149.4190  135.5433  156.8959 N   0  0  0  0  0  0  0  0  0  0  0  0
  150.1703  134.3572  157.3036 C   0  0  0  0  0  0  0  0  0  0  0  0
  150.1767  136.7862  156.7551 C   0  0  0  0  0  0  0  0  0  0  0  0
  150.2795  137.2672  155.2887 C   0  0  2  0  0  0  0  0  0  0  0  0
  150.6550  136.1961  154.4470 O   0  0  0  0  0  0  0  0  0  0  0  0
  151.2556  138.4468  155.0803 C   0  0  0  0  0  0  0  0  0  0  0  0
  150.6636  139.7487  154.7609 N   0  0  0  0  0  0  0  0  0  0  0  0
  150.6270  140.6050  155.9419 C   0  0  0  0  0  0  0  0  0  0  0  0
  150.0185  141.9844  155.6363 C   0  0  0  0  0  0  0  0  0  0  0  0
  148.7126  141.8182  155.0943 O   0  0  0  0  0  0  0  0  0  0  0  0
  148.7070  141.0255  153.9118 C   0  0  0  0  0  0  0  0  0  0  0  0
  149.3139  139.6436  154.2111 C   0  0  0  0  0  0  0  0  0  0  0  0
  147.2256  136.2501  156.4780 N   0  0  0  0  0  0  0  0  0  0  0  0
  146.0401  136.1269  155.8779 C   0  0  0  0  0  0  0  0  0  0  0  0
  145.6450  135.2083  154.9983 N   0  0  0  0  0  0  0  0  0  0  0  0
  146.6464  134.3254  154.7264 C   0  0  0  0  0  0  0  0  0  0  0  0
  145.1519  131.0470  149.2897 H   0  0  0  0  0  0  0  0  0  0  0  0
  145.3005  132.7045  148.7093 H   0  0  0  0  0  0  0  0  0  0  0  0
  143.7278  131.9181  148.7462 H   0  0  0  0  0  0  0  0  0  0  0  0
  143.7912  131.8173  151.2319 H   0  0  0  0  0  0  0  0  0  0  0  0
  144.7404  135.3309  149.6466 H   0  0  0  0  0  0  0  0  0  0  0  0
  144.3444  135.6186  151.3398 H   0  0  0  0  0  0  0  0  0  0  0  0
  146.6667  134.2094  150.1546 H   0  0  0  0  0  0  0  0  0  0  0  0
  146.5597  134.8685  151.7743 H   0  0  0  0  0  0  0  0  0  0  0  0
  146.4604  131.3757  150.5646 H   0  0  0  0  0  0  0  0  0  0  0  0
  144.6019  133.3443  153.3637 H   0  0  0  0  0  0  0  0  0  0  0  0
  145.2708  131.7364  153.3584 H   0  0  0  0  0  0  0  0  0  0  0  0
  148.1477  131.8195  153.3492 H   0  0  0  0  0  0  0  0  0  0  0  0
  149.5697  133.7220  157.9557 H   0  0  0  0  0  0  0  0  0  0  0  0
  151.0709  134.6308  157.8533 H   0  0  0  0  0  0  0  0  0  0  0  0
  150.4756  133.7762  156.4326 H   0  0  0  0  0  0  0  0  0  0  0  0
  149.7338  137.5492  157.3907 H   0  0  0  0  0  0  0  0  0  0  0  0
  151.1767  136.6518  157.1691 H   0  0  0  0  0  0  0  0  0  0  0  0
  149.3033  137.6044  154.9384 H   0  0  0  0  0  0  0  0  0  0  0  0
  150.3947  136.4064  153.5635 H   0  0  0  0  0  0  0  0  0  0  0  0
  151.9251  138.5356  155.9374 H   0  0  0  0  0  0  0  0  0  0  0  0
  151.8981  138.1635  154.2453 H   0  0  0  0  0  0  0  0  0  0  0  0
  150.0468  140.1229  156.7303 H   0  0  0  0  0  0  0  0  0  0  0  0
  151.6358  140.7377  156.3344 H   0  0  0  0  0  0  0  0  0  0  0  0
  149.9535  142.5804  156.5466 H   0  0  0  0  0  0  0  0  0  0  0  0
  150.6450  142.5367  154.9344 H   0  0  0  0  0  0  0  0  0  0  0  0
  147.6816  140.9206  153.5571 H   0  0  0  0  0  0  0  0  0  0  0  0
  149.2688  141.5311  153.1247 H   0  0  0  0  0  0  0  0  0  0  0  0
  149.3252  139.0663  153.2876 H   0  0  0  0  0  0  0  0  0  0  0  0
  148.6693  139.1078  154.9097 H   0  0  0  0  0  0  0  0  0  0  0  0
  145.3018  136.8685  156.1446 H   0  0  0  0  0  0  0  0  0  0  0  0
  1  2  1  0  0  0  0
  1 30  1  0  0  0  0
  1 31  1  0  0  0  0
  1 32  1  0  0  0  0
  2  6  1  0  0  0  0
  2  3  1  0  0  0  0
  2 33  1  0  0  0  0
  3  4  1  0  0  0  0
  4  5  1  0  0  0  0
  4 34  1  0  0  0  0
  4 35  1  0  0  0  0
  5  6  1  0  0  0  0
  5 36  1  0  0  0  0
  5 37  1  0  0  0  0
  6  7  1  0  0  0  0
  6  8  1  0  0  0  0
  7 38  1  0  0  0  0
  8  9  1  0  0  0  0
  8 39  1  0  0  0  0
  8 40  1  0  0  0  0
  9 29  1  0  0  0  0
  9 10  1  0  0  0  0
 10 11  2  0  0  0  0
 10 41  1  0  0  0  0
 11 12  1  0  0  0  0
 12 29  2  0  0  0  0
 12 13  1  0  0  0  0
 13 14  1  0  0  0  0
 13 26  2  0  0  0  0
 14 15  1  0  0  0  0
 14 16  1  0  0  0  0
 15 42  1  0  0  0  0
 15 43  1  0  0  0  0
 15 44  1  0  0  0  0
 16 17  1  0  0  0  0
 16 45  1  0  0  0  0
 16 46  1  0  0  0  0
 17 18  1  0  0  0  0
 17 19  1  0  0  0  0
 17 47  1  0  0  0  0
 18 48  1  0  0  0  0
 19 20  1  0  0  0  0
 19 49  1  0  0  0  0
 19 50  1  0  0  0  0
 20 25  1  0  0  0  0
 20 21  1  0  0  0  0
 21 22  1  0  0  0  0
 21 51  1  0  0  0  0
 21 52  1  0  0  0  0
 22 23  1  0  0  0  0
 22 53  1  0  0  0  0
 22 54  1  0  0  0  0
 23 24  1  0  0  0  0
 24 25  1  0  0  0  0
 24 55  1  0  0  0  0
 24 56  1  0  0  0  0
 25 57  1  0  0  0  0
 25 58  1  0  0  0  0
 26 27  1  0  0  0  0
 27 28  2  0  0  0  0
 27 59  1  0  0  0  0
 28 29  1  0  0  0  0
M  END
> <s_m_source_file>
AV-unprocessed.smi

> <i_m_source_file_index>
153

> <i_lp_mmshare_version>
43012

> <i_f3d_flags>
0

> <s_epik_input>
W0NIMl0xW0NIMl1PW0NAQEhdKFtDSDNdKVtDQEBdMShbT0hdKVtDSDJdbihbY0hdbjIpYyhjMjMpbltjSF1uYzNOKFtDSDNdKVtDSDJdW0NASF0oW09IXSlbQ0gyXU40W0NIMl1bQ0gyXU9bQ0gyXVtDSDJdNA==

> <s_epik_cmdline>
J2VwaWtfcHl0aG9uJywgJy1waCcsICc3LjAnLCAnLXRuJywgJzgnLCAnLW1hJywgJzIwMCcsICctbWV0YWxfYmluZGluZycsICctaW1hZScsICc8aW5maWxlLm1hZT4nLCAnLW9tYWUnLCAnPG91dGZpbGUubWFlPic=

> <r_lp_tautomer_probability>
1

> <r_epik_Ionization_Penalty>
0.424123

> <r_epik_Ionization_Penalty_Charging>
0

> <r_epik_Ionization_Penalty_Neutral>
0.424123

> <r_epik_State_Penalty>
0.421495

> <r_epik_Charging_Adjusted_Penalty>
0.421495

> <i_epik_Tot_Q>
0

> <i_epik_Tot_abs_Q>
0

> <r_epik_Metal_State_Penalty>
0.421223

> <b_epik_Metal_Only>
0

> <s_lp_Force_Field>
OPLS_2005

> <r_lp_Energy>
59.2369

> <b_lp_Chiralities_Consistent>
1

> <s_lp_Variant>
AV-unprocessed.smi:153-11

> <Gold.Version>
5.8.1

> <Gold.Id.Protein>
6NUR|6NUR_protein|mol2

> <Gold.PLP.Fitness>
53.7840

> <Gold.PLP.PLP>
-47.8717

> <Gold.PLP.part.hbond>
-4.2816

> <Gold.PLP.part.metal>
0.0000

> <Gold.PLP.part.buried>
-7.4601

> <Gold.PLP.part.nonpolar>
-36.7985

> <Gold.PLP.part.repulsive>
0.5843

> <Gold.PLP.ligand.clash>
0.0000

> <Gold.PLP.ligand.torsion>
2.3221

> <Gold.PLP.Chemscore.Hbond>
2.3480

> <Gold.PLP.Chemscore.CHOScore>
1.0000

> <Gold.PLP.Chemscore.Metal>
0.0000

> <Gold.Chemscore.Hbonds>
donor molecule, donor type, donor heavy atom, donor atom, acceptor molecule, acceptor atom, score
      L1  H    18    48       P1  7948  0.22
      P1  H  7989  7998       L1    20  1.00
      P1  H 10752 10763       L1    18  0.21

> <Gold.PLP.Chemscore.Internal.Correction>
0.5125

> <Gold.Rescore>
     Score         DG    S(hbond)    S(metal)    S(lipo)     H(rot)  DE(clash)    DE(int)     intcor
      9.45     -12.96       1.55        0.00      96.51       3.52       0.07       3.44       ----

> <Gold.Chemscore.Fitness>
9.4451

> <Gold.Chemscore.DG>
-12.9600

> <Gold.Chemscore.ZeroCoef>
-5.4800

> <Gold.Chemscore.Hbond>
1.5545

> <Gold.Chemscore.Metal>
0.0000

> <Gold.Chemscore.Lipo>
96.5090

> <Gold.Chemscore.Internal_Hbond>
0.0000

> <Gold.Chemscore.DEClash>
0.0747

> <Gold.Chemscore.DEInternal>
3.4402

> <Gold.Chemscore.Rot>
3.5170

> <Gold.Chemscore.Internal.Correction>
   9.000000E+99

> <Gold.Chemscore.Hbonds>
donor molecule, donor type, donor heavy atom, donor atom, acceptor molecule, acceptor atom, score
      P1  H  7989  7998       L1    20  0.16
      P1  H 10752 10763       L1    18  0.11

> <Gold.Chemscore.Hbond.Weighted>
-5.1920

> <Gold.Chemscore.Metal.Weighted>
-0.0000

> <Gold.Chemscore.Lipo.Weighted>
-11.2916

> <Gold.Chemscore.Internal_Hbond.Weighted>
0.0000

> <Gold.Chemscore.DEClash.Weighted>
0.0747

> <Gold.Chemscore.DEInternal.Weighted>
3.4402

> <Gold.Chemscore.Rot.Weighted>
9.0036

> <Gold.Chemscore.Internal.Correction.Weighted>
   9.000000E+99

> <Gold.Protein.RotatedTorsions>
[ 6907 6896 6895 6894 ] final   21.77 input  -60.11 | X-H torsion
[ 7974 7965 7964 7962 ] final  -35.40 input  175.53 | X-H torsion
[ 8008 7997 7996 7995 ] final   77.97 input   59.86 | X-H torsion
[ 10167 10162 10161 10158 ] final -122.26 input  -65.29 | X-H torsion
[ 10718 10713 10712 10709 ] final   13.94 input   66.30 | X-H torsion
[ 10763 10752 10751 10750 ] final   41.53 input  -60.55 | X-H torsion
[ 11005 11000 10999 10996 ] final -125.78 input  -57.11 | X-H torsion

> <Gold.Protein.ActiveResidues>
 VAL166  LYS551  ARG553  GLY616  TRP617  ASP618  TYR619  PRO620  LYS621  CYS622 
 ASP623  PHE694  ASN695  SER759  ASP760  ASP761  ALA762  ILE779  LEU786  VAL792 
 PHE793  MET794  SER795  GLU796  ALA797  LYS798  CYS799  TRP800  GLU811  SER814 

> <Gold.Protein.RotatedAtoms>
  151.9169  135.0315  160.0518 H   0  0  0  0  0  0  0  0  0  0  0  0  # atno 6907 bound_to 6896
  152.2232  133.4995  159.5182 H   0  0  0  0  0  0  0  0  0  0  0  0  # atno 6908 bound_to 6896
  150.7005  134.1231  159.4085 H   0  0  0  0  0  0  0  0  0  0  0  0  # atno 6909 bound_to 6896
  146.0750  140.6154  142.8935 H   0  0  0  0  0  0  0  0  0  0  0  0  # atno 7974 bound_to 7965
  155.8492  140.3459  155.5682 H   0  0  0  0  0  0  0  0  0  0  0  0  # atno 8008 bound_to 7997
  155.8056  140.0891  157.1952 H   0  0  0  0  0  0  0  0  0  0  0  0  # atno 8009 bound_to 7997
  154.4007  140.1457  156.3314 H   0  0  0  0  0  0  0  0  0  0  0  0  # atno 8010 bound_to 7997
  140.0162  143.5391  152.2241 H   0  0  0  0  0  0  0  0  0  0  0  0  # atno 10167 bound_to 10162
  157.0320  130.6196  149.5737 H   0  0  0  0  0  0  0  0  0  0  0  0  # atno 10718 bound_to 10713
  152.9906  135.6159  154.2803 H   0  0  0  0  0  0  0  0  0  0  0  0  # atno 10763 bound_to 10752
  154.2533  135.2784  155.2809 H   0  0  0  0  0  0  0  0  0  0  0  0  # atno 10764 bound_to 10752
  154.5269  135.5799  153.6784 H   0  0  0  0  0  0  0  0  0  0  0  0  # atno 10765 bound_to 10752
  140.9734  134.0773  157.3844 H   0  0  0  0  0  0  0  0  0  0  0  0  # atno 11005 bound_to 11000
  144.7255  140.4512  143.6976 LP  0  0  0  0  0  0  0  0  0  0  0  0  # atno 17320 bound_to 7965
  145.6323  139.1538  143.2962 LP  0  0  0  0  0  0  0  0  0  0  0  0  # atno 17321 bound_to 7965
  139.6171  144.7621  151.2822 LP  0  0  0  0  0  0  0  0  0  0  0  0  # atno 17342 bound_to 10162
  140.7361  143.6716  150.8077 LP  0  0  0  0  0  0  0  0  0  0  0  0  # atno 17343 bound_to 10162
  156.0066  130.5154  150.7851 LP  0  0  0  0  0  0  0  0  0  0  0  0  # atno 17370 bound_to 10713
  157.5171  131.0929  151.0126 LP  0  0  0  0  0  0  0  0  0  0  0  0  # atno 17371 bound_to 10713
  139.8921  135.0123  156.6828 LP  0  0  0  0  0  0  0  0  0  0  0  0  # atno 17394 bound_to 11000
  140.7294  133.9072  155.8201 LP  0  0  0  0  0  0  0  0  0  0  0  0  # atno 17395 bound_to 11000

$$$$
