AV-unprocessed.smi:315|AV-procd|sdf|2316|dock6
  -GOLD-   2262022223D 1   1.00000     0.00000
 Structure written by MMmdl.
 47 49  0  0  0  0  0  0  0  0  2 V2000
  152.2065  138.8613  155.4981 C   0  0  0  0  0  0  0  0  0  0  0  0
  151.6208  138.1964  154.2500 C   0  0  0  0  0  0  0  0  0  0  0  0
  150.2039  138.1610  154.3819 O   0  0  0  0  0  0  0  0  0  0  0  0
  149.4997  139.3489  154.3272 C   0  0  0  0  0  0  0  0  0  0  0  0
  150.1056  140.4823  154.7603 N   0  0  0  0  0  0  0  0  0  0  0  0
  149.4140  141.6394  154.7065 C   0  0  0  0  0  0  0  0  0  0  0  0
  148.0929  141.7262  154.2293 C   0  0  0  0  0  0  0  0  0  0  0  0
  147.4622  140.5510  153.7801 C   0  0  0  0  0  0  0  0  0  0  0  0
  148.1806  139.3315  153.8180 C   0  0  0  0  0  0  0  0  0  0  0  0
  147.6506  138.0790  153.4064 N   0  0  0  0  0  0  0  0  0  0  0  0
  146.3673  137.7016  153.2530 C   0  0  0  0  0  0  0  0  0  0  0  0
  145.3909  138.3934  153.5308 O   0  0  0  0  0  0  0  0  0  0  0  0
  146.2226  136.4658  152.7418 N   0  0  0  0  0  0  0  0  0  0  0  0
  144.9751  135.7557  152.4507 C   0  0  2  0  0  0  0  0  0  0  0  0
  143.7790  136.1980  153.3121 C   0  0  0  0  0  0  0  0  0  0  0  0
  143.0037  134.9053  153.6341 C   0  0  0  0  0  0  0  0  0  0  0  0
  143.6826  133.8091  152.9058 N   0  3  1  0  0  0  0  0  0  0  0  0
  143.0048  133.4882  151.6197 C   0  0  0  0  0  0  0  0  0  0  0  0
  143.8294  132.5240  150.7572 C   0  0  0  0  0  0  0  0  0  0  0  0
  145.2099  133.1203  150.4720 C   0  0  0  0  0  0  0  0  0  0  0  0
  145.9277  133.4058  151.7956 C   0  0  0  0  0  0  0  0  0  0  0  0
  145.0885  134.2620  152.7709 C   0  0  1  0  0  0  0  0  0  0  0  0
  153.2944  138.9057  155.4412 H   0  0  0  0  0  0  0  0  0  0  0  0
  151.9405  138.3067  156.3982 H   0  0  0  0  0  0  0  0  0  0  0  0
  151.8350  139.8801  155.6095 H   0  0  0  0  0  0  0  0  0  0  0  0
  151.9065  138.7636  153.3628 H   0  0  0  0  0  0  0  0  0  0  0  0
  152.0214  137.1863  154.1514 H   0  0  0  0  0  0  0  0  0  0  0  0
  149.9272  142.5213  155.0597 H   0  0  0  0  0  0  0  0  0  0  0  0
  147.5735  142.6729  154.2122 H   0  0  0  0  0  0  0  0  0  0  0  0
  146.4435  140.6094  153.4309 H   0  0  0  0  0  0  0  0  0  0  0  0
  148.3401  137.4121  153.0924 H   0  0  0  0  0  0  0  0  0  0  0  0
  147.0747  135.9673  152.5281 H   0  0  0  0  0  0  0  0  0  0  0  0
  144.7242  135.8759  151.3954 H   0  0  0  0  0  0  0  0  0  0  0  0
  144.1064  136.6732  154.2382 H   0  0  0  0  0  0  0  0  0  0  0  0
  143.1571  136.9175  152.7782 H   0  0  0  0  0  0  0  0  0  0  0  0
  143.0678  134.6971  154.7027 H   0  0  0  0  0  0  0  0  0  0  0  0
  141.9443  134.9812  153.3838 H   0  0  0  0  0  0  0  0  0  0  0  0
  142.0289  133.0506  151.8327 H   0  0  0  0  0  0  0  0  0  0  0  0
  142.8179  134.4053  151.0584 H   0  0  0  0  0  0  0  0  0  0  0  0
  143.9329  131.5639  151.2645 H   0  0  0  0  0  0  0  0  0  0  0  0
  143.3089  132.3264  149.8195 H   0  0  0  0  0  0  0  0  0  0  0  0
  145.8001  132.4314  149.8672 H   0  0  0  0  0  0  0  0  0  0  0  0
  145.1099  134.0374  149.8904 H   0  0  0  0  0  0  0  0  0  0  0  0
  146.1558  132.4535  152.2764 H   0  0  0  0  0  0  0  0  0  0  0  0
  146.8898  133.8827  151.6060 H   0  0  0  0  0  0  0  0  0  0  0  0
  145.5404  134.1679  153.7609 H   0  0  0  0  0  0  0  0  0  0  0  0
  143.6653  132.9713  153.4698 H   0  0  0  0  0  0  0  0  0  0  0  0
  1  2  1  0  0  0  0
  1 23  1  0  0  0  0
  1 24  1  0  0  0  0
  1 25  1  0  0  0  0
  2  3  1  0  0  0  0
  2 26  1  0  0  0  0
  2 27  1  0  0  0  0
  3  4  1  0  0  0  0
  4  9  1  0  0  0  0
  4  5  2  0  0  0  0
  5  6  1  0  0  0  0
  6  7  2  0  0  0  0
  6 28  1  0  0  0  0
  7  8  1  0  0  0  0
  7 29  1  0  0  0  0
  8  9  2  0  0  0  0
  8 30  1  0  0  0  0
  9 10  1  0  0  0  0
 10 11  1  0  0  0  0
 10 31  1  0  0  0  0
 11 12  2  0  0  0  0
 11 13  1  0  0  0  0
 13 14  1  0  0  0  0
 13 32  1  0  0  0  0
 14 22  1  0  0  0  0
 14 15  1  0  0  0  0
 14 33  1  0  0  0  0
 15 16  1  0  0  0  0
 15 34  1  0  0  0  0
 15 35  1  0  0  0  0
 16 17  1  0  0  0  0
 16 36  1  0  0  0  0
 16 37  1  0  0  0  0
 17 22  1  0  0  0  0
 17 18  1  0  0  0  0
 17 47  1  0  0  0  0
 18 19  1  0  0  0  0
 18 38  1  0  0  0  0
 18 39  1  0  0  0  0
 19 20  1  0  0  0  0
 19 40  1  0  0  0  0
 19 41  1  0  0  0  0
 20 21  1  0  0  0  0
 20 42  1  0  0  0  0
 20 43  1  0  0  0  0
 21 22  1  0  0  0  0
 21 44  1  0  0  0  0
 21 45  1  0  0  0  0
 22 46  1  0  0  0  0
M  CHG  1  17   1
M  END
> <s_m_source_file>
AV-unprocessed.smi

> <i_m_source_file_index>
315

> <i_lp_mmshare_version>
43012

> <i_f3d_flags>
0

> <s_epik_input>
W0NIM11bQ0gyXU9jMW5bY0hdW2NIXVtjSF1jMVtOSF1DKD1PKVtOSF1bQ0BIXShbQ0gyXVtDSDJdMilbQ0BASF0oTjIzKVtDSDJdW0NIMl1bQ0gyXVtDSDJdMw==

> <s_epik_cmdline>
J2VwaWtfcHl0aG9uJywgJy1waCcsICc3LjAnLCAnLXRuJywgJzgnLCAnLW1hJywgJzIwMCcsICctbWV0YWxfYmluZGluZycsICctaW1hZScsICc8aW5maWxlLm1hZT4nLCAnLW9tYWUnLCAnPG91dGZpbGUubWFlPic=

> <r_lp_tautomer_probability>
1

> <r_epik_Ionization_Penalty>
0.00106455

> <r_epik_Ionization_Penalty_Charging>
0.000974069

> <r_epik_Ionization_Penalty_Neutral>
9.04821e-05

> <r_epik_State_Penalty>
0.000633842

> <r_epik_Charging_Adjusted_Penalty>
0.00160791

> <i_epik_Tot_Q>
1

> <i_epik_Tot_abs_Q>
1

> <r_epik_Metal_State_Penalty>
-0

> <b_epik_Metal_Only>
0

> <s_lp_Force_Field>
OPLS_2005

> <r_lp_Energy>
51.3526

> <b_lp_Chiralities_Consistent>
1

> <s_lp_Variant>
AV-unprocessed.smi:315-1

> <Gold.Version>
5.8.1

> <Gold.Id.Protein>
6NUR|6NUR_protein|mol2

> <Gold.PLP.Fitness>
51.1828

> <Gold.PLP.PLP>
-36.2834

> <Gold.PLP.part.hbond>
-4.0000

> <Gold.PLP.part.metal>
0.0000

> <Gold.PLP.part.buried>
-3.0103

> <Gold.PLP.part.nonpolar>
-30.8636

> <Gold.PLP.part.repulsive>
2.0315

> <Gold.PLP.ligand.clash>
0.6395

> <Gold.PLP.ligand.torsion>
0.8246

> <Gold.PLP.Chemscore.Hbond>
4.7920

> <Gold.PLP.Chemscore.CHOScore>
0.9330

> <Gold.PLP.Chemscore.Metal>
0.0000

> <Gold.Chemscore.Hbonds>
donor molecule, donor type, donor heavy atom, donor atom, acceptor molecule, acceptor atom, score
      L1  H    10    31       P1  7948  1.00
      L1  H    13    32       P1  7948  0.86
      L1  H    17    47       P1 10957  1.93
      P1  H  7989  7998       L1     5  0.94
      L1  C     6    28       P1  8028  0.93

> <Gold.PLP.Chemscore.Internal.Correction>
0.0130

> <Gold.Rescore>
     Score         DG    S(hbond)    S(metal)    S(lipo)     H(rot)  DE(clash)    DE(int)     intcor
     17.32     -22.49       3.16        0.00      85.30       1.38       1.82       3.35       ----

> <Gold.Chemscore.Fitness>
17.3192

> <Gold.Chemscore.DG>
-22.4897

> <Gold.Chemscore.ZeroCoef>
-5.4800

> <Gold.Chemscore.Hbond>
3.1600

> <Gold.Chemscore.Metal>
0.0000

> <Gold.Chemscore.Lipo>
85.3038

> <Gold.Chemscore.Internal_Hbond>
0.0000

> <Gold.Chemscore.DEClash>
1.8209

> <Gold.Chemscore.DEInternal>
3.3496

> <Gold.Chemscore.Rot>
1.3770

> <Gold.Chemscore.Internal.Correction>
   9.000000E+99

> <Gold.Chemscore.Hbonds>
donor molecule, donor type, donor heavy atom, donor atom, acceptor molecule, acceptor atom, score
      L1  H    10    31       P1  7948  0.95
      L1  H    13    32       P1  7948  0.82
      L1  H    17    47       P1 10957  0.71
      P1  H  7989  7998       L1     5  0.17

> <Gold.Chemscore.Hbond.Weighted>
-10.5543

> <Gold.Chemscore.Metal.Weighted>
-0.0000

> <Gold.Chemscore.Lipo.Weighted>
-9.9805

> <Gold.Chemscore.Internal_Hbond.Weighted>
0.0000

> <Gold.Chemscore.DEClash.Weighted>
1.8209

> <Gold.Chemscore.DEInternal.Weighted>
3.3496

> <Gold.Chemscore.Rot.Weighted>
3.5252

> <Gold.Chemscore.Internal.Correction.Weighted>
   9.000000E+99

> <Gold.Protein.RotatedTorsions>
[ 6907 6896 6895 6894 ] final  177.42 input  -60.11 | X-H torsion
[ 7974 7965 7964 7962 ] final  -75.12 input  175.53 | X-H torsion
[ 8008 7997 7996 7995 ] final -168.52 input   59.86 | X-H torsion
[ 10167 10162 10161 10158 ] final   -3.24 input  -65.29 | X-H torsion
[ 10718 10713 10712 10709 ] final -113.32 input   66.30 | X-H torsion
[ 10763 10752 10751 10750 ] final  -80.93 input  -60.55 | X-H torsion
[ 11005 11000 10999 10996 ] final  -49.27 input  -57.11 | X-H torsion

> <Gold.Protein.ActiveResidues>
 VAL166  LYS551  ARG553  GLY616  TRP617  ASP618  TYR619  PRO620  LYS621  CYS622 
 ASP623  PHE694  ASN695  SER759  ASP760  ASP761  ALA762  ILE779  LEU786  VAL792 
 PHE793  MET794  SER795  GLU796  ALA797  LYS798  CYS799  TRP800  GLU811  SER814 

> <Gold.Protein.RotatedAtoms>
  151.7043  133.3311  159.3274 H   0  0  0  0  0  0  0  0  0  0  0  0  # atno 6907 bound_to 6896
  150.7722  134.6588  159.6338 H   0  0  0  0  0  0  0  0  0  0  0  0  # atno 6908 bound_to 6896
  152.3750  134.6679  160.0215 H   0  0  0  0  0  0  0  0  0  0  0  0  # atno 6909 bound_to 6896
  145.6301  140.9340  143.1091 H   0  0  0  0  0  0  0  0  0  0  0  0  # atno 7974 bound_to 7965
  155.8926  140.1027  157.1408 H   0  0  0  0  0  0  0  0  0  0  0  0  # atno 8008 bound_to 7997
  154.4016  140.1308  156.4398 H   0  0  0  0  0  0  0  0  0  0  0  0  # atno 8009 bound_to 7997
  155.7516  140.3465  155.5156 H   0  0  0  0  0  0  0  0  0  0  0  0  # atno 8010 bound_to 7997
  140.6882  143.6563  150.8306 H   0  0  0  0  0  0  0  0  0  0  0  0  # atno 10167 bound_to 10162
  156.0759  130.5966  150.8626 H   0  0  0  0  0  0  0  0  0  0  0  0  # atno 10718 bound_to 10713
  154.5573  135.5644  153.6975 H   0  0  0  0  0  0  0  0  0  0  0  0  # atno 10763 bound_to 10752
  153.0007  135.6265  154.2293 H   0  0  0  0  0  0  0  0  0  0  0  0  # atno 10764 bound_to 10752
  154.2230  135.2869  155.2898 H   0  0  0  0  0  0  0  0  0  0  0  0  # atno 10765 bound_to 10752
  141.0749  133.6668  156.3561 H   0  0  0  0  0  0  0  0  0  0  0  0  # atno 11005 bound_to 11000
  144.7197  139.8074  143.7386 LP  0  0  0  0  0  0  0  0  0  0  0  0  # atno 17320 bound_to 7965
  146.1363  139.4409  143.0137 LP  0  0  0  0  0  0  0  0  0  0  0  0  # atno 17321 bound_to 7965
  140.0273  143.5480  152.2775 LP  0  0  0  0  0  0  0  0  0  0  0  0  # atno 17342 bound_to 10162
  139.6260  144.7637  151.2637 LP  0  0  0  0  0  0  0  0  0  0  0  0  # atno 17343 bound_to 10162
  157.5854  131.0945  150.9204 LP  0  0  0  0  0  0  0  0  0  0  0  0  # atno 17370 bound_to 10713
  156.9391  130.5378  149.5280 LP  0  0  0  0  0  0  0  0  0  0  0  0  # atno 17371 bound_to 10713
  140.5594  134.5949  157.5429 LP  0  0  0  0  0  0  0  0  0  0  0  0  # atno 17394 bound_to 11000
  139.9561  134.7532  156.0338 LP  0  0  0  0  0  0  0  0  0  0  0  0  # atno 17395 bound_to 11000

$$$$
