AV-unprocessed.smi:2544|AV-procd|sdf|9994|dock10
  -GOLD-   2272014 43D 1   1.00000     0.00000
 Structure written by MMmdl.
 40 41  0  0  0  0  0  0  0  0  1 V2000
  145.1712  142.7690  154.6636 C   0  0  0  0  0  0  0  0  0  0  0  0
  146.4933  142.9107  153.9011 C   0  0  0  0  0  0  0  0  0  0  0  0
  147.3064  141.7072  154.0019 N   0  0  0  0  0  0  0  0  0  0  0  0
  148.4852  141.6930  154.7402 C   0  0  0  0  0  0  0  0  0  0  0  0
  149.3052  140.6285  154.8319 C   0  0  0  0  0  0  0  0  0  0  0  0
  148.9620  139.3861  154.1103 C   0  0  0  0  0  0  0  0  0  0  0  0
  149.6849  138.3922  154.1786 O   0  0  0  0  0  0  0  0  0  0  0  0
  147.7097  139.4055  153.3084 C   0  0  0  0  0  0  0  0  0  0  0  0
  147.3905  138.2188  152.6269 N   0  0  0  0  0  0  0  0  0  0  0  0
  146.1877  137.6551  152.4106 C   0  0  0  0  0  0  0  0  0  0  0  0
  145.1014  138.1149  152.7614 O   0  0  0  0  0  0  0  0  0  0  0  0
  146.3141  136.5002  151.7406 N   0  0  0  0  0  0  0  0  0  0  0  0
  145.2118  135.6223  151.3572 C   0  0  0  0  0  0  0  0  0  0  0  0
  144.3000  135.3739  152.5736 C   0  0  0  0  0  0  0  0  0  0  0  0
  143.1502  134.4143  152.2259 C   0  0  0  0  0  0  0  0  0  0  0  0
  143.6820  133.0883  151.6596 C   0  0  0  0  0  0  0  0  0  0  0  0
  144.5946  133.3287  150.4466 C   0  0  0  0  0  0  0  0  0  0  0  0
  145.7444  134.2890  150.7925 C   0  0  0  0  0  0  0  0  0  0  0  0
  146.9726  140.5460  153.3074 C   0  0  0  0  0  0  0  0  0  0  0  0
  144.5715  143.6744  154.5705 H   0  0  0  0  0  0  0  0  0  0  0  0
  145.3457  142.5928  155.7253 H   0  0  0  0  0  0  0  0  0  0  0  0
  144.5814  141.9372  154.2776 H   0  0  0  0  0  0  0  0  0  0  0  0
  146.2928  143.1282  152.8512 H   0  0  0  0  0  0  0  0  0  0  0  0
  147.0546  143.7622  154.2875 H   0  0  0  0  0  0  0  0  0  0  0  0
  148.6995  142.6188  155.2543 H   0  0  0  0  0  0  0  0  0  0  0  0
  150.2096  140.6624  155.4218 H   0  0  0  0  0  0  0  0  0  0  0  0
  148.1875  137.7340  152.2405 H   0  0  0  0  0  0  0  0  0  0  0  0
  147.2432  136.1981  151.4863 H   0  0  0  0  0  0  0  0  0  0  0  0
  144.6162  136.1166  150.5870 H   0  0  0  0  0  0  0  0  0  0  0  0
  144.8835  134.9561  153.3954 H   0  0  0  0  0  0  0  0  0  0  0  0
  143.8912  136.3188  152.9337 H   0  0  0  0  0  0  0  0  0  0  0  0
  142.5439  134.2238  153.1118 H   0  0  0  0  0  0  0  0  0  0  0  0
  142.4905  134.8850  151.4959 H   0  0  0  0  0  0  0  0  0  0  0  0
  144.2355  132.5553  152.4337 H   0  0  0  0  0  0  0  0  0  0  0  0
  142.8485  132.4447  151.3761 H   0  0  0  0  0  0  0  0  0  0  0  0
  144.9964  132.3799  150.0900 H   0  0  0  0  0  0  0  0  0  0  0  0
  144.0084  133.7437  149.6256 H   0  0  0  0  0  0  0  0  0  0  0  0
  146.3474  134.4698  149.9018 H   0  0  0  0  0  0  0  0  0  0  0  0
  146.4044  133.8156  151.5210 H   0  0  0  0  0  0  0  0  0  0  0  0
  146.0423  140.6445  152.7713 H   0  0  0  0  0  0  0  0  0  0  0  0
  1  2  1  0  0  0  0
  1 20  1  0  0  0  0
  1 21  1  0  0  0  0
  1 22  1  0  0  0  0
  2  3  1  0  0  0  0
  2 23  1  0  0  0  0
  2 24  1  0  0  0  0
  3 19  1  0  0  0  0
  3  4  1  0  0  0  0
  4  5  2  0  0  0  0
  4 25  1  0  0  0  0
  5  6  1  0  0  0  0
  5 26  1  0  0  0  0
  6  7  2  0  0  0  0
  6  8  1  0  0  0  0
  8  9  1  0  0  0  0
  8 19  2  0  0  0  0
  9 10  1  0  0  0  0
  9 27  1  0  0  0  0
 10 11  2  0  0  0  0
 10 12  1  0  0  0  0
 12 13  1  0  0  0  0
 12 28  1  0  0  0  0
 13 18  1  0  0  0  0
 13 14  1  0  0  0  0
 13 29  1  0  0  0  0
 14 15  1  0  0  0  0
 14 30  1  0  0  0  0
 14 31  1  0  0  0  0
 15 16  1  0  0  0  0
 15 32  1  0  0  0  0
 15 33  1  0  0  0  0
 16 17  1  0  0  0  0
 16 34  1  0  0  0  0
 16 35  1  0  0  0  0
 17 18  1  0  0  0  0
 17 36  1  0  0  0  0
 17 37  1  0  0  0  0
 18 38  1  0  0  0  0
 18 39  1  0  0  0  0
 19 40  1  0  0  0  0
M  END
> <s_m_source_file>
AV-unprocessed.smi

> <i_m_source_file_index>
2544

> <i_lp_mmshare_version>
43012

> <i_f3d_flags>
0

> <s_epik_input>
W0NIM11bQ0gyXW4xW2NIXVtjSF1jKD1PKWMoW2NIXTEpW05IXUMoPU8pW05IXVtDSF0yW0NIMl1bQ0gyXVtDSDJdW0NIMl1bQ0gyXTI=

> <s_epik_cmdline>
J2VwaWtfcHl0aG9uJywgJy1waCcsICc3LjAnLCAnLXRuJywgJzgnLCAnLW1hJywgJzIwMCcsICctbWV0YWxfYmluZGluZycsICctaW1hZScsICc8aW5maWxlLm1hZT4nLCAnLW9tYWUnLCAnPG91dGZpbGUubWFlPic=

> <r_lp_tautomer_probability>
1

> <r_epik_Ionization_Penalty>
0.00144746

> <r_epik_Ionization_Penalty_Charging>
0.00142605

> <r_epik_Ionization_Penalty_Neutral>
2.14089e-05

> <r_epik_State_Penalty>
0.000952116

> <r_epik_Charging_Adjusted_Penalty>
0.00237816

> <i_epik_Tot_Q>
0

> <i_epik_Tot_abs_Q>
0

> <r_epik_Metal_State_Penalty>
-0

> <b_epik_Metal_Only>
0

> <s_lp_Force_Field>
OPLS_2005

> <r_lp_Energy>
3.66557

> <b_lp_Chiralities_Consistent>
1

> <s_lp_Variant>
AV-unprocessed.smi:2544-1

> <Gold.Version>
5.8.1

> <Gold.Id.Protein>
6NUR|6NUR_protein|mol2

> <Gold.PLP.Fitness>
46.9058

> <Gold.PLP.PLP>
-35.9564

> <Gold.PLP.part.hbond>
-2.4570

> <Gold.PLP.part.metal>
0.0000

> <Gold.PLP.part.buried>
-2.5393

> <Gold.PLP.part.nonpolar>
-34.0304

> <Gold.PLP.part.repulsive>
2.8584

> <Gold.PLP.ligand.clash>
0.0000

> <Gold.PLP.ligand.torsion>
0.4824

> <Gold.PLP.Chemscore.Hbond>
1.9680

> <Gold.PLP.Chemscore.CHOScore>
2.0000

> <Gold.PLP.Chemscore.Metal>
0.0000

> <Gold.Chemscore.Hbonds>
donor molecule, donor type, donor heavy atom, donor atom, acceptor molecule, acceptor atom, score
      L1  H     9    27       P1  7948  0.99
      L1  H    12    28       P1  7948  0.98
      L1  C     4    25       P1  8028  1.00
      L1  C    19    40       P1 10175  1.00

> <Gold.PLP.Chemscore.Internal.Correction>
0.0102

> <Gold.Rescore>
     Score         DG    S(hbond)    S(metal)    S(lipo)     H(rot)  DE(clash)    DE(int)     intcor
     14.20     -17.50       1.91        0.00      73.89       1.17       1.55       1.76       ----

> <Gold.Chemscore.Fitness>
14.1983

> <Gold.Chemscore.DG>
-17.5034

> <Gold.Chemscore.ZeroCoef>
-5.4800

> <Gold.Chemscore.Hbond>
1.9053

> <Gold.Chemscore.Metal>
0.0000

> <Gold.Chemscore.Lipo>
73.8852

> <Gold.Chemscore.Internal_Hbond>
0.0000

> <Gold.Chemscore.DEClash>
1.5491

> <Gold.Chemscore.DEInternal>
1.7560

> <Gold.Chemscore.Rot>
1.1660

> <Gold.Chemscore.Internal.Correction>
   9.000000E+99

> <Gold.Chemscore.Hbonds>
donor molecule, donor type, donor heavy atom, donor atom, acceptor molecule, acceptor atom, score
      L1  H     9    27       P1  7948  0.94
      L1  H    12    28       P1  7948  0.93

> <Gold.Chemscore.Hbond.Weighted>
-6.3638

> <Gold.Chemscore.Metal.Weighted>
-0.0000

> <Gold.Chemscore.Lipo.Weighted>
-8.6446

> <Gold.Chemscore.Internal_Hbond.Weighted>
0.0000

> <Gold.Chemscore.DEClash.Weighted>
1.5491

> <Gold.Chemscore.DEInternal.Weighted>
1.7560

> <Gold.Chemscore.Rot.Weighted>
2.9850

> <Gold.Chemscore.Internal.Correction.Weighted>
   9.000000E+99

> <Gold.Protein.RotatedTorsions>
[ 6907 6896 6895 6894 ] final   11.26 input  -60.11 | X-H torsion
[ 7974 7965 7964 7962 ] final -167.74 input  175.53 | X-H torsion
[ 8008 7997 7996 7995 ] final  164.15 input   59.86 | X-H torsion
[ 10167 10162 10161 10158 ] final -146.41 input  -65.29 | X-H torsion
[ 10718 10713 10712 10709 ] final   -5.68 input   66.30 | X-H torsion
[ 10763 10752 10751 10750 ] final   98.36 input  -60.55 | X-H torsion
[ 11005 11000 10999 10996 ] final   45.73 input  -57.11 | X-H torsion

> <Gold.Protein.ActiveResidues>
 VAL166  LYS551  ARG553  GLY616  TRP617  ASP618  TYR619  PRO620  LYS621  CYS622 
 ASP623  PHE694  ASN695  SER759  ASP760  ASP761  ALA762  ILE779  LEU786  VAL792 
 PHE793  MET794  SER795  GLU796  ALA797  LYS798  CYS799  TRP800  GLU811  SER814 

> <Gold.Protein.RotatedAtoms>
  151.7514  135.0831  160.0331 H   0  0  0  0  0  0  0  0  0  0  0  0  # atno 6907 bound_to 6896
  152.3414  133.6067  159.5887 H   0  0  0  0  0  0  0  0  0  0  0  0  # atno 6908 bound_to 6896
  150.7481  133.9633  159.3564 H   0  0  0  0  0  0  0  0  0  0  0  0  # atno 6909 bound_to 6896
  144.7217  140.2474  143.6283 H   0  0  0  0  0  0  0  0  0  0  0  0  # atno 7974 bound_to 7965
  156.1902  140.1704  156.8107 H   0  0  0  0  0  0  0  0  0  0  0  0  # atno 8008 bound_to 7997
  154.5462  140.0726  156.8625 H   0  0  0  0  0  0  0  0  0  0  0  0  # atno 8009 bound_to 7997
  155.3117  140.3368  155.4246 H   0  0  0  0  0  0  0  0  0  0  0  0  # atno 8010 bound_to 7997
  139.7716  143.8230  152.2625 H   0  0  0  0  0  0  0  0  0  0  0  0  # atno 10167 bound_to 10162
  156.7430  130.5215  149.5820 H   0  0  0  0  0  0  0  0  0  0  0  0  # atno 10718 bound_to 10713
  153.2881  135.4151  155.1142 H   0  0  0  0  0  0  0  0  0  0  0  0  # atno 10763 bound_to 10752
  154.8511  135.3511  154.6019 H   0  0  0  0  0  0  0  0  0  0  0  0  # atno 10764 bound_to 10752
  153.6440  135.7055  153.5289 H   0  0  0  0  0  0  0  0  0  0  0  0  # atno 10765 bound_to 10752
  140.1433  134.4555  155.8434 H   0  0  0  0  0  0  0  0  0  0  0  0  # atno 11005 bound_to 11000
  145.8261  139.2065  143.1909 LP  0  0  0  0  0  0  0  0  0  0  0  0  # atno 17320 bound_to 7965
  146.0471  140.8106  142.9800 LP  0  0  0  0  0  0  0  0  0  0  0  0  # atno 17321 bound_to 7965
  139.8266  144.7272  150.9504 LP  0  0  0  0  0  0  0  0  0  0  0  0  # atno 17342 bound_to 10162
  140.7814  143.4109  151.0994 LP  0  0  0  0  0  0  0  0  0  0  0  0  # atno 17343 bound_to 10162
  156.1452  130.6272  151.0521 LP  0  0  0  0  0  0  0  0  0  0  0  0  # atno 17370 bound_to 10713
  157.6810  131.0838  150.7369 LP  0  0  0  0  0  0  0  0  0  0  0  0  # atno 17371 bound_to 10713
  141.2189  133.6842  156.7287 LP  0  0  0  0  0  0  0  0  0  0  0  0  # atno 17394 bound_to 11000
  140.2695  134.8403  157.3834 LP  0  0  0  0  0  0  0  0  0  0  0  0  # atno 17395 bound_to 11000

$$$$
