AV-unprocessed.smi:3249|AV-procd|sdf|12417|dock6
  -GOLD-   2272018303D 1   1.00000     0.00000
 Structure written by MMmdl.
 44 45  0  0  0  0  0  0  0  0  2 V2000
  145.7597  143.4021  153.3787 C   0  0  0  0  0  0  0  0  0  0  0  0
  146.7278  142.3914  153.9230 C   0  0  0  0  0  0  0  0  0  0  0  0
  146.4817  141.0247  154.2366 C   0  0  0  0  0  0  0  0  0  0  0  0
  147.5543  140.4018  154.6964 N   0  0  0  0  0  0  0  0  0  0  0  0
  148.5219  141.3436  154.6963 N   0  0  0  0  0  0  0  0  0  0  0  0
  149.8677  140.9966  155.1363 C   0  0  2  0  0  0  0  0  0  0  0  0
  150.1943  139.5483  154.7265 C   0  0  0  0  0  0  0  0  0  0  0  0
  150.0668  141.2461  156.6543 C   0  0  2  0  0  0  0  0  0  0  0  0
  148.9374  140.6441  157.5171 C   0  0  0  0  0  0  0  0  0  0  0  0
  150.1780  142.7007  156.9091 N   0  3  0  0  0  0  0  0  0  0  0  0
  151.5404  143.2614  156.7894 C   0  0  0  0  0  0  0  0  0  0  0  0
  151.9914  143.8953  158.1127 C   0  0  2  0  0  0  0  0  0  0  0  0
  152.2833  142.8313  159.1889 C   0  0  0  0  0  0  0  0  0  0  0  0
  152.6313  143.4961  160.5255 C   0  0  0  0  0  0  0  0  0  0  0  0
  151.5295  144.4889  160.9096 C   0  0  0  0  0  0  0  0  0  0  0  0
  151.2659  145.4663  159.7535 C   0  0  0  0  0  0  0  0  0  0  0  0
  150.9392  144.7423  158.5710 O   0  0  0  0  0  0  0  0  0  0  0  0
  148.0485  142.5546  154.2317 C   0  0  0  0  0  0  0  0  0  0  0  0
  144.7250  143.0894  153.5208 H   0  0  0  0  0  0  0  0  0  0  0  0
  145.9037  143.5601  152.3098 H   0  0  0  0  0  0  0  0  0  0  0  0
  145.8711  144.3711  153.8657 H   0  0  0  0  0  0  0  0  0  0  0  0
  145.5602  140.4692  154.1420 H   0  0  0  0  0  0  0  0  0  0  0  0
  150.5597  141.6488  154.5990 H   0  0  0  0  0  0  0  0  0  0  0  0
  151.2317  139.2938  154.9434 H   0  0  0  0  0  0  0  0  0  0  0  0
  150.0435  139.4030  153.6562 H   0  0  0  0  0  0  0  0  0  0  0  0
  149.5613  138.8313  155.2502 H   0  0  0  0  0  0  0  0  0  0  0  0
  151.0063  140.7748  156.9481 H   0  0  0  0  0  0  0  0  0  0  0  0
  148.8873  139.5596  157.4197 H   0  0  0  0  0  0  0  0  0  0  0  0
  147.9659  141.0473  157.2298 H   0  0  0  0  0  0  0  0  0  0  0  0
  149.0799  140.8522  158.5770 H   0  0  0  0  0  0  0  0  0  0  0  0
  149.5981  143.1767  156.2329 H   0  0  0  0  0  0  0  0  0  0  0  0
  152.2482  142.4885  156.4900 H   0  0  0  0  0  0  0  0  0  0  0  0
  151.5363  144.0153  156.0012 H   0  0  0  0  0  0  0  0  0  0  0  0
  152.8898  144.4906  157.9382 H   0  0  0  0  0  0  0  0  0  0  0  0
  151.4107  142.1897  159.3191 H   0  0  0  0  0  0  0  0  0  0  0  0
  153.1017  142.1844  158.8714 H   0  0  0  0  0  0  0  0  0  0  0  0
  152.7541  142.7439  161.3050 H   0  0  0  0  0  0  0  0  0  0  0  0
  153.5846  144.0192  160.4401 H   0  0  0  0  0  0  0  0  0  0  0  0
  150.6124  143.9465  161.1434 H   0  0  0  0  0  0  0  0  0  0  0  0
  151.8086  145.0348  161.8112 H   0  0  0  0  0  0  0  0  0  0  0  0
  150.4345  146.1255  160.0033 H   0  0  0  0  0  0  0  0  0  0  0  0
  152.1339  146.1028  159.5753 H   0  0  0  0  0  0  0  0  0  0  0  0
  148.6849  143.4241  154.1563 H   0  0  0  0  0  0  0  0  0  0  0  0
  149.8173  142.8975  157.8321 H   0  0  0  0  0  0  0  0  0  0  0  0
  1  2  1  0  0  0  0
  1 19  1  0  0  0  0
  1 20  1  0  0  0  0
  1 21  1  0  0  0  0
  2 18  2  0  0  0  0
  2  3  1  0  0  0  0
  3  4  2  0  0  0  0
  3 22  1  0  0  0  0
  4  5  1  0  0  0  0
  5  6  1  0  0  0  0
  5 18  1  0  0  0  0
  6  7  1  0  0  0  0
  6  8  1  0  0  0  0
  6 23  1  0  0  0  0
  7 24  1  0  0  0  0
  7 25  1  0  0  0  0
  7 26  1  0  0  0  0
  8  9  1  0  0  0  0
  8 10  1  0  0  0  0
  8 27  1  0  0  0  0
  9 28  1  0  0  0  0
  9 29  1  0  0  0  0
  9 30  1  0  0  0  0
 10 11  1  0  0  0  0
 10 31  1  0  0  0  0
 10 44  1  0  0  0  0
 11 12  1  0  0  0  0
 11 32  1  0  0  0  0
 11 33  1  0  0  0  0
 12 17  1  0  0  0  0
 12 13  1  0  0  0  0
 12 34  1  0  0  0  0
 13 14  1  0  0  0  0
 13 35  1  0  0  0  0
 13 36  1  0  0  0  0
 14 15  1  0  0  0  0
 14 37  1  0  0  0  0
 14 38  1  0  0  0  0
 15 16  1  0  0  0  0
 15 39  1  0  0  0  0
 15 40  1  0  0  0  0
 16 17  1  0  0  0  0
 16 41  1  0  0  0  0
 16 42  1  0  0  0  0
 18 43  1  0  0  0  0
M  CHG  1  10   1
M  END
> <s_m_source_file>
AV-unprocessed.smi

> <i_m_source_file_index>
3249

> <i_lp_mmshare_version>
43012

> <i_f3d_flags>
0

> <s_epik_input>
W0NIM11jMVtjSF1ubihbY0hdMSlbQ0BIXShbQ0gzXSlbQ0BIXShbQ0gzXSlbTkhdW0NIMl1bQ0BASF0yW0NIMl1bQ0gyXVtDSDJdW0NIMl1PMg==

> <s_epik_cmdline>
J2VwaWtfcHl0aG9uJywgJy1waCcsICc3LjAnLCAnLXRuJywgJzgnLCAnLW1hJywgJzIwMCcsICctbWV0YWxfYmluZGluZycsICctaW1hZScsICc8aW5maWxlLm1hZT4nLCAnLW9tYWUnLCAnPG91dGZpbGUubWFlPic=

> <r_lp_tautomer_probability>
1

> <r_epik_Ionization_Penalty>
0.00659207

> <r_epik_Ionization_Penalty_Charging>
0.00656881

> <r_epik_Ionization_Penalty_Neutral>
2.32662e-05

> <r_epik_State_Penalty>
0.0048654

> <r_epik_Charging_Adjusted_Penalty>
0.0114342

> <i_epik_Tot_Q>
1

> <i_epik_Tot_abs_Q>
1

> <r_epik_Metal_State_Penalty>
-0

> <b_epik_Metal_Only>
0

> <s_lp_Force_Field>
OPLS_2005

> <r_lp_Energy>
18.0263

> <b_lp_Chiralities_Consistent>
1

> <s_lp_Variant>
AV-unprocessed.smi:3249-1

> <Gold.Version>
5.8.1

> <Gold.Id.Protein>
6NUR|6NUR_protein|mol2

> <Gold.PLP.Fitness>
47.0573

> <Gold.PLP.PLP>
-39.9148

> <Gold.PLP.part.hbond>
-1.0000

> <Gold.PLP.part.metal>
0.0000

> <Gold.PLP.part.buried>
-1.0404

> <Gold.PLP.part.nonpolar>
-38.1279

> <Gold.PLP.part.repulsive>
0.2562

> <Gold.PLP.ligand.clash>
0.0000

> <Gold.PLP.ligand.torsion>
1.7440

> <Gold.PLP.Chemscore.Hbond>
2.0000

> <Gold.PLP.Chemscore.CHOScore>
1.5215

> <Gold.PLP.Chemscore.Metal>
0.0000

> <Gold.Chemscore.Hbonds>
donor molecule, donor type, donor heavy atom, donor atom, acceptor molecule, acceptor atom, score
      L1  H    10    31       P1  8028  1.92
      L1  C     3    22       P1 10175  1.00
      L1  C    18    43       P1  8028  0.69

> <Gold.PLP.Chemscore.Internal.Correction>
0.0661

> <Gold.Rescore>
     Score         DG    S(hbond)    S(metal)    S(lipo)     H(rot)  DE(clash)    DE(int)     intcor
     13.83     -19.09       0.98        0.00     121.88       1.53       2.77       2.49       ----

> <Gold.Chemscore.Fitness>
13.8292

> <Gold.Chemscore.DG>
-19.0900

> <Gold.Chemscore.ZeroCoef>
-5.4800

> <Gold.Chemscore.Hbond>
0.9807

> <Gold.Chemscore.Metal>
0.0000

> <Gold.Chemscore.Lipo>
121.8776

> <Gold.Chemscore.Internal_Hbond>
0.0000

> <Gold.Chemscore.DEClash>
2.7714

> <Gold.Chemscore.DEInternal>
2.4893

> <Gold.Chemscore.Rot>
1.5333

> <Gold.Chemscore.Internal.Correction>
   9.000000E+99

> <Gold.Chemscore.Hbonds>
donor molecule, donor type, donor heavy atom, donor atom, acceptor molecule, acceptor atom, score
      L1  H    10    31       P1  8028  0.92

> <Gold.Chemscore.Hbond.Weighted>
-3.2755

> <Gold.Chemscore.Metal.Weighted>
-0.0000

> <Gold.Chemscore.Lipo.Weighted>
-14.2597

> <Gold.Chemscore.Internal_Hbond.Weighted>
0.0000

> <Gold.Chemscore.DEClash.Weighted>
2.7714

> <Gold.Chemscore.DEInternal.Weighted>
2.4893

> <Gold.Chemscore.Rot.Weighted>
3.9252

> <Gold.Chemscore.Internal.Correction.Weighted>
   9.000000E+99

> <Gold.Protein.RotatedTorsions>
[ 6907 6896 6895 6894 ] final   38.94 input  -60.11 | X-H torsion
[ 7974 7965 7964 7962 ] final  -96.45 input  175.53 | X-H torsion
[ 8008 7997 7996 7995 ] final   73.53 input   59.86 | X-H torsion
[ 10167 10162 10161 10158 ] final   61.46 input  -65.29 | X-H torsion
[ 10718 10713 10712 10709 ] final  -14.39 input   66.30 | X-H torsion
[ 10763 10752 10751 10750 ] final -125.43 input  -60.55 | X-H torsion
[ 11005 11000 10999 10996 ] final    9.04 input  -57.11 | X-H torsion

> <Gold.Protein.ActiveResidues>
 VAL166  LYS551  ARG553  GLY616  TRP617  ASP618  TYR619  PRO620  LYS621  CYS622 
 ASP623  PHE694  ASN695  SER759  ASP760  ASP761  ALA762  ILE779  LEU786  VAL792 
 PHE793  MET794  SER795  GLU796  ALA797  LYS798  CYS799  TRP800  GLU811  SER814 

> <Gold.Protein.RotatedAtoms>
  152.1630  134.8897  160.0539 H   0  0  0  0  0  0  0  0  0  0  0  0  # atno 6907 bound_to 6896
  151.9885  133.3777  159.4143 H   0  0  0  0  0  0  0  0  0  0  0  0  # atno 6908 bound_to 6896
  150.6890  134.3885  159.5109 H   0  0  0  0  0  0  0  0  0  0  0  0  # atno 6909 bound_to 6896
  145.3467  140.9469  143.2577 H   0  0  0  0  0  0  0  0  0  0  0  0  # atno 7974 bound_to 7965
  155.7850  140.3481  155.5318 H   0  0  0  0  0  0  0  0  0  0  0  0  # atno 8008 bound_to 7997
  155.8691  140.0983  157.1583 H   0  0  0  0  0  0  0  0  0  0  0  0  # atno 8009 bound_to 7997
  154.4016  140.1344  156.4043 H   0  0  0  0  0  0  0  0  0  0  0  0  # atno 8010 bound_to 7997
  140.1545  144.4430  150.6741 H   0  0  0  0  0  0  0  0  0  0  0  0  # atno 10167 bound_to 10162
  156.6167  130.4864  149.6180 H   0  0  0  0  0  0  0  0  0  0  0  0  # atno 10718 bound_to 10713
  154.8735  135.4030  154.3266 H   0  0  0  0  0  0  0  0  0  0  0  0  # atno 10763 bound_to 10752
  153.4086  135.7020  153.6380 H   0  0  0  0  0  0  0  0  0  0  0  0  # atno 10764 bound_to 10752
  153.5092  135.3711  155.2549 H   0  0  0  0  0  0  0  0  0  0  0  0  # atno 10765 bound_to 10752
  140.5302  134.0474  155.7871 H   0  0  0  0  0  0  0  0  0  0  0  0  # atno 11005 bound_to 11000
  144.8748  139.4986  143.6750 LP  0  0  0  0  0  0  0  0  0  0  0  0  # atno 17320 bound_to 7965
  146.2985  139.7352  142.9109 LP  0  0  0  0  0  0  0  0  0  0  0  0  # atno 17321 bound_to 7965
  140.6681  143.2275  151.5692 LP  0  0  0  0  0  0  0  0  0  0  0  0  # atno 17342 bound_to 10162
  139.5410  144.2648  152.1350 LP  0  0  0  0  0  0  0  0  0  0  0  0  # atno 17343 bound_to 10162
  156.2345  130.6814  151.1496 LP  0  0  0  0  0  0  0  0  0  0  0  0  # atno 17370 bound_to 10713
  157.7239  131.0663  150.6017 LP  0  0  0  0  0  0  0  0  0  0  0  0  # atno 17371 bound_to 10713
  141.1286  133.9341  157.2584 LP  0  0  0  0  0  0  0  0  0  0  0  0  # atno 17394 bound_to 11000
  139.9558  135.0166  156.9125 LP  0  0  0  0  0  0  0  0  0  0  0  0  # atno 17395 bound_to 11000

$$$$
