AV-unprocessed.smi:2089|AV-procd|sdf|8528|dock9
  -GOLD-   2272011243D 1   1.00000     0.00000
 Structure written by MMmdl.
 39 40  0  0  0  0  0  0  0  0  1 V2000
  149.8645  134.8614  155.2178 C   0  0  0  0  0  0  0  0  0  0  0  0
  150.6542  135.9745  156.4499 S   0  0  0  0  0  0  0  0  0  0  0  0
  150.1234  135.6394  157.7802 O   0  0  0  0  0  0  0  0  0  0  0  0
  152.1075  135.9924  156.2240 O   0  0  0  0  0  0  0  0  0  0  0  0
  150.0320  137.5304  156.0162 N   0  0  0  0  0  0  0  0  0  0  0  0
  148.5797  137.6890  155.8536 C   0  0  0  0  0  0  0  0  0  0  0  0
  148.3952  138.8573  154.8878 C   0  0  0  0  0  0  0  0  0  0  0  0
  149.6428  138.7828  154.0188 C   0  0  0  0  0  0  0  0  0  0  0  0
  150.7409  138.3099  154.9877 C   0  0  1  0  0  0  0  0  0  0  0  0
  151.5745  139.4540  155.5845 C   0  0  0  0  0  0  0  0  0  0  0  0
  152.6821  139.7375  155.1267 O   0  0  0  0  0  0  0  0  0  0  0  0
  151.0182  140.1144  156.6099 N   0  0  0  0  0  0  0  0  0  0  0  0
  151.6359  141.2364  157.3017 C   0  0  0  0  0  0  0  0  0  0  0  0
  150.7324  141.7354  158.4375 C   0  0  0  0  0  0  0  0  0  0  0  0
  151.2490  143.0192  159.0592 C   0  0  0  0  0  0  0  0  0  0  0  0
  151.6485  144.1023  158.2475 C   0  0  0  0  0  0  0  0  0  0  0  0
  152.1091  145.2765  158.8743 C   0  0  0  0  0  0  0  0  0  0  0  0
  152.1517  145.3228  160.2811 C   0  0  0  0  0  0  0  0  0  0  0  0
  151.7293  144.1876  161.0017 C   0  0  0  0  0  0  0  0  0  0  0  0
  151.2855  143.0572  160.4106 N   0  0  0  0  0  0  0  0  0  0  0  0
  150.1528  133.8309  155.4245 H   0  0  0  0  0  0  0  0  0  0  0  0
  150.1919  135.1322  154.2145 H   0  0  0  0  0  0  0  0  0  0  0  0
  148.7809  134.9547  155.2850 H   0  0  0  0  0  0  0  0  0  0  0  0
  148.1600  136.7794  155.4224 H   0  0  0  0  0  0  0  0  0  0  0  0
  148.0984  137.8638  156.8159 H   0  0  0  0  0  0  0  0  0  0  0  0
  147.4722  138.7883  154.3118 H   0  0  0  0  0  0  0  0  0  0  0  0
  148.3792  139.7983  155.4391 H   0  0  0  0  0  0  0  0  0  0  0  0
  149.5023  138.0375  153.2347 H   0  0  0  0  0  0  0  0  0  0  0  0
  149.8625  139.7307  153.5256 H   0  0  0  0  0  0  0  0  0  0  0  0
  151.4189  137.6538  154.4389 H   0  0  0  0  0  0  0  0  0  0  0  0
  150.0987  139.8312  156.9173 H   0  0  0  0  0  0  0  0  0  0  0  0
  152.6029  140.9284  157.7026 H   0  0  0  0  0  0  0  0  0  0  0  0
  151.8221  142.0401  156.5874 H   0  0  0  0  0  0  0  0  0  0  0  0
  149.7209  141.9042  158.0645 H   0  0  0  0  0  0  0  0  0  0  0  0
  150.6495  140.9712  159.2116 H   0  0  0  0  0  0  0  0  0  0  0  0
  151.6009  144.0384  157.1703 H   0  0  0  0  0  0  0  0  0  0  0  0
  152.4224  146.1268  158.2866 H   0  0  0  0  0  0  0  0  0  0  0  0
  152.4986  146.2066  160.7952 H   0  0  0  0  0  0  0  0  0  0  0  0
  151.7477  144.1882  162.0815 H   0  0  0  0  0  0  0  0  0  0  0  0
  1  2  1  0  0  0  0
  1 21  1  0  0  0  0
  1 22  1  0  0  0  0
  1 23  1  0  0  0  0
  2  3  2  0  0  0  0
  2  4  2  0  0  0  0
  2  5  1  0  0  0  0
  5  9  1  0  0  0  0
  5  6  1  0  0  0  0
  6  7  1  0  0  0  0
  6 24  1  0  0  0  0
  6 25  1  0  0  0  0
  7  8  1  0  0  0  0
  7 26  1  0  0  0  0
  7 27  1  0  0  0  0
  8  9  1  0  0  0  0
  8 28  1  0  0  0  0
  8 29  1  0  0  0  0
  9 10  1  0  0  0  0
  9 30  1  0  0  0  0
 10 11  2  0  0  0  0
 10 12  1  0  0  0  0
 12 13  1  0  0  0  0
 12 31  1  0  0  0  0
 13 14  1  0  0  0  0
 13 32  1  0  0  0  0
 13 33  1  0  0  0  0
 14 15  1  0  0  0  0
 14 34  1  0  0  0  0
 14 35  1  0  0  0  0
 15 20  1  0  0  0  0
 15 16  2  0  0  0  0
 16 17  1  0  0  0  0
 16 36  1  0  0  0  0
 17 18  2  0  0  0  0
 17 37  1  0  0  0  0
 18 19  1  0  0  0  0
 18 38  1  0  0  0  0
 19 20  2  0  0  0  0
 19 39  1  0  0  0  0
M  END
> <s_m_source_file>
AV-unprocessed.smi

> <i_m_source_file_index>
2089

> <i_lp_mmshare_version>
43012

> <i_f3d_flags>
0

> <s_epik_input>
W0NIM11TKD1PKSg9TylOMVtDSDJdW0NIMl1bQ0gyXVtDQEhdMUMoPU8pW05IXVtDSDJdW0NIMl1jMltjSF1bY0hdW2NIXVtjSF1uMg==

> <s_epik_cmdline>
J2VwaWtfcHl0aG9uJywgJy1waCcsICc3LjAnLCAnLXRuJywgJzgnLCAnLW1hJywgJzIwMCcsICctbWV0YWxfYmluZGluZycsICctaW1hZScsICc8aW5maWxlLm1hZT4nLCAnLW9tYWUnLCAnPG91dGZpbGUubWFlPic=

> <r_epik_Ionization_Penalty>
0.0244371

> <r_epik_Ionization_Penalty_Charging>
0

> <r_epik_Ionization_Penalty_Neutral>
0.0244371

> <r_epik_State_Penalty>
0.0198365

> <r_epik_Charging_Adjusted_Penalty>
0.0198365

> <i_epik_Tot_Q>
0

> <i_epik_Tot_abs_Q>
0

> <r_epik_Metal_State_Penalty>
0.0190441

> <b_epik_Metal_Only>
0

> <s_lp_Force_Field>
OPLS_2005

> <r_lp_Energy>
6.09758

> <b_lp_Chiralities_Consistent>
1

> <s_lp_Variant>
AV-unprocessed.smi:2089-1

> <Gold.Version>
5.8.1

> <Gold.Id.Protein>
6NUR|6NUR_protein|mol2

> <Gold.PLP.Fitness>
44.4238

> <Gold.PLP.PLP>
-37.7149

> <Gold.PLP.part.hbond>
-5.0000

> <Gold.PLP.part.metal>
0.0000

> <Gold.PLP.part.buried>
-5.8818

> <Gold.PLP.part.nonpolar>
-27.6280

> <Gold.PLP.part.repulsive>
0.1862

> <Gold.PLP.ligand.clash>
0.0000

> <Gold.PLP.ligand.torsion>
1.3851

> <Gold.PLP.Chemscore.Hbond>
2.9778

> <Gold.PLP.Chemscore.CHOScore>
0.0000

> <Gold.PLP.Chemscore.Metal>
0.0000

> <Gold.Chemscore.Hbonds>
donor molecule, donor type, donor heavy atom, donor atom, acceptor molecule, acceptor atom, score
      P1  H  6896  6909       L1     3  0.61
      P1  H  7989  7998       L1    11  0.14
      P1  H  7997  8010       L1    11  1.00
      P1  H 10752 10763       L1     4  1.00

> <Gold.PLP.Chemscore.Internal.Correction>
0.5458

> <Gold.Rescore>
     Score         DG    S(hbond)    S(metal)    S(lipo)     H(rot)  DE(clash)    DE(int)     intcor
     19.73     -21.31       2.87        0.00      95.00       1.90       0.09       1.50       ----

> <Gold.Chemscore.Fitness>
19.7271

> <Gold.Chemscore.DG>
-21.3139

> <Gold.Chemscore.ZeroCoef>
-5.4800

> <Gold.Chemscore.Hbond>
2.8683

> <Gold.Chemscore.Metal>
0.0000

> <Gold.Chemscore.Lipo>
95.0020

> <Gold.Chemscore.Internal_Hbond>
0.0000

> <Gold.Chemscore.DEClash>
0.0853

> <Gold.Chemscore.DEInternal>
1.5015

> <Gold.Chemscore.Rot>
1.8990

> <Gold.Chemscore.Internal.Correction>
   9.000000E+99

> <Gold.Chemscore.Hbonds>
donor molecule, donor type, donor heavy atom, donor atom, acceptor molecule, acceptor atom, score
      P1  H  6896  6909       L1     3  0.60
      P1  H  7997  8010       L1    11  0.98
      P1  H 10752 10763       L1     4  1.00

> <Gold.Chemscore.Hbond.Weighted>
-9.5800

> <Gold.Chemscore.Metal.Weighted>
-0.0000

> <Gold.Chemscore.Lipo.Weighted>
-11.1152

> <Gold.Chemscore.Internal_Hbond.Weighted>
0.0000

> <Gold.Chemscore.DEClash.Weighted>
0.0853

> <Gold.Chemscore.DEInternal.Weighted>
1.5015

> <Gold.Chemscore.Rot.Weighted>
4.8613

> <Gold.Chemscore.Internal.Correction.Weighted>
   9.000000E+99

> <Gold.Protein.RotatedTorsions>
[ 6907 6896 6895 6894 ] final   51.18 input  -60.11 | X-H torsion
[ 7974 7965 7964 7962 ] final  -84.40 input  175.53 | X-H torsion
[ 8008 7997 7996 7995 ] final   95.81 input   59.86 | X-H torsion
[ 10167 10162 10161 10158 ] final  123.83 input  -65.29 | X-H torsion
[ 10718 10713 10712 10709 ] final  -99.08 input   66.30 | X-H torsion
[ 10763 10752 10751 10750 ] final   90.21 input  -60.55 | X-H torsion
[ 11005 11000 10999 10996 ] final -119.36 input  -57.11 | X-H torsion

> <Gold.Protein.ActiveResidues>
 VAL166  LYS551  ARG553  GLY616  TRP617  ASP618  TYR619  PRO620  LYS621  CYS622 
 ASP623  PHE694  ASN695  SER759  ASP760  ASP761  ALA762  ILE779  LEU786  VAL792 
 PHE793  MET794  SER795  GLU796  ALA797  LYS798  CYS799  TRP800  GLU811  SER814 

> <Gold.Protein.RotatedAtoms>
  152.3099  134.7510  160.0338 H   0  0  0  0  0  0  0  0  0  0  0  0  # atno 6907 bound_to 6896
  151.7994  133.3363  159.3530 H   0  0  0  0  0  0  0  0  0  0  0  0  # atno 6908 bound_to 6896
  150.7315  134.5698  159.5929 H   0  0  0  0  0  0  0  0  0  0  0  0  # atno 6909 bound_to 6896
  145.5071  140.9543  143.1728 H   0  0  0  0  0  0  0  0  0  0  0  0  # atno 7974 bound_to 7965
  156.0728  140.3281  155.7597 H   0  0  0  0  0  0  0  0  0  0  0  0  # atno 8008 bound_to 7997
  155.5277  140.0590  157.2912 H   0  0  0  0  0  0  0  0  0  0  0  0  # atno 8009 bound_to 7997
  154.4539  140.1933  156.0453 H   0  0  0  0  0  0  0  0  0  0  0  0  # atno 8010 bound_to 7997
  139.5777  144.6971  151.3611 H   0  0  0  0  0  0  0  0  0  0  0  0  # atno 10167 bound_to 10162
  156.0124  130.5266  150.6617 H   0  0  0  0  0  0  0  0  0  0  0  0  # atno 10718 bound_to 10713
  153.1952  135.4442  155.0198 H   0  0  0  0  0  0  0  0  0  0  0  0  # atno 10763 bound_to 10752
  154.8114  135.3296  154.7297 H   0  0  0  0  0  0  0  0  0  0  0  0  # atno 10764 bound_to 10752
  153.7747  135.6982  153.4955 H   0  0  0  0  0  0  0  0  0  0  0  0  # atno 10765 bound_to 10752
  141.0221  134.0109  157.3268 H   0  0  0  0  0  0  0  0  0  0  0  0  # atno 11005 bound_to 11000
  144.7748  139.6655  143.7179 LP  0  0  0  0  0  0  0  0  0  0  0  0  # atno 17320 bound_to 7965
  146.2190  139.5601  142.9631 LP  0  0  0  0  0  0  0  0  0  0  0  0  # atno 17321 bound_to 7965
  140.7058  143.7518  150.7479 LP  0  0  0  0  0  0  0  0  0  0  0  0  # atno 17342 bound_to 10162
  140.1042  143.4760  152.2408 LP  0  0  0  0  0  0  0  0  0  0  0  0  # atno 17343 bound_to 10162
  157.4358  131.0855  151.0993 LP  0  0  0  0  0  0  0  0  0  0  0  0  # atno 17370 bound_to 10713
  157.1552  130.6201  149.5594 LP  0  0  0  0  0  0  0  0  0  0  0  0  # atno 17371 bound_to 10713
  139.9152  135.0196  156.7854 LP  0  0  0  0  0  0  0  0  0  0  0  0  # atno 17394 bound_to 11000
  140.6555  133.9692  155.7777 LP  0  0  0  0  0  0  0  0  0  0  0  0  # atno 17395 bound_to 11000

$$$$
