AV-unprocessed.smi:2892|AV-procd|sdf|11119|dock7
  -GOLD-   2272015593D 1   1.00000     0.00000
 Structure written by MMmdl.
 42 42  0  0  0  0  0  0  0  0  2 V2000
  152.9501  143.4625  163.3503 C   0  0  0  0  0  0  0  0  0  0  0  0
  152.9545  142.2173  162.4509 C   0  0  0  0  0  0  0  0  0  0  0  0
  152.3706  142.4471  161.0310 C   0  0  1  0  0  0  0  0  0  0  0  0
  151.6400  143.8077  160.9677 C   0  0  0  0  0  0  0  0  0  0  0  0
  153.4536  142.3428  159.9117 C   0  0  2  0  0  0  0  0  0  0  0  0
  152.8383  142.6280  158.6151 N   0  0  0  0  0  0  0  0  0  0  0  0
  151.8737  141.9064  158.0201 C   0  0  0  0  0  0  0  0  0  0  0  0
  151.4399  140.8475  158.4734 O   0  0  0  0  0  0  0  0  0  0  0  0
  151.3185  142.4586  156.7036 C   0  0  0  0  0  0  0  0  0  0  0  0
  150.9929  141.3373  155.7506 C   0  0  0  0  0  0  0  0  0  0  0  0
  151.8035  140.2186  155.4042 C   0  0  0  0  0  0  0  0  0  0  0  0
  151.0607  139.5494  154.4751 C   0  0  0  0  0  0  0  0  0  0  0  0
  149.8759  140.2397  154.3184 N   0  0  0  0  0  0  0  0  0  0  0  0
  148.7704  139.9640  153.4135 C   0  0  0  0  0  0  0  0  0  0  0  0
  147.6683  141.0277  153.5376 C   0  0  0  0  0  0  0  0  0  0  0  0
  148.2304  138.5445  153.6421 C   0  0  0  0  0  0  0  0  0  0  0  0
  149.8358  141.3370  155.1043 N   0  0  0  0  0  0  0  0  0  0  0  0
  154.0363  140.9175  159.8460 C   0  0  0  0  0  0  0  0  0  0  0  0
  154.4865  140.4400  160.9102 O   0  0  0  0  0  0  0  0  0  0  0  0
  154.0178  140.3298  158.7404 O   0  5  0  0  0  0  0  0  0  0  0  0
  153.2644  143.2035  164.3615 H   0  0  0  0  0  0  0  0  0  0  0  0
  151.9524  143.8971  163.4166 H   0  0  0  0  0  0  0  0  0  0  0  0
  153.6326  144.2307  162.9889 H   0  0  0  0  0  0  0  0  0  0  0  0
  153.9693  141.8256  162.3737 H   0  0  0  0  0  0  0  0  0  0  0  0
  152.3831  141.4544  162.9782 H   0  0  0  0  0  0  0  0  0  0  0  0
  151.6238  141.6713  160.8521 H   0  0  0  0  0  0  0  0  0  0  0  0
  152.3299  144.6330  161.1462 H   0  0  0  0  0  0  0  0  0  0  0  0
  150.8425  143.8754  161.7061 H   0  0  0  0  0  0  0  0  0  0  0  0
  151.1688  143.9759  159.9995 H   0  0  0  0  0  0  0  0  0  0  0  0
  154.2540  143.0581  160.1125 H   0  0  0  0  0  0  0  0  0  0  0  0
  153.1210  143.4881  158.1690 H   0  0  0  0  0  0  0  0  0  0  0  0
  150.4268  143.0478  156.9191 H   0  0  0  0  0  0  0  0  0  0  0  0
  152.0438  143.1418  156.2591 H   0  0  0  0  0  0  0  0  0  0  0  0
  152.7883  139.9624  155.7648 H   0  0  0  0  0  0  0  0  0  0  0  0
  151.2782  138.6529  153.9137 H   0  0  0  0  0  0  0  0  0  0  0  0
  149.1563  140.0121  152.3934 H   0  0  0  0  0  0  0  0  0  0  0  0
  146.8787  140.8562  152.8058 H   0  0  0  0  0  0  0  0  0  0  0  0
  148.0667  142.0276  153.3635 H   0  0  0  0  0  0  0  0  0  0  0  0
  147.2089  141.0177  154.5265 H   0  0  0  0  0  0  0  0  0  0  0  0
  147.4386  138.3066  152.9315 H   0  0  0  0  0  0  0  0  0  0  0  0
  147.8221  138.4309  154.6467 H   0  0  0  0  0  0  0  0  0  0  0  0
  149.0188  137.8010  153.5183 H   0  0  0  0  0  0  0  0  0  0  0  0
  1  2  1  0  0  0  0
  1 21  1  0  0  0  0
  1 22  1  0  0  0  0
  1 23  1  0  0  0  0
  2  3  1  0  0  0  0
  2 24  1  0  0  0  0
  2 25  1  0  0  0  0
  3  4  1  0  0  0  0
  3  5  1  0  0  0  0
  3 26  1  0  0  0  0
  4 27  1  0  0  0  0
  4 28  1  0  0  0  0
  4 29  1  0  0  0  0
  5  6  1  0  0  0  0
  5 18  1  0  0  0  0
  5 30  1  0  0  0  0
  6  7  1  0  0  0  0
  6 31  1  0  0  0  0
  7  8  2  0  0  0  0
  7  9  1  0  0  0  0
  9 10  1  0  0  0  0
  9 32  1  0  0  0  0
  9 33  1  0  0  0  0
 10 17  2  0  0  0  0
 10 11  1  0  0  0  0
 11 12  2  0  0  0  0
 11 34  1  0  0  0  0
 12 13  1  0  0  0  0
 12 35  1  0  0  0  0
 13 14  1  0  0  0  0
 13 17  1  0  0  0  0
 14 15  1  0  0  0  0
 14 16  1  0  0  0  0
 14 36  1  0  0  0  0
 15 37  1  0  0  0  0
 15 38  1  0  0  0  0
 15 39  1  0  0  0  0
 16 40  1  0  0  0  0
 16 41  1  0  0  0  0
 16 42  1  0  0  0  0
 18 19  2  0  0  0  0
 18 20  1  0  0  0  0
M  CHG  1  20  -1
M  END
> <s_m_source_file>
AV-unprocessed.smi

> <i_m_source_file_index>
2892

> <i_lp_mmshare_version>
43012

> <i_f3d_flags>
0

> <s_epik_input>
W0NIM11bQ0gyXVtDQEhdKFtDSDNdKVtDQEBIXShDKD1PKVtPSF0pW05IXUMoPU8pW0NIMl1jMVtjSF1bY0hdbihuMSlbQ0hdKFtDSDNdKVtDSDNd

> <s_epik_cmdline>
J2VwaWtfcHl0aG9uJywgJy1waCcsICc3LjAnLCAnLXRuJywgJzgnLCAnLW1hJywgJzIwMCcsICctbWV0YWxfYmluZGluZycsICctaW1hZScsICc8aW5maWxlLm1hZT4nLCAnLW9tYWUnLCAnPG91dGZpbGUubWFlPic=

> <r_lp_tautomer_probability>
1

> <r_epik_Ionization_Penalty>
0.000286846

> <r_epik_Ionization_Penalty_Charging>
0.000224481

> <r_epik_Ionization_Penalty_Neutral>
6.23655e-05

> <r_epik_State_Penalty>
-0

> <r_epik_Charging_Adjusted_Penalty>
0.000224481

> <i_epik_Tot_Q>
-1

> <i_epik_Tot_abs_Q>
1

> <r_epik_Metal_State_Penalty>
-0

> <b_epik_Metal_Only>
0

> <s_lp_Force_Field>
OPLS_2005

> <r_lp_Energy>
14.4899

> <b_lp_Chiralities_Consistent>
1

> <s_lp_Variant>
AV-unprocessed.smi:2892-2

> <Gold.Version>
5.8.1

> <Gold.Id.Protein>
6NUR|6NUR_protein|mol2

> <Gold.PLP.Fitness>
47.4679

> <Gold.PLP.PLP>
-44.3437

> <Gold.PLP.part.hbond>
-1.0000

> <Gold.PLP.part.metal>
0.0000

> <Gold.PLP.part.buried>
-1.9401

> <Gold.PLP.part.nonpolar>
-39.1838

> <Gold.PLP.part.repulsive>
0.5000

> <Gold.PLP.ligand.clash>
0.3320

> <Gold.PLP.ligand.torsion>
1.3447

> <Gold.PLP.Chemscore.Hbond>
2.0000

> <Gold.PLP.Chemscore.CHOScore>
0.0000

> <Gold.PLP.Chemscore.Metal>
0.0000

> <Gold.Chemscore.Hbonds>
donor molecule, donor type, donor heavy atom, donor atom, acceptor molecule, acceptor atom, score
      P1  H  7997  8009       L1    20  1.60

> <Gold.PLP.Chemscore.Internal.Correction>
0.1456

> <Gold.Rescore>
     Score         DG    S(hbond)    S(metal)    S(lipo)     H(rot)  DE(clash)    DE(int)     intcor
      8.61     -14.77       0.97        0.00     104.01       2.39       0.47       5.70       ----

> <Gold.Chemscore.Fitness>
8.6057

> <Gold.Chemscore.DG>
-14.7717

> <Gold.Chemscore.ZeroCoef>
-5.4800

> <Gold.Chemscore.Hbond>
0.9675

> <Gold.Chemscore.Metal>
0.0000

> <Gold.Chemscore.Lipo>
104.0138

> <Gold.Chemscore.Internal_Hbond>
0.0000

> <Gold.Chemscore.DEClash>
0.4696

> <Gold.Chemscore.DEInternal>
5.6964

> <Gold.Chemscore.Rot>
2.3865

> <Gold.Chemscore.Internal.Correction>
   9.000000E+99

> <Gold.Chemscore.Hbonds>
donor molecule, donor type, donor heavy atom, donor atom, acceptor molecule, acceptor atom, score
      P1  H  7997  8009       L1    20  0.80

> <Gold.Chemscore.Hbond.Weighted>
-3.2314

> <Gold.Chemscore.Metal.Weighted>
-0.0000

> <Gold.Chemscore.Lipo.Weighted>
-12.1696

> <Gold.Chemscore.Internal_Hbond.Weighted>
0.0000

> <Gold.Chemscore.DEClash.Weighted>
0.4696

> <Gold.Chemscore.DEInternal.Weighted>
5.6964

> <Gold.Chemscore.Rot.Weighted>
6.1093

> <Gold.Chemscore.Internal.Correction.Weighted>
   9.000000E+99

> <Gold.Protein.RotatedTorsions>
[ 6907 6896 6895 6894 ] final  -33.02 input  -60.11 | X-H torsion
[ 7974 7965 7964 7962 ] final -139.86 input  175.53 | X-H torsion
[ 8008 7997 7996 7995 ] final  144.86 input   59.86 | X-H torsion
[ 10167 10162 10161 10158 ] final  111.57 input  -65.29 | X-H torsion
[ 10718 10713 10712 10709 ] final -139.44 input   66.30 | X-H torsion
[ 10763 10752 10751 10750 ] final   85.53 input  -60.55 | X-H torsion
[ 11005 11000 10999 10996 ] final -120.53 input  -57.11 | X-H torsion

> <Gold.Protein.ActiveResidues>
 VAL166  LYS551  ARG553  GLY616  TRP617  ASP618  TYR619  PRO620  LYS621  CYS622 
 ASP623  PHE694  ASN695  SER759  ASP760  ASP761  ALA762  ILE779  LEU786  VAL792 
 PHE793  MET794  SER795  GLU796  ALA797  LYS798  CYS799  TRP800  GLU811  SER814 

> <Gold.Protein.RotatedAtoms>
  151.0711  134.9799  159.8308 H   0  0  0  0  0  0  0  0  0  0  0  0  # atno 6907 bound_to 6896
  152.5408  134.2298  159.8830 H   0  0  0  0  0  0  0  0  0  0  0  0  # atno 6908 bound_to 6896
  151.2323  133.4400  159.2638 H   0  0  0  0  0  0  0  0  0  0  0  0  # atno 6909 bound_to 6896
  144.8643  140.6269  143.5308 H   0  0  0  0  0  0  0  0  0  0  0  0  # atno 7974 bound_to 7965
  156.2898  140.2224  156.5121 H   0  0  0  0  0  0  0  0  0  0  0  0  # atno 8008 bound_to 7997
  154.7600  140.0474  157.0987 H   0  0  0  0  0  0  0  0  0  0  0  0  # atno 8009 bound_to 7997
  155.0003  140.3101  155.4873 H   0  0  0  0  0  0  0  0  0  0  0  0  # atno 8010 bound_to 7997
  139.6601  144.7129  151.1881 H   0  0  0  0  0  0  0  0  0  0  0  0  # atno 10167 bound_to 10162
  156.3108  130.7480  151.1555 H   0  0  0  0  0  0  0  0  0  0  0  0  # atno 10718 bound_to 10713
  153.1484  135.4614  154.9600 H   0  0  0  0  0  0  0  0  0  0  0  0  # atno 10763 bound_to 10752
  154.7804  135.3187  154.8003 H   0  0  0  0  0  0  0  0  0  0  0  0  # atno 10764 bound_to 10752
  153.8513  135.6921  153.4846 H   0  0  0  0  0  0  0  0  0  0  0  0  # atno 10765 bound_to 10752
  141.0137  134.0227  157.3379 H   0  0  0  0  0  0  0  0  0  0  0  0  # atno 11005 bound_to 11000
  145.4252  139.1557  143.4052 LP  0  0  0  0  0  0  0  0  0  0  0  0  # atno 17320 bound_to 7965
  146.2884  140.4364  142.8749 LP  0  0  0  0  0  0  0  0  0  0  0  0  # atno 17321 bound_to 7965
  140.7576  143.6008  150.8702 LP  0  0  0  0  0  0  0  0  0  0  0  0  # atno 17342 bound_to 10162
  139.9664  143.6105  152.2987 LP  0  0  0  0  0  0  0  0  0  0  0  0  # atno 17343 bound_to 10162
  157.7390  131.0534  150.5257 LP  0  0  0  0  0  0  0  0  0  0  0  0  # atno 17370 bound_to 10713
  156.5397  130.4205  149.6160 LP  0  0  0  0  0  0  0  0  0  0  0  0  # atno 17371 bound_to 10713
  139.9104  135.0189  156.7668 LP  0  0  0  0  0  0  0  0  0  0  0  0  # atno 17394 bound_to 11000
  140.6691  133.9576  155.7846 LP  0  0  0  0  0  0  0  0  0  0  0  0  # atno 17395 bound_to 11000

$$$$
