AV-unprocessed.smi:1014|AV-procd|sdf|4431|dock6
  -GOLD-   22720 2383D 1   1.00000     0.00000
 Structure written by MMmdl.
 34 34  0  0  0  0  0  0  0  0  2 V2000
  148.0137  139.0913  156.9154 C   0  0  0  0  0  0  0  0  0  0  0  0
  148.8422  140.3184  157.3279 C   0  0  0  0  0  0  0  0  0  0  0  0
  148.8494  141.4699  156.2982 C   0  0  1  0  0  0  0  0  0  0  0  0
  149.6066  142.6149  156.8555 N   0  3  0  0  0  0  0  0  0  0  0  0
  151.0460  142.3687  157.0880 C   0  0  0  0  0  0  0  0  0  0  0  0
  151.6329  143.4189  158.0424 C   0  0  0  0  0  0  0  0  0  0  0  0
  152.2507  142.8111  159.2051 N   0  0  0  0  0  0  0  0  0  0  0  0
  152.1646  143.1985  160.5256 C   0  0  0  0  0  0  0  0  0  0  0  0
  152.9008  142.3143  161.2622 C   0  0  0  0  0  0  0  0  0  0  0  0
  153.1295  142.2923  162.7460 C   0  0  0  0  0  0  0  0  0  0  0  0
  153.4018  141.4067  160.2860 C   0  0  0  0  0  0  0  0  0  0  0  0
  153.0097  141.7046  159.0581 N   0  0  0  0  0  0  0  0  0  0  0  0
  149.4458  141.0169  154.9552 C   0  0  0  0  0  0  0  0  0  0  0  0
  148.6772  141.1422  153.8702 N   0  0  0  0  0  0  0  0  0  0  0  0
  150.5828  140.5517  154.9006 O   0  0  0  0  0  0  0  0  0  0  0  0
  147.9935  138.3543  157.7186 H   0  0  0  0  0  0  0  0  0  0  0  0
  148.4283  138.5993  156.0355 H   0  0  0  0  0  0  0  0  0  0  0  0
  146.9824  139.3668  156.6939 H   0  0  0  0  0  0  0  0  0  0  0  0
  148.4399  140.6923  158.2705 H   0  0  0  0  0  0  0  0  0  0  0  0
  149.8645  140.0046  157.5451 H   0  0  0  0  0  0  0  0  0  0  0  0
  147.8187  141.7942  156.1432 H   0  0  0  0  0  0  0  0  0  0  0  0
  149.5307  143.3831  156.2046 H   0  0  0  0  0  0  0  0  0  0  0  0
  151.1818  141.3700  157.5047 H   0  0  0  0  0  0  0  0  0  0  0  0
  151.5761  142.3958  156.1350 H   0  0  0  0  0  0  0  0  0  0  0  0
  152.3815  144.0226  157.5275 H   0  0  0  0  0  0  0  0  0  0  0  0
  150.8546  144.1024  158.3853 H   0  0  0  0  0  0  0  0  0  0  0  0
  151.5918  144.0620  160.8305 H   0  0  0  0  0  0  0  0  0  0  0  0
  153.8665  141.5415  163.0319 H   0  0  0  0  0  0  0  0  0  0  0  0
  152.2127  142.0652  163.2904 H   0  0  0  0  0  0  0  0  0  0  0  0
  153.4921  143.2530  163.1121 H   0  0  0  0  0  0  0  0  0  0  0  0
  154.0341  140.5435  160.4333 H   0  0  0  0  0  0  0  0  0  0  0  0
  149.0264  140.8656  152.9640 H   0  0  0  0  0  0  0  0  0  0  0  0
  147.7455  141.5226  153.9590 H   0  0  0  0  0  0  0  0  0  0  0  0
  149.1739  142.8867  157.7270 H   0  0  0  0  0  0  0  0  0  0  0  0
  1  2  1  0  0  0  0
  1 16  1  0  0  0  0
  1 17  1  0  0  0  0
  1 18  1  0  0  0  0
  2  3  1  0  0  0  0
  2 19  1  0  0  0  0
  2 20  1  0  0  0  0
  3  4  1  0  0  0  0
  3 13  1  0  0  0  0
  3 21  1  0  0  0  0
  4  5  1  0  0  0  0
  4 22  1  0  0  0  0
  4 34  1  0  0  0  0
  5  6  1  0  0  0  0
  5 23  1  0  0  0  0
  5 24  1  0  0  0  0
  6  7  1  0  0  0  0
  6 25  1  0  0  0  0
  6 26  1  0  0  0  0
  7 12  1  0  0  0  0
  7  8  1  0  0  0  0
  8  9  2  0  0  0  0
  8 27  1  0  0  0  0
  9 10  1  0  0  0  0
  9 11  1  0  0  0  0
 10 28  1  0  0  0  0
 10 29  1  0  0  0  0
 10 30  1  0  0  0  0
 11 12  2  0  0  0  0
 11 31  1  0  0  0  0
 13 14  1  0  0  0  0
 13 15  2  0  0  0  0
 14 32  1  0  0  0  0
 14 33  1  0  0  0  0
M  CHG  1   4   1
M  END
> <s_m_source_file>
AV-unprocessed.smi

> <i_m_source_file_index>
1014

> <i_lp_mmshare_version>
43012

> <i_f3d_flags>
0

> <s_epik_input>
W0NIM11bQ0gyXVtDQEBIXShDKD1PKVtOSDJdKVtOSF1bQ0gyXVtDSDJdbjFbY0hdYyhbQ0gzXSlbY0hdbjE=

> <s_epik_cmdline>
J2VwaWtfcHl0aG9uJywgJy1waCcsICc3LjAnLCAnLXRuJywgJzgnLCAnLW1hJywgJzIwMCcsICctbWV0YWxfYmluZGluZycsICctaW1hZScsICc8aW5maWxlLm1hZT4nLCAnLW9tYWUnLCAnPG91dGZpbGUubWFlPic=

> <r_lp_tautomer_probability>
1

> <r_epik_Ionization_Penalty>
0.19042

> <r_epik_Ionization_Penalty_Charging>
0.190412

> <r_epik_Ionization_Penalty_Neutral>
7.5834e-06

> <r_epik_State_Penalty>
0.180404

> <r_epik_Charging_Adjusted_Penalty>
0.370816

> <i_epik_Tot_Q>
1

> <i_epik_Tot_abs_Q>
1

> <r_epik_Metal_State_Penalty>
0.180563

> <b_epik_Metal_Only>
0

> <s_lp_Force_Field>
OPLS_2005

> <r_lp_Energy>
2.60817

> <b_lp_Chiralities_Consistent>
1

> <s_lp_Variant>
AV-unprocessed.smi:1014-2

> <Gold.Version>
5.8.1

> <Gold.Id.Protein>
6NUR|6NUR_protein|mol2

> <Gold.PLP.Fitness>
46.5937

> <Gold.PLP.PLP>
-36.0005

> <Gold.PLP.part.hbond>
-3.0000

> <Gold.PLP.part.metal>
0.0000

> <Gold.PLP.part.buried>
-4.5726

> <Gold.PLP.part.nonpolar>
-27.9341

> <Gold.PLP.part.repulsive>
0.2727

> <Gold.PLP.ligand.clash>
0.0000

> <Gold.PLP.ligand.torsion>
0.7167

> <Gold.PLP.Chemscore.Hbond>
3.9840

> <Gold.PLP.Chemscore.CHOScore>
0.0000

> <Gold.PLP.Chemscore.Metal>
0.0000

> <Gold.Chemscore.Hbonds>
donor molecule, donor type, donor heavy atom, donor atom, acceptor molecule, acceptor atom, score
      L1  H     4    22       P1  8028  2.00
      L1  H    14    32       P1  7957  0.93
      P1  H  7989  7998       L1    15  0.99

> <Gold.PLP.Chemscore.Internal.Correction>
0.0746

> <Gold.Rescore>
     Score         DG    S(hbond)    S(metal)    S(lipo)     H(rot)  DE(clash)    DE(int)     intcor
     15.95     -17.11       2.90        0.00      73.20       2.59       0.02       1.14       ----

> <Gold.Chemscore.Fitness>
15.9459

> <Gold.Chemscore.DG>
-17.1054

> <Gold.Chemscore.ZeroCoef>
-5.4800

> <Gold.Chemscore.Hbond>
2.9001

> <Gold.Chemscore.Metal>
0.0000

> <Gold.Chemscore.Lipo>
73.1960

> <Gold.Chemscore.Internal_Hbond>
0.0000

> <Gold.Chemscore.DEClash>
0.0186

> <Gold.Chemscore.DEInternal>
1.1410

> <Gold.Chemscore.Rot>
2.5878

> <Gold.Chemscore.Internal.Correction>
   9.000000E+99

> <Gold.Chemscore.Hbonds>
donor molecule, donor type, donor heavy atom, donor atom, acceptor molecule, acceptor atom, score
      L1  H     4    22       P1  8028  0.95
      L1  H    14    32       P1  7957  0.89
      P1  H  7989  7998       L1    15  0.92

> <Gold.Chemscore.Hbond.Weighted>
-9.6862

> <Gold.Chemscore.Metal.Weighted>
-0.0000

> <Gold.Chemscore.Lipo.Weighted>
-8.5639

> <Gold.Chemscore.Internal_Hbond.Weighted>
0.0000

> <Gold.Chemscore.DEClash.Weighted>
0.0186

> <Gold.Chemscore.DEInternal.Weighted>
1.1410

> <Gold.Chemscore.Rot.Weighted>
6.6247

> <Gold.Chemscore.Internal.Correction.Weighted>
   9.000000E+99

> <Gold.Protein.RotatedTorsions>
[ 6907 6896 6895 6894 ] final   66.14 input  -60.11 | X-H torsion
[ 7974 7965 7964 7962 ] final  143.87 input  175.53 | X-H torsion
[ 8008 7997 7996 7995 ] final  -58.88 input   59.86 | X-H torsion
[ 10167 10162 10161 10158 ] final -154.14 input  -65.29 | X-H torsion
[ 10718 10713 10712 10709 ] final -109.99 input   66.30 | X-H torsion
[ 10763 10752 10751 10750 ] final  -30.40 input  -60.55 | X-H torsion
[ 11005 11000 10999 10996 ] final   62.85 input  -57.11 | X-H torsion

> <Gold.Protein.ActiveResidues>
 VAL166  LYS551  ARG553  GLY616  TRP617  ASP618  TYR619  PRO620  LYS621  CYS622 
 ASP623  PHE694  ASN695  SER759  ASP760  ASP761  ALA762  ILE779  LEU786  VAL792 
 PHE793  MET794  SER795  GLU796  ALA797  LYS798  CYS799  TRP800  GLU811  SER814 

> <Gold.Protein.RotatedAtoms>
  152.4459  134.5496  159.9862 H   0  0  0  0  0  0  0  0  0  0  0  0  # atno 6907 bound_to 6896
  151.5581  133.3401  159.2973 H   0  0  0  0  0  0  0  0  0  0  0  0  # atno 6908 bound_to 6896
  150.8375  134.7687  159.6968 H   0  0  0  0  0  0  0  0  0  0  0  0  # atno 6909 bound_to 6896
  144.8884  139.5595  143.5810 H   0  0  0  0  0  0  0  0  0  0  0  0  # atno 7974 bound_to 7965
  154.4328  140.1074  156.6027 H   0  0  0  0  0  0  0  0  0  0  0  0  # atno 8008 bound_to 7997
  155.5893  140.3492  155.4543 H   0  0  0  0  0  0  0  0  0  0  0  0  # atno 8009 bound_to 7997
  156.0258  140.1250  157.0299 H   0  0  0  0  0  0  0  0  0  0  0  0  # atno 8010 bound_to 7997
  139.7038  143.9219  152.2440 H   0  0  0  0  0  0  0  0  0  0  0  0  # atno 10167 bound_to 10162
  156.0567  130.5792  150.8176 H   0  0  0  0  0  0  0  0  0  0  0  0  # atno 10718 bound_to 10713
  153.7804  135.6905  153.4889 H   0  0  0  0  0  0  0  0  0  0  0  0  # atno 10763 bound_to 10752
  153.1815  135.4504  155.0033 H   0  0  0  0  0  0  0  0  0  0  0  0  # atno 10764 bound_to 10752
  154.8084  135.3366  154.7307 H   0  0  0  0  0  0  0  0  0  0  0  0  # atno 10765 bound_to 10752
  140.0064  134.6363  155.9848 H   0  0  0  0  0  0  0  0  0  0  0  0  # atno 11005 bound_to 11000
  146.3038  139.7514  142.9071 LP  0  0  0  0  0  0  0  0  0  0  0  0  # atno 17320 bound_to 7965
  145.3828  141.0361  143.3168 LP  0  0  0  0  0  0  0  0  0  0  0  0  # atno 17321 bound_to 7965
  139.9069  144.6879  150.8604 LP  0  0  0  0  0  0  0  0  0  0  0  0  # atno 17342 bound_to 10162
  140.7716  143.3472  151.2088 LP  0  0  0  0  0  0  0  0  0  0  0  0  # atno 17343 bound_to 10162
  157.5542  131.0944  150.9652 LP  0  0  0  0  0  0  0  0  0  0  0  0  # atno 17370 bound_to 10713
  156.9905  130.5561  149.5303 LP  0  0  0  0  0  0  0  0  0  0  0  0  # atno 17371 bound_to 10713
  141.1680  133.6537  156.4548 LP  0  0  0  0  0  0  0  0  0  0  0  0  # atno 17394 bound_to 11000
  140.4633  134.6821  157.5096 LP  0  0  0  0  0  0  0  0  0  0  0  0  # atno 17395 bound_to 11000

$$$$
