AV-unprocessed.smi:160|AV-procd|sdf|1364|dock8
  -GOLD-   2262019 73D 1   1.00000     0.00000
 Structure written by MMmdl.
 28 29  0  0  0  0  0  0  0  0  2 V2000
  152.3634  137.6799  154.1949 N   0  5  0  0  0  0  0  0  0  0  0  0
  152.8054  138.6379  155.0385 C   0  0  0  0  0  0  0  0  0  0  0  0
  153.9003  138.6615  155.5999 O   0  0  0  0  0  0  0  0  0  0  0  0
  151.8264  139.7615  155.2852 C   0  0  0  0  0  0  0  0  0  0  0  0
  151.9858  140.6010  156.3535 N   0  0  0  0  0  0  0  0  0  0  0  0
  150.9321  141.3843  156.1672 C   0  0  0  0  0  0  0  0  0  0  0  0
  150.1915  141.0646  155.1024 N   0  0  0  0  0  0  0  0  0  0  0  0
  148.9413  141.7089  154.5789 C   0  0  1  0  0  0  0  0  0  0  0  0
  148.6102  141.1115  153.3612 O   0  0  0  0  0  0  0  0  0  0  0  0
  147.5429  140.1893  153.5525 C   0  0  2  0  0  0  0  0  0  0  0  0
  146.8274  139.8808  152.2254 C   0  0  0  0  0  0  0  0  0  0  0  0
  147.2604  138.6382  151.7148 O   0  0  0  0  0  0  0  0  0  0  0  0
  146.6868  140.8871  154.6198 C   0  0  2  0  0  0  0  0  0  0  0  0
  145.8407  141.8630  154.0373 O   0  0  0  0  0  0  0  0  0  0  0  0
  147.7211  141.5548  155.5208 C   0  0  1  0  0  0  0  0  0  0  0  0
  147.9568  140.7568  156.6678 O   0  0  0  0  0  0  0  0  0  0  0  0
  150.7710  139.9964  154.4994 N   0  0  0  0  0  0  0  0  0  0  0  0
  149.2247  142.7486  154.4120 H   0  0  0  0  0  0  0  0  0  0  0  0
  147.9373  139.2671  153.9830 H   0  0  0  0  0  0  0  0  0  0  0  0
  146.0565  140.1777  155.1580 H   0  0  0  0  0  0  0  0  0  0  0  0
  147.3966  142.5412  155.8550 H   0  0  0  0  0  0  0  0  0  0  0  0
  151.4962  137.8484  153.6717 H   0  0  0  0  0  0  0  0  0  0  0  0
  150.6927  142.2070  156.8246 H   0  0  0  0  0  0  0  0  0  0  0  0
  145.7520  139.8067  152.3887 H   0  0  0  0  0  0  0  0  0  0  0  0
  146.9933  140.6686  151.4899 H   0  0  0  0  0  0  0  0  0  0  0  0
  148.0872  138.7637  151.2754 H   0  0  0  0  0  0  0  0  0  0  0  0
  145.0848  141.4264  153.6760 H   0  0  0  0  0  0  0  0  0  0  0  0
  148.8529  140.4578  156.6491 H   0  0  0  0  0  0  0  0  0  0  0  0
  1  2  1  0  0  0  0
  1 22  1  0  0  0  0
  2  3  2  0  0  0  0
  2  4  1  0  0  0  0
  4 17  2  0  0  0  0
  4  5  1  0  0  0  0
  5  6  2  0  0  0  0
  6  7  1  0  0  0  0
  6 23  1  0  0  0  0
  7  8  1  0  0  0  0
  7 17  1  0  0  0  0
  8 18  1  0  0  0  0
  8 15  1  0  0  0  0
  8  9  1  0  0  0  0
  9 10  1  0  0  0  0
 10 19  1  0  0  0  0
 10 11  1  0  0  0  0
 10 13  1  0  0  0  0
 11 12  1  0  0  0  0
 11 24  1  0  0  0  0
 11 25  1  0  0  0  0
 12 26  1  0  0  0  0
 13 20  1  0  0  0  0
 13 14  1  0  0  0  0
 13 15  1  0  0  0  0
 14 27  1  0  0  0  0
 15 21  1  0  0  0  0
 15 16  1  0  0  0  0
 16 28  1  0  0  0  0
M  CHG  1   1  -1
M  END
> <s_m_source_file>
AV-unprocessed.smi

> <i_m_source_file_index>
160

> <i_lp_mmshare_version>
43012

> <i_f3d_flags>
0

> <s_epik_input>
W05IMl1DKD1PKWMxbltjSF1uKG4xKVtDQEBIXTJPW0NASF0oW0NIMl1bT0hdKVtDQEBIXShbT0hdKVtDQEhdMltPSF0=

> <s_epik_cmdline>
J2VwaWtfcHl0aG9uJywgJy1waCcsICc3LjAnLCAnLXRuJywgJzgnLCAnLW1hJywgJzIwMCcsICctbWV0YWxfYmluZGluZycsICctaW1hZScsICc8aW5maWxlLm1hZT4nLCAnLW9tYWUnLCAnPG91dGZpbGUubWFlPic=

> <r_lp_tautomer_probability>
1

> <r_epik_Ionization_Penalty>
6.6993

> <r_epik_Ionization_Penalty_Charging>
6.6993

> <r_epik_Ionization_Penalty_Neutral>
6.01698e-06

> <r_epik_State_Penalty>
6.69929

> <r_epik_Charging_Adjusted_Penalty>
13.3986

> <i_epik_Tot_Q>
-1

> <i_epik_Tot_abs_Q>
1

> <r_epik_Metal_State_Penalty>
2.62798

> <b_epik_Metal_Only>
1

> <s_epik_Chemistry_Notes>
This compound contains an acetal/aminal-like group ( X-CH(R)-Y where X, Y are N, S, or O) that may be acid/base labile, releasing an aldehyde.

> <s_lp_Force_Field>
OPLS_2005

> <r_lp_Energy>
46.6633

> <b_lp_Chiralities_Consistent>
1

> <s_lp_Variant>
AV-unprocessed.smi:160-22

> <Gold.Version>
5.8.1

> <Gold.Id.Protein>
6NUR|6NUR_protein|mol2

> <Gold.PLP.Fitness>
43.7380

> <Gold.PLP.PLP>
-28.9080

> <Gold.PLP.part.hbond>
-7.9204

> <Gold.PLP.part.metal>
0.0000

> <Gold.PLP.part.buried>
-0.4420

> <Gold.PLP.part.nonpolar>
-22.8218

> <Gold.PLP.part.repulsive>
2.7423

> <Gold.PLP.ligand.clash>
0.0000

> <Gold.PLP.ligand.torsion>
0.7440

> <Gold.PLP.Chemscore.Hbond>
5.4379

> <Gold.PLP.Chemscore.CHOScore>
0.0000

> <Gold.PLP.Chemscore.Metal>
0.0000

> <Gold.Chemscore.Hbonds>
donor molecule, donor type, donor heavy atom, donor atom, acceptor molecule, acceptor atom, score
      L1  H    12    26       P1  7957  0.86
      L1  H    14    27       P1 10175  0.90
      P1  H  7989  7998       L1    17  0.49
      P1  H  7997  8009       L1     3  0.62
      P1  H  8011  8017       L1     9  0.57
      P1  H 10752 10763       L1     1  1.21

> <Gold.PLP.Chemscore.Internal.Correction>
0.0044

> <Gold.Rescore>
     Score         DG    S(hbond)    S(metal)    S(lipo)     H(rot)  DE(clash)    DE(int)     intcor
      4.54      -7.51       2.91        0.00      22.64       4.04       1.12       1.85       ----

> <Gold.Chemscore.Fitness>
4.5444

> <Gold.Chemscore.DG>
-7.5077

> <Gold.Chemscore.ZeroCoef>
-5.4800

> <Gold.Chemscore.Hbond>
2.9107

> <Gold.Chemscore.Metal>
0.0000

> <Gold.Chemscore.Lipo>
22.6425

> <Gold.Chemscore.Internal_Hbond>
0.0000

> <Gold.Chemscore.DEClash>
1.1152

> <Gold.Chemscore.DEInternal>
1.8481

> <Gold.Chemscore.Rot>
4.0403

> <Gold.Chemscore.Internal.Correction>
   9.000000E+99

> <Gold.Chemscore.Hbonds>
donor molecule, donor type, donor heavy atom, donor atom, acceptor molecule, acceptor atom, score
      L1  H    12    26       P1  7957  0.29
      L1  H    14    27       P1 10175  0.19
      P1  H  7989  7998       L1    17  0.01
      P1  H  7997  8009       L1     3  0.58
      P1  H  8011  8017       L1     9  0.04
      P1  H 10752 10763       L1     1  0.52

> <Gold.Chemscore.Hbond.Weighted>
-9.7216

> <Gold.Chemscore.Metal.Weighted>
-0.0000

> <Gold.Chemscore.Lipo.Weighted>
-2.6492

> <Gold.Chemscore.Internal_Hbond.Weighted>
0.0000

> <Gold.Chemscore.DEClash.Weighted>
1.1152

> <Gold.Chemscore.DEInternal.Weighted>
1.8481

> <Gold.Chemscore.Rot.Weighted>
10.3431

> <Gold.Chemscore.Internal.Correction.Weighted>
   9.000000E+99

> <Gold.Protein.RotatedTorsions>
[ 6907 6896 6895 6894 ] final  -82.27 input  -60.11 | X-H torsion
[ 7974 7965 7964 7962 ] final  -44.62 input  175.53 | X-H torsion
[ 8008 7997 7996 7995 ] final -155.23 input   59.86 | X-H torsion
[ 10167 10162 10161 10158 ] final   -3.50 input  -65.29 | X-H torsion
[ 10718 10713 10712 10709 ] final  -40.59 input   66.30 | X-H torsion
[ 10763 10752 10751 10750 ] final   38.49 input  -60.55 | X-H torsion
[ 11005 11000 10999 10996 ] final  133.95 input  -57.11 | X-H torsion

> <Gold.Protein.ActiveResidues>
 VAL166  LYS551  ARG553  GLY616  TRP617  ASP618  TYR619  PRO620  LYS621  CYS622 
 ASP623  PHE694  ASN695  SER759  ASP760  ASP761  ALA762  ILE779  LEU786  VAL792 
 PHE793  MET794  SER795  GLU796  ALA797  LYS798  CYS799  TRP800  GLU811  SER814 

> <Gold.Protein.RotatedAtoms>
  150.6900  134.3691  159.4983 H   0  0  0  0  0  0  0  0  0  0  0  0  # atno 6907 bound_to 6896
  152.1509  134.8986  160.0557 H   0  0  0  0  0  0  0  0  0  0  0  0  # atno 6908 bound_to 6896
  152.0084  133.3817  159.4247 H   0  0  0  0  0  0  0  0  0  0  0  0  # atno 6909 bound_to 6896
  145.9902  140.7189  142.9320 H   0  0  0  0  0  0  0  0  0  0  0  0  # atno 7974 bound_to 7965
  155.6987  140.0764  157.2419 H   0  0  0  0  0  0  0  0  0  0  0  0  # atno 8008 bound_to 7997
  154.4076  140.1651  156.2220 H   0  0  0  0  0  0  0  0  0  0  0  0  # atno 8009 bound_to 7997
  155.9387  140.3386  155.6312 H   0  0  0  0  0  0  0  0  0  0  0  0  # atno 8010 bound_to 7997
  140.6892  143.6532  150.8331 H   0  0  0  0  0  0  0  0  0  0  0  0  # atno 10167 bound_to 10162
  156.2797  130.4216  149.8350 H   0  0  0  0  0  0  0  0  0  0  0  0  # atno 10718 bound_to 10713
  152.9999  135.6248  154.2313 H   0  0  0  0  0  0  0  0  0  0  0  0  # atno 10763 bound_to 10752
  154.2055  135.2802  155.2978 H   0  0  0  0  0  0  0  0  0  0  0  0  # atno 10764 bound_to 10752
  154.5649  135.5694  153.7100 H   0  0  0  0  0  0  0  0  0  0  0  0  # atno 10765 bound_to 10752
  139.9884  134.9524  156.9797 H   0  0  0  0  0  0  0  0  0  0  0  0  # atno 11005 bound_to 11000
  144.6886  140.3057  143.7256 LP  0  0  0  0  0  0  0  0  0  0  0  0  # atno 17320 bound_to 7965
  145.7641  139.1835  143.2250 LP  0  0  0  0  0  0  0  0  0  0  0  0  # atno 17321 bound_to 7965
  140.0243  143.5510  152.2787 LP  0  0  0  0  0  0  0  0  0  0  0  0  # atno 17342 bound_to 10162
  139.6279  144.7640  151.2598 LP  0  0  0  0  0  0  0  0  0  0  0  0  # atno 17343 bound_to 10162
  156.5802  130.8462  151.3381 LP  0  0  0  0  0  0  0  0  0  0  0  0  # atno 17370 bound_to 10713
  157.7310  130.9694  150.1861 LP  0  0  0  0  0  0  0  0  0  0  0  0  # atno 17371 bound_to 10713
  140.4957  134.1148  155.7241 LP  0  0  0  0  0  0  0  0  0  0  0  0  # atno 17394 bound_to 11000
  141.1544  133.8909  157.2014 LP  0  0  0  0  0  0  0  0  0  0  0  0  # atno 17395 bound_to 11000

$$$$
