AV-unprocessed.smi:500|AV-procd|sdf|2739|dock9
  -GOLD-   2262023193D 1   1.00000     0.00000
 Structure written by MMmdl.
 44 46  0  0  0  0  0  0  0  0  2 V2000
  147.1874  140.7431  153.3964 C   0  0  0  0  0  0  0  0  0  0  0  0
  148.0808  141.7539  154.1280 C   0  0  0  0  0  0  0  0  0  0  0  0
  148.0464  141.5309  155.5281 O   0  0  0  0  0  0  0  0  0  0  0  0
  148.6548  140.3185  155.9418 C   0  0  0  0  0  0  0  0  0  0  0  0
  150.1805  140.4877  155.9435 C   0  0  0  0  0  0  0  0  0  0  0  0
  150.7163  140.5875  157.3048 N   0  0  0  0  0  0  0  0  0  0  0  0
  150.8610  139.6454  158.2897 C   0  0  0  0  0  0  0  0  0  0  0  0
  150.4707  138.1822  158.1462 C   0  0  1  0  0  0  0  0  0  0  0  0
  151.7150  137.2835  158.1277 C   0  0  0  0  0  0  0  0  0  0  0  0
  149.5764  137.7250  159.2150 N   0  5  0  0  0  0  0  0  0  0  0  0
  149.1017  136.4526  159.3291 C   0  0  0  0  0  0  0  0  0  0  0  0
  149.3259  135.4594  158.6306 O   0  0  0  0  0  0  0  0  0  0  0  0
  148.2181  136.2932  160.5062 C   0  0  0  0  0  0  0  0  0  0  0  0
  147.8701  135.1945  161.2503 C   0  0  0  0  0  0  0  0  0  0  0  0
  147.0076  135.6538  162.2836 C   0  0  0  0  0  0  0  0  0  0  0  0
  146.8958  137.0023  162.1058 C   0  0  0  0  0  0  0  0  0  0  0  0
  147.6305  137.4073  161.0348 O   0  0  0  0  0  0  0  0  0  0  0  0
  151.4210  140.0956  159.4191 N   0  0  0  0  0  0  0  0  0  0  0  0
  151.6276  141.4340  159.1645 C   0  0  0  0  0  0  0  0  0  0  0  0
  152.1770  142.4493  159.9796 C   0  0  0  0  0  0  0  0  0  0  0  0
  152.2934  143.7685  159.4954 C   0  0  0  0  0  0  0  0  0  0  0  0
  151.8636  144.0892  158.1916 C   0  0  0  0  0  0  0  0  0  0  0  0
  151.3146  143.0906  157.3645 C   0  0  0  0  0  0  0  0  0  0  0  0
  151.1995  141.7746  157.8532 C   0  0  0  0  0  0  0  0  0  0  0  0
  147.2693  140.8659  152.3165 H   0  0  0  0  0  0  0  0  0  0  0  0
  146.1374  140.8601  153.6628 H   0  0  0  0  0  0  0  0  0  0  0  0
  147.4805  139.7212  153.6383 H   0  0  0  0  0  0  0  0  0  0  0  0
  149.1105  141.6167  153.7977 H   0  0  0  0  0  0  0  0  0  0  0  0
  147.8071  142.7810  153.8823 H   0  0  0  0  0  0  0  0  0  0  0  0
  148.3020  140.0585  156.9403 H   0  0  0  0  0  0  0  0  0  0  0  0
  148.3811  139.4962  155.2801 H   0  0  0  0  0  0  0  0  0  0  0  0
  150.6623  139.6824  155.3904 H   0  0  0  0  0  0  0  0  0  0  0  0
  150.4435  141.4012  155.4097 H   0  0  0  0  0  0  0  0  0  0  0  0
  149.9879  138.0633  157.1761 H   0  0  0  0  0  0  0  0  0  0  0  0
  152.3840  137.5636  157.3138 H   0  0  0  0  0  0  0  0  0  0  0  0
  151.4449  136.2367  157.9852 H   0  0  0  0  0  0  0  0  0  0  0  0
  152.2768  137.3596  159.0596 H   0  0  0  0  0  0  0  0  0  0  0  0
  148.1986  134.1812  161.0712 H   0  0  0  0  0  0  0  0  0  0  0  0
  146.5331  135.0719  163.0597 H   0  0  0  0  0  0  0  0  0  0  0  0
  146.3655  137.7873  162.6245 H   0  0  0  0  0  0  0  0  0  0  0  0
  152.5086  142.2111  160.9795 H   0  0  0  0  0  0  0  0  0  0  0  0
  152.7145  144.5368  160.1269 H   0  0  0  0  0  0  0  0  0  0  0  0
  151.9561  145.1016  157.8271 H   0  0  0  0  0  0  0  0  0  0  0  0
  150.9846  143.3338  156.3656 H   0  0  0  0  0  0  0  0  0  0  0  0
  1  2  1  0  0  0  0
  1 25  1  0  0  0  0
  1 26  1  0  0  0  0
  1 27  1  0  0  0  0
  2  3  1  0  0  0  0
  2 28  1  0  0  0  0
  2 29  1  0  0  0  0
  3  4  1  0  0  0  0
  4  5  1  0  0  0  0
  4 30  1  0  0  0  0
  4 31  1  0  0  0  0
  5  6  1  0  0  0  0
  5 32  1  0  0  0  0
  5 33  1  0  0  0  0
  6 24  1  0  0  0  0
  6  7  1  0  0  0  0
  7  8  1  0  0  0  0
  7 18  2  0  0  0  0
  8  9  1  0  0  0  0
  8 10  1  0  0  0  0
  8 34  1  0  0  0  0
  9 35  1  0  0  0  0
  9 36  1  0  0  0  0
  9 37  1  0  0  0  0
 10 11  1  0  0  0  0
 11 12  2  0  0  0  0
 11 13  1  0  0  0  0
 13 17  1  0  0  0  0
 13 14  2  0  0  0  0
 14 15  1  0  0  0  0
 14 38  1  0  0  0  0
 15 16  2  0  0  0  0
 15 39  1  0  0  0  0
 16 17  1  0  0  0  0
 16 40  1  0  0  0  0
 18 19  1  0  0  0  0
 19 24  2  0  0  0  0
 19 20  1  0  0  0  0
 20 21  2  0  0  0  0
 20 41  1  0  0  0  0
 21 22  1  0  0  0  0
 21 42  1  0  0  0  0
 22 23  2  0  0  0  0
 22 43  1  0  0  0  0
 23 24  1  0  0  0  0
 23 44  1  0  0  0  0
M  CHG  1  10  -1
M  END
> <s_m_source_file>
AV-unprocessed.smi

> <i_m_source_file_index>
500

> <i_lp_mmshare_version>
43012

> <i_f3d_flags>
0

> <s_epik_input>
W0NIM11bQ0gyXU9bQ0gyXVtDSDJdbihjKGMxMilbY0hdW2NIXVtjSF1bY0hdMiljKG4xKVtDQEhdKFtDSDNdKVtOSF1DKD1PKWMzW2NIXVtjSF1bY0hdbzM=

> <s_epik_cmdline>
J2VwaWtfcHl0aG9uJywgJy1waCcsICc3LjAnLCAnLXRuJywgJzgnLCAnLW1hJywgJzIwMCcsICctbWV0YWxfYmluZGluZycsICctaW1hZScsICc8aW5maWxlLm1hZT4nLCAnLW9tYWUnLCAnPG91dGZpbGUubWFlPic=

> <r_epik_Ionization_Penalty>
7.31223

> <r_epik_Ionization_Penalty_Charging>
6.43826

> <r_epik_Ionization_Penalty_Neutral>
0.873973

> <r_epik_State_Penalty>
6.5378

> <r_epik_Charging_Adjusted_Penalty>
12.9761

> <i_epik_Tot_Q>
-1

> <i_epik_Tot_abs_Q>
1

> <r_epik_Metal_State_Penalty>
2.55818

> <b_epik_Metal_Only>
1

> <s_lp_Force_Field>
OPLS_2005

> <r_lp_Energy>
16.2081

> <b_lp_Chiralities_Consistent>
1

> <s_lp_Variant>
AV-unprocessed.smi:500-6

> <Gold.Version>
5.8.1

> <Gold.Id.Protein>
6NUR|6NUR_protein|mol2

> <Gold.PLP.Fitness>
53.0142

> <Gold.PLP.PLP>
-46.6642

> <Gold.PLP.part.hbond>
-3.9291

> <Gold.PLP.part.metal>
0.0000

> <Gold.PLP.part.buried>
-3.7540

> <Gold.PLP.part.nonpolar>
-39.9344

> <Gold.PLP.part.repulsive>
0.1040

> <Gold.PLP.ligand.clash>
0.0000

> <Gold.PLP.ligand.torsion>
0.8758

> <Gold.PLP.Chemscore.Hbond>
2.6320

> <Gold.PLP.Chemscore.CHOScore>
0.0000

> <Gold.PLP.Chemscore.Metal>
0.0000

> <Gold.Chemscore.Hbonds>
donor molecule, donor type, donor heavy atom, donor atom, acceptor molecule, acceptor atom, score
      P1  H  6896  6907       L1    12  0.85
      P1  H  6931  6943       L1    17  0.78
      P1  H  6934  6947       L1    17  0.88

> <Gold.PLP.Chemscore.Internal.Correction>
0.2057

> <Gold.Rescore>
     Score         DG    S(hbond)    S(metal)    S(lipo)     H(rot)  DE(clash)    DE(int)     intcor
     17.81     -19.96       1.46        0.00     122.47       1.84       0.72       1.43       ----

> <Gold.Chemscore.Fitness>
17.8075

> <Gold.Chemscore.DG>
-19.9633

> <Gold.Chemscore.ZeroCoef>
-5.4800

> <Gold.Chemscore.Hbond>
1.4551

> <Gold.Chemscore.Metal>
0.0000

> <Gold.Chemscore.Lipo>
122.4705

> <Gold.Chemscore.Internal_Hbond>
0.0000

> <Gold.Chemscore.DEClash>
0.7221

> <Gold.Chemscore.DEInternal>
1.4337

> <Gold.Chemscore.Rot>
1.8382

> <Gold.Chemscore.Internal.Correction>
   9.000000E+99

> <Gold.Chemscore.Hbonds>
donor molecule, donor type, donor heavy atom, donor atom, acceptor molecule, acceptor atom, score
      P1  H  6896  6907       L1    12  0.15
      P1  H  6931  6943       L1    17  0.09
      P1  H  6934  6947       L1    17  0.26

> <Gold.Chemscore.Hbond.Weighted>
-4.8601

> <Gold.Chemscore.Metal.Weighted>
-0.0000

> <Gold.Chemscore.Lipo.Weighted>
-14.3291

> <Gold.Chemscore.Internal_Hbond.Weighted>
0.0000

> <Gold.Chemscore.DEClash.Weighted>
0.7221

> <Gold.Chemscore.DEInternal.Weighted>
1.4337

> <Gold.Chemscore.Rot.Weighted>
4.7059

> <Gold.Chemscore.Internal.Correction.Weighted>
   9.000000E+99

> <Gold.Protein.RotatedTorsions>
[ 6907 6896 6895 6894 ] final  -55.88 input  -60.11 | X-H torsion
[ 7974 7965 7964 7962 ] final  117.76 input  175.53 | X-H torsion
[ 8008 7997 7996 7995 ] final    9.09 input   59.86 | X-H torsion
[ 10167 10162 10161 10158 ] final -130.61 input  -65.29 | X-H torsion
[ 10718 10713 10712 10709 ] final -132.55 input   66.30 | X-H torsion
[ 10763 10752 10751 10750 ] final  -52.01 input  -60.55 | X-H torsion
[ 11005 11000 10999 10996 ] final  172.72 input  -57.11 | X-H torsion

> <Gold.Protein.ActiveResidues>
 VAL166  LYS551  ARG553  GLY616  TRP617  ASP618  TYR619  PRO620  LYS621  CYS622 
 ASP623  PHE694  ASN695  SER759  ASP760  ASP761  ALA762  ILE779  LEU786  VAL792 
 PHE793  MET794  SER795  GLU796  ALA797  LYS798  CYS799  TRP800  GLU811  SER814 

> <Gold.Protein.RotatedAtoms>
  150.8214  134.7424  159.6775 H   0  0  0  0  0  0  0  0  0  0  0  0  # atno 6907 bound_to 6896
  152.4329  134.5739  159.9938 H   0  0  0  0  0  0  0  0  0  0  0  0  # atno 6908 bound_to 6896
  151.5922  133.3328  159.3066 H   0  0  0  0  0  0  0  0  0  0  0  0  # atno 6909 bound_to 6896
  145.1634  139.3142  143.4505 H   0  0  0  0  0  0  0  0  0  0  0  0  # atno 7974 bound_to 7965
  154.7755  140.2809  155.6105 H   0  0  0  0  0  0  0  0  0  0  0  0  # atno 8008 bound_to 7997
  156.2941  140.2633  156.2495 H   0  0  0  0  0  0  0  0  0  0  0  0  # atno 8009 bound_to 7997
  154.9848  140.0374  157.2283 H   0  0  0  0  0  0  0  0  0  0  0  0  # atno 8010 bound_to 7997
  139.9275  143.6310  152.2538 H   0  0  0  0  0  0  0  0  0  0  0  0  # atno 10167 bound_to 10162
  156.2358  130.7065  151.0905 H   0  0  0  0  0  0  0  0  0  0  0  0  # atno 10718 bound_to 10713
  154.1358  135.6513  153.4931 H   0  0  0  0  0  0  0  0  0  0  0  0  # atno 10763 bound_to 10752
  153.0181  135.5303  154.6955 H   0  0  0  0  0  0  0  0  0  0  0  0  # atno 10764 bound_to 10752
  154.6203  135.2964  155.0305 H   0  0  0  0  0  0  0  0  0  0  0  0  # atno 10765 bound_to 10752
  140.3327  134.7343  157.4146 H   0  0  0  0  0  0  0  0  0  0  0  0  # atno 11005 bound_to 11000
  146.3479  140.1753  142.8589 LP  0  0  0  0  0  0  0  0  0  0  0  0  # atno 17320 bound_to 7965
  145.0307  140.8868  143.5111 LP  0  0  0  0  0  0  0  0  0  0  0  0  # atno 17321 bound_to 7965
  139.6810  144.7655  151.1609 LP  0  0  0  0  0  0  0  0  0  0  0  0  # atno 17342 bound_to 10162
  140.7646  143.5725  150.8980 LP  0  0  0  0  0  0  0  0  0  0  0  0  # atno 17343 bound_to 10162
  157.7153  131.0713  150.6348 LP  0  0  0  0  0  0  0  0  0  0  0  0  # atno 17370 bound_to 10713
  156.6419  130.4460  149.5749 LP  0  0  0  0  0  0  0  0  0  0  0  0  # atno 17371 bound_to 10713
  140.0847  134.5683  155.8504 LP  0  0  0  0  0  0  0  0  0  0  0  0  # atno 17394 bound_to 11000
  141.2059  133.6651  156.6209 LP  0  0  0  0  0  0  0  0  0  0  0  0  # atno 17395 bound_to 11000

$$$$
