AV-unprocessed.smi:1552|AV-procd|sdf|6237|dock2
  -GOLD-   22720 6413D 1   1.00000     0.00000
 Structure written by MMmdl.
 49 50  0  0  0  0  0  0  0  0  3 V2000
  145.1998  137.5182  153.5310 C   0  0  0  0  0  0  0  0  0  0  0  0
  144.7577  136.2927  152.8272 N   0  3  0  0  0  0  0  0  0  0  0  0
  143.4729  135.7907  153.3752 C   0  0  0  0  0  0  0  0  0  0  0  0
  145.8534  135.2832  152.6764 C   0  0  1  0  0  0  0  0  0  0  0  0
  146.5953  134.9728  154.0018 C   0  0  0  0  0  0  0  0  0  0  0  0
  148.0411  135.0870  153.8532 N   0  0  0  0  0  0  0  0  0  0  0  0
  148.9567  134.9920  154.8303 C   0  0  0  0  0  0  0  0  0  0  0  0
  148.6101  134.8161  155.9971 O   0  0  0  0  0  0  0  0  0  0  0  0
  150.4507  135.1407  154.4799 C   0  0  0  0  0  0  0  0  0  0  0  0
  151.0624  136.3421  155.0699 N   0  0  0  0  0  0  0  0  0  0  0  0
  151.0671  137.5204  154.3029 C   0  0  0  0  0  0  0  0  0  0  0  0
  151.6047  138.6657  154.7642 C   0  0  0  0  0  0  0  0  0  0  0  0
  152.1938  138.6641  156.0978 C   0  0  0  0  0  0  0  0  0  0  0  0
  152.6942  139.6994  156.5328 O   0  0  0  0  0  0  0  0  0  0  0  0
  152.1598  137.4969  156.8052 N   0  5  0  0  0  0  0  0  0  0  0  0
  151.6071  136.3403  156.3243 C   0  0  0  0  0  0  0  0  0  0  0  0
  151.5844  135.2973  156.9796 O   0  0  0  0  0  0  0  0  0  0  0  0
  145.3715  134.0264  151.8950 C   0  0  0  0  0  0  0  0  0  0  0  0
  146.5298  133.0498  151.5913 C   0  0  0  0  0  0  0  0  0  0  0  0
  146.0238  131.7599  150.9245 C   0  0  0  0  0  0  0  0  0  0  0  0
  145.2179  132.0663  149.6530 C   0  0  0  0  0  0  0  0  0  0  0  0
  144.0625  133.0349  149.9494 C   0  0  0  0  0  0  0  0  0  0  0  0
  144.5758  134.3269  150.6050 C   0  0  0  0  0  0  0  0  0  0  0  0
  145.4874  137.2951  154.5592 H   0  0  0  0  0  0  0  0  0  0  0  0
  144.4016  138.2608  153.5528 H   0  0  0  0  0  0  0  0  0  0  0  0
  146.0528  137.9711  153.0247 H   0  0  0  0  0  0  0  0  0  0  0  0
  143.5546  135.5651  154.4393 H   0  0  0  0  0  0  0  0  0  0  0  0
  143.1307  134.8928  152.8631 H   0  0  0  0  0  0  0  0  0  0  0  0
  142.6954  136.5461  153.2576 H   0  0  0  0  0  0  0  0  0  0  0  0
  146.6086  135.7324  152.0285 H   0  0  0  0  0  0  0  0  0  0  0  0
  146.2728  135.6737  154.7733 H   0  0  0  0  0  0  0  0  0  0  0  0
  146.3601  133.9690  154.3566 H   0  0  0  0  0  0  0  0  0  0  0  0
  148.3860  135.2617  152.9202 H   0  0  0  0  0  0  0  0  0  0  0  0
  151.0178  134.2654  154.7982 H   0  0  0  0  0  0  0  0  0  0  0  0
  150.5422  135.1615  153.3929 H   0  0  0  0  0  0  0  0  0  0  0  0
  150.6060  137.4379  153.3295 H   0  0  0  0  0  0  0  0  0  0  0  0
  151.5978  139.5635  154.1638 H   0  0  0  0  0  0  0  0  0  0  0  0
  144.6949  133.4829  152.5557 H   0  0  0  0  0  0  0  0  0  0  0  0
  147.2617  133.5257  150.9379 H   0  0  0  0  0  0  0  0  0  0  0  0
  147.0573  132.7953  152.5111 H   0  0  0  0  0  0  0  0  0  0  0  0
  146.8664  131.1114  150.6825 H   0  0  0  0  0  0  0  0  0  0  0  0
  145.3999  131.2055  151.6268 H   0  0  0  0  0  0  0  0  0  0  0  0
  145.8751  132.5005  148.8986 H   0  0  0  0  0  0  0  0  0  0  0  0
  144.8284  131.1409  149.2279 H   0  0  0  0  0  0  0  0  0  0  0  0
  143.5313  133.2713  149.0270 H   0  0  0  0  0  0  0  0  0  0  0  0
  143.3384  132.5521  150.6070 H   0  0  0  0  0  0  0  0  0  0  0  0
  143.7299  134.9801  150.8188 H   0  0  0  0  0  0  0  0  0  0  0  0
  145.2065  134.8507  149.8871 H   0  0  0  0  0  0  0  0  0  0  0  0
  144.5533  136.5944  151.8851 H   0  0  0  0  0  0  0  0  0  0  0  0
  1  2  1  0  0  0  0
  1 24  1  0  0  0  0
  1 25  1  0  0  0  0
  1 26  1  0  0  0  0
  2  3  1  0  0  0  0
  2  4  1  0  0  0  0
  2 49  1  0  0  0  0
  3 27  1  0  0  0  0
  3 28  1  0  0  0  0
  3 29  1  0  0  0  0
  4  5  1  0  0  0  0
  4 18  1  0  0  0  0
  4 30  1  0  0  0  0
  5  6  1  0  0  0  0
  5 31  1  0  0  0  0
  5 32  1  0  0  0  0
  6  7  1  0  0  0  0
  6 33  1  0  0  0  0
  7  8  2  0  0  0  0
  7  9  1  0  0  0  0
  9 10  1  0  0  0  0
  9 34  1  0  0  0  0
  9 35  1  0  0  0  0
 10 16  1  0  0  0  0
 10 11  1  0  0  0  0
 11 12  2  0  0  0  0
 11 36  1  0  0  0  0
 12 13  1  0  0  0  0
 12 37  1  0  0  0  0
 13 14  2  0  0  0  0
 13 15  1  0  0  0  0
 15 16  1  0  0  0  0
 16 17  2  0  0  0  0
 18 23  1  0  0  0  0
 18 19  1  0  0  0  0
 18 38  1  0  0  0  0
 19 20  1  0  0  0  0
 19 39  1  0  0  0  0
 19 40  1  0  0  0  0
 20 21  1  0  0  0  0
 20 41  1  0  0  0  0
 20 42  1  0  0  0  0
 21 22  1  0  0  0  0
 21 43  1  0  0  0  0
 21 44  1  0  0  0  0
 22 23  1  0  0  0  0
 22 45  1  0  0  0  0
 22 46  1  0  0  0  0
 23 47  1  0  0  0  0
 23 48  1  0  0  0  0
M  CHG  1   2   1
M  CHG  1  15  -1
M  END
> <s_m_source_file>
AV-unprocessed.smi

> <i_m_source_file_index>
1552

> <i_lp_mmshare_version>
43012

> <i_f3d_flags>
0

> <s_epik_input>
W0NIMl0xW0NIMl1bQ0gyXVtDSDJdW0NIMl1bQ0hdMVtDQEhdKE4oW0NIM10pW0NIM10pW0NIMl1bTkhdQyg9TylbQ0gyXW4yW2NIXVtjSF1jKD1PKVtuSF1jMj1P

> <s_epik_cmdline>
J2VwaWtfcHl0aG9uJywgJy1waCcsICc3LjAnLCAnLXRuJywgJzgnLCAnLW1hJywgJzIwMCcsICctbWV0YWxfYmluZGluZycsICctaW1hZScsICc8aW5maWxlLm1hZT4nLCAnLW9tYWUnLCAnPG91dGZpbGUubWFlPic=

> <r_lp_tautomer_probability>
1

> <r_epik_Ionization_Penalty>
2.93575

> <r_epik_Ionization_Penalty_Charging>
0.00331645

> <r_epik_Ionization_Penalty_Neutral>
2.93244

> <r_epik_State_Penalty>
2.92822

> <r_epik_Charging_Adjusted_Penalty>
2.93154

> <i_epik_Tot_Q>
0

> <i_epik_Tot_abs_Q>
2

> <r_epik_Metal_State_Penalty>
0.448509

> <b_epik_Metal_Only>
1

> <s_lp_Force_Field>
OPLS_2005

> <r_lp_Energy>
36.4882

> <b_lp_Chiralities_Consistent>
1

> <s_lp_Variant>
AV-unprocessed.smi:1552-4

> <Gold.Version>
5.8.1

> <Gold.Id.Protein>
6NUR|6NUR_protein|mol2

> <Gold.PLP.Fitness>
43.4744

> <Gold.PLP.PLP>
-35.8810

> <Gold.PLP.part.hbond>
-2.8333

> <Gold.PLP.part.metal>
0.0000

> <Gold.PLP.part.buried>
-2.9895

> <Gold.PLP.part.nonpolar>
-29.7664

> <Gold.PLP.part.repulsive>
0.0285

> <Gold.PLP.ligand.clash>
0.0000

> <Gold.PLP.ligand.torsion>
1.2567

> <Gold.PLP.Chemscore.Hbond>
2.0000

> <Gold.PLP.Chemscore.CHOScore>
1.1789

> <Gold.PLP.Chemscore.Metal>
0.0000

> <Gold.Chemscore.Hbonds>
donor molecule, donor type, donor heavy atom, donor atom, acceptor molecule, acceptor atom, score
      L1  H     6    33       P1  7948  0.96
      P1  H  7997  8009       L1    14  1.00
      L1  C    11    36       P1  7948  0.49
      L1  C    11    36       P1  7949  0.61

> <Gold.PLP.Chemscore.Internal.Correction>
0.5700

> <Gold.Rescore>
     Score         DG    S(hbond)    S(metal)    S(lipo)     H(rot)  DE(clash)    DE(int)     intcor
     14.73     -16.21       2.27        0.00      80.04       2.43       0.16       1.32       ----

> <Gold.Chemscore.Fitness>
14.7317

> <Gold.Chemscore.DG>
-16.2137

> <Gold.Chemscore.ZeroCoef>
-5.4800

> <Gold.Chemscore.Hbond>
2.2728

> <Gold.Chemscore.Metal>
0.0000

> <Gold.Chemscore.Lipo>
80.0383

> <Gold.Chemscore.Internal_Hbond>
0.0000

> <Gold.Chemscore.DEClash>
0.1625

> <Gold.Chemscore.DEInternal>
1.3195

> <Gold.Chemscore.Rot>
2.4305

> <Gold.Chemscore.Internal.Correction>
   9.000000E+99

> <Gold.Chemscore.Hbonds>
donor molecule, donor type, donor heavy atom, donor atom, acceptor molecule, acceptor atom, score
      L1  H     6    33       P1  7948  0.81
      P1  H  7997  8009       L1    14  0.98

> <Gold.Chemscore.Hbond.Weighted>
-7.5913

> <Gold.Chemscore.Metal.Weighted>
-0.0000

> <Gold.Chemscore.Lipo.Weighted>
-9.3645

> <Gold.Chemscore.Internal_Hbond.Weighted>
0.0000

> <Gold.Chemscore.DEClash.Weighted>
0.1625

> <Gold.Chemscore.DEInternal.Weighted>
1.3195

> <Gold.Chemscore.Rot.Weighted>
6.2220

> <Gold.Chemscore.Internal.Correction.Weighted>
   9.000000E+99

> <Gold.Protein.RotatedTorsions>
[ 6907 6896 6895 6894 ] final -103.88 input  -60.11 | X-H torsion
[ 7974 7965 7964 7962 ] final -152.29 input  175.53 | X-H torsion
[ 8008 7997 7996 7995 ] final -153.72 input   59.86 | X-H torsion
[ 10167 10162 10161 10158 ] final  171.55 input  -65.29 | X-H torsion
[ 10718 10713 10712 10709 ] final  -11.53 input   66.30 | X-H torsion
[ 10763 10752 10751 10750 ] final  156.39 input  -60.55 | X-H torsion
[ 11005 11000 10999 10996 ] final    9.20 input  -57.11 | X-H torsion

> <Gold.Protein.ActiveResidues>
 VAL166  LYS551  ARG553  GLY616  TRP617  ASP618  TYR619  PRO620  LYS621  CYS622 
 ASP623  PHE694  ASN695  SER759  ASP760  ASP761  ALA762  ILE779  LEU786  VAL792 
 PHE793  MET794  SER795  GLU796  ALA797  LYS798  CYS799  TRP800  GLU811  SER814 

> <Gold.Protein.RotatedAtoms>
  150.7261  134.0362  159.3749 H   0  0  0  0  0  0  0  0  0  0  0  0  # atno 6907 bound_to 6896
  151.8333  135.0612  160.0449 H   0  0  0  0  0  0  0  0  0  0  0  0  # atno 6908 bound_to 6896
  152.2917  133.5532  159.5598 H   0  0  0  0  0  0  0  0  0  0  0  0  # atno 6909 bound_to 6896
  144.7802  140.4683  143.5844 H   0  0  0  0  0  0  0  0  0  0  0  0  # atno 7974 bound_to 7965
  155.6752  140.0738  157.2505 H   0  0  0  0  0  0  0  0  0  0  0  0  # atno 8008 bound_to 7997
  154.4116  140.1692  156.1974 H   0  0  0  0  0  0  0  0  0  0  0  0  # atno 8009 bound_to 7997
  155.9582  140.3372  155.6471 H   0  0  0  0  0  0  0  0  0  0  0  0  # atno 8010 bound_to 7997
  139.5050  144.3473  151.9958 H   0  0  0  0  0  0  0  0  0  0  0  0  # atno 10167 bound_to 10162
  156.6577  130.4973  149.6040 H   0  0  0  0  0  0  0  0  0  0  0  0  # atno 10718 bound_to 10713
  154.1836  135.2798  155.3044 H   0  0  0  0  0  0  0  0  0  0  0  0  # atno 10763 bound_to 10752
  154.5983  135.5537  153.7352 H   0  0  0  0  0  0  0  0  0  0  0  0  # atno 10764 bound_to 10752
  153.0131  135.6385  154.1975 H   0  0  0  0  0  0  0  0  0  0  0  0  # atno 10765 bound_to 10752
  140.5284  134.0490  155.7866 H   0  0  0  0  0  0  0  0  0  0  0  0  # atno 11005 bound_to 11000
  145.6070  139.1509  143.3097 LP  0  0  0  0  0  0  0  0  0  0  0  0  # atno 17320 bound_to 7965
  146.2006  140.6189  142.9104 LP  0  0  0  0  0  0  0  0  0  0  0  0  # atno 17321 bound_to 7965
  140.2910  144.3754  150.6088 LP  0  0  0  0  0  0  0  0  0  0  0  0  # atno 17342 bound_to 10162
  140.5946  143.2167  151.7188 LP  0  0  0  0  0  0  0  0  0  0  0  0  # atno 17343 bound_to 10162
  156.2035  130.6634  151.1193 LP  0  0  0  0  0  0  0  0  0  0  0  0  # atno 17370 bound_to 10713
  157.7120  131.0729  150.6467 LP  0  0  0  0  0  0  0  0  0  0  0  0  # atno 17371 bound_to 10713
  141.1295  133.9326  157.2565 LP  0  0  0  0  0  0  0  0  0  0  0  0  # atno 17394 bound_to 11000
  139.9567  135.0164  156.9149 LP  0  0  0  0  0  0  0  0  0  0  0  0  # atno 17395 bound_to 11000

$$$$
