AV-unprocessed.smi:2289|AV-procd|sdf|9209|dock6
  -GOLD-   2272012423D 1   1.00000     0.00000
 Structure written by MMmdl.
 40 41  0  0  0  0  0  0  0  0  1 V2000
  146.1408  142.8308  153.8127 C   0  0  0  0  0  0  0  0  0  0  0  0
  147.0850  141.9209  154.5783 C   0  0  0  0  0  0  0  0  0  0  0  0
  148.0647  141.2843  153.8111 N   0  0  0  0  0  0  0  0  0  0  0  0
  148.9148  140.4934  154.3796 C   0  0  0  0  0  0  0  0  0  0  0  0
  148.8863  140.2482  155.7629 N   0  0  0  0  0  0  0  0  0  0  0  0
  149.9194  139.3371  156.2857 C   0  0  0  0  0  0  0  0  0  0  0  0
  151.2874  140.0389  156.4466 C   0  0  1  0  0  0  0  0  0  0  0  0
  151.8204  140.2835  155.1610 O   0  0  0  0  0  0  0  0  0  0  0  0
  151.1509  141.3951  157.1711 C   0  0  0  0  0  0  0  0  0  0  0  0
  151.9598  141.4746  158.4630 C   0  0  0  0  0  0  0  0  0  0  0  0
  152.6099  140.2995  158.9017 C   0  0  0  0  0  0  0  0  0  0  0  0
  153.3746  140.2947  160.0813 C   0  0  0  0  0  0  0  0  0  0  0  0
  153.4926  141.4706  160.8400 C   0  0  0  0  0  0  0  0  0  0  0  0
  152.8426  142.6452  160.4195 C   0  0  0  0  0  0  0  0  0  0  0  0
  152.0690  142.6665  159.2343 C   0  0  0  0  0  0  0  0  0  0  0  0
  151.3648  143.9627  158.8296 C   0  0  0  0  0  0  0  0  0  0  0  0
  151.6336  144.9572  159.6767 F   0  0  0  0  0  0  0  0  0  0  0  0
  151.7590  144.3515  157.6179 F   0  0  0  0  0  0  0  0  0  0  0  0
  150.0441  143.7808  158.8263 F   0  0  0  0  0  0  0  0  0  0  0  0
  147.9653  140.8302  156.5843 C   0  0  0  0  0  0  0  0  0  0  0  0
  147.9493  140.6145  157.7974 O   0  0  0  0  0  0  0  0  0  0  0  0
  147.0021  141.7257  155.9229 C   0  0  0  0  0  0  0  0  0  0  0  0
  145.9568  142.3923  156.8088 C   0  0  0  0  0  0  0  0  0  0  0  0
  145.1153  142.4691  153.8902 H   0  0  0  0  0  0  0  0  0  0  0  0
  146.4015  142.8739  152.7545 H   0  0  0  0  0  0  0  0  0  0  0  0
  146.1838  143.8462  154.2076 H   0  0  0  0  0  0  0  0  0  0  0  0
  149.7025  139.9767  153.8283 H   0  0  0  0  0  0  0  0  0  0  0  0
  149.6149  138.8697  157.2243 H   0  0  0  0  0  0  0  0  0  0  0  0
  150.0198  138.4973  155.5951 H   0  0  0  0  0  0  0  0  0  0  0  0
  151.9683  139.3926  157.0014 H   0  0  0  0  0  0  0  0  0  0  0  0
  152.7622  140.2195  155.2071 H   0  0  0  0  0  0  0  0  0  0  0  0
  151.3720  142.2113  156.4863 H   0  0  0  0  0  0  0  0  0  0  0  0
  150.1087  141.5420  157.4576 H   0  0  0  0  0  0  0  0  0  0  0  0
  152.5237  139.3884  158.3277 H   0  0  0  0  0  0  0  0  0  0  0  0
  153.8685  139.3897  160.4035 H   0  0  0  0  0  0  0  0  0  0  0  0
  154.0782  141.4717  161.7477 H   0  0  0  0  0  0  0  0  0  0  0  0
  152.9452  143.5318  161.0271 H   0  0  0  0  0  0  0  0  0  0  0  0
  146.4429  143.0317  157.5461 H   0  0  0  0  0  0  0  0  0  0  0  0
  145.3799  141.6374  157.3437 H   0  0  0  0  0  0  0  0  0  0  0  0
  145.2512  143.0077  156.2533 H   0  0  0  0  0  0  0  0  0  0  0  0
  1  2  1  0  0  0  0
  1 24  1  0  0  0  0
  1 25  1  0  0  0  0
  1 26  1  0  0  0  0
  2 22  2  0  0  0  0
  2  3  1  0  0  0  0
  3  4  2  0  0  0  0
  4  5  1  0  0  0  0
  4 27  1  0  0  0  0
  5  6  1  0  0  0  0
  5 20  1  0  0  0  0
  6  7  1  0  0  0  0
  6 28  1  0  0  0  0
  6 29  1  0  0  0  0
  7  8  1  0  0  0  0
  7  9  1  0  0  0  0
  7 30  1  0  0  0  0
  8 31  1  0  0  0  0
  9 10  1  0  0  0  0
  9 32  1  0  0  0  0
  9 33  1  0  0  0  0
 10 15  1  0  0  0  0
 10 11  2  0  0  0  0
 11 12  1  0  0  0  0
 11 34  1  0  0  0  0
 12 13  2  0  0  0  0
 12 35  1  0  0  0  0
 13 14  1  0  0  0  0
 13 36  1  0  0  0  0
 14 15  2  0  0  0  0
 14 37  1  0  0  0  0
 15 16  1  0  0  0  0
 16 17  1  0  0  0  0
 16 18  1  0  0  0  0
 16 19  1  0  0  0  0
 20 21  2  0  0  0  0
 20 22  1  0  0  0  0
 22 23  1  0  0  0  0
 23 38  1  0  0  0  0
 23 39  1  0  0  0  0
 23 40  1  0  0  0  0
M  END
> <s_m_source_file>
AV-unprocessed.smi

> <i_m_source_file_index>
2289

> <i_lp_mmshare_version>
43012

> <i_f3d_flags>
0

> <s_epik_input>
W0NIM11jMW5bY0hdbihjKD1PKWMxW0NIM10pW0NIMl1bQ0BIXShbT0hdKVtDSDJdYzJbY0hdW2NIXVtjSF1bY0hdYzJDKEYpKEYpRg==

> <s_epik_cmdline>
J2VwaWtfcHl0aG9uJywgJy1waCcsICc3LjAnLCAnLXRuJywgJzgnLCAnLW1hJywgJzIwMCcsICctbWV0YWxfYmluZGluZycsICctaW1hZScsICc8aW5maWxlLm1hZT4nLCAnLW9tYWUnLCAnPG91dGZpbGUubWFlPic=

> <r_lp_tautomer_probability>
1

> <r_epik_Ionization_Penalty>
8.92636e-05

> <r_epik_Ionization_Penalty_Charging>
8.63033e-08

> <r_epik_Ionization_Penalty_Neutral>
8.91773e-05

> <r_epik_State_Penalty>
-0

> <r_epik_Charging_Adjusted_Penalty>
8.63033e-08

> <i_epik_Tot_Q>
0

> <i_epik_Tot_abs_Q>
0

> <r_epik_Metal_State_Penalty>
-0

> <b_epik_Metal_Only>
0

> <s_lp_Force_Field>
OPLS_2005

> <r_lp_Energy>
23.2294

> <b_lp_Chiralities_Consistent>
1

> <s_lp_Variant>
AV-unprocessed.smi:2289-2

> <Gold.Version>
5.8.1

> <Gold.Id.Protein>
6NUR|6NUR_protein|mol2

> <Gold.PLP.Fitness>
53.3184

> <Gold.PLP.PLP>
-51.4824

> <Gold.PLP.part.hbond>
-1.4228

> <Gold.PLP.part.metal>
0.0000

> <Gold.PLP.part.buried>
-6.4903

> <Gold.PLP.part.nonpolar>
-43.6675

> <Gold.PLP.part.repulsive>
0.1851

> <Gold.PLP.ligand.clash>
1.3471

> <Gold.PLP.ligand.torsion>
1.1284

> <Gold.PLP.Chemscore.Hbond>
0.8000

> <Gold.PLP.Chemscore.CHOScore>
0.5274

> <Gold.PLP.Chemscore.Metal>
0.0000

> <Gold.Chemscore.Hbonds>
donor molecule, donor type, donor heavy atom, donor atom, acceptor molecule, acceptor atom, score
      P1  H  7989  7998       L1     8  0.79
      L1  C     4    27       P1  7957  0.50

> <Gold.PLP.Chemscore.Internal.Correction>
1.4577

> <Gold.Rescore>
     Score         DG    S(hbond)    S(metal)    S(lipo)     H(rot)  DE(clash)    DE(int)     intcor
     10.76     -12.94       0.41        0.00     103.80       2.37       0.24       1.94       ----

> <Gold.Chemscore.Fitness>
10.7614

> <Gold.Chemscore.DG>
-12.9405

> <Gold.Chemscore.ZeroCoef>
-5.4800

> <Gold.Chemscore.Hbond>
0.4128

> <Gold.Chemscore.Metal>
0.0000

> <Gold.Chemscore.Lipo>
103.7970

> <Gold.Chemscore.Internal_Hbond>
0.0000

> <Gold.Chemscore.DEClash>
0.2424

> <Gold.Chemscore.DEInternal>
1.9366

> <Gold.Chemscore.Rot>
2.3681

> <Gold.Chemscore.Internal.Correction>
   9.000000E+99

> <Gold.Chemscore.Hbonds>
donor molecule, donor type, donor heavy atom, donor atom, acceptor molecule, acceptor atom, score
      P1  H  7989  7998       L1     8  0.18

> <Gold.Chemscore.Hbond.Weighted>
-1.3787

> <Gold.Chemscore.Metal.Weighted>
-0.0000

> <Gold.Chemscore.Lipo.Weighted>
-12.1442

> <Gold.Chemscore.Internal_Hbond.Weighted>
0.0000

> <Gold.Chemscore.DEClash.Weighted>
0.2424

> <Gold.Chemscore.DEInternal.Weighted>
1.9366

> <Gold.Chemscore.Rot.Weighted>
6.0624

> <Gold.Chemscore.Internal.Correction.Weighted>
   9.000000E+99

> <Gold.Protein.RotatedTorsions>
[ 6907 6896 6895 6894 ] final  176.79 input  -60.11 | X-H torsion
[ 7974 7965 7964 7962 ] final  165.99 input  175.53 | X-H torsion
[ 8008 7997 7996 7995 ] final   74.76 input   59.86 | X-H torsion
[ 10167 10162 10161 10158 ] final -118.46 input  -65.29 | X-H torsion
[ 10718 10713 10712 10709 ] final  -28.95 input   66.30 | X-H torsion
[ 10763 10752 10751 10750 ] final   36.77 input  -60.55 | X-H torsion
[ 11005 11000 10999 10996 ] final -104.60 input  -57.11 | X-H torsion

> <Gold.Protein.ActiveResidues>
 VAL166  LYS551  ARG553  GLY616  TRP617  ASP618  TYR619  PRO620  LYS621  CYS622 
 ASP623  PHE694  ASN695  SER759  ASP760  ASP761  ALA762  ILE779  LEU786  VAL792 
 PHE793  MET794  SER795  GLU796  ALA797  LYS798  CYS799  TRP800  GLU811  SER814 

> <Gold.Protein.RotatedAtoms>
  151.7144  133.3313  159.3298 H   0  0  0  0  0  0  0  0  0  0  0  0  # atno 6907 bound_to 6896
  150.7680  134.6503  159.6294 H   0  0  0  0  0  0  0  0  0  0  0  0  # atno 6908 bound_to 6896
  152.3691  134.6763  160.0234 H   0  0  0  0  0  0  0  0  0  0  0  0  # atno 6909 bound_to 6896
  144.7480  139.8550  143.6375 H   0  0  0  0  0  0  0  0  0  0  0  0  # atno 7974 bound_to 7965
  155.8031  140.3475  155.5414 H   0  0  0  0  0  0  0  0  0  0  0  0  # atno 8008 bound_to 7997
  155.8518  140.0957  157.1690 H   0  0  0  0  0  0  0  0  0  0  0  0  # atno 8009 bound_to 7997
  154.4008  140.1375  156.3840 H   0  0  0  0  0  0  0  0  0  0  0  0  # atno 8010 bound_to 7997
  140.0573  143.5002  152.2050 H   0  0  0  0  0  0  0  0  0  0  0  0  # atno 10167 bound_to 10162
  156.4187  130.4422  149.7199 H   0  0  0  0  0  0  0  0  0  0  0  0  # atno 10718 bound_to 10713
  153.0063  135.6296  154.2039 H   0  0  0  0  0  0  0  0  0  0  0  0  # atno 10763 bound_to 10752
  154.1782  135.2815  155.3062 H   0  0  0  0  0  0  0  0  0  0  0  0  # atno 10764 bound_to 10752
  154.5855  135.5634  153.7287 H   0  0  0  0  0  0  0  0  0  0  0  0  # atno 10765 bound_to 10752
  141.1093  133.8737  157.1631 H   0  0  0  0  0  0  0  0  0  0  0  0  # atno 11005 bound_to 11000
  146.1389  139.4441  143.0121 LP  0  0  0  0  0  0  0  0  0  0  0  0  # atno 17320 bound_to 7965
  145.7049  141.0124  143.1484 LP  0  0  0  0  0  0  0  0  0  0  0  0  # atno 17321 bound_to 7965
  139.5915  144.7552  151.3388 LP  0  0  0  0  0  0  0  0  0  0  0  0  # atno 17342 bound_to 10162
  140.7188  143.7192  150.7709 LP  0  0  0  0  0  0  0  0  0  0  0  0  # atno 17343 bound_to 10162
  156.4148  130.7740  151.2755 LP  0  0  0  0  0  0  0  0  0  0  0  0  # atno 17370 bound_to 10713
  157.7508  131.0200  150.3692 LP  0  0  0  0  0  0  0  0  0  0  0  0  # atno 17371 bound_to 10713
  139.9978  135.0040  157.0122 LP  0  0  0  0  0  0  0  0  0  0  0  0  # atno 17394 bound_to 11000
  140.4819  134.1280  155.7218 LP  0  0  0  0  0  0  0  0  0  0  0  0  # atno 17395 bound_to 11000

$$$$
