AV-unprocessed.smi:1223|AV-procd|sdf|5127|dock3
  -GOLD-   22720 4183D 1   1.00000     0.00000
 Structure written by MMmdl.
 33 34  0  0  0  0  0  0  0  0  1 V2000
  149.5037  141.0290  157.9702 O   0  0  0  0  0  0  0  0  0  0  0  0
  150.5247  141.0814  157.2848 C   0  0  0  0  0  0  0  0  0  0  0  0
  151.8651  141.4309  157.9336 C   0  0  0  0  0  0  0  0  0  0  0  0
  151.8390  142.7629  158.5128 N   0  0  0  0  0  0  0  0  0  0  0  0
  152.1530  143.1427  159.8013 C   0  0  0  0  0  0  0  0  0  0  0  0
  151.9950  144.4970  159.8757 C   0  0  0  0  0  0  0  0  0  0  0  0
  151.5762  144.8610  158.5654 C   0  0  0  0  0  0  0  0  0  0  0  0
  151.4818  143.8213  157.7525 N   0  0  0  0  0  0  0  0  0  0  0  0
  150.5427  140.8501  155.9623 N   0  0  0  0  0  0  0  0  0  0  0  0
  149.3953  140.4652  155.1405 C   0  0  1  0  0  0  0  0  0  0  0  0
  148.8166  141.7048  154.4225 C   0  0  0  0  0  0  0  0  0  0  0  0
  147.3500  141.5482  153.9893 C   0  0  0  0  0  0  0  0  0  0  0  0
  147.0980  140.4396  152.9565 C   0  0  0  0  0  0  0  0  0  0  0  0
  147.3763  139.0239  153.4906 C   0  0  0  0  0  0  0  0  0  0  0  0
  148.7966  138.6969  153.4965 N   0  0  0  0  0  0  0  0  0  0  0  0
  149.7655  139.3016  154.2006 C   0  0  0  0  0  0  0  0  0  0  0  0
  150.9358  138.9354  154.0931 O   0  0  0  0  0  0  0  0  0  0  0  0
  152.1047  140.6984  158.7060 H   0  0  0  0  0  0  0  0  0  0  0  0
  152.6633  141.3887  157.1913 H   0  0  0  0  0  0  0  0  0  0  0  0
  152.4626  142.4255  160.5473 H   0  0  0  0  0  0  0  0  0  0  0  0
  152.1560  145.1310  160.7347 H   0  0  0  0  0  0  0  0  0  0  0  0
  151.3397  145.8430  158.1831 H   0  0  0  0  0  0  0  0  0  0  0  0
  151.4325  140.9104  155.4875 H   0  0  0  0  0  0  0  0  0  0  0  0
  148.6362  140.0753  155.8213 H   0  0  0  0  0  0  0  0  0  0  0  0
  148.8663  142.5677  155.0879 H   0  0  0  0  0  0  0  0  0  0  0  0
  149.4357  141.9627  153.5619 H   0  0  0  0  0  0  0  0  0  0  0  0
  146.7281  141.3750  154.8686 H   0  0  0  0  0  0  0  0  0  0  0  0
  147.0110  142.4960  153.5697 H   0  0  0  0  0  0  0  0  0  0  0  0
  146.0508  140.4921  152.6572 H   0  0  0  0  0  0  0  0  0  0  0  0
  147.6766  140.6252  152.0506 H   0  0  0  0  0  0  0  0  0  0  0  0
  146.9489  138.8858  154.4846 H   0  0  0  0  0  0  0  0  0  0  0  0
  146.8858  138.2963  152.8437 H   0  0  0  0  0  0  0  0  0  0  0  0
  149.0781  137.9371  152.8938 H   0  0  0  0  0  0  0  0  0  0  0  0
  1  2  2  0  0  0  0
  2  3  1  0  0  0  0
  2  9  1  0  0  0  0
  3  4  1  0  0  0  0
  3 18  1  0  0  0  0
  3 19  1  0  0  0  0
  4  8  1  0  0  0  0
  4  5  1  0  0  0  0
  5  6  2  0  0  0  0
  5 20  1  0  0  0  0
  6  7  1  0  0  0  0
  6 21  1  0  0  0  0
  7  8  2  0  0  0  0
  7 22  1  0  0  0  0
  9 10  1  0  0  0  0
  9 23  1  0  0  0  0
 10 16  1  0  0  0  0
 10 11  1  0  0  0  0
 10 24  1  0  0  0  0
 11 12  1  0  0  0  0
 11 25  1  0  0  0  0
 11 26  1  0  0  0  0
 12 13  1  0  0  0  0
 12 27  1  0  0  0  0
 12 28  1  0  0  0  0
 13 14  1  0  0  0  0
 13 29  1  0  0  0  0
 13 30  1  0  0  0  0
 14 15  1  0  0  0  0
 14 31  1  0  0  0  0
 14 32  1  0  0  0  0
 15 16  1  0  0  0  0
 15 33  1  0  0  0  0
 16 17  2  0  0  0  0
M  END
> <s_m_source_file>
AV-unprocessed.smi

> <i_m_source_file_index>
1223

> <i_lp_mmshare_version>
43012

> <i_f3d_flags>
0

> <s_epik_input>
bjFbY0hdW2NIXVtjSF1uMVtDSDJdQyg9TylbTkhdW0NAQEhdMltDSDJdW0NIMl1bQ0gyXVtDSDJdW05IXUMyPU8=

> <s_epik_cmdline>
J2VwaWtfcHl0aG9uJywgJy1waCcsICc3LjAnLCAnLXRuJywgJzgnLCAnLW1hJywgJzIwMCcsICctbWV0YWxfYmluZGluZycsICctaW1hZScsICc8aW5maWxlLm1hZT4nLCAnLW9tYWUnLCAnPG91dGZpbGUubWFlPic=

> <r_lp_tautomer_probability>
1

> <r_epik_Ionization_Penalty>
1.16214e-05

> <r_epik_Ionization_Penalty_Charging>
0

> <r_epik_Ionization_Penalty_Neutral>
1.16214e-05

> <r_epik_State_Penalty>
-0

> <r_epik_Charging_Adjusted_Penalty>
0

> <i_epik_Tot_Q>
0

> <i_epik_Tot_abs_Q>
0

> <r_epik_Metal_State_Penalty>
-0

> <b_epik_Metal_Only>
0

> <s_lp_Force_Field>
OPLS_2005

> <r_lp_Energy>
10.4026

> <b_lp_Chiralities_Consistent>
1

> <s_lp_Variant>
AV-unprocessed.smi:1223-2

> <Gold.Version>
5.8.1

> <Gold.Id.Protein>
6NUR|6NUR_protein|mol2

> <Gold.PLP.Fitness>
40.0752

> <Gold.PLP.PLP>
-35.6626

> <Gold.PLP.part.hbond>
-2.9822

> <Gold.PLP.part.metal>
0.0000

> <Gold.PLP.part.buried>
-1.5159

> <Gold.PLP.part.nonpolar>
-31.1802

> <Gold.PLP.part.repulsive>
0.5309

> <Gold.PLP.ligand.clash>
0.0000

> <Gold.PLP.ligand.torsion>
0.2773

> <Gold.PLP.Chemscore.Hbond>
1.6459

> <Gold.PLP.Chemscore.CHOScore>
0.0000

> <Gold.PLP.Chemscore.Metal>
0.0000

> <Gold.Chemscore.Hbonds>
donor molecule, donor type, donor heavy atom, donor atom, acceptor molecule, acceptor atom, score
      L1  H    15    33       P1  7948  1.00
      P1  H  7989  7998       L1    17  0.53

> <Gold.PLP.Chemscore.Internal.Correction>
0.0294

> <Gold.Rescore>
     Score         DG    S(hbond)    S(metal)    S(lipo)     H(rot)  DE(clash)    DE(int)     intcor
     14.01     -14.30       1.03        0.00      80.47       1.58       0.10       0.18       ----

> <Gold.Chemscore.Fitness>
14.0073

> <Gold.Chemscore.DG>
-14.2954

> <Gold.Chemscore.ZeroCoef>
-5.4800

> <Gold.Chemscore.Hbond>
1.0311

> <Gold.Chemscore.Metal>
0.0000

> <Gold.Chemscore.Lipo>
80.4653

> <Gold.Chemscore.Internal_Hbond>
0.0000

> <Gold.Chemscore.DEClash>
0.1047

> <Gold.Chemscore.DEInternal>
0.1834

> <Gold.Chemscore.Rot>
1.5792

> <Gold.Chemscore.Internal.Correction>
   9.000000E+99

> <Gold.Chemscore.Hbonds>
donor molecule, donor type, donor heavy atom, donor atom, acceptor molecule, acceptor atom, score
      L1  H    15    33       P1  7948  0.98
      P1  H  7989  7998       L1    17  0.05

> <Gold.Chemscore.Hbond.Weighted>
-3.4438

> <Gold.Chemscore.Metal.Weighted>
-0.0000

> <Gold.Chemscore.Lipo.Weighted>
-9.4144

> <Gold.Chemscore.Internal_Hbond.Weighted>
0.0000

> <Gold.Chemscore.DEClash.Weighted>
0.1047

> <Gold.Chemscore.DEInternal.Weighted>
0.1834

> <Gold.Chemscore.Rot.Weighted>
4.0428

> <Gold.Chemscore.Internal.Correction.Weighted>
   9.000000E+99

> <Gold.Protein.RotatedTorsions>
[ 6907 6896 6895 6894 ] final -126.34 input  -60.11 | X-H torsion
[ 7974 7965 7964 7962 ] final -140.59 input  175.53 | X-H torsion
[ 8008 7997 7996 7995 ] final -139.03 input   59.86 | X-H torsion
[ 10167 10162 10161 10158 ] final  -48.07 input  -65.29 | X-H torsion
[ 10718 10713 10712 10709 ] final  -97.97 input   66.30 | X-H torsion
[ 10763 10752 10751 10750 ] final   69.43 input  -60.55 | X-H torsion
[ 11005 11000 10999 10996 ] final -169.96 input  -57.11 | X-H torsion

> <Gold.Protein.ActiveResidues>
 VAL166  LYS551  ARG553  GLY616  TRP617  ASP618  TYR619  PRO620  LYS621  CYS622 
 ASP623  PHE694  ASN695  SER759  ASP760  ASP761  ALA762  ILE779  LEU786  VAL792 
 PHE793  MET794  SER795  GLU796  ALA797  LYS798  CYS799  TRP800  GLU811  SER814 

> <Gold.Protein.RotatedAtoms>
  150.8959  133.7181  159.2891 H   0  0  0  0  0  0  0  0  0  0  0  0  # atno 6907 bound_to 6896
  151.4715  135.1045  159.9762 H   0  0  0  0  0  0  0  0  0  0  0  0  # atno 6908 bound_to 6896
  152.4848  133.8298  159.7153 H   0  0  0  0  0  0  0  0  0  0  0  0  # atno 6909 bound_to 6896
  144.8585  140.6182  143.5343 H   0  0  0  0  0  0  0  0  0  0  0  0  # atno 7974 bound_to 7965
  155.4382  140.0530  157.3013 H   0  0  0  0  0  0  0  0  0  0  0  0  # atno 8008 bound_to 7997
  154.4830  140.2089  155.9677 H   0  0  0  0  0  0  0  0  0  0  0  0  # atno 8009 bound_to 7997
  156.1233  140.3184  155.8245 H   0  0  0  0  0  0  0  0  0  0  0  0  # atno 8010 bound_to 7997
  140.6747  143.2756  151.4017 H   0  0  0  0  0  0  0  0  0  0  0  0  # atno 10167 bound_to 10162
  156.0096  130.5218  150.6454 H   0  0  0  0  0  0  0  0  0  0  0  0  # atno 10718 bound_to 10713
  153.0286  135.5211  154.7286 H   0  0  0  0  0  0  0  0  0  0  0  0  # atno 10763 bound_to 10752
  154.6320  135.2901  155.0207 H   0  0  0  0  0  0  0  0  0  0  0  0  # atno 10764 bound_to 10752
  154.1155  135.6615  153.4945 H   0  0  0  0  0  0  0  0  0  0  0  0  # atno 10765 bound_to 10752
  140.5248  134.5674  157.5058 H   0  0  0  0  0  0  0  0  0  0  0  0  # atno 11005 bound_to 11000
  145.4358  139.1542  143.3997 LP  0  0  0  0  0  0  0  0  0  0  0  0  # atno 17320 bound_to 7965
  146.2842  140.4477  142.8764 LP  0  0  0  0  0  0  0  0  0  0  0  0  # atno 17321 bound_to 7965
  139.6033  144.1249  152.2222 LP  0  0  0  0  0  0  0  0  0  0  0  0  # atno 17342 bound_to 10162
  140.0640  144.5833  150.7241 LP  0  0  0  0  0  0  0  0  0  0  0  0  # atno 17343 bound_to 10162
  157.4226  131.0839  151.1117 LP  0  0  0  0  0  0  0  0  0  0  0  0  # atno 17370 bound_to 10713
  157.1714  130.6269  149.5642 LP  0  0  0  0  0  0  0  0  0  0  0  0  # atno 17371 bound_to 10713
  139.9586  134.7492  156.0287 LP  0  0  0  0  0  0  0  0  0  0  0  0  # atno 17394 bound_to 11000
  141.1314  133.6585  156.3475 LP  0  0  0  0  0  0  0  0  0  0  0  0  # atno 17395 bound_to 11000

$$$$
