AV-unprocessed.smi:349|AV-procd|sdf|2396|dock5
  -GOLD-   2262022323D 1   1.00000     0.00000
 Structure written by MMmdl.
 43 44  0  0  0  0  0  0  0  0  1 V2000
  147.0807  137.2003  162.9726 C   0  0  0  0  0  0  0  0  0  0  0  0
  147.3837  135.7123  162.7359 C   0  0  0  0  0  0  0  0  0  0  0  0
  147.2460  135.2595  161.2650 C   0  0  2  0  0  0  0  0  0  0  0  0
  147.5892  133.7677  161.1145 C   0  0  0  0  0  0  0  0  0  0  0  0
  148.1205  136.1010  160.3235 C   0  0  0  0  0  0  0  0  0  0  0  0
  148.8871  136.9490  160.7817 O   0  0  0  0  0  0  0  0  0  0  0  0
  147.9865  135.8639  159.0092 N   0  0  0  0  0  0  0  0  0  0  0  0
  148.6929  136.5852  157.9557 C   0  0  0  0  0  0  0  0  0  0  0  0
  149.1785  135.6951  156.8096 C   0  0  0  0  0  0  0  0  0  0  0  0
  148.9859  134.2961  156.8750 C   0  0  0  0  0  0  0  0  0  0  0  0
  149.4550  133.4822  155.8289 C   0  0  0  0  0  0  0  0  0  0  0  0
  150.1132  134.0988  154.7509 C   0  0  0  0  0  0  0  0  0  0  0  0
  150.3159  135.4298  154.6751 N   0  0  0  0  0  0  0  0  0  0  0  0
  149.8633  136.2200  155.6796 C   0  0  0  0  0  0  0  0  0  0  0  0
  150.0752  137.6039  155.5498 N   0  0  0  0  0  0  0  0  0  0  0  0
  149.2177  138.2167  154.5432 C   0  0  0  0  0  0  0  0  0  0  0  0
  149.3396  139.7485  154.6128 C   0  0  0  0  0  0  0  0  0  0  0  0
  150.7061  140.1286  154.4719 O   0  0  0  0  0  0  0  0  0  0  0  0
  151.5250  139.5811  155.5020 C   0  0  0  0  0  0  0  0  0  0  0  0
  151.4621  138.0452  155.4478 C   0  0  0  0  0  0  0  0  0  0  0  0
  147.1163  137.4365  164.0362 H   0  0  0  0  0  0  0  0  0  0  0  0
  146.0876  137.4633  162.6075 H   0  0  0  0  0  0  0  0  0  0  0  0
  147.8047  137.8439  162.4726 H   0  0  0  0  0  0  0  0  0  0  0  0
  148.3848  135.4855  163.1054 H   0  0  0  0  0  0  0  0  0  0  0  0
  146.7013  135.1238  163.3501 H   0  0  0  0  0  0  0  0  0  0  0  0
  146.2031  135.3864  160.9694 H   0  0  0  0  0  0  0  0  0  0  0  0
  147.5114  133.4439  160.0757 H   0  0  0  0  0  0  0  0  0  0  0  0
  146.9068  133.1502  161.6993 H   0  0  0  0  0  0  0  0  0  0  0  0
  148.6026  133.5520  161.4559 H   0  0  0  0  0  0  0  0  0  0  0  0
  147.3376  135.1471  158.7179 H   0  0  0  0  0  0  0  0  0  0  0  0
  148.0567  137.3977  157.6051 H   0  0  0  0  0  0  0  0  0  0  0  0
  149.5665  137.0598  158.4024 H   0  0  0  0  0  0  0  0  0  0  0  0
  148.4866  133.8431  157.7188 H   0  0  0  0  0  0  0  0  0  0  0  0
  149.3163  132.4116  155.8544 H   0  0  0  0  0  0  0  0  0  0  0  0
  150.4886  133.5084  153.9281 H   0  0  0  0  0  0  0  0  0  0  0  0
  149.5131  137.8627  153.5545 H   0  0  0  0  0  0  0  0  0  0  0  0
  148.1800  137.9178  154.6921 H   0  0  0  0  0  0  0  0  0  0  0  0
  148.7582  140.2088  153.8141 H   0  0  0  0  0  0  0  0  0  0  0  0
  148.9414  140.1265  155.5559 H   0  0  0  0  0  0  0  0  0  0  0  0
  152.5508  139.9212  155.3601 H   0  0  0  0  0  0  0  0  0  0  0  0
  151.1979  139.9502  156.4755 H   0  0  0  0  0  0  0  0  0  0  0  0
  152.0478  137.6149  156.2610 H   0  0  0  0  0  0  0  0  0  0  0  0
  151.8968  137.6938  154.5110 H   0  0  0  0  0  0  0  0  0  0  0  0
  1  2  1  0  0  0  0
  1 21  1  0  0  0  0
  1 22  1  0  0  0  0
  1 23  1  0  0  0  0
  2  3  1  0  0  0  0
  2 24  1  0  0  0  0
  2 25  1  0  0  0  0
  3  4  1  0  0  0  0
  3  5  1  0  0  0  0
  3 26  1  0  0  0  0
  4 27  1  0  0  0  0
  4 28  1  0  0  0  0
  4 29  1  0  0  0  0
  5  6  2  0  0  0  0
  5  7  1  0  0  0  0
  7  8  1  0  0  0  0
  7 30  1  0  0  0  0
  8  9  1  0  0  0  0
  8 31  1  0  0  0  0
  8 32  1  0  0  0  0
  9 14  1  0  0  0  0
  9 10  2  0  0  0  0
 10 11  1  0  0  0  0
 10 33  1  0  0  0  0
 11 12  2  0  0  0  0
 11 34  1  0  0  0  0
 12 13  1  0  0  0  0
 12 35  1  0  0  0  0
 13 14  2  0  0  0  0
 14 15  1  0  0  0  0
 15 20  1  0  0  0  0
 15 16  1  0  0  0  0
 16 17  1  0  0  0  0
 16 36  1  0  0  0  0
 16 37  1  0  0  0  0
 17 18  1  0  0  0  0
 17 38  1  0  0  0  0
 17 39  1  0  0  0  0
 18 19  1  0  0  0  0
 19 20  1  0  0  0  0
 19 40  1  0  0  0  0
 19 41  1  0  0  0  0
 20 42  1  0  0  0  0
 20 43  1  0  0  0  0
M  END
> <s_m_source_file>
AV-unprocessed.smi

> <i_m_source_file_index>
349

> <i_lp_mmshare_version>
43012

> <i_f3d_flags>
0

> <s_epik_input>
W0NIM11bQ0gyXVtDQEhdKFtDSDNdKUMoPU8pW05IXVtDSDJdYzFbY0hdW2NIXVtjSF1uYzFOMltDSDJdW0NIMl1PW0NIMl1bQ0gyXTI=

> <s_epik_cmdline>
J2VwaWtfcHl0aG9uJywgJy1waCcsICc3LjAnLCAnLXRuJywgJzgnLCAnLW1hJywgJzIwMCcsICctbWV0YWxfYmluZGluZycsICctaW1hZScsICc8aW5maWxlLm1hZT4nLCAnLW9tYWUnLCAnPG91dGZpbGUubWFlPic=

> <r_lp_tautomer_probability>
1

> <r_epik_Ionization_Penalty>
0.00513869

> <r_epik_Ionization_Penalty_Charging>
0

> <r_epik_Ionization_Penalty_Neutral>
0.00513869

> <r_epik_State_Penalty>
0.00374265

> <r_epik_Charging_Adjusted_Penalty>
0.00374265

> <i_epik_Tot_Q>
0

> <i_epik_Tot_abs_Q>
0

> <r_epik_Metal_State_Penalty>
-0

> <b_epik_Metal_Only>
0

> <s_lp_Force_Field>
OPLS_2005

> <r_lp_Energy>
18.1158

> <b_lp_Chiralities_Consistent>
1

> <s_lp_Variant>
AV-unprocessed.smi:349-1

> <Gold.Version>
5.8.1

> <Gold.Id.Protein>
6NUR|6NUR_protein|mol2

> <Gold.PLP.Fitness>
36.9372

> <Gold.PLP.PLP>
-31.8100

> <Gold.PLP.part.hbond>
-1.9747

> <Gold.PLP.part.metal>
0.0000

> <Gold.PLP.part.buried>
-5.7242

> <Gold.PLP.part.nonpolar>
-25.7320

> <Gold.PLP.part.repulsive>
0.4407

> <Gold.PLP.ligand.clash>
0.0000

> <Gold.PLP.ligand.torsion>
0.3300

> <Gold.PLP.Chemscore.Hbond>
1.8640

> <Gold.PLP.Chemscore.CHOScore>
0.0000

> <Gold.PLP.Chemscore.Metal>
0.0000

> <Gold.Chemscore.Hbonds>
donor molecule, donor type, donor heavy atom, donor atom, acceptor molecule, acceptor atom, score
      P1  H  6931  6943       L1     6  0.86
      P1  H  7989  7998       L1    18  1.00

> <Gold.PLP.Chemscore.Internal.Correction>
0.1951

> <Gold.Rescore>
     Score         DG    S(hbond)    S(metal)    S(lipo)     H(rot)  DE(clash)    DE(int)     intcor
     14.88     -16.51       1.93        0.00      75.07       1.64       0.00       1.62       ----

> <Gold.Chemscore.Fitness>
14.8812

> <Gold.Chemscore.DG>
-16.5095

> <Gold.Chemscore.ZeroCoef>
-5.4800

> <Gold.Chemscore.Hbond>
1.9301

> <Gold.Chemscore.Metal>
0.0000

> <Gold.Chemscore.Lipo>
75.0681

> <Gold.Chemscore.Internal_Hbond>
0.0000

> <Gold.Chemscore.DEClash>
0.0043

> <Gold.Chemscore.DEInternal>
1.6240

> <Gold.Chemscore.Rot>
1.6407

> <Gold.Chemscore.Internal.Correction>
   9.000000E+99

> <Gold.Chemscore.Hbonds>
donor molecule, donor type, donor heavy atom, donor atom, acceptor molecule, acceptor atom, score
      P1  H  6931  6943       L1     6  0.85
      P1  H  7989  7998       L1    18  0.61

> <Gold.Chemscore.Hbond.Weighted>
-6.4467

> <Gold.Chemscore.Metal.Weighted>
-0.0000

> <Gold.Chemscore.Lipo.Weighted>
-8.7830

> <Gold.Chemscore.Internal_Hbond.Weighted>
0.0000

> <Gold.Chemscore.DEClash.Weighted>
0.0043

> <Gold.Chemscore.DEInternal.Weighted>
1.6240

> <Gold.Chemscore.Rot.Weighted>
4.2001

> <Gold.Chemscore.Internal.Correction.Weighted>
   9.000000E+99

> <Gold.Protein.RotatedTorsions>
[ 6907 6896 6895 6894 ] final   12.57 input  -60.11 | X-H torsion
[ 7974 7965 7964 7962 ] final   58.57 input  175.53 | X-H torsion
[ 8008 7997 7996 7995 ] final   79.88 input   59.86 | X-H torsion
[ 10167 10162 10161 10158 ] final  137.55 input  -65.29 | X-H torsion
[ 10718 10713 10712 10709 ] final   72.22 input   66.30 | X-H torsion
[ 10763 10752 10751 10750 ] final  159.83 input  -60.55 | X-H torsion
[ 11005 11000 10999 10996 ] final  -99.75 input  -57.11 | X-H torsion

> <Gold.Protein.ActiveResidues>
 VAL166  LYS551  ARG553  GLY616  TRP617  ASP618  TYR619  PRO620  LYS621  CYS622 
 ASP623  PHE694  ASN695  SER759  ASP760  ASP761  ALA762  ILE779  LEU786  VAL792 
 PHE793  MET794  SER795  GLU796  ALA797  LYS798  CYS799  TRP800  GLU811  SER814 

> <Gold.Protein.RotatedAtoms>
  151.7725  135.0782  160.0361 H   0  0  0  0  0  0  0  0  0  0  0  0  # atno 6907 bound_to 6896
  152.3278  133.5920  159.5797 H   0  0  0  0  0  0  0  0  0  0  0  0  # atno 6908 bound_to 6896
  150.7405  133.9829  159.3624 H   0  0  0  0  0  0  0  0  0  0  0  0  # atno 6909 bound_to 6896
  145.9167  139.3697  143.0503 H   0  0  0  0  0  0  0  0  0  0  0  0  # atno 7974 bound_to 7965
  155.8757  140.3446  155.5852 H   0  0  0  0  0  0  0  0  0  0  0  0  # atno 8008 bound_to 7997
  155.7776  140.0854  157.2095 H   0  0  0  0  0  0  0  0  0  0  0  0  # atno 8009 bound_to 7997
  154.4020  140.1506  156.3002 H   0  0  0  0  0  0  0  0  0  0  0  0  # atno 8010 bound_to 7997
  139.5140  144.6403  151.5586 H   0  0  0  0  0  0  0  0  0  0  0  0  # atno 10167 bound_to 10162
  157.6490  130.9567  150.0898 H   0  0  0  0  0  0  0  0  0  0  0  0  # atno 10718 bound_to 10713
  154.2380  135.2776  155.2865 H   0  0  0  0  0  0  0  0  0  0  0  0  # atno 10763 bound_to 10752
  154.5569  135.5658  153.6975 H   0  0  0  0  0  0  0  0  0  0  0  0  # atno 10764 bound_to 10752
  153.0006  135.6288  154.2523 H   0  0  0  0  0  0  0  0  0  0  0  0  # atno 10765 bound_to 10752
  141.1297  133.8345  157.1012 H   0  0  0  0  0  0  0  0  0  0  0  0  # atno 11005 bound_to 11000
  145.8602  140.9479  143.0704 LP  0  0  0  0  0  0  0  0  0  0  0  0  # atno 17320 bound_to 7965
  144.6748  140.0520  143.7478 LP  0  0  0  0  0  0  0  0  0  0  0  0  # atno 17321 bound_to 7965
  140.6167  143.9334  150.6494 LP  0  0  0  0  0  0  0  0  0  0  0  0  # atno 17342 bound_to 10162
  140.2595  143.3534  152.1335 LP  0  0  0  0  0  0  0  0  0  0  0  0  # atno 17343 bound_to 10162
  156.1850  130.3652  149.8984 LP  0  0  0  0  0  0  0  0  0  0  0  0  # atno 17370 bound_to 10713
  156.6927  130.8902  151.3590 LP  0  0  0  0  0  0  0  0  0  0  0  0  # atno 17371 bound_to 10713
  140.0332  134.9891  157.0820 LP  0  0  0  0  0  0  0  0  0  0  0  0  # atno 17394 bound_to 11000
  140.4252  134.1838  155.7166 LP  0  0  0  0  0  0  0  0  0  0  0  0  # atno 17395 bound_to 11000

$$$$
