AV-unprocessed.smi:299|AV-procd|sdf|2267|dock4
  -GOLD-   2262022153D 1   1.00000     0.00000
 Structure written by MMmdl.
 42 43  0  0  0  0  0  0  0  0  2 V2000
  146.9077  133.0235  152.0723 C   0  0  0  0  0  0  0  0  0  0  0  0
  145.6897  132.3415  152.7331 C   0  0  2  0  0  0  0  0  0  0  0  0
  144.8462  131.5387  151.7200 C   0  0  0  0  0  0  0  0  0  0  0  0
  144.0331  132.4531  150.7919 C   0  0  0  0  0  0  0  0  0  0  0  0
  143.1823  133.4211  151.6228 C   0  0  0  0  0  0  0  0  0  0  0  0
  144.0480  134.2067  152.6213 C   0  0  0  0  0  0  0  0  0  0  0  0
  144.8225  133.2869  153.4994 N   0  3  2  0  0  0  0  0  0  0  0  0
  145.5284  133.9756  154.6114 C   0  0  0  0  0  0  0  0  0  0  0  0
  146.3720  135.1654  154.1233 C   0  0  0  0  0  0  0  0  0  0  0  0
  147.1765  135.8148  155.2620 C   0  0  0  0  0  0  0  0  0  0  0  0
  148.0187  136.9005  154.7749 N   0  0  0  0  0  0  0  0  0  0  0  0
  149.3387  137.0127  154.9922 C   0  0  0  0  0  0  0  0  0  0  0  0
  149.9932  136.1879  155.6295 O   0  0  0  0  0  0  0  0  0  0  0  0
  150.0256  138.2468  154.4059 C   0  0  0  0  0  0  0  0  0  0  0  0
  151.3796  138.3770  154.9105 N   0  0  0  0  0  0  0  0  0  0  0  0
  151.9561  139.3363  155.6375 C   0  0  0  0  0  0  0  0  0  0  0  0
  153.2328  139.0723  155.8701 N   0  0  0  0  0  0  0  0  0  0  0  0
  153.4250  137.8586  155.2314 N   0  0  0  0  0  0  0  0  0  0  0  0
  152.3292  137.4412  154.6596 N   0  0  0  0  0  0  0  0  0  0  0  0
  147.5194  132.2898  151.5464 H   0  0  0  0  0  0  0  0  0  0  0  0
  147.5526  133.5021  152.8089 H   0  0  0  0  0  0  0  0  0  0  0  0
  146.6169  133.7810  151.3452 H   0  0  0  0  0  0  0  0  0  0  0  0
  146.0832  131.6194  153.4501 H   0  0  0  0  0  0  0  0  0  0  0  0
  145.4860  130.8807  151.1309 H   0  0  0  0  0  0  0  0  0  0  0  0
  144.1612  130.8855  152.2627 H   0  0  0  0  0  0  0  0  0  0  0  0
  144.6999  133.0133  150.1356 H   0  0  0  0  0  0  0  0  0  0  0  0
  143.3932  131.8543  150.1429 H   0  0  0  0  0  0  0  0  0  0  0  0
  142.6529  134.1110  150.9650 H   0  0  0  0  0  0  0  0  0  0  0  0
  142.4175  132.8623  152.1644 H   0  0  0  0  0  0  0  0  0  0  0  0
  144.7231  134.8795  152.0917 H   0  0  0  0  0  0  0  0  0  0  0  0
  143.3942  134.8387  153.2208 H   0  0  0  0  0  0  0  0  0  0  0  0
  144.7908  134.3563  155.3194 H   0  0  0  0  0  0  0  0  0  0  0  0
  146.1474  133.2641  155.1599 H   0  0  0  0  0  0  0  0  0  0  0  0
  147.0621  134.8478  153.3421 H   0  0  0  0  0  0  0  0  0  0  0  0
  145.7138  135.9084  153.6706 H   0  0  0  0  0  0  0  0  0  0  0  0
  146.5102  136.1831  156.0441 H   0  0  0  0  0  0  0  0  0  0  0  0
  147.8239  135.0722  155.7294 H   0  0  0  0  0  0  0  0  0  0  0  0
  147.5639  137.6264  154.2393 H   0  0  0  0  0  0  0  0  0  0  0  0
  150.0634  138.1741  153.3182 H   0  0  0  0  0  0  0  0  0  0  0  0
  149.4570  139.1456  154.6501 H   0  0  0  0  0  0  0  0  0  0  0  0
  151.4468  140.2219  155.9876 H   0  0  0  0  0  0  0  0  0  0  0  0
  144.1358  132.6970  153.9475 H   0  0  0  0  0  0  0  0  0  0  0  0
  1  2  1  0  0  0  0
  1 20  1  0  0  0  0
  1 21  1  0  0  0  0
  1 22  1  0  0  0  0
  2  7  1  0  0  0  0
  2  3  1  0  0  0  0
  2 23  1  0  0  0  0
  3  4  1  0  0  0  0
  3 24  1  0  0  0  0
  3 25  1  0  0  0  0
  4  5  1  0  0  0  0
  4 26  1  0  0  0  0
  4 27  1  0  0  0  0
  5  6  1  0  0  0  0
  5 28  1  0  0  0  0
  5 29  1  0  0  0  0
  6  7  1  0  0  0  0
  6 30  1  0  0  0  0
  6 31  1  0  0  0  0
  7  8  1  0  0  0  0
  7 42  1  0  0  0  0
  8  9  1  0  0  0  0
  8 32  1  0  0  0  0
  8 33  1  0  0  0  0
  9 10  1  0  0  0  0
  9 34  1  0  0  0  0
  9 35  1  0  0  0  0
 10 11  1  0  0  0  0
 10 36  1  0  0  0  0
 10 37  1  0  0  0  0
 11 12  1  0  0  0  0
 11 38  1  0  0  0  0
 12 13  2  0  0  0  0
 12 14  1  0  0  0  0
 14 15  1  0  0  0  0
 14 39  1  0  0  0  0
 14 40  1  0  0  0  0
 15 19  1  0  0  0  0
 15 16  1  0  0  0  0
 16 17  2  0  0  0  0
 16 41  1  0  0  0  0
 17 18  1  0  0  0  0
 18 19  2  0  0  0  0
M  CHG  1   7   1
M  END
> <s_m_source_file>
AV-unprocessed.smi

> <i_m_source_file_index>
299

> <i_lp_mmshare_version>
43012

> <i_f3d_flags>
0

> <s_epik_input>
W0NIM11bQ0BASF0xW0NIMl1bQ0gyXVtDSDJdW0NIMl1OMVtDSDJdW0NIMl1bQ0gyXVtOSF1DKD1PKVtDSDJdbjJbY0hdbm5uMg==

> <s_epik_cmdline>
J2VwaWtfcHl0aG9uJywgJy1waCcsICc3LjAnLCAnLXRuJywgJzgnLCAnLW1hJywgJzIwMCcsICctbWV0YWxfYmluZGluZycsICctaW1hZScsICc8aW5maWxlLm1hZT4nLCAnLW9tYWUnLCAnPG91dGZpbGUubWFlPic=

> <r_lp_tautomer_probability>
1

> <r_epik_Ionization_Penalty>
0.000544863

> <r_epik_Ionization_Penalty_Charging>
0.000543475

> <r_epik_Ionization_Penalty_Neutral>
1.38784e-06

> <r_epik_State_Penalty>
0.000340025

> <r_epik_Charging_Adjusted_Penalty>
0.0008835

> <i_epik_Tot_Q>
1

> <i_epik_Tot_abs_Q>
1

> <r_epik_Metal_State_Penalty>
-0

> <b_epik_Metal_Only>
0

> <s_lp_Force_Field>
OPLS_2005

> <r_lp_Energy>
22.352

> <b_lp_Chiralities_Consistent>
1

> <s_lp_Variant>
AV-unprocessed.smi:299-3

> <Gold.Version>
5.8.1

> <Gold.Id.Protein>
6NUR|6NUR_protein|mol2

> <Gold.PLP.Fitness>
40.3679

> <Gold.PLP.PLP>
-30.0007

> <Gold.PLP.part.hbond>
-4.7233

> <Gold.PLP.part.metal>
0.0000

> <Gold.PLP.part.buried>
-5.7371

> <Gold.PLP.part.nonpolar>
-21.1983

> <Gold.PLP.part.repulsive>
0.2129

> <Gold.PLP.ligand.clash>
0.0000

> <Gold.PLP.ligand.torsion>
0.2526

> <Gold.PLP.Chemscore.Hbond>
3.5904

> <Gold.PLP.Chemscore.CHOScore>
0.0000

> <Gold.PLP.Chemscore.Metal>
0.0000

> <Gold.Chemscore.Hbonds>
donor molecule, donor type, donor heavy atom, donor atom, acceptor molecule, acceptor atom, score
      L1  H     7    42       P1 10957  2.00
      P1  H  7997  8008       L1    17  1.00
      P1  H 10752 10765       L1    19  0.55

> <Gold.PLP.Chemscore.Internal.Correction>
0.1012

> <Gold.Rescore>
     Score         DG    S(hbond)    S(metal)    S(lipo)     H(rot)  DE(clash)    DE(int)     intcor
      9.45     -10.23       2.02        0.00      47.79       2.97       0.00       0.78       ----

> <Gold.Chemscore.Fitness>
9.4504

> <Gold.Chemscore.DG>
-10.2335

> <Gold.Chemscore.ZeroCoef>
-5.4800

> <Gold.Chemscore.Hbond>
2.0241

> <Gold.Chemscore.Metal>
0.0000

> <Gold.Chemscore.Lipo>
47.7870

> <Gold.Chemscore.Internal_Hbond>
0.0000

> <Gold.Chemscore.DEClash>
0.0000

> <Gold.Chemscore.DEInternal>
0.7830

> <Gold.Chemscore.Rot>
2.9680

> <Gold.Chemscore.Internal.Correction>
   9.000000E+99

> <Gold.Chemscore.Hbonds>
donor molecule, donor type, donor heavy atom, donor atom, acceptor molecule, acceptor atom, score
      L1  H     7    42       P1 10957  0.78
      P1  H  7997  8008       L1    17  0.96
      P1  H 10752 10765       L1    19  0.08

> <Gold.Chemscore.Hbond.Weighted>
-6.7604

> <Gold.Chemscore.Metal.Weighted>
-0.0000

> <Gold.Chemscore.Lipo.Weighted>
-5.5911

> <Gold.Chemscore.Internal_Hbond.Weighted>
0.0000

> <Gold.Chemscore.DEClash.Weighted>
0.0000

> <Gold.Chemscore.DEInternal.Weighted>
0.7830

> <Gold.Chemscore.Rot.Weighted>
7.5980

> <Gold.Chemscore.Internal.Correction.Weighted>
   9.000000E+99

> <Gold.Protein.RotatedTorsions>
[ 6907 6896 6895 6894 ] final -108.83 input  -60.11 | X-H torsion
[ 7974 7965 7964 7962 ] final  -89.71 input  175.53 | X-H torsion
[ 8008 7997 7996 7995 ] final  -45.42 input   59.86 | X-H torsion
[ 10167 10162 10161 10158 ] final -170.91 input  -65.29 | X-H torsion
[ 10718 10713 10712 10709 ] final  -92.19 input   66.30 | X-H torsion
[ 10763 10752 10751 10750 ] final  158.83 input  -60.55 | X-H torsion
[ 11005 11000 10999 10996 ] final  -73.10 input  -57.11 | X-H torsion

> <Gold.Protein.ActiveResidues>
 VAL166  LYS551  ARG553  GLY616  TRP617  ASP618  TYR619  PRO620  LYS621  CYS622 
 ASP623  PHE694  ASN695  SER759  ASP760  ASP761  ALA762  ILE779  LEU786  VAL792 
 PHE793  MET794  SER795  GLU796  ALA797  LYS798  CYS799  TRP800  GLU811  SER814 

> <Gold.Protein.RotatedAtoms>
  150.7525  133.9619  159.3517 H   0  0  0  0  0  0  0  0  0  0  0  0  # atno 6907 bound_to 6896
  151.7545  135.0823  160.0345 H   0  0  0  0  0  0  0  0  0  0  0  0  # atno 6908 bound_to 6896
  152.3444  133.6067  159.5935 H   0  0  0  0  0  0  0  0  0  0  0  0  # atno 6909 bound_to 6896
  145.4361  140.9557  143.2101 H   0  0  0  0  0  0  0  0  0  0  0  0  # atno 7974 bound_to 7965
  154.4001  140.1397  156.3845 H   0  0  0  0  0  0  0  0  0  0  0  0  # atno 8008 bound_to 7997
  155.7973  140.3477  155.5362 H   0  0  0  0  0  0  0  0  0  0  0  0  # atno 8009 bound_to 7997
  155.8519  140.0943  157.1659 H   0  0  0  0  0  0  0  0  0  0  0  0  # atno 8010 bound_to 7997
  139.5833  144.1374  152.1544 H   0  0  0  0  0  0  0  0  0  0  0  0  # atno 10167 bound_to 10162
  156.0000  130.4977  150.5588 H   0  0  0  0  0  0  0  0  0  0  0  0  # atno 10718 bound_to 10713
  154.2223  135.2781  155.2920 H   0  0  0  0  0  0  0  0  0  0  0  0  # atno 10763 bound_to 10752
  154.5692  135.5624  153.7082 H   0  0  0  0  0  0  0  0  0  0  0  0  # atno 10764 bound_to 10752
  153.0039  135.6317  154.2363 H   0  0  0  0  0  0  0  0  0  0  0  0  # atno 10765 bound_to 10752
  141.1618  133.6867  156.7161 H   0  0  0  0  0  0  0  0  0  0  0  0  # atno 11005 bound_to 11000
  144.8151  139.5891  143.7012 LP  0  0  0  0  0  0  0  0  0  0  0  0  # atno 17320 bound_to 7965
  146.2581  139.6348  142.9381 LP  0  0  0  0  0  0  0  0  0  0  0  0  # atno 17321 bound_to 7965
  140.0932  144.5603  150.7040 LP  0  0  0  0  0  0  0  0  0  0  0  0  # atno 17342 bound_to 10162
  140.7109  143.2504  151.4585 LP  0  0  0  0  0  0  0  0  0  0  0  0  # atno 17343 bound_to 10162
  157.3500  131.0732  151.1721 LP  0  0  0  0  0  0  0  0  0  0  0  0  # atno 17370 bound_to 10713
  157.2540  130.6627  149.5944 LP  0  0  0  0  0  0  0  0  0  0  0  0  # atno 17371 bound_to 10713
  140.2851  134.8285  157.3968 LP  0  0  0  0  0  0  0  0  0  0  0  0  # atno 17394 bound_to 11000
  140.1397  134.4987  155.8041 LP  0  0  0  0  0  0  0  0  0  0  0  0  # atno 17395 bound_to 11000

$$$$
