AV-unprocessed.smi:1416|AV-procd|sdf|5764|dock2
  -GOLD-   22720 5403D 1   1.00000     0.00000
 Structure written by MMmdl.
 44 45  0  0  0  0  0  0  0  0  1 V2000
  148.1013  131.0988  152.7243 C   0  0  0  0  0  0  0  0  0  0  0  0
  148.9183  132.3921  152.7888 C   0  0  0  0  0  0  0  0  0  0  0  0
  149.8994  132.4850  154.3100 S   0  0  0  0  0  0  0  0  0  0  0  0
  150.5743  134.1618  154.1315 C   0  0  0  0  0  0  0  0  0  0  0  0
  150.0540  135.1220  155.2170 C   0  0  0  0  0  0  0  0  0  0  0  0
  150.8547  136.4251  155.3238 C   0  0  0  0  0  0  0  0  0  0  0  0
  151.4659  136.7025  156.3562 O   0  0  0  0  0  0  0  0  0  0  0  0
  150.8465  137.2160  154.2412 N   0  0  0  0  0  0  0  0  0  0  0  0
  151.5439  138.4923  154.1410 C   0  0  0  0  0  0  0  0  0  0  0  0
  150.8787  139.6011  154.9399 C   0  0  0  0  0  0  0  0  0  0  0  0
  149.6476  140.1615  154.5399 C   0  0  0  0  0  0  0  0  0  0  0  0
  149.0997  141.1969  155.3189 C   0  0  0  0  0  0  0  0  0  0  0  0
  149.6919  141.6796  156.4309 N   0  0  0  0  0  0  0  0  0  0  0  0
  150.8751  141.1486  156.8277 C   0  0  0  0  0  0  0  0  0  0  0  0
  151.4811  141.6617  157.9954 N   0  0  0  0  0  0  0  0  0  0  0  0
  151.5693  143.1181  158.0733 C   0  0  0  0  0  0  0  0  0  0  0  0
  151.9586  143.5567  159.4956 C   0  0  0  0  0  0  0  0  0  0  0  0
  153.1639  142.9084  159.8883 O   0  0  0  0  0  0  0  0  0  0  0  0
  153.0183  141.4924  159.9139 C   0  0  0  0  0  0  0  0  0  0  0  0
  152.6710  140.9820  158.5053 C   0  0  0  0  0  0  0  0  0  0  0  0
  151.5024  140.1101  156.0978 C   0  0  0  0  0  0  0  0  0  0  0  0
  147.5164  131.0548  151.8055 H   0  0  0  0  0  0  0  0  0  0  0  0
  147.4087  131.0292  153.5635 H   0  0  0  0  0  0  0  0  0  0  0  0
  148.7495  130.2226  152.7490 H   0  0  0  0  0  0  0  0  0  0  0  0
  149.5892  132.4526  151.9314 H   0  0  0  0  0  0  0  0  0  0  0  0
  148.2552  133.2562  152.7413 H   0  0  0  0  0  0  0  0  0  0  0  0
  151.6641  134.1149  154.1376 H   0  0  0  0  0  0  0  0  0  0  0  0
  150.2876  134.5380  153.1492 H   0  0  0  0  0  0  0  0  0  0  0  0
  149.0217  135.3912  154.9917 H   0  0  0  0  0  0  0  0  0  0  0  0
  150.0347  134.6126  156.1819 H   0  0  0  0  0  0  0  0  0  0  0  0
  150.3215  136.9168  153.4321 H   0  0  0  0  0  0  0  0  0  0  0  0
  152.5709  138.3570  154.4835 H   0  0  0  0  0  0  0  0  0  0  0  0
  151.5932  138.8107  153.0985 H   0  0  0  0  0  0  0  0  0  0  0  0
  149.1340  139.8192  153.6536 H   0  0  0  0  0  0  0  0  0  0  0  0
  148.1607  141.6519  155.0404 H   0  0  0  0  0  0  0  0  0  0  0  0
  152.3186  143.4627  157.3592 H   0  0  0  0  0  0  0  0  0  0  0  0
  150.6294  143.5962  157.8008 H   0  0  0  0  0  0  0  0  0  0  0  0
  152.1104  144.6358  159.5263 H   0  0  0  0  0  0  0  0  0  0  0  0
  151.1613  143.3273  160.2048 H   0  0  0  0  0  0  0  0  0  0  0  0
  153.9518  141.0454  160.2553 H   0  0  0  0  0  0  0  0  0  0  0  0
  152.2475  141.2078  160.6320 H   0  0  0  0  0  0  0  0  0  0  0  0
  152.5035  139.9048  158.5432 H   0  0  0  0  0  0  0  0  0  0  0  0
  153.5074  141.1594  157.8277 H   0  0  0  0  0  0  0  0  0  0  0  0
  152.4566  139.7109  156.4080 H   0  0  0  0  0  0  0  0  0  0  0  0
  1  2  1  0  0  0  0
  1 22  1  0  0  0  0
  1 23  1  0  0  0  0
  1 24  1  0  0  0  0
  2  3  1  0  0  0  0
  2 25  1  0  0  0  0
  2 26  1  0  0  0  0
  3  4  1  0  0  0  0
  4  5  1  0  0  0  0
  4 27  1  0  0  0  0
  4 28  1  0  0  0  0
  5  6  1  0  0  0  0
  5 29  1  0  0  0  0
  5 30  1  0  0  0  0
  6  7  2  0  0  0  0
  6  8  1  0  0  0  0
  8  9  1  0  0  0  0
  8 31  1  0  0  0  0
  9 10  1  0  0  0  0
  9 32  1  0  0  0  0
  9 33  1  0  0  0  0
 10 21  1  0  0  0  0
 10 11  2  0  0  0  0
 11 12  1  0  0  0  0
 11 34  1  0  0  0  0
 12 13  2  0  0  0  0
 12 35  1  0  0  0  0
 13 14  1  0  0  0  0
 14 15  1  0  0  0  0
 14 21  2  0  0  0  0
 15 20  1  0  0  0  0
 15 16  1  0  0  0  0
 16 17  1  0  0  0  0
 16 36  1  0  0  0  0
 16 37  1  0  0  0  0
 17 18  1  0  0  0  0
 17 38  1  0  0  0  0
 17 39  1  0  0  0  0
 18 19  1  0  0  0  0
 19 20  1  0  0  0  0
 19 40  1  0  0  0  0
 19 41  1  0  0  0  0
 20 42  1  0  0  0  0
 20 43  1  0  0  0  0
 21 44  1  0  0  0  0
M  END
> <s_m_source_file>
AV-unprocessed.smi

> <i_m_source_file_index>
1416

> <i_lp_mmshare_version>
43012

> <i_f3d_flags>
0

> <s_epik_input>
W0NIM11bQ0gyXVNbQ0gyXVtDSDJdQyg9TylbTkhdW0NIMl1jMVtjSF1bY0hdbmMoW2NIXTEpTjJbQ0gyXVtDSDJdT1tDSDJdW0NIMl0y

> <s_epik_cmdline>
J2VwaWtfcHl0aG9uJywgJy1waCcsICc3LjAnLCAnLXRuJywgJzgnLCAnLW1hJywgJzIwMCcsICctbWV0YWxfYmluZGluZycsICctaW1hZScsICc8aW5maWxlLm1hZT4nLCAnLW9tYWUnLCAnPG91dGZpbGUubWFlPic=

> <r_lp_tautomer_probability>
1

> <r_epik_Ionization_Penalty>
0.00571449

> <r_epik_Ionization_Penalty_Charging>
0

> <r_epik_Ionization_Penalty_Neutral>
0.00571449

> <r_epik_State_Penalty>
0.00419227

> <r_epik_Charging_Adjusted_Penalty>
0.00419227

> <i_epik_Tot_Q>
0

> <i_epik_Tot_abs_Q>
0

> <r_epik_Metal_State_Penalty>
-0

> <b_epik_Metal_Only>
0

> <s_lp_Force_Field>
OPLS_2005

> <r_lp_Energy>
16.5768

> <b_lp_Chiralities_Consistent>
1

> <s_lp_Variant>
AV-unprocessed.smi:1416-1

> <Gold.Version>
5.8.1

> <Gold.Id.Protein>
6NUR|6NUR_protein|mol2

> <Gold.PLP.Fitness>
42.7229

> <Gold.PLP.PLP>
-40.6033

> <Gold.PLP.part.hbond>
-1.4618

> <Gold.PLP.part.metal>
0.0000

> <Gold.PLP.part.buried>
-4.3347

> <Gold.PLP.part.nonpolar>
-35.6665

> <Gold.PLP.part.repulsive>
0.4367

> <Gold.PLP.ligand.clash>
0.0000

> <Gold.PLP.ligand.torsion>
0.7844

> <Gold.PLP.Chemscore.Hbond>
0.9913

> <Gold.PLP.Chemscore.CHOScore>
0.0590

> <Gold.PLP.Chemscore.Metal>
0.0000

> <Gold.Chemscore.Hbonds>
donor molecule, donor type, donor heavy atom, donor atom, acceptor molecule, acceptor atom, score
      L1  H     8    31       P1  7948  0.44

> <Gold.PLP.Chemscore.Internal.Correction>
0.5376

> <Gold.Rescore>
     Score         DG    S(hbond)    S(metal)    S(lipo)     H(rot)  DE(clash)    DE(int)     intcor
     13.95     -14.98       0.78        0.00      99.77       1.87       0.09       0.94       ----

> <Gold.Chemscore.Fitness>
13.9546

> <Gold.Chemscore.DG>
-14.9817

> <Gold.Chemscore.ZeroCoef>
-5.4800

> <Gold.Chemscore.Hbond>
0.7836

> <Gold.Chemscore.Metal>
0.0000

> <Gold.Chemscore.Lipo>
99.7669

> <Gold.Chemscore.Internal_Hbond>
0.0000

> <Gold.Chemscore.DEClash>
0.0878

> <Gold.Chemscore.DEInternal>
0.9394

> <Gold.Chemscore.Rot>
1.8704

> <Gold.Chemscore.Internal.Correction>
   9.000000E+99

> <Gold.Chemscore.Hbonds>
donor molecule, donor type, donor heavy atom, donor atom, acceptor molecule, acceptor atom, score
      L1  H     8    31       P1  7948  0.03

> <Gold.Chemscore.Hbond.Weighted>
-2.6171

> <Gold.Chemscore.Metal.Weighted>
-0.0000

> <Gold.Chemscore.Lipo.Weighted>
-11.6727

> <Gold.Chemscore.Internal_Hbond.Weighted>
0.0000

> <Gold.Chemscore.DEClash.Weighted>
0.0878

> <Gold.Chemscore.DEInternal.Weighted>
0.9394

> <Gold.Chemscore.Rot.Weighted>
4.7881

> <Gold.Chemscore.Internal.Correction.Weighted>
   9.000000E+99

> <Gold.Protein.RotatedTorsions>
[ 6907 6896 6895 6894 ] final   99.01 input  -60.11 | X-H torsion
[ 7974 7965 7964 7962 ] final   39.57 input  175.53 | X-H torsion
[ 8008 7997 7996 7995 ] final  162.83 input   59.86 | X-H torsion
[ 10167 10162 10161 10158 ] final -156.84 input  -65.29 | X-H torsion
[ 10718 10713 10712 10709 ] final  101.75 input   66.30 | X-H torsion
[ 10763 10752 10751 10750 ] final  -22.08 input  -60.55 | X-H torsion
[ 11005 11000 10999 10996 ] final  177.02 input  -57.11 | X-H torsion

> <Gold.Protein.ActiveResidues>
 VAL166  LYS551  ARG553  GLY616  TRP617  ASP618  TYR619  PRO620  LYS621  CYS622 
 ASP623  PHE694  ASN695  SER759  ASP760  ASP761  ALA762  ILE779  LEU786  VAL792 
 PHE793  MET794  SER795  GLU796  ALA797  LYS798  CYS799  TRP800  GLU811  SER814 

> <Gold.Protein.RotatedAtoms>
  152.5399  134.0493  159.8102 H   0  0  0  0  0  0  0  0  0  0  0  0  # atno 6907 bound_to 6896
  151.0637  133.5515  159.2639 H   0  0  0  0  0  0  0  0  0  0  0  0  # atno 6908 bound_to 6896
  151.2404  135.0595  159.9077 H   0  0  0  0  0  0  0  0  0  0  0  0  # atno 6909 bound_to 6896
  146.0974  139.5636  142.9436 H   0  0  0  0  0  0  0  0  0  0  0  0  # atno 7974 bound_to 7965
  156.2003  140.1740  156.7914 H   0  0  0  0  0  0  0  0  0  0  0  0  # atno 8008 bound_to 7997
  154.5582  140.0704  156.8808 H   0  0  0  0  0  0  0  0  0  0  0  0  # atno 8009 bound_to 7997
  155.2898  140.3354  155.4255 H   0  0  0  0  0  0  0  0  0  0  0  0  # atno 8010 bound_to 7997
  139.6818  143.9568  152.2340 H   0  0  0  0  0  0  0  0  0  0  0  0  # atno 10167 bound_to 10162
  157.6821  131.0734  150.5300 H   0  0  0  0  0  0  0  0  0  0  0  0  # atno 10718 bound_to 10713
  153.6463  135.6983  153.5224 H   0  0  0  0  0  0  0  0  0  0  0  0  # atno 10763 bound_to 10752
  153.2742  135.4205  155.1017 H   0  0  0  0  0  0  0  0  0  0  0  0  # atno 10764 bound_to 10752
  154.8487  135.3586  154.6007 H   0  0  0  0  0  0  0  0  0  0  0  0  # atno 10765 bound_to 10752
  140.3795  134.6959  157.4442 H   0  0  0  0  0  0  0  0  0  0  0  0  # atno 11005 bound_to 11000
  145.5922  141.0368  143.2064 LP  0  0  0  0  0  0  0  0  0  0  0  0  # atno 17320 bound_to 7965
  144.7406  139.7460  143.7312 LP  0  0  0  0  0  0  0  0  0  0  0  0  # atno 17321 bound_to 7965
  139.9360  144.6711  150.8314 LP  0  0  0  0  0  0  0  0  0  0  0  0  # atno 17342 bound_to 10162
  140.7655  143.3276  151.2481 LP  0  0  0  0  0  0  0  0  0  0  0  0  # atno 17343 bound_to 10162
  156.5610  130.4255  149.6063 LP  0  0  0  0  0  0  0  0  0  0  0  0  # atno 17370 bound_to 10713
  156.2821  130.7076  151.1903 LP  0  0  0  0  0  0  0  0  0  0  0  0  # atno 17371 bound_to 10713
  140.0490  134.6158  155.8885 LP  0  0  0  0  0  0  0  0  0  0  0  0  # atno 17394 bound_to 11000
  141.1928  133.6576  156.5520 LP  0  0  0  0  0  0  0  0  0  0  0  0  # atno 17395 bound_to 11000

$$$$
