AV-unprocessed.smi:648|AV-procd|sdf|3175|dock8
  -GOLD-   22720 0103D 1   1.00000     0.00000
 Structure written by MMmdl.
 45 46  0  0  0  0  0  0  0  0  1 V2000
  152.9876  140.3250  159.7014 C   0  0  0  0  0  0  0  0  0  0  0  0
  152.0219  141.4478  159.2942 C   0  0  1  0  0  0  0  0  0  0  0  0
  152.7419  142.8094  159.2585 C   0  0  0  0  0  0  0  0  0  0  0  0
  151.8217  143.9908  158.8714 C   0  0  0  0  0  0  0  0  0  0  0  0
  150.9263  144.3999  160.0640 C   0  0  0  0  0  0  0  0  0  0  0  0
  152.7093  145.2152  158.5562 C   0  0  0  0  0  0  0  0  0  0  0  0
  151.0091  143.6478  157.5843 C   0  0  0  0  0  0  0  0  0  0  0  0
  150.3531  142.2339  157.4799 C   0  0  1  0  0  0  0  0  0  0  0  0
  149.0551  142.1657  158.3309 C   0  0  0  0  0  0  0  0  0  0  0  0
  148.0368  143.0067  157.8216 O   0  0  0  0  0  0  0  0  0  0  0  0
  149.9075  142.0056  156.0858 N   0  0  0  0  0  0  0  0  0  0  0  0
  149.0257  140.8735  155.7767 C   0  0  0  0  0  0  0  0  0  0  0  0
  149.3376  140.3167  154.3813 C   0  0  0  0  0  0  0  0  0  0  0  0
  150.4535  139.3922  154.4105 N   0  0  0  0  0  0  0  0  0  0  0  0
  150.4989  138.0797  154.1755 C   0  0  0  0  0  0  0  0  0  0  0  0
  151.7114  137.5563  154.2937 N   0  0  0  0  0  0  0  0  0  0  0  0
  152.4135  138.6810  154.6255 C   0  0  0  0  0  0  0  0  0  0  0  0
  151.7070  139.8086  154.7074 N   0  0  0  0  0  0  0  0  0  0  0  0
  151.3863  141.1591  157.9225 C   0  0  0  0  0  0  0  0  0  0  0  0
  153.8068  140.2271  158.9885 H   0  0  0  0  0  0  0  0  0  0  0  0
  152.4741  139.3646  159.7517 H   0  0  0  0  0  0  0  0  0  0  0  0
  153.4217  140.5170  160.6830 H   0  0  0  0  0  0  0  0  0  0  0  0
  151.2385  141.4751  160.0503 H   0  0  0  0  0  0  0  0  0  0  0  0
  153.2088  143.0076  160.2244 H   0  0  0  0  0  0  0  0  0  0  0  0
  153.5623  142.7432  158.5419 H   0  0  0  0  0  0  0  0  0  0  0  0
  150.1353  145.0838  159.7548 H   0  0  0  0  0  0  0  0  0  0  0  0
  151.5089  144.9098  160.8323 H   0  0  0  0  0  0  0  0  0  0  0  0
  150.4649  143.5562  160.5689 H   0  0  0  0  0  0  0  0  0  0  0  0
  152.1063  146.0831  158.2870 H   0  0  0  0  0  0  0  0  0  0  0  0
  153.3893  145.0207  157.7258 H   0  0  0  0  0  0  0  0  0  0  0  0
  153.3237  145.4959  159.4125 H   0  0  0  0  0  0  0  0  0  0  0  0
  150.2560  144.4169  157.4069 H   0  0  0  0  0  0  0  0  0  0  0  0
  151.7088  143.7555  156.7582 H   0  0  0  0  0  0  0  0  0  0  0  0
  148.6308  141.1699  158.3654 H   0  0  0  0  0  0  0  0  0  0  0  0
  149.2565  142.4502  159.3645 H   0  0  0  0  0  0  0  0  0  0  0  0
  148.3362  143.3796  157.0065 H   0  0  0  0  0  0  0  0  0  0  0  0
  149.5024  142.8625  155.7216 H   0  0  0  0  0  0  0  0  0  0  0  0
  149.1292  140.0743  156.5082 H   0  0  0  0  0  0  0  0  0  0  0  0
  147.9826  141.1878  155.7904 H   0  0  0  0  0  0  0  0  0  0  0  0
  148.4689  139.7952  153.9764 H   0  0  0  0  0  0  0  0  0  0  0  0
  149.5747  141.1261  153.6892 H   0  0  0  0  0  0  0  0  0  0  0  0
  149.6285  137.4960  153.9138 H   0  0  0  0  0  0  0  0  0  0  0  0
  153.4774  138.6681  154.8113 H   0  0  0  0  0  0  0  0  0  0  0  0
  152.2065  141.1072  157.2073 H   0  0  0  0  0  0  0  0  0  0  0  0
  150.9321  140.1677  157.9210 H   0  0  0  0  0  0  0  0  0  0  0  0
  1  2  1  0  0  0  0
  1 20  1  0  0  0  0
  1 21  1  0  0  0  0
  1 22  1  0  0  0  0
  2 19  1  0  0  0  0
  2  3  1  0  0  0  0
  2 23  1  0  0  0  0
  3  4  1  0  0  0  0
  3 24  1  0  0  0  0
  3 25  1  0  0  0  0
  4  5  1  0  0  0  0
  4  6  1  0  0  0  0
  4  7  1  0  0  0  0
  5 26  1  0  0  0  0
  5 27  1  0  0  0  0
  5 28  1  0  0  0  0
  6 29  1  0  0  0  0
  6 30  1  0  0  0  0
  6 31  1  0  0  0  0
  7  8  1  0  0  0  0
  7 32  1  0  0  0  0
  7 33  1  0  0  0  0
  8  9  1  0  0  0  0
  8 11  1  0  0  0  0
  8 19  1  0  0  0  0
  9 10  1  0  0  0  0
  9 34  1  0  0  0  0
  9 35  1  0  0  0  0
 10 36  1  0  0  0  0
 11 12  1  0  0  0  0
 11 37  1  0  0  0  0
 12 13  1  0  0  0  0
 12 38  1  0  0  0  0
 12 39  1  0  0  0  0
 13 14  1  0  0  0  0
 13 40  1  0  0  0  0
 13 41  1  0  0  0  0
 14 18  1  0  0  0  0
 14 15  1  0  0  0  0
 15 16  2  0  0  0  0
 15 42  1  0  0  0  0
 16 17  1  0  0  0  0
 17 18  2  0  0  0  0
 17 43  1  0  0  0  0
 19 44  1  0  0  0  0
 19 45  1  0  0  0  0
M  END
> <s_m_source_file>
AV-unprocessed.smi

> <i_m_source_file_index>
648

> <i_lp_mmshare_version>
43012

> <i_f3d_flags>
0

> <s_epik_input>
W0NIM11DMShbQ0gzXSlbQ0gyXVtDQEBIXShbQ0gzXSlbQ0gyXVtDQF0oW0NIMl0xKShbQ0gyXVtPSF0pW05IXVtDSDJdW0NIMl1uMltjSF1uW2NIXW4y

> <s_epik_cmdline>
J2VwaWtfcHl0aG9uJywgJy1waCcsICc3LjAnLCAnLXRuJywgJzgnLCAnLW1hJywgJzIwMCcsICctbWV0YWxfYmluZGluZycsICctaW1hZScsICc8aW5maWxlLm1hZT4nLCAnLW9tYWUnLCAnPG91dGZpbGUubWFlPic=

> <r_lp_tautomer_probability>
1

> <r_epik_Ionization_Penalty>
2.45849

> <r_epik_Ionization_Penalty_Charging>
0

> <r_epik_Ionization_Penalty_Neutral>
2.45849

> <r_epik_State_Penalty>
2.62037

> <r_epik_Charging_Adjusted_Penalty>
2.62037

> <i_epik_Tot_Q>
0

> <i_epik_Tot_abs_Q>
0

> <r_epik_Metal_State_Penalty>
2.62024

> <b_epik_Metal_Only>
0

> <s_lp_Force_Field>
OPLS_2005

> <r_lp_Energy>
36.0578

> <b_lp_Chiralities_Consistent>
1

> <s_lp_Variant>
AV-unprocessed.smi:648-6

> <Gold.Version>
5.8.1

> <Gold.Id.Protein>
6NUR|6NUR_protein|mol2

> <Gold.PLP.Fitness>
52.2677

> <Gold.PLP.PLP>
-42.7492

> <Gold.PLP.part.hbond>
-4.8275

> <Gold.PLP.part.metal>
0.0000

> <Gold.PLP.part.buried>
-3.0097

> <Gold.PLP.part.nonpolar>
-34.0948

> <Gold.PLP.part.repulsive>
0.2138

> <Gold.PLP.ligand.clash>
0.0000

> <Gold.PLP.ligand.torsion>
0.5311

> <Gold.PLP.Chemscore.Hbond>
2.5162

> <Gold.PLP.Chemscore.CHOScore>
1.0000

> <Gold.PLP.Chemscore.Metal>
0.0000

> <Gold.Chemscore.Hbonds>
donor molecule, donor type, donor heavy atom, donor atom, acceptor molecule, acceptor atom, score
      L1  H    10    36       P1  8028  0.80
      L1  H    11    37       P1  8028  1.00
      P1  H  7989  7998       L1    18  0.55
      P1  H 10752 10764       L1    16  0.05
      L1  C    15    42       P1  7948  1.00

> <Gold.PLP.Chemscore.Internal.Correction>
0.0323

> <Gold.Rescore>
     Score         DG    S(hbond)    S(metal)    S(lipo)     H(rot)  DE(clash)    DE(int)     intcor
     12.66     -14.79       1.60        0.00     102.28       3.12       0.57       1.57       ----

> <Gold.Chemscore.Fitness>
12.6578

> <Gold.Chemscore.DG>
-14.7930

> <Gold.Chemscore.ZeroCoef>
-5.4800

> <Gold.Chemscore.Hbond>
1.5957

> <Gold.Chemscore.Metal>
0.0000

> <Gold.Chemscore.Lipo>
102.2765

> <Gold.Chemscore.Internal_Hbond>
0.0000

> <Gold.Chemscore.DEClash>
0.5662

> <Gold.Chemscore.DEInternal>
1.5690

> <Gold.Chemscore.Rot>
3.1183

> <Gold.Chemscore.Internal.Correction>
   9.000000E+99

> <Gold.Chemscore.Hbonds>
donor molecule, donor type, donor heavy atom, donor atom, acceptor molecule, acceptor atom, score
      L1  H    10    36       P1  8028  0.12
      L1  H    11    37       P1  8028  0.98
      P1  H  7989  7998       L1    18  0.03
      P1  H 10752 10764       L1    16  0.06

> <Gold.Chemscore.Hbond.Weighted>
-5.3296

> <Gold.Chemscore.Metal.Weighted>
-0.0000

> <Gold.Chemscore.Lipo.Weighted>
-11.9664

> <Gold.Chemscore.Internal_Hbond.Weighted>
0.0000

> <Gold.Chemscore.DEClash.Weighted>
0.5662

> <Gold.Chemscore.DEInternal.Weighted>
1.5690

> <Gold.Chemscore.Rot.Weighted>
7.9829

> <Gold.Chemscore.Internal.Correction.Weighted>
   9.000000E+99

> <Gold.Protein.RotatedTorsions>
[ 6907 6896 6895 6894 ] final   74.23 input  -60.11 | X-H torsion
[ 7974 7965 7964 7962 ] final -139.89 input  175.53 | X-H torsion
[ 8008 7997 7996 7995 ] final  -36.59 input   59.86 | X-H torsion
[ 10167 10162 10161 10158 ] final   46.00 input  -65.29 | X-H torsion
[ 10718 10713 10712 10709 ] final   73.71 input   66.30 | X-H torsion
[ 10763 10752 10751 10750 ] final -112.69 input  -60.55 | X-H torsion
[ 11005 11000 10999 10996 ] final  177.09 input  -57.11 | X-H torsion

> <Gold.Protein.ActiveResidues>
 VAL166  LYS551  ARG553  GLY616  TRP617  ASP618  TYR619  PRO620  LYS621  CYS622 
 ASP623  PHE694  ASN695  SER759  ASP760  ASP761  ALA762  ILE779  LEU786  VAL792 
 PHE793  MET794  SER795  GLU796  ALA797  LYS798  CYS799  TRP800  GLU811  SER814 

> <Gold.Protein.RotatedAtoms>
  152.4965  134.4302  159.9509 H   0  0  0  0  0  0  0  0  0  0  0  0  # atno 6907 bound_to 6896
  151.4280  133.3672  159.2773 H   0  0  0  0  0  0  0  0  0  0  0  0  # atno 6908 bound_to 6896
  150.9175  134.8615  159.7526 H   0  0  0  0  0  0  0  0  0  0  0  0  # atno 6909 bound_to 6896
  144.8641  140.6265  143.5309 H   0  0  0  0  0  0  0  0  0  0  0  0  # atno 7974 bound_to 7965
  154.4070  140.1626  156.2399 H   0  0  0  0  0  0  0  0  0  0  0  0  # atno 8008 bound_to 7997
  155.9210  140.3421  155.6150 H   0  0  0  0  0  0  0  0  0  0  0  0  # atno 8009 bound_to 7997
  155.7222  140.0770  157.2316 H   0  0  0  0  0  0  0  0  0  0  0  0  # atno 8010 bound_to 7997
  140.3184  144.2735  150.6187 H   0  0  0  0  0  0  0  0  0  0  0  0  # atno 10167 bound_to 10162
  157.6560  130.9642  150.1107 H   0  0  0  0  0  0  0  0  0  0  0  0  # atno 10718 bound_to 10713
  154.8361  135.4481  154.1232 H   0  0  0  0  0  0  0  0  0  0  0  0  # atno 10763 bound_to 10752
  153.2463  135.6922  153.7734 H   0  0  0  0  0  0  0  0  0  0  0  0  # atno 10764 bound_to 10752
  153.7063  135.3364  155.3212 H   0  0  0  0  0  0  0  0  0  0  0  0  # atno 10765 bound_to 10752
  140.3803  134.6952  157.4447 H   0  0  0  0  0  0  0  0  0  0  0  0  # atno 11005 bound_to 11000
  145.4256  139.1557  143.4050 LP  0  0  0  0  0  0  0  0  0  0  0  0  # atno 17320 bound_to 7965
  146.2882  140.4369  142.8749 LP  0  0  0  0  0  0  0  0  0  0  0  0  # atno 17321 bound_to 7965
  140.5505  143.2207  151.7934 LP  0  0  0  0  0  0  0  0  0  0  0  0  # atno 17342 bound_to 10162
  139.4879  144.4482  151.9685 LP  0  0  0  0  0  0  0  0  0  0  0  0  # atno 17343 bound_to 10162
  156.2005  130.3660  149.8794 LP  0  0  0  0  0  0  0  0  0  0  0  0  # atno 17370 bound_to 10713
  156.6699  130.8816  151.3560 LP  0  0  0  0  0  0  0  0  0  0  0  0  # atno 17371 bound_to 10713
  140.0483  134.6167  155.8893 LP  0  0  0  0  0  0  0  0  0  0  0  0  # atno 17394 bound_to 11000
  141.1925  133.6575  156.5507 LP  0  0  0  0  0  0  0  0  0  0  0  0  # atno 17395 bound_to 11000

$$$$
