AV-unprocessed.smi:2173|AV-procd|sdf|8839|dock1
  -GOLD-   2272012 33D 1   1.00000     0.00000
 Structure written by MMmdl.
 35 36  0  0  0  0  0  0  0  0  1 V2000
  154.5852  140.1378  159.3155 O   0  0  0  0  0  0  0  0  0  0  0  0
  154.2693  140.6240  160.4019 C   0  0  0  0  0  0  0  0  0  0  0  0
  154.3921  139.9669  161.5651 N   0  0  0  0  0  0  0  0  0  0  0  0
  154.9803  138.6405  161.7219 C   0  0  0  0  0  0  0  0  0  0  0  0
  153.9819  137.5966  162.2654 C   0  0  0  0  0  0  0  0  0  0  0  0
  154.6440  136.3633  162.8595 C   0  0  0  0  0  0  0  0  0  0  0  0
  154.5832  136.1160  164.2474 C   0  0  0  0  0  0  0  0  0  0  0  0
  155.2320  134.9731  164.7545 C   0  0  0  0  0  0  0  0  0  0  0  0
  155.9144  134.1265  163.8596 C   0  0  0  0  0  0  0  0  0  0  0  0
  155.9157  134.4602  162.4908 C   0  0  0  0  0  0  0  0  0  0  0  0
  155.2964  135.5526  161.9949 N   0  0  0  0  0  0  0  0  0  0  0  0
  153.7230  142.0552  160.4829 C   0  0  1  0  0  0  0  0  0  0  0  0
  152.6693  142.3031  159.3794 C   0  0  0  0  0  0  0  0  0  0  0  0
  151.9302  143.6144  159.5777 C   0  0  0  0  0  0  0  0  0  0  0  0
  151.9374  144.2991  160.7341 C   0  0  0  0  0  0  0  0  0  0  0  0
  152.6807  143.8366  161.9753 C   0  0  0  0  0  0  0  0  0  0  0  0
  153.1326  142.3668  161.8728 C   0  0  0  0  0  0  0  0  0  0  0  0
  154.1066  140.4415  162.4093 H   0  0  0  0  0  0  0  0  0  0  0  0
  155.3332  138.3244  160.7400 H   0  0  0  0  0  0  0  0  0  0  0  0
  155.8620  138.6920  162.3627 H   0  0  0  0  0  0  0  0  0  0  0  0
  153.3492  138.0588  163.0236 H   0  0  0  0  0  0  0  0  0  0  0  0
  153.3074  137.2834  161.4671 H   0  0  0  0  0  0  0  0  0  0  0  0
  154.0560  136.7878  164.9088 H   0  0  0  0  0  0  0  0  0  0  0  0
  155.2083  134.7508  165.8109 H   0  0  0  0  0  0  0  0  0  0  0  0
  156.4242  133.2426  164.2132 H   0  0  0  0  0  0  0  0  0  0  0  0
  156.4290  133.8346  161.7754 H   0  0  0  0  0  0  0  0  0  0  0  0
  154.5534  142.7448  160.3184 H   0  0  0  0  0  0  0  0  0  0  0  0
  153.1560  142.3229  158.4037 H   0  0  0  0  0  0  0  0  0  0  0  0
  151.9307  141.5008  159.3481 H   0  0  0  0  0  0  0  0  0  0  0  0
  151.3686  143.9885  158.7343 H   0  0  0  0  0  0  0  0  0  0  0  0
  151.4026  145.2347  160.8074 H   0  0  0  0  0  0  0  0  0  0  0  0
  153.5438  144.4882  162.1134 H   0  0  0  0  0  0  0  0  0  0  0  0
  152.0409  143.9681  162.8481 H   0  0  0  0  0  0  0  0  0  0  0  0
  152.2750  141.7177  162.0578 H   0  0  0  0  0  0  0  0  0  0  0  0
  153.8573  142.1495  162.6586 H   0  0  0  0  0  0  0  0  0  0  0  0
  1  2  2  0  0  0  0
  2  3  1  0  0  0  0
  2 12  1  0  0  0  0
  3  4  1  0  0  0  0
  3 18  1  0  0  0  0
  4  5  1  0  0  0  0
  4 19  1  0  0  0  0
  4 20  1  0  0  0  0
  5  6  1  0  0  0  0
  5 21  1  0  0  0  0
  5 22  1  0  0  0  0
  6 11  1  0  0  0  0
  6  7  2  0  0  0  0
  7  8  1  0  0  0  0
  7 23  1  0  0  0  0
  8  9  2  0  0  0  0
  8 24  1  0  0  0  0
  9 10  1  0  0  0  0
  9 25  1  0  0  0  0
 10 11  2  0  0  0  0
 10 26  1  0  0  0  0
 12 17  1  0  0  0  0
 12 13  1  0  0  0  0
 12 27  1  0  0  0  0
 13 14  1  0  0  0  0
 13 28  1  0  0  0  0
 13 29  1  0  0  0  0
 14 15  2  0  0  0  0
 14 30  1  0  0  0  0
 15 16  1  0  0  0  0
 15 31  1  0  0  0  0
 16 17  1  0  0  0  0
 16 32  1  0  0  0  0
 16 33  1  0  0  0  0
 17 34  1  0  0  0  0
 17 35  1  0  0  0  0
M  END
> <s_m_source_file>
AV-unprocessed.smi

> <i_m_source_file_index>
2173

> <i_lp_mmshare_version>
43012

> <i_f3d_flags>
0

> <s_epik_input>
W0NIMl0xW0NIMl1bQ0hdPVtDSF1bQ0gyXVtDQEhdMUMoPU8pW05IXVtDSDJdW0NIMl1jMltjSF1bY0hdW2NIXVtjSF1uMg==

> <s_epik_cmdline>
J2VwaWtfcHl0aG9uJywgJy1waCcsICc3LjAnLCAnLXRuJywgJzgnLCAnLW1hJywgJzIwMCcsICctbWV0YWxfYmluZGluZycsICctaW1hZScsICc8aW5maWxlLm1hZT4nLCAnLW9tYWUnLCAnPG91dGZpbGUubWFlPic=

> <r_epik_Ionization_Penalty>
0.0268825

> <r_epik_Ionization_Penalty_Charging>
0

> <r_epik_Ionization_Penalty_Neutral>
0.0268825

> <r_epik_State_Penalty>
0.0219706

> <r_epik_Charging_Adjusted_Penalty>
0.0219706

> <i_epik_Tot_Q>
0

> <i_epik_Tot_abs_Q>
0

> <r_epik_Metal_State_Penalty>
0.0210138

> <b_epik_Metal_Only>
0

> <s_lp_Force_Field>
OPLS_2005

> <r_lp_Energy>
8.2635

> <b_lp_Chiralities_Consistent>
1

> <s_lp_Variant>
AV-unprocessed.smi:2173-2

> <Gold.Version>
5.8.1

> <Gold.Id.Protein>
6NUR|6NUR_protein|mol2

> <Gold.PLP.Fitness>
43.5005

> <Gold.PLP.PLP>
-42.3632

> <Gold.PLP.part.hbond>
-1.0000

> <Gold.PLP.part.metal>
0.0000

> <Gold.PLP.part.buried>
-3.7742

> <Gold.PLP.part.nonpolar>
-37.2617

> <Gold.PLP.part.repulsive>
0.0082

> <Gold.PLP.ligand.clash>
0.8030

> <Gold.PLP.ligand.torsion>
0.4753

> <Gold.PLP.Chemscore.Hbond>
0.9357

> <Gold.PLP.Chemscore.CHOScore>
0.0000

> <Gold.PLP.Chemscore.Metal>
0.0000

> <Gold.Chemscore.Hbonds>
donor molecule, donor type, donor heavy atom, donor atom, acceptor molecule, acceptor atom, score
      P1  H  7997  8010       L1     1  0.92

> <Gold.PLP.Chemscore.Internal.Correction>
0.0837

> <Gold.Rescore>
     Score         DG    S(hbond)    S(metal)    S(lipo)     H(rot)  DE(clash)    DE(int)     intcor
     18.55     -18.80       0.96        0.00     116.94       1.39       0.04       0.21       ----

> <Gold.Chemscore.Fitness>
18.5514

> <Gold.Chemscore.DG>
-18.8042

> <Gold.Chemscore.ZeroCoef>
-5.4800

> <Gold.Chemscore.Hbond>
0.9588

> <Gold.Chemscore.Metal>
0.0000

> <Gold.Chemscore.Lipo>
116.9386

> <Gold.Chemscore.Internal_Hbond>
0.0000

> <Gold.Chemscore.DEClash>
0.0387

> <Gold.Chemscore.DEInternal>
0.2141

> <Gold.Chemscore.Rot>
1.3907

> <Gold.Chemscore.Internal.Correction>
   9.000000E+99

> <Gold.Chemscore.Hbonds>
donor molecule, donor type, donor heavy atom, donor atom, acceptor molecule, acceptor atom, score
      P1  H  7997  8010       L1     1  0.84

> <Gold.Chemscore.Hbond.Weighted>
-3.2025

> <Gold.Chemscore.Metal.Weighted>
-0.0000

> <Gold.Chemscore.Lipo.Weighted>
-13.6818

> <Gold.Chemscore.Internal_Hbond.Weighted>
0.0000

> <Gold.Chemscore.DEClash.Weighted>
0.0387

> <Gold.Chemscore.DEInternal.Weighted>
0.2141

> <Gold.Chemscore.Rot.Weighted>
3.5601

> <Gold.Chemscore.Internal.Correction.Weighted>
   9.000000E+99

> <Gold.Protein.RotatedTorsions>
[ 6907 6896 6895 6894 ] final  163.34 input  -60.11 | X-H torsion
[ 7974 7965 7964 7962 ] final  -97.02 input  175.53 | X-H torsion
[ 8008 7997 7996 7995 ] final   -1.81 input   59.86 | X-H torsion
[ 10167 10162 10161 10158 ] final  106.66 input  -65.29 | X-H torsion
[ 10718 10713 10712 10709 ] final    0.58 input   66.30 | X-H torsion
[ 10763 10752 10751 10750 ] final  136.93 input  -60.55 | X-H torsion
[ 11005 11000 10999 10996 ] final -175.00 input  -57.11 | X-H torsion

> <Gold.Protein.ActiveResidues>
 VAL166  LYS551  ARG553  GLY616  TRP617  ASP618  TYR619  PRO620  LYS621  CYS622 
 ASP623  PHE694  ASN695  SER759  ASP760  ASP761  ALA762  ILE779  LEU786  VAL792 
 PHE793  MET794  SER795  GLU796  ALA797  LYS798  CYS799  TRP800  GLU811  SER814 

> <Gold.Protein.RotatedAtoms>
  151.9267  133.3600  159.3915 H   0  0  0  0  0  0  0  0  0  0  0  0  # atno 6907 bound_to 6896
  150.7025  134.4580  159.5376 H   0  0  0  0  0  0  0  0  0  0  0  0  # atno 6908 bound_to 6896
  152.2213  134.8410  160.0536 H   0  0  0  0  0  0  0  0  0  0  0  0  # atno 6909 bound_to 6896
  145.3392  140.9456  143.2617 H   0  0  0  0  0  0  0  0  0  0  0  0  # atno 7974 bound_to 7965
  154.6427  140.2550  155.7303 H   0  0  0  0  0  0  0  0  0  0  0  0  # atno 8008 bound_to 7997
  156.2537  140.2884  156.0748 H   0  0  0  0  0  0  0  0  0  0  0  0  # atno 8009 bound_to 7997
  155.1571  140.0383  157.2824 H   0  0  0  0  0  0  0  0  0  0  0  0  # atno 8010 bound_to 7997
  139.6991  144.7097  151.1216 H   0  0  0  0  0  0  0  0  0  0  0  0  # atno 10167 bound_to 10162
  156.8354  130.5503  149.5682 H   0  0  0  0  0  0  0  0  0  0  0  0  # atno 10718 bound_to 10713
  153.8647  135.3063  155.3439 H   0  0  0  0  0  0  0  0  0  0  0  0  # atno 10763 bound_to 10752
  154.7833  135.4824  153.9894 H   0  0  0  0  0  0  0  0  0  0  0  0  # atno 10764 bound_to 10752
  153.1441  135.6830  153.9077 H   0  0  0  0  0  0  0  0  0  0  0  0  # atno 10765 bound_to 10752
  140.4682  134.6191  157.4871 H   0  0  0  0  0  0  0  0  0  0  0  0  # atno 11005 bound_to 11000
  144.8803  139.4913  143.6726 LP  0  0  0  0  0  0  0  0  0  0  0  0  # atno 17320 bound_to 7965
  146.3014  139.7439  142.9088 LP  0  0  0  0  0  0  0  0  0  0  0  0  # atno 17321 bound_to 7965
  140.7704  143.5449  150.9270 LP  0  0  0  0  0  0  0  0  0  0  0  0  # atno 17342 bound_to 10162
  139.9130  143.6697  152.3111 LP  0  0  0  0  0  0  0  0  0  0  0  0  # atno 17343 bound_to 10162
  156.0910  130.5896  150.9733 LP  0  0  0  0  0  0  0  0  0  0  0  0  # atno 17370 bound_to 10713
  157.6384  131.0913  150.8301 LP  0  0  0  0  0  0  0  0  0  0  0  0  # atno 17371 bound_to 10713
  139.9902  134.6997  155.9703 LP  0  0  0  0  0  0  0  0  0  0  0  0  # atno 17394 bound_to 11000
  141.1589  133.6540  156.4254 LP  0  0  0  0  0  0  0  0  0  0  0  0  # atno 17395 bound_to 11000

$$$$
