AV-unprocessed.smi:1041|AV-procd|sdf|4533|dock1
  -GOLD-   22720 2553D 1   1.00000     0.00000
 Structure written by MMmdl.
 52 53  0  0  0  0  0  0  0  0  3 V2000
  145.6809  131.3958  151.4382 C   0  0  0  0  0  0  0  0  0  0  0  0
  145.4395  132.6455  150.8153 O   0  0  0  0  0  0  0  0  0  0  0  0
  145.9942  133.7313  151.5395 C   0  0  0  0  0  0  0  0  0  0  0  0
  145.6309  135.0423  150.8259 C   0  0  0  0  0  0  0  0  0  0  0  0
  146.2238  136.2320  151.4884 N   0  3  2  0  0  0  0  0  0  0  0  0
  145.7579  136.3838  152.8901 C   0  0  0  0  0  0  0  0  0  0  0  0
  146.4932  137.5322  153.5970 C   0  0  0  0  0  0  0  0  0  0  0  0
  146.3244  138.8630  152.8344 C   0  0  1  0  0  0  0  0  0  0  0  0
  147.0605  140.0434  153.5018 C   0  0  0  0  0  0  0  0  0  0  0  0
  148.4801  139.7462  153.6401 N   0  0  0  0  0  0  0  0  0  0  0  0
  149.1328  139.5597  154.7969 C   0  0  0  0  0  0  0  0  0  0  0  0
  148.5754  139.3890  155.8807 O   0  0  0  0  0  0  0  0  0  0  0  0
  150.6557  139.6534  154.7159 C   0  0  0  0  0  0  0  0  0  0  0  0
  151.3162  140.0434  156.0388 C   0  0  0  0  0  0  0  0  0  0  0  0
  150.9265  141.1183  156.7824 C   0  0  0  0  0  0  0  0  0  0  0  0
  149.7699  142.0206  156.3898 C   0  0  0  0  0  0  0  0  0  0  0  0
  151.6001  141.4664  157.9654 N   0  0  0  0  0  0  0  0  0  0  0  0
  152.6064  140.7752  158.3441 C   0  0  0  0  0  0  0  0  0  0  0  0
  153.3287  141.1574  159.6183 C   0  0  0  0  0  0  0  0  0  0  0  0
  153.0879  139.6814  157.6608 N   0  5  0  0  0  0  0  0  0  0  0  0
  152.4768  139.2682  156.5147 C   0  0  0  0  0  0  0  0  0  0  0  0
  152.8768  138.2953  155.8762 O   0  0  0  0  0  0  0  0  0  0  0  0
  146.7828  138.6628  151.3805 C   0  0  0  0  0  0  0  0  0  0  0  0
  146.0423  137.4900  150.7159 C   0  0  0  0  0  0  0  0  0  0  0  0
  145.2392  130.5981  150.8414 H   0  0  0  0  0  0  0  0  0  0  0  0
  145.2344  131.3583  152.4330 H   0  0  0  0  0  0  0  0  0  0  0  0
  146.7498  131.1975  151.5260 H   0  0  0  0  0  0  0  0  0  0  0  0
  145.6451  133.7257  152.5721 H   0  0  0  0  0  0  0  0  0  0  0  0
  147.0799  133.6274  151.5708 H   0  0  0  0  0  0  0  0  0  0  0  0
  145.9466  135.0097  149.7820 H   0  0  0  0  0  0  0  0  0  0  0  0
  144.5434  135.1286  150.8141 H   0  0  0  0  0  0  0  0  0  0  0  0
  144.6812  136.5607  152.9028 H   0  0  0  0  0  0  0  0  0  0  0  0
  145.9334  135.4589  153.4411 H   0  0  0  0  0  0  0  0  0  0  0  0
  146.1057  137.6164  154.6120 H   0  0  0  0  0  0  0  0  0  0  0  0
  147.5525  137.2898  153.6918 H   0  0  0  0  0  0  0  0  0  0  0  0
  145.2602  139.1053  152.8185 H   0  0  0  0  0  0  0  0  0  0  0  0
  146.8958  140.9613  152.9355 H   0  0  0  0  0  0  0  0  0  0  0  0
  146.6558  140.2189  154.4988 H   0  0  0  0  0  0  0  0  0  0  0  0
  149.0429  139.8527  152.8076 H   0  0  0  0  0  0  0  0  0  0  0  0
  151.0470  138.6915  154.3848 H   0  0  0  0  0  0  0  0  0  0  0  0
  150.9316  140.3527  153.9256 H   0  0  0  0  0  0  0  0  0  0  0  0
  148.8387  141.4550  156.3512 H   0  0  0  0  0  0  0  0  0  0  0  0
  149.9476  142.4679  155.4120 H   0  0  0  0  0  0  0  0  0  0  0  0
  149.6392  142.8307  157.1084 H   0  0  0  0  0  0  0  0  0  0  0  0
  153.0846  140.4529  160.4138 H   0  0  0  0  0  0  0  0  0  0  0  0
  153.0437  142.1582  159.9456 H   0  0  0  0  0  0  0  0  0  0  0  0
  154.4083  141.1457  159.4644 H   0  0  0  0  0  0  0  0  0  0  0  0
  146.6118  139.5744  150.8069 H   0  0  0  0  0  0  0  0  0  0  0  0
  147.8578  138.4780  151.3528 H   0  0  0  0  0  0  0  0  0  0  0  0
  146.4168  137.3704  149.7002 H   0  0  0  0  0  0  0  0  0  0  0  0
  144.9783  137.7178  150.6346 H   0  0  0  0  0  0  0  0  0  0  0  0
  147.2175  136.0582  151.5438 H   0  0  0  0  0  0  0  0  0  0  0  0
  1  2  1  0  0  0  0
  1 25  1  0  0  0  0
  1 26  1  0  0  0  0
  1 27  1  0  0  0  0
  2  3  1  0  0  0  0
  3  4  1  0  0  0  0
  3 28  1  0  0  0  0
  3 29  1  0  0  0  0
  4  5  1  0  0  0  0
  4 30  1  0  0  0  0
  4 31  1  0  0  0  0
  5 24  1  0  0  0  0
  5  6  1  0  0  0  0
  5 52  1  0  0  0  0
  6  7  1  0  0  0  0
  6 32  1  0  0  0  0
  6 33  1  0  0  0  0
  7  8  1  0  0  0  0
  7 34  1  0  0  0  0
  7 35  1  0  0  0  0
  8  9  1  0  0  0  0
  8 23  1  0  0  0  0
  8 36  1  0  0  0  0
  9 10  1  0  0  0  0
  9 37  1  0  0  0  0
  9 38  1  0  0  0  0
 10 11  1  0  0  0  0
 10 39  1  0  0  0  0
 11 12  2  0  0  0  0
 11 13  1  0  0  0  0
 13 14  1  0  0  0  0
 13 40  1  0  0  0  0
 13 41  1  0  0  0  0
 14 21  1  0  0  0  0
 14 15  2  0  0  0  0
 15 16  1  0  0  0  0
 15 17  1  0  0  0  0
 16 42  1  0  0  0  0
 16 43  1  0  0  0  0
 16 44  1  0  0  0  0
 17 18  2  0  0  0  0
 18 19  1  0  0  0  0
 18 20  1  0  0  0  0
 19 45  1  0  0  0  0
 19 46  1  0  0  0  0
 19 47  1  0  0  0  0
 20 21  1  0  0  0  0
 21 22  2  0  0  0  0
 23 24  1  0  0  0  0
 23 48  1  0  0  0  0
 23 49  1  0  0  0  0
 24 50  1  0  0  0  0
 24 51  1  0  0  0  0
M  CHG  1   5   1
M  CHG  1  20  -1
M  END
> <s_m_source_file>
AV-unprocessed.smi

> <i_m_source_file_index>
1041

> <i_lp_mmshare_version>
43012

> <i_f3d_flags>
0

> <s_epik_input>
W0NIM11PW0NIMl1bQ0gyXU4xW0NIMl1bQ0gyXVtDSF0oW0NIMl1bQ0gyXTEpW0NIMl1bTkhdQyg9TylbQ0gyXWMyYyhbQ0gzXSluYyhbQ0gzXSlbbkhdYzI9Tw==

> <s_epik_cmdline>
J2VwaWtfcHl0aG9uJywgJy1waCcsICc3LjAnLCAnLXRuJywgJzgnLCAnLW1hJywgJzIwMCcsICctbWV0YWxfYmluZGluZycsICctaW1hZScsICc8aW5maWxlLm1hZT4nLCAnLW9tYWUnLCAnPG91dGZpbGUubWFlPic=

> <r_lp_tautomer_probability>
0.839158

> <r_epik_Ionization_Penalty>
6.54961

> <r_epik_Ionization_Penalty_Charging>
0.00968647

> <r_epik_Ionization_Penalty_Neutral>
6.53992

> <r_epik_State_Penalty>
4.43892

> <r_epik_Charging_Adjusted_Penalty>
4.44861

> <i_epik_Tot_Q>
0

> <i_epik_Tot_abs_Q>
2

> <r_epik_Metal_State_Penalty>
0.818645

> <b_epik_Metal_Only>
1

> <s_lp_Force_Field>
OPLS_2005

> <r_lp_Energy>
18.5529

> <b_lp_Chiralities_Consistent>
1

> <s_lp_Variant>
AV-unprocessed.smi:1041-6

> <Gold.Version>
5.8.1

> <Gold.Id.Protein>
6NUR|6NUR_protein|mol2

> <Gold.PLP.Fitness>
49.7427

> <Gold.PLP.PLP>
-35.5275

> <Gold.PLP.part.hbond>
-3.0000

> <Gold.PLP.part.metal>
0.0000

> <Gold.PLP.part.buried>
3.3806

> <Gold.PLP.part.nonpolar>
-35.8921

> <Gold.PLP.part.repulsive>
0.2728

> <Gold.PLP.ligand.clash>
0.0036

> <Gold.PLP.ligand.torsion>
0.4951

> <Gold.PLP.Chemscore.Hbond>
5.0000

> <Gold.PLP.Chemscore.CHOScore>
0.0000

> <Gold.PLP.Chemscore.Metal>
0.0000

> <Gold.Chemscore.Hbonds>
donor molecule, donor type, donor heavy atom, donor atom, acceptor molecule, acceptor atom, score
      L1  H     5    52       P1  7948  2.00
      L1  H    10    39       P1  7957  1.00
      P1  H  7997  8009       L1    20  1.70

> <Gold.PLP.Chemscore.Internal.Correction>
0.2091

> <Gold.Rescore>
     Score         DG    S(hbond)    S(metal)    S(lipo)     H(rot)  DE(clash)    DE(int)     intcor
     15.36     -17.85       2.00        0.00     100.14       2.35       1.82       0.67       ----

> <Gold.Chemscore.Fitness>
15.3635

> <Gold.Chemscore.DG>
-17.8534

> <Gold.Chemscore.ZeroCoef>
-5.4800

> <Gold.Chemscore.Hbond>
1.9993

> <Gold.Chemscore.Metal>
0.0000

> <Gold.Chemscore.Lipo>
100.1434

> <Gold.Chemscore.Internal_Hbond>
0.0000

> <Gold.Chemscore.DEClash>
1.8154

> <Gold.Chemscore.DEInternal>
0.6745

> <Gold.Chemscore.Rot>
2.3520

> <Gold.Chemscore.Internal.Correction>
   9.000000E+99

> <Gold.Chemscore.Hbonds>
donor molecule, donor type, donor heavy atom, donor atom, acceptor molecule, acceptor atom, score
      L1  H     5    52       P1  7948  1.00
      L1  H    10    39       P1  7957  1.00
      P1  H  7997  8009       L1    20  0.22

> <Gold.Chemscore.Hbond.Weighted>
-6.6777

> <Gold.Chemscore.Metal.Weighted>
-0.0000

> <Gold.Chemscore.Lipo.Weighted>
-11.7168

> <Gold.Chemscore.Internal_Hbond.Weighted>
0.0000

> <Gold.Chemscore.DEClash.Weighted>
1.8154

> <Gold.Chemscore.DEInternal.Weighted>
0.6745

> <Gold.Chemscore.Rot.Weighted>
6.0211

> <Gold.Chemscore.Internal.Correction.Weighted>
   9.000000E+99

> <Gold.Protein.RotatedTorsions>
[ 6907 6896 6895 6894 ] final  168.49 input  -60.11 | X-H torsion
[ 7974 7965 7964 7962 ] final   36.48 input  175.53 | X-H torsion
[ 8008 7997 7996 7995 ] final  142.16 input   59.86 | X-H torsion
[ 10167 10162 10161 10158 ] final -149.50 input  -65.29 | X-H torsion
[ 10718 10713 10712 10709 ] final  154.22 input   66.30 | X-H torsion
[ 10763 10752 10751 10750 ] final  130.87 input  -60.55 | X-H torsion
[ 11005 11000 10999 10996 ] final  168.05 input  -57.11 | X-H torsion

> <Gold.Protein.ActiveResidues>
 VAL166  LYS551  ARG553  GLY616  TRP617  ASP618  TYR619  PRO620  LYS621  CYS622 
 ASP623  PHE694  ASN695  SER759  ASP760  ASP761  ALA762  ILE779  LEU786  VAL792 
 PHE793  MET794  SER795  GLU796  ALA797  LYS798  CYS799  TRP800  GLU811  SER814 

> <Gold.Protein.RotatedAtoms>
  151.8469  133.3433  159.3660 H   0  0  0  0  0  0  0  0  0  0  0  0  # atno 6907 bound_to 6896
  150.7218  134.5337  159.5722 H   0  0  0  0  0  0  0  0  0  0  0  0  # atno 6908 bound_to 6896
  152.2822  134.7816  160.0445 H   0  0  0  0  0  0  0  0  0  0  0  0  # atno 6909 bound_to 6896
  146.1208  139.6012  142.9291 H   0  0  0  0  0  0  0  0  0  0  0  0  # atno 7974 bound_to 7965
  156.2954  140.2296  156.4683 H   0  0  0  0  0  0  0  0  0  0  0  0  # atno 8008 bound_to 7997
  154.7958  140.0451  157.1256 H   0  0  0  0  0  0  0  0  0  0  0  0  # atno 8009 bound_to 7997
  154.9592  140.3052  155.5042 H   0  0  0  0  0  0  0  0  0  0  0  0  # atno 8010 bound_to 7997
  139.7437  143.8623  152.2569 H   0  0  0  0  0  0  0  0  0  0  0  0  # atno 10167 bound_to 10162
  157.2345  131.0746  151.1832 H   0  0  0  0  0  0  0  0  0  0  0  0  # atno 10718 bound_to 10713
  153.7651  135.3190  155.3343 H   0  0  0  0  0  0  0  0  0  0  0  0  # atno 10763 bound_to 10752
  154.8216  135.4599  154.0799 H   0  0  0  0  0  0  0  0  0  0  0  0  # atno 10764 bound_to 10752
  153.2042  135.6927  153.8278 H   0  0  0  0  0  0  0  0  0  0  0  0  # atno 10765 bound_to 10752
  140.2832  134.7734  157.3776 H   0  0  0  0  0  0  0  0  0  0  0  0  # atno 11005 bound_to 11000
  145.5470  141.0416  143.2299 LP  0  0  0  0  0  0  0  0  0  0  0  0  # atno 17320 bound_to 7965
  144.7595  139.6991  143.7240 LP  0  0  0  0  0  0  0  0  0  0  0  0  # atno 17321 bound_to 7965
  139.8581  144.7131  150.9133 LP  0  0  0  0  0  0  0  0  0  0  0  0  # atno 17342 bound_to 10162
  140.7789  143.3841  151.1424 LP  0  0  0  0  0  0  0  0  0  0  0  0  # atno 17343 bound_to 10162
  157.3444  130.7050  149.6401 LP  0  0  0  0  0  0  0  0  0  0  0  0  # atno 17370 bound_to 10713
  155.9673  130.4270  150.4727 LP  0  0  0  0  0  0  0  0  0  0  0  0  # atno 17371 bound_to 10713
  140.1264  134.5152  155.8141 LP  0  0  0  0  0  0  0  0  0  0  0  0  # atno 17394 bound_to 11000
  141.2159  133.6774  156.6960 LP  0  0  0  0  0  0  0  0  0  0  0  0  # atno 17395 bound_to 11000

$$$$
