AV-unprocessed.smi:620|AV-procd|sdf|3087|dock10
  -GOLD-   22720 0 13D 1   1.00000     0.00000
 Structure written by MMmdl.
 33 35  0  0  0  0  0  0  0  0  1 V2000
  152.2516  131.3822  155.4500 C   0  0  0  0  0  0  0  0  0  0  0  0
  151.0856  131.7914  154.6165 C   0  0  0  0  0  0  0  0  0  0  0  0
  150.2334  130.9108  154.0765 N   0  0  0  0  0  0  0  0  0  0  0  0
  149.2249  131.5286  153.3489 N   0  0  0  0  0  0  0  0  0  0  0  0
  149.3459  132.8590  153.3586 C   0  0  0  0  0  0  0  0  0  0  0  0
  148.3784  133.6222  152.6588 N   0  0  0  0  0  0  0  0  0  0  0  0
  147.1303  133.2616  152.3191 C   0  0  0  0  0  0  0  0  0  0  0  0
  146.6023  132.1842  152.5931 O   0  0  0  0  0  0  0  0  0  0  0  0
  146.5151  134.2362  151.6338 N   0  0  0  0  0  0  0  0  0  0  0  0
  145.1566  134.1774  151.1039 C   0  0  0  0  0  0  0  0  0  0  0  0
  144.1110  134.5696  152.1357 C   0  0  0  0  0  0  0  0  0  0  0  0
  144.3041  135.7656  153.0383 C   0  0  0  0  0  0  0  0  0  0  0  0
  144.3501  134.3694  153.6143 C   0  0  0  0  0  0  0  0  0  0  0  0
  144.8441  132.8070  150.5307 C   0  0  0  0  0  0  0  0  0  0  0  0
  145.4371  132.3588  149.2165 C   0  0  0  0  0  0  0  0  0  0  0  0
  143.9551  132.6417  149.3207 C   0  0  0  0  0  0  0  0  0  0  0  0
  150.7225  133.4775  154.2717 S   0  0  0  0  0  0  0  0  0  0  0  0
  152.3119  130.2955  155.5230 H   0  0  0  0  0  0  0  0  0  0  0  0
  152.1526  131.7940  156.4543 H   0  0  0  0  0  0  0  0  0  0  0  0
  153.1757  131.7547  155.0078 H   0  0  0  0  0  0  0  0  0  0  0  0
  148.6743  134.5455  152.3784 H   0  0  0  0  0  0  0  0  0  0  0  0
  147.0281  135.0881  151.4603 H   0  0  0  0  0  0  0  0  0  0  0  0
  145.0860  134.8880  150.2776 H   0  0  0  0  0  0  0  0  0  0  0  0
  143.0894  134.4055  151.7970 H   0  0  0  0  0  0  0  0  0  0  0  0
  145.2452  136.3081  152.9761 H   0  0  0  0  0  0  0  0  0  0  0  0
  143.4294  136.3737  153.2591 H   0  0  0  0  0  0  0  0  0  0  0  0
  143.5063  134.0433  154.2187 H   0  0  0  0  0  0  0  0  0  0  0  0
  145.3213  133.9929  153.9291 H   0  0  0  0  0  0  0  0  0  0  0  0
  144.7485  132.0329  151.2901 H   0  0  0  0  0  0  0  0  0  0  0  0
  146.0478  133.0722  148.6664 H   0  0  0  0  0  0  0  0  0  0  0  0
  145.7467  131.3189  149.1339 H   0  0  0  0  0  0  0  0  0  0  0  0
  143.2777  131.7903  149.3089 H   0  0  0  0  0  0  0  0  0  0  0  0
  143.5839  133.5398  148.8313 H   0  0  0  0  0  0  0  0  0  0  0  0
  1  2  1  0  0  0  0
  1 18  1  0  0  0  0
  1 19  1  0  0  0  0
  1 20  1  0  0  0  0
  2 17  1  0  0  0  0
  2  3  2  0  0  0  0
  3  4  1  0  0  0  0
  4  5  2  0  0  0  0
  5  6  1  0  0  0  0
  5 17  1  0  0  0  0
  6  7  1  0  0  0  0
  6 21  1  0  0  0  0
  7  8  2  0  0  0  0
  7  9  1  0  0  0  0
  9 10  1  0  0  0  0
  9 22  1  0  0  0  0
 10 11  1  0  0  0  0
 10 14  1  0  0  0  0
 10 23  1  0  0  0  0
 11 13  1  0  0  0  0
 11 12  1  0  0  0  0
 11 24  1  0  0  0  0
 12 13  1  0  0  0  0
 12 25  1  0  0  0  0
 12 26  1  0  0  0  0
 13 27  1  0  0  0  0
 13 28  1  0  0  0  0
 14 16  1  0  0  0  0
 14 15  1  0  0  0  0
 14 29  1  0  0  0  0
 15 16  1  0  0  0  0
 15 30  1  0  0  0  0
 15 31  1  0  0  0  0
 16 32  1  0  0  0  0
 16 33  1  0  0  0  0
M  END
> <s_m_source_file>
AV-unprocessed.smi

> <i_m_source_file_index>
620

> <i_lp_mmshare_version>
43012

> <i_f3d_flags>
0

> <s_epik_input>
W0NIM11jMW5uYyhzMSlbTkhdQyg9TylbTkhdW0NIXShbQ0hdMltDSDJdW0NIMl0yKVtDSF0zW0NIMl1bQ0gyXTM=

> <s_epik_cmdline>
J2VwaWtfcHl0aG9uJywgJy1waCcsICc3LjAnLCAnLXRuJywgJzgnLCAnLW1hJywgJzIwMCcsICctbWV0YWxfYmluZGluZycsICctaW1hZScsICc8aW5maWxlLm1hZT4nLCAnLW9tYWUnLCAnPG91dGZpbGUubWFlPic=

> <r_lp_tautomer_probability>
1

> <r_epik_Ionization_Penalty>
0.000349386

> <r_epik_Ionization_Penalty_Charging>
0

> <r_epik_Ionization_Penalty_Neutral>
0.000349386

> <r_epik_State_Penalty>
-0

> <r_epik_Charging_Adjusted_Penalty>
0

> <i_epik_Tot_Q>
0

> <i_epik_Tot_abs_Q>
0

> <r_epik_Metal_State_Penalty>
0.178889

> <b_epik_Metal_Only>
0

> <s_lp_Force_Field>
OPLS_2005

> <r_lp_Energy>
21.1743

> <b_lp_Chiralities_Consistent>
1

> <s_lp_Variant>
AV-unprocessed.smi:620-1

> <Gold.Version>
5.8.1

> <Gold.Id.Protein>
6NUR|6NUR_protein|mol2

> <Gold.PLP.Fitness>
34.6710

> <Gold.PLP.PLP>
-30.7895

> <Gold.PLP.part.hbond>
-1.9427

> <Gold.PLP.part.metal>
0.0000

> <Gold.PLP.part.buried>
-5.2469

> <Gold.PLP.part.nonpolar>
-23.6276

> <Gold.PLP.part.repulsive>
0.2200

> <Gold.PLP.ligand.clash>
0.0000

> <Gold.PLP.ligand.torsion>
1.5302

> <Gold.PLP.Chemscore.Hbond>
1.6076

> <Gold.PLP.Chemscore.CHOScore>
0.0000

> <Gold.PLP.Chemscore.Metal>
0.0000

> <Gold.Chemscore.Hbonds>
donor molecule, donor type, donor heavy atom, donor atom, acceptor molecule, acceptor atom, score
      L1  H     6    21       P1  7948  0.40
      L1  H     9    22       P1  7948  0.47

> <Gold.PLP.Chemscore.Internal.Correction>
2.1191

> <Gold.Rescore>
     Score         DG    S(hbond)    S(metal)    S(lipo)     H(rot)  DE(clash)    DE(int)     intcor
      9.72     -14.04       1.58        0.00      59.46       1.44       0.07       4.25       ----

> <Gold.Chemscore.Fitness>
9.7227

> <Gold.Chemscore.DG>
-14.0352

> <Gold.Chemscore.ZeroCoef>
-5.4800

> <Gold.Chemscore.Hbond>
1.5825

> <Gold.Chemscore.Metal>
0.0000

> <Gold.Chemscore.Lipo>
59.4550

> <Gold.Chemscore.Internal_Hbond>
0.0000

> <Gold.Chemscore.DEClash>
0.0653

> <Gold.Chemscore.DEInternal>
4.2472

> <Gold.Chemscore.Rot>
1.4400

> <Gold.Chemscore.Internal.Correction>
   9.000000E+99

> <Gold.Chemscore.Hbonds>
donor molecule, donor type, donor heavy atom, donor atom, acceptor molecule, acceptor atom, score
      L1  H     6    21       P1  7948  0.01
      L1  H     9    22       P1  7948  0.41

> <Gold.Chemscore.Hbond.Weighted>
-5.2854

> <Gold.Chemscore.Metal.Weighted>
-0.0000

> <Gold.Chemscore.Lipo.Weighted>
-6.9562

> <Gold.Chemscore.Internal_Hbond.Weighted>
0.0000

> <Gold.Chemscore.DEClash.Weighted>
0.0653

> <Gold.Chemscore.DEInternal.Weighted>
4.2472

> <Gold.Chemscore.Rot.Weighted>
3.6864

> <Gold.Chemscore.Internal.Correction.Weighted>
   9.000000E+99

> <Gold.Protein.RotatedTorsions>
[ 6907 6896 6895 6894 ] final  108.11 input  -60.11 | X-H torsion
[ 7974 7965 7964 7962 ] final  -88.84 input  175.53 | X-H torsion
[ 8008 7997 7996 7995 ] final   -1.33 input   59.86 | X-H torsion
[ 10167 10162 10161 10158 ] final  -46.37 input  -65.29 | X-H torsion
[ 10718 10713 10712 10709 ] final  100.12 input   66.30 | X-H torsion
[ 10763 10752 10751 10750 ] final  145.93 input  -60.55 | X-H torsion
[ 11005 11000 10999 10996 ] final   82.77 input  -57.11 | X-H torsion

> <Gold.Protein.ActiveResidues>
 VAL166  LYS551  ARG553  GLY616  TRP617  ASP618  TYR619  PRO620  LYS621  CYS622 
 ASP623  PHE694  ASN695  SER759  ASP760  ASP761  ALA762  ILE779  LEU786  VAL792 
 PHE793  MET794  SER795  GLU796  ALA797  LYS798  CYS799  TRP800  GLU811  SER814 

> <Gold.Protein.RotatedAtoms>
  152.5126  133.9137  159.7499 H   0  0  0  0  0  0  0  0  0  0  0  0  # atno 6907 bound_to 6896
  150.9524  133.6526  159.2776 H   0  0  0  0  0  0  0  0  0  0  0  0  # atno 6908 bound_to 6896
  151.3800  135.0943  159.9545 H   0  0  0  0  0  0  0  0  0  0  0  0  # atno 6909 bound_to 6896
  145.4478  140.9560  143.2039 H   0  0  0  0  0  0  0  0  0  0  0  0  # atno 7974 bound_to 7965
  154.6480  140.2562  155.7246 H   0  0  0  0  0  0  0  0  0  0  0  0  # atno 8008 bound_to 7997
  156.2561  140.2874  156.0822 H   0  0  0  0  0  0  0  0  0  0  0  0  # atno 8009 bound_to 7997
  155.1495  140.0382  157.2808 H   0  0  0  0  0  0  0  0  0  0  0  0  # atno 8010 bound_to 7997
  140.6820  143.2834  151.3774 H   0  0  0  0  0  0  0  0  0  0  0  0  # atno 10167 bound_to 10162
  157.6861  131.0689  150.5053 H   0  0  0  0  0  0  0  0  0  0  0  0  # atno 10718 bound_to 10713
  154.0135  135.2912  155.3389 H   0  0  0  0  0  0  0  0  0  0  0  0  # atno 10763 bound_to 10752
  154.7089  135.5158  153.8639 H   0  0  0  0  0  0  0  0  0  0  0  0  # atno 10764 bound_to 10752
  153.0712  135.6648  154.0364 H   0  0  0  0  0  0  0  0  0  0  0  0  # atno 10765 bound_to 10752
  139.9052  134.8096  156.2219 H   0  0  0  0  0  0  0  0  0  0  0  0  # atno 11005 bound_to 11000
  144.8081  139.6014  143.7042 LP  0  0  0  0  0  0  0  0  0  0  0  0  # atno 17320 bound_to 7965
  146.2521  139.6222  142.9420 LP  0  0  0  0  0  0  0  0  0  0  0  0  # atno 17321 bound_to 7965
  139.6149  144.1023  152.2336 LP  0  0  0  0  0  0  0  0  0  0  0  0  # atno 17342 bound_to 10162
  140.0449  144.5979  150.7382 LP  0  0  0  0  0  0  0  0  0  0  0  0  # atno 17343 bound_to 10162
  156.5372  130.4199  149.6172 LP  0  0  0  0  0  0  0  0  0  0  0  0  # atno 17370 bound_to 10713
  156.3017  130.7180  151.2053 LP  0  0  0  0  0  0  0  0  0  0  0  0  # atno 17371 bound_to 10713
  141.0400  133.6943  156.1581 LP  0  0  0  0  0  0  0  0  0  0  0  0  # atno 17394 bound_to 11000
  140.6970  134.4605  157.5587 LP  0  0  0  0  0  0  0  0  0  0  0  0  # atno 17395 bound_to 11000

$$$$
