AV-unprocessed.smi:275|AV-procd|sdf|2068|dock8
  -GOLD-   2262021323D 1   1.00000     0.00000
 Structure written by MMmdl.
 65 69  0  0  0  0  0  0  0  0  1 V2000
  153.3532  138.8123  158.6302 C   0  0  0  0  0  0  0  0  0  0  0  0
  153.2382  140.3207  158.9109 C   0  0  0  0  0  0  0  0  0  0  0  0
  153.4430  140.5696  160.4148 C   0  0  0  0  0  0  0  0  0  0  0  0
  151.8978  140.9007  158.4285 C   0  0  2  0  0  0  0  0  0  0  0  0
  151.8042  141.0215  156.9755 N   0  0  0  0  0  0  0  0  0  0  0  0
  151.2175  139.9236  156.2893 C   0  0  0  0  0  0  0  0  0  0  0  0
  151.1036  139.9084  154.9330 N   0  0  0  0  0  0  0  0  0  0  0  0
  150.5415  138.8714  154.3047 C   0  0  0  0  0  0  0  0  0  0  0  0
  150.0295  137.7569  154.8290 N   0  0  0  0  0  0  0  0  0  0  0  0
  150.1397  137.7610  156.1877 C   0  0  0  0  0  0  0  0  0  0  0  0
  150.7140  138.7914  156.9835 C   0  0  0  0  0  0  0  0  0  0  0  0
  150.6451  138.4482  158.3278 N   0  0  0  0  0  0  0  0  0  0  0  0
  150.0612  137.2809  158.3279 C   0  0  0  0  0  0  0  0  0  0  0  0
  149.7181  136.7965  157.0861 N   0  0  0  0  0  0  0  0  0  0  0  0
  149.0612  135.5324  156.8026 C   0  0  0  0  0  0  0  0  0  0  0  0
  149.8342  134.6527  155.7871 C   0  0  1  0  0  0  0  0  0  0  0  0
  150.9808  133.8756  156.4847 C   0  0  0  0  0  0  0  0  0  0  0  0
  150.4958  132.9906  157.4721 O   0  0  0  0  0  0  0  0  0  0  0  0
  148.8573  133.7069  155.0341 C   0  0  1  0  0  0  0  0  0  0  0  0
  147.7691  134.4094  154.2378 C   0  0  0  0  0  0  0  0  0  0  0  0
  147.2926  133.3120  153.2936 C   0  0  0  0  0  0  0  0  0  0  0  0
  148.4392  132.5161  153.0232 O   0  0  0  0  0  0  0  0  0  0  0  0
  149.4869  132.8506  153.9279 C   0  0  0  0  0  0  0  0  0  0  0  0
  150.9283  142.1753  157.1053 C   0  0  0  0  0  0  0  0  0  0  0  0
  151.5844  142.4166  158.4746 C   0  0  0  0  0  0  0  0  0  0  0  0
  150.6397  142.8626  159.6018 C   0  0  0  0  0  0  0  0  0  0  0  0
  150.1510  144.3105  159.4294 C   0  0  0  0  0  0  0  0  0  0  0  0
  151.3295  145.2899  159.3495 C   0  0  0  0  0  0  0  0  0  0  0  0
  152.3332  144.8648  158.2699 C   0  0  0  0  0  0  0  0  0  0  0  0
  152.7739  143.4039  158.4646 C   0  0  0  0  0  0  0  0  0  0  0  0
  152.5276  138.2605  159.0808 H   0  0  0  0  0  0  0  0  0  0  0  0
  154.2824  138.4074  159.0318 H   0  0  0  0  0  0  0  0  0  0  0  0
  153.3519  138.6021  157.5613 H   0  0  0  0  0  0  0  0  0  0  0  0
  154.0562  140.8145  158.3850 H   0  0  0  0  0  0  0  0  0  0  0  0
  152.6661  140.0798  161.0027 H   0  0  0  0  0  0  0  0  0  0  0  0
  153.4197  141.6292  160.6628 H   0  0  0  0  0  0  0  0  0  0  0  0
  154.4054  140.1818  160.7498 H   0  0  0  0  0  0  0  0  0  0  0  0
  151.0504  140.3453  158.8352 H   0  0  0  0  0  0  0  0  0  0  0  0
  150.4941  138.9475  153.2285 H   0  0  0  0  0  0  0  0  0  0  0  0
  149.8588  136.7385  159.2400 H   0  0  0  0  0  0  0  0  0  0  0  0
  148.9190  134.9910  157.7385 H   0  0  0  0  0  0  0  0  0  0  0  0
  148.0652  135.7718  156.4312 H   0  0  0  0  0  0  0  0  0  0  0  0
  150.2830  135.3288  155.0574 H   0  0  0  0  0  0  0  0  0  0  0  0
  151.5365  133.2601  155.7788 H   0  0  0  0  0  0  0  0  0  0  0  0
  151.6990  134.5639  156.9313 H   0  0  0  0  0  0  0  0  0  0  0  0
  150.9659  132.1738  157.4005 H   0  0  0  0  0  0  0  0  0  0  0  0
  148.3762  133.0417  155.7533 H   0  0  0  0  0  0  0  0  0  0  0  0
  146.9588  134.7947  154.8573 H   0  0  0  0  0  0  0  0  0  0  0  0
  148.1889  135.2389  153.6667 H   0  0  0  0  0  0  0  0  0  0  0  0
  146.5440  132.6880  153.7833 H   0  0  0  0  0  0  0  0  0  0  0  0
  146.8558  133.7098  152.3772 H   0  0  0  0  0  0  0  0  0  0  0  0
  150.2385  133.4189  153.3783 H   0  0  0  0  0  0  0  0  0  0  0  0
  149.9615  131.9494  154.3170 H   0  0  0  0  0  0  0  0  0  0  0  0
  151.1172  142.9493  156.3615 H   0  0  0  0  0  0  0  0  0  0  0  0
  149.8681  141.9247  157.1722 H   0  0  0  0  0  0  0  0  0  0  0  0
  149.7730  142.2025  159.6509 H   0  0  0  0  0  0  0  0  0  0  0  0
  151.1376  142.7640  160.5671 H   0  0  0  0  0  0  0  0  0  0  0  0
  149.5497  144.3869  158.5227 H   0  0  0  0  0  0  0  0  0  0  0  0
  149.4970  144.5841  160.2576 H   0  0  0  0  0  0  0  0  0  0  0  0
  150.9669  146.2984  159.1487 H   0  0  0  0  0  0  0  0  0  0  0  0
  151.8335  145.3291  160.3160 H   0  0  0  0  0  0  0  0  0  0  0  0
  151.8833  144.9869  157.2841 H   0  0  0  0  0  0  0  0  0  0  0  0
  153.2030  145.5217  158.2931 H   0  0  0  0  0  0  0  0  0  0  0  0
  153.3361  143.3361  159.3951 H   0  0  0  0  0  0  0  0  0  0  0  0
  153.4813  143.1441  157.6762 H   0  0  0  0  0  0  0  0  0  0  0  0
  1  2  1  0  0  0  0
  1 31  1  0  0  0  0
  1 32  1  0  0  0  0
  1 33  1  0  0  0  0
  2  3  1  0  0  0  0
  2  4  1  0  0  0  0
  2 34  1  0  0  0  0
  3 35  1  0  0  0  0
  3 36  1  0  0  0  0
  3 37  1  0  0  0  0
  4 25  1  0  0  0  0
  4  5  1  0  0  0  0
  4 38  1  0  0  0  0
  5  6  1  0  0  0  0
  5 24  1  0  0  0  0
  6 11  1  0  0  0  0
  6  7  2  0  0  0  0
  7  8  1  0  0  0  0
  8  9  2  0  0  0  0
  8 39  1  0  0  0  0
  9 10  1  0  0  0  0
 10 14  1  0  0  0  0
 10 11  2  0  0  0  0
 11 12  1  0  0  0  0
 12 13  2  0  0  0  0
 13 14  1  0  0  0  0
 13 40  1  0  0  0  0
 14 15  1  0  0  0  0
 15 16  1  0  0  0  0
 15 41  1  0  0  0  0
 15 42  1  0  0  0  0
 16 17  1  0  0  0  0
 16 19  1  0  0  0  0
 16 43  1  0  0  0  0
 17 18  1  0  0  0  0
 17 44  1  0  0  0  0
 17 45  1  0  0  0  0
 18 46  1  0  0  0  0
 19 23  1  0  0  0  0
 19 20  1  0  0  0  0
 19 47  1  0  0  0  0
 20 21  1  0  0  0  0
 20 48  1  0  0  0  0
 20 49  1  0  0  0  0
 21 22  1  0  0  0  0
 21 50  1  0  0  0  0
 21 51  1  0  0  0  0
 22 23  1  0  0  0  0
 23 52  1  0  0  0  0
 23 53  1  0  0  0  0
 24 25  1  0  0  0  0
 24 54  1  0  0  0  0
 24 55  1  0  0  0  0
 25 30  1  0  0  0  0
 25 26  1  0  0  0  0
 26 27  1  0  0  0  0
 26 56  1  0  0  0  0
 26 57  1  0  0  0  0
 27 28  1  0  0  0  0
 27 58  1  0  0  0  0
 27 59  1  0  0  0  0
 28 29  1  0  0  0  0
 28 60  1  0  0  0  0
 28 61  1  0  0  0  0
 29 30  1  0  0  0  0
 29 62  1  0  0  0  0
 29 63  1  0  0  0  0
 30 64  1  0  0  0  0
 30 65  1  0  0  0  0
M  END
> <s_m_source_file>
AV-unprocessed.smi

> <i_m_source_file_index>
275

> <i_lp_mmshare_version>
43012

> <i_f3d_flags>
0

> <s_epik_input>
W0NIMl0xW0NIMl1bQ0gyXVtDSDJdW0NIMl1DMTJbQ0BIXShbQ0hdKFtDSDNdKVtDSDNdKU4oW0NIMl0yKWMobltjSF1uMyljKGMzNCluW2NIXW40W0NIMl1bQ0BIXShbQ0gyXVtPSF0pW0NAQEhdNVtDSDJdW0NIMl1PW0NIMl01

> <s_epik_cmdline>
J2VwaWtfcHl0aG9uJywgJy1waCcsICc3LjAnLCAnLXRuJywgJzgnLCAnLW1hJywgJzIwMCcsICctbWV0YWxfYmluZGluZycsICctaW1hZScsICc8aW5maWxlLm1hZT4nLCAnLW9tYWUnLCAnPG91dGZpbGUubWFlPic=

> <r_lp_tautomer_probability>
1

> <r_epik_Ionization_Penalty>
0.00375122

> <r_epik_Ionization_Penalty_Charging>
0

> <r_epik_Ionization_Penalty_Neutral>
0.00375122

> <r_epik_State_Penalty>
0.00260593

> <r_epik_Charging_Adjusted_Penalty>
0.00260593

> <i_epik_Tot_Q>
0

> <i_epik_Tot_abs_Q>
0

> <r_epik_Metal_State_Penalty>
-0

> <b_epik_Metal_Only>
0

> <s_lp_Force_Field>
OPLS_2005

> <r_lp_Energy>
64.3005

> <b_lp_Chiralities_Consistent>
1

> <s_lp_Variant>
AV-unprocessed.smi:275-7

> <Gold.Version>
5.8.1

> <Gold.Id.Protein>
6NUR|6NUR_protein|mol2

> <Gold.PLP.Fitness>
52.3008

> <Gold.PLP.PLP>
-44.0301

> <Gold.PLP.part.hbond>
-2.0000

> <Gold.PLP.part.metal>
0.0000

> <Gold.PLP.part.buried>
-4.2621

> <Gold.PLP.part.nonpolar>
-37.8747

> <Gold.PLP.part.repulsive>
0.3933

> <Gold.PLP.ligand.clash>
0.0290

> <Gold.PLP.ligand.torsion>
0.6629

> <Gold.PLP.Chemscore.Hbond>
2.0000

> <Gold.PLP.Chemscore.CHOScore>
1.0000

> <Gold.PLP.Chemscore.Metal>
0.0000

> <Gold.Chemscore.Hbonds>
donor molecule, donor type, donor heavy atom, donor atom, acceptor molecule, acceptor atom, score
      P1  H  6896  6908       L1    18  1.00
      P1  H  7989  7998       L1     7  1.00
      L1  C     8    39       P1  7957  1.00

> <Gold.PLP.Chemscore.Internal.Correction>
0.6256

> <Gold.Rescore>
     Score         DG    S(hbond)    S(metal)    S(lipo)     H(rot)  DE(clash)    DE(int)     intcor
     12.12     -17.18       1.14        0.00     122.87       2.54       1.53       3.53       ----

> <Gold.Chemscore.Fitness>
12.1242

> <Gold.Chemscore.DG>
-17.1797

> <Gold.Chemscore.ZeroCoef>
-5.4800

> <Gold.Chemscore.Hbond>
1.1440

> <Gold.Chemscore.Metal>
0.0000

> <Gold.Chemscore.Lipo>
122.8663

> <Gold.Chemscore.Internal_Hbond>
0.0000

> <Gold.Chemscore.DEClash>
1.5273

> <Gold.Chemscore.DEInternal>
3.5282

> <Gold.Chemscore.Rot>
2.5377

> <Gold.Chemscore.Internal.Correction>
   9.000000E+99

> <Gold.Chemscore.Hbonds>
donor molecule, donor type, donor heavy atom, donor atom, acceptor molecule, acceptor atom, score
      P1  H  6896  6908       L1    18  0.42
      P1  H  7989  7998       L1     7  0.26

> <Gold.Chemscore.Hbond.Weighted>
-3.8209

> <Gold.Chemscore.Metal.Weighted>
-0.0000

> <Gold.Chemscore.Lipo.Weighted>
-14.3754

> <Gold.Chemscore.Internal_Hbond.Weighted>
0.0000

> <Gold.Chemscore.DEClash.Weighted>
1.5273

> <Gold.Chemscore.DEInternal.Weighted>
3.5282

> <Gold.Chemscore.Rot.Weighted>
6.4966

> <Gold.Chemscore.Internal.Correction.Weighted>
   9.000000E+99

> <Gold.Protein.RotatedTorsions>
[ 6907 6896 6895 6894 ] final  114.18 input  -60.11 | X-H torsion
[ 7974 7965 7964 7962 ] final   64.89 input  175.53 | X-H torsion
[ 8008 7997 7996 7995 ] final  142.81 input   59.86 | X-H torsion
[ 10167 10162 10161 10158 ] final  113.09 input  -65.29 | X-H torsion
[ 10718 10713 10712 10709 ] final  123.61 input   66.30 | X-H torsion
[ 10763 10752 10751 10750 ] final   81.30 input  -60.55 | X-H torsion
[ 11005 11000 10999 10996 ] final  141.56 input  -57.11 | X-H torsion

> <Gold.Protein.ActiveResidues>
 VAL166  LYS551  ARG553  GLY616  TRP617  ASP618  TYR619  PRO620  LYS621  CYS622 
 ASP623  PHE694  ASN695  SER759  ASP760  ASP761  ALA762  ILE779  LEU786  VAL792 
 PHE793  MET794  SER795  GLU796  ALA797  LYS798  CYS799  TRP800  GLU811  SER814 

> <Gold.Protein.RotatedAtoms>
  152.4817  133.8272  159.7083 H   0  0  0  0  0  0  0  0  0  0  0  0  # atno 6907 bound_to 6896
  150.8873  133.7282  159.2921 H   0  0  0  0  0  0  0  0  0  0  0  0  # atno 6908 bound_to 6896
  151.4766  135.1053  159.9818 H   0  0  0  0  0  0  0  0  0  0  0  0  # atno 6909 bound_to 6896
  145.8449  139.3218  143.0909 H   0  0  0  0  0  0  0  0  0  0  0  0  # atno 7974 bound_to 7965
  156.2942  140.2279  156.4789 H   0  0  0  0  0  0  0  0  0  0  0  0  # atno 8008 bound_to 7997
  154.7870  140.0456  157.1193 H   0  0  0  0  0  0  0  0  0  0  0  0  # atno 8009 bound_to 7997
  154.9690  140.3064  155.4999 H   0  0  0  0  0  0  0  0  0  0  0  0  # atno 8010 bound_to 7997
  139.6487  144.7127  151.2091 H   0  0  0  0  0  0  0  0  0  0  0  0  # atno 10167 bound_to 10162
  157.5651  131.1087  150.8469 H   0  0  0  0  0  0  0  0  0  0  0  0  # atno 10718 bound_to 10713
  153.1105  135.4770  154.9026 H   0  0  0  0  0  0  0  0  0  0  0  0  # atno 10763 bound_to 10752
  154.7475  135.3097  154.8620 H   0  0  0  0  0  0  0  0  0  0  0  0  # atno 10764 bound_to 10752
  153.9210  135.6855  153.4801 H   0  0  0  0  0  0  0  0  0  0  0  0  # atno 10765 bound_to 10752
  140.0410  134.9304  157.0843 H   0  0  0  0  0  0  0  0  0  0  0  0  # atno 11005 bound_to 11000
  145.9423  140.8970  143.0301 LP  0  0  0  0  0  0  0  0  0  0  0  0  # atno 17320 bound_to 7965
  144.6731  140.1566  143.7426 LP  0  0  0  0  0  0  0  0  0  0  0  0  # atno 17321 bound_to 7965
  140.7527  143.6187  150.8534 LP  0  0  0  0  0  0  0  0  0  0  0  0  # atno 17342 bound_to 10162
  139.9832  143.5928  152.2935 LP  0  0  0  0  0  0  0  0  0  0  0  0  # atno 17343 bound_to 10162
  156.8956  130.5228  149.5284 LP  0  0  0  0  0  0  0  0  0  0  0  0  # atno 17370 bound_to 10713
  156.0700  130.5735  150.9364 LP  0  0  0  0  0  0  0  0  0  0  0  0  # atno 17371 bound_to 10713
  140.4069  134.2023  155.7163 LP  0  0  0  0  0  0  0  0  0  0  0  0  # atno 17394 bound_to 11000
  141.1883  133.8263  157.1000 LP  0  0  0  0  0  0  0  0  0  0  0  0  # atno 17395 bound_to 11000

$$$$
