AV-unprocessed.smi:192|AV-procd|sdf|1495|dock8
  -GOLD-   2262019323D 1   1.00000     0.00000
 Structure written by MMmdl.
 58 60  0  0  0  0  0  0  0  0  1 V2000
  154.3063  129.6420  154.2747 C   0  0  0  0  0  0  0  0  0  0  0  0
  152.8861  129.7607  154.8469 C   0  0  0  0  0  0  0  0  0  0  0  0
  152.8305  130.2052  156.3276 C   0  0  0  0  0  0  0  0  0  0  0  0
  153.6258  129.2421  157.2374 C   0  0  0  0  0  0  0  0  0  0  0  0
  153.1366  127.7869  157.1861 C   0  0  0  0  0  0  0  0  0  0  0  0
  151.3604  130.3244  156.8063 C   0  0  0  0  0  0  0  0  0  0  0  0
  150.6018  131.3940  156.1548 N   0  0  0  0  0  0  0  0  0  0  0  0
  151.2459  132.6910  155.9572 C   0  0  0  0  0  0  0  0  0  0  0  0
  150.4775  133.8685  156.5840 C   0  0  0  0  0  0  0  0  0  0  0  0
  150.8802  135.1887  156.0753 C   0  0  0  0  0  0  0  0  0  0  0  0
  151.1973  136.2267  155.6747 N   0  0  0  0  0  0  0  0  0  0  0  0
  149.7157  131.0629  155.1846 C   0  0  0  0  0  0  0  0  0  0  0  0
  149.5573  129.7426  154.9159 N   0  0  0  0  0  0  0  0  0  0  0  0
  148.7192  129.3490  153.9527 C   0  0  0  0  0  0  0  0  0  0  0  0
  147.9488  130.0961  153.1602 N   0  0  0  0  0  0  0  0  0  0  0  0
  148.0858  131.4236  153.4424 C   0  0  0  0  0  0  0  0  0  0  0  0
  148.9408  131.9909  154.4295 C   0  0  0  0  0  0  0  0  0  0  0  0
  148.8107  133.3748  154.4236 N   0  0  0  0  0  0  0  0  0  0  0  0
  147.9464  133.6125  153.4761 C   0  0  0  0  0  0  0  0  0  0  0  0
  147.4392  132.4956  152.8524 N   0  0  0  0  0  0  0  0  0  0  0  0
  146.5151  132.4734  151.7571 C   0  0  0  0  0  0  0  0  0  0  0  0
  146.3923  133.6618  150.8014 C   0  0  0  0  0  0  0  0  0  0  0  0
  144.8918  133.3420  150.6107 C   0  0  0  0  0  0  0  0  0  0  0  0
  143.9330  134.5455  150.5961 C   0  0  0  0  0  0  0  0  0  0  0  0
  144.3030  135.5041  149.6265 O   0  0  0  0  0  0  0  0  0  0  0  0
  144.5338  132.3909  149.4487 C   0  0  0  0  0  0  0  0  0  0  0  0
  143.1645  132.0438  149.4416 O   0  0  0  0  0  0  0  0  0  0  0  0
  145.0100  132.6374  151.9810 C   0  0  0  0  0  0  0  0  0  0  0  0
  154.2710  129.4023  153.2119 H   0  0  0  0  0  0  0  0  0  0  0  0
  154.8824  128.8574  154.7635 H   0  0  0  0  0  0  0  0  0  0  0  0
  154.8531  130.5792  154.3824 H   0  0  0  0  0  0  0  0  0  0  0  0
  152.3526  130.4825  154.2281 H   0  0  0  0  0  0  0  0  0  0  0  0
  152.3575  128.8149  154.7225 H   0  0  0  0  0  0  0  0  0  0  0  0
  153.3104  131.1816  156.3985 H   0  0  0  0  0  0  0  0  0  0  0  0
  154.6862  129.2827  156.9854 H   0  0  0  0  0  0  0  0  0  0  0  0
  153.5531  129.5679  158.2739 H   0  0  0  0  0  0  0  0  0  0  0  0
  153.6684  127.1775  157.9170 H   0  0  0  0  0  0  0  0  0  0  0  0
  153.2996  127.3339  156.2088 H   0  0  0  0  0  0  0  0  0  0  0  0
  152.0723  127.7213  157.4136 H   0  0  0  0  0  0  0  0  0  0  0  0
  150.8509  129.3770  156.6268 H   0  0  0  0  0  0  0  0  0  0  0  0
  151.3180  130.4783  157.8816 H   0  0  0  0  0  0  0  0  0  0  0  0
  152.2536  132.6548  156.3727 H   0  0  0  0  0  0  0  0  0  0  0  0
  151.3721  132.8643  154.8881 H   0  0  0  0  0  0  0  0  0  0  0  0
  149.4022  133.7590  156.4424 H   0  0  0  0  0  0  0  0  0  0  0  0
  150.6509  133.8821  157.6600 H   0  0  0  0  0  0  0  0  0  0  0  0
  148.6586  128.2827  153.7923 H   0  0  0  0  0  0  0  0  0  0  0  0
  147.6491  134.6166  153.2100 H   0  0  0  0  0  0  0  0  0  0  0  0
  146.7267  131.5557  151.2058 H   0  0  0  0  0  0  0  0  0  0  0  0
  146.5592  134.6187  151.2998 H   0  0  0  0  0  0  0  0  0  0  0  0
  147.0019  133.5811  149.9011 H   0  0  0  0  0  0  0  0  0  0  0  0
  142.9055  134.2318  150.4092 H   0  0  0  0  0  0  0  0  0  0  0  0
  143.9272  135.0489  151.5633 H   0  0  0  0  0  0  0  0  0  0  0  0
  144.9682  135.1287  149.0704 H   0  0  0  0  0  0  0  0  0  0  0  0
  144.7583  132.8461  148.4839 H   0  0  0  0  0  0  0  0  0  0  0  0
  145.1252  131.4759  149.4936 H   0  0  0  0  0  0  0  0  0  0  0  0
  142.6531  132.8366  149.4934 H   0  0  0  0  0  0  0  0  0  0  0  0
  144.4621  131.6982  152.0650 H   0  0  0  0  0  0  0  0  0  0  0  0
  144.7873  133.2927  152.8254 H   0  0  0  0  0  0  0  0  0  0  0  0
  1  2  1  0  0  0  0
  1 29  1  0  0  0  0
  1 30  1  0  0  0  0
  1 31  1  0  0  0  0
  2  3  1  0  0  0  0
  2 32  1  0  0  0  0
  2 33  1  0  0  0  0
  3  4  1  0  0  0  0
  3  6  1  0  0  0  0
  3 34  1  0  0  0  0
  4  5  1  0  0  0  0
  4 35  1  0  0  0  0
  4 36  1  0  0  0  0
  5 37  1  0  0  0  0
  5 38  1  0  0  0  0
  5 39  1  0  0  0  0
  6  7  1  0  0  0  0
  6 40  1  0  0  0  0
  6 41  1  0  0  0  0
  7  8  1  0  0  0  0
  7 12  1  0  0  0  0
  8  9  1  0  0  0  0
  8 42  1  0  0  0  0
  8 43  1  0  0  0  0
  9 10  1  0  0  0  0
  9 44  1  0  0  0  0
  9 45  1  0  0  0  0
 10 11  3  0  0  0  0
 12 17  1  0  0  0  0
 12 13  2  0  0  0  0
 13 14  1  0  0  0  0
 14 15  2  0  0  0  0
 14 46  1  0  0  0  0
 15 16  1  0  0  0  0
 16 20  1  0  0  0  0
 16 17  2  0  0  0  0
 17 18  1  0  0  0  0
 18 19  2  0  0  0  0
 19 20  1  0  0  0  0
 19 47  1  0  0  0  0
 20 21  1  0  0  0  0
 21 28  1  0  0  0  0
 21 22  1  0  0  0  0
 21 48  1  0  0  0  0
 22 23  1  0  0  0  0
 22 49  1  0  0  0  0
 22 50  1  0  0  0  0
 23 24  1  0  0  0  0
 23 26  1  0  0  0  0
 23 28  1  0  0  0  0
 24 25  1  0  0  0  0
 24 51  1  0  0  0  0
 24 52  1  0  0  0  0
 25 53  1  0  0  0  0
 26 27  1  0  0  0  0
 26 54  1  0  0  0  0
 26 55  1  0  0  0  0
 27 56  1  0  0  0  0
 28 57  1  0  0  0  0
 28 58  1  0  0  0  0
M  END
> <s_m_source_file>
AV-unprocessed.smi

> <i_m_source_file_index>
192

> <i_lp_mmshare_version>
43012

> <i_f3d_flags>
0

> <s_epik_input>
W0NIM11bQ0gyXVtDSF0oW0NIMl1bQ0gzXSlbQ0gyXU4oW0NIMl1bQ0gyXUMjTiljKG5bY0hdbjEpYyhjMTIpbltjSF1uMltDSF0oW0NIMl0zKVtDSDJdQzMoW0NIMl1bT0hdKVtDSDJdW09IXQ==

> <s_epik_cmdline>
J2VwaWtfcHl0aG9uJywgJy1waCcsICc3LjAnLCAnLXRuJywgJzgnLCAnLW1hJywgJzIwMCcsICctbWV0YWxfYmluZGluZycsICctaW1hZScsICc8aW5maWxlLm1hZT4nLCAnLW9tYWUnLCAnPG91dGZpbGUubWFlPic=

> <r_lp_tautomer_probability>
1

> <r_epik_Ionization_Penalty>
0.000545077

> <r_epik_Ionization_Penalty_Charging>
0

> <r_epik_Ionization_Penalty_Neutral>
0.000545077

> <r_epik_State_Penalty>
0.000259443

> <r_epik_Charging_Adjusted_Penalty>
0.000259443

> <i_epik_Tot_Q>
0

> <i_epik_Tot_abs_Q>
0

> <r_epik_Metal_State_Penalty>
-0

> <b_epik_Metal_Only>
0

> <s_lp_Force_Field>
OPLS_2005

> <r_lp_Energy>
36.5324

> <b_lp_Chiralities_Consistent>
1

> <s_lp_Variant>
AV-unprocessed.smi:192-1

> <Gold.Version>
5.8.1

> <Gold.Id.Protein>
6NUR|6NUR_protein|mol2

> <Gold.PLP.Fitness>
56.5048

> <Gold.PLP.PLP>
-44.9240

> <Gold.PLP.part.hbond>
-5.2752

> <Gold.PLP.part.metal>
0.0000

> <Gold.PLP.part.buried>
-5.7606

> <Gold.PLP.part.nonpolar>
-35.4476

> <Gold.PLP.part.repulsive>
0.2948

> <Gold.PLP.ligand.clash>
0.0000

> <Gold.PLP.ligand.torsion>
1.7060

> <Gold.PLP.Chemscore.Hbond>
3.3488

> <Gold.PLP.Chemscore.CHOScore>
1.0000

> <Gold.PLP.Chemscore.Metal>
0.0000

> <Gold.Chemscore.Hbonds>
donor molecule, donor type, donor heavy atom, donor atom, acceptor molecule, acceptor atom, score
      L1  H    25    53       P1  7921  1.00
      L1  H    27    56       P1 10186  0.37
      P1  H 10752 10765       L1    11  0.63
      P1  H 10785 10796       L1    27  1.00
      L1  C    19    47       P1  7948  0.91

> <Gold.PLP.Chemscore.Internal.Correction>
1.9465

> <Gold.Rescore>
     Score         DG    S(hbond)    S(metal)    S(lipo)     H(rot)  DE(clash)    DE(int)     intcor
      8.98     -13.02       2.78        0.00      78.41       4.27       0.05       3.98       ----

> <Gold.Chemscore.Fitness>
8.9808

> <Gold.Chemscore.DG>
-13.0174

> <Gold.Chemscore.ZeroCoef>
-5.4800

> <Gold.Chemscore.Hbond>
2.7800

> <Gold.Chemscore.Metal>
0.0000

> <Gold.Chemscore.Lipo>
78.4104

> <Gold.Chemscore.Internal_Hbond>
0.0000

> <Gold.Chemscore.DEClash>
0.0547

> <Gold.Chemscore.DEInternal>
3.9819

> <Gold.Chemscore.Rot>
4.2663

> <Gold.Chemscore.Internal.Correction>
   9.000000E+99

> <Gold.Chemscore.Hbonds>
donor molecule, donor type, donor heavy atom, donor atom, acceptor molecule, acceptor atom, score
      L1  H    25    53       P1  7921  1.00
      L1  H    27    56       P1 10186  0.37
      P1  H 10752 10765       L1    11  0.13
      P1  H 10785 10796       L1    27  0.37

> <Gold.Chemscore.Hbond.Weighted>
-9.2852

> <Gold.Chemscore.Metal.Weighted>
-0.0000

> <Gold.Chemscore.Lipo.Weighted>
-9.1740

> <Gold.Chemscore.Internal_Hbond.Weighted>
0.0000

> <Gold.Chemscore.DEClash.Weighted>
0.0547

> <Gold.Chemscore.DEInternal.Weighted>
3.9819

> <Gold.Chemscore.Rot.Weighted>
10.9218

> <Gold.Chemscore.Internal.Correction.Weighted>
   9.000000E+99

> <Gold.Protein.RotatedTorsions>
[ 6907 6896 6895 6894 ] final  -81.32 input  -60.11 | X-H torsion
[ 7974 7965 7964 7962 ] final  -12.78 input  175.53 | X-H torsion
[ 8008 7997 7996 7995 ] final  -12.04 input   59.86 | X-H torsion
[ 10167 10162 10161 10158 ] final  -79.58 input  -65.29 | X-H torsion
[ 10718 10713 10712 10709 ] final   43.89 input   66.30 | X-H torsion
[ 10763 10752 10751 10750 ] final  177.67 input  -60.55 | X-H torsion
[ 11005 11000 10999 10996 ] final  137.96 input  -57.11 | X-H torsion

> <Gold.Protein.ActiveResidues>
 VAL166  LYS551  ARG553  GLY616  TRP617  ASP618  TYR619  PRO620  LYS621  CYS622 
 ASP623  PHE694  ASN695  SER759  ASP760  ASP761  ALA762  ILE779  LEU786  VAL792 
 PHE793  MET794  SER795  GLU796  ALA797  LYS798  CYS799  TRP800  GLU811  SER814 

> <Gold.Protein.RotatedAtoms>
  150.6914  134.3836  159.5044 H   0  0  0  0  0  0  0  0  0  0  0  0  # atno 6907 bound_to 6896
  152.1634  134.8891  160.0549 H   0  0  0  0  0  0  0  0  0  0  0  0  # atno 6908 bound_to 6896
  151.9944  133.3767  159.4194 H   0  0  0  0  0  0  0  0  0  0  0  0  # atno 6909 bound_to 6896
  146.2139  140.3107  142.8382 H   0  0  0  0  0  0  0  0  0  0  0  0  # atno 7974 bound_to 7965
  154.5412  140.2286  155.8638 H   0  0  0  0  0  0  0  0  0  0  0  0  # atno 8008 bound_to 7997
  156.1860  140.3089  155.9201 H   0  0  0  0  0  0  0  0  0  0  0  0  # atno 8009 bound_to 7997
  155.3254  140.0442  157.3031 H   0  0  0  0  0  0  0  0  0  0  0  0  # atno 8010 bound_to 7997
  140.4580  143.2462  151.8391 H   0  0  0  0  0  0  0  0  0  0  0  0  # atno 10167 bound_to 10162
  157.4208  130.7968  149.7514 H   0  0  0  0  0  0  0  0  0  0  0  0  # atno 10718 bound_to 10713
  154.4975  135.2782  155.1447 H   0  0  0  0  0  0  0  0  0  0  0  0  # atno 10763 bound_to 10752
  154.3094  135.6232  153.5462 H   0  0  0  0  0  0  0  0  0  0  0  0  # atno 10764 bound_to 10752
  152.9897  135.5716  154.5410 H   0  0  0  0  0  0  0  0  0  0  0  0  # atno 10765 bound_to 10752
  140.0150  134.9422  157.0357 H   0  0  0  0  0  0  0  0  0  0  0  0  # atno 11005 bound_to 11000
  144.8990  140.7619  143.5879 LP  0  0  0  0  0  0  0  0  0  0  0  0  # atno 17320 bound_to 7965
  145.3032  139.1843  143.4678 LP  0  0  0  0  0  0  0  0  0  0  0  0  # atno 17321 bound_to 7965
  139.4803  144.5042  151.9020 LP  0  0  0  0  0  0  0  0  0  0  0  0  # atno 17342 bound_to 10162
  140.4128  144.2347  150.5888 LP  0  0  0  0  0  0  0  0  0  0  0  0  # atno 17343 bound_to 10162
  155.9880  130.3962  150.3139 LP  0  0  0  0  0  0  0  0  0  0  0  0  # atno 17370 bound_to 10713
  157.1286  131.0266  151.2979 LP  0  0  0  0  0  0  0  0  0  0  0  0  # atno 17371 bound_to 10713
  140.4487  134.1605  155.7179 LP  0  0  0  0  0  0  0  0  0  0  0  0  # atno 17394 bound_to 11000
  141.1737  133.8558  157.1491 LP  0  0  0  0  0  0  0  0  0  0  0  0  # atno 17395 bound_to 11000

$$$$
