AV-unprocessed.smi:1287|AV-procd|sdf|5380|dock4
  -GOLD-   22720 4523D 1   1.00000     0.00000
 Structure written by MMmdl.
 44 45  0  0  0  0  0  0  0  0  1 V2000
  147.7648  133.0281  152.5342 C   0  0  0  0  0  0  0  0  0  0  0  0
  148.2324  133.4068  153.9350 C   0  0  0  0  0  0  0  0  0  0  0  0
  148.0157  132.6541  154.8844 O   0  0  0  0  0  0  0  0  0  0  0  0
  148.8744  134.5803  154.0493 N   0  0  0  0  0  0  0  0  0  0  0  0
  149.3889  135.1427  155.2973 C   0  0  1  0  0  0  0  0  0  0  0  0
  150.7529  134.4939  155.5860 C   0  0  0  0  0  0  0  0  0  0  0  0
  149.6065  136.6585  155.1635 C   0  0  0  0  0  0  0  0  0  0  0  0
  149.0332  137.4457  155.9184 O   0  0  0  0  0  0  0  0  0  0  0  0
  150.4233  137.0532  154.1750 N   0  0  0  0  0  0  0  0  0  0  0  0
  150.7409  138.4417  153.8587 C   0  0  0  0  0  0  0  0  0  0  0  0
  151.1406  139.2801  155.0647 C   0  0  0  0  0  0  0  0  0  0  0  0
  150.3486  140.3525  155.5252 C   0  0  0  0  0  0  0  0  0  0  0  0
  150.7786  141.0881  156.6459 C   0  0  0  0  0  0  0  0  0  0  0  0
  151.9956  140.7372  157.2776 C   0  0  0  0  0  0  0  0  0  0  0  0
  152.4455  141.4593  158.4044 N   0  0  0  0  0  0  0  0  0  0  0  0
  152.8859  140.6533  159.5406 C   0  0  0  0  0  0  0  0  0  0  0  0
  153.6323  141.5292  160.5619 C   0  0  0  0  0  0  0  0  0  0  0  0
  152.8123  142.6275  160.9473 O   0  0  0  0  0  0  0  0  0  0  0  0
  152.4900  143.4614  159.8394 C   0  0  0  0  0  0  0  0  0  0  0  0
  151.6996  142.6538  158.7962 C   0  0  0  0  0  0  0  0  0  0  0  0
  152.7543  139.7062  156.8298 N   0  0  0  0  0  0  0  0  0  0  0  0
  152.3377  139.0048  155.7548 C   0  0  0  0  0  0  0  0  0  0  0  0
  147.1707  133.8321  152.0987 H   0  0  0  0  0  0  0  0  0  0  0  0
  147.1506  132.1274  152.5607 H   0  0  0  0  0  0  0  0  0  0  0  0
  148.6209  132.8398  151.8856 H   0  0  0  0  0  0  0  0  0  0  0  0
  148.9990  135.1356  153.2152 H   0  0  0  0  0  0  0  0  0  0  0  0
  148.7000  134.9293  156.1171 H   0  0  0  0  0  0  0  0  0  0  0  0
  151.1852  134.8756  156.5121 H   0  0  0  0  0  0  0  0  0  0  0  0
  151.4696  134.6783  154.7840 H   0  0  0  0  0  0  0  0  0  0  0  0
  150.6537  133.4136  155.6968 H   0  0  0  0  0  0  0  0  0  0  0  0
  150.8530  136.3425  153.6007 H   0  0  0  0  0  0  0  0  0  0  0  0
  151.5298  138.4739  153.1051 H   0  0  0  0  0  0  0  0  0  0  0  0
  149.8611  138.8967  153.4035 H   0  0  0  0  0  0  0  0  0  0  0  0
  149.4220  140.6119  155.0345 H   0  0  0  0  0  0  0  0  0  0  0  0
  150.1656  141.8971  157.0138 H   0  0  0  0  0  0  0  0  0  0  0  0
  152.0114  140.1990  160.0081 H   0  0  0  0  0  0  0  0  0  0  0  0
  153.5386  139.8385  159.2309 H   0  0  0  0  0  0  0  0  0  0  0  0
  153.8798  140.9438  161.4475 H   0  0  0  0  0  0  0  0  0  0  0  0
  154.5741  141.8922  160.1473 H   0  0  0  0  0  0  0  0  0  0  0  0
  151.8949  144.3044  160.1904 H   0  0  0  0  0  0  0  0  0  0  0  0
  153.4010  143.8742  159.4032 H   0  0  0  0  0  0  0  0  0  0  0  0
  151.5057  143.2814  157.9255 H   0  0  0  0  0  0  0  0  0  0  0  0
  150.7336  142.3577  159.2076 H   0  0  0  0  0  0  0  0  0  0  0  0
  152.9808  138.1963  155.4393 H   0  0  0  0  0  0  0  0  0  0  0  0
  1  2  1  0  0  0  0
  1 23  1  0  0  0  0
  1 24  1  0  0  0  0
  1 25  1  0  0  0  0
  2  3  2  0  0  0  0
  2  4  1  0  0  0  0
  4  5  1  0  0  0  0
  4 26  1  0  0  0  0
  5  6  1  0  0  0  0
  5  7  1  0  0  0  0
  5 27  1  0  0  0  0
  6 28  1  0  0  0  0
  6 29  1  0  0  0  0
  6 30  1  0  0  0  0
  7  8  2  0  0  0  0
  7  9  1  0  0  0  0
  9 10  1  0  0  0  0
  9 31  1  0  0  0  0
 10 11  1  0  0  0  0
 10 32  1  0  0  0  0
 10 33  1  0  0  0  0
 11 22  1  0  0  0  0
 11 12  2  0  0  0  0
 12 13  1  0  0  0  0
 12 34  1  0  0  0  0
 13 14  2  0  0  0  0
 13 35  1  0  0  0  0
 14 15  1  0  0  0  0
 14 21  1  0  0  0  0
 15 20  1  0  0  0  0
 15 16  1  0  0  0  0
 16 17  1  0  0  0  0
 16 36  1  0  0  0  0
 16 37  1  0  0  0  0
 17 18  1  0  0  0  0
 17 38  1  0  0  0  0
 17 39  1  0  0  0  0
 18 19  1  0  0  0  0
 19 20  1  0  0  0  0
 19 40  1  0  0  0  0
 19 41  1  0  0  0  0
 20 42  1  0  0  0  0
 20 43  1  0  0  0  0
 21 22  2  0  0  0  0
 22 44  1  0  0  0  0
M  END
> <s_m_source_file>
AV-unprocessed.smi

> <i_m_source_file_index>
1287

> <i_lp_mmshare_version>
43012

> <i_f3d_flags>
0

> <s_epik_input>
W0NIM11DKD1PKVtOSF1bQ0BIXShbQ0gzXSlDKD1PKVtOSF1bQ0gyXWMxW2NIXVtjSF1jKG5bY0hdMSlOMltDSDJdW0NIMl1PW0NIMl1bQ0gyXTI=

> <s_epik_cmdline>
J2VwaWtfcHl0aG9uJywgJy1waCcsICc3LjAnLCAnLXRuJywgJzgnLCAnLW1hJywgJzIwMCcsICctbWV0YWxfYmluZGluZycsICctaW1hZScsICc8aW5maWxlLm1hZT4nLCAnLW9tYWUnLCAnPG91dGZpbGUubWFlPic=

> <r_lp_tautomer_probability>
1

> <r_epik_Ionization_Penalty>
0.00481935

> <r_epik_Ionization_Penalty_Charging>
0

> <r_epik_Ionization_Penalty_Neutral>
0.00481935

> <r_epik_State_Penalty>
0.00349439

> <r_epik_Charging_Adjusted_Penalty>
0.00349439

> <i_epik_Tot_Q>
0

> <i_epik_Tot_abs_Q>
0

> <r_epik_Metal_State_Penalty>
-0

> <b_epik_Metal_Only>
0

> <s_lp_Force_Field>
OPLS_2005

> <r_lp_Energy>
13.9902

> <b_lp_Chiralities_Consistent>
1

> <s_lp_Variant>
AV-unprocessed.smi:1287-2

> <Gold.Version>
5.8.1

> <Gold.Id.Protein>
6NUR|6NUR_protein|mol2

> <Gold.PLP.Fitness>
46.4787

> <Gold.PLP.PLP>
-39.9943

> <Gold.PLP.part.hbond>
-4.0000

> <Gold.PLP.part.metal>
0.0000

> <Gold.PLP.part.buried>
-4.7970

> <Gold.PLP.part.nonpolar>
-31.0227

> <Gold.PLP.part.repulsive>
0.1358

> <Gold.PLP.ligand.clash>
0.0000

> <Gold.PLP.ligand.torsion>
0.5855

> <Gold.PLP.Chemscore.Hbond>
2.4270

> <Gold.PLP.Chemscore.CHOScore>
0.0000

> <Gold.PLP.Chemscore.Metal>
0.0000

> <Gold.Chemscore.Hbonds>
donor molecule, donor type, donor heavy atom, donor atom, acceptor molecule, acceptor atom, score
      L1  H     4    26       P1  7948  1.00
      L1  H     9    31       P1  7949  0.41
      P1  H  7997  8010       L1    21  1.00

> <Gold.PLP.Chemscore.Internal.Correction>
0.3745

> <Gold.Rescore>
     Score         DG    S(hbond)    S(metal)    S(lipo)     H(rot)  DE(clash)    DE(int)     intcor
     14.59     -16.55       1.87        0.00      88.54       2.16       0.00       1.97       ----

> <Gold.Chemscore.Fitness>
14.5861

> <Gold.Chemscore.DG>
-16.5536

> <Gold.Chemscore.ZeroCoef>
-5.4800

> <Gold.Chemscore.Hbond>
1.8707

> <Gold.Chemscore.Metal>
0.0000

> <Gold.Chemscore.Lipo>
88.5403

> <Gold.Chemscore.Internal_Hbond>
0.0000

> <Gold.Chemscore.DEClash>
0.0004

> <Gold.Chemscore.DEInternal>
1.9671

> <Gold.Chemscore.Rot>
2.1616

> <Gold.Chemscore.Internal.Correction>
   9.000000E+99

> <Gold.Chemscore.Hbonds>
donor molecule, donor type, donor heavy atom, donor atom, acceptor molecule, acceptor atom, score
      L1  H     4    26       P1  7948  0.30
      L1  H     9    31       P1  7949  0.06
      P1  H  7997  8010       L1    21  0.36

> <Gold.Chemscore.Hbond.Weighted>
-6.2480

> <Gold.Chemscore.Metal.Weighted>
-0.0000

> <Gold.Chemscore.Lipo.Weighted>
-10.3592

> <Gold.Chemscore.Internal_Hbond.Weighted>
0.0000

> <Gold.Chemscore.DEClash.Weighted>
0.0004

> <Gold.Chemscore.DEInternal.Weighted>
1.9671

> <Gold.Chemscore.Rot.Weighted>
5.5336

> <Gold.Chemscore.Internal.Correction.Weighted>
   9.000000E+99

> <Gold.Protein.RotatedTorsions>
[ 6907 6896 6895 6894 ] final  -82.99 input  -60.11 | X-H torsion
[ 7974 7965 7964 7962 ] final  -91.48 input  175.53 | X-H torsion
[ 8008 7997 7996 7995 ] final   73.68 input   59.86 | X-H torsion
[ 10167 10162 10161 10158 ] final   60.17 input  -65.29 | X-H torsion
[ 10718 10713 10712 10709 ] final   50.80 input   66.30 | X-H torsion
[ 10763 10752 10751 10750 ] final  -48.76 input  -60.55 | X-H torsion
[ 11005 11000 10999 10996 ] final  125.86 input  -57.11 | X-H torsion

> <Gold.Protein.ActiveResidues>
 VAL166  LYS551  ARG553  GLY616  TRP617  ASP618  TYR619  PRO620  LYS621  CYS622 
 ASP623  PHE694  ASN695  SER759  ASP760  ASP761  ALA762  ILE779  LEU786  VAL792 
 PHE793  MET794  SER795  GLU796  ALA797  LYS798  CYS799  TRP800  GLU811  SER814 

> <Gold.Protein.RotatedAtoms>
  150.6890  134.3580  159.4937 H   0  0  0  0  0  0  0  0  0  0  0  0  # atno 6907 bound_to 6896
  152.1412  134.9058  160.0563 H   0  0  0  0  0  0  0  0  0  0  0  0  # atno 6908 bound_to 6896
  152.0191  133.3856  159.4287 H   0  0  0  0  0  0  0  0  0  0  0  0  # atno 6909 bound_to 6896
  145.4126  140.9546  143.2225 H   0  0  0  0  0  0  0  0  0  0  0  0  # atno 7974 bound_to 7965
  155.7872  140.3480  155.5329 H   0  0  0  0  0  0  0  0  0  0  0  0  # atno 8008 bound_to 7997
  155.8670  140.0980  157.1596 H   0  0  0  0  0  0  0  0  0  0  0  0  # atno 8009 bound_to 7997
  154.4015  140.1347  156.4018 H   0  0  0  0  0  0  0  0  0  0  0  0  # atno 8010 bound_to 7997
  140.1685  144.4300  150.6673 H   0  0  0  0  0  0  0  0  0  0  0  0  # atno 10167 bound_to 10162
  157.4919  130.8382  149.8213 H   0  0  0  0  0  0  0  0  0  0  0  0  # atno 10718 bound_to 10713
  154.0830  135.6588  153.4840 H   0  0  0  0  0  0  0  0  0  0  0  0  # atno 10763 bound_to 10752
  153.0349  135.5184  154.7455 H   0  0  0  0  0  0  0  0  0  0  0  0  # atno 10764 bound_to 10752
  154.6556  135.3007  154.9900 H   0  0  0  0  0  0  0  0  0  0  0  0  # atno 10765 bound_to 10752
  139.9427  134.9633  156.8621 H   0  0  0  0  0  0  0  0  0  0  0  0  # atno 11005 bound_to 11000
  144.8299  139.5647  143.6948 LP  0  0  0  0  0  0  0  0  0  0  0  0  # atno 17320 bound_to 7965
  146.2697  139.6605  142.9304 LP  0  0  0  0  0  0  0  0  0  0  0  0  # atno 17321 bound_to 7965
  140.6597  143.2248  151.5884 LP  0  0  0  0  0  0  0  0  0  0  0  0  # atno 17342 bound_to 10162
  139.5349  144.2811  152.1228 LP  0  0  0  0  0  0  0  0  0  0  0  0  # atno 17343 bound_to 10162
  156.0178  130.3807  150.2055 LP  0  0  0  0  0  0  0  0  0  0  0  0  # atno 17370 bound_to 10713
  157.0243  130.9988  151.3330 LP  0  0  0  0  0  0  0  0  0  0  0  0  # atno 17371 bound_to 10713
  140.5911  134.0261  155.7500 LP  0  0  0  0  0  0  0  0  0  0  0  0  # atno 17394 bound_to 11000
  141.1068  133.9681  157.2983 LP  0  0  0  0  0  0  0  0  0  0  0  0  # atno 17395 bound_to 11000

$$$$
