AV-unprocessed.smi:283|AV-procd|sdf|2135|dock8
  -GOLD-   2262021453D 1   1.00000     0.00000
 Structure written by MMmdl.
 48 51  0  0  0  0  0  0  0  0  1 V2000
  147.2632  139.6335  153.1565 C   0  0  0  0  0  0  0  0  0  0  0  0
  148.2280  138.7354  153.9422 C   0  0  2  0  0  0  0  0  0  0  0  0
  147.4841  137.9215  154.9022 N   0  0  0  0  0  0  0  0  0  0  0  0
  147.2076  136.6244  154.6407 C   0  0  0  0  0  0  0  0  0  0  0  0
  147.7485  135.6265  155.3874 N   0  0  0  0  0  0  0  0  0  0  0  0
  147.4572  134.3528  155.1104 C   0  0  0  0  0  0  0  0  0  0  0  0
  146.6693  133.8688  154.1486 N   0  0  0  0  0  0  0  0  0  0  0  0
  146.1264  134.8650  153.3902 C   0  0  0  0  0  0  0  0  0  0  0  0
  146.3474  136.2590  153.5735 C   0  0  0  0  0  0  0  0  0  0  0  0
  145.6336  136.9789  152.6253 N   0  0  0  0  0  0  0  0  0  0  0  0
  145.0276  136.0598  151.9235 C   0  0  0  0  0  0  0  0  0  0  0  0
  145.2645  134.7605  152.3147 N   0  0  0  0  0  0  0  0  0  0  0  0
  144.6995  133.5169  151.6943 C   0  0  1  0  0  0  0  0  0  0  0  0
  144.0130  133.8440  150.5220 O   0  0  0  0  0  0  0  0  0  0  0  0
  144.6166  133.2116  149.3940 C   0  0  2  0  0  0  0  0  0  0  0  0
  143.5802  132.9442  148.2890 C   0  0  0  0  0  0  0  0  0  0  0  0
  143.3428  134.1263  147.5550 O   0  0  0  0  0  0  0  0  0  0  0  0
  145.2899  131.9675  149.9880 C   0  0  2  0  0  0  0  0  0  0  0  0
  144.3608  130.9110  150.1513 O   0  0  0  0  0  0  0  0  0  0  0  0
  145.7737  132.4683  151.3398 C   0  0  1  0  0  0  0  0  0  0  0  0
  147.0830  132.9994  151.2341 O   0  0  0  0  0  0  0  0  0  0  0  0
  149.3485  139.5701  154.5667 C   0  0  0  0  0  0  0  0  0  0  0  0
  149.1078  140.9231  154.9003 C   0  0  0  0  0  0  0  0  0  0  0  0
  150.1205  141.7116  155.4776 C   0  0  0  0  0  0  0  0  0  0  0  0
  151.3889  141.1561  155.7233 C   0  0  0  0  0  0  0  0  0  0  0  0
  151.6429  139.8138  155.3862 C   0  0  0  0  0  0  0  0  0  0  0  0
  150.6327  139.0194  154.8069 C   0  0  0  0  0  0  0  0  0  0  0  0
  151.0064  137.3800  154.4039 Cl  0  0  0  0  0  0  0  0  0  0  0  0
  143.9805  133.1495  152.4274 H   0  0  0  0  0  0  0  0  0  0  0  0
  145.4062  133.8572  149.0078 H   0  0  0  0  0  0  0  0  0  0  0  0
  146.1049  131.6053  149.3596 H   0  0  0  0  0  0  0  0  0  0  0  0
  145.7875  131.6840  152.0978 H   0  0  0  0  0  0  0  0  0  0  0  0
  147.7909  140.1894  152.3810 H   0  0  0  0  0  0  0  0  0  0  0  0
  146.7716  140.3563  153.8084 H   0  0  0  0  0  0  0  0  0  0  0  0
  146.4874  139.0437  152.6673 H   0  0  0  0  0  0  0  0  0  0  0  0
  148.6614  138.0346  153.2298 H   0  0  0  0  0  0  0  0  0  0  0  0
  147.3592  138.3309  155.8168 H   0  0  0  0  0  0  0  0  0  0  0  0
  147.9215  133.6170  155.7503 H   0  0  0  0  0  0  0  0  0  0  0  0
  144.3817  136.3069  151.0935 H   0  0  0  0  0  0  0  0  0  0  0  0
  143.9586  132.1971  147.5908 H   0  0  0  0  0  0  0  0  0  0  0  0
  142.6460  132.5624  148.7018 H   0  0  0  0  0  0  0  0  0  0  0  0
  144.1660  134.5757  147.4382 H   0  0  0  0  0  0  0  0  0  0  0  0
  144.5661  130.4517  150.9513 H   0  0  0  0  0  0  0  0  0  0  0  0
  147.6516  132.3284  150.8888 H   0  0  0  0  0  0  0  0  0  0  0  0
  148.1395  141.3648  154.7156 H   0  0  0  0  0  0  0  0  0  0  0  0
  149.9237  142.7428  155.7316 H   0  0  0  0  0  0  0  0  0  0  0  0
  152.1669  141.7594  156.1673 H   0  0  0  0  0  0  0  0  0  0  0  0
  152.6194  139.3916  155.5723 H   0  0  0  0  0  0  0  0  0  0  0  0
  1  2  1  0  0  0  0
  1 33  1  0  0  0  0
  1 34  1  0  0  0  0
  1 35  1  0  0  0  0
  2  3  1  0  0  0  0
  2 22  1  0  0  0  0
  2 36  1  0  0  0  0
  3  4  1  0  0  0  0
  3 37  1  0  0  0  0
  4  9  1  0  0  0  0
  4  5  2  0  0  0  0
  5  6  1  0  0  0  0
  6  7  2  0  0  0  0
  6 38  1  0  0  0  0
  7  8  1  0  0  0  0
  8 12  1  0  0  0  0
  8  9  2  0  0  0  0
  9 10  1  0  0  0  0
 10 11  2  0  0  0  0
 11 12  1  0  0  0  0
 11 39  1  0  0  0  0
 12 13  1  0  0  0  0
 13 29  1  0  0  0  0
 13 20  1  0  0  0  0
 13 14  1  0  0  0  0
 14 15  1  0  0  0  0
 15 30  1  0  0  0  0
 15 16  1  0  0  0  0
 15 18  1  0  0  0  0
 16 17  1  0  0  0  0
 16 40  1  0  0  0  0
 16 41  1  0  0  0  0
 17 42  1  0  0  0  0
 18 31  1  0  0  0  0
 18 19  1  0  0  0  0
 18 20  1  0  0  0  0
 19 43  1  0  0  0  0
 20 32  1  0  0  0  0
 20 21  1  0  0  0  0
 21 44  1  0  0  0  0
 22 27  1  0  0  0  0
 22 23  2  0  0  0  0
 23 24  1  0  0  0  0
 23 45  1  0  0  0  0
 24 25  2  0  0  0  0
 24 46  1  0  0  0  0
 25 26  1  0  0  0  0
 25 47  1  0  0  0  0
 26 27  2  0  0  0  0
 26 48  1  0  0  0  0
 27 28  1  0  0  0  0
M  END
> <s_m_source_file>
AV-unprocessed.smi

> <i_m_source_file_index>
283

> <i_lp_mmshare_version>
43012

> <i_f3d_flags>
0

> <s_epik_input>
Q2xjMVtjSF1bY0hdW2NIXVtjSF1jMVtDQEhdKFtDSDNdKVtOSF1jKG5bY0hdbjIpYyhjMjMpbltjSF1uM1tDQEBIXTRPW0NASF0oW0NIMl1bT0hdKVtDQEBIXShbT0hdKVtDQEhdNFtPSF0=

> <s_epik_cmdline>
J2VwaWtfcHl0aG9uJywgJy1waCcsICc3LjAnLCAnLXRuJywgJzgnLCAnLW1hJywgJzIwMCcsICctbWV0YWxfYmluZGluZycsICctaW1hZScsICc8aW5maWxlLm1hZT4nLCAnLW9tYWUnLCAnPG91dGZpbGUubWFlPic=

> <r_lp_tautomer_probability>
1

> <r_epik_Ionization_Penalty>
0.000266407

> <r_epik_Ionization_Penalty_Charging>
0

> <r_epik_Ionization_Penalty_Neutral>
0.000266407

> <r_epik_State_Penalty>
-0

> <r_epik_Charging_Adjusted_Penalty>
0

> <i_epik_Tot_Q>
0

> <i_epik_Tot_abs_Q>
0

> <r_epik_Metal_State_Penalty>
-0

> <b_epik_Metal_Only>
0

> <s_epik_Chemistry_Notes>
This compound contains an acetal/aminal-like group ( X-CH(R)-Y where X, Y are N, S, or O) that may be acid/base labile, releasing an aldehyde.

> <s_lp_Force_Field>
OPLS_2005

> <r_lp_Energy>
46.2986

> <b_lp_Chiralities_Consistent>
1

> <s_lp_Variant>
AV-unprocessed.smi:283-11

> <Gold.Version>
5.8.1

> <Gold.Id.Protein>
6NUR|6NUR_protein|mol2

> <Gold.PLP.Fitness>
49.3595

> <Gold.PLP.PLP>
-41.2735

> <Gold.PLP.part.hbond>
-5.5579

> <Gold.PLP.part.metal>
0.0000

> <Gold.PLP.part.buried>
1.0700

> <Gold.PLP.part.nonpolar>
-36.1322

> <Gold.PLP.part.repulsive>
0.5083

> <Gold.PLP.ligand.clash>
0.0000

> <Gold.PLP.ligand.torsion>
1.8349

> <Gold.PLP.Chemscore.Hbond>
3.2298

> <Gold.PLP.Chemscore.CHOScore>
0.6731

> <Gold.PLP.Chemscore.Metal>
0.0000

> <Gold.Chemscore.Hbonds>
donor molecule, donor type, donor heavy atom, donor atom, acceptor molecule, acceptor atom, score
      L1  H    17    42       P1  7921  1.00
      L1  H    21    44       P1 10747  0.91
      P1  H 10192 10197       L1    17  1.00
      P1  H 10785 10796       L1    19  0.34
      L1  C    11    39       P1 10171  0.68

> <Gold.PLP.Chemscore.Internal.Correction>
0.0473

> <Gold.Rescore>
     Score         DG    S(hbond)    S(metal)    S(lipo)     H(rot)  DE(clash)    DE(int)     intcor
     12.77     -17.36       3.04        0.00     104.36       4.10       1.74       2.85       ----

> <Gold.Chemscore.Fitness>
12.7749

> <Gold.Chemscore.DG>
-17.3646

> <Gold.Chemscore.ZeroCoef>
-5.4800

> <Gold.Chemscore.Hbond>
3.0428

> <Gold.Chemscore.Metal>
0.0000

> <Gold.Chemscore.Lipo>
104.3550

> <Gold.Chemscore.Internal_Hbond>
0.0000

> <Gold.Chemscore.DEClash>
1.7387

> <Gold.Chemscore.DEInternal>
2.8510

> <Gold.Chemscore.Rot>
4.0968

> <Gold.Chemscore.Internal.Correction>
   9.000000E+99

> <Gold.Chemscore.Hbonds>
donor molecule, donor type, donor heavy atom, donor atom, acceptor molecule, acceptor atom, score
      L1  H    17    42       P1  7921  0.97
      L1  H    21    44       P1 10747  0.87
      P1  H 10192 10197       L1    17  0.78
      P1  H 10785 10796       L1    19  0.33

> <Gold.Chemscore.Hbond.Weighted>
-10.1630

> <Gold.Chemscore.Metal.Weighted>
-0.0000

> <Gold.Chemscore.Lipo.Weighted>
-12.2095

> <Gold.Chemscore.Internal_Hbond.Weighted>
0.0000

> <Gold.Chemscore.DEClash.Weighted>
1.7387

> <Gold.Chemscore.DEInternal.Weighted>
2.8510

> <Gold.Chemscore.Rot.Weighted>
10.4879

> <Gold.Chemscore.Internal.Correction.Weighted>
   9.000000E+99

> <Gold.Protein.RotatedTorsions>
[ 6907 6896 6895 6894 ] final   -0.39 input  -60.11 | X-H torsion
[ 7974 7965 7964 7962 ] final  170.66 input  175.53 | X-H torsion
[ 8008 7997 7996 7995 ] final  131.72 input   59.86 | X-H torsion
[ 10167 10162 10161 10158 ] final  143.04 input  -65.29 | X-H torsion
[ 10718 10713 10712 10709 ] final   25.12 input   66.30 | X-H torsion
[ 10763 10752 10751 10750 ] final   50.83 input  -60.55 | X-H torsion
[ 11005 11000 10999 10996 ] final -178.29 input  -57.11 | X-H torsion

> <Gold.Protein.ActiveResidues>
 VAL166  LYS551  ARG553  GLY616  TRP617  ASP618  TYR619  PRO620  LYS621  CYS622 
 ASP623  PHE694  ASN695  SER759  ASP760  ASP761  ALA762  ILE779  LEU786  VAL792 
 PHE793  MET794  SER795  GLU796  ALA797  LYS798  CYS799  TRP800  GLU811  SER814 

> <Gold.Protein.RotatedAtoms>
  151.5631  135.1065  159.9976 H   0  0  0  0  0  0  0  0  0  0  0  0  # atno 6907 bound_to 6896
  152.4437  133.7492  159.6695 H   0  0  0  0  0  0  0  0  0  0  0  0  # atno 6908 bound_to 6896
  150.8348  133.7963  159.3108 H   0  0  0  0  0  0  0  0  0  0  0  0  # atno 6909 bound_to 6896
  144.7317  139.9235  143.6421 H   0  0  0  0  0  0  0  0  0  0  0  0  # atno 7974 bound_to 7965
  156.2974  140.2564  156.2972 H   0  0  0  0  0  0  0  0  0  0  0  0  # atno 8008 bound_to 7997
  154.9452  140.0395  157.2135 H   0  0  0  0  0  0  0  0  0  0  0  0  # atno 8009 bound_to 7997
  154.8088  140.2841  155.5872 H   0  0  0  0  0  0  0  0  0  0  0  0  # atno 8010 bound_to 7997
  139.4979  144.6067  151.6363 H   0  0  0  0  0  0  0  0  0  0  0  0  # atno 10167 bound_to 10162
  157.1890  130.6837  149.6142 H   0  0  0  0  0  0  0  0  0  0  0  0  # atno 10718 bound_to 10713
  152.9784  135.5866  154.4317 H   0  0  0  0  0  0  0  0  0  0  0  0  # atno 10763 bound_to 10752
  154.3929  135.2768  155.2145 H   0  0  0  0  0  0  0  0  0  0  0  0  # atno 10764 bound_to 10752
  154.4010  135.6103  153.5951 H   0  0  0  0  0  0  0  0  0  0  0  0  # atno 10765 bound_to 10752
  140.4314  134.6516  157.4713 H   0  0  0  0  0  0  0  0  0  0  0  0  # atno 11005 bound_to 11000
  146.0911  139.3901  143.0405 LP  0  0  0  0  0  0  0  0  0  0  0  0  # atno 17320 bound_to 7965
  145.7709  140.9897  143.1150 LP  0  0  0  0  0  0  0  0  0  0  0  0  # atno 17321 bound_to 7965
  140.5731  144.0075  150.6227 LP  0  0  0  0  0  0  0  0  0  0  0  0  # atno 17342 bound_to 10162
  140.3199  143.3143  152.0794 LP  0  0  0  0  0  0  0  0  0  0  0  0  # atno 17343 bound_to 10162
  155.9714  130.4621  150.6133 LP  0  0  0  0  0  0  0  0  0  0  0  0  # atno 17370 bound_to 10713
  157.3879  131.0791  151.1420 LP  0  0  0  0  0  0  0  0  0  0  0  0  # atno 17371 bound_to 10713
  140.0132  134.6659  155.9349 LP  0  0  0  0  0  0  0  0  0  0  0  0  # atno 17394 bound_to 11000
  141.1744  133.6539  156.4772 LP  0  0  0  0  0  0  0  0  0  0  0  0  # atno 17395 bound_to 11000

$$$$
