AV-unprocessed.smi:2996|AV-procd|sdf|11410|dock10
  -GOLD-   2272016333D 1   1.00000     0.00000
 Structure written by MMmdl.
 46 47  0  0  0  0  0  0  0  0  1 V2000
  148.7655  141.3903  154.5163 C   0  0  0  0  0  0  0  0  0  0  0  0
  148.9802  139.8764  154.4107 C   0  0  0  0  0  0  0  0  0  0  0  0
  150.3783  139.4767  154.7951 C   0  0  0  0  0  0  0  0  0  0  0  0
  151.2507  140.3949  155.1789 N   0  0  0  0  0  0  0  0  0  0  0  0
  152.4482  139.7135  155.4437 O   0  0  0  0  0  0  0  0  0  0  0  0
  152.2718  138.3855  155.2059 C   0  0  0  0  0  0  0  0  0  0  0  0
  153.4768  137.5211  155.3812 C   0  0  0  0  0  0  0  0  0  0  0  0
  150.9734  138.1881  154.8173 C   0  0  0  0  0  0  0  0  0  0  0  0
  150.3153  136.9942  154.4261 N   0  0  0  0  0  0  0  0  0  0  0  0
  150.0880  135.9057  155.1765 C   0  0  0  0  0  0  0  0  0  0  0  0
  150.4084  135.7823  156.3578 O   0  0  0  0  0  0  0  0  0  0  0  0
  149.4339  134.9657  154.4815 N   0  0  0  0  0  0  0  0  0  0  0  0
  148.9969  133.6766  155.0133 C   0  0  2  0  0  0  0  0  0  0  0  0
  150.1706  132.7498  155.2611 C   0  0  0  0  0  0  0  0  0  0  0  0
  149.5319  131.3563  155.2108 C   0  0  0  0  0  0  0  0  0  0  0  0
  150.4577  130.3137  154.5655 C   0  0  0  0  0  0  0  0  0  0  0  0
  149.0609  130.8902  156.5989 C   0  0  0  0  0  0  0  0  0  0  0  0
  148.3701  131.4979  154.3941 O   0  0  0  0  0  0  0  0  0  0  0  0
  148.1284  132.8573  154.0343 C   0  0  0  0  0  0  0  0  0  0  0  0
  146.6267  133.1310  154.2137 C   0  0  0  0  0  0  0  0  0  0  0  0
  148.5348  132.9989  152.5523 C   0  0  0  0  0  0  0  0  0  0  0  0
  147.7474  141.6589  154.2343 H   0  0  0  0  0  0  0  0  0  0  0  0
  149.4474  141.9300  153.8585 H   0  0  0  0  0  0  0  0  0  0  0  0
  148.9325  141.7425  155.5347 H   0  0  0  0  0  0  0  0  0  0  0  0
  148.2580  139.3636  155.0467 H   0  0  0  0  0  0  0  0  0  0  0  0
  148.7655  139.5512  153.3924 H   0  0  0  0  0  0  0  0  0  0  0  0
  153.4983  136.7265  154.6354 H   0  0  0  0  0  0  0  0  0  0  0  0
  153.4843  137.0637  156.3705 H   0  0  0  0  0  0  0  0  0  0  0  0
  154.3929  138.1023  155.2732 H   0  0  0  0  0  0  0  0  0  0  0  0
  149.8974  137.0036  153.5075 H   0  0  0  0  0  0  0  0  0  0  0  0
  149.2066  135.1587  153.5172 H   0  0  0  0  0  0  0  0  0  0  0  0
  148.4696  133.8144  155.9596 H   0  0  0  0  0  0  0  0  0  0  0  0
  150.9063  132.8583  154.4624 H   0  0  0  0  0  0  0  0  0  0  0  0
  150.6809  132.9548  156.2029 H   0  0  0  0  0  0  0  0  0  0  0  0
  151.3719  130.1860  155.1456 H   0  0  0  0  0  0  0  0  0  0  0  0
  150.7430  130.6084  153.5551 H   0  0  0  0  0  0  0  0  0  0  0  0
  149.9682  129.3419  154.4965 H   0  0  0  0  0  0  0  0  0  0  0  0
  149.9027  130.7730  157.2818 H   0  0  0  0  0  0  0  0  0  0  0  0
  148.5481  129.9298  156.5375 H   0  0  0  0  0  0  0  0  0  0  0  0
  148.3671  131.6024  157.0463 H   0  0  0  0  0  0  0  0  0  0  0  0
  146.3756  134.1570  153.9444 H   0  0  0  0  0  0  0  0  0  0  0  0
  146.3167  132.9723  155.2467 H   0  0  0  0  0  0  0  0  0  0  0  0
  146.0285  132.4691  153.5870 H   0  0  0  0  0  0  0  0  0  0  0  0
  148.3406  134.0037  152.1763 H   0  0  0  0  0  0  0  0  0  0  0  0
  147.9721  132.3049  151.9271 H   0  0  0  0  0  0  0  0  0  0  0  0
  149.5932  132.7854  152.4018 H   0  0  0  0  0  0  0  0  0  0  0  0
  1  2  1  0  0  0  0
  1 22  1  0  0  0  0
  1 23  1  0  0  0  0
  1 24  1  0  0  0  0
  2  3  1  0  0  0  0
  2 25  1  0  0  0  0
  2 26  1  0  0  0  0
  3  8  1  0  0  0  0
  3  4  2  0  0  0  0
  4  5  1  0  0  0  0
  5  6  1  0  0  0  0
  6  7  1  0  0  0  0
  6  8  2  0  0  0  0
  7 27  1  0  0  0  0
  7 28  1  0  0  0  0
  7 29  1  0  0  0  0
  8  9  1  0  0  0  0
  9 10  1  0  0  0  0
  9 30  1  0  0  0  0
 10 11  2  0  0  0  0
 10 12  1  0  0  0  0
 12 13  1  0  0  0  0
 12 31  1  0  0  0  0
 13 19  1  0  0  0  0
 13 14  1  0  0  0  0
 13 32  1  0  0  0  0
 14 15  1  0  0  0  0
 14 33  1  0  0  0  0
 14 34  1  0  0  0  0
 15 16  1  0  0  0  0
 15 17  1  0  0  0  0
 15 18  1  0  0  0  0
 16 35  1  0  0  0  0
 16 36  1  0  0  0  0
 16 37  1  0  0  0  0
 17 38  1  0  0  0  0
 17 39  1  0  0  0  0
 17 40  1  0  0  0  0
 18 19  1  0  0  0  0
 19 20  1  0  0  0  0
 19 21  1  0  0  0  0
 20 41  1  0  0  0  0
 20 42  1  0  0  0  0
 20 43  1  0  0  0  0
 21 44  1  0  0  0  0
 21 45  1  0  0  0  0
 21 46  1  0  0  0  0
M  END
> <s_m_source_file>
AV-unprocessed.smi

> <i_m_source_file_index>
2996

> <i_lp_mmshare_version>
43012

> <i_f3d_flags>
0

> <s_epik_input>
W0NIM11bQ0gyXWMxbm9jKFtDSDNdKWMxW05IXUMoPU8pW05IXVtDQEBIXShDKE8yKShbQ0gzXSlbQ0gzXSlbQ0gyXUMyKFtDSDNdKVtDSDNd

> <s_epik_cmdline>
J2VwaWtfcHl0aG9uJywgJy1waCcsICc3LjAnLCAnLXRuJywgJzgnLCAnLW1hJywgJzIwMCcsICctbWV0YWxfYmluZGluZycsICctaW1hZScsICc8aW5maWxlLm1hZT4nLCAnLW9tYWUnLCAnPG91dGZpbGUubWFlPic=

> <r_lp_tautomer_probability>
1

> <r_epik_Ionization_Penalty>
3.17207e-05

> <r_epik_Ionization_Penalty_Charging>
0

> <r_epik_Ionization_Penalty_Neutral>
3.17207e-05

> <r_epik_State_Penalty>
-0

> <r_epik_Charging_Adjusted_Penalty>
0

> <i_epik_Tot_Q>
0

> <i_epik_Tot_abs_Q>
0

> <r_epik_Metal_State_Penalty>
-0

> <b_epik_Metal_Only>
0

> <s_lp_Force_Field>
OPLS_2005

> <r_lp_Energy>
17.7476

> <b_lp_Chiralities_Consistent>
1

> <s_lp_Variant>
AV-unprocessed.smi:2996-1

> <Gold.Version>
5.8.1

> <Gold.Id.Protein>
6NUR|6NUR_protein|mol2

> <Gold.PLP.Fitness>
41.5997

> <Gold.PLP.PLP>
-31.9298

> <Gold.PLP.part.hbond>
-5.3831

> <Gold.PLP.part.metal>
0.0000

> <Gold.PLP.part.buried>
2.1231

> <Gold.PLP.part.nonpolar>
-29.7720

> <Gold.PLP.part.repulsive>
0.1861

> <Gold.PLP.ligand.clash>
0.0000

> <Gold.PLP.ligand.torsion>
0.6619

> <Gold.PLP.Chemscore.Hbond>
3.6121

> <Gold.PLP.Chemscore.CHOScore>
0.0000

> <Gold.PLP.Chemscore.Metal>
0.0000

> <Gold.Chemscore.Hbonds>
donor molecule, donor type, donor heavy atom, donor atom, acceptor molecule, acceptor atom, score
      L1  H     9    30       P1  7948  1.00
      L1  H    12    31       P1  7948  1.00
      P1  H  7989  7998       L1     4  0.59
      P1  H  7997  8009       L1     5  0.88

> <Gold.PLP.Chemscore.Internal.Correction>
0.1574

> <Gold.Rescore>
     Score         DG    S(hbond)    S(metal)    S(lipo)     H(rot)  DE(clash)    DE(int)     intcor
     17.30     -19.85       2.40        0.00      79.71       1.16       1.94       0.61       ----

> <Gold.Chemscore.Fitness>
17.2963

> <Gold.Chemscore.DG>
-19.8473

> <Gold.Chemscore.ZeroCoef>
-5.4800

> <Gold.Chemscore.Hbond>
2.3976

> <Gold.Chemscore.Metal>
0.0000

> <Gold.Chemscore.Lipo>
79.7126

> <Gold.Chemscore.Internal_Hbond>
0.0000

> <Gold.Chemscore.DEClash>
1.9416

> <Gold.Chemscore.DEInternal>
0.6093

> <Gold.Chemscore.Rot>
1.1590

> <Gold.Chemscore.Internal.Correction>
   9.000000E+99

> <Gold.Chemscore.Hbonds>
donor molecule, donor type, donor heavy atom, donor atom, acceptor molecule, acceptor atom, score
      L1  H     9    30       P1  7948  0.37
      L1  H    12    31       P1  7948  0.25
      P1  H  7989  7998       L1     4  0.01
      P1  H  7997  8009       L1     5  0.73

> <Gold.Chemscore.Hbond.Weighted>
-8.0080

> <Gold.Chemscore.Metal.Weighted>
-0.0000

> <Gold.Chemscore.Lipo.Weighted>
-9.3264

> <Gold.Chemscore.Internal_Hbond.Weighted>
0.0000

> <Gold.Chemscore.DEClash.Weighted>
1.9416

> <Gold.Chemscore.DEInternal.Weighted>
0.6093

> <Gold.Chemscore.Rot.Weighted>
2.9671

> <Gold.Chemscore.Internal.Correction.Weighted>
   9.000000E+99

> <Gold.Protein.RotatedTorsions>
[ 6907 6896 6895 6894 ] final   81.06 input  -60.11 | X-H torsion
[ 7974 7965 7964 7962 ] final -100.51 input  175.53 | X-H torsion
[ 8008 7997 7996 7995 ] final -144.11 input   59.86 | X-H torsion
[ 10167 10162 10161 10158 ] final  -28.08 input  -65.29 | X-H torsion
[ 10718 10713 10712 10709 ] final  102.41 input   66.30 | X-H torsion
[ 10763 10752 10751 10750 ] final    8.22 input  -60.55 | X-H torsion
[ 11005 11000 10999 10996 ] final   88.23 input  -57.11 | X-H torsion

> <Gold.Protein.ActiveResidues>
 VAL166  LYS551  ARG553  GLY616  TRP617  ASP618  TYR619  PRO620  LYS621  CYS622 
 ASP623  PHE694  ASN695  SER759  ASP760  ASP761  ALA762  ILE779  LEU786  VAL792 
 PHE793  MET794  SER795  GLU796  ALA797  LYS798  CYS799  TRP800  GLU811  SER814 

> <Gold.Protein.RotatedAtoms>
  152.5256  134.3262  159.9166 H   0  0  0  0  0  0  0  0  0  0  0  0  # atno 6907 bound_to 6896
  151.3211  133.4033  159.2662 H   0  0  0  0  0  0  0  0  0  0  0  0  # atno 6908 bound_to 6896
  150.9958  134.9299  159.7983 H   0  0  0  0  0  0  0  0  0  0  0  0  # atno 6909 bound_to 6896
  145.2936  140.9359  143.2863 H   0  0  0  0  0  0  0  0  0  0  0  0  # atno 7974 bound_to 7965
  155.5215  140.0592  157.2906 H   0  0  0  0  0  0  0  0  0  0  0  0  # atno 8008 bound_to 7997
  154.4516  140.1951  156.0449 H   0  0  0  0  0  0  0  0  0  0  0  0  # atno 8009 bound_to 7997
  156.0715  140.3259  155.7586 H   0  0  0  0  0  0  0  0  0  0  0  0  # atno 8010 bound_to 7997
  140.7272  143.4039  151.1218 H   0  0  0  0  0  0  0  0  0  0  0  0  # atno 10167 bound_to 10162
  157.6803  131.0752  150.5399 H   0  0  0  0  0  0  0  0  0  0  0  0  # atno 10718 bound_to 10713
  153.2274  135.6888  153.7929 H   0  0  0  0  0  0  0  0  0  0  0  0  # atno 10763 bound_to 10752
  153.7105  135.3283  155.3246 H   0  0  0  0  0  0  0  0  0  0  0  0  # atno 10764 bound_to 10752
  154.8298  135.4589  154.1146 H   0  0  0  0  0  0  0  0  0  0  0  0  # atno 10765 bound_to 10752
  139.8901  134.8474  156.2971 H   0  0  0  0  0  0  0  0  0  0  0  0  # atno 11005 bound_to 11000
  144.9152  139.4480  143.6568 LP  0  0  0  0  0  0  0  0  0  0  0  0  # atno 17320 bound_to 7965
  146.3176  139.7981  142.8971 LP  0  0  0  0  0  0  0  0  0  0  0  0  # atno 17321 bound_to 7965
  139.7663  143.8560  152.3111 LP  0  0  0  0  0  0  0  0  0  0  0  0  # atno 17342 bound_to 10162
  139.8463  144.7186  150.9268 LP  0  0  0  0  0  0  0  0  0  0  0  0  # atno 17343 bound_to 10162
  156.5706  130.4279  149.6021 LP  0  0  0  0  0  0  0  0  0  0  0  0  # atno 17370 bound_to 10713
  156.2743  130.7035  151.1841 LP  0  0  0  0  0  0  0  0  0  0  0  0  # atno 17371 bound_to 10713
  140.9938  133.7192  156.0854 LP  0  0  0  0  0  0  0  0  0  0  0  0  # atno 17394 bound_to 11000
  140.7590  134.3961  157.5529 LP  0  0  0  0  0  0  0  0  0  0  0  0  # atno 17395 bound_to 11000

$$$$
