AV-unprocessed.smi:183|AV-procd|sdf|1458|dock2
  -GOLD-   2262019263D 1   1.00000     0.00000
 Structure written by MMmdl.
 55 57  0  0  0  0  0  0  0  0  1 V2000
  146.8267  145.2386  160.4164 C   0  0  0  0  0  0  0  0  0  0  0  0
  146.9171  143.7657  160.0331 C   0  0  0  0  0  0  0  0  0  0  0  0
  146.6603  142.8953  160.8651 O   0  0  0  0  0  0  0  0  0  0  0  0
  147.2800  143.5021  158.7673 N   0  0  0  0  0  0  0  0  0  0  0  0
  147.4082  142.1627  158.2061 C   0  0  0  0  0  0  0  0  0  0  0  0
  148.3312  142.1556  156.9677 C   0  0  0  0  0  0  0  0  0  0  0  0
  148.4553  140.8401  156.3306 N   0  0  0  0  0  0  0  0  0  0  0  0
  148.9972  139.9408  157.1907 C   0  0  0  0  0  0  0  0  0  0  0  0
  150.3455  139.9722  157.3440 N   0  0  0  0  0  0  0  0  0  0  0  0
  150.9552  139.0745  158.1229 C   0  0  0  0  0  0  0  0  0  0  0  0
  150.4179  138.0682  158.8141 N   0  0  0  0  0  0  0  0  0  0  0  0
  149.0634  138.0292  158.6597 C   0  0  0  0  0  0  0  0  0  0  0  0
  148.2751  138.9284  157.8877 C   0  0  0  0  0  0  0  0  0  0  0  0
  146.9336  138.5743  157.9799 N   0  0  0  0  0  0  0  0  0  0  0  0
  146.9316  137.5213  158.7492 C   0  0  0  0  0  0  0  0  0  0  0  0
  148.1717  137.1070  159.1780 N   0  0  0  0  0  0  0  0  0  0  0  0
  148.4640  135.9508  160.0095 C   0  0  0  0  0  0  0  0  0  0  0  0
  147.2733  135.4557  160.8725 C   0  0  2  0  0  0  0  0  0  0  0  0
  146.3782  134.8152  159.9792 O   0  0  0  0  0  0  0  0  0  0  0  0
  146.5184  136.5433  161.6247 C   0  0  0  0  0  0  0  0  0  0  0  0
  145.7719  135.7574  162.6980 C   0  0  0  0  0  0  0  0  0  0  0  0
  146.5975  134.6377  163.0016 O   0  0  0  0  0  0  0  0  0  0  0  0
  147.6363  134.5046  162.0336 C   0  0  1  0  0  0  0  0  0  0  0  0
  147.8710  133.0316  161.6653 C   0  0  0  0  0  0  0  0  0  0  0  0
  148.8055  140.7423  154.9037 C   0  0  0  0  0  0  0  0  0  0  0  0
  147.9363  141.6746  154.0392 C   0  0  0  0  0  0  0  0  0  0  0  0
  148.6741  139.3019  154.3621 C   0  0  0  0  0  0  0  0  0  0  0  0
  146.0804  145.7460  159.8046 H   0  0  0  0  0  0  0  0  0  0  0  0
  147.7883  145.7308  160.2693 H   0  0  0  0  0  0  0  0  0  0  0  0
  146.5423  145.3495  161.4633 H   0  0  0  0  0  0  0  0  0  0  0  0
  147.4724  144.2796  158.1523 H   0  0  0  0  0  0  0  0  0  0  0  0
  147.8057  141.4935  158.9691 H   0  0  0  0  0  0  0  0  0  0  0  0
  146.4124  141.7864  157.9748 H   0  0  0  0  0  0  0  0  0  0  0  0
  147.9639  142.8720  156.2307 H   0  0  0  0  0  0  0  0  0  0  0  0
  149.3185  142.5293  157.2378 H   0  0  0  0  0  0  0  0  0  0  0  0
  152.0289  139.1681  158.1915 H   0  0  0  0  0  0  0  0  0  0  0  0
  146.0213  137.0006  159.0084 H   0  0  0  0  0  0  0  0  0  0  0  0
  148.8118  135.1470  159.3591 H   0  0  0  0  0  0  0  0  0  0  0  0
  149.3083  136.2060  160.6516 H   0  0  0  0  0  0  0  0  0  0  0  0
  146.8727  134.5017  159.2373 H   0  0  0  0  0  0  0  0  0  0  0  0
  147.2083  137.2246  162.1211 H   0  0  0  0  0  0  0  0  0  0  0  0
  145.8600  137.1394  160.9918 H   0  0  0  0  0  0  0  0  0  0  0  0
  145.5697  136.3557  163.5867 H   0  0  0  0  0  0  0  0  0  0  0  0
  144.8193  135.3928  162.3120 H   0  0  0  0  0  0  0  0  0  0  0  0
  148.5276  134.8755  162.5374 H   0  0  0  0  0  0  0  0  0  0  0  0
  148.6626  132.9357  160.9219 H   0  0  0  0  0  0  0  0  0  0  0  0
  146.9709  132.5670  161.2624 H   0  0  0  0  0  0  0  0  0  0  0  0
  148.1696  132.4582  162.5428 H   0  0  0  0  0  0  0  0  0  0  0  0
  149.8412  141.0591  154.7829 H   0  0  0  0  0  0  0  0  0  0  0  0
  148.1740  141.5613  152.9811 H   0  0  0  0  0  0  0  0  0  0  0  0
  148.0965  142.7243  154.2842 H   0  0  0  0  0  0  0  0  0  0  0  0
  146.8751  141.4568  154.1647 H   0  0  0  0  0  0  0  0  0  0  0  0
  148.9056  139.2637  153.2974 H   0  0  0  0  0  0  0  0  0  0  0  0
  147.6599  138.9229  154.4920 H   0  0  0  0  0  0  0  0  0  0  0  0
  149.3531  138.6055  154.8527 H   0  0  0  0  0  0  0  0  0  0  0  0
  1  2  1  0  0  0  0
  1 28  1  0  0  0  0
  1 29  1  0  0  0  0
  1 30  1  0  0  0  0
  2  3  2  0  0  0  0
  2  4  1  0  0  0  0
  4  5  1  0  0  0  0
  4 31  1  0  0  0  0
  5  6  1  0  0  0  0
  5 32  1  0  0  0  0
  5 33  1  0  0  0  0
  6  7  1  0  0  0  0
  6 34  1  0  0  0  0
  6 35  1  0  0  0  0
  7  8  1  0  0  0  0
  7 25  1  0  0  0  0
  8 13  1  0  0  0  0
  8  9  2  0  0  0  0
  9 10  1  0  0  0  0
 10 11  2  0  0  0  0
 10 36  1  0  0  0  0
 11 12  1  0  0  0  0
 12 16  1  0  0  0  0
 12 13  2  0  0  0  0
 13 14  1  0  0  0  0
 14 15  2  0  0  0  0
 15 16  1  0  0  0  0
 15 37  1  0  0  0  0
 16 17  1  0  0  0  0
 17 18  1  0  0  0  0
 17 38  1  0  0  0  0
 17 39  1  0  0  0  0
 18 23  1  0  0  0  0
 18 19  1  0  0  0  0
 18 20  1  0  0  0  0
 19 40  1  0  0  0  0
 20 21  1  0  0  0  0
 20 41  1  0  0  0  0
 20 42  1  0  0  0  0
 21 22  1  0  0  0  0
 21 43  1  0  0  0  0
 21 44  1  0  0  0  0
 22 23  1  0  0  0  0
 23 24  1  0  0  0  0
 23 45  1  0  0  0  0
 24 46  1  0  0  0  0
 24 47  1  0  0  0  0
 24 48  1  0  0  0  0
 25 26  1  0  0  0  0
 25 27  1  0  0  0  0
 25 49  1  0  0  0  0
 26 50  1  0  0  0  0
 26 51  1  0  0  0  0
 26 52  1  0  0  0  0
 27 53  1  0  0  0  0
 27 54  1  0  0  0  0
 27 55  1  0  0  0  0
M  END
> <s_m_source_file>
AV-unprocessed.smi

> <i_m_source_file_index>
183

> <i_lp_mmshare_version>
43012

> <i_f3d_flags>
0

> <s_epik_input>
W0NIM11DKD1PKVtOSF1bQ0gyXVtDSDJdTihbQ0hdKFtDSDNdKVtDSDNdKWMobltjSF1uMSljKGMxMiluW2NIXW4yW0NIMl1bQ0BAXTMoW09IXSlbQ0gyXVtDSDJdT1tDQEhdM1tDSDNd

> <s_epik_cmdline>
J2VwaWtfcHl0aG9uJywgJy1waCcsICc3LjAnLCAnLXRuJywgJzgnLCAnLW1hJywgJzIwMCcsICctbWV0YWxfYmluZGluZycsICctaW1hZScsICc8aW5maWxlLm1hZT4nLCAnLW9tYWUnLCAnPG91dGZpbGUubWFlPic=

> <r_lp_tautomer_probability>
1

> <r_epik_Ionization_Penalty>
0.00156158

> <r_epik_Ionization_Penalty_Charging>
0

> <r_epik_Ionization_Penalty_Neutral>
0.00156158

> <r_epik_State_Penalty>
0.000865808

> <r_epik_Charging_Adjusted_Penalty>
0.000865808

> <i_epik_Tot_Q>
0

> <i_epik_Tot_abs_Q>
0

> <r_epik_Metal_State_Penalty>
-0

> <b_epik_Metal_Only>
0

> <s_lp_Force_Field>
OPLS_2005

> <r_lp_Energy>
32.608

> <b_lp_Chiralities_Consistent>
1

> <s_lp_Variant>
AV-unprocessed.smi:183-2

> <Gold.Version>
5.8.1

> <Gold.Id.Protein>
6NUR|6NUR_protein|mol2

> <Gold.PLP.Fitness>
41.5766

> <Gold.PLP.PLP>
-34.3396

> <Gold.PLP.part.hbond>
-3.3947

> <Gold.PLP.part.metal>
0.0000

> <Gold.PLP.part.buried>
-6.0163

> <Gold.PLP.part.nonpolar>
-25.8739

> <Gold.PLP.part.repulsive>
0.1607

> <Gold.PLP.ligand.clash>
0.0000

> <Gold.PLP.ligand.torsion>
1.1716

> <Gold.PLP.Chemscore.Hbond>
2.7920

> <Gold.PLP.Chemscore.CHOScore>
0.0000

> <Gold.PLP.Chemscore.Metal>
0.0000

> <Gold.Chemscore.Hbonds>
donor molecule, donor type, donor heavy atom, donor atom, acceptor molecule, acceptor atom, score
      L1  H     4    31       P1  8029  1.00
      P1  H  6933  6944       L1     3  0.91
      P1  H  6934  6946       L1     3  0.86

> <Gold.PLP.Chemscore.Internal.Correction>
1.2042

> <Gold.Rescore>
     Score         DG    S(hbond)    S(metal)    S(lipo)     H(rot)  DE(clash)    DE(int)     intcor
      8.03     -11.13       1.87        0.00      70.21       3.45       0.88       2.22       ----

> <Gold.Chemscore.Fitness>
8.0262

> <Gold.Chemscore.DG>
-11.1340

> <Gold.Chemscore.ZeroCoef>
-5.4800

> <Gold.Chemscore.Hbond>
1.8740

> <Gold.Chemscore.Metal>
0.0000

> <Gold.Chemscore.Lipo>
70.2080

> <Gold.Chemscore.Internal_Hbond>
0.0000

> <Gold.Chemscore.DEClash>
0.8835

> <Gold.Chemscore.DEInternal>
2.2243

> <Gold.Chemscore.Rot>
3.4451

> <Gold.Chemscore.Internal.Correction>
   9.000000E+99

> <Gold.Chemscore.Hbonds>
donor molecule, donor type, donor heavy atom, donor atom, acceptor molecule, acceptor atom, score
      L1  H     4    31       P1  8029  0.50
      P1  H  6933  6944       L1     3  0.30
      P1  H  6934  6946       L1     3  0.79

> <Gold.Chemscore.Hbond.Weighted>
-6.2591

> <Gold.Chemscore.Metal.Weighted>
-0.0000

> <Gold.Chemscore.Lipo.Weighted>
-8.2143

> <Gold.Chemscore.Internal_Hbond.Weighted>
0.0000

> <Gold.Chemscore.DEClash.Weighted>
0.8835

> <Gold.Chemscore.DEInternal.Weighted>
2.2243

> <Gold.Chemscore.Rot.Weighted>
8.8194

> <Gold.Chemscore.Internal.Correction.Weighted>
   9.000000E+99

> <Gold.Protein.RotatedTorsions>
[ 6907 6896 6895 6894 ] final  116.32 input  -60.11 | X-H torsion
[ 7974 7965 7964 7962 ] final -108.77 input  175.53 | X-H torsion
[ 8008 7997 7996 7995 ] final  -68.73 input   59.86 | X-H torsion
[ 10167 10162 10161 10158 ] final -171.50 input  -65.29 | X-H torsion
[ 10718 10713 10712 10709 ] final -131.64 input   66.30 | X-H torsion
[ 10763 10752 10751 10750 ] final  100.07 input  -60.55 | X-H torsion
[ 11005 11000 10999 10996 ] final  121.46 input  -57.11 | X-H torsion

> <Gold.Protein.ActiveResidues>
 VAL166  LYS551  ARG553  GLY616  TRP617  ASP618  TYR619  PRO620  LYS621  CYS622 
 ASP623  PHE694  ASN695  SER759  ASP760  ASP761  ALA762  ILE779  LEU786  VAL792 
 PHE793  MET794  SER795  GLU796  ALA797  LYS798  CYS799  TRP800  GLU811  SER814 

> <Gold.Protein.RotatedAtoms>
  152.4685  133.7977  159.6935 H   0  0  0  0  0  0  0  0  0  0  0  0  # atno 6907 bound_to 6896
  150.8662  133.7561  159.2982 H   0  0  0  0  0  0  0  0  0  0  0  0  # atno 6908 bound_to 6896
  151.5111  135.1068  159.9906 H   0  0  0  0  0  0  0  0  0  0  0  0  # atno 6909 bound_to 6896
  145.1887  140.9005  143.3437 H   0  0  0  0  0  0  0  0  0  0  0  0  # atno 7974 bound_to 7965
  154.4888  140.0867  156.7548 H   0  0  0  0  0  0  0  0  0  0  0  0  # atno 8008 bound_to 7997
  155.4282  140.3448  155.4259 H   0  0  0  0  0  0  0  0  0  0  0  0  # atno 8009 bound_to 7997
  156.1300  140.1498  156.9067 H   0  0  0  0  0  0  0  0  0  0  0  0  # atno 8010 bound_to 7997
  139.5799  144.1447  152.1501 H   0  0  0  0  0  0  0  0  0  0  0  0  # atno 10167 bound_to 10162
  156.2264  130.7010  151.0812 H   0  0  0  0  0  0  0  0  0  0  0  0  # atno 10718 bound_to 10713
  153.3094  135.4091  155.1322 H   0  0  0  0  0  0  0  0  0  0  0  0  # atno 10763 bound_to 10752
  154.8571  135.3560  154.5744 H   0  0  0  0  0  0  0  0  0  0  0  0  # atno 10764 bound_to 10752
  153.6173  135.7065  153.5382 H   0  0  0  0  0  0  0  0  0  0  0  0  # atno 10765 bound_to 10752
  139.9227  134.9639  156.7962 H   0  0  0  0  0  0  0  0  0  0  0  0  # atno 11005 bound_to 11000
  145.0063  139.3552  143.6142 LP  0  0  0  0  0  0  0  0  0  0  0  0  # atno 17320 bound_to 7965
  146.3440  139.9306  142.8754 LP  0  0  0  0  0  0  0  0  0  0  0  0  # atno 17321 bound_to 7965
  140.0998  144.5549  150.6996 LP  0  0  0  0  0  0  0  0  0  0  0  0  # atno 17342 bound_to 10162
  140.7078  143.2481  151.4673 LP  0  0  0  0  0  0  0  0  0  0  0  0  # atno 17343 bound_to 10162
  157.7112  131.0733  150.6492 LP  0  0  0  0  0  0  0  0  0  0  0  0  # atno 17370 bound_to 10713
  156.6557  130.4498  149.5704 LP  0  0  0  0  0  0  0  0  0  0  0  0  # atno 17371 bound_to 10713
  140.6427  133.9803  155.7715 LP  0  0  0  0  0  0  0  0  0  0  0  0  # atno 17394 bound_to 11000
  141.0761  134.0133  157.3456 LP  0  0  0  0  0  0  0  0  0  0  0  0  # atno 17395 bound_to 11000

$$$$
