AV-unprocessed.smi:189|AV-procd|sdf|1484|dock4
  -GOLD-   2262019303D 1   1.00000     0.00000
 Structure written by MMmdl.
 53 57  0  0  0  0  0  0  0  0  1 V2000
  151.0274  138.3454  154.9098 C   0  0  0  0  0  0  0  0  0  0  0  0
  151.2582  139.7746  155.4372 C   0  0  1  0  0  0  0  0  0  0  0  0
  149.9921  140.5532  155.8121 C   0  0  0  0  0  0  0  0  0  0  0  0
  150.5373  141.7083  156.6655 C   0  0  1  0  0  0  0  0  0  0  0  0
  149.7027  142.0429  157.9144 C   0  0  0  0  0  0  0  0  0  0  0  0
  150.3673  143.1383  158.7768 C   0  0  0  0  0  0  0  0  0  0  0  0
  151.9100  143.0472  158.8249 C   0  0  0  0  0  0  0  0  0  0  0  0
  152.4224  141.6474  158.4587 C   0  0  0  0  0  0  0  0  0  0  0  0
  151.9845  141.2882  157.0144 C   0  0  1  0  0  0  0  0  0  0  0  0
  152.1523  139.8943  156.5897 N   0  0  0  0  0  0  0  0  0  0  0  0
  152.0914  138.9516  157.5644 C   0  0  0  0  0  0  0  0  0  0  0  0
  151.0053  138.8449  158.3759 N   0  0  0  0  0  0  0  0  0  0  0  0
  150.9846  137.9316  159.3510 C   0  0  0  0  0  0  0  0  0  0  0  0
  151.9286  137.0507  159.6896 N   0  0  0  0  0  0  0  0  0  0  0  0
  153.0248  137.1660  158.8860 C   0  0  0  0  0  0  0  0  0  0  0  0
  153.1839  138.0789  157.8068 C   0  0  0  0  0  0  0  0  0  0  0  0
  154.4285  137.9084  157.2148 N   0  0  0  0  0  0  0  0  0  0  0  0
  154.9774  136.9484  157.9078 C   0  0  0  0  0  0  0  0  0  0  0  0
  154.2097  136.4527  158.9384 N   0  0  0  0  0  0  0  0  0  0  0  0
  154.5798  135.4014  159.8728 C   0  0  0  0  0  0  0  0  0  0  0  0
  155.2064  135.9378  161.1815 C   0  0  2  0  0  0  0  0  0  0  0  0
  156.4343  136.5773  160.8799 O   0  0  0  0  0  0  0  0  0  0  0  0
  155.4677  134.8639  162.2348 C   0  0  0  0  0  0  0  0  0  0  0  0
  155.2523  135.6105  163.5435 C   0  0  0  0  0  0  0  0  0  0  0  0
  154.1411  136.4368  163.2438 O   0  0  0  0  0  0  0  0  0  0  0  0
  154.3021  136.9431  161.9227 C   0  0  0  0  0  0  0  0  0  0  0  0
  150.4540  138.3688  153.9832 H   0  0  0  0  0  0  0  0  0  0  0  0
  150.4733  137.7254  155.6141 H   0  0  0  0  0  0  0  0  0  0  0  0
  151.9743  137.8483  154.6981 H   0  0  0  0  0  0  0  0  0  0  0  0
  151.7527  140.3216  154.6327 H   0  0  0  0  0  0  0  0  0  0  0  0
  149.4476  140.9032  154.9347 H   0  0  0  0  0  0  0  0  0  0  0  0
  149.3128  139.9277  156.3922 H   0  0  0  0  0  0  0  0  0  0  0  0
  150.5898  142.6039  156.0447 H   0  0  0  0  0  0  0  0  0  0  0  0
  148.6956  142.3500  157.6310 H   0  0  0  0  0  0  0  0  0  0  0  0
  149.5856  141.1410  158.5165 H   0  0  0  0  0  0  0  0  0  0  0  0
  150.0862  144.1229  158.4015 H   0  0  0  0  0  0  0  0  0  0  0  0
  149.9630  143.0783  159.7877 H   0  0  0  0  0  0  0  0  0  0  0  0
  152.3346  143.7675  158.1246 H   0  0  0  0  0  0  0  0  0  0  0  0
  152.2696  143.3382  159.8123 H   0  0  0  0  0  0  0  0  0  0  0  0
  153.5086  141.6004  158.5428 H   0  0  0  0  0  0  0  0  0  0  0  0
  152.0241  140.9480  159.1943 H   0  0  0  0  0  0  0  0  0  0  0  0
  152.6390  141.8586  156.3533 H   0  0  0  0  0  0  0  0  0  0  0  0
  150.0848  137.9060  159.9476 H   0  0  0  0  0  0  0  0  0  0  0  0
  155.9685  136.5787  157.6892 H   0  0  0  0  0  0  0  0  0  0  0  0
  153.6935  134.8048  160.0924 H   0  0  0  0  0  0  0  0  0  0  0  0
  155.2802  134.7339  159.3690 H   0  0  0  0  0  0  0  0  0  0  0  0
  157.0258  135.9365  160.5159 H   0  0  0  0  0  0  0  0  0  0  0  0
  154.7213  134.0723  162.1596 H   0  0  0  0  0  0  0  0  0  0  0  0
  156.4523  134.3999  162.1598 H   0  0  0  0  0  0  0  0  0  0  0  0
  155.0467  134.9449  164.3821 H   0  0  0  0  0  0  0  0  0  0  0  0
  156.1166  136.2280  163.7925 H   0  0  0  0  0  0  0  0  0  0  0  0
  154.7455  137.9394  161.9679 H   0  0  0  0  0  0  0  0  0  0  0  0
  153.3216  137.0442  161.4564 H   0  0  0  0  0  0  0  0  0  0  0  0
  1  2  1  0  0  0  0
  1 27  1  0  0  0  0
  1 28  1  0  0  0  0
  1 29  1  0  0  0  0
  2 10  1  0  0  0  0
  2  3  1  0  0  0  0
  2 30  1  0  0  0  0
  3  4  1  0  0  0  0
  3 31  1  0  0  0  0
  3 32  1  0  0  0  0
  4  9  1  0  0  0  0
  4  5  1  0  0  0  0
  4 33  1  0  0  0  0
  5  6  1  0  0  0  0
  5 34  1  0  0  0  0
  5 35  1  0  0  0  0
  6  7  1  0  0  0  0
  6 36  1  0  0  0  0
  6 37  1  0  0  0  0
  7  8  1  0  0  0  0
  7 38  1  0  0  0  0
  7 39  1  0  0  0  0
  8  9  1  0  0  0  0
  8 40  1  0  0  0  0
  8 41  1  0  0  0  0
  9 10  1  0  0  0  0
  9 42  1  0  0  0  0
 10 11  1  0  0  0  0
 11 16  1  0  0  0  0
 11 12  2  0  0  0  0
 12 13  1  0  0  0  0
 13 14  2  0  0  0  0
 13 43  1  0  0  0  0
 14 15  1  0  0  0  0
 15 19  1  0  0  0  0
 15 16  2  0  0  0  0
 16 17  1  0  0  0  0
 17 18  2  0  0  0  0
 18 19  1  0  0  0  0
 18 44  1  0  0  0  0
 19 20  1  0  0  0  0
 20 21  1  0  0  0  0
 20 45  1  0  0  0  0
 20 46  1  0  0  0  0
 21 26  1  0  0  0  0
 21 22  1  0  0  0  0
 21 23  1  0  0  0  0
 22 47  1  0  0  0  0
 23 24  1  0  0  0  0
 23 48  1  0  0  0  0
 23 49  1  0  0  0  0
 24 25  1  0  0  0  0
 24 50  1  0  0  0  0
 24 51  1  0  0  0  0
 25 26  1  0  0  0  0
 26 52  1  0  0  0  0
 26 53  1  0  0  0  0
M  END
> <s_m_source_file>
AV-unprocessed.smi

> <i_m_source_file_index>
189

> <i_lp_mmshare_version>
43012

> <i_f3d_flags>
0

> <s_epik_input>
W0NIMl0xW0NIMl1bQ0gyXVtDSDJdW0NASF0oW0NASF0xMilOKFtDQEhdKFtDSDNdKVtDSDJdMiljKG5bY0hdbjMpYyhjMzQpbltjSF1uNFtDSDJdW0NAQF01KFtPSF0pW0NIMl1bQ0gyXU9bQ0gyXTU=

> <s_epik_cmdline>
J2VwaWtfcHl0aG9uJywgJy1waCcsICc3LjAnLCAnLXRuJywgJzgnLCAnLW1hJywgJzIwMCcsICctbWV0YWxfYmluZGluZycsICctaW1hZScsICc8aW5maWxlLm1hZT4nLCAnLW9tYWUnLCAnPG91dGZpbGUubWFlPic=

> <r_lp_tautomer_probability>
1

> <r_epik_Ionization_Penalty>
0.00594261

> <r_epik_Ionization_Penalty_Charging>
0

> <r_epik_Ionization_Penalty_Neutral>
0.00594261

> <r_epik_State_Penalty>
0.00429776

> <r_epik_Charging_Adjusted_Penalty>
0.00429776

> <i_epik_Tot_Q>
0

> <i_epik_Tot_abs_Q>
0

> <r_epik_Metal_State_Penalty>
-0

> <b_epik_Metal_Only>
0

> <s_lp_Force_Field>
OPLS_2005

> <r_lp_Energy>
66.1404

> <b_lp_Chiralities_Consistent>
1

> <s_lp_Variant>
AV-unprocessed.smi:189-10

> <Gold.Version>
5.8.1

> <Gold.Id.Protein>
6NUR|6NUR_protein|mol2

> <Gold.PLP.Fitness>
42.2133

> <Gold.PLP.PLP>
-37.6570

> <Gold.PLP.part.hbond>
-2.4740

> <Gold.PLP.part.metal>
0.0000

> <Gold.PLP.part.buried>
-5.8310

> <Gold.PLP.part.nonpolar>
-29.3513

> <Gold.PLP.part.repulsive>
0.0339

> <Gold.PLP.ligand.clash>
0.0000

> <Gold.PLP.ligand.torsion>
0.4406

> <Gold.PLP.Chemscore.Hbond>
1.8000

> <Gold.PLP.Chemscore.CHOScore>
0.0000

> <Gold.PLP.Chemscore.Metal>
0.0000

> <Gold.Chemscore.Hbonds>
donor molecule, donor type, donor heavy atom, donor atom, acceptor molecule, acceptor atom, score
      P1  H  6896  6907       L1    14  1.00
      P1  H  7997  8009       L1    17  0.29

> <Gold.PLP.Chemscore.Internal.Correction>
0.0374

> <Gold.Rescore>
     Score         DG    S(hbond)    S(metal)    S(lipo)     H(rot)  DE(clash)    DE(int)     intcor
     16.21     -16.83       1.67        0.00      93.62       2.03       0.08       0.53       ----

> <Gold.Chemscore.Fitness>
16.2132

> <Gold.Chemscore.DG>
-16.8292

> <Gold.Chemscore.ZeroCoef>
-5.4800

> <Gold.Chemscore.Hbond>
1.6740

> <Gold.Chemscore.Metal>
0.0000

> <Gold.Chemscore.Lipo>
93.6245

> <Gold.Chemscore.Internal_Hbond>
0.0000

> <Gold.Chemscore.DEClash>
0.0843

> <Gold.Chemscore.DEInternal>
0.5317

> <Gold.Chemscore.Rot>
2.0297

> <Gold.Chemscore.Internal.Correction>
   9.000000E+99

> <Gold.Chemscore.Hbonds>
donor molecule, donor type, donor heavy atom, donor atom, acceptor molecule, acceptor atom, score
      P1  H  6896  6907       L1    14  0.50
      P1  H  7997  8009       L1    17  0.03

> <Gold.Chemscore.Hbond.Weighted>
-5.5911

> <Gold.Chemscore.Metal.Weighted>
-0.0000

> <Gold.Chemscore.Lipo.Weighted>
-10.9541

> <Gold.Chemscore.Internal_Hbond.Weighted>
0.0000

> <Gold.Chemscore.DEClash.Weighted>
0.0843

> <Gold.Chemscore.DEInternal.Weighted>
0.5317

> <Gold.Chemscore.Rot.Weighted>
5.1960

> <Gold.Chemscore.Internal.Correction.Weighted>
   9.000000E+99

> <Gold.Protein.RotatedTorsions>
[ 6907 6896 6895 6894 ] final    9.28 input  -60.11 | X-H torsion
[ 7974 7965 7964 7962 ] final -152.23 input  175.53 | X-H torsion
[ 8008 7997 7996 7995 ] final  138.21 input   59.86 | X-H torsion
[ 10167 10162 10161 10158 ] final   29.97 input  -65.29 | X-H torsion
[ 10718 10713 10712 10709 ] final -123.66 input   66.30 | X-H torsion
[ 10763 10752 10751 10750 ] final  -45.68 input  -60.55 | X-H torsion
[ 11005 11000 10999 10996 ] final  151.84 input  -57.11 | X-H torsion

> <Gold.Protein.ActiveResidues>
 VAL166  LYS551  ARG553  GLY616  TRP617  ASP618  TYR619  PRO620  LYS621  CYS622 
 ASP623  PHE694  ASN695  SER759  ASP760  ASP761  ALA762  ILE779  LEU786  VAL792 
 PHE793  MET794  SER795  GLU796  ALA797  LYS798  CYS799  TRP800  GLU811  SER814 

> <Gold.Protein.RotatedAtoms>
  151.7196  135.0897  160.0281 H   0  0  0  0  0  0  0  0  0  0  0  0  # atno 6907 bound_to 6896
  152.3610  133.6292  159.6023 H   0  0  0  0  0  0  0  0  0  0  0  0  # atno 6908 bound_to 6896
  150.7604  133.9340  159.3477 H   0  0  0  0  0  0  0  0  0  0  0  0  # atno 6909 bound_to 6896
  144.7805  140.4690  143.5842 H   0  0  0  0  0  0  0  0  0  0  0  0  # atno 7974 bound_to 7965
  156.2998  140.2399  156.4037 H   0  0  0  0  0  0  0  0  0  0  0  0  # atno 8008 bound_to 7997
  154.8504  140.0424  157.1620 H   0  0  0  0  0  0  0  0  0  0  0  0  # atno 8009 bound_to 7997
  154.9005  140.2976  155.5324 H   0  0  0  0  0  0  0  0  0  0  0  0  # atno 8010 bound_to 7997
  140.4719  144.0750  150.6239 H   0  0  0  0  0  0  0  0  0  0  0  0  # atno 10167 bound_to 10162
  156.1521  130.6542  150.9928 H   0  0  0  0  0  0  0  0  0  0  0  0  # atno 10718 bound_to 10713
  154.0325  135.6655  153.4782 H   0  0  0  0  0  0  0  0  0  0  0  0  # atno 10763 bound_to 10752
  153.0534  135.5070  154.7919 H   0  0  0  0  0  0  0  0  0  0  0  0  # atno 10764 bound_to 10752
  154.6869  135.3054  154.9500 H   0  0  0  0  0  0  0  0  0  0  0  0  # atno 10765 bound_to 10752
  140.1255  134.8836  157.2131 H   0  0  0  0  0  0  0  0  0  0  0  0  # atno 11005 bound_to 11000
  145.6063  139.1508  143.3101 LP  0  0  0  0  0  0  0  0  0  0  0  0  # atno 17320 bound_to 7965
  146.2011  140.6181  142.9102 LP  0  0  0  0  0  0  0  0  0  0  0  0  # atno 17321 bound_to 7965
  140.3967  143.2725  151.9997 LP  0  0  0  0  0  0  0  0  0  0  0  0  # atno 17342 bound_to 10162
  139.4820  144.6032  151.7568 LP  0  0  0  0  0  0  0  0  0  0  0  0  # atno 17343 bound_to 10162
  157.6665  131.0870  150.7715 LP  0  0  0  0  0  0  0  0  0  0  0  0  # atno 17370 bound_to 10713
  156.7783  130.4851  149.5405 LP  0  0  0  0  0  0  0  0  0  0  0  0  # atno 17371 bound_to 10713
  140.2910  134.3241  155.7315 LP  0  0  0  0  0  0  0  0  0  0  0  0  # atno 17394 bound_to 11000
  141.2160  133.7534  156.9502 LP  0  0  0  0  0  0  0  0  0  0  0  0  # atno 17395 bound_to 11000

$$$$
