AV-unprocessed.smi:2819|AV-procd|sdf|10852|dock6
  -GOLD-   2272015293D 1   1.00000     0.00000
 Structure written by MMmdl.
 49 50  0  0  0  0  0  0  0  0  1 V2000
  147.3529  130.7323  153.1454 C   0  0  0  0  0  0  0  0  0  0  0  0
  146.2225  130.5809  152.2354 N   0  0  0  0  0  0  0  0  0  0  0  0
  145.6967  129.2554  151.9344 C   0  0  0  0  0  0  0  0  0  0  0  0
  145.5878  131.7283  151.7098 C   0  0  0  0  0  0  0  0  0  0  0  0
  144.4061  131.6416  150.9345 C   0  0  0  0  0  0  0  0  0  0  0  0
  143.8619  132.8529  150.4664 C   0  0  0  0  0  0  0  0  0  0  0  0
  144.4341  134.0427  150.7396 N   0  0  0  0  0  0  0  0  0  0  0  0
  145.5500  134.0311  151.4796 C   0  0  0  0  0  0  0  0  0  0  0  0
  146.1871  135.2117  151.7950 N   0  0  0  0  0  0  0  0  0  0  0  0
  145.6915  136.4169  152.1349 C   0  0  0  0  0  0  0  0  0  0  0  0
  144.4959  136.6971  152.2307 O   0  0  0  0  0  0  0  0  0  0  0  0
  146.6773  137.2941  152.3740 N   0  0  0  0  0  0  0  0  0  0  0  0
  146.5018  138.6816  152.8044 C   0  0  0  0  0  0  0  0  0  0  0  0
  147.1267  138.9652  154.2029 C   0  0  0  0  0  0  0  0  0  0  0  0
  146.6426  137.8440  155.1540 C   0  0  0  0  0  0  0  0  0  0  0  0
  148.6599  138.7970  154.0459 C   0  0  0  0  0  0  0  0  0  0  0  0
  146.7837  140.3312  154.6908 N   0  0  0  0  0  0  0  0  0  0  0  0
  145.4985  140.4338  155.3915 C   0  0  0  0  0  0  0  0  0  0  0  0
  145.2668  141.8393  155.9721 C   0  0  0  0  0  0  0  0  0  0  0  0
  145.3478  142.8073  154.9331 O   0  0  0  0  0  0  0  0  0  0  0  0
  146.6030  142.7822  154.2651 C   0  0  0  0  0  0  0  0  0  0  0  0
  146.8451  141.3846  153.6702 C   0  0  0  0  0  0  0  0  0  0  0  0
  146.1440  132.9383  151.9680 N   0  0  0  0  0  0  0  0  0  0  0  0
  148.1646  131.2757  152.6606 H   0  0  0  0  0  0  0  0  0  0  0  0
  147.7427  129.7645  153.4614 H   0  0  0  0  0  0  0  0  0  0  0  0
  147.0533  131.2802  154.0394 H   0  0  0  0  0  0  0  0  0  0  0  0
  144.6631  129.1669  152.2705 H   0  0  0  0  0  0  0  0  0  0  0  0
  146.2753  128.4763  152.4310 H   0  0  0  0  0  0  0  0  0  0  0  0
  145.7325  129.0632  150.8616 H   0  0  0  0  0  0  0  0  0  0  0  0
  143.9242  130.7050  150.6988 H   0  0  0  0  0  0  0  0  0  0  0  0
  142.9624  132.8659  149.8688 H   0  0  0  0  0  0  0  0  0  0  0  0
  147.1944  135.1547  151.7765 H   0  0  0  0  0  0  0  0  0  0  0  0
  147.6295  136.9731  152.2775 H   0  0  0  0  0  0  0  0  0  0  0  0
  146.9436  139.3231  152.0424 H   0  0  0  0  0  0  0  0  0  0  0  0
  145.4444  138.9522  152.8021 H   0  0  0  0  0  0  0  0  0  0  0  0
  146.9277  136.8613  154.7762 H   0  0  0  0  0  0  0  0  0  0  0  0
  145.5580  137.8349  155.2605 H   0  0  0  0  0  0  0  0  0  0  0  0
  147.0740  137.9331  156.1506 H   0  0  0  0  0  0  0  0  0  0  0  0
  148.9092  137.8742  153.5205 H   0  0  0  0  0  0  0  0  0  0  0  0
  149.1707  138.7458  155.0073 H   0  0  0  0  0  0  0  0  0  0  0  0
  149.1012  139.6201  153.4830 H   0  0  0  0  0  0  0  0  0  0  0  0
  144.6789  140.1936  154.7145 H   0  0  0  0  0  0  0  0  0  0  0  0
  145.4469  139.7246  156.2156 H   0  0  0  0  0  0  0  0  0  0  0  0
  144.2828  141.8988  156.4374 H   0  0  0  0  0  0  0  0  0  0  0  0
  146.0020  142.0632  156.7467 H   0  0  0  0  0  0  0  0  0  0  0  0
  146.6010  143.5342  153.4759 H   0  0  0  0  0  0  0  0  0  0  0  0
  147.4003  143.0496  154.9607 H   0  0  0  0  0  0  0  0  0  0  0  0
  147.8166  141.3977  153.1798 H   0  0  0  0  0  0  0  0  0  0  0  0
  146.1013  141.2014  152.8948 H   0  0  0  0  0  0  0  0  0  0  0  0
  1  2  1  0  0  0  0
  1 24  1  0  0  0  0
  1 25  1  0  0  0  0
  1 26  1  0  0  0  0
  2  3  1  0  0  0  0
  2  4  1  0  0  0  0
  3 27  1  0  0  0  0
  3 28  1  0  0  0  0
  3 29  1  0  0  0  0
  4 23  1  0  0  0  0
  4  5  2  0  0  0  0
  5  6  1  0  0  0  0
  5 30  1  0  0  0  0
  6  7  2  0  0  0  0
  6 31  1  0  0  0  0
  7  8  1  0  0  0  0
  8  9  1  0  0  0  0
  8 23  2  0  0  0  0
  9 10  1  0  0  0  0
  9 32  1  0  0  0  0
 10 11  2  0  0  0  0
 10 12  1  0  0  0  0
 12 13  1  0  0  0  0
 12 33  1  0  0  0  0
 13 14  1  0  0  0  0
 13 34  1  0  0  0  0
 13 35  1  0  0  0  0
 14 15  1  0  0  0  0
 14 16  1  0  0  0  0
 14 17  1  0  0  0  0
 15 36  1  0  0  0  0
 15 37  1  0  0  0  0
 15 38  1  0  0  0  0
 16 39  1  0  0  0  0
 16 40  1  0  0  0  0
 16 41  1  0  0  0  0
 17 22  1  0  0  0  0
 17 18  1  0  0  0  0
 18 19  1  0  0  0  0
 18 42  1  0  0  0  0
 18 43  1  0  0  0  0
 19 20  1  0  0  0  0
 19 44  1  0  0  0  0
 19 45  1  0  0  0  0
 20 21  1  0  0  0  0
 21 22  1  0  0  0  0
 21 46  1  0  0  0  0
 21 47  1  0  0  0  0
 22 48  1  0  0  0  0
 22 49  1  0  0  0  0
M  END
> <s_m_source_file>
AV-unprocessed.smi

> <i_m_source_file_index>
2819

> <i_lp_mmshare_version>
43012

> <i_f3d_flags>
0

> <s_epik_input>
W0NIM11OKFtDSDNdKWMxW2NIXVtjSF1uYyhuMSlbTkhdQyg9TylbTkhdW0NIMl1DKFtDSDNdKShbQ0gzXSlOMltDSDJdW0NIMl1PW0NIMl1bQ0gyXTI=

> <s_epik_cmdline>
J2VwaWtfcHl0aG9uJywgJy1waCcsICc3LjAnLCAnLXRuJywgJzgnLCAnLW1hJywgJzIwMCcsICctbWV0YWxfYmluZGluZycsICctaW1hZScsICc8aW5maWxlLm1hZT4nLCAnLW9tYWUnLCAnPG91dGZpbGUubWFlPic=

> <r_lp_tautomer_probability>
1

> <r_epik_Ionization_Penalty>
1.38931

> <r_epik_Ionization_Penalty_Charging>
0

> <r_epik_Ionization_Penalty_Neutral>
1.38931

> <r_epik_State_Penalty>
1.41304

> <r_epik_Charging_Adjusted_Penalty>
1.41304

> <i_epik_Tot_Q>
0

> <i_epik_Tot_abs_Q>
0

> <r_epik_Metal_State_Penalty>
0.631353

> <b_epik_Metal_Only>
0

> <s_lp_Force_Field>
OPLS_2005

> <r_lp_Energy>
40.3447

> <b_lp_Chiralities_Consistent>
1

> <s_lp_Variant>
AV-unprocessed.smi:2819-3

> <Gold.Version>
5.8.1

> <Gold.Id.Protein>
6NUR|6NUR_protein|mol2

> <Gold.PLP.Fitness>
42.3413

> <Gold.PLP.PLP>
-35.4843

> <Gold.PLP.part.hbond>
-2.0000

> <Gold.PLP.part.metal>
0.0000

> <Gold.PLP.part.buried>
-7.7765

> <Gold.PLP.part.nonpolar>
-28.0772

> <Gold.PLP.part.repulsive>
1.1901

> <Gold.PLP.ligand.clash>
0.0000

> <Gold.PLP.ligand.torsion>
1.0092

> <Gold.PLP.Chemscore.Hbond>
1.9280

> <Gold.PLP.Chemscore.CHOScore>
0.9962

> <Gold.PLP.Chemscore.Metal>
0.0000

> <Gold.Chemscore.Hbonds>
donor molecule, donor type, donor heavy atom, donor atom, acceptor molecule, acceptor atom, score
      L1  H     9    32       P1  7948  0.93
      L1  H    12    33       P1  7948  1.00
      L1  C     6    31       P1 10186  1.00

> <Gold.PLP.Chemscore.Internal.Correction>
0.1028

> <Gold.Rescore>
     Score         DG    S(hbond)    S(metal)    S(lipo)     H(rot)  DE(clash)    DE(int)     intcor
     14.40     -16.00       1.92        0.00      68.03       1.51       0.07       1.53       ----

> <Gold.Chemscore.Fitness>
14.4037

> <Gold.Chemscore.DG>
-15.9990

> <Gold.Chemscore.ZeroCoef>
-5.4800

> <Gold.Chemscore.Hbond>
1.9218

> <Gold.Chemscore.Metal>
0.0000

> <Gold.Chemscore.Lipo>
68.0269

> <Gold.Chemscore.Internal_Hbond>
0.0000

> <Gold.Chemscore.DEClash>
0.0677

> <Gold.Chemscore.DEInternal>
1.5276

> <Gold.Chemscore.Rot>
1.5075

> <Gold.Chemscore.Internal.Correction>
   9.000000E+99

> <Gold.Chemscore.Hbonds>
donor molecule, donor type, donor heavy atom, donor atom, acceptor molecule, acceptor atom, score
      L1  H     9    32       P1  7948  0.81
      L1  H    12    33       P1  7948  0.96

> <Gold.Chemscore.Hbond.Weighted>
-6.4189

> <Gold.Chemscore.Metal.Weighted>
-0.0000

> <Gold.Chemscore.Lipo.Weighted>
-7.9591

> <Gold.Chemscore.Internal_Hbond.Weighted>
0.0000

> <Gold.Chemscore.DEClash.Weighted>
0.0677

> <Gold.Chemscore.DEInternal.Weighted>
1.5276

> <Gold.Chemscore.Rot.Weighted>
3.8591

> <Gold.Chemscore.Internal.Correction.Weighted>
   9.000000E+99

> <Gold.Protein.RotatedTorsions>
[ 6907 6896 6895 6894 ] final  156.70 input  -60.11 | X-H torsion
[ 7974 7965 7964 7962 ] final -169.60 input  175.53 | X-H torsion
[ 8008 7997 7996 7995 ] final -109.04 input   59.86 | X-H torsion
[ 10167 10162 10161 10158 ] final  159.97 input  -65.29 | X-H torsion
[ 10718 10713 10712 10709 ] final   24.00 input   66.30 | X-H torsion
[ 10763 10752 10751 10750 ] final  -83.44 input  -60.55 | X-H torsion
[ 11005 11000 10999 10996 ] final  -67.83 input  -57.11 | X-H torsion

> <Gold.Protein.ActiveResidues>
 VAL166  LYS551  ARG553  GLY616  TRP617  ASP618  TYR619  PRO620  LYS621  CYS622 
 ASP623  PHE694  ASN695  SER759  ASP760  ASP761  ALA762  ILE779  LEU786  VAL792 
 PHE793  MET794  SER795  GLU796  ALA797  LYS798  CYS799  TRP800  GLU811  SER814 

> <Gold.Protein.RotatedAtoms>
  152.0259  133.3917  159.4276 H   0  0  0  0  0  0  0  0  0  0  0  0  # atno 6907 bound_to 6896
  150.6886  134.3575  159.4945 H   0  0  0  0  0  0  0  0  0  0  0  0  # atno 6908 bound_to 6896
  152.1355  134.9102  160.0607 H   0  0  0  0  0  0  0  0  0  0  0  0  # atno 6909 bound_to 6896
  144.7183  140.2197  143.6317 H   0  0  0  0  0  0  0  0  0  0  0  0  # atno 7974 bound_to 7965
  154.9533  140.0400  157.2154 H   0  0  0  0  0  0  0  0  0  0  0  0  # atno 8008 bound_to 7997
  154.7958  140.2843  155.5936 H   0  0  0  0  0  0  0  0  0  0  0  0  # atno 8009 bound_to 7997
  156.2955  140.2564  156.2815 H   0  0  0  0  0  0  0  0  0  0  0  0  # atno 8010 bound_to 7997
  139.4836  144.4679  151.8616 H   0  0  0  0  0  0  0  0  0  0  0  0  # atno 10167 bound_to 10162
  157.1738  130.6772  149.6088 H   0  0  0  0  0  0  0  0  0  0  0  0  # atno 10718 bound_to 10713
  154.5877  135.5556  153.7248 H   0  0  0  0  0  0  0  0  0  0  0  0  # atno 10763 bound_to 10752
  153.0105  135.6335  154.1893 H   0  0  0  0  0  0  0  0  0  0  0  0  # atno 10764 bound_to 10752
  154.1833  135.2886  155.3025 H   0  0  0  0  0  0  0  0  0  0  0  0  # atno 10765 bound_to 10752
  141.1517  133.6727  156.6352 H   0  0  0  0  0  0  0  0  0  0  0  0  # atno 11005 bound_to 11000
  145.8513  139.2177  143.1770 LP  0  0  0  0  0  0  0  0  0  0  0  0  # atno 17320 bound_to 7965
  146.0258  140.8305  142.9900 LP  0  0  0  0  0  0  0  0  0  0  0  0  # atno 17321 bound_to 7965
  140.4146  144.2324  150.5888 LP  0  0  0  0  0  0  0  0  0  0  0  0  # atno 17342 bound_to 10162
  140.4933  143.2340  151.8786 LP  0  0  0  0  0  0  0  0  0  0  0  0  # atno 17343 bound_to 10162
  155.9734  130.4670  150.6308 LP  0  0  0  0  0  0  0  0  0  0  0  0  # atno 17370 bound_to 10713
  157.4017  131.0811  151.1302 LP  0  0  0  0  0  0  0  0  0  0  0  0  # atno 17371 bound_to 10713
  140.3436  134.7828  157.4415 LP  0  0  0  0  0  0  0  0  0  0  0  0  # atno 17394 bound_to 11000
  140.0918  134.5591  155.8437 LP  0  0  0  0  0  0  0  0  0  0  0  0  # atno 17395 bound_to 11000

$$$$
