AV-unprocessed.smi:234|AV-procd|sdf|1787|dock3
  -GOLD-   2262020343D 1   1.00000     0.00000
 Structure written by MMmdl.
 59 62  0  0  0  0  0  0  0  0  1 V2000
  145.2750  135.9837  151.8168 C   0  0  0  0  0  0  0  0  0  0  0  0
  146.0020  136.3536  153.1164 C   0  0  0  0  0  0  0  0  0  0  0  0
  146.7810  135.2775  153.6185 O   0  0  0  0  0  0  0  0  0  0  0  0
  147.4925  135.5656  154.8152 C   0  0  2  0  0  0  0  0  0  0  0  0
  148.4243  136.7646  154.6528 C   0  0  0  0  0  0  0  0  0  0  0  0
  149.4074  135.9865  155.5382 C   0  0  2  0  0  0  0  0  0  0  0  0
  150.8141  136.1498  155.1602 N   0  0  0  0  0  0  0  0  0  0  0  0
  151.7849  135.1854  155.6645 C   0  0  0  0  0  0  0  0  0  0  0  0
  151.3178  137.4066  155.1259 C   0  0  0  0  0  0  0  0  0  0  0  0
  152.3461  137.6354  154.2704 N   0  0  0  0  0  0  0  0  0  0  0  0
  152.8865  138.8542  154.1811 C   0  0  0  0  0  0  0  0  0  0  0  0
  152.5612  139.9628  154.8490 N   0  0  0  0  0  0  0  0  0  0  0  0
  151.5392  139.7337  155.7225 C   0  0  0  0  0  0  0  0  0  0  0  0
  150.8689  138.4945  155.9299 C   0  0  0  0  0  0  0  0  0  0  0  0
  149.9013  138.6430  156.9172 N   0  0  0  0  0  0  0  0  0  0  0  0
  149.9832  139.8987  157.2603 C   0  0  0  0  0  0  0  0  0  0  0  0
  150.9320  140.6314  156.5840 N   0  0  0  0  0  0  0  0  0  0  0  0
  151.2268  142.0460  156.7570 C   0  0  0  0  0  0  0  0  0  0  0  0
  151.5938  142.4218  158.2172 C   0  0  1  0  0  0  0  0  0  0  0  0
  150.4116  142.3556  158.9969 O   0  0  0  0  0  0  0  0  0  0  0  0
  152.6197  141.4830  158.8476 C   0  0  0  0  0  0  0  0  0  0  0  0
  153.3343  142.3758  159.8499 C   0  0  0  0  0  0  0  0  0  0  0  0
  153.4374  143.6002  159.1459 O   0  0  0  0  0  0  0  0  0  0  0  0
  152.2232  143.8273  158.4349 C   0  0  1  0  0  0  0  0  0  0  0  0
  152.5644  144.6390  157.1756 C   0  0  0  0  0  0  0  0  0  0  0  0
  148.7422  134.6735  155.0358 C   0  0  0  0  0  0  0  0  0  0  0  0
  148.5767  133.5617  156.0729 C   0  0  0  0  0  0  0  0  0  0  0  0
  149.3258  134.0244  153.7686 C   0  0  0  0  0  0  0  0  0  0  0  0
  144.7698  136.8534  151.3965 H   0  0  0  0  0  0  0  0  0  0  0  0
  144.5184  135.2176  151.9842 H   0  0  0  0  0  0  0  0  0  0  0  0
  145.9752  135.6106  151.0692 H   0  0  0  0  0  0  0  0  0  0  0  0
  146.6791  137.1848  152.9194 H   0  0  0  0  0  0  0  0  0  0  0  0
  145.2978  136.7006  153.8741 H   0  0  0  0  0  0  0  0  0  0  0  0
  146.8706  135.6674  155.7083 H   0  0  0  0  0  0  0  0  0  0  0  0
  148.7674  136.9101  153.6266 H   0  0  0  0  0  0  0  0  0  0  0  0
  148.0482  137.6910  155.0876 H   0  0  0  0  0  0  0  0  0  0  0  0
  149.2160  136.1523  156.6001 H   0  0  0  0  0  0  0  0  0  0  0  0
  152.4497  135.6334  156.4050 H   0  0  0  0  0  0  0  0  0  0  0  0
  152.3948  134.8066  154.8442 H   0  0  0  0  0  0  0  0  0  0  0  0
  151.2933  134.3369  156.1375 H   0  0  0  0  0  0  0  0  0  0  0  0
  153.6955  138.9557  153.4723 H   0  0  0  0  0  0  0  0  0  0  0  0
  149.3447  140.3287  158.0181 H   0  0  0  0  0  0  0  0  0  0  0  0
  152.0456  142.2944  156.0814 H   0  0  0  0  0  0  0  0  0  0  0  0
  150.3624  142.6195  156.4197 H   0  0  0  0  0  0  0  0  0  0  0  0
  149.7354  141.9418  158.4829 H   0  0  0  0  0  0  0  0  0  0  0  0
  152.1842  140.5907  159.2998 H   0  0  0  0  0  0  0  0  0  0  0  0
  153.3403  141.1565  158.0969 H   0  0  0  0  0  0  0  0  0  0  0  0
  152.7369  142.5151  160.7523 H   0  0  0  0  0  0  0  0  0  0  0  0
  154.3133  141.9910  160.1356 H   0  0  0  0  0  0  0  0  0  0  0  0
  151.5793  144.4375  159.0713 H   0  0  0  0  0  0  0  0  0  0  0  0
  151.6721  144.8590  156.5896 H   0  0  0  0  0  0  0  0  0  0  0  0
  153.2730  144.1107  156.5374 H   0  0  0  0  0  0  0  0  0  0  0  0
  153.0185  145.5925  157.4459 H   0  0  0  0  0  0  0  0  0  0  0  0
  149.5274  133.0861  156.3126 H   0  0  0  0  0  0  0  0  0  0  0  0
  147.9064  132.7795  155.7167 H   0  0  0  0  0  0  0  0  0  0  0  0
  148.1620  133.9438  157.0058 H   0  0  0  0  0  0  0  0  0  0  0  0
  150.2712  133.5209  153.9721 H   0  0  0  0  0  0  0  0  0  0  0  0
  149.5142  134.7543  152.9812 H   0  0  0  0  0  0  0  0  0  0  0  0
  148.6456  133.2789  153.3556 H   0  0  0  0  0  0  0  0  0  0  0  0
  1  2  1  0  0  0  0
  1 29  1  0  0  0  0
  1 30  1  0  0  0  0
  1 31  1  0  0  0  0
  2  3  1  0  0  0  0
  2 32  1  0  0  0  0
  2 33  1  0  0  0  0
  3  4  1  0  0  0  0
  4 26  1  0  0  0  0
  4  5  1  0  0  0  0
  4 34  1  0  0  0  0
  5  6  1  0  0  0  0
  5 35  1  0  0  0  0
  5 36  1  0  0  0  0
  6  7  1  0  0  0  0
  6 26  1  0  0  0  0
  6 37  1  0  0  0  0
  7  8  1  0  0  0  0
  7  9  1  0  0  0  0
  8 38  1  0  0  0  0
  8 39  1  0  0  0  0
  8 40  1  0  0  0  0
  9 14  1  0  0  0  0
  9 10  2  0  0  0  0
 10 11  1  0  0  0  0
 11 12  2  0  0  0  0
 11 41  1  0  0  0  0
 12 13  1  0  0  0  0
 13 17  1  0  0  0  0
 13 14  2  0  0  0  0
 14 15  1  0  0  0  0
 15 16  2  0  0  0  0
 16 17  1  0  0  0  0
 16 42  1  0  0  0  0
 17 18  1  0  0  0  0
 18 19  1  0  0  0  0
 18 43  1  0  0  0  0
 18 44  1  0  0  0  0
 19 24  1  0  0  0  0
 19 20  1  0  0  0  0
 19 21  1  0  0  0  0
 20 45  1  0  0  0  0
 21 22  1  0  0  0  0
 21 46  1  0  0  0  0
 21 47  1  0  0  0  0
 22 23  1  0  0  0  0
 22 48  1  0  0  0  0
 22 49  1  0  0  0  0
 23 24  1  0  0  0  0
 24 25  1  0  0  0  0
 24 50  1  0  0  0  0
 25 51  1  0  0  0  0
 25 52  1  0  0  0  0
 25 53  1  0  0  0  0
 26 27  1  0  0  0  0
 26 28  1  0  0  0  0
 27 54  1  0  0  0  0
 27 55  1  0  0  0  0
 27 56  1  0  0  0  0
 28 57  1  0  0  0  0
 28 58  1  0  0  0  0
 28 59  1  0  0  0  0
M  END
> <s_m_source_file>
AV-unprocessed.smi

> <i_m_source_file_index>
234

> <i_lp_mmshare_version>
43012

> <i_f3d_flags>
0

> <s_epik_input>
W0NIM11bQ0gyXU9bQ0BASF0oQzEoW0NIM10pW0NIM10pW0NIMl1bQ0BIXTFOKFtDSDNdKWMobltjSF1uMiljKGMyMyluW2NIXW4zW0NIMl1bQ0BAXTQoW09IXSlbQ0gyXVtDSDJdT1tDQEhdNFtDSDNd

> <s_epik_cmdline>
J2VwaWtfcHl0aG9uJywgJy1waCcsICc3LjAnLCAnLXRuJywgJzgnLCAnLW1hJywgJzIwMCcsICctbWV0YWxfYmluZGluZycsICctaW1hZScsICc8aW5maWxlLm1hZT4nLCAnLW9tYWUnLCAnPG91dGZpbGUubWFlPic=

> <r_lp_tautomer_probability>
1

> <r_epik_Ionization_Penalty>
0.00349132

> <r_epik_Ionization_Penalty_Charging>
0

> <r_epik_Ionization_Penalty_Neutral>
0.00349132

> <r_epik_State_Penalty>
0.00242418

> <r_epik_Charging_Adjusted_Penalty>
0.00242418

> <i_epik_Tot_Q>
0

> <i_epik_Tot_abs_Q>
0

> <r_epik_Metal_State_Penalty>
-0

> <b_epik_Metal_Only>
0

> <s_lp_Force_Field>
OPLS_2005

> <r_lp_Energy>
50.018

> <b_lp_Chiralities_Consistent>
1

> <s_lp_Variant>
AV-unprocessed.smi:234-3

> <Gold.Version>
5.8.1

> <Gold.Id.Protein>
6NUR|6NUR_protein|mol2

> <Gold.PLP.Fitness>
44.7227

> <Gold.PLP.PLP>
-40.0910

> <Gold.PLP.part.hbond>
-3.6391

> <Gold.PLP.part.metal>
0.0000

> <Gold.PLP.part.buried>
-4.8600

> <Gold.PLP.part.nonpolar>
-31.3145

> <Gold.PLP.part.repulsive>
0.4131

> <Gold.PLP.ligand.clash>
0.0000

> <Gold.PLP.ligand.torsion>
0.8677

> <Gold.PLP.Chemscore.Hbond>
1.7596

> <Gold.PLP.Chemscore.CHOScore>
0.0000

> <Gold.PLP.Chemscore.Metal>
0.0000

> <Gold.Chemscore.Hbonds>
donor molecule, donor type, donor heavy atom, donor atom, acceptor molecule, acceptor atom, score
      P1  H  7989  7998       L1    12  0.50
      P1  H  7997  8010       L1    12  0.57
      P1  H 10752 10764       L1    10  0.36

> <Gold.PLP.Chemscore.Internal.Correction>
1.0884

> <Gold.Rescore>
     Score         DG    S(hbond)    S(metal)    S(lipo)     H(rot)  DE(clash)    DE(int)     intcor
     10.03     -12.62       1.02        0.00      89.30       2.62       0.60       2.00       ----

> <Gold.Chemscore.Fitness>
10.0254

> <Gold.Chemscore.DG>
-12.6192

> <Gold.Chemscore.ZeroCoef>
-5.4800

> <Gold.Chemscore.Hbond>
1.0190

> <Gold.Chemscore.Metal>
0.0000

> <Gold.Chemscore.Lipo>
89.2984

> <Gold.Chemscore.Internal_Hbond>
0.0000

> <Gold.Chemscore.DEClash>
0.5954

> <Gold.Chemscore.DEInternal>
1.9984

> <Gold.Chemscore.Rot>
2.6219

> <Gold.Chemscore.Internal.Correction>
   9.000000E+99

> <Gold.Chemscore.Hbonds>
donor molecule, donor type, donor heavy atom, donor atom, acceptor molecule, acceptor atom, score
      P1  H  7989  7998       L1    12  0.04
      P1  H  7997  8010       L1    12  0.07
      P1  H 10752 10764       L1    10  0.02

> <Gold.Chemscore.Hbond.Weighted>
-3.4034

> <Gold.Chemscore.Metal.Weighted>
-0.0000

> <Gold.Chemscore.Lipo.Weighted>
-10.4479

> <Gold.Chemscore.Internal_Hbond.Weighted>
0.0000

> <Gold.Chemscore.DEClash.Weighted>
0.5954

> <Gold.Chemscore.DEInternal.Weighted>
1.9984

> <Gold.Chemscore.Rot.Weighted>
6.7121

> <Gold.Chemscore.Internal.Correction.Weighted>
   9.000000E+99

> <Gold.Protein.RotatedTorsions>
[ 6907 6896 6895 6894 ] final  -32.26 input  -60.11 | X-H torsion
[ 7974 7965 7964 7962 ] final  118.46 input  175.53 | X-H torsion
[ 8008 7997 7996 7995 ] final   96.29 input   59.86 | X-H torsion
[ 10167 10162 10161 10158 ] final  -69.17 input  -65.29 | X-H torsion
[ 10718 10713 10712 10709 ] final   50.32 input   66.30 | X-H torsion
[ 10763 10752 10751 10750 ] final  -72.04 input  -60.55 | X-H torsion
[ 11005 11000 10999 10996 ] final  -27.09 input  -57.11 | X-H torsion

> <Gold.Protein.ActiveResidues>
 VAL166  LYS551  ARG553  GLY616  TRP617  ASP618  TYR619  PRO620  LYS621  CYS622 
 ASP623  PHE694  ASN695  SER759  ASP760  ASP761  ALA762  ILE779  LEU786  VAL792 
 PHE793  MET794  SER795  GLU796  ALA797  LYS798  CYS799  TRP800  GLU811  SER814 

> <Gold.Protein.RotatedAtoms>
  151.0811  134.9859  159.8356 H   0  0  0  0  0  0  0  0  0  0  0  0  # atno 6907 bound_to 6896
  152.5419  134.2180  159.8786 H   0  0  0  0  0  0  0  0  0  0  0  0  # atno 6908 bound_to 6896
  151.2210  133.4458  159.2634 H   0  0  0  0  0  0  0  0  0  0  0  0  # atno 6909 bound_to 6896
  145.1549  139.3188  143.4547 H   0  0  0  0  0  0  0  0  0  0  0  0  # atno 7974 bound_to 7965
  156.0781  140.3274  155.7659 H   0  0  0  0  0  0  0  0  0  0  0  0  # atno 8008 bound_to 7997
  155.5198  140.0584  157.2926 H   0  0  0  0  0  0  0  0  0  0  0  0  # atno 8009 bound_to 7997
  154.4566  140.1946  156.0378 H   0  0  0  0  0  0  0  0  0  0  0  0  # atno 8010 bound_to 7997
  140.5451  143.2313  151.7017 H   0  0  0  0  0  0  0  0  0  0  0  0  # atno 10167 bound_to 10162
  157.4873  130.8353  149.8161 H   0  0  0  0  0  0  0  0  0  0  0  0  # atno 10718 bound_to 10713
  154.4402  135.5942  153.6124 H   0  0  0  0  0  0  0  0  0  0  0  0  # atno 10763 bound_to 10752
  152.9805  135.5996  154.3732 H   0  0  0  0  0  0  0  0  0  0  0  0  # atno 10764 bound_to 10752
  154.3581  135.2841  155.2314 H   0  0  0  0  0  0  0  0  0  0  0  0  # atno 10765 bound_to 10752
  140.9088  133.7475  156.0642 H   0  0  0  0  0  0  0  0  0  0  0  0  # atno 11005 bound_to 11000
  146.3490  140.1637  142.8590 LP  0  0  0  0  0  0  0  0  0  0  0  0  # atno 17320 bound_to 7965
  145.0392  140.8932  143.5063 LP  0  0  0  0  0  0  0  0  0  0  0  0  # atno 17321 bound_to 7965
  139.5004  144.3907  152.0282 LP  0  0  0  0  0  0  0  0  0  0  0  0  # atno 17342 bound_to 10162
  140.3019  144.3636  150.6058 LP  0  0  0  0  0  0  0  0  0  0  0  0  # atno 17343 bound_to 10162
  156.0154  130.3816  150.2129 LP  0  0  0  0  0  0  0  0  0  0  0  0  # atno 17370 bound_to 10713
  157.0317  131.0009  151.3310 LP  0  0  0  0  0  0  0  0  0  0  0  0  # atno 17371 bound_to 10713
  140.8137  134.3370  157.5404 LP  0  0  0  0  0  0  0  0  0  0  0  0  # atno 17394 bound_to 11000
  139.8754  134.9269  156.3411 LP  0  0  0  0  0  0  0  0  0  0  0  0  # atno 17395 bound_to 11000

$$$$
