AV-unprocessed.smi:3034|AV-procd|sdf|11578|dock10
  -GOLD-   2272016543D 1   1.00000     0.00000
 Structure written by MMmdl.
 32 32  0  0  0  0  0  0  0  0  1 V2000
  153.3899  141.2710  160.0343 C   0  0  0  0  0  0  0  0  0  0  0  0
  152.0350  141.4327  159.3373 C   0  0  0  0  0  0  0  0  0  0  0  0
  151.9950  140.7480  157.9639 C   0  0  0  0  0  0  0  0  0  0  0  0
  152.5061  138.9794  158.0720 S   0  0  0  0  0  0  0  0  0  0  0  0
  153.6754  138.7610  157.2063 O   0  0  0  0  0  0  0  0  0  0  0  0
  152.5419  138.5770  159.4860 O   0  0  0  0  0  0  0  0  0  0  0  0
  151.1674  138.1696  157.3507 N   0  0  0  0  0  0  0  0  0  0  0  0
  151.4172  137.3668  156.1534 C   0  0  0  0  0  0  0  0  0  0  0  0
  151.6255  138.2672  154.9231 C   0  0  1  0  0  0  0  0  0  0  0  0
  151.8847  137.4489  153.7977 O   0  0  0  0  0  0  0  0  0  0  0  0
  150.4248  139.1801  154.7060 C   0  0  0  0  0  0  0  0  0  0  0  0
  149.1615  138.6696  154.3268 C   0  0  0  0  0  0  0  0  0  0  0  0
  148.0913  139.5707  154.1663 C   0  0  0  0  0  0  0  0  0  0  0  0
  148.3177  140.9413  154.3942 C   0  0  0  0  0  0  0  0  0  0  0  0
  149.6100  141.3514  154.7761 C   0  0  0  0  0  0  0  0  0  0  0  0
  150.6426  140.4958  154.9333 N   0  0  0  0  0  0  0  0  0  0  0  0
  153.3871  141.7636  161.0067 H   0  0  0  0  0  0  0  0  0  0  0  0
  154.1925  141.7102  159.4413 H   0  0  0  0  0  0  0  0  0  0  0  0
  153.6272  140.2192  160.1951 H   0  0  0  0  0  0  0  0  0  0  0  0
  151.2525  141.0184  159.9737 H   0  0  0  0  0  0  0  0  0  0  0  0
  151.8144  142.4947  159.2269 H   0  0  0  0  0  0  0  0  0  0  0  0
  150.9799  140.7736  157.5672 H   0  0  0  0  0  0  0  0  0  0  0  0
  152.6412  141.2505  157.2440 H   0  0  0  0  0  0  0  0  0  0  0  0
  150.6522  137.6306  158.0467 H   0  0  0  0  0  0  0  0  0  0  0  0
  152.2750  136.7126  156.3147 H   0  0  0  0  0  0  0  0  0  0  0  0
  150.5502  136.7237  155.9956 H   0  0  0  0  0  0  0  0  0  0  0  0
  152.5036  138.8970  155.0761 H   0  0  0  0  0  0  0  0  0  0  0  0
  151.8976  137.9969  153.0281 H   0  0  0  0  0  0  0  0  0  0  0  0
  149.0066  137.6132  154.1647 H   0  0  0  0  0  0  0  0  0  0  0  0
  147.1134  139.2160  153.8759 H   0  0  0  0  0  0  0  0  0  0  0  0
  147.5201  141.6606  154.2814 H   0  0  0  0  0  0  0  0  0  0  0  0
  149.8194  142.3943  154.9622 H   0  0  0  0  0  0  0  0  0  0  0  0
  1  2  1  0  0  0  0
  1 17  1  0  0  0  0
  1 18  1  0  0  0  0
  1 19  1  0  0  0  0
  2  3  1  0  0  0  0
  2 20  1  0  0  0  0
  2 21  1  0  0  0  0
  3  4  1  0  0  0  0
  3 22  1  0  0  0  0
  3 23  1  0  0  0  0
  4  5  2  0  0  0  0
  4  6  2  0  0  0  0
  4  7  1  0  0  0  0
  7  8  1  0  0  0  0
  7 24  1  0  0  0  0
  8  9  1  0  0  0  0
  8 25  1  0  0  0  0
  8 26  1  0  0  0  0
  9 10  1  0  0  0  0
  9 11  1  0  0  0  0
  9 27  1  0  0  0  0
 10 28  1  0  0  0  0
 11 16  1  0  0  0  0
 11 12  2  0  0  0  0
 12 13  1  0  0  0  0
 12 29  1  0  0  0  0
 13 14  2  0  0  0  0
 13 30  1  0  0  0  0
 14 15  1  0  0  0  0
 14 31  1  0  0  0  0
 15 16  2  0  0  0  0
 15 32  1  0  0  0  0
M  END
> <s_m_source_file>
AV-unprocessed.smi

> <i_m_source_file_index>
3034

> <i_lp_mmshare_version>
43012

> <i_f3d_flags>
0

> <s_epik_input>
W0NIM11bQ0gyXVtDSDJdUyg9TykoPU8pW05IXVtDSDJdW0NASF0oW09IXSljMVtjSF1bY0hdW2NIXVtjSF1uMQ==

> <s_epik_cmdline>
J2VwaWtfcHl0aG9uJywgJy1waCcsICc3LjAnLCAnLXRuJywgJzgnLCAnLW1hJywgJzIwMCcsICctbWV0YWxfYmluZGluZycsICctaW1hZScsICc8aW5maWxlLm1hZT4nLCAnLW9tYWUnLCAnPG91dGZpbGUubWFlPic=

> <r_epik_Ionization_Penalty>
0.00187371

> <r_epik_Ionization_Penalty_Charging>
0

> <r_epik_Ionization_Penalty_Neutral>
0.00187371

> <r_epik_State_Penalty>
0.0012608

> <r_epik_Charging_Adjusted_Penalty>
0.0012608

> <i_epik_Tot_Q>
0

> <i_epik_Tot_abs_Q>
0

> <r_epik_Metal_State_Penalty>
0.0168387

> <b_epik_Metal_Only>
0

> <s_lp_Force_Field>
OPLS_2005

> <r_lp_Energy>
4.76334

> <b_lp_Chiralities_Consistent>
1

> <s_lp_Variant>
AV-unprocessed.smi:3034-2

> <Gold.Version>
5.8.1

> <Gold.Id.Protein>
6NUR|6NUR_protein|mol2

> <Gold.PLP.Fitness>
39.8355

> <Gold.PLP.PLP>
-29.0721

> <Gold.PLP.part.hbond>
-3.7721

> <Gold.PLP.part.metal>
0.0000

> <Gold.PLP.part.buried>
-3.4836

> <Gold.PLP.part.nonpolar>
-21.8040

> <Gold.PLP.part.repulsive>
0.0772

> <Gold.PLP.ligand.clash>
0.0000

> <Gold.PLP.ligand.torsion>
0.2878

> <Gold.PLP.Chemscore.Hbond>
2.8613

> <Gold.PLP.Chemscore.CHOScore>
0.8556

> <Gold.PLP.Chemscore.Metal>
0.0000

> <Gold.Chemscore.Hbonds>
donor molecule, donor type, donor heavy atom, donor atom, acceptor molecule, acceptor atom, score
      P1  H  7989  7998       L1    16  1.00
      P1  H  7997  8008       L1     5  0.96
      P1  H 10752 10764       L1    10  0.86
      L1  C    15    32       P1  8028  0.84

> <Gold.PLP.Chemscore.Internal.Correction>
0.1885

> <Gold.Rescore>
     Score         DG    S(hbond)    S(metal)    S(lipo)     H(rot)  DE(clash)    DE(int)     intcor
     12.84     -14.42       2.31        0.00      68.12       2.63       0.01       1.57       ----

> <Gold.Chemscore.Fitness>
12.8371

> <Gold.Chemscore.DG>
-14.4231

> <Gold.Chemscore.ZeroCoef>
-5.4800

> <Gold.Chemscore.Hbond>
2.3053

> <Gold.Chemscore.Metal>
0.0000

> <Gold.Chemscore.Lipo>
68.1178

> <Gold.Chemscore.Internal_Hbond>
0.0000

> <Gold.Chemscore.DEClash>
0.0126

> <Gold.Chemscore.DEInternal>
1.5734

> <Gold.Chemscore.Rot>
2.6275

> <Gold.Chemscore.Internal.Correction>
   9.000000E+99

> <Gold.Chemscore.Hbonds>
donor molecule, donor type, donor heavy atom, donor atom, acceptor molecule, acceptor atom, score
      P1  H  7989  7998       L1    16  0.07
      P1  H  7997  8008       L1     5  0.84
      P1  H 10752 10764       L1    10  0.79

> <Gold.Chemscore.Hbond.Weighted>
-7.6998

> <Gold.Chemscore.Metal.Weighted>
-0.0000

> <Gold.Chemscore.Lipo.Weighted>
-7.9698

> <Gold.Chemscore.Internal_Hbond.Weighted>
0.0000

> <Gold.Chemscore.DEClash.Weighted>
0.0126

> <Gold.Chemscore.DEInternal.Weighted>
1.5734

> <Gold.Chemscore.Rot.Weighted>
6.7265

> <Gold.Chemscore.Internal.Correction.Weighted>
   9.000000E+99

> <Gold.Protein.RotatedTorsions>
[ 6907 6896 6895 6894 ] final  -56.95 input  -60.11 | X-H torsion
[ 7974 7965 7964 7962 ] final  -63.55 input  175.53 | X-H torsion
[ 8008 7997 7996 7995 ] final  -63.73 input   59.86 | X-H torsion
[ 10167 10162 10161 10158 ] final   31.93 input  -65.29 | X-H torsion
[ 10718 10713 10712 10709 ] final  -94.61 input   66.30 | X-H torsion
[ 10763 10752 10751 10750 ] final  -93.75 input  -60.55 | X-H torsion
[ 11005 11000 10999 10996 ] final    0.52 input  -57.11 | X-H torsion

> <Gold.Protein.ActiveResidues>
 VAL166  LYS551  ARG553  GLY616  TRP617  ASP618  TYR619  PRO620  LYS621  CYS622 
 ASP623  PHE694  ASN695  SER759  ASP760  ASP761  ALA762  ILE779  LEU786  VAL792 
 PHE793  MET794  SER795  GLU796  ALA797  LYS798  CYS799  TRP800  GLU811  SER814 

> <Gold.Protein.RotatedAtoms>
  150.8125  134.7289  159.6700 H   0  0  0  0  0  0  0  0  0  0  0  0  # atno 6907 bound_to 6896
  152.4245  134.5891  159.9979 H   0  0  0  0  0  0  0  0  0  0  0  0  # atno 6908 bound_to 6896
  151.6096  133.3311  159.3101 H   0  0  0  0  0  0  0  0  0  0  0  0  # atno 6909 bound_to 6896
  145.7777  140.8779  143.0347 H   0  0  0  0  0  0  0  0  0  0  0  0  # atno 7974 bound_to 7965
  154.4571  140.0969  156.6787 H   0  0  0  0  0  0  0  0  0  0  0  0  # atno 8008 bound_to 7997
  155.5106  140.3476  155.4369 H   0  0  0  0  0  0  0  0  0  0  0  0  # atno 8009 bound_to 7997
  156.0798  140.1370  156.9715 H   0  0  0  0  0  0  0  0  0  0  0  0  # atno 8010 bound_to 7997
  140.4544  144.1000  150.6198 H   0  0  0  0  0  0  0  0  0  0  0  0  # atno 10167 bound_to 10162
  156.0030  130.5075  150.5952 H   0  0  0  0  0  0  0  0  0  0  0  0  # atno 10718 bound_to 10713
  154.6990  135.5183  153.8499 H   0  0  0  0  0  0  0  0  0  0  0  0  # atno 10763 bound_to 10752
  153.0689  135.6594  154.0301 H   0  0  0  0  0  0  0  0  0  0  0  0  # atno 10764 bound_to 10752
  154.0163  135.2997  155.3366 H   0  0  0  0  0  0  0  0  0  0  0  0  # atno 10765 bound_to 10752
  140.6257  133.9621  155.8247 H   0  0  0  0  0  0  0  0  0  0  0  0  # atno 11005 bound_to 11000
  144.6801  139.9944  143.7484 LP  0  0  0  0  0  0  0  0  0  0  0  0  # atno 17320 bound_to 7965
  146.0106  139.3166  143.0873 LP  0  0  0  0  0  0  0  0  0  0  0  0  # atno 17321 bound_to 7965
  140.4169  143.2630  151.9764 LP  0  0  0  0  0  0  0  0  0  0  0  0  # atno 17342 bound_to 10162
  139.4799  144.5866  151.7843 LP  0  0  0  0  0  0  0  0  0  0  0  0  # atno 17343 bound_to 10162
  157.3810  131.0781  151.1476 LP  0  0  0  0  0  0  0  0  0  0  0  0  # atno 17370 bound_to 10713
  157.2199  130.6476  149.5807 LP  0  0  0  0  0  0  0  0  0  0  0  0  # atno 17371 bound_to 10713
  141.0711  134.0204  157.3524 LP  0  0  0  0  0  0  0  0  0  0  0  0  # atno 17394 bound_to 11000
  139.9136  135.0194  156.7791 LP  0  0  0  0  0  0  0  0  0  0  0  0  # atno 17395 bound_to 11000

$$$$
