AV-unprocessed.smi:2294|AV-procd|sdf|9217|dock5
  -GOLD-   2272012433D 1   1.00000     0.00000
 Structure written by MMmdl.
 34 35  0  0  0  0  0  0  0  0  1 V2000
  152.2766  143.8170  160.3213 C   0  0  0  0  0  0  0  0  0  0  0  0
  152.0230  142.8907  159.1453 C   0  0  0  0  0  0  0  0  0  0  0  0
  151.1372  143.3726  158.1771 N   0  0  0  0  0  0  0  0  0  0  0  0
  150.8562  142.6489  157.1432 C   0  0  0  0  0  0  0  0  0  0  0  0
  151.4240  141.3782  156.9558 N   0  0  0  0  0  0  0  0  0  0  0  0
  151.0128  140.6519  155.7422 C   0  0  0  0  0  0  0  0  0  0  0  0
  149.8039  141.3153  155.0456 C   0  0  1  0  0  0  0  0  0  0  0  0
  149.8046  140.9360  153.6825 O   0  0  0  0  0  0  0  0  0  0  0  0
  148.5004  140.9288  155.7332 C   0  0  0  0  0  0  0  0  0  0  0  0
  148.5141  140.1158  156.8894 C   0  0  0  0  0  0  0  0  0  0  0  0
  147.3093  139.7640  157.5279 C   0  0  0  0  0  0  0  0  0  0  0  0
  146.0814  140.2265  157.0184 C   0  0  0  0  0  0  0  0  0  0  0  0
  146.0601  141.0438  155.8724 C   0  0  0  0  0  0  0  0  0  0  0  0
  147.2641  141.3969  155.2320 C   0  0  0  0  0  0  0  0  0  0  0  0
  147.2232  142.1901  154.1345 F   0  0  0  0  0  0  0  0  0  0  0  0
  152.2972  140.8328  157.8514 C   0  0  0  0  0  0  0  0  0  0  0  0
  152.7847  139.7137  157.6803 O   0  0  0  0  0  0  0  0  0  0  0  0
  152.6053  141.6665  159.0245 C   0  0  0  0  0  0  0  0  0  0  0  0
  153.5738  141.0877  160.0486 C   0  0  0  0  0  0  0  0  0  0  0  0
  153.3368  144.0613  160.3946 H   0  0  0  0  0  0  0  0  0  0  0  0
  151.9610  143.3456  161.2525 H   0  0  0  0  0  0  0  0  0  0  0  0
  151.7250  144.7524  160.2168 H   0  0  0  0  0  0  0  0  0  0  0  0
  150.1652  142.9747  156.3637 H   0  0  0  0  0  0  0  0  0  0  0  0
  151.8357  140.5166  155.0370 H   0  0  0  0  0  0  0  0  0  0  0  0
  150.7433  139.6354  156.0363 H   0  0  0  0  0  0  0  0  0  0  0  0
  149.9011  142.4008  155.0746 H   0  0  0  0  0  0  0  0  0  0  0  0
  149.1925  140.2247  153.5702 H   0  0  0  0  0  0  0  0  0  0  0  0
  149.4502  139.7593  157.2938 H   0  0  0  0  0  0  0  0  0  0  0  0
  147.3274  139.1402  158.4094 H   0  0  0  0  0  0  0  0  0  0  0  0
  145.1568  139.9573  157.5077 H   0  0  0  0  0  0  0  0  0  0  0  0
  145.1182  141.4025  155.4841 H   0  0  0  0  0  0  0  0  0  0  0  0
  153.1830  140.1503  160.4463 H   0  0  0  0  0  0  0  0  0  0  0  0
  153.7538  141.7511  160.8931 H   0  0  0  0  0  0  0  0  0  0  0  0
  154.5373  140.8822  159.5810 H   0  0  0  0  0  0  0  0  0  0  0  0
  1  2  1  0  0  0  0
  1 20  1  0  0  0  0
  1 21  1  0  0  0  0
  1 22  1  0  0  0  0
  2 18  2  0  0  0  0
  2  3  1  0  0  0  0
  3  4  2  0  0  0  0
  4  5  1  0  0  0  0
  4 23  1  0  0  0  0
  5  6  1  0  0  0  0
  5 16  1  0  0  0  0
  6  7  1  0  0  0  0
  6 24  1  0  0  0  0
  6 25  1  0  0  0  0
  7  8  1  0  0  0  0
  7  9  1  0  0  0  0
  7 26  1  0  0  0  0
  8 27  1  0  0  0  0
  9 14  1  0  0  0  0
  9 10  2  0  0  0  0
 10 11  1  0  0  0  0
 10 28  1  0  0  0  0
 11 12  2  0  0  0  0
 11 29  1  0  0  0  0
 12 13  1  0  0  0  0
 12 30  1  0  0  0  0
 13 14  2  0  0  0  0
 13 31  1  0  0  0  0
 14 15  1  0  0  0  0
 16 17  2  0  0  0  0
 16 18  1  0  0  0  0
 18 19  1  0  0  0  0
 19 32  1  0  0  0  0
 19 33  1  0  0  0  0
 19 34  1  0  0  0  0
M  END
> <s_m_source_file>
AV-unprocessed.smi

> <i_m_source_file_index>
2294

> <i_lp_mmshare_version>
43012

> <i_f3d_flags>
0

> <s_epik_input>
W0NIM11jMW5bY0hdbihjKD1PKWMxW0NIM10pW0NIMl1bQ0BIXShbT0hdKWMyW2NIXVtjSF1bY0hdW2NIXWMyRg==

> <s_epik_cmdline>
J2VwaWtfcHl0aG9uJywgJy1waCcsICc3LjAnLCAnLXRuJywgJzgnLCAnLW1hJywgJzIwMCcsICctbWV0YWxfYmluZGluZycsICctaW1hZScsICc8aW5maWxlLm1hZT4nLCAnLW9tYWUnLCAnPG91dGZpbGUubWFlPic=

> <r_lp_tautomer_probability>
1

> <r_epik_Ionization_Penalty>
5.07259e-05

> <r_epik_Ionization_Penalty_Charging>
7.56727e-08

> <r_epik_Ionization_Penalty_Neutral>
5.06502e-05

> <r_epik_State_Penalty>
-0

> <r_epik_Charging_Adjusted_Penalty>
7.56727e-08

> <i_epik_Tot_Q>
0

> <i_epik_Tot_abs_Q>
0

> <r_epik_Metal_State_Penalty>
-0

> <b_epik_Metal_Only>
0

> <s_lp_Force_Field>
OPLS_2005

> <r_lp_Energy>
19.7062

> <b_lp_Chiralities_Consistent>
1

> <s_lp_Variant>
AV-unprocessed.smi:2294-2

> <Gold.Version>
5.8.1

> <Gold.Id.Protein>
6NUR|6NUR_protein|mol2

> <Gold.PLP.Fitness>
42.4620

> <Gold.PLP.PLP>
-35.0709

> <Gold.PLP.part.hbond>
-3.8159

> <Gold.PLP.part.metal>
0.0000

> <Gold.PLP.part.buried>
-2.6453

> <Gold.PLP.part.nonpolar>
-28.1954

> <Gold.PLP.part.repulsive>
0.1123

> <Gold.PLP.ligand.clash>
1.8305

> <Gold.PLP.ligand.torsion>
0.3705

> <Gold.PLP.Chemscore.Hbond>
2.3184

> <Gold.PLP.Chemscore.CHOScore>
1.0000

> <Gold.PLP.Chemscore.Metal>
0.0000

> <Gold.Chemscore.Hbonds>
donor molecule, donor type, donor heavy atom, donor atom, acceptor molecule, acceptor atom, score
      P1  H  7989  7998       L1     8  0.31
      P1  H  7997  8010       L1    17  1.00
      P1  H  8011  8017       L1     8  0.98
      L1  C     4    23       P1  8028  1.00

> <Gold.PLP.Chemscore.Internal.Correction>
0.0074

> <Gold.Rescore>
     Score         DG    S(hbond)    S(metal)    S(lipo)     H(rot)  DE(clash)    DE(int)     intcor
     12.81     -14.24       1.84        0.00      66.46       2.02       0.07       1.37       ----

> <Gold.Chemscore.Fitness>
12.8128

> <Gold.Chemscore.DG>
-14.2442

> <Gold.Chemscore.ZeroCoef>
-5.4800

> <Gold.Chemscore.Hbond>
1.8427

> <Gold.Chemscore.Metal>
0.0000

> <Gold.Chemscore.Lipo>
66.4621

> <Gold.Chemscore.Internal_Hbond>
0.0000

> <Gold.Chemscore.DEClash>
0.0653

> <Gold.Chemscore.DEInternal>
1.3662

> <Gold.Chemscore.Rot>
2.0181

> <Gold.Chemscore.Internal.Correction>
   9.000000E+99

> <Gold.Chemscore.Hbonds>
donor molecule, donor type, donor heavy atom, donor atom, acceptor molecule, acceptor atom, score
      P1  H  7989  7998       L1     8  0.05
      P1  H  7997  8010       L1    17  0.45
      P1  H  8011  8017       L1     8  0.82

> <Gold.Chemscore.Hbond.Weighted>
-6.1545

> <Gold.Chemscore.Metal.Weighted>
-0.0000

> <Gold.Chemscore.Lipo.Weighted>
-7.7761

> <Gold.Chemscore.Internal_Hbond.Weighted>
0.0000

> <Gold.Chemscore.DEClash.Weighted>
0.0653

> <Gold.Chemscore.DEInternal.Weighted>
1.3662

> <Gold.Chemscore.Rot.Weighted>
5.1663

> <Gold.Chemscore.Internal.Correction.Weighted>
   9.000000E+99

> <Gold.Protein.RotatedTorsions>
[ 6907 6896 6895 6894 ] final -155.03 input  -60.11 | X-H torsion
[ 7974 7965 7964 7962 ] final  122.74 input  175.53 | X-H torsion
[ 8008 7997 7996 7995 ] final   42.40 input   59.86 | X-H torsion
[ 10167 10162 10161 10158 ] final  -74.08 input  -65.29 | X-H torsion
[ 10718 10713 10712 10709 ] final   53.73 input   66.30 | X-H torsion
[ 10763 10752 10751 10750 ] final -135.37 input  -60.55 | X-H torsion
[ 11005 11000 10999 10996 ] final -100.05 input  -57.11 | X-H torsion

> <Gold.Protein.ActiveResidues>
 VAL166  LYS551  ARG553  GLY616  TRP617  ASP618  TYR619  PRO620  LYS621  CYS622 
 ASP623  PHE694  ASN695  SER759  ASP760  ASP761  ALA762  ILE779  LEU786  VAL792 
 PHE793  MET794  SER795  GLU796  ALA797  LYS798  CYS799  TRP800  GLU811  SER814 

> <Gold.Protein.RotatedAtoms>
  151.2664  133.4277  159.2618 H   0  0  0  0  0  0  0  0  0  0  0  0  # atno 6907 bound_to 6896
  151.0484  134.9656  159.8209 H   0  0  0  0  0  0  0  0  0  0  0  0  # atno 6908 bound_to 6896
  152.5378  134.2619  159.8991 H   0  0  0  0  0  0  0  0  0  0  0  0  # atno 6909 bound_to 6896
  145.1040  139.3498  143.4797 H   0  0  0  0  0  0  0  0  0  0  0  0  # atno 7974 bound_to 7965
  155.2855  140.3375  155.4255 H   0  0  0  0  0  0  0  0  0  0  0  0  # atno 8008 bound_to 7997
  156.2070  140.1755  156.7818 H   0  0  0  0  0  0  0  0  0  0  0  0  # atno 8009 bound_to 7997
  154.5634  140.0683  156.8839 H   0  0  0  0  0  0  0  0  0  0  0  0  # atno 8010 bound_to 7997
  140.5057  143.2353  151.7678 H   0  0  0  0  0  0  0  0  0  0  0  0  # atno 10167 bound_to 10162
  157.5193  130.8554  149.8537 H   0  0  0  0  0  0  0  0  0  0  0  0  # atno 10718 bound_to 10713
  154.8704  135.3705  154.4887 H   0  0  0  0  0  0  0  0  0  0  0  0  # atno 10763 bound_to 10752
  153.5535  135.7024  153.5585 H   0  0  0  0  0  0  0  0  0  0  0  0  # atno 10764 bound_to 10752
  153.3693  135.4025  155.1740 H   0  0  0  0  0  0  0  0  0  0  0  0  # atno 10765 bound_to 10752
  141.1286  133.8368  157.1051 H   0  0  0  0  0  0  0  0  0  0  0  0  # atno 11005 bound_to 11000
  146.3529  140.0930  142.8611 LP  0  0  0  0  0  0  0  0  0  0  0  0  # atno 17320 bound_to 7965
  145.0923  140.9292  143.4762 LP  0  0  0  0  0  0  0  0  0  0  0  0  # atno 17321 bound_to 7965
  139.4883  144.4461  151.9709 LP  0  0  0  0  0  0  0  0  0  0  0  0  # atno 17342 bound_to 10162
  140.3551  144.3041  150.5942 LP  0  0  0  0  0  0  0  0  0  0  0  0  # atno 17343 bound_to 10162
  156.0342  130.3756  150.1605 LP  0  0  0  0  0  0  0  0  0  0  0  0  # atno 17370 bound_to 10713
  156.9793  130.9859  151.3441 LP  0  0  0  0  0  0  0  0  0  0  0  0  # atno 17371 bound_to 10713
  140.0309  134.9901  157.0779 LP  0  0  0  0  0  0  0  0  0  0  0  0  # atno 17394 bound_to 11000
  140.4286  134.1804  155.7167 LP  0  0  0  0  0  0  0  0  0  0  0  0  # atno 17395 bound_to 11000

$$$$
