AV-unprocessed.smi:1434|AV-procd|sdf|5855|dock5
  -GOLD-   22720 5523D 1   1.00000     0.00000
 Structure written by MMmdl.
 44 45  0  0  0  0  0  0  0  0  3 V2000
  147.3212  134.7024  159.8213 C   0  0  0  0  0  0  0  0  0  0  0  0
  148.0386  136.3700  160.0998 S   0  0  0  0  0  0  0  0  0  0  0  0
  147.1085  137.3179  159.4653 O   0  0  0  0  0  0  0  0  0  0  0  0
  148.2268  136.4842  161.5552 O   0  0  0  0  0  0  0  0  0  0  0  0
  149.4382  136.2298  159.2921 N   0  5  0  0  0  0  0  0  0  0  0  0
  149.5126  136.6252  157.8927 C   0  0  2  0  0  0  0  0  0  0  0  0
  149.3060  135.4057  156.9549 C   0  0  0  0  0  0  0  0  0  0  0  0
  149.6271  135.7080  155.4666 C   0  0  0  0  0  0  0  0  0  0  0  0
  151.0089  136.3746  155.2811 C   0  0  0  0  0  0  0  0  0  0  0  0
  151.0449  137.5712  156.1520 N   0  0  0  0  0  0  0  0  0  0  0  0
  151.1920  138.8547  155.7277 C   0  0  0  0  0  0  0  0  0  0  0  0
  151.0692  139.1989  154.5513 O   0  0  0  0  0  0  0  0  0  0  0  0
  151.5351  139.7306  156.6866 N   0  0  0  0  0  0  0  0  0  0  0  0
  151.7897  141.1463  156.4586 C   0  0  0  0  0  0  0  0  0  0  0  0
  150.6175  141.9980  156.9632 C   0  0  0  0  0  0  0  0  0  0  0  0
  151.0430  142.9718  158.0452 C   0  0  0  0  0  0  0  0  0  0  0  0
  151.9058  142.5950  159.0974 C   0  0  0  0  0  0  0  0  0  0  0  0
  152.2704  143.5535  160.0660 C   0  0  0  0  0  0  0  0  0  0  0  0
  151.7667  144.8666  159.9618 C   0  0  0  0  0  0  0  0  0  0  0  0
  150.9100  145.1889  158.8895 C   0  0  0  0  0  0  0  0  0  0  0  0
  150.5836  144.2427  157.9816 N   0  3  0  0  0  0  0  0  0  0  0  0
  150.9093  137.2347  157.5885 C   0  0  0  0  0  0  0  0  0  0  0  0
  146.3522  134.6403  160.3150 H   0  0  0  0  0  0  0  0  0  0  0  0
  147.9887  133.9468  160.2349 H   0  0  0  0  0  0  0  0  0  0  0  0
  147.1965  134.5338  158.7522 H   0  0  0  0  0  0  0  0  0  0  0  0
  148.7626  137.3792  157.6498 H   0  0  0  0  0  0  0  0  0  0  0  0
  149.9488  134.5876  157.2838 H   0  0  0  0  0  0  0  0  0  0  0  0
  148.2830  135.0374  157.0342 H   0  0  0  0  0  0  0  0  0  0  0  0
  149.5871  134.7825  154.8918 H   0  0  0  0  0  0  0  0  0  0  0  0
  148.8555  136.3551  155.0445 H   0  0  0  0  0  0  0  0  0  0  0  0
  151.7982  135.6883  155.5909 H   0  0  0  0  0  0  0  0  0  0  0  0
  151.1891  136.5721  154.2247 H   0  0  0  0  0  0  0  0  0  0  0  0
  151.6394  139.3849  157.6295 H   0  0  0  0  0  0  0  0  0  0  0  0
  152.7070  141.4400  156.9718 H   0  0  0  0  0  0  0  0  0  0  0  0
  151.9484  141.3122  155.3920 H   0  0  0  0  0  0  0  0  0  0  0  0
  150.1763  142.5572  156.1369 H   0  0  0  0  0  0  0  0  0  0  0  0
  149.8294  141.3530  157.3549 H   0  0  0  0  0  0  0  0  0  0  0  0
  152.2870  141.5861  159.1619 H   0  0  0  0  0  0  0  0  0  0  0  0
  152.9299  143.2847  160.8783 H   0  0  0  0  0  0  0  0  0  0  0  0
  152.0347  145.6156  160.6926 H   0  0  0  0  0  0  0  0  0  0  0  0
  150.4801  146.1672  158.7309 H   0  0  0  0  0  0  0  0  0  0  0  0
  151.0738  138.0989  158.2341 H   0  0  0  0  0  0  0  0  0  0  0  0
  151.6945  136.5233  157.8504 H   0  0  0  0  0  0  0  0  0  0  0  0
  149.9638  144.4992  157.2128 H   0  0  0  0  0  0  0  0  0  0  0  0
  1  2  1  0  0  0  0
  1 23  1  0  0  0  0
  1 24  1  0  0  0  0
  1 25  1  0  0  0  0
  2  3  2  0  0  0  0
  2  4  2  0  0  0  0
  2  5  1  0  0  0  0
  5  6  1  0  0  0  0
  6 22  1  0  0  0  0
  6  7  1  0  0  0  0
  6 26  1  0  0  0  0
  7  8  1  0  0  0  0
  7 27  1  0  0  0  0
  7 28  1  0  0  0  0
  8  9  1  0  0  0  0
  8 29  1  0  0  0  0
  8 30  1  0  0  0  0
  9 10  1  0  0  0  0
  9 31  1  0  0  0  0
  9 32  1  0  0  0  0
 10 11  1  0  0  0  0
 10 22  1  0  0  0  0
 11 12  2  0  0  0  0
 11 13  1  0  0  0  0
 13 14  1  0  0  0  0
 13 33  1  0  0  0  0
 14 15  1  0  0  0  0
 14 34  1  0  0  0  0
 14 35  1  0  0  0  0
 15 16  1  0  0  0  0
 15 36  1  0  0  0  0
 15 37  1  0  0  0  0
 16 21  1  0  0  0  0
 16 17  2  0  0  0  0
 17 18  1  0  0  0  0
 17 38  1  0  0  0  0
 18 19  2  0  0  0  0
 18 39  1  0  0  0  0
 19 20  1  0  0  0  0
 19 40  1  0  0  0  0
 20 21  2  0  0  0  0
 20 41  1  0  0  0  0
 21 44  1  0  0  0  0
 22 42  1  0  0  0  0
 22 43  1  0  0  0  0
M  CHG  1   5  -1
M  CHG  1  21   1
M  END
> <s_m_source_file>
AV-unprocessed.smi

> <i_m_source_file_index>
1434

> <i_lp_mmshare_version>
43012

> <i_f3d_flags>
0

> <s_epik_input>
W0NIM11TKD1PKSg9TylbTkhdW0NAQEhdMVtDSDJdW0NIMl1bQ0gyXU4oW0NIMl0xKUMoPU8pW05IXVtDSDJdW0NIMl1jMltjSF1bY0hdW2NIXVtjSF1uMg==

> <s_epik_cmdline>
J2VwaWtfcHl0aG9uJywgJy1waCcsICc3LjAnLCAnLXRuJywgJzgnLCAnLW1hJywgJzIwMCcsICctbWV0YWxfYmluZGluZycsICctaW1hZScsICc8aW5maWxlLm1hZT4nLCAnLW9tYWUnLCAnPG91dGZpbGUubWFlPic=

> <r_epik_Ionization_Penalty>
8.07847

> <r_epik_Ionization_Penalty_Charging>
8.0784

> <r_epik_Ionization_Penalty_Neutral>
6.25603e-05

> <r_epik_State_Penalty>
8.17261

> <r_epik_Charging_Adjusted_Penalty>
16.251

> <i_epik_Tot_Q>
0

> <i_epik_Tot_abs_Q>
2

> <r_epik_Metal_State_Penalty>
4.14042

> <b_epik_Metal_Only>
1

> <s_lp_Force_Field>
OPLS_2005

> <r_lp_Energy>
29.5402

> <b_lp_Chiralities_Consistent>
1

> <s_lp_Variant>
AV-unprocessed.smi:1434-7

> <Gold.Version>
5.8.1

> <Gold.Id.Protein>
6NUR|6NUR_protein|mol2

> <Gold.PLP.Fitness>
53.4630

> <Gold.PLP.PLP>
-35.9009

> <Gold.PLP.part.hbond>
-5.1453

> <Gold.PLP.part.metal>
0.0000

> <Gold.PLP.part.buried>
-6.7179

> <Gold.PLP.part.nonpolar>
-24.0391

> <Gold.PLP.part.repulsive>
0.2894

> <Gold.PLP.ligand.clash>
0.8472

> <Gold.PLP.ligand.torsion>
1.6100

> <Gold.PLP.Chemscore.Hbond>
6.8640

> <Gold.PLP.Chemscore.CHOScore>
0.0000

> <Gold.PLP.Chemscore.Metal>
0.0000

> <Gold.Chemscore.Hbonds>
donor molecule, donor type, donor heavy atom, donor atom, acceptor molecule, acceptor atom, score
      L1  H    21    44       P1  8028  2.00
      P1  H  6896  6907       L1     5  2.00
      P1  H  6931  6943       L1     4  1.00
      P1  H  6934  6947       L1     3  0.44
      P1  H  7989  7998       L1    12  0.96

> <Gold.PLP.Chemscore.Internal.Correction>
1.0373

> <Gold.Rescore>
     Score         DG    S(hbond)    S(metal)    S(lipo)     H(rot)  DE(clash)    DE(int)     intcor
     22.36     -25.41       4.01        0.00      94.58       1.77       1.54       1.52       ----

> <Gold.Chemscore.Fitness>
22.3605

> <Gold.Chemscore.DG>
-25.4129

> <Gold.Chemscore.ZeroCoef>
-5.4800

> <Gold.Chemscore.Hbond>
4.0085

> <Gold.Chemscore.Metal>
0.0000

> <Gold.Chemscore.Lipo>
94.5771

> <Gold.Chemscore.Internal_Hbond>
0.0000

> <Gold.Chemscore.DEClash>
1.5355

> <Gold.Chemscore.DEInternal>
1.5168

> <Gold.Chemscore.Rot>
1.7661

> <Gold.Chemscore.Internal.Correction>
   9.000000E+99

> <Gold.Chemscore.Hbonds>
donor molecule, donor type, donor heavy atom, donor atom, acceptor molecule, acceptor atom, score
      L1  H    21    44       P1  8028  0.40
      P1  H  6896  6907       L1     5  0.76
      P1  H  6931  6943       L1     4  0.64
      P1  H  6934  6947       L1     3  0.15
      P1  H  7989  7998       L1    12  0.91

> <Gold.Chemscore.Hbond.Weighted>
-13.3885

> <Gold.Chemscore.Metal.Weighted>
-0.0000

> <Gold.Chemscore.Lipo.Weighted>
-11.0655

> <Gold.Chemscore.Internal_Hbond.Weighted>
0.0000

> <Gold.Chemscore.DEClash.Weighted>
1.5355

> <Gold.Chemscore.DEInternal.Weighted>
1.5168

> <Gold.Chemscore.Rot.Weighted>
4.5211

> <Gold.Chemscore.Internal.Correction.Weighted>
   9.000000E+99

> <Gold.Protein.RotatedTorsions>
[ 6907 6896 6895 6894 ] final  -46.79 input  -60.11 | X-H torsion
[ 7974 7965 7964 7962 ] final   84.17 input  175.53 | X-H torsion
[ 8008 7997 7996 7995 ] final -137.62 input   59.86 | X-H torsion
[ 10167 10162 10161 10158 ] final  -57.17 input  -65.29 | X-H torsion
[ 10718 10713 10712 10709 ] final  178.36 input   66.30 | X-H torsion
[ 10763 10752 10751 10750 ] final -111.03 input  -60.55 | X-H torsion
[ 11005 11000 10999 10996 ] final -108.42 input  -57.11 | X-H torsion

> <Gold.Protein.ActiveResidues>
 VAL166  LYS551  ARG553  GLY616  TRP617  ASP618  TYR619  PRO620  LYS621  CYS622 
 ASP623  PHE694  ASN695  SER759  ASP760  ASP761  ALA762  ILE779  LEU786  VAL792 
 PHE793  MET794  SER795  GLU796  ALA797  LYS798  CYS799  TRP800  GLU811  SER814 

> <Gold.Protein.RotatedAtoms>
  150.9075  134.8490  159.7402 H   0  0  0  0  0  0  0  0  0  0  0  0  # atno 6907 bound_to 6896
  152.4926  134.4409  159.9553 H   0  0  0  0  0  0  0  0  0  0  0  0  # atno 6908 bound_to 6896
  151.4455  133.3592  159.2823 H   0  0  0  0  0  0  0  0  0  0  0  0  # atno 6909 bound_to 6896
  145.6022  139.2354  143.2239 H   0  0  0  0  0  0  0  0  0  0  0  0  # atno 7974 bound_to 7965
  155.4148  140.0514  157.3029 H   0  0  0  0  0  0  0  0  0  0  0  0  # atno 8008 bound_to 7997
  154.4929  140.2127  155.9468 H   0  0  0  0  0  0  0  0  0  0  0  0  # atno 8009 bound_to 7997
  156.1367  140.3162  155.8436 H   0  0  0  0  0  0  0  0  0  0  0  0  # atno 8010 bound_to 7997
  140.6274  143.2444  151.5328 H   0  0  0  0  0  0  0  0  0  0  0  0  # atno 10167 bound_to 10162
  156.8917  130.9849  151.3048 H   0  0  0  0  0  0  0  0  0  0  0  0  # atno 10718 bound_to 10713
  154.8279  135.4542  154.0976 H   0  0  0  0  0  0  0  0  0  0  0  0  # atno 10763 bound_to 10752
  153.2275  135.6901  153.7935 H   0  0  0  0  0  0  0  0  0  0  0  0  # atno 10764 bound_to 10752
  153.7330  135.3324  155.3266 H   0  0  0  0  0  0  0  0  0  0  0  0  # atno 10765 bound_to 10752
  141.0902  133.9068  157.2093 H   0  0  0  0  0  0  0  0  0  0  0  0  # atno 11005 bound_to 11000
  146.1567  140.6847  142.9296 LP  0  0  0  0  0  0  0  0  0  0  0  0  # atno 17320 bound_to 7965
  144.7305  140.4656  143.6941 LP  0  0  0  0  0  0  0  0  0  0  0  0  # atno 17321 bound_to 7965
  139.5492  144.2439  152.1500 LP  0  0  0  0  0  0  0  0  0  0  0  0  # atno 17342 bound_to 10162
  140.1674  144.4968  150.6598 LP  0  0  0  0  0  0  0  0  0  0  0  0  # atno 17343 bound_to 10162
  157.6080  130.8561  149.8906 LP  0  0  0  0  0  0  0  0  0  0  0  0  # atno 17370 bound_to 10713
  156.0626  130.3697  150.0949 LP  0  0  0  0  0  0  0  0  0  0  0  0  # atno 17371 bound_to 10713
  139.9727  135.0123  156.9552 LP  0  0  0  0  0  0  0  0  0  0  0  0  # atno 17394 bound_to 11000
  140.5269  134.0852  155.7306 LP  0  0  0  0  0  0  0  0  0  0  0  0  # atno 17395 bound_to 11000

$$$$
