AV-unprocessed.smi:3146|AV-procd|sdf|11985|dock3
  -GOLD-   2272017393D 1   1.00000     0.00000
 Structure written by MMmdl.
 35 36  0  0  0  0  0  0  0  0  2 V2000
  150.7543  144.4502  158.0954 O   0  0  0  0  0  0  0  0  0  0  0  0
  151.1871  143.3736  158.5100 C   0  0  0  0  0  0  0  0  0  0  0  0
  151.2056  142.1526  157.5791 C   0  0  0  0  0  0  0  0  0  0  0  0
  150.6879  142.4651  156.2313 N   0  3  0  0  0  0  0  0  0  0  0  0
  149.6881  141.5017  155.7280 C   0  0  0  0  0  0  0  0  0  0  0  0
  149.9807  140.0728  156.2135 C   0  0  0  0  0  0  0  0  0  0  0  0
  151.0893  139.4649  155.4997 N   0  0  0  0  0  0  0  0  0  0  0  0
  152.4341  139.7544  155.5984 C   0  0  0  0  0  0  0  0  0  0  0  0
  153.0924  138.9212  154.7398 C   0  0  0  0  0  0  0  0  0  0  0  0
  152.0517  138.1495  154.1513 C   0  0  0  0  0  0  0  0  0  0  0  0
  150.8539  138.4759  154.6099 N   0  0  0  0  0  0  0  0  0  0  0  0
  151.6546  143.2239  159.7664 N   0  0  0  0  0  0  0  0  0  0  0  0
  151.7108  144.2703  160.7869 C   0  0  0  0  0  0  0  0  0  0  0  0
  152.0952  143.5608  162.0858 C   0  0  0  0  0  0  0  0  0  0  0  0
  152.8369  142.3133  161.6255 C   0  0  0  0  0  0  0  0  0  0  0  0
  152.1875  141.9658  160.2859 C   0  0  0  0  0  0  0  0  0  0  0  0
  152.2288  141.7851  157.4904 H   0  0  0  0  0  0  0  0  0  0  0  0
  150.6008  141.3559  158.0142 H   0  0  0  0  0  0  0  0  0  0  0  0
  150.2643  143.3821  156.2568 H   0  0  0  0  0  0  0  0  0  0  0  0
  148.7012  141.8096  156.0751 H   0  0  0  0  0  0  0  0  0  0  0  0
  149.6659  141.5295  154.6377 H   0  0  0  0  0  0  0  0  0  0  0  0
  150.1940  140.0619  157.2836 H   0  0  0  0  0  0  0  0  0  0  0  0
  149.1000  139.4467  156.0658 H   0  0  0  0  0  0  0  0  0  0  0  0
  152.8072  140.5196  156.2633 H   0  0  0  0  0  0  0  0  0  0  0  0
  154.1559  138.8714  154.5582 H   0  0  0  0  0  0  0  0  0  0  0  0
  152.1308  137.3669  153.4108 H   0  0  0  0  0  0  0  0  0  0  0  0
  152.4755  144.9977  160.5106 H   0  0  0  0  0  0  0  0  0  0  0  0
  150.7615  144.7964  160.8965 H   0  0  0  0  0  0  0  0  0  0  0  0
  152.6913  144.1873  162.7500 H   0  0  0  0  0  0  0  0  0  0  0  0
  151.1923  143.2688  162.6240 H   0  0  0  0  0  0  0  0  0  0  0  0
  153.8901  142.5514  161.4705 H   0  0  0  0  0  0  0  0  0  0  0  0
  152.7817  141.4976  162.3471 H   0  0  0  0  0  0  0  0  0  0  0  0
  151.3644  141.2645  160.4299 H   0  0  0  0  0  0  0  0  0  0  0  0
  152.9065  141.5098  159.6036 H   0  0  0  0  0  0  0  0  0  0  0  0
  151.4657  142.4934  155.5875 H   0  0  0  0  0  0  0  0  0  0  0  0
  1  2  2  0  0  0  0
  2  3  1  0  0  0  0
  2 12  1  0  0  0  0
  3  4  1  0  0  0  0
  3 17  1  0  0  0  0
  3 18  1  0  0  0  0
  4  5  1  0  0  0  0
  4 19  1  0  0  0  0
  4 35  1  0  0  0  0
  5  6  1  0  0  0  0
  5 20  1  0  0  0  0
  5 21  1  0  0  0  0
  6  7  1  0  0  0  0
  6 22  1  0  0  0  0
  6 23  1  0  0  0  0
  7 11  1  0  0  0  0
  7  8  1  0  0  0  0
  8  9  2  0  0  0  0
  8 24  1  0  0  0  0
  9 10  1  0  0  0  0
  9 25  1  0  0  0  0
 10 11  2  0  0  0  0
 10 26  1  0  0  0  0
 12 16  1  0  0  0  0
 12 13  1  0  0  0  0
 13 14  1  0  0  0  0
 13 27  1  0  0  0  0
 13 28  1  0  0  0  0
 14 15  1  0  0  0  0
 14 29  1  0  0  0  0
 14 30  1  0  0  0  0
 15 16  1  0  0  0  0
 15 31  1  0  0  0  0
 15 32  1  0  0  0  0
 16 33  1  0  0  0  0
 16 34  1  0  0  0  0
M  CHG  1   4   1
M  END
> <s_m_source_file>
AV-unprocessed.smi

> <i_m_source_file_index>
3146

> <i_lp_mmshare_version>
43012

> <i_f3d_flags>
0

> <s_epik_input>
W0NIMl0xW0NIMl1bQ0gyXVtDSDJdTjFDKD1PKVtDSDJdW05IXVtDSDJdW0NIMl1uMltjSF1bY0hdW2NIXW4y

> <s_epik_cmdline>
J2VwaWtfcHl0aG9uJywgJy1waCcsICc3LjAnLCAnLXRuJywgJzgnLCAnLW1hJywgJzIwMCcsICctbWV0YWxfYmluZGluZycsICctaW1hZScsICc8aW5maWxlLm1hZT4nLCAnLW9tYWUnLCAnPG91dGZpbGUubWFlPic=

> <r_lp_tautomer_probability>
1

> <r_epik_Ionization_Penalty>
0.203171

> <r_epik_Ionization_Penalty_Charging>
0.203168

> <r_epik_Ionization_Penalty_Neutral>
2.33614e-06

> <r_epik_State_Penalty>
0.193072

> <r_epik_Charging_Adjusted_Penalty>
0.39624

> <i_epik_Tot_Q>
1

> <i_epik_Tot_abs_Q>
1

> <r_epik_Metal_State_Penalty>
0.193553

> <b_epik_Metal_Only>
0

> <s_lp_Force_Field>
OPLS_2005

> <r_lp_Energy>
25.7734

> <b_lp_Chiralities_Consistent>
1

> <s_lp_Variant>
AV-unprocessed.smi:3146-1

> <Gold.Version>
5.8.1

> <Gold.Id.Protein>
6NUR|6NUR_protein|mol2

> <Gold.PLP.Fitness>
47.3568

> <Gold.PLP.PLP>
-39.7009

> <Gold.PLP.part.hbond>
-1.0000

> <Gold.PLP.part.metal>
0.0000

> <Gold.PLP.part.buried>
-5.0700

> <Gold.PLP.part.nonpolar>
-34.6138

> <Gold.PLP.part.repulsive>
0.5846

> <Gold.PLP.ligand.clash>
0.0000

> <Gold.PLP.ligand.torsion>
0.6765

> <Gold.PLP.Chemscore.Hbond>
1.9840

> <Gold.PLP.Chemscore.CHOScore>
1.0000

> <Gold.PLP.Chemscore.Metal>
0.0000

> <Gold.Chemscore.Hbonds>
donor molecule, donor type, donor heavy atom, donor atom, acceptor molecule, acceptor atom, score
      L1  H     4    19       P1  8028  2.00
      L1  C    10    26       P1  7949  0.96

> <Gold.PLP.Chemscore.Internal.Correction>
0.0569

> <Gold.Rescore>
     Score         DG    S(hbond)    S(metal)    S(lipo)     H(rot)  DE(clash)    DE(int)     intcor
     13.72     -14.57       0.96        0.00      91.93       1.90       0.10       0.75       ----

> <Gold.Chemscore.Fitness>
13.7221

> <Gold.Chemscore.DG>
-14.5721

> <Gold.Chemscore.ZeroCoef>
-5.4800

> <Gold.Chemscore.Hbond>
0.9560

> <Gold.Chemscore.Metal>
0.0000

> <Gold.Chemscore.Lipo>
91.9329

> <Gold.Chemscore.Internal_Hbond>
0.0000

> <Gold.Chemscore.DEClash>
0.0981

> <Gold.Chemscore.DEInternal>
0.7520

> <Gold.Chemscore.Rot>
1.8974

> <Gold.Chemscore.Internal.Correction>
   9.000000E+99

> <Gold.Chemscore.Hbonds>
donor molecule, donor type, donor heavy atom, donor atom, acceptor molecule, acceptor atom, score
      L1  H     4    19       P1  8028  0.93

> <Gold.Chemscore.Hbond.Weighted>
-3.1932

> <Gold.Chemscore.Metal.Weighted>
-0.0000

> <Gold.Chemscore.Lipo.Weighted>
-10.7561

> <Gold.Chemscore.Internal_Hbond.Weighted>
0.0000

> <Gold.Chemscore.DEClash.Weighted>
0.0981

> <Gold.Chemscore.DEInternal.Weighted>
0.7520

> <Gold.Chemscore.Rot.Weighted>
4.8572

> <Gold.Chemscore.Internal.Correction.Weighted>
   9.000000E+99

> <Gold.Protein.RotatedTorsions>
[ 6907 6896 6895 6894 ] final   16.71 input  -60.11 | X-H torsion
[ 7974 7965 7964 7962 ] final  -99.25 input  175.53 | X-H torsion
[ 8008 7997 7996 7995 ] final   34.25 input   59.86 | X-H torsion
[ 10167 10162 10161 10158 ] final -143.62 input  -65.29 | X-H torsion
[ 10718 10713 10712 10709 ] final  -60.83 input   66.30 | X-H torsion
[ 10763 10752 10751 10750 ] final  123.19 input  -60.55 | X-H torsion
[ 11005 11000 10999 10996 ] final   39.06 input  -57.11 | X-H torsion

> <Gold.Protein.ActiveResidues>
 VAL166  LYS551  ARG553  GLY616  TRP617  ASP618  TYR619  PRO620  LYS621  CYS622 
 ASP623  PHE694  ASN695  SER759  ASP760  ASP761  ALA762  ILE779  LEU786  VAL792 
 PHE793  MET794  SER795  GLU796  ALA797  LYS798  CYS799  TRP800  GLU811  SER814 

> <Gold.Protein.RotatedAtoms>
  151.8382  135.0599  160.0444 H   0  0  0  0  0  0  0  0  0  0  0  0  # atno 6907 bound_to 6896
  152.2829  133.5483  159.5517 H   0  0  0  0  0  0  0  0  0  0  0  0  # atno 6908 bound_to 6896
  150.7197  134.0455  159.3822 H   0  0  0  0  0  0  0  0  0  0  0  0  # atno 6909 bound_to 6896
  145.3100  140.9398  143.2775 H   0  0  0  0  0  0  0  0  0  0  0  0  # atno 7974 bound_to 7965
  155.1518  140.3275  155.4429 H   0  0  0  0  0  0  0  0  0  0  0  0  # atno 8008 bound_to 7997
  156.2572  140.1975  156.6579 H   0  0  0  0  0  0  0  0  0  0  0  0  # atno 8009 bound_to 7997
  154.6468  140.0563  156.9896 H   0  0  0  0  0  0  0  0  0  0  0  0  # atno 8010 bound_to 7997
  139.7976  143.7878  152.2655 H   0  0  0  0  0  0  0  0  0  0  0  0  # atno 10167 bound_to 10162
  156.0964  130.4192  150.0908 H   0  0  0  0  0  0  0  0  0  0  0  0  # atno 10718 bound_to 10713
  153.6416  135.3378  155.3073 H   0  0  0  0  0  0  0  0  0  0  0  0  # atno 10763 bound_to 10752
  154.8558  135.4319  154.1999 H   0  0  0  0  0  0  0  0  0  0  0  0  # atno 10764 bound_to 10752
  153.2919  135.7017  153.7359 H   0  0  0  0  0  0  0  0  0  0  0  0  # atno 10765 bound_to 10752
  140.2065  134.3807  155.8070 H   0  0  0  0  0  0  0  0  0  0  0  0  # atno 11005 bound_to 11000
  144.9024  139.4633  143.6626 LP  0  0  0  0  0  0  0  0  0  0  0  0  # atno 17320 bound_to 7965
  146.3121  139.7785  142.9011 LP  0  0  0  0  0  0  0  0  0  0  0  0  # atno 17321 bound_to 7965
  139.7988  144.7382  150.9853 LP  0  0  0  0  0  0  0  0  0  0  0  0  # atno 17342 bound_to 10162
  140.7820  143.4366  151.0614 LP  0  0  0  0  0  0  0  0  0  0  0  0  # atno 17343 bound_to 10162
  156.8906  130.9587  151.3589 LP  0  0  0  0  0  0  0  0  0  0  0  0  # atno 17370 bound_to 10713
  157.6125  130.8594  149.8975 LP  0  0  0  0  0  0  0  0  0  0  0  0  # atno 17371 bound_to 10713
  141.2227  133.7121  156.8346 LP  0  0  0  0  0  0  0  0  0  0  0  0  # atno 17394 bound_to 11000
  140.1997  134.8906  157.3155 LP  0  0  0  0  0  0  0  0  0  0  0  0  # atno 17395 bound_to 11000

$$$$
