AV-unprocessed.smi:2439|AV-procd|sdf|9607|dock10
  -GOLD-   2272013243D 1   1.00000     0.00000
 Structure written by MMmdl.
 41 43  0  0  0  0  0  0  0  0  2 V2000
  147.6300  137.1464  160.8350 N   0  0  0  0  0  0  0  0  0  0  0  0
  147.8856  137.0184  159.7138 C   0  0  0  0  0  0  0  0  0  0  0  0
  148.2099  136.8573  158.3016 C   0  0  0  0  0  0  0  0  0  0  0  0
  147.8181  135.6750  157.6391 C   0  0  0  0  0  0  0  0  0  0  0  0
  148.1336  135.5153  156.2772 C   0  0  0  0  0  0  0  0  0  0  0  0
  148.8302  136.5511  155.6288 C   0  0  0  0  0  0  0  0  0  0  0  0
  149.2099  137.6874  156.2499 N   0  0  0  0  0  0  0  0  0  0  0  0
  148.9120  137.8471  157.5628 C   0  0  0  0  0  0  0  0  0  0  0  0
  149.3213  139.0421  158.1806 N   0  0  0  0  0  0  0  0  0  0  0  0
  150.3719  139.8599  157.5908 C   0  0  0  0  0  0  0  0  0  0  0  0
  149.9729  141.3404  157.5347 C   0  0  2  0  0  0  0  0  0  0  0  0
  151.1966  142.2455  157.3009 C   0  0  0  0  0  0  0  0  0  0  0  0
  150.8081  143.6769  157.3505 N   0  3  2  0  0  0  0  0  0  0  0  0
  151.9302  144.6141  157.0826 C   0  0  0  0  0  0  0  0  0  0  0  0
  152.8911  144.7303  158.2816 C   0  0  0  0  0  0  0  0  0  0  0  0
  152.1332  145.1040  159.5630 C   0  0  0  0  0  0  0  0  0  0  0  0
  150.9874  144.1139  159.8157 C   0  0  0  0  0  0  0  0  0  0  0  0
  150.0545  144.0196  158.5881 C   0  0  2  0  0  0  0  0  0  0  0  0
  148.8962  143.0248  158.7969 C   0  0  0  0  0  0  0  0  0  0  0  0
  149.3867  141.6900  158.7844 O   0  0  0  0  0  0  0  0  0  0  0  0
  147.2827  134.8963  158.1634 H   0  0  0  0  0  0  0  0  0  0  0  0
  147.8484  134.6210  155.7430 H   0  0  0  0  0  0  0  0  0  0  0  0
  149.0897  136.4665  154.5840 H   0  0  0  0  0  0  0  0  0  0  0  0
  149.0666  139.2070  159.1440 H   0  0  0  0  0  0  0  0  0  0  0  0
  151.2952  139.7410  158.1595 H   0  0  0  0  0  0  0  0  0  0  0  0
  150.5656  139.4964  156.5809 H   0  0  0  0  0  0  0  0  0  0  0  0
  149.2497  141.4885  156.7300 H   0  0  0  0  0  0  0  0  0  0  0  0
  151.9612  142.0324  158.0482 H   0  0  0  0  0  0  0  0  0  0  0  0
  151.6379  142.0258  156.3281 H   0  0  0  0  0  0  0  0  0  0  0  0
  152.4709  144.3028  156.1880 H   0  0  0  0  0  0  0  0  0  0  0  0
  151.5095  145.5958  156.8603 H   0  0  0  0  0  0  0  0  0  0  0  0
  153.4247  143.7910  158.4295 H   0  0  0  0  0  0  0  0  0  0  0  0
  153.6537  145.4808  158.0721 H   0  0  0  0  0  0  0  0  0  0  0  0
  152.8150  145.1155  160.4136 H   0  0  0  0  0  0  0  0  0  0  0  0
  151.7319  146.1141  159.4712 H   0  0  0  0  0  0  0  0  0  0  0  0
  151.3968  143.1330  160.0597 H   0  0  0  0  0  0  0  0  0  0  0  0
  150.4190  144.4305  160.6907 H   0  0  0  0  0  0  0  0  0  0  0  0
  149.6153  145.0064  158.4342 H   0  0  0  0  0  0  0  0  0  0  0  0
  148.3976  143.2131  159.7480 H   0  0  0  0  0  0  0  0  0  0  0  0
  148.1399  143.1457  158.0195 H   0  0  0  0  0  0  0  0  0  0  0  0
  150.1578  143.8001  156.5875 H   0  0  0  0  0  0  0  0  0  0  0  0
  1  2  3  0  0  0  0
  2  3  1  0  0  0  0
  3  8  1  0  0  0  0
  3  4  2  0  0  0  0
  4  5  1  0  0  0  0
  4 21  1  0  0  0  0
  5  6  2  0  0  0  0
  5 22  1  0  0  0  0
  6  7  1  0  0  0  0
  6 23  1  0  0  0  0
  7  8  2  0  0  0  0
  8  9  1  0  0  0  0
  9 10  1  0  0  0  0
  9 24  1  0  0  0  0
 10 11  1  0  0  0  0
 10 25  1  0  0  0  0
 10 26  1  0  0  0  0
 11 20  1  0  0  0  0
 11 12  1  0  0  0  0
 11 27  1  0  0  0  0
 12 13  1  0  0  0  0
 12 28  1  0  0  0  0
 12 29  1  0  0  0  0
 13 18  1  0  0  0  0
 13 14  1  0  0  0  0
 13 41  1  0  0  0  0
 14 15  1  0  0  0  0
 14 30  1  0  0  0  0
 14 31  1  0  0  0  0
 15 16  1  0  0  0  0
 15 32  1  0  0  0  0
 15 33  1  0  0  0  0
 16 17  1  0  0  0  0
 16 34  1  0  0  0  0
 16 35  1  0  0  0  0
 17 18  1  0  0  0  0
 17 36  1  0  0  0  0
 17 37  1  0  0  0  0
 18 19  1  0  0  0  0
 18 38  1  0  0  0  0
 19 20  1  0  0  0  0
 19 39  1  0  0  0  0
 19 40  1  0  0  0  0
M  CHG  1  13   1
M  END
> <s_m_source_file>
AV-unprocessed.smi

> <i_m_source_file_index>
2439

> <i_lp_mmshare_version>
43012

> <i_f3d_flags>
0

> <s_epik_input>
TiNDYzFbY0hdW2NIXVtjSF1uYzFbTkhdW0NIMl1bQ0BIXShbQ0gyXTIpT1tDSDJdW0NAQEhdKE4yMylbQ0gyXVtDSDJdW0NIMl1bQ0gyXTM=

> <s_epik_cmdline>
J2VwaWtfcHl0aG9uJywgJy1waCcsICc3LjAnLCAnLXRuJywgJzgnLCAnLW1hJywgJzIwMCcsICctbWV0YWxfYmluZGluZycsICctaW1hZScsICc8aW5maWxlLm1hZT4nLCAnLW9tYWUnLCAnPG91dGZpbGUubWFlPic=

> <r_epik_Ionization_Penalty>
0.0803594

> <r_epik_Ionization_Penalty_Charging>
0.0803403

> <r_epik_Ionization_Penalty_Neutral>
1.90988e-05

> <r_epik_State_Penalty>
0.0711481

> <r_epik_Charging_Adjusted_Penalty>
0.151488

> <i_epik_Tot_Q>
1

> <i_epik_Tot_abs_Q>
1

> <r_epik_Metal_State_Penalty>
0.0711482

> <b_epik_Metal_Only>
0

> <s_lp_Force_Field>
OPLS_2005

> <r_lp_Energy>
31.0257

> <b_lp_Chiralities_Consistent>
1

> <s_lp_Variant>
AV-unprocessed.smi:2439-5

> <Gold.Version>
5.8.1

> <Gold.Id.Protein>
6NUR|6NUR_protein|mol2

> <Gold.PLP.Fitness>
38.8564

> <Gold.PLP.PLP>
-26.3784

> <Gold.PLP.part.hbond>
-4.0333

> <Gold.PLP.part.metal>
0.0000

> <Gold.PLP.part.buried>
-3.2837

> <Gold.PLP.part.nonpolar>
-19.9376

> <Gold.PLP.part.repulsive>
0.2266

> <Gold.PLP.ligand.clash>
0.0000

> <Gold.PLP.ligand.torsion>
0.2738

> <Gold.PLP.Chemscore.Hbond>
3.7191

> <Gold.PLP.Chemscore.CHOScore>
0.6226

> <Gold.PLP.Chemscore.Metal>
0.0000

> <Gold.Chemscore.Hbonds>
donor molecule, donor type, donor heavy atom, donor atom, acceptor molecule, acceptor atom, score
      L1  H    13    41       P1  8028  2.00
      P1  H  6931  6943       L1     1  0.74
      P1  H  6934  6947       L1     1  0.96
      L1  C     6    23       P1  7948  0.53

> <Gold.PLP.Chemscore.Internal.Correction>
0.0006

> <Gold.Rescore>
     Score         DG    S(hbond)    S(metal)    S(lipo)     H(rot)  DE(clash)    DE(int)     intcor
     17.69     -18.23       1.90        0.00      82.57       1.27       0.28       0.26       ----

> <Gold.Chemscore.Fitness>
17.6943

> <Gold.Chemscore.DG>
-18.2302

> <Gold.Chemscore.ZeroCoef>
-5.4800

> <Gold.Chemscore.Hbond>
1.8953

> <Gold.Chemscore.Metal>
0.0000

> <Gold.Chemscore.Lipo>
82.5708

> <Gold.Chemscore.Internal_Hbond>
0.0000

> <Gold.Chemscore.DEClash>
0.2766

> <Gold.Chemscore.DEInternal>
0.2593

> <Gold.Chemscore.Rot>
1.2659

> <Gold.Chemscore.Internal.Correction>
   9.000000E+99

> <Gold.Chemscore.Hbonds>
donor molecule, donor type, donor heavy atom, donor atom, acceptor molecule, acceptor atom, score
      L1  H    13    41       P1  8028  0.96
      P1  H  6931  6943       L1     1  0.64
      P1  H  6934  6947       L1     1  0.32

> <Gold.Chemscore.Hbond.Weighted>
-6.3302

> <Gold.Chemscore.Metal.Weighted>
-0.0000

> <Gold.Chemscore.Lipo.Weighted>
-9.6608

> <Gold.Chemscore.Internal_Hbond.Weighted>
0.0000

> <Gold.Chemscore.DEClash.Weighted>
0.2766

> <Gold.Chemscore.DEInternal.Weighted>
0.2593

> <Gold.Chemscore.Rot.Weighted>
3.2408

> <Gold.Chemscore.Internal.Correction.Weighted>
   9.000000E+99

> <Gold.Protein.RotatedTorsions>
[ 6907 6896 6895 6894 ] final  116.21 input  -60.11 | X-H torsion
[ 7974 7965 7964 7962 ] final -143.64 input  175.53 | X-H torsion
[ 8008 7997 7996 7995 ] final  142.02 input   59.86 | X-H torsion
[ 10167 10162 10161 10158 ] final -113.43 input  -65.29 | X-H torsion
[ 10718 10713 10712 10709 ] final -109.43 input   66.30 | X-H torsion
[ 10763 10752 10751 10750 ] final  -43.77 input  -60.55 | X-H torsion
[ 11005 11000 10999 10996 ] final  126.05 input  -57.11 | X-H torsion

> <Gold.Protein.ActiveResidues>
 VAL166  LYS551  ARG553  GLY616  TRP617  ASP618  TYR619  PRO620  LYS621  CYS622 
 ASP623  PHE694  ASN695  SER759  ASP760  ASP761  ALA762  ILE779  LEU786  VAL792 
 PHE793  MET794  SER795  GLU796  ALA797  LYS798  CYS799  TRP800  GLU811  SER814 

> <Gold.Protein.RotatedAtoms>
  152.4692  133.7992  159.6943 H   0  0  0  0  0  0  0  0  0  0  0  0  # atno 6907 bound_to 6896
  150.8672  133.7547  159.2979 H   0  0  0  0  0  0  0  0  0  0  0  0  # atno 6908 bound_to 6896
  151.5094  135.1067  159.9902 H   0  0  0  0  0  0  0  0  0  0  0  0  # atno 6909 bound_to 6896
  144.8355  140.5809  143.5487 H   0  0  0  0  0  0  0  0  0  0  0  0  # atno 7974 bound_to 7965
  156.2956  140.2299  156.4660 H   0  0  0  0  0  0  0  0  0  0  0  0  # atno 8008 bound_to 7997
  154.7976  140.0450  157.1269 H   0  0  0  0  0  0  0  0  0  0  0  0  # atno 8009 bound_to 7997
  154.9571  140.3049  155.5051 H   0  0  0  0  0  0  0  0  0  0  0  0  # atno 8010 bound_to 7997
  140.1119  143.4520  152.1747 H   0  0  0  0  0  0  0  0  0  0  0  0  # atno 10167 bound_to 10162
  156.0536  130.5763  150.8098 H   0  0  0  0  0  0  0  0  0  0  0  0  # atno 10718 bound_to 10713
  154.0011  135.6693  153.4759 H   0  0  0  0  0  0  0  0  0  0  0  0  # atno 10763 bound_to 10752
  153.0662  135.4999  154.8201 H   0  0  0  0  0  0  0  0  0  0  0  0  # atno 10764 bound_to 10752
  154.7052  135.3086  154.9244 H   0  0  0  0  0  0  0  0  0  0  0  0  # atno 10765 bound_to 10752
  139.9436  134.9632  156.8649 H   0  0  0  0  0  0  0  0  0  0  0  0  # atno 11005 bound_to 11000
  145.4805  139.1496  143.3764 LP  0  0  0  0  0  0  0  0  0  0  0  0  # atno 17320 bound_to 7965
  146.2654  140.4941  142.8836 LP  0  0  0  0  0  0  0  0  0  0  0  0  # atno 17321 bound_to 7965
  139.5614  144.7408  151.4143 LP  0  0  0  0  0  0  0  0  0  0  0  0  # atno 17342 bound_to 10162
  140.6921  143.7837  150.7270 LP  0  0  0  0  0  0  0  0  0  0  0  0  # atno 17343 bound_to 10162
  157.5486  131.0943  150.9727 LP  0  0  0  0  0  0  0  0  0  0  0  0  # atno 17370 bound_to 10713
  156.9992  130.5593  149.5310 LP  0  0  0  0  0  0  0  0  0  0  0  0  # atno 17371 bound_to 10713
  140.5889  134.0281  155.7492 LP  0  0  0  0  0  0  0  0  0  0  0  0  # atno 17394 bound_to 11000
  141.1080  133.9663  157.2962 LP  0  0  0  0  0  0  0  0  0  0  0  0  # atno 17395 bound_to 11000

$$$$
