AV-unprocessed.smi:158|AV-procd|sdf|1328|dock4
  -GOLD-   2262019 23D 1   1.00000     0.00000
 Structure written by MMmdl.
 31 33  0  0  0  0  0  0  0  0  1 V2000
  145.4674  135.3163  150.1284 N   0  0  0  0  0  0  0  0  0  0  0  0
  145.5723  135.9050  151.3280 C   0  0  0  0  0  0  0  0  0  0  0  0
  145.1163  135.2390  152.4148 N   0  0  0  0  0  0  0  0  0  0  0  0
  145.2035  135.7902  153.6321 C   0  0  0  0  0  0  0  0  0  0  0  0
  144.5920  134.8516  154.9430 Cl  0  0  0  0  0  0  0  0  0  0  0  0
  145.7109  136.9874  153.9465 N   0  0  0  0  0  0  0  0  0  0  0  0
  146.1696  137.6601  152.8520 C   0  0  0  0  0  0  0  0  0  0  0  0
  146.1380  137.1900  151.5128 C   0  0  0  0  0  0  0  0  0  0  0  0
  146.6931  138.1397  150.6659 N   0  0  0  0  0  0  0  0  0  0  0  0
  147.0336  139.1149  151.4667 C   0  0  0  0  0  0  0  0  0  0  0  0
  146.7446  138.9105  152.8007 N   0  0  0  0  0  0  0  0  0  0  0  0
  146.9964  139.7995  153.9782 C   0  0  1  0  0  0  0  0  0  0  0  0
  148.0471  139.2603  154.7243 O   0  0  0  0  0  0  0  0  0  0  0  0
  149.2589  139.9362  154.4002 C   0  0  2  0  0  0  0  0  0  0  0  0
  150.3308  139.7118  155.4805 C   0  0  0  0  0  0  0  0  0  0  0  0
  151.5585  140.2695  155.0632 O   0  0  0  0  0  0  0  0  0  0  0  0
  148.7803  141.3829  154.2277 C   0  0  2  0  0  0  0  0  0  0  0  0
  148.6001  142.0062  155.4881 O   0  0  0  0  0  0  0  0  0  0  0  0
  147.4581  141.1853  153.4994 C   0  0  2  0  0  0  0  0  0  0  0  0
  146.5526  142.1233  153.7832 F   0  0  0  0  0  0  0  0  0  0  0  0
  146.0628  139.7963  154.5421 H   0  0  0  0  0  0  0  0  0  0  0  0
  149.6217  139.5793  153.4342 H   0  0  0  0  0  0  0  0  0  0  0  0
  149.4810  141.9788  153.6421 H   0  0  0  0  0  0  0  0  0  0  0  0
  147.6101  141.1825  152.4186 H   0  0  0  0  0  0  0  0  0  0  0  0
  145.8016  135.7944  149.3039 H   0  0  0  0  0  0  0  0  0  0  0  0
  145.0575  134.3968  150.0511 H   0  0  0  0  0  0  0  0  0  0  0  0
  147.5070  140.0132  151.0972 H   0  0  0  0  0  0  0  0  0  0  0  0
  150.0428  140.2120  156.4057 H   0  0  0  0  0  0  0  0  0  0  0  0
  150.4550  138.6521  155.7060 H   0  0  0  0  0  0  0  0  0  0  0  0
  152.2580  139.8466  155.5376 H   0  0  0  0  0  0  0  0  0  0  0  0
  148.6048  142.9431  155.3654 H   0  0  0  0  0  0  0  0  0  0  0  0
  1  2  1  0  0  0  0
  1 25  1  0  0  0  0
  1 26  1  0  0  0  0
  2  8  1  0  0  0  0
  2  3  2  0  0  0  0
  3  4  1  0  0  0  0
  4  5  1  0  0  0  0
  4  6  2  0  0  0  0
  6  7  1  0  0  0  0
  7 11  1  0  0  0  0
  7  8  2  0  0  0  0
  8  9  1  0  0  0  0
  9 10  2  0  0  0  0
 10 11  1  0  0  0  0
 10 27  1  0  0  0  0
 11 12  1  0  0  0  0
 12 21  1  0  0  0  0
 12 19  1  0  0  0  0
 12 13  1  0  0  0  0
 13 14  1  0  0  0  0
 14 22  1  0  0  0  0
 14 15  1  0  0  0  0
 14 17  1  0  0  0  0
 15 16  1  0  0  0  0
 15 28  1  0  0  0  0
 15 29  1  0  0  0  0
 16 30  1  0  0  0  0
 17 23  1  0  0  0  0
 17 18  1  0  0  0  0
 17 19  1  0  0  0  0
 18 31  1  0  0  0  0
 19 24  1  0  0  0  0
 19 20  1  0  0  0  0
M  END
> <s_m_source_file>
AV-unprocessed.smi

> <i_m_source_file_index>
158

> <i_lp_mmshare_version>
43012

> <i_f3d_flags>
0

> <s_epik_input>
Q2xjKG4xKW5jKFtOSDJdKWMoYzEyKW5bY0hdbjJbQ0BASF0zT1tDQEhdKFtDSDJdW09IXSlbQ0BASF0oW09IXSlbQ0BASF0zRg==

> <s_epik_cmdline>
J2VwaWtfcHl0aG9uJywgJy1waCcsICc3LjAnLCAnLXRuJywgJzgnLCAnLW1hJywgJzIwMCcsICctbWV0YWxfYmluZGluZycsICctaW1hZScsICc8aW5maWxlLm1hZT4nLCAnLW9tYWUnLCAnPG91dGZpbGUubWFlPic=

> <r_lp_tautomer_probability>
1

> <r_epik_Ionization_Penalty>
6.51543e-05

> <r_epik_Ionization_Penalty_Charging>
0

> <r_epik_Ionization_Penalty_Neutral>
6.51543e-05

> <r_epik_State_Penalty>
-0

> <r_epik_Charging_Adjusted_Penalty>
0

> <i_epik_Tot_Q>
0

> <i_epik_Tot_abs_Q>
0

> <r_epik_Metal_State_Penalty>
-0

> <b_epik_Metal_Only>
0

> <s_epik_Chemistry_Notes>
This compound contains an acetal/aminal-like group ( X-CH(R)-Y where X, Y are N, S, or O) that may be acid/base labile, releasing an aldehyde.

> <s_lp_Force_Field>
OPLS_2005

> <r_lp_Energy>
37.0626

> <b_lp_Chiralities_Consistent>
1

> <s_lp_Variant>
AV-unprocessed.smi:158-6

> <Gold.Version>
5.8.1

> <Gold.Id.Protein>
6NUR|6NUR_protein|mol2

> <Gold.PLP.Fitness>
42.9410

> <Gold.PLP.PLP>
-30.9350

> <Gold.PLP.part.hbond>
-4.0000

> <Gold.PLP.part.metal>
0.0000

> <Gold.PLP.part.buried>
0.3555

> <Gold.PLP.part.nonpolar>
-28.4479

> <Gold.PLP.part.repulsive>
2.1582

> <Gold.PLP.ligand.clash>
0.0000

> <Gold.PLP.ligand.torsion>
0.2530

> <Gold.PLP.Chemscore.Hbond>
3.4142

> <Gold.PLP.Chemscore.CHOScore>
0.7501

> <Gold.PLP.Chemscore.Metal>
0.0000

> <Gold.Chemscore.Hbonds>
donor molecule, donor type, donor heavy atom, donor atom, acceptor molecule, acceptor atom, score
      L1  H     1    25       P1  7921  0.45
      L1  H    18    31       P1  8028  1.00
      P1  H  7954  7966       L1     9  1.00
      P1  H  7989  7998       L1    16  0.98
      L1  C    10    27       P1  7957  0.73

> <Gold.PLP.Chemscore.Internal.Correction>
0.0190

> <Gold.Rescore>
     Score         DG    S(hbond)    S(metal)    S(lipo)     H(rot)  DE(clash)    DE(int)     intcor
      6.70      -8.24       2.03        0.00      33.92       3.12       1.35       0.19       ----

> <Gold.Chemscore.Fitness>
6.6980

> <Gold.Chemscore.DG>
-8.2393

> <Gold.Chemscore.ZeroCoef>
-5.4800

> <Gold.Chemscore.Hbond>
2.0316

> <Gold.Chemscore.Metal>
0.0000

> <Gold.Chemscore.Lipo>
33.9194

> <Gold.Chemscore.Internal_Hbond>
0.0000

> <Gold.Chemscore.DEClash>
1.3487

> <Gold.Chemscore.DEInternal>
0.1926

> <Gold.Chemscore.Rot>
3.1230

> <Gold.Chemscore.Internal.Correction>
   9.000000E+99

> <Gold.Chemscore.Hbonds>
donor molecule, donor type, donor heavy atom, donor atom, acceptor molecule, acceptor atom, score
      L1  H     1    25       P1  7921  0.43
      L1  H    18    31       P1  8028  1.00
      P1  H  7954  7966       L1     9  0.24
      P1  H  7989  7998       L1    16  0.89

> <Gold.Chemscore.Hbond.Weighted>
-6.7857

> <Gold.Chemscore.Metal.Weighted>
-0.0000

> <Gold.Chemscore.Lipo.Weighted>
-3.9686

> <Gold.Chemscore.Internal_Hbond.Weighted>
0.0000

> <Gold.Chemscore.DEClash.Weighted>
1.3487

> <Gold.Chemscore.DEInternal.Weighted>
0.1926

> <Gold.Chemscore.Rot.Weighted>
7.9950

> <Gold.Chemscore.Internal.Correction.Weighted>
   9.000000E+99

> <Gold.Protein.RotatedTorsions>
[ 6907 6896 6895 6894 ] final  115.57 input  -60.11 | X-H torsion
[ 7974 7965 7964 7962 ] final  135.03 input  175.53 | X-H torsion
[ 8008 7997 7996 7995 ] final  115.55 input   59.86 | X-H torsion
[ 10167 10162 10161 10158 ] final   41.60 input  -65.29 | X-H torsion
[ 10718 10713 10712 10709 ] final  125.93 input   66.30 | X-H torsion
[ 10763 10752 10751 10750 ] final  124.41 input  -60.55 | X-H torsion
[ 11005 11000 10999 10996 ] final  -50.95 input  -57.11 | X-H torsion

> <Gold.Protein.ActiveResidues>
 VAL166  LYS551  ARG553  GLY616  TRP617  ASP618  TYR619  PRO620  LYS621  CYS622 
 ASP623  PHE694  ASN695  SER759  ASP760  ASP761  ALA762  ILE779  LEU786  VAL792 
 PHE793  MET794  SER795  GLU796  ALA797  LYS798  CYS799  TRP800  GLU811  SER814 

> <Gold.Protein.RotatedAtoms>
  152.4733  133.8079  159.6987 H   0  0  0  0  0  0  0  0  0  0  0  0  # atno 6907 bound_to 6896
  150.8735  133.7463  159.2960 H   0  0  0  0  0  0  0  0  0  0  0  0  # atno 6908 bound_to 6896
  151.4990  135.1064  159.9876 H   0  0  0  0  0  0  0  0  0  0  0  0  # atno 6909 bound_to 6896
  144.9704  139.4611  143.5435 H   0  0  0  0  0  0  0  0  0  0  0  0  # atno 7974 bound_to 7965
  156.2388  140.2936  156.0387 H   0  0  0  0  0  0  0  0  0  0  0  0  # atno 8008 bound_to 7997
  155.2012  140.0409  157.2935 H   0  0  0  0  0  0  0  0  0  0  0  0  # atno 8009 bound_to 7997
  154.6129  140.2456  155.7653 H   0  0  0  0  0  0  0  0  0  0  0  0  # atno 8010 bound_to 7997
  140.3627  144.2207  150.6137 H   0  0  0  0  0  0  0  0  0  0  0  0  # atno 10167 bound_to 10162
  157.5462  131.1095  150.8779 H   0  0  0  0  0  0  0  0  0  0  0  0  # atno 10718 bound_to 10713
  153.6609  135.3346  155.3127 H   0  0  0  0  0  0  0  0  0  0  0  0  # atno 10763 bound_to 10752
  154.8515  135.4363  154.1805 H   0  0  0  0  0  0  0  0  0  0  0  0  # atno 10764 bound_to 10752
  153.2772  135.7005  153.7497 H   0  0  0  0  0  0  0  0  0  0  0  0  # atno 10765 bound_to 10752
  141.0844  133.6646  156.3805 H   0  0  0  0  0  0  0  0  0  0  0  0  # atno 11005 bound_to 11000
  146.3380  139.8913  142.8808 LP  0  0  0  0  0  0  0  0  0  0  0  0  # atno 17320 bound_to 7965
  145.2567  141.0063  143.3850 LP  0  0  0  0  0  0  0  0  0  0  0  0  # atno 17321 bound_to 7965
  140.5111  143.2290  151.8534 LP  0  0  0  0  0  0  0  0  0  0  0  0  # atno 17342 bound_to 10162
  139.4812  144.4949  151.9137 LP  0  0  0  0  0  0  0  0  0  0  0  0  # atno 17343 bound_to 10162
  156.9317  130.5352  149.5279 LP  0  0  0  0  0  0  0  0  0  0  0  0  # atno 17370 bound_to 10713
  156.0537  130.5602  150.9045 LP  0  0  0  0  0  0  0  0  0  0  0  0  # atno 17371 bound_to 10713
  140.5396  134.6133  157.5375 LP  0  0  0  0  0  0  0  0  0  0  0  0  # atno 17394 bound_to 11000
  139.9661  134.7371  156.0136 LP  0  0  0  0  0  0  0  0  0  0  0  0  # atno 17395 bound_to 11000

$$$$
