AV-unprocessed.smi:36|AV-procd|sdf|292|dock7
  -GOLD-   2262016 83D 1   1.00000     0.00000
 Structure written by MMmdl.
 64 67  0  0  0  0  0  0  0  0  1 V2000
  143.7641  137.2703  152.8464 C   0  0  0  0  0  0  0  0  0  0  0  0
  144.2979  135.8788  152.4684 C   0  0  0  0  0  0  0  0  0  0  0  0
  143.1226  134.9282  152.1878 C   0  0  0  0  0  0  0  0  0  0  0  0
  145.1901  135.9827  151.2203 C   0  0  0  0  0  0  0  0  0  0  0  0
  145.3335  135.1800  153.9138 Si  0  0  0  0  0  0  0  0  0  0  0  0
  144.3306  135.1757  155.5287 C   0  0  0  0  0  0  0  0  0  0  0  0
  145.9505  133.4234  153.5358 C   0  0  0  0  0  0  0  0  0  0  0  0
  146.6843  136.1775  154.1194 O   0  0  0  0  0  0  0  0  0  0  0  0
  146.6554  137.3855  154.8503 C   0  0  0  0  0  0  0  0  0  0  0  0
  146.3212  138.5415  153.8992 C   0  0  1  0  0  0  0  0  0  0  0  0
  146.1213  139.7612  154.6218 O   0  0  0  0  0  0  0  0  0  0  0  0
  146.8206  140.8161  154.0257 C   0  0  1  0  0  0  0  0  0  0  0  0
  148.0417  141.1020  154.8503 N   0  0  0  0  0  0  0  0  0  0  0  0
  149.3236  140.7899  154.5733 C   0  0  0  0  0  0  0  0  0  0  0  0
  150.2128  141.1456  155.4963 N   0  0  0  0  0  0  0  0  0  0  0  0
  149.4164  141.7271  156.4758 C   0  0  0  0  0  0  0  0  0  0  0  0
  149.7845  142.3166  157.7810 C   0  0  0  0  0  0  0  0  0  0  0  0
  151.0426  142.3295  158.1017 N   0  0  0  0  0  0  0  0  0  0  0  0
  151.4476  142.8653  159.3172 C   0  0  0  0  0  0  0  0  0  0  0  0
  151.0533  143.8900  159.8809 O   0  0  0  0  0  0  0  0  0  0  0  0
  152.5356  142.0795  159.9735 C   0  0  0  0  0  0  0  0  0  0  0  0
  152.8757  142.3280  161.3204 C   0  0  0  0  0  0  0  0  0  0  0  0
  153.8955  141.5802  161.9408 C   0  0  0  0  0  0  0  0  0  0  0  0
  154.5766  140.5817  161.2180 C   0  0  0  0  0  0  0  0  0  0  0  0
  154.2374  140.3297  159.8743 C   0  0  0  0  0  0  0  0  0  0  0  0
  153.2177  141.0765  159.2526 C   0  0  0  0  0  0  0  0  0  0  0  0
  148.6332  142.7620  158.4435 N   0  0  0  0  0  0  0  0  0  0  0  0
  147.3186  142.6703  157.9605 C   0  0  0  0  0  0  0  0  0  0  0  0
  146.9798  142.1516  156.8102 N   0  0  0  0  0  0  0  0  0  0  0  0
  148.0883  141.6980  156.1084 C   0  0  0  0  0  0  0  0  0  0  0  0
  147.2195  140.3226  152.6348 C   0  0  0  0  0  0  0  0  0  0  0  0
  147.4349  138.8466  152.8922 C   0  0  2  0  0  0  0  0  0  0  0  0
  147.3043  138.1014  151.6997 O   0  0  0  0  0  0  0  0  0  0  0  0
  143.1650  137.6964  152.0406 H   0  0  0  0  0  0  0  0  0  0  0  0
  144.5779  137.9659  153.0524 H   0  0  0  0  0  0  0  0  0  0  0  0
  143.1344  137.2266  153.7353 H   0  0  0  0  0  0  0  0  0  0  0  0
  142.4683  134.8383  153.0551 H   0  0  0  0  0  0  0  0  0  0  0  0
  143.4741  133.9273  151.9357 H   0  0  0  0  0  0  0  0  0  0  0  0
  142.5152  135.2835  151.3548 H   0  0  0  0  0  0  0  0  0  0  0  0
  144.6306  136.3579  150.3626 H   0  0  0  0  0  0  0  0  0  0  0  0
  145.6016  135.0108  150.9462 H   0  0  0  0  0  0  0  0  0  0  0  0
  146.0288  136.6591  151.3864 H   0  0  0  0  0  0  0  0  0  0  0  0
  143.4076  134.6061  155.4259 H   0  0  0  0  0  0  0  0  0  0  0  0
  144.0578  136.1858  155.8335 H   0  0  0  0  0  0  0  0  0  0  0  0
  144.8926  134.7294  156.3485 H   0  0  0  0  0  0  0  0  0  0  0  0
  145.1227  132.7305  153.3881 H   0  0  0  0  0  0  0  0  0  0  0  0
  146.5600  133.0319  154.3500 H   0  0  0  0  0  0  0  0  0  0  0  0
  146.5620  133.3981  152.6340 H   0  0  0  0  0  0  0  0  0  0  0  0
  145.9407  137.3299  155.6705 H   0  0  0  0  0  0  0  0  0  0  0  0
  147.6390  137.5382  155.2951 H   0  0  0  0  0  0  0  0  0  0  0  0
  145.3934  138.3289  153.3649 H   0  0  0  0  0  0  0  0  0  0  0  0
  146.2580  141.7504  154.0341 H   0  0  0  0  0  0  0  0  0  0  0  0
  149.6206  140.2780  153.6718 H   0  0  0  0  0  0  0  0  0  0  0  0
  152.3557  143.0906  161.8823 H   0  0  0  0  0  0  0  0  0  0  0  0
  154.1541  141.7717  162.9718 H   0  0  0  0  0  0  0  0  0  0  0  0
  155.3576  140.0078  161.6946 H   0  0  0  0  0  0  0  0  0  0  0  0
  154.7587  139.5626  159.3209 H   0  0  0  0  0  0  0  0  0  0  0  0
  152.9617  140.8765  158.2220 H   0  0  0  0  0  0  0  0  0  0  0  0
  146.5677  143.0779  158.6386 H   0  0  0  0  0  0  0  0  0  0  0  0
  146.3782  140.4873  151.9598 H   0  0  0  0  0  0  0  0  0  0  0  0
  148.0956  140.8347  152.2373 H   0  0  0  0  0  0  0  0  0  0  0  0
  148.4194  138.6812  153.3327 H   0  0  0  0  0  0  0  0  0  0  0  0
  147.4337  137.1873  151.9017 H   0  0  0  0  0  0  0  0  0  0  0  0
  148.7619  143.1843  159.3518 H   0  0  0  0  0  0  0  0  0  0  0  0
  1  2  1  0  0  0  0
  1 34  1  0  0  0  0
  1 35  1  0  0  0  0
  1 36  1  0  0  0  0
  2  3  1  0  0  0  0
  2  4  1  0  0  0  0
  2  5  1  0  0  0  0
  3 37  1  0  0  0  0
  3 38  1  0  0  0  0
  3 39  1  0  0  0  0
  4 40  1  0  0  0  0
  4 41  1  0  0  0  0
  4 42  1  0  0  0  0
  5  6  1  0  0  0  0
  5  7  1  0  0  0  0
  5  8  1  0  0  0  0
  6 43  1  0  0  0  0
  6 44  1  0  0  0  0
  6 45  1  0  0  0  0
  7 46  1  0  0  0  0
  7 47  1  0  0  0  0
  7 48  1  0  0  0  0
  8  9  1  0  0  0  0
  9 10  1  0  0  0  0
  9 49  1  0  0  0  0
  9 50  1  0  0  0  0
 10 32  1  0  0  0  0
 10 11  1  0  0  0  0
 10 51  1  0  0  0  0
 11 12  1  0  0  0  0
 12 13  1  0  0  0  0
 12 31  1  0  0  0  0
 12 52  1  0  0  0  0
 13 30  1  0  0  0  0
 13 14  1  0  0  0  0
 14 15  2  0  0  0  0
 14 53  1  0  0  0  0
 15 16  1  0  0  0  0
 16 30  2  0  0  0  0
 16 17  1  0  0  0  0
 17 18  2  0  0  0  0
 17 27  1  0  0  0  0
 18 19  1  0  0  0  0
 19 20  2  0  0  0  0
 19 21  1  0  0  0  0
 21 26  1  0  0  0  0
 21 22  2  0  0  0  0
 22 23  1  0  0  0  0
 22 54  1  0  0  0  0
 23 24  2  0  0  0  0
 23 55  1  0  0  0  0
 24 25  1  0  0  0  0
 24 56  1  0  0  0  0
 25 26  2  0  0  0  0
 25 57  1  0  0  0  0
 26 58  1  0  0  0  0
 27 28  1  0  0  0  0
 27 64  1  0  0  0  0
 28 29  2  0  0  0  0
 28 59  1  0  0  0  0
 29 30  1  0  0  0  0
 31 32  1  0  0  0  0
 31 60  1  0  0  0  0
 31 61  1  0  0  0  0
 32 33  1  0  0  0  0
 32 62  1  0  0  0  0
 33 63  1  0  0  0  0
M  END
> <s_m_source_file>
AV-unprocessed.smi

> <i_m_source_file_index>
36

> <i_lp_mmshare_version>
43012

> <i_f3d_flags>
0

> <s_epik_input>
W0NIM11DKFtDSDNdKShbQ0gzXSlbU2ldKFtDSDNdKShbQ0gzXSlPW0NIMl1bQ0BASF0xT1tDQEhdKFtDSDJdW0NASF0xW09IXSluKFtjSF1uMiljKGMyMyluW2NIXW5jM1tOSF1DKD1PKWM0W2NIXVtjSF1bY0hdW2NIXVtjSF00

> <s_epik_cmdline>
J2VwaWtfcHl0aG9uJywgJy1waCcsICc3LjAnLCAnLXRuJywgJzgnLCAnLW1hJywgJzIwMCcsICctbWV0YWxfYmluZGluZycsICctaW1hZScsICc8aW5maWxlLm1hZT4nLCAnLW9tYWUnLCAnPG91dGZpbGUubWFlPic=

> <r_epik_Ionization_Penalty>
0.0850405

> <r_epik_Ionization_Penalty_Charging>
0.0850403

> <r_epik_Ionization_Penalty_Neutral>
1.47497e-07

> <r_epik_State_Penalty>
2.6133

> <r_epik_Charging_Adjusted_Penalty>
2.69834

> <i_epik_Tot_Q>
0

> <i_epik_Tot_abs_Q>
0

> <r_epik_Metal_State_Penalty>
2.92945

> <b_epik_Metal_Only>
0

> <s_epik_Chemistry_Notes>
This compound contains an acetal/aminal-like group ( X-CH(R)-Y where X, Y are N, S, or O) that may be acid/base labile, releasing an aldehyde.

> <s_lp_Force_Field>
OPLS_2005

> <r_lp_Energy>
45.4031

> <b_lp_Chiralities_Consistent>
1

> <s_lp_Variant>
AV-unprocessed.smi:36-14

> <Gold.Version>
5.8.1

> <Gold.Id.Protein>
6NUR|6NUR_protein|mol2

> <Gold.PLP.Fitness>
52.3270

> <Gold.PLP.PLP>
-48.2431

> <Gold.PLP.part.hbond>
-3.0383

> <Gold.PLP.part.metal>
0.0000

> <Gold.PLP.part.buried>
-2.3236

> <Gold.PLP.part.nonpolar>
-44.0353

> <Gold.PLP.part.repulsive>
0.7974

> <Gold.PLP.ligand.clash>
0.0000

> <Gold.PLP.ligand.torsion>
1.2530

> <Gold.PLP.Chemscore.Hbond>
1.1240

> <Gold.PLP.Chemscore.CHOScore>
0.9972

> <Gold.PLP.Chemscore.Metal>
0.0000

> <Gold.Chemscore.Hbonds>
donor molecule, donor type, donor heavy atom, donor atom, acceptor molecule, acceptor atom, score
      L1  H    33    63       P1  7948  0.56
      P1  H  7954  7966       L1    33  0.55
      L1  C    14    53       P1  7957  1.00

> <Gold.PLP.Chemscore.Internal.Correction>
0.2261

> <Gold.Rescore>
     Score         DG    S(hbond)    S(metal)    S(lipo)     H(rot)  DE(clash)    DE(int)     intcor
     10.53     -12.29       0.54        0.00     101.89       2.70       0.42       1.33       ----

> <Gold.Chemscore.Fitness>
10.5297

> <Gold.Chemscore.DG>
-12.2858

> <Gold.Chemscore.ZeroCoef>
-5.4800

> <Gold.Chemscore.Hbond>
0.5412

> <Gold.Chemscore.Metal>
0.0000

> <Gold.Chemscore.Lipo>
101.8870

> <Gold.Chemscore.Internal_Hbond>
0.0000

> <Gold.Chemscore.DEClash>
0.4234

> <Gold.Chemscore.DEInternal>
1.3327

> <Gold.Chemscore.Rot>
2.7041

> <Gold.Chemscore.Internal.Correction>
   9.000000E+99

> <Gold.Chemscore.Hbonds>
donor molecule, donor type, donor heavy atom, donor atom, acceptor molecule, acceptor atom, score
      L1  H    33    63       P1  7948  0.56
      P1  H  7954  7966       L1    33  0.03

> <Gold.Chemscore.Hbond.Weighted>
-1.8075

> <Gold.Chemscore.Metal.Weighted>
-0.0000

> <Gold.Chemscore.Lipo.Weighted>
-11.9208

> <Gold.Chemscore.Internal_Hbond.Weighted>
0.0000

> <Gold.Chemscore.DEClash.Weighted>
0.4234

> <Gold.Chemscore.DEInternal.Weighted>
1.3327

> <Gold.Chemscore.Rot.Weighted>
6.9225

> <Gold.Chemscore.Internal.Correction.Weighted>
   9.000000E+99

> <Gold.Protein.RotatedTorsions>
[ 6907 6896 6895 6894 ] final   86.62 input  -60.11 | X-H torsion
[ 7974 7965 7964 7962 ] final  166.79 input  175.53 | X-H torsion
[ 8008 7997 7996 7995 ] final   -8.70 input   59.86 | X-H torsion
[ 10167 10162 10161 10158 ] final -150.19 input  -65.29 | X-H torsion
[ 10718 10713 10712 10709 ] final   -2.23 input   66.30 | X-H torsion
[ 10763 10752 10751 10750 ] final  163.52 input  -60.55 | X-H torsion
[ 11005 11000 10999 10996 ] final  -75.10 input  -57.11 | X-H torsion

> <Gold.Protein.ActiveResidues>
 VAL166  LYS551  ARG553  GLY616  TRP617  ASP618  TYR619  PRO620  LYS621  CYS622 
 ASP623  PHE694  ASN695  SER759  ASP760  ASP761  ALA762  ILE779  LEU786  VAL792 
 PHE793  MET794  SER795  GLU796  ALA797  LYS798  CYS799  TRP800  GLU811  SER814 

> <Gold.Protein.RotatedAtoms>
  152.5397  134.2404  159.8859 H   0  0  0  0  0  0  0  0  0  0  0  0  # atno 6907 bound_to 6896
  151.2371  133.4412  159.2613 H   0  0  0  0  0  0  0  0  0  0  0  0  # atno 6908 bound_to 6896
  151.0661  134.9782  159.8341 H   0  0  0  0  0  0  0  0  0  0  0  0  # atno 6909 bound_to 6896
  144.7449  139.8666  143.6385 H   0  0  0  0  0  0  0  0  0  0  0  0  # atno 7974 bound_to 7965
  154.5716  140.2374  155.8183 H   0  0  0  0  0  0  0  0  0  0  0  0  # atno 8008 bound_to 7997
  156.2111  140.3026  155.9692 H   0  0  0  0  0  0  0  0  0  0  0  0  # atno 8009 bound_to 7997
  155.2702  140.0418  157.2996 H   0  0  0  0  0  0  0  0  0  0  0  0  # atno 8010 bound_to 7997
  139.7376  143.8711  152.2553 H   0  0  0  0  0  0  0  0  0  0  0  0  # atno 10167 bound_to 10162
  156.7938  130.5370  149.5731 H   0  0  0  0  0  0  0  0  0  0  0  0  # atno 10718 bound_to 10713
  154.2950  135.2760  155.2637 H   0  0  0  0  0  0  0  0  0  0  0  0  # atno 10763 bound_to 10752
  154.5099  135.5785  153.6600 H   0  0  0  0  0  0  0  0  0  0  0  0  # atno 10764 bound_to 10752
  152.9908  135.6178  154.3117 H   0  0  0  0  0  0  0  0  0  0  0  0  # atno 10765 bound_to 10752
  141.1642  133.6935  156.7466 H   0  0  0  0  0  0  0  0  0  0  0  0  # atno 11005 bound_to 11000
  146.1310  139.4345  143.0169 LP  0  0  0  0  0  0  0  0  0  0  0  0  # atno 17320 bound_to 7965
  145.7163  141.0090  143.1426 LP  0  0  0  0  0  0  0  0  0  0  0  0  # atno 17321 bound_to 7965
  139.8653  144.7096  150.9051 LP  0  0  0  0  0  0  0  0  0  0  0  0  # atno 17342 bound_to 10162
  140.7781  143.3783  151.1522 LP  0  0  0  0  0  0  0  0  0  0  0  0  # atno 17343 bound_to 10162
  156.1142  130.6063  151.0095 LP  0  0  0  0  0  0  0  0  0  0  0  0  # atno 17370 bound_to 10713
  157.6587  131.0885  150.7888 LP  0  0  0  0  0  0  0  0  0  0  0  0  # atno 17371 bound_to 10713
  140.2635  134.8448  157.3781 LP  0  0  0  0  0  0  0  0  0  0  0  0  # atno 17394 bound_to 11000
  140.1589  134.4754  155.7909 LP  0  0  0  0  0  0  0  0  0  0  0  0  # atno 17395 bound_to 11000

$$$$
