AV-unprocessed.smi:2047|AV-procd|sdf|8318|dock10
  -GOLD-   2272010583D 1   1.00000     0.00000
 Structure written by MMmdl.
 43 45  0  0  0  0  0  0  0  0  2 V2000
  149.8886  134.6594  156.1348 O   0  0  0  0  0  0  0  0  0  0  0  0
  149.4890  135.1087  155.0611 C   0  0  0  0  0  0  0  0  0  0  0  0
  148.9029  134.3899  154.0888 N   0  0  0  0  0  0  0  0  0  0  0  0
  148.5912  132.9993  154.0753 C   0  0  0  0  0  0  0  0  0  0  0  0
  149.3212  132.0379  154.8213 C   0  0  0  0  0  0  0  0  0  0  0  0
  148.9412  130.6819  154.7755 C   0  0  0  0  0  0  0  0  0  0  0  0
  147.8322  130.3069  153.9954 C   0  0  0  0  0  0  0  0  0  0  0  0
  147.1487  131.2465  153.3095 N   0  3  0  0  0  0  0  0  0  0  0  0
  147.4730  132.5629  153.3188 C   0  0  0  0  0  0  0  0  0  0  0  0
  146.6970  133.4601  152.5645 N   0  0  0  0  0  0  0  0  0  0  0  0
  145.3158  133.6157  152.9896 C   0  0  0  0  0  0  0  0  0  0  0  0
  144.6061  134.3045  151.8213 C   0  0  0  0  0  0  0  0  0  0  0  0
  145.4811  134.0064  150.5973 C   0  0  0  0  0  0  0  0  0  0  0  0
  146.6506  133.1801  151.1393 C   0  0  0  0  0  0  0  0  0  0  0  0
  149.6034  136.3974  154.7106 N   0  0  0  0  0  0  0  0  0  0  0  0
  150.1897  137.4425  155.5449 C   0  0  1  0  0  0  0  0  0  0  0  0
  149.2637  137.7988  156.7226 C   0  0  0  0  0  0  0  0  0  0  0  0
  150.0624  138.6153  157.7458 C   0  0  0  0  0  0  0  0  0  0  0  0
  151.7919  138.0178  157.6346 S   0  0  0  0  0  0  0  0  0  0  0  0
  152.6709  139.1566  157.3292 O   0  0  0  0  0  0  0  0  0  0  0  0
  152.0777  137.1220  158.7655 O   0  0  0  0  0  0  0  0  0  0  0  0
  151.5473  137.0111  156.1230 C   0  0  0  0  0  0  0  0  0  0  0  0
  148.7093  134.8839  153.2298 H   0  0  0  0  0  0  0  0  0  0  0  0
  150.1591  132.3147  155.4421 H   0  0  0  0  0  0  0  0  0  0  0  0
  149.4915  129.9407  155.3368 H   0  0  0  0  0  0  0  0  0  0  0  0
  147.4699  129.2931  153.9042 H   0  0  0  0  0  0  0  0  0  0  0  0
  144.8590  132.6446  153.1839 H   0  0  0  0  0  0  0  0  0  0  0  0
  145.2514  134.2079  153.9030 H   0  0  0  0  0  0  0  0  0  0  0  0
  143.5851  133.9412  151.7014 H   0  0  0  0  0  0  0  0  0  0  0  0
  144.5579  135.3813  151.9887 H   0  0  0  0  0  0  0  0  0  0  0  0
  144.9374  133.4679  149.8206 H   0  0  0  0  0  0  0  0  0  0  0  0
  145.8433  134.9388  150.1625 H   0  0  0  0  0  0  0  0  0  0  0  0
  147.5902  133.4483  150.6551 H   0  0  0  0  0  0  0  0  0  0  0  0
  146.4724  132.1181  150.9645 H   0  0  0  0  0  0  0  0  0  0  0  0
  149.2568  136.6803  153.8054 H   0  0  0  0  0  0  0  0  0  0  0  0
  150.3350  138.3474  154.9515 H   0  0  0  0  0  0  0  0  0  0  0  0
  148.3735  138.3350  156.3918 H   0  0  0  0  0  0  0  0  0  0  0  0
  148.9220  136.8803  157.2022 H   0  0  0  0  0  0  0  0  0  0  0  0
  150.0559  139.6740  157.4849 H   0  0  0  0  0  0  0  0  0  0  0  0
  149.6894  138.5057  158.7642 H   0  0  0  0  0  0  0  0  0  0  0  0
  151.5353  135.9624  156.4220 H   0  0  0  0  0  0  0  0  0  0  0  0
  152.3751  137.1659  155.4304 H   0  0  0  0  0  0  0  0  0  0  0  0
  146.3457  130.9490  152.7549 H   0  0  0  0  0  0  0  0  0  0  0  0
  1  2  2  0  0  0  0
  2  3  1  0  0  0  0
  2 15  1  0  0  0  0
  3  4  1  0  0  0  0
  3 23  1  0  0  0  0
  4  9  1  0  0  0  0
  4  5  2  0  0  0  0
  5  6  1  0  0  0  0
  5 24  1  0  0  0  0
  6  7  2  0  0  0  0
  6 25  1  0  0  0  0
  7  8  1  0  0  0  0
  7 26  1  0  0  0  0
  8  9  2  0  0  0  0
  8 43  1  0  0  0  0
  9 10  1  0  0  0  0
 10 14  1  0  0  0  0
 10 11  1  0  0  0  0
 11 12  1  0  0  0  0
 11 27  1  0  0  0  0
 11 28  1  0  0  0  0
 12 13  1  0  0  0  0
 12 29  1  0  0  0  0
 12 30  1  0  0  0  0
 13 14  1  0  0  0  0
 13 31  1  0  0  0  0
 13 32  1  0  0  0  0
 14 33  1  0  0  0  0
 14 34  1  0  0  0  0
 15 16  1  0  0  0  0
 15 35  1  0  0  0  0
 16 22  1  0  0  0  0
 16 17  1  0  0  0  0
 16 36  1  0  0  0  0
 17 18  1  0  0  0  0
 17 37  1  0  0  0  0
 17 38  1  0  0  0  0
 18 19  1  0  0  0  0
 18 39  1  0  0  0  0
 18 40  1  0  0  0  0
 19 20  2  0  0  0  0
 19 21  2  0  0  0  0
 19 22  1  0  0  0  0
 22 41  1  0  0  0  0
 22 42  1  0  0  0  0
M  CHG  1   8   1
M  END
> <s_m_source_file>
AV-unprocessed.smi

> <i_m_source_file_index>
2047

> <i_lp_mmshare_version>
43012

> <i_f3d_flags>
0

> <s_epik_input>
Tz1TMSg9TylbQ0gyXVtDSDJdW0NASF0oW0NIMl0xKVtOSF1DKD1PKVtOSF1jMltjSF1bY0hdW2NIXW5jMk4zW0NIMl1bQ0gyXVtDSDJdW0NIMl0z

> <s_epik_cmdline>
J2VwaWtfcHl0aG9uJywgJy1waCcsICc3LjAnLCAnLXRuJywgJzgnLCAnLW1hJywgJzIwMCcsICctbWV0YWxfYmluZGluZycsICctaW1hZScsICc8aW5maWxlLm1hZT4nLCAnLW9tYWUnLCAnPG91dGZpbGUubWFlPic=

> <r_lp_tautomer_probability>
0.999994

> <r_epik_Ionization_Penalty>
1.20225

> <r_epik_Ionization_Penalty_Charging>
1.20223

> <r_epik_Ionization_Penalty_Neutral>
2.10783e-05

> <r_epik_State_Penalty>
1.26794

> <r_epik_Charging_Adjusted_Penalty>
2.47017

> <i_epik_Tot_Q>
1

> <i_epik_Tot_abs_Q>
1

> <r_epik_Metal_State_Penalty>
1.34322

> <b_epik_Metal_Only>
0

> <s_lp_Force_Field>
OPLS_2005

> <r_lp_Energy>
42.594

> <b_lp_Chiralities_Consistent>
1

> <s_lp_Variant>
AV-unprocessed.smi:2047-4

> <Gold.Version>
5.8.1

> <Gold.Id.Protein>
6NUR|6NUR_protein|mol2

> <Gold.PLP.Fitness>
37.7671

> <Gold.PLP.PLP>
-28.3085

> <Gold.PLP.part.hbond>
-4.6820

> <Gold.PLP.part.metal>
0.0000

> <Gold.PLP.part.buried>
-3.1073

> <Gold.PLP.part.nonpolar>
-21.4523

> <Gold.PLP.part.repulsive>
0.2014

> <Gold.PLP.ligand.clash>
0.0000

> <Gold.PLP.ligand.torsion>
0.3184

> <Gold.PLP.Chemscore.Hbond>
3.3581

> <Gold.PLP.Chemscore.CHOScore>
0.0000

> <Gold.PLP.Chemscore.Metal>
0.0000

> <Gold.Chemscore.Hbonds>
donor molecule, donor type, donor heavy atom, donor atom, acceptor molecule, acceptor atom, score
      L1  H     3    23       P1  7948  1.00
      L1  H    15    35       P1  7948  0.96
      P1  H  6896  6907       L1    21  0.19
      P1  H  7997  8008       L1    20  0.94

> <Gold.PLP.Chemscore.Internal.Correction>
0.0211

> <Gold.Rescore>
     Score         DG    S(hbond)    S(metal)    S(lipo)     H(rot)  DE(clash)    DE(int)     intcor
     15.02     -17.84       2.92        0.00      49.90       1.26       0.01       2.81       ----

> <Gold.Chemscore.Fitness>
15.0229

> <Gold.Chemscore.DG>
-17.8392

> <Gold.Chemscore.ZeroCoef>
-5.4800

> <Gold.Chemscore.Hbond>
2.9172

> <Gold.Chemscore.Metal>
0.0000

> <Gold.Chemscore.Lipo>
49.9036

> <Gold.Chemscore.Internal_Hbond>
0.0000

> <Gold.Chemscore.DEClash>
0.0060

> <Gold.Chemscore.DEInternal>
2.8103

> <Gold.Chemscore.Rot>
1.2590

> <Gold.Chemscore.Internal.Correction>
   9.000000E+99

> <Gold.Chemscore.Hbonds>
donor molecule, donor type, donor heavy atom, donor atom, acceptor molecule, acceptor atom, score
      L1  H     3    23       P1  7948  0.44
      L1  H    15    35       P1  7948  0.86
      P1  H  6896  6907       L1    21  0.19
      P1  H  7997  8008       L1    20  0.90

> <Gold.Chemscore.Hbond.Weighted>
-9.7436

> <Gold.Chemscore.Metal.Weighted>
-0.0000

> <Gold.Chemscore.Lipo.Weighted>
-5.8387

> <Gold.Chemscore.Internal_Hbond.Weighted>
0.0000

> <Gold.Chemscore.DEClash.Weighted>
0.0060

> <Gold.Chemscore.DEInternal.Weighted>
2.8103

> <Gold.Chemscore.Rot.Weighted>
3.2231

> <Gold.Chemscore.Internal.Correction.Weighted>
   9.000000E+99

> <Gold.Protein.RotatedTorsions>
[ 6907 6896 6895 6894 ] final    8.49 input  -60.11 | X-H torsion
[ 7974 7965 7964 7962 ] final  146.27 input  175.53 | X-H torsion
[ 8008 7997 7996 7995 ] final  -70.73 input   59.86 | X-H torsion
[ 10167 10162 10161 10158 ] final -124.58 input  -65.29 | X-H torsion
[ 10718 10713 10712 10709 ] final   41.62 input   66.30 | X-H torsion
[ 10763 10752 10751 10750 ] final -138.19 input  -60.55 | X-H torsion
[ 11005 11000 10999 10996 ] final  -77.63 input  -57.11 | X-H torsion

> <Gold.Protein.ActiveResidues>
 VAL166  LYS551  ARG553  GLY616  TRP617  ASP618  TYR619  PRO620  LYS621  CYS622 
 ASP623  PHE694  ASN695  SER759  ASP760  ASP761  ALA762  ILE779  LEU786  VAL792 
 PHE793  MET794  SER795  GLU796  ALA797  LYS798  CYS799  TRP800  GLU811  SER814 

> <Gold.Protein.RotatedAtoms>
  151.7069  135.0920  160.0260 H   0  0  0  0  0  0  0  0  0  0  0  0  # atno 6907 bound_to 6896
  152.3686  133.6384  159.6078 H   0  0  0  0  0  0  0  0  0  0  0  0  # atno 6908 bound_to 6896
  150.7656  133.9224  159.3443 H   0  0  0  0  0  0  0  0  0  0  0  0  # atno 6909 bound_to 6896
  144.8684  139.5885  143.5898 H   0  0  0  0  0  0  0  0  0  0  0  0  # atno 7974 bound_to 7965
  154.5034  140.0829  156.7844 H   0  0  0  0  0  0  0  0  0  0  0  0  # atno 8008 bound_to 7997
  155.3951  140.3434  155.4235 H   0  0  0  0  0  0  0  0  0  0  0  0  # atno 8009 bound_to 7997
  156.1485  140.1551  156.8796 H   0  0  0  0  0  0  0  0  0  0  0  0  # atno 8010 bound_to 7997
  139.9912  143.5639  152.2341 H   0  0  0  0  0  0  0  0  0  0  0  0  # atno 10167 bound_to 10162
  157.3956  130.7831  149.7306 H   0  0  0  0  0  0  0  0  0  0  0  0  # atno 10718 bound_to 10713
  154.8643  135.3619  154.5344 H   0  0  0  0  0  0  0  0  0  0  0  0  # atno 10763 bound_to 10752
  153.5969  135.7014  153.5405 H   0  0  0  0  0  0  0  0  0  0  0  0  # atno 10764 bound_to 10752
  153.3325  135.4120  155.1468 H   0  0  0  0  0  0  0  0  0  0  0  0  # atno 10765 bound_to 10752
  141.1661  133.7030  156.7850 H   0  0  0  0  0  0  0  0  0  0  0  0  # atno 11005 bound_to 11000
  146.2913  139.7147  142.9159 LP  0  0  0  0  0  0  0  0  0  0  0  0  # atno 17320 bound_to 7965
  145.4176  141.0403  143.2982 LP  0  0  0  0  0  0  0  0  0  0  0  0  # atno 17321 bound_to 7965
  139.6338  144.7647  151.2479 LP  0  0  0  0  0  0  0  0  0  0  0  0  # atno 17342 bound_to 10162
  140.7454  143.6433  150.8315 LP  0  0  0  0  0  0  0  0  0  0  0  0  # atno 17343 bound_to 10162
  155.9809  130.4024  150.3499 LP  0  0  0  0  0  0  0  0  0  0  0  0  # atno 17370 bound_to 10713
  157.1620  131.0347  151.2836 LP  0  0  0  0  0  0  0  0  0  0  0  0  # atno 17371 bound_to 10713
  140.2367  134.8645  157.3532 LP  0  0  0  0  0  0  0  0  0  0  0  0  # atno 17394 bound_to 11000
  140.1837  134.4458  155.7757 LP  0  0  0  0  0  0  0  0  0  0  0  0  # atno 17395 bound_to 11000

$$$$
