AV-unprocessed.smi:1272|AV-procd|sdf|5334|dock6
  -GOLD-   22720 4463D 1   1.00000     0.00000
 Structure written by MMmdl.
 45 47  0  0  0  0  0  0  0  0  1 V2000
  155.1893  140.6723  159.6603 C   0  0  0  0  0  0  0  0  0  0  0  0
  153.8120  140.8116  160.3210 C   0  0  0  0  0  0  0  0  0  0  0  0
  152.8788  141.5257  159.4532 N   0  0  0  0  0  0  0  0  0  0  0  0
  152.4105  141.1076  158.2538 C   0  0  0  0  0  0  0  0  0  0  0  0
  152.6951  140.0481  157.6951 O   0  0  0  0  0  0  0  0  0  0  0  0
  151.5853  142.0646  157.7677 N   0  0  0  0  0  0  0  0  0  0  0  0
  150.8665  142.0280  156.4950 C   0  0  0  0  0  0  0  0  0  0  0  0
  150.5053  140.5868  156.0834 C   0  0  2  0  0  0  0  0  0  0  0  0
  151.6232  140.0265  155.4241 O   0  0  0  0  0  0  0  0  0  0  0  0
  149.3293  140.5661  155.0854 C   0  0  0  0  0  0  0  0  0  0  0  0
  148.1613  141.3632  155.4661 N   0  0  0  0  0  0  0  0  0  0  0  0
  147.1830  141.4895  154.3869 C   0  0  0  0  0  0  0  0  0  0  0  0
  145.9511  142.3032  154.8214 C   0  0  0  0  0  0  0  0  0  0  0  0
  145.3634  141.7073  155.9729 O   0  0  0  0  0  0  0  0  0  0  0  0
  146.2728  141.6101  157.0637 C   0  0  0  0  0  0  0  0  0  0  0  0
  147.5021  140.7906  156.6353 C   0  0  0  0  0  0  0  0  0  0  0  0
  151.5442  143.1370  158.6703 C   0  0  0  0  0  0  0  0  0  0  0  0
  150.8640  144.3663  158.6180 C   0  0  0  0  0  0  0  0  0  0  0  0
  151.0443  145.2524  159.7059 C   0  0  0  0  0  0  0  0  0  0  0  0
  151.8809  144.9025  160.7975 C   0  0  0  0  0  0  0  0  0  0  0  0
  152.5557  143.6595  160.8238 C   0  0  0  0  0  0  0  0  0  0  0  0
  152.3582  142.7977  159.7308 C   0  0  0  0  0  0  0  0  0  0  0  0
  155.8852  140.1555  160.3212 H   0  0  0  0  0  0  0  0  0  0  0  0
  155.6152  141.6486  159.4266 H   0  0  0  0  0  0  0  0  0  0  0  0
  155.1258  140.1026  158.7327 H   0  0  0  0  0  0  0  0  0  0  0  0
  153.4153  139.8243  160.5619 H   0  0  0  0  0  0  0  0  0  0  0  0
  153.9045  141.3394  161.2703 H   0  0  0  0  0  0  0  0  0  0  0  0
  149.9529  142.6121  156.6173 H   0  0  0  0  0  0  0  0  0  0  0  0
  151.4310  142.5352  155.7115 H   0  0  0  0  0  0  0  0  0  0  0  0
  150.2689  139.9992  156.9697 H   0  0  0  0  0  0  0  0  0  0  0  0
  151.8418  139.2126  155.8524 H   0  0  0  0  0  0  0  0  0  0  0  0
  149.6826  140.9030  154.1096 H   0  0  0  0  0  0  0  0  0  0  0  0
  149.0253  139.5276  154.9448 H   0  0  0  0  0  0  0  0  0  0  0  0
  147.6280  141.9785  153.5218 H   0  0  0  0  0  0  0  0  0  0  0  0
  146.8638  140.4993  154.0580 H   0  0  0  0  0  0  0  0  0  0  0  0
  146.2284  143.3356  155.0396 H   0  0  0  0  0  0  0  0  0  0  0  0
  145.2137  142.3324  154.0192 H   0  0  0  0  0  0  0  0  0  0  0  0
  146.5680  142.6080  157.3915 H   0  0  0  0  0  0  0  0  0  0  0  0
  145.7714  141.1311  157.9047 H   0  0  0  0  0  0  0  0  0  0  0  0
  147.1941  139.7657  156.4216 H   0  0  0  0  0  0  0  0  0  0  0  0
  148.2048  140.7369  157.4674 H   0  0  0  0  0  0  0  0  0  0  0  0
  150.2332  144.6304  157.7822 H   0  0  0  0  0  0  0  0  0  0  0  0
  150.5410  146.2079  159.7040 H   0  0  0  0  0  0  0  0  0  0  0  0
  152.0059  145.5945  161.6172 H   0  0  0  0  0  0  0  0  0  0  0  0
  153.1977  143.3903  161.6494 H   0  0  0  0  0  0  0  0  0  0  0  0
  1  2  1  0  0  0  0
  1 23  1  0  0  0  0
  1 24  1  0  0  0  0
  1 25  1  0  0  0  0
  2  3  1  0  0  0  0
  2 26  1  0  0  0  0
  2 27  1  0  0  0  0
  3 22  1  0  0  0  0
  3  4  1  0  0  0  0
  4  5  2  0  0  0  0
  4  6  1  0  0  0  0
  6  7  1  0  0  0  0
  6 17  1  0  0  0  0
  7  8  1  0  0  0  0
  7 28  1  0  0  0  0
  7 29  1  0  0  0  0
  8  9  1  0  0  0  0
  8 10  1  0  0  0  0
  8 30  1  0  0  0  0
  9 31  1  0  0  0  0
 10 11  1  0  0  0  0
 10 32  1  0  0  0  0
 10 33  1  0  0  0  0
 11 16  1  0  0  0  0
 11 12  1  0  0  0  0
 12 13  1  0  0  0  0
 12 34  1  0  0  0  0
 12 35  1  0  0  0  0
 13 14  1  0  0  0  0
 13 36  1  0  0  0  0
 13 37  1  0  0  0  0
 14 15  1  0  0  0  0
 15 16  1  0  0  0  0
 15 38  1  0  0  0  0
 15 39  1  0  0  0  0
 16 40  1  0  0  0  0
 16 41  1  0  0  0  0
 17 22  2  0  0  0  0
 17 18  1  0  0  0  0
 18 19  2  0  0  0  0
 18 42  1  0  0  0  0
 19 20  1  0  0  0  0
 19 43  1  0  0  0  0
 20 21  2  0  0  0  0
 20 44  1  0  0  0  0
 21 22  1  0  0  0  0
 21 45  1  0  0  0  0
M  END
> <s_m_source_file>
AV-unprocessed.smi

> <i_m_source_file_index>
1272

> <i_lp_mmshare_version>
43012

> <i_f3d_flags>
0

> <s_epik_input>
W2NIXTFbY0hdW2NIXVtjSF1jKGMxMiluKFtDSDJdW0NIM10pYyg9TyluMltDSDJdW0NASF0oW09IXSlbQ0gyXU4zW0NIMl1bQ0gyXU9bQ0gyXVtDSDJdMw==

> <s_epik_cmdline>
J2VwaWtfcHl0aG9uJywgJy1waCcsICc3LjAnLCAnLXRuJywgJzgnLCAnLW1hJywgJzIwMCcsICctbWV0YWxfYmluZGluZycsICctaW1hZScsICc8aW5maWxlLm1hZT4nLCAnLW9tYWUnLCAnPG91dGZpbGUubWFlPic=

> <r_epik_Ionization_Penalty>
0.214359

> <r_epik_Ionization_Penalty_Charging>
2.31431e-09

> <r_epik_Ionization_Penalty_Neutral>
0.214359

> <r_epik_State_Penalty>
0.204533

> <r_epik_Charging_Adjusted_Penalty>
0.204533

> <i_epik_Tot_Q>
0

> <i_epik_Tot_abs_Q>
0

> <r_epik_Metal_State_Penalty>
0.204533

> <b_epik_Metal_Only>
0

> <s_lp_Force_Field>
OPLS_2005

> <r_lp_Energy>
61.4886

> <b_lp_Chiralities_Consistent>
1

> <s_lp_Variant>
AV-unprocessed.smi:1272-1

> <Gold.Version>
5.8.1

> <Gold.Id.Protein>
6NUR|6NUR_protein|mol2

> <Gold.PLP.Fitness>
55.0271

> <Gold.PLP.PLP>
-50.6800

> <Gold.PLP.part.hbond>
-2.0000

> <Gold.PLP.part.metal>
0.0000

> <Gold.PLP.part.buried>
-8.4499

> <Gold.PLP.part.nonpolar>
-41.3165

> <Gold.PLP.part.repulsive>
0.5214

> <Gold.PLP.ligand.clash>
0.0000

> <Gold.PLP.ligand.torsion>
0.7662

> <Gold.PLP.Chemscore.Hbond>
1.9280

> <Gold.PLP.Chemscore.CHOScore>
0.0000

> <Gold.PLP.Chemscore.Metal>
0.0000

> <Gold.Chemscore.Hbonds>
donor molecule, donor type, donor heavy atom, donor atom, acceptor molecule, acceptor atom, score
      P1  H  7989  7998       L1     9  0.82
      P1  H  7997  8010       L1     5  1.00

> <Gold.PLP.Chemscore.Internal.Correction>
0.0955

> <Gold.Rescore>
     Score         DG    S(hbond)    S(metal)    S(lipo)     H(rot)  DE(clash)    DE(int)     intcor
     17.02     -19.27       1.73        0.00     115.24       2.14       0.02       2.23       ----

> <Gold.Chemscore.Fitness>
17.0229

> <Gold.Chemscore.DG>
-19.2675

> <Gold.Chemscore.ZeroCoef>
-5.4800

> <Gold.Chemscore.Hbond>
1.7303

> <Gold.Chemscore.Metal>
0.0000

> <Gold.Chemscore.Lipo>
115.2399

> <Gold.Chemscore.Internal_Hbond>
0.0000

> <Gold.Chemscore.DEClash>
0.0160

> <Gold.Chemscore.DEInternal>
2.2286

> <Gold.Chemscore.Rot>
2.1386

> <Gold.Chemscore.Internal.Correction>
   9.000000E+99

> <Gold.Chemscore.Hbonds>
donor molecule, donor type, donor heavy atom, donor atom, acceptor molecule, acceptor atom, score
      P1  H  7989  7998       L1     9  0.42
      P1  H  7997  8010       L1     5  0.85

> <Gold.Chemscore.Hbond.Weighted>
-5.7793

> <Gold.Chemscore.Metal.Weighted>
-0.0000

> <Gold.Chemscore.Lipo.Weighted>
-13.4831

> <Gold.Chemscore.Internal_Hbond.Weighted>
0.0000

> <Gold.Chemscore.DEClash.Weighted>
0.0160

> <Gold.Chemscore.DEInternal.Weighted>
2.2286

> <Gold.Chemscore.Rot.Weighted>
5.4749

> <Gold.Chemscore.Internal.Correction.Weighted>
   9.000000E+99

> <Gold.Protein.RotatedTorsions>
[ 6907 6896 6895 6894 ] final  -55.76 input  -60.11 | X-H torsion
[ 7974 7965 7964 7962 ] final  -80.90 input  175.53 | X-H torsion
[ 8008 7997 7996 7995 ] final   52.72 input   59.86 | X-H torsion
[ 10167 10162 10161 10158 ] final   80.32 input  -65.29 | X-H torsion
[ 10718 10713 10712 10709 ] final   81.31 input   66.30 | X-H torsion
[ 10763 10752 10751 10750 ] final -160.32 input  -60.55 | X-H torsion
[ 11005 11000 10999 10996 ] final  159.20 input  -57.11 | X-H torsion

> <Gold.Protein.ActiveResidues>
 VAL166  LYS551  ARG553  GLY616  TRP617  ASP618  TYR619  PRO620  LYS621  CYS622 
 ASP623  PHE694  ASN695  SER759  ASP760  ASP761  ALA762  ILE779  LEU786  VAL792 
 PHE793  MET794  SER795  GLU796  ALA797  LYS798  CYS799  TRP800  GLU811  SER814 

> <Gold.Protein.RotatedAtoms>
  150.8224  134.7438  159.6783 H   0  0  0  0  0  0  0  0  0  0  0  0  # atno 6907 bound_to 6896
  152.4338  134.5723  159.9934 H   0  0  0  0  0  0  0  0  0  0  0  0  # atno 6908 bound_to 6896
  151.5903  133.3330  159.3062 H   0  0  0  0  0  0  0  0  0  0  0  0  # atno 6909 bound_to 6896
  145.5538  140.9492  143.1485 H   0  0  0  0  0  0  0  0  0  0  0  0  # atno 7974 bound_to 7965
  155.4564  140.3460  155.4307 H   0  0  0  0  0  0  0  0  0  0  0  0  # atno 8008 bound_to 7997
  156.1188  140.1481  156.9264 H   0  0  0  0  0  0  0  0  0  0  0  0  # atno 8009 bound_to 7997
  154.4808  140.0870  156.7352 H   0  0  0  0  0  0  0  0  0  0  0  0  # atno 8010 bound_to 7997
  139.9510  144.6026  150.8160 H   0  0  0  0  0  0  0  0  0  0  0  0  # atno 10167 bound_to 10162
  157.6829  130.9998  150.2208 H   0  0  0  0  0  0  0  0  0  0  0  0  # atno 10718 bound_to 10713
  154.7401  135.3066  154.8744 H   0  0  0  0  0  0  0  0  0  0  0  0  # atno 10763 bound_to 10752
  153.9561  135.6758  153.4748 H   0  0  0  0  0  0  0  0  0  0  0  0  # atno 10764 bound_to 10752
  153.1000  135.4916  154.8774 H   0  0  0  0  0  0  0  0  0  0  0  0  # atno 10765 bound_to 10752
  140.1939  134.8387  157.2942 H   0  0  0  0  0  0  0  0  0  0  0  0  # atno 11005 bound_to 11000
  144.7516  139.7179  143.7270 LP  0  0  0  0  0  0  0  0  0  0  0  0  # atno 17320 bound_to 7965
  146.1899  139.5133  142.9812 LP  0  0  0  0  0  0  0  0  0  0  0  0  # atno 17321 bound_to 7965
  140.7583  143.3103  151.2860 LP  0  0  0  0  0  0  0  0  0  0  0  0  # atno 17342 bound_to 10162
  139.6628  144.0158  152.2703 LP  0  0  0  0  0  0  0  0  0  0  0  0  # atno 17343 bound_to 10162
  156.2860  130.3739  149.7888 LP  0  0  0  0  0  0  0  0  0  0  0  0  # atno 17370 bound_to 10713
  156.5562  130.8363  151.3315 LP  0  0  0  0  0  0  0  0  0  0  0  0  # atno 17371 bound_to 10713
  140.2129  134.4116  155.7603 LP  0  0  0  0  0  0  0  0  0  0  0  0  # atno 17394 bound_to 11000
  141.2227  133.7127  156.8367 LP  0  0  0  0  0  0  0  0  0  0  0  0  # atno 17395 bound_to 11000

$$$$
