AV-unprocessed.smi:3287|AV-procd|sdf|12597|dock5
  -GOLD-   2272018523D 1   1.00000     0.00000
 Structure written by MMmdl.
 43 44  0  0  0  0  0  0  0  0  2 V2000
  151.8111  141.3881  157.1858 C   0  0  0  0  0  0  0  0  0  0  0  0
  151.0348  140.8595  155.9685 C   0  0  1  0  0  0  0  0  0  0  0  0
  151.3244  139.3688  155.7070 C   0  0  0  0  0  0  0  0  0  0  0  0
  150.6144  138.8678  154.4389 C   0  0  0  0  0  0  0  0  0  0  0  0
  149.0942  139.1263  154.4951 C   0  0  2  0  0  0  0  0  0  0  0  0
  148.4192  138.7157  153.2433 N   0  3  0  0  0  0  0  0  0  0  0  0
  146.9437  138.6309  153.3094 C   0  0  0  0  0  0  0  0  0  0  0  0
  146.3388  138.2805  151.9388 C   0  0  1  0  0  0  0  0  0  0  0  0
  147.3855  137.9576  151.0433 O   0  0  0  0  0  0  0  0  0  0  0  0
  145.3261  137.1518  152.0585 C   0  0  0  0  0  0  0  0  0  0  0  0
  144.1929  137.2686  152.8932 C   0  0  0  0  0  0  0  0  0  0  0  0
  143.2885  136.1898  152.9575 C   0  0  0  0  0  0  0  0  0  0  0  0
  143.4474  135.0472  152.2561 N   0  0  0  0  0  0  0  0  0  0  0  0
  144.5302  134.9419  151.4570 C   0  0  0  0  0  0  0  0  0  0  0  0
  145.4947  135.9607  151.3220 C   0  0  0  0  0  0  0  0  0  0  0  0
  148.8162  140.6191  154.7653 C   0  0  0  0  0  0  0  0  0  0  0  0
  149.5120  141.1384  156.0414 C   0  0  1  0  0  0  0  0  0  0  0  0
  148.8305  140.6076  157.3190 C   0  0  0  0  0  0  0  0  0  0  0  0
  151.5655  140.8369  158.0938 H   0  0  0  0  0  0  0  0  0  0  0  0
  151.5957  142.4420  157.3632 H   0  0  0  0  0  0  0  0  0  0  0  0
  152.8866  141.2958  157.0309 H   0  0  0  0  0  0  0  0  0  0  0  0
  151.4136  141.4107  155.1061 H   0  0  0  0  0  0  0  0  0  0  0  0
  152.3988  139.2134  155.6022 H   0  0  0  0  0  0  0  0  0  0  0  0
  151.0149  138.7695  156.5636 H   0  0  0  0  0  0  0  0  0  0  0  0
  151.0413  139.3636  153.5656 H   0  0  0  0  0  0  0  0  0  0  0  0
  150.8208  137.8040  154.3220 H   0  0  0  0  0  0  0  0  0  0  0  0
  148.6631  138.5426  155.3094 H   0  0  0  0  0  0  0  0  0  0  0  0
  148.6505  139.3979  152.5353 H   0  0  0  0  0  0  0  0  0  0  0  0
  146.6434  137.8885  154.0492 H   0  0  0  0  0  0  0  0  0  0  0  0
  146.5521  139.5929  153.6430 H   0  0  0  0  0  0  0  0  0  0  0  0
  145.8285  139.1569  151.5363 H   0  0  0  0  0  0  0  0  0  0  0  0
  147.7610  137.1307  151.3073 H   0  0  0  0  0  0  0  0  0  0  0  0
  144.0153  138.1622  153.4735 H   0  0  0  0  0  0  0  0  0  0  0  0
  142.4133  136.2474  153.5876 H   0  0  0  0  0  0  0  0  0  0  0  0
  144.6313  134.0181  150.9068 H   0  0  0  0  0  0  0  0  0  0  0  0
  146.3422  135.8251  150.6662 H   0  0  0  0  0  0  0  0  0  0  0  0
  149.1619  141.2072  153.9135 H   0  0  0  0  0  0  0  0  0  0  0  0
  147.7418  140.7946  154.8324 H   0  0  0  0  0  0  0  0  0  0  0  0
  149.3802  142.2213  156.0544 H   0  0  0  0  0  0  0  0  0  0  0  0
  148.9621  139.5330  157.4420 H   0  0  0  0  0  0  0  0  0  0  0  0
  147.7586  140.8065  157.2984 H   0  0  0  0  0  0  0  0  0  0  0  0
  149.2242  141.0930  158.2118 H   0  0  0  0  0  0  0  0  0  0  0  0
  148.7832  137.8196  152.9513 H   0  0  0  0  0  0  0  0  0  0  0  0
  1  2  1  0  0  0  0
  1 19  1  0  0  0  0
  1 20  1  0  0  0  0
  1 21  1  0  0  0  0
  2 17  1  0  0  0  0
  2  3  1  0  0  0  0
  2 22  1  0  0  0  0
  3  4  1  0  0  0  0
  3 23  1  0  0  0  0
  3 24  1  0  0  0  0
  4  5  1  0  0  0  0
  4 25  1  0  0  0  0
  4 26  1  0  0  0  0
  5  6  1  0  0  0  0
  5 16  1  0  0  0  0
  5 27  1  0  0  0  0
  6  7  1  0  0  0  0
  6 28  1  0  0  0  0
  6 43  1  0  0  0  0
  7  8  1  0  0  0  0
  7 29  1  0  0  0  0
  7 30  1  0  0  0  0
  8  9  1  0  0  0  0
  8 10  1  0  0  0  0
  8 31  1  0  0  0  0
  9 32  1  0  0  0  0
 10 15  1  0  0  0  0
 10 11  2  0  0  0  0
 11 12  1  0  0  0  0
 11 33  1  0  0  0  0
 12 13  2  0  0  0  0
 12 34  1  0  0  0  0
 13 14  1  0  0  0  0
 14 15  2  0  0  0  0
 14 35  1  0  0  0  0
 15 36  1  0  0  0  0
 16 17  1  0  0  0  0
 16 37  1  0  0  0  0
 16 38  1  0  0  0  0
 17 18  1  0  0  0  0
 17 39  1  0  0  0  0
 18 40  1  0  0  0  0
 18 41  1  0  0  0  0
 18 42  1  0  0  0  0
M  CHG  1   6   1
M  END
> <s_m_source_file>
AV-unprocessed.smi

> <i_m_source_file_index>
3287

> <i_lp_mmshare_version>
43012

> <i_f3d_flags>
0

> <s_epik_input>
W0NIM11bQ0BASF0xW0NIMl1bQ0gyXVtDQEhdKFtDSDJdW0NASF0xW0NIM10pW05IXVtDSDJdW0NASF0oW09IXSljMltjSF1bY0hdbltjSF1bY0hdMg==

> <s_epik_cmdline>
J2VwaWtfcHl0aG9uJywgJy1waCcsICc3LjAnLCAnLXRuJywgJzgnLCAnLW1hJywgJzIwMCcsICctbWV0YWxfYmluZGluZycsICctaW1hZScsICc8aW5maWxlLm1hZT4nLCAnLW9tYWUnLCAnPG91dGZpbGUubWFlPic=

> <r_lp_tautomer_probability>
1

> <r_epik_Ionization_Penalty>
0.00537262

> <r_epik_Ionization_Penalty_Charging>
0.00321624

> <r_epik_Ionization_Penalty_Neutral>
0.00215638

> <r_epik_State_Penalty>
-0

> <r_epik_Charging_Adjusted_Penalty>
0.00321624

> <i_epik_Tot_Q>
1

> <i_epik_Tot_abs_Q>
1

> <r_epik_Metal_State_Penalty>
-0

> <b_epik_Metal_Only>
0

> <s_lp_Force_Field>
OPLS_2005

> <r_lp_Energy>
18.2577

> <b_lp_Chiralities_Consistent>
1

> <s_lp_Variant>
AV-unprocessed.smi:3287-8

> <Gold.Version>
5.8.1

> <Gold.Id.Protein>
6NUR|6NUR_protein|mol2

> <Gold.PLP.Fitness>
46.1305

> <Gold.PLP.PLP>
-35.8432

> <Gold.PLP.part.hbond>
-4.4149

> <Gold.PLP.part.metal>
0.0000

> <Gold.PLP.part.buried>
-3.3105

> <Gold.PLP.part.nonpolar>
-28.6821

> <Gold.PLP.part.repulsive>
0.2216

> <Gold.PLP.ligand.clash>
0.0000

> <Gold.PLP.ligand.torsion>
0.7817

> <Gold.PLP.Chemscore.Hbond>
3.9440

> <Gold.PLP.Chemscore.CHOScore>
0.0000

> <Gold.PLP.Chemscore.Metal>
0.0000

> <Gold.Chemscore.Hbonds>
donor molecule, donor type, donor heavy atom, donor atom, acceptor molecule, acceptor atom, score
      L1  H     6    28       P1  7957  1.00
      L1  H     6    43       P1  7948  2.00
      L1  H     9    32       P1  7948  1.00
      P1  H  7954  7966       L1     9  0.23

> <Gold.PLP.Chemscore.Internal.Correction>
0.0187

> <Gold.Rescore>
     Score         DG    S(hbond)    S(metal)    S(lipo)     H(rot)  DE(clash)    DE(int)     intcor
     19.62     -20.60       2.87        0.00      88.85       1.90       0.20       0.77       ----

> <Gold.Chemscore.Fitness>
19.6211

> <Gold.Chemscore.DG>
-20.5988

> <Gold.Chemscore.ZeroCoef>
-5.4800

> <Gold.Chemscore.Hbond>
2.8731

> <Gold.Chemscore.Metal>
0.0000

> <Gold.Chemscore.Lipo>
88.8500

> <Gold.Chemscore.Internal_Hbond>
0.0000

> <Gold.Chemscore.DEClash>
0.2031

> <Gold.Chemscore.DEInternal>
0.7746

> <Gold.Chemscore.Rot>
1.9035

> <Gold.Chemscore.Internal.Correction>
   9.000000E+99

> <Gold.Chemscore.Hbonds>
donor molecule, donor type, donor heavy atom, donor atom, acceptor molecule, acceptor atom, score
      L1  H     6    28       P1  7957  0.98
      L1  H     6    43       P1  7948  0.99
      L1  H     9    32       P1  7948  0.92

> <Gold.Chemscore.Hbond.Weighted>
-9.5962

> <Gold.Chemscore.Metal.Weighted>
-0.0000

> <Gold.Chemscore.Lipo.Weighted>
-10.3955

> <Gold.Chemscore.Internal_Hbond.Weighted>
0.0000

> <Gold.Chemscore.DEClash.Weighted>
0.2031

> <Gold.Chemscore.DEInternal.Weighted>
0.7746

> <Gold.Chemscore.Rot.Weighted>
4.8729

> <Gold.Chemscore.Internal.Correction.Weighted>
   9.000000E+99

> <Gold.Protein.RotatedTorsions>
[ 6907 6896 6895 6894 ] final  167.22 input  -60.11 | X-H torsion
[ 7974 7965 7964 7962 ] final   69.96 input  175.53 | X-H torsion
[ 8008 7997 7996 7995 ] final   14.11 input   59.86 | X-H torsion
[ 10167 10162 10161 10158 ] final   60.60 input  -65.29 | X-H torsion
[ 10718 10713 10712 10709 ] final   54.83 input   66.30 | X-H torsion
[ 10763 10752 10751 10750 ] final -120.65 input  -60.55 | X-H torsion
[ 11005 11000 10999 10996 ] final  166.62 input  -57.11 | X-H torsion

> <Gold.Protein.ActiveResidues>
 VAL166  LYS551  ARG553  GLY616  TRP617  ASP618  TYR619  PRO620  LYS621  CYS622 
 ASP623  PHE694  ASN695  SER759  ASP760  ASP761  ALA762  ILE779  LEU786  VAL792 
 PHE793  MET794  SER795  GLU796  ALA797  LYS798  CYS799  TRP800  GLU811  SER814 

> <Gold.Protein.RotatedAtoms>
  151.8668  133.3467  159.3721 H   0  0  0  0  0  0  0  0  0  0  0  0  # atno 6907 bound_to 6896
  150.7164  134.5152  159.5636 H   0  0  0  0  0  0  0  0  0  0  0  0  # atno 6908 bound_to 6896
  152.2677  134.7967  160.0470 H   0  0  0  0  0  0  0  0  0  0  0  0  # atno 6909 bound_to 6896
  145.7841  139.2902  143.1248 H   0  0  0  0  0  0  0  0  0  0  0  0  # atno 7974 bound_to 7965
  154.8439  140.2919  155.5642 H   0  0  0  0  0  0  0  0  0  0  0  0  # atno 8008 bound_to 7997
  156.3013  140.2509  156.3317 H   0  0  0  0  0  0  0  0  0  0  0  0  # atno 8009 bound_to 7997
  154.9096  140.0389  157.1928 H   0  0  0  0  0  0  0  0  0  0  0  0  # atno 8010 bound_to 7997
  140.1638  144.4344  150.6695 H   0  0  0  0  0  0  0  0  0  0  0  0  # atno 10167 bound_to 10162
  157.5292  130.8618  149.8664 H   0  0  0  0  0  0  0  0  0  0  0  0  # atno 10718 bound_to 10713
  154.8649  135.4195  154.2494 H   0  0  0  0  0  0  0  0  0  0  0  0  # atno 10763 bound_to 10752
  153.3443  135.6995  153.6846 H   0  0  0  0  0  0  0  0  0  0  0  0  # atno 10764 bound_to 10752
  153.5812  135.3572  155.2848 H   0  0  0  0  0  0  0  0  0  0  0  0  # atno 10765 bound_to 10752
  140.2683  134.7847  157.3652 H   0  0  0  0  0  0  0  0  0  0  0  0  # atno 11005 bound_to 11000
  146.0044  140.8491  143.0002 LP  0  0  0  0  0  0  0  0  0  0  0  0  # atno 17320 bound_to 7965
  144.6792  140.2399  143.7345 LP  0  0  0  0  0  0  0  0  0  0  0  0  # atno 17321 bound_to 7965
  140.6626  143.2257  151.5820 LP  0  0  0  0  0  0  0  0  0  0  0  0  # atno 17342 bound_to 10162
  139.5369  144.2756  152.1270 LP  0  0  0  0  0  0  0  0  0  0  0  0  # atno 17343 bound_to 10162
  156.0409  130.3739  150.1437 LP  0  0  0  0  0  0  0  0  0  0  0  0  # atno 17370 bound_to 10713
  156.9622  130.9808  151.3476 LP  0  0  0  0  0  0  0  0  0  0  0  0  # atno 17371 bound_to 10713
  140.1398  134.4987  155.8040 LP  0  0  0  0  0  0  0  0  0  0  0  0  # atno 17394 bound_to 11000
  141.2181  133.6821  156.7189 LP  0  0  0  0  0  0  0  0  0  0  0  0  # atno 17395 bound_to 11000

$$$$
