AV-unprocessed.smi:2340|AV-procd|sdf|9346|dock10
  -GOLD-   2272012563D 1   1.00000     0.00000
 Structure written by MMmdl.
 40 41  0  0  0  0  0  0  0  0  1 V2000
  144.0511  131.9984  150.0143 C   0  0  0  0  0  0  0  0  0  0  0  0
  144.7853  132.8683  150.9851 C   0  0  0  0  0  0  0  0  0  0  0  0
  146.0558  132.6774  151.4682 C   0  0  0  0  0  0  0  0  0  0  0  0
  146.5241  133.9353  152.5782 S   0  0  0  0  0  0  0  0  0  0  0  0
  144.9491  134.6869  152.3439 C   0  0  0  0  0  0  0  0  0  0  0  0
  144.5460  135.9674  153.0107 C   0  0  2  0  0  0  0  0  0  0  0  0
  143.0212  136.1356  153.0708 C   0  0  0  0  0  0  0  0  0  0  0  0
  145.2673  137.2070  152.4342 C   0  0  0  0  0  0  0  0  0  0  0  0
  146.6643  137.2960  152.8501 N   0  0  0  0  0  0  0  0  0  0  0  0
  147.1214  138.0561  153.8537 C   0  0  0  0  0  0  0  0  0  0  0  0
  146.4214  138.8249  154.5131 O   0  0  0  0  0  0  0  0  0  0  0  0
  148.4275  137.8555  154.0709 N   0  0  0  0  0  0  0  0  0  0  0  0
  149.2054  138.4892  155.1338 C   0  0  1  0  0  0  0  0  0  0  0  0
  150.5996  137.8691  155.2526 C   0  0  0  0  0  0  0  0  0  0  0  0
  151.5457  139.0651  155.2173 C   0  0  0  0  0  0  0  0  0  0  0  0
  150.8437  140.0163  154.4369 O   0  0  0  0  0  0  0  0  0  0  0  0
  149.4892  139.9825  154.8612 C   0  0  1  0  0  0  0  0  0  0  0  0
  148.5911  140.6934  153.8358 C   0  0  0  0  0  0  0  0  0  0  0  0
  144.1690  134.0159  151.4908 N   0  0  0  0  0  0  0  0  0  0  0  0
  144.6371  131.1197  149.7435 H   0  0  0  0  0  0  0  0  0  0  0  0
  143.8244  132.5395  149.0955 H   0  0  0  0  0  0  0  0  0  0  0  0
  143.1079  131.6485  150.4345 H   0  0  0  0  0  0  0  0  0  0  0  0
  146.7430  131.8766  151.2386 H   0  0  0  0  0  0  0  0  0  0  0  0
  144.8722  135.8762  154.0475 H   0  0  0  0  0  0  0  0  0  0  0  0
  142.5527  135.2903  153.5756 H   0  0  0  0  0  0  0  0  0  0  0  0
  142.5909  136.2074  152.0715 H   0  0  0  0  0  0  0  0  0  0  0  0
  142.7477  137.0392  153.6159 H   0  0  0  0  0  0  0  0  0  0  0  0
  145.2618  137.1559  151.3450 H   0  0  0  0  0  0  0  0  0  0  0  0
  144.7360  138.1215  152.7022 H   0  0  0  0  0  0  0  0  0  0  0  0
  147.3198  136.6964  152.3706 H   0  0  0  0  0  0  0  0  0  0  0  0
  148.9162  137.2007  153.4781 H   0  0  0  0  0  0  0  0  0  0  0  0
  148.6624  138.4001  156.0764 H   0  0  0  0  0  0  0  0  0  0  0  0
  150.7190  137.2761  156.1598 H   0  0  0  0  0  0  0  0  0  0  0  0
  150.8123  137.2172  154.4034 H   0  0  0  0  0  0  0  0  0  0  0  0
  151.7073  139.4638  156.2200 H   0  0  0  0  0  0  0  0  0  0  0  0
  152.5157  138.8229  154.7827 H   0  0  0  0  0  0  0  0  0  0  0  0
  149.4321  140.5231  155.8078 H   0  0  0  0  0  0  0  0  0  0  0  0
  147.5427  140.6432  154.1304 H   0  0  0  0  0  0  0  0  0  0  0  0
  148.6868  140.2538  152.8427 H   0  0  0  0  0  0  0  0  0  0  0  0
  148.8612  141.7462  153.7529 H   0  0  0  0  0  0  0  0  0  0  0  0
  1  2  1  0  0  0  0
  1 20  1  0  0  0  0
  1 21  1  0  0  0  0
  1 22  1  0  0  0  0
  2 19  1  0  0  0  0
  2  3  2  0  0  0  0
  3  4  1  0  0  0  0
  3 23  1  0  0  0  0
  4  5  1  0  0  0  0
  5  6  1  0  0  0  0
  5 19  2  0  0  0  0
  6  7  1  0  0  0  0
  6  8  1  0  0  0  0
  6 24  1  0  0  0  0
  7 25  1  0  0  0  0
  7 26  1  0  0  0  0
  7 27  1  0  0  0  0
  8  9  1  0  0  0  0
  8 28  1  0  0  0  0
  8 29  1  0  0  0  0
  9 10  1  0  0  0  0
  9 30  1  0  0  0  0
 10 11  2  0  0  0  0
 10 12  1  0  0  0  0
 12 13  1  0  0  0  0
 12 31  1  0  0  0  0
 13 17  1  0  0  0  0
 13 14  1  0  0  0  0
 13 32  1  0  0  0  0
 14 15  1  0  0  0  0
 14 33  1  0  0  0  0
 14 34  1  0  0  0  0
 15 16  1  0  0  0  0
 15 35  1  0  0  0  0
 15 36  1  0  0  0  0
 16 17  1  0  0  0  0
 17 18  1  0  0  0  0
 17 37  1  0  0  0  0
 18 38  1  0  0  0  0
 18 39  1  0  0  0  0
 18 40  1  0  0  0  0
M  END
> <s_m_source_file>
AV-unprocessed.smi

> <i_m_source_file_index>
2340

> <i_lp_mmshare_version>
43012

> <i_f3d_flags>
0

> <s_epik_input>
W0NIM11jMVtjSF1zYyhuMSlbQ0BIXShbQ0gzXSlbQ0gyXVtOSF1DKD1PKVtOSF1bQ0BASF0yW0NIMl1bQ0gyXU9bQ0BIXTJbQ0gzXQ==

> <s_epik_cmdline>
J2VwaWtfcHl0aG9uJywgJy1waCcsICc3LjAnLCAnLXRuJywgJzgnLCAnLW1hJywgJzIwMCcsICctbWV0YWxfYmluZGluZycsICctaW1hZScsICc8aW5maWxlLm1hZT4nLCAnLW9tYWUnLCAnPG91dGZpbGUubWFlPic=

> <r_epik_Ionization_Penalty>
0.00156622

> <r_epik_Ionization_Penalty_Charging>
0

> <r_epik_Ionization_Penalty_Neutral>
0.00156622

> <r_epik_State_Penalty>
0.00101902

> <r_epik_Charging_Adjusted_Penalty>
0.00101902

> <i_epik_Tot_Q>
0

> <i_epik_Tot_abs_Q>
0

> <r_epik_Metal_State_Penalty>
-0

> <b_epik_Metal_Only>
0

> <s_lp_Force_Field>
OPLS_2005

> <r_lp_Energy>
5.02478

> <b_lp_Chiralities_Consistent>
1

> <s_lp_Variant>
AV-unprocessed.smi:2340-3

> <Gold.Version>
5.8.1

> <Gold.Id.Protein>
6NUR|6NUR_protein|mol2

> <Gold.PLP.Fitness>
41.5004

> <Gold.PLP.PLP>
-31.3267

> <Gold.PLP.part.hbond>
-2.9482

> <Gold.PLP.part.metal>
0.0000

> <Gold.PLP.part.buried>
-3.5937

> <Gold.PLP.part.nonpolar>
-25.5851

> <Gold.PLP.part.repulsive>
0.4043

> <Gold.PLP.ligand.clash>
0.0000

> <Gold.PLP.ligand.torsion>
0.8986

> <Gold.PLP.Chemscore.Hbond>
2.9673

> <Gold.PLP.Chemscore.CHOScore>
0.9836

> <Gold.PLP.Chemscore.Metal>
0.0000

> <Gold.Chemscore.Hbonds>
donor molecule, donor type, donor heavy atom, donor atom, acceptor molecule, acceptor atom, score
      L1  H     9    30       P1  7948  1.00
      L1  H    12    31       P1  7948  0.98
      P1  H  7989  7998       L1    16  0.91
      L1  C     3    23       P1 10747  0.73

> <Gold.PLP.Chemscore.Internal.Correction>
0.1181

> <Gold.Rescore>
     Score         DG    S(hbond)    S(metal)    S(lipo)     H(rot)  DE(clash)    DE(int)     intcor
     19.08     -20.26       2.92        0.00      76.43       1.53       0.05       1.13       ----

> <Gold.Chemscore.Fitness>
19.0791

> <Gold.Chemscore.DG>
-20.2601

> <Gold.Chemscore.ZeroCoef>
-5.4800

> <Gold.Chemscore.Hbond>
2.9225

> <Gold.Chemscore.Metal>
0.0000

> <Gold.Chemscore.Lipo>
76.4288

> <Gold.Chemscore.Internal_Hbond>
0.0000

> <Gold.Chemscore.DEClash>
0.0462

> <Gold.Chemscore.DEInternal>
1.1348

> <Gold.Chemscore.Rot>
1.5325

> <Gold.Chemscore.Internal.Correction>
   9.000000E+99

> <Gold.Chemscore.Hbonds>
donor molecule, donor type, donor heavy atom, donor atom, acceptor molecule, acceptor atom, score
      L1  H     9    30       P1  7948  0.98
      L1  H    12    31       P1  7948  0.93
      P1  H  7989  7998       L1    16  0.83

> <Gold.Chemscore.Hbond.Weighted>
-9.7613

> <Gold.Chemscore.Metal.Weighted>
-0.0000

> <Gold.Chemscore.Lipo.Weighted>
-8.9422

> <Gold.Chemscore.Internal_Hbond.Weighted>
0.0000

> <Gold.Chemscore.DEClash.Weighted>
0.0462

> <Gold.Chemscore.DEInternal.Weighted>
1.1348

> <Gold.Chemscore.Rot.Weighted>
3.9233

> <Gold.Chemscore.Internal.Correction.Weighted>
   9.000000E+99

> <Gold.Protein.RotatedTorsions>
[ 6907 6896 6895 6894 ] final   12.99 input  -60.11 | X-H torsion
[ 7974 7965 7964 7962 ] final  -89.04 input  175.53 | X-H torsion
[ 8008 7997 7996 7995 ] final -120.23 input   59.86 | X-H torsion
[ 10167 10162 10161 10158 ] final  -14.18 input  -65.29 | X-H torsion
[ 10718 10713 10712 10709 ] final  -21.73 input   66.30 | X-H torsion
[ 10763 10752 10751 10750 ] final   70.46 input  -60.55 | X-H torsion
[ 11005 11000 10999 10996 ] final  -65.17 input  -57.11 | X-H torsion

> <Gold.Protein.ActiveResidues>
 VAL166  LYS551  ARG553  GLY616  TRP617  ASP618  TYR619  PRO620  LYS621  CYS622 
 ASP623  PHE694  ASN695  SER759  ASP760  ASP761  ALA762  ILE779  LEU786  VAL792 
 PHE793  MET794  SER795  GLU796  ALA797  LYS798  CYS799  TRP800  GLU811  SER814 

> <Gold.Protein.RotatedAtoms>
  151.7792  135.0766  160.0371 H   0  0  0  0  0  0  0  0  0  0  0  0  # atno 6907 bound_to 6896
  152.3235  133.5875  159.5769 H   0  0  0  0  0  0  0  0  0  0  0  0  # atno 6908 bound_to 6896
  150.7382  133.9892  159.3643 H   0  0  0  0  0  0  0  0  0  0  0  0  # atno 6909 bound_to 6896
  145.4451  140.9560  143.2053 H   0  0  0  0  0  0  0  0  0  0  0  0  # atno 7974 bound_to 7965
  155.1284  140.0400  157.2768 H   0  0  0  0  0  0  0  0  0  0  0  0  # atno 8008 bound_to 7997
  154.6561  140.2580  155.7134 H   0  0  0  0  0  0  0  0  0  0  0  0  # atno 8009 bound_to 7997
  156.2599  140.2826  156.1014 H   0  0  0  0  0  0  0  0  0  0  0  0  # atno 8010 bound_to 7997
  140.7196  143.5348  150.9477 H   0  0  0  0  0  0  0  0  0  0  0  0  # atno 10167 bound_to 10162
  156.5142  130.4617  149.6632 H   0  0  0  0  0  0  0  0  0  0  0  0  # atno 10718 bound_to 10713
  153.0343  135.5173  154.7445 H   0  0  0  0  0  0  0  0  0  0  0  0  # atno 10763 bound_to 10752
  154.6434  135.2915  155.0078 H   0  0  0  0  0  0  0  0  0  0  0  0  # atno 10764 bound_to 10752
  154.0988  135.6639  153.4917 H   0  0  0  0  0  0  0  0  0  0  0  0  # atno 10765 bound_to 10752
  141.1446  133.6677  156.5944 H   0  0  0  0  0  0  0  0  0  0  0  0  # atno 11005 bound_to 11000
  144.8097  139.5985  143.7035 LP  0  0  0  0  0  0  0  0  0  0  0  0  # atno 17320 bound_to 7965
  146.2535  139.6251  142.9411 LP  0  0  0  0  0  0  0  0  0  0  0  0  # atno 17321 bound_to 7965
  139.9069  143.6767  152.3122 LP  0  0  0  0  0  0  0  0  0  0  0  0  # atno 17342 bound_to 10162
  139.7136  144.7616  151.1070 LP  0  0  0  0  0  0  0  0  0  0  0  0  # atno 17343 bound_to 10162
  156.3211  130.7281  151.2193 LP  0  0  0  0  0  0  0  0  0  0  0  0  # atno 17370 bound_to 10713
  157.7446  131.0455  150.4847 LP  0  0  0  0  0  0  0  0  0  0  0  0  # atno 17371 bound_to 10713
  140.3737  134.7583  157.4616 LP  0  0  0  0  0  0  0  0  0  0  0  0  # atno 17394 bound_to 11000
  140.0691  134.5888  155.8662 LP  0  0  0  0  0  0  0  0  0  0  0  0  # atno 17395 bound_to 11000

$$$$
