AV-unprocessed.smi:3158|AV-procd|sdf|12045|dock6
  -GOLD-   2272017473D 1   1.00000     0.00000
 Structure written by MMmdl.
 39 39  0  0  0  0  0  0  0  0  1 V2000
  151.8734  145.1452  160.4280 C   0  0  0  0  0  0  0  0  0  0  0  0
  151.2731  145.1788  159.0150 C   0  0  0  0  0  0  0  0  0  0  0  0
  151.8841  144.1395  158.0566 C   0  0  2  0  0  0  0  0  0  0  0  0
  152.8206  144.7993  157.0318 C   0  0  0  0  0  0  0  0  0  0  0  0
  150.8264  143.4080  157.3640 N   0  0  0  0  0  0  0  0  0  0  0  0
  150.6645  142.0755  157.3719 C   0  0  0  0  0  0  0  0  0  0  0  0
  151.4078  141.3067  157.9824 O   0  0  0  0  0  0  0  0  0  0  0  0
  149.5050  141.5223  156.5261 C   0  0  2  0  0  0  0  0  0  0  0  0
  149.8110  141.6555  155.0256 C   0  0  0  0  0  0  0  0  0  0  0  0
  148.2099  142.1587  156.8277 N   0  0  0  0  0  0  0  0  0  0  0  0
  147.7339  141.9409  158.1894 C   0  0  0  0  0  0  0  0  0  0  0  0
  146.4442  142.7423  158.4137 C   0  0  0  0  0  0  0  0  0  0  0  0
  146.4480  143.4015  159.7049 N   0  0  0  0  0  0  0  0  0  0  0  0
  146.3842  144.7514  159.9779 C   0  0  0  0  0  0  0  0  0  0  0  0
  146.4264  144.8933  161.3354 C   0  0  0  0  0  0  0  0  0  0  0  0
  146.5191  143.5560  161.8123 C   0  0  0  0  0  0  0  0  0  0  0  0
  146.5329  142.6652  160.8337 N   0  0  0  0  0  0  0  0  0  0  0  0
  151.4401  145.9285  161.0501 H   0  0  0  0  0  0  0  0  0  0  0  0
  152.9519  145.3025  160.4008 H   0  0  0  0  0  0  0  0  0  0  0  0
  151.6858  144.1916  160.9219 H   0  0  0  0  0  0  0  0  0  0  0  0
  150.1939  145.0333  159.0788 H   0  0  0  0  0  0  0  0  0  0  0  0
  151.4194  146.1767  158.6002 H   0  0  0  0  0  0  0  0  0  0  0  0
  152.4710  143.4393  158.6543 H   0  0  0  0  0  0  0  0  0  0  0  0
  153.6306  145.3338  157.5286 H   0  0  0  0  0  0  0  0  0  0  0  0
  152.2845  145.5138  156.4063 H   0  0  0  0  0  0  0  0  0  0  0  0
  153.2745  144.0571  156.3742 H   0  0  0  0  0  0  0  0  0  0  0  0
  150.1727  143.9579  156.8254 H   0  0  0  0  0  0  0  0  0  0  0  0
  149.4093  140.4564  156.7418 H   0  0  0  0  0  0  0  0  0  0  0  0
  150.7564  141.1755  154.7692 H   0  0  0  0  0  0  0  0  0  0  0  0
  149.8728  142.7001  154.7174 H   0  0  0  0  0  0  0  0  0  0  0  0
  149.0333  141.1811  154.4262 H   0  0  0  0  0  0  0  0  0  0  0  0
  148.2267  143.1480  156.6239 H   0  0  0  0  0  0  0  0  0  0  0  0
  147.5464  140.8780  158.3482 H   0  0  0  0  0  0  0  0  0  0  0  0
  148.4843  142.2554  158.9157 H   0  0  0  0  0  0  0  0  0  0  0  0
  146.3262  143.5019  157.6395 H   0  0  0  0  0  0  0  0  0  0  0  0
  145.5702  142.0911  158.3556 H   0  0  0  0  0  0  0  0  0  0  0  0
  146.3160  145.4899  159.1927 H   0  0  0  0  0  0  0  0  0  0  0  0
  146.3966  145.8121  161.9017 H   0  0  0  0  0  0  0  0  0  0  0  0
  146.5769  143.2080  162.8332 H   0  0  0  0  0  0  0  0  0  0  0  0
  1  2  1  0  0  0  0
  1 18  1  0  0  0  0
  1 19  1  0  0  0  0
  1 20  1  0  0  0  0
  2  3  1  0  0  0  0
  2 21  1  0  0  0  0
  2 22  1  0  0  0  0
  3  4  1  0  0  0  0
  3  5  1  0  0  0  0
  3 23  1  0  0  0  0
  4 24  1  0  0  0  0
  4 25  1  0  0  0  0
  4 26  1  0  0  0  0
  5  6  1  0  0  0  0
  5 27  1  0  0  0  0
  6  7  2  0  0  0  0
  6  8  1  0  0  0  0
  8  9  1  0  0  0  0
  8 10  1  0  0  0  0
  8 28  1  0  0  0  0
  9 29  1  0  0  0  0
  9 30  1  0  0  0  0
  9 31  1  0  0  0  0
 10 11  1  0  0  0  0
 10 32  1  0  0  0  0
 11 12  1  0  0  0  0
 11 33  1  0  0  0  0
 11 34  1  0  0  0  0
 12 13  1  0  0  0  0
 12 35  1  0  0  0  0
 12 36  1  0  0  0  0
 13 17  1  0  0  0  0
 13 14  1  0  0  0  0
 14 15  2  0  0  0  0
 14 37  1  0  0  0  0
 15 16  1  0  0  0  0
 15 38  1  0  0  0  0
 16 17  2  0  0  0  0
 16 39  1  0  0  0  0
M  END
> <s_m_source_file>
AV-unprocessed.smi

> <i_m_source_file_index>
3158

> <i_lp_mmshare_version>
43012

> <i_f3d_flags>
0

> <s_epik_input>
W0NIM11bQ0gyXVtDQEhdKFtDSDNdKVtOSF1DKD1PKVtDQEhdKFtDSDNdKVtOSF1bQ0gyXVtDSDJdbjFbY0hdW2NIXVtjSF1uMQ==

> <s_epik_cmdline>
J2VwaWtfcHl0aG9uJywgJy1waCcsICc3LjAnLCAnLXRuJywgJzgnLCAnLW1hJywgJzIwMCcsICctbWV0YWxfYmluZGluZycsICctaW1hZScsICc8aW5maWxlLm1hZT4nLCAnLW9tYWUnLCAnPG91dGZpbGUubWFlPic=

> <r_lp_tautomer_probability>
1

> <r_epik_Ionization_Penalty>
0.724013

> <r_epik_Ionization_Penalty_Charging>
0

> <r_epik_Ionization_Penalty_Neutral>
0.724013

> <r_epik_State_Penalty>
0.74758

> <r_epik_Charging_Adjusted_Penalty>
0.74758

> <i_epik_Tot_Q>
0

> <i_epik_Tot_abs_Q>
0

> <r_epik_Metal_State_Penalty>
0.746846

> <b_epik_Metal_Only>
0

> <s_lp_Force_Field>
OPLS_2005

> <r_lp_Energy>
5.18205

> <b_lp_Chiralities_Consistent>
1

> <s_lp_Variant>
AV-unprocessed.smi:3158-5

> <Gold.Version>
5.8.1

> <Gold.Id.Protein>
6NUR|6NUR_protein|mol2

> <Gold.PLP.Fitness>
44.6796

> <Gold.PLP.PLP>
-34.2633

> <Gold.PLP.part.hbond>
-4.0000

> <Gold.PLP.part.metal>
0.0000

> <Gold.PLP.part.buried>
-5.0344

> <Gold.PLP.part.nonpolar>
-24.9679

> <Gold.PLP.part.repulsive>
0.0099

> <Gold.PLP.ligand.clash>
0.0000

> <Gold.PLP.ligand.torsion>
1.2145

> <Gold.PLP.Chemscore.Hbond>
3.1984

> <Gold.PLP.Chemscore.CHOScore>
0.9982

> <Gold.PLP.Chemscore.Metal>
0.0000

> <Gold.Chemscore.Hbonds>
donor molecule, donor type, donor heavy atom, donor atom, acceptor molecule, acceptor atom, score
      L1  H     5    27       P1  8028  1.00
      L1  H    10    32       P1  8028  1.00
      P1  H  6933  6944       L1    17  0.14
      P1  H  6934  6946       L1    17  0.96
      L1  C    14    37       P1  8029  1.00

> <Gold.PLP.Chemscore.Internal.Correction>
0.2555

> <Gold.Rescore>
     Score         DG    S(hbond)    S(metal)    S(lipo)     H(rot)  DE(clash)    DE(int)     intcor
     15.83     -19.09       2.69        0.00      85.93       2.12       1.99       1.27       ----

> <Gold.Chemscore.Fitness>
15.8261

> <Gold.Chemscore.DG>
-19.0856

> <Gold.Chemscore.ZeroCoef>
-5.4800

> <Gold.Chemscore.Hbond>
2.6909

> <Gold.Chemscore.Metal>
0.0000

> <Gold.Chemscore.Lipo>
85.9290

> <Gold.Chemscore.Internal_Hbond>
0.0000

> <Gold.Chemscore.DEClash>
1.9933

> <Gold.Chemscore.DEInternal>
1.2661

> <Gold.Chemscore.Rot>
2.1234

> <Gold.Chemscore.Internal.Correction>
   9.000000E+99

> <Gold.Chemscore.Hbonds>
donor molecule, donor type, donor heavy atom, donor atom, acceptor molecule, acceptor atom, score
      L1  H     5    27       P1  8028  0.99
      L1  H    10    32       P1  8028  0.34
      P1  H  6934  6946       L1    17  0.90

> <Gold.Chemscore.Hbond.Weighted>
-8.9878

> <Gold.Chemscore.Metal.Weighted>
-0.0000

> <Gold.Chemscore.Lipo.Weighted>
-10.0537

> <Gold.Chemscore.Internal_Hbond.Weighted>
0.0000

> <Gold.Chemscore.DEClash.Weighted>
1.9933

> <Gold.Chemscore.DEInternal.Weighted>
1.2661

> <Gold.Chemscore.Rot.Weighted>
5.4359

> <Gold.Chemscore.Internal.Correction.Weighted>
   9.000000E+99

> <Gold.Protein.RotatedTorsions>
[ 6907 6896 6895 6894 ] final  123.13 input  -60.11 | X-H torsion
[ 7974 7965 7964 7962 ] final   21.69 input  175.53 | X-H torsion
[ 8008 7997 7996 7995 ] final   35.02 input   59.86 | X-H torsion
[ 10167 10162 10161 10158 ] final  -37.68 input  -65.29 | X-H torsion
[ 10718 10713 10712 10709 ] final  126.06 input   66.30 | X-H torsion
[ 10763 10752 10751 10750 ] final  -24.25 input  -60.55 | X-H torsion
[ 11005 11000 10999 10996 ] final -172.43 input  -57.11 | X-H torsion

> <Gold.Protein.ActiveResidues>
 VAL166  LYS551  ARG553  GLY616  TRP617  ASP618  TYR619  PRO620  LYS621  CYS622 
 ASP623  PHE694  ASN695  SER759  ASP760  ASP761  ALA762  ILE779  LEU786  VAL792 
 PHE793  MET794  SER795  GLU796  ALA797  LYS798  CYS799  TRP800  GLU811  SER814 

> <Gold.Protein.RotatedAtoms>
  152.4187  133.7081  159.6462 H   0  0  0  0  0  0  0  0  0  0  0  0  # atno 6907 bound_to 6896
  150.8063  133.8492  159.3209 H   0  0  0  0  0  0  0  0  0  0  0  0  # atno 6908 bound_to 6896
  151.6215  135.1033  160.0154 H   0  0  0  0  0  0  0  0  0  0  0  0  # atno 6909 bound_to 6896
  146.2061  139.7992  142.8725 H   0  0  0  0  0  0  0  0  0  0  0  0  # atno 7974 bound_to 7965
  155.1643  140.3286  155.4405 H   0  0  0  0  0  0  0  0  0  0  0  0  # atno 8008 bound_to 7997
  156.2532  140.1954  156.6700 H   0  0  0  0  0  0  0  0  0  0  0  0  # atno 8009 bound_to 7997
  154.6382  140.0573  156.9801 H   0  0  0  0  0  0  0  0  0  0  0  0  # atno 8010 bound_to 7997
  140.7112  143.3326  151.2534 H   0  0  0  0  0  0  0  0  0  0  0  0  # atno 10167 bound_to 10162
  157.5451  131.1096  150.8795 H   0  0  0  0  0  0  0  0  0  0  0  0  # atno 10718 bound_to 10713
  153.6809  135.6967  153.5118 H   0  0  0  0  0  0  0  0  0  0  0  0  # atno 10763 bound_to 10752
  153.2486  135.4282  155.0773 H   0  0  0  0  0  0  0  0  0  0  0  0  # atno 10764 bound_to 10752
  154.8400  135.3525  154.6352 H   0  0  0  0  0  0  0  0  0  0  0  0  # atno 10765 bound_to 10752
  140.4970  134.5930  157.4975 H   0  0  0  0  0  0  0  0  0  0  0  0  # atno 11005 bound_to 11000
  145.3315  141.0267  143.3444 LP  0  0  0  0  0  0  0  0  0  0  0  0  # atno 17320 bound_to 7965
  144.8796  139.4923  143.6729 LP  0  0  0  0  0  0  0  0  0  0  0  0  # atno 17321 bound_to 7965
  139.6813  143.9850  152.2810 LP  0  0  0  0  0  0  0  0  0  0  0  0  # atno 17342 bound_to 10162
  139.9481  144.6638  150.8199 LP  0  0  0  0  0  0  0  0  0  0  0  0  # atno 17343 bound_to 10162
  156.9337  130.5359  149.5279 LP  0  0  0  0  0  0  0  0  0  0  0  0  # atno 17370 bound_to 10713
  156.0529  130.5595  150.9028 LP  0  0  0  0  0  0  0  0  0  0  0  0  # atno 17371 bound_to 10713
  139.9735  134.7253  155.9994 LP  0  0  0  0  0  0  0  0  0  0  0  0  # atno 17394 bound_to 11000
  141.1455  133.6557  156.3854 LP  0  0  0  0  0  0  0  0  0  0  0  0  # atno 17395 bound_to 11000

$$$$
