AV-unprocessed.smi:3345|AV-procd|sdf|12905|dock4
  -GOLD-   2272019313D 1   1.00000     0.00000
 Structure written by MMmdl.
 41 42  0  0  0  0  0  0  0  0  2 V2000
  145.2971  137.8099  154.5640 C   0  0  0  0  0  0  0  0  0  0  0  0
  146.5392  137.1533  153.9466 C   0  0  2  0  0  0  0  0  0  0  0  0
  147.0424  135.9756  154.8135 C   0  0  0  0  0  0  0  0  0  0  0  0
  147.6853  134.9009  154.0158 N   0  3  0  0  0  0  0  0  0  0  0  0
  148.6017  134.0504  154.8101 C   0  0  0  0  0  0  0  0  0  0  0  0
  149.2943  133.0235  153.8976 C   0  0  0  0  0  0  0  0  0  0  0  0
  148.3140  132.2427  153.2246 O   0  0  0  0  0  0  0  0  0  0  0  0
  147.4712  133.0380  152.3991 C   0  0  0  0  0  0  0  0  0  0  0  0
  146.7197  134.0609  153.2669 C   0  0  0  0  0  0  0  0  0  0  0  0
  147.5778  138.1699  153.7731 N   0  0  0  0  0  0  0  0  0  0  0  0
  148.2745  138.7653  154.7553 C   0  0  0  0  0  0  0  0  0  0  0  0
  148.0883  138.5304  155.9496 O   0  0  0  0  0  0  0  0  0  0  0  0
  149.3337  139.7874  154.3174 C   0  0  1  0  0  0  0  0  0  0  0  0
  149.0229  141.2067  154.8340 C   0  0  0  0  0  0  0  0  0  0  0  0
  150.6617  139.3314  154.7081 N   0  0  0  0  0  0  0  0  0  0  0  0
  151.5818  139.9269  155.4705 C   0  0  0  0  0  0  0  0  0  0  0  0
  152.7126  139.2448  155.5827 N   0  0  0  0  0  0  0  0  0  0  0  0
  152.4073  138.1668  154.8012 C   0  0  0  0  0  0  0  0  0  0  0  0
  151.1969  138.1748  154.2431 N   0  0  0  0  0  0  0  0  0  0  0  0
  144.4913  137.0857  154.6877 H   0  0  0  0  0  0  0  0  0  0  0  0
  144.9209  138.6131  153.9293 H   0  0  0  0  0  0  0  0  0  0  0  0
  145.5156  138.2345  155.5445 H   0  0  0  0  0  0  0  0  0  0  0  0
  146.2409  136.7759  152.9675 H   0  0  0  0  0  0  0  0  0  0  0  0
  147.7644  136.3686  155.5311 H   0  0  0  0  0  0  0  0  0  0  0  0
  146.2278  135.5543  155.4047 H   0  0  0  0  0  0  0  0  0  0  0  0
  149.3550  134.6695  155.2990 H   0  0  0  0  0  0  0  0  0  0  0  0
  148.0419  133.5408  155.5962 H   0  0  0  0  0  0  0  0  0  0  0  0
  149.9405  133.5209  153.1721 H   0  0  0  0  0  0  0  0  0  0  0  0
  149.9284  132.3625  154.4886 H   0  0  0  0  0  0  0  0  0  0  0  0
  148.0607  133.5388  151.6292 H   0  0  0  0  0  0  0  0  0  0  0  0
  146.7625  132.3876  151.8863 H   0  0  0  0  0  0  0  0  0  0  0  0
  146.0613  133.5436  153.9666 H   0  0  0  0  0  0  0  0  0  0  0  0
  146.0869  134.6806  152.6322 H   0  0  0  0  0  0  0  0  0  0  0  0
  147.7995  138.4274  152.8218 H   0  0  0  0  0  0  0  0  0  0  0  0
  149.3215  139.8335  153.2270 H   0  0  0  0  0  0  0  0  0  0  0  0
  148.0472  141.5457  154.4843 H   0  0  0  0  0  0  0  0  0  0  0  0
  149.7637  141.9214  154.4745 H   0  0  0  0  0  0  0  0  0  0  0  0
  149.0177  141.2576  155.9236 H   0  0  0  0  0  0  0  0  0  0  0  0
  151.4225  140.8814  155.9507 H   0  0  0  0  0  0  0  0  0  0  0  0
  153.1001  137.3555  154.6330 H   0  0  0  0  0  0  0  0  0  0  0  0
  148.2610  135.3671  153.3285 H   0  0  0  0  0  0  0  0  0  0  0  0
  1  2  1  0  0  0  0
  1 20  1  0  0  0  0
  1 21  1  0  0  0  0
  1 22  1  0  0  0  0
  2  3  1  0  0  0  0
  2 10  1  0  0  0  0
  2 23  1  0  0  0  0
  3  4  1  0  0  0  0
  3 24  1  0  0  0  0
  3 25  1  0  0  0  0
  4  9  1  0  0  0  0
  4  5  1  0  0  0  0
  4 41  1  0  0  0  0
  5  6  1  0  0  0  0
  5 26  1  0  0  0  0
  5 27  1  0  0  0  0
  6  7  1  0  0  0  0
  6 28  1  0  0  0  0
  6 29  1  0  0  0  0
  7  8  1  0  0  0  0
  8  9  1  0  0  0  0
  8 30  1  0  0  0  0
  8 31  1  0  0  0  0
  9 32  1  0  0  0  0
  9 33  1  0  0  0  0
 10 11  1  0  0  0  0
 10 34  1  0  0  0  0
 11 12  2  0  0  0  0
 11 13  1  0  0  0  0
 13 14  1  0  0  0  0
 13 15  1  0  0  0  0
 13 35  1  0  0  0  0
 14 36  1  0  0  0  0
 14 37  1  0  0  0  0
 14 38  1  0  0  0  0
 15 19  1  0  0  0  0
 15 16  1  0  0  0  0
 16 17  2  0  0  0  0
 16 39  1  0  0  0  0
 17 18  1  0  0  0  0
 18 19  2  0  0  0  0
 18 40  1  0  0  0  0
M  CHG  1   4   1
M  END
> <s_m_source_file>
AV-unprocessed.smi

> <i_m_source_file_index>
3345

> <i_lp_mmshare_version>
43012

> <i_f3d_flags>
0

> <s_epik_input>
W0NIMl0xW0NIMl1PW0NIMl1bQ0gyXU4xW0NIMl1bQ0BASF0oW0NIM10pW05IXUMoPU8pW0NASF0oW0NIM10pbjJbY0hdbltjSF1uMg==

> <s_epik_cmdline>
J2VwaWtfcHl0aG9uJywgJy1waCcsICc3LjAnLCAnLXRuJywgJzgnLCAnLW1hJywgJzIwMCcsICctbWV0YWxfYmluZGluZycsICctaW1hZScsICc8aW5maWxlLm1hZT4nLCAnLW9tYWUnLCAnPG91dGZpbGUubWFlPic=

> <r_lp_tautomer_probability>
1

> <r_epik_Ionization_Penalty>
0.71326

> <r_epik_Ionization_Penalty_Charging>
0.713252

> <r_epik_Ionization_Penalty_Neutral>
8.27671e-06

> <r_epik_State_Penalty>
0.737017

> <r_epik_Charging_Adjusted_Penalty>
1.45027

> <i_epik_Tot_Q>
1

> <i_epik_Tot_abs_Q>
1

> <r_epik_Metal_State_Penalty>
0.73702

> <b_epik_Metal_Only>
0

> <s_lp_Force_Field>
OPLS_2005

> <r_lp_Energy>
28.0971

> <b_lp_Chiralities_Consistent>
1

> <s_lp_Variant>
AV-unprocessed.smi:3345-7

> <Gold.Version>
5.8.1

> <Gold.Id.Protein>
6NUR|6NUR_protein|mol2

> <Gold.PLP.Fitness>
36.4368

> <Gold.PLP.PLP>
-28.5887

> <Gold.PLP.part.hbond>
-3.0000

> <Gold.PLP.part.metal>
0.0000

> <Gold.PLP.part.buried>
-2.7524

> <Gold.PLP.part.nonpolar>
-23.7735

> <Gold.PLP.part.repulsive>
0.3122

> <Gold.PLP.ligand.clash>
0.0000

> <Gold.PLP.ligand.torsion>
0.6749

> <Gold.PLP.Chemscore.Hbond>
3.0000

> <Gold.PLP.Chemscore.CHOScore>
0.0000

> <Gold.PLP.Chemscore.Metal>
0.0000

> <Gold.Chemscore.Hbonds>
donor molecule, donor type, donor heavy atom, donor atom, acceptor molecule, acceptor atom, score
      L1  H     4    41       P1  7948  2.00
      P1  H  7997  8008       L1    17  1.00

> <Gold.PLP.Chemscore.Internal.Correction>
0.1978

> <Gold.Rescore>
     Score         DG    S(hbond)    S(metal)    S(lipo)     H(rot)  DE(clash)    DE(int)     intcor
      8.82      -9.99       1.98        0.00      39.16       2.61       0.00       1.17       ----

> <Gold.Chemscore.Fitness>
8.8183

> <Gold.Chemscore.DG>
-9.9883

> <Gold.Chemscore.ZeroCoef>
-5.4800

> <Gold.Chemscore.Hbond>
1.9815

> <Gold.Chemscore.Metal>
0.0000

> <Gold.Chemscore.Lipo>
39.1569

> <Gold.Chemscore.Internal_Hbond>
0.0000

> <Gold.Chemscore.DEClash>
0.0013

> <Gold.Chemscore.DEInternal>
1.1687

> <Gold.Chemscore.Rot>
2.6138

> <Gold.Chemscore.Internal.Correction>
   9.000000E+99

> <Gold.Chemscore.Hbonds>
donor molecule, donor type, donor heavy atom, donor atom, acceptor molecule, acceptor atom, score
      L1  H     4    41       P1  7948  1.00
      P1  H  7997  8008       L1    17  0.96

> <Gold.Chemscore.Hbond.Weighted>
-6.6182

> <Gold.Chemscore.Metal.Weighted>
-0.0000

> <Gold.Chemscore.Lipo.Weighted>
-4.5814

> <Gold.Chemscore.Internal_Hbond.Weighted>
0.0000

> <Gold.Chemscore.DEClash.Weighted>
0.0013

> <Gold.Chemscore.DEInternal.Weighted>
1.1687

> <Gold.Chemscore.Rot.Weighted>
6.6912

> <Gold.Chemscore.Internal.Correction.Weighted>
   9.000000E+99

> <Gold.Protein.RotatedTorsions>
[ 6907 6896 6895 6894 ] final   83.59 input  -60.11 | X-H torsion
[ 7974 7965 7964 7962 ] final  153.06 input  175.53 | X-H torsion
[ 8008 7997 7996 7995 ] final  -34.69 input   59.86 | X-H torsion
[ 10167 10162 10161 10158 ] final -105.40 input  -65.29 | X-H torsion
[ 10718 10713 10712 10709 ] final  -28.04 input   66.30 | X-H torsion
[ 10763 10752 10751 10750 ] final -174.43 input  -60.55 | X-H torsion
[ 11005 11000 10999 10996 ] final   30.52 input  -57.11 | X-H torsion

> <Gold.Protein.ActiveResidues>
 VAL166  LYS551  ARG553  GLY616  TRP617  ASP618  TYR619  PRO620  LYS621  CYS622 
 ASP623  PHE694  ASN695  SER759  ASP760  ASP761  ALA762  ILE779  LEU786  VAL792 
 PHE793  MET794  SER795  GLU796  ALA797  LYS798  CYS799  TRP800  GLU811  SER814 

> <Gold.Protein.RotatedAtoms>
  152.5331  134.2872  159.9029 H   0  0  0  0  0  0  0  0  0  0  0  0  # atno 6907 bound_to 6896
  151.2825  133.4196  159.2635 H   0  0  0  0  0  0  0  0  0  0  0  0  # atno 6908 bound_to 6896
  151.0271  134.9527  159.8148 H   0  0  0  0  0  0  0  0  0  0  0  0  # atno 6909 bound_to 6896
  144.8180  139.6751  143.6113 H   0  0  0  0  0  0  0  0  0  0  0  0  # atno 7974 bound_to 7965
  154.4114  140.1677  156.2091 H   0  0  0  0  0  0  0  0  0  0  0  0  # atno 8008 bound_to 7997
  155.9459  140.3404  155.6343 H   0  0  0  0  0  0  0  0  0  0  0  0  # atno 8009 bound_to 7997
  155.6931  140.0736  157.2431 H   0  0  0  0  0  0  0  0  0  0  0  0  # atno 8010 bound_to 7997
  140.1989  143.3834  152.1146 H   0  0  0  0  0  0  0  0  0  0  0  0  # atno 10167 bound_to 10162
  156.4303  130.4444  149.7122 H   0  0  0  0  0  0  0  0  0  0  0  0  # atno 10718 bound_to 10713
  154.5963  135.2850  155.0583 H   0  0  0  0  0  0  0  0  0  0  0  0  # atno 10763 bound_to 10752
  154.1864  135.6448  153.5052 H   0  0  0  0  0  0  0  0  0  0  0  0  # atno 10764 bound_to 10752
  153.0140  135.5436  154.6666 H   0  0  0  0  0  0  0  0  0  0  0  0  # atno 10765 bound_to 10752
  140.2935  134.2837  155.7770 H   0  0  0  0  0  0  0  0  0  0  0  0  # atno 11005 bound_to 11000
  146.2484  139.6147  142.9444 LP  0  0  0  0  0  0  0  0  0  0  0  0  # atno 17320 bound_to 7965
  145.5170  141.0433  143.2456 LP  0  0  0  0  0  0  0  0  0  0  0  0  # atno 17321 bound_to 7965
  139.5225  144.7060  151.5353 LP  0  0  0  0  0  0  0  0  0  0  0  0  # atno 17342 bound_to 10162
  140.6404  143.8900  150.6686 LP  0  0  0  0  0  0  0  0  0  0  0  0  # atno 17343 bound_to 10162
  156.4027  130.7683  151.2691 LP  0  0  0  0  0  0  0  0  0  0  0  0  # atno 17370 bound_to 10713
  157.7508  131.0235  150.3836 LP  0  0  0  0  0  0  0  0  0  0  0  0  # atno 17371 bound_to 10713
  141.2142  133.7600  156.9661 LP  0  0  0  0  0  0  0  0  0  0  0  0  # atno 17394 bound_to 11000
  140.1173  134.9439  157.2153 LP  0  0  0  0  0  0  0  0  0  0  0  0  # atno 17395 bound_to 11000

$$$$
