AV-unprocessed.smi:2510|AV-procd|sdf|9882|dock8
  -GOLD-   2272013513D 1   1.00000     0.00000
 Structure written by MMmdl.
 48 49  0  0  0  0  0  0  0  0  1 V2000
  148.6001  140.9630  154.2200 C   0  0  0  0  0  0  0  0  0  0  0  0
  149.6347  139.8514  153.9680 C   0  0  0  0  0  0  0  0  0  0  0  0
  149.7014  138.6925  155.0030 C   0  0  0  0  0  0  0  0  0  0  0  0
  150.0155  139.3458  156.3713 C   0  0  0  0  0  0  0  0  0  0  0  0
  151.0856  140.4514  156.3331 C   0  0  0  0  0  0  0  0  0  0  0  0
  148.5226  137.6744  155.0577 C   0  0  1  0  0  0  0  0  0  0  0  0
  147.8168  137.5133  153.7884 N   0  0  0  0  0  0  0  0  0  0  0  0
  146.5667  137.9285  153.5323 C   0  0  0  0  0  0  0  0  0  0  0  0
  145.8754  138.5314  154.3525 O   0  0  0  0  0  0  0  0  0  0  0  0
  146.0130  137.6426  152.1317 C   0  0  0  0  0  0  0  0  0  0  0  0
  145.6904  136.1927  151.9350 C   0  0  0  0  0  0  0  0  0  0  0  0
  144.5054  135.5531  151.6993 C   0  0  0  0  0  0  0  0  0  0  0  0
  144.8551  134.1723  151.6395 C   0  0  0  0  0  0  0  0  0  0  0  0
  143.9511  132.9968  151.4119 C   0  0  0  0  0  0  0  0  0  0  0  0
  146.1523  133.9712  151.8174 N   0  0  0  0  0  0  0  0  0  0  0  0
  146.6514  135.2084  151.9934 N   0  0  0  0  0  0  0  0  0  0  0  0
  149.5305  136.5342  155.2921 C   0  0  1  0  0  0  0  0  0  0  0  0
  149.2763  135.1457  154.7064 C   0  0  0  0  0  0  0  0  0  0  0  0
  150.5803  137.4568  154.6544 C   0  0  2  0  0  0  0  0  0  0  0  0
  151.8416  137.4806  155.3068 O   0  0  0  0  0  0  0  0  0  0  0  0
  152.7211  138.4633  154.7890 C   0  0  0  0  0  0  0  0  0  0  0  0
  147.6369  135.3640  152.1530 H   0  0  0  0  0  0  0  0  0  0  0  0
  148.6816  141.7352  153.4549 H   0  0  0  0  0  0  0  0  0  0  0  0
  148.7358  141.4508  155.1842 H   0  0  0  0  0  0  0  0  0  0  0  0
  147.5823  140.5749  154.1749 H   0  0  0  0  0  0  0  0  0  0  0  0
  149.4215  139.4600  152.9727 H   0  0  0  0  0  0  0  0  0  0  0  0
  150.6175  140.3157  153.8817 H   0  0  0  0  0  0  0  0  0  0  0  0
  149.1119  139.7801  156.7997 H   0  0  0  0  0  0  0  0  0  0  0  0
  150.3233  138.5848  157.0895 H   0  0  0  0  0  0  0  0  0  0  0  0
  151.2182  140.8870  157.3237 H   0  0  0  0  0  0  0  0  0  0  0  0
  150.8100  141.2600  155.6570 H   0  0  0  0  0  0  0  0  0  0  0  0
  152.0557  140.0685  156.0174 H   0  0  0  0  0  0  0  0  0  0  0  0
  147.8572  137.8034  155.9123 H   0  0  0  0  0  0  0  0  0  0  0  0
  148.3122  137.0300  153.0530 H   0  0  0  0  0  0  0  0  0  0  0  0
  145.1167  138.2427  151.9697 H   0  0  0  0  0  0  0  0  0  0  0  0
  146.7467  137.9715  151.3947 H   0  0  0  0  0  0  0  0  0  0  0  0
  143.5297  136.0044  151.5951 H   0  0  0  0  0  0  0  0  0  0  0  0
  142.9067  133.3060  151.3674 H   0  0  0  0  0  0  0  0  0  0  0  0
  144.0460  132.2659  152.2154 H   0  0  0  0  0  0  0  0  0  0  0  0
  144.1888  132.4953  150.4735 H   0  0  0  0  0  0  0  0  0  0  0  0
  149.7184  136.4570  156.3642 H   0  0  0  0  0  0  0  0  0  0  0  0
  149.2634  135.1614  153.6161 H   0  0  0  0  0  0  0  0  0  0  0  0
  148.3178  134.7478  155.0406 H   0  0  0  0  0  0  0  0  0  0  0  0
  150.0472  134.4391  155.0123 H   0  0  0  0  0  0  0  0  0  0  0  0
  150.6694  137.2648  153.5846 H   0  0  0  0  0  0  0  0  0  0  0  0
  153.6496  138.4572  155.3597 H   0  0  0  0  0  0  0  0  0  0  0  0
  152.2876  139.4613  154.8636 H   0  0  0  0  0  0  0  0  0  0  0  0
  152.9704  138.2649  153.7468 H   0  0  0  0  0  0  0  0  0  0  0  0
  1  2  1  0  0  0  0
  1 23  1  0  0  0  0
  1 24  1  0  0  0  0
  1 25  1  0  0  0  0
  2  3  1  0  0  0  0
  2 26  1  0  0  0  0
  2 27  1  0  0  0  0
  3 19  1  0  0  0  0
  3  4  1  0  0  0  0
  3  6  1  0  0  0  0
  4  5  1  0  0  0  0
  4 28  1  0  0  0  0
  4 29  1  0  0  0  0
  5 30  1  0  0  0  0
  5 31  1  0  0  0  0
  5 32  1  0  0  0  0
  6  7  1  0  0  0  0
  6 17  1  0  0  0  0
  6 33  1  0  0  0  0
  7  8  1  0  0  0  0
  7 34  1  0  0  0  0
  8  9  2  0  0  0  0
  8 10  1  0  0  0  0
 10 35  1  0  0  0  0
 10 36  1  0  0  0  0
 10 11  1  0  0  0  0
 11 16  1  0  0  0  0
 11 12  2  0  0  0  0
 12 13  1  0  0  0  0
 12 37  1  0  0  0  0
 13 14  1  0  0  0  0
 13 15  2  0  0  0  0
 14 38  1  0  0  0  0
 14 39  1  0  0  0  0
 14 40  1  0  0  0  0
 15 16  1  0  0  0  0
 16 22  1  0  0  0  0
 17 18  1  0  0  0  0
 17 19  1  0  0  0  0
 17 41  1  0  0  0  0
 18 42  1  0  0  0  0
 18 43  1  0  0  0  0
 18 44  1  0  0  0  0
 19 20  1  0  0  0  0
 19 45  1  0  0  0  0
 20 21  1  0  0  0  0
 21 46  1  0  0  0  0
 21 47  1  0  0  0  0
 21 48  1  0  0  0  0
M  END
> <s_m_source_file>
AV-unprocessed.smi

> <i_m_source_file_index>
2510

> <i_lp_mmshare_version>
43012

> <i_f3d_flags>
0

> <s_epik_input>
W0NIM11PW0NAQEhdMVtDQEhdKFtDSDNdKVtDQEBIXShDMShbQ0gyXVtDSDNdKVtDSDJdW0NIM10pW05IXUMoPU8pW0NIMl1jMltjSF1jKFtDSDNdKVtuSF1uMg==

> <s_epik_cmdline>
J2VwaWtfcHl0aG9uJywgJy1waCcsICc3LjAnLCAnLXRuJywgJzgnLCAnLW1hJywgJzIwMCcsICctbWV0YWxfYmluZGluZycsICctaW1hZScsICc8aW5maWxlLm1hZT4nLCAnLW9tYWUnLCAnPG91dGZpbGUubWFlPic=

> <r_lp_tautomer_probability>
0.5

> <r_epik_Ionization_Penalty>
0.000134763

> <r_epik_Ionization_Penalty_Charging>
0

> <r_epik_Ionization_Penalty_Neutral>
0.000134763

> <r_epik_State_Penalty>
0.41068

> <r_epik_Charging_Adjusted_Penalty>
0.41068

> <i_epik_Tot_Q>
0

> <i_epik_Tot_abs_Q>
0

> <r_epik_Metal_State_Penalty>
0.410661

> <b_epik_Metal_Only>
0

> <s_lp_Force_Field>
OPLS_2005

> <r_lp_Energy>
26.4004

> <b_lp_Chiralities_Consistent>
1

> <s_lp_Variant>
AV-unprocessed.smi:2510-13

> <Gold.Version>
5.8.1

> <Gold.Id.Protein>
6NUR|6NUR_protein|mol2

> <Gold.PLP.Fitness>
35.2440

> <Gold.PLP.PLP>
-30.1514

> <Gold.PLP.part.hbond>
-2.6691

> <Gold.PLP.part.metal>
0.0000

> <Gold.PLP.part.buried>
-0.6362

> <Gold.PLP.part.nonpolar>
-28.7147

> <Gold.PLP.part.repulsive>
0.3375

> <Gold.PLP.ligand.clash>
0.0000

> <Gold.PLP.ligand.torsion>
0.7310

> <Gold.PLP.Chemscore.Hbond>
2.0000

> <Gold.PLP.Chemscore.CHOScore>
0.0000

> <Gold.PLP.Chemscore.Metal>
0.0000

> <Gold.Chemscore.Hbonds>
donor molecule, donor type, donor heavy atom, donor atom, acceptor molecule, acceptor atom, score
      L1  H     7    34       P1  7948  1.00
      L1  H    16    22       P1  7948  0.98

> <Gold.PLP.Chemscore.Internal.Correction>
0.5546

> <Gold.Rescore>
     Score         DG    S(hbond)    S(metal)    S(lipo)     H(rot)  DE(clash)    DE(int)     intcor
     15.53     -16.91       1.95        0.00      81.55       1.81       0.45       0.93       ----

> <Gold.Chemscore.Fitness>
15.5307

> <Gold.Chemscore.DG>
-16.9113

> <Gold.Chemscore.ZeroCoef>
-5.4800

> <Gold.Chemscore.Hbond>
1.9533

> <Gold.Chemscore.Metal>
0.0000

> <Gold.Chemscore.Lipo>
81.5508

> <Gold.Chemscore.Internal_Hbond>
0.0000

> <Gold.Chemscore.DEClash>
0.4460

> <Gold.Chemscore.DEInternal>
0.9346

> <Gold.Chemscore.Rot>
1.8102

> <Gold.Chemscore.Internal.Correction>
   9.000000E+99

> <Gold.Chemscore.Hbonds>
donor molecule, donor type, donor heavy atom, donor atom, acceptor molecule, acceptor atom, score
      L1  H     7    34       P1  7948  0.97
      L1  H    16    22       P1  7948  0.90

> <Gold.Chemscore.Hbond.Weighted>
-6.5239

> <Gold.Chemscore.Metal.Weighted>
-0.0000

> <Gold.Chemscore.Lipo.Weighted>
-9.5414

> <Gold.Chemscore.Internal_Hbond.Weighted>
0.0000

> <Gold.Chemscore.DEClash.Weighted>
0.4460

> <Gold.Chemscore.DEInternal.Weighted>
0.9346

> <Gold.Chemscore.Rot.Weighted>
4.6341

> <Gold.Chemscore.Internal.Correction.Weighted>
   9.000000E+99

> <Gold.Protein.RotatedTorsions>
[ 6907 6896 6895 6894 ] final   35.51 input  -60.11 | X-H torsion
[ 7974 7965 7964 7962 ] final   17.23 input  175.53 | X-H torsion
[ 8008 7997 7996 7995 ] final -101.51 input   59.86 | X-H torsion
[ 10167 10162 10161 10158 ] final -157.71 input  -65.29 | X-H torsion
[ 10718 10713 10712 10709 ] final -106.39 input   66.30 | X-H torsion
[ 10763 10752 10751 10750 ] final  135.42 input  -60.55 | X-H torsion
[ 11005 11000 10999 10996 ] final  -41.27 input  -57.11 | X-H torsion

> <Gold.Protein.ActiveResidues>
 VAL166  LYS551  ARG553  GLY616  TRP617  ASP618  TYR619  PRO620  LYS621  CYS622 
 ASP623  PHE694  ASN695  SER759  ASP760  ASP761  ALA762  ILE779  LEU786  VAL792 
 PHE793  MET794  SER795  GLU796  ALA797  LYS798  CYS799  TRP800  GLU811  SER814 

> <Gold.Protein.RotatedAtoms>
  152.1171  134.9233  160.0564 H   0  0  0  0  0  0  0  0  0  0  0  0  # atno 6907 bound_to 6896
  152.0388  133.3963  159.4336 H   0  0  0  0  0  0  0  0  0  0  0  0  # atno 6908 bound_to 6896
  150.6847  134.3359  159.4890 H   0  0  0  0  0  0  0  0  0  0  0  0  # atno 6909 bound_to 6896
  146.2225  139.8632  142.8601 H   0  0  0  0  0  0  0  0  0  0  0  0  # atno 7974 bound_to 7965
  154.8436  140.0434  157.1557 H   0  0  0  0  0  0  0  0  0  0  0  0  # atno 8008 bound_to 7997
  154.9020  140.3001  155.5292 H   0  0  0  0  0  0  0  0  0  0  0  0  # atno 8009 bound_to 7997
  156.2993  140.2374  156.4049 H   0  0  0  0  0  0  0  0  0  0  0  0  # atno 8010 bound_to 7997
  139.6749  143.9681  152.2305 H   0  0  0  0  0  0  0  0  0  0  0  0  # atno 10167 bound_to 10162
  156.0388  130.5610  150.7673 H   0  0  0  0  0  0  0  0  0  0  0  0  # atno 10718 bound_to 10713
  153.8397  135.3093  155.3425 H   0  0  0  0  0  0  0  0  0  0  0  0  # atno 10763 bound_to 10752
  154.7938  135.4767  154.0116 H   0  0  0  0  0  0  0  0  0  0  0  0  # atno 10764 bound_to 10752
  153.1583  135.6856  153.8871 H   0  0  0  0  0  0  0  0  0  0  0  0  # atno 10765 bound_to 10752
  141.0234  133.6852  156.2435 H   0  0  0  0  0  0  0  0  0  0  0  0  # atno 11005 bound_to 11000
  145.2683  141.0100  143.3787 LP  0  0  0  0  0  0  0  0  0  0  0  0  # atno 17320 bound_to 7965
  144.9244  139.4373  143.6525 LP  0  0  0  0  0  0  0  0  0  0  0  0  # atno 17321 bound_to 7965
  139.9455  144.6654  150.8223 LP  0  0  0  0  0  0  0  0  0  0  0  0  # atno 17342 bound_to 10162
  140.7632  143.3216  151.2609 LP  0  0  0  0  0  0  0  0  0  0  0  0  # atno 17343 bound_to 10162
  157.5177  131.0929  151.0119 LP  0  0  0  0  0  0  0  0  0  0  0  0  # atno 17370 bound_to 10713
  157.0458  130.5767  149.5363 LP  0  0  0  0  0  0  0  0  0  0  0  0  # atno 17371 bound_to 10713
  140.6533  134.5044  157.5579 LP  0  0  0  0  0  0  0  0  0  0  0  0  # atno 17394 bound_to 11000
  139.9160  134.8245  156.1364 LP  0  0  0  0  0  0  0  0  0  0  0  0  # atno 17395 bound_to 11000

$$$$
