AV-unprocessed.smi:1669|AV-procd|sdf|6687|dock9
  -GOLD-   22720 7413D 1   1.00000     0.00000
 Structure written by MMmdl.
 47 49  0  0  0  0  0  0  0  0  1 V2000
  152.1918  138.7097  157.2245 C   0  0  0  0  0  0  0  0  0  0  0  0
  150.9524  139.4230  157.5195 N   0  0  0  0  0  0  0  0  0  0  0  0
  150.9642  139.9547  158.8860 C   0  0  0  0  0  0  0  0  0  0  0  0
  151.6587  141.2995  159.0126 C   0  0  0  0  0  0  0  0  0  0  0  0
  151.2191  142.3969  158.2423 C   0  0  0  0  0  0  0  0  0  0  0  0
  151.8617  143.6449  158.3578 C   0  0  0  0  0  0  0  0  0  0  0  0
  152.9425  143.8012  159.2473 C   0  0  0  0  0  0  0  0  0  0  0  0
  153.3811  142.7089  160.0208 C   0  0  0  0  0  0  0  0  0  0  0  0
  152.7407  141.4596  159.9037 C   0  0  0  0  0  0  0  0  0  0  0  0
  149.8017  138.5517  157.2705 C   0  0  0  0  0  0  0  0  0  0  0  0
  149.4246  137.6002  158.4243 C   0  0  2  0  0  0  0  0  0  0  0  0
  150.4654  136.6554  158.5679 O   0  0  0  0  0  0  0  0  0  0  0  0
  148.0911  136.8642  158.1782 C   0  0  0  0  0  0  0  0  0  0  0  0
  147.9579  135.6697  159.0003 N   0  0  0  0  0  0  0  0  0  0  0  0
  148.1055  134.3699  158.6396 C   0  0  0  0  0  0  0  0  0  0  0  0
  148.4456  133.9790  157.2298 C   0  0  0  0  0  0  0  0  0  0  0  0
  149.6933  133.3280  157.1032 O   0  0  0  0  0  0  0  0  0  0  0  0
  147.9139  133.4766  159.6138 N   0  0  0  0  0  0  0  0  0  0  0  0
  147.6192  134.2707  160.7048 C   0  0  0  0  0  0  0  0  0  0  0  0
  147.3197  133.9233  162.0416 C   0  0  0  0  0  0  0  0  0  0  0  0
  147.0428  134.9258  162.9943 C   0  0  0  0  0  0  0  0  0  0  0  0
  147.0597  136.2867  162.6252 C   0  0  0  0  0  0  0  0  0  0  0  0
  147.3560  136.6542  161.2987 C   0  0  0  0  0  0  0  0  0  0  0  0
  147.6341  135.6494  160.3528 C   0  0  0  0  0  0  0  0  0  0  0  0
  152.1899  138.3375  156.1996 H   0  0  0  0  0  0  0  0  0  0  0  0
  152.3253  137.8588  157.8940 H   0  0  0  0  0  0  0  0  0  0  0  0
  153.0591  139.3624  157.3270 H   0  0  0  0  0  0  0  0  0  0  0  0
  149.9484  140.1103  159.2448 H   0  0  0  0  0  0  0  0  0  0  0  0
  151.4220  139.2346  159.5658 H   0  0  0  0  0  0  0  0  0  0  0  0
  150.3894  142.2815  157.5597 H   0  0  0  0  0  0  0  0  0  0  0  0
  151.5252  144.4822  157.7643 H   0  0  0  0  0  0  0  0  0  0  0  0
  153.4344  144.7586  159.3369 H   0  0  0  0  0  0  0  0  0  0  0  0
  154.2090  142.8291  160.7041 H   0  0  0  0  0  0  0  0  0  0  0  0
  153.0842  140.6255  160.4980 H   0  0  0  0  0  0  0  0  0  0  0  0
  148.9290  139.1707  157.0563 H   0  0  0  0  0  0  0  0  0  0  0  0
  149.9816  137.9694  156.3652 H   0  0  0  0  0  0  0  0  0  0  0  0
  149.3763  138.1464  159.3653 H   0  0  0  0  0  0  0  0  0  0  0  0
  151.2922  137.0977  158.4507 H   0  0  0  0  0  0  0  0  0  0  0  0
  147.2528  137.5192  158.4187 H   0  0  0  0  0  0  0  0  0  0  0  0
  147.9776  136.6080  157.1250 H   0  0  0  0  0  0  0  0  0  0  0  0
  147.6655  133.3205  156.8471 H   0  0  0  0  0  0  0  0  0  0  0  0
  148.4630  134.8678  156.5994 H   0  0  0  0  0  0  0  0  0  0  0  0
  149.7590  132.9804  156.2265 H   0  0  0  0  0  0  0  0  0  0  0  0
  147.3029  132.8839  162.3343 H   0  0  0  0  0  0  0  0  0  0  0  0
  146.8154  134.6492  164.0135 H   0  0  0  0  0  0  0  0  0  0  0  0
  146.8462  137.0481  163.3607 H   0  0  0  0  0  0  0  0  0  0  0  0
  147.3702  137.6954  161.0121 H   0  0  0  0  0  0  0  0  0  0  0  0
  1  2  1  0  0  0  0
  1 25  1  0  0  0  0
  1 26  1  0  0  0  0
  1 27  1  0  0  0  0
  2  3  1  0  0  0  0
  2 10  1  0  0  0  0
  3  4  1  0  0  0  0
  3 28  1  0  0  0  0
  3 29  1  0  0  0  0
  4  9  1  0  0  0  0
  4  5  2  0  0  0  0
  5  6  1  0  0  0  0
  5 30  1  0  0  0  0
  6  7  2  0  0  0  0
  6 31  1  0  0  0  0
  7  8  1  0  0  0  0
  7 32  1  0  0  0  0
  8  9  2  0  0  0  0
  8 33  1  0  0  0  0
  9 34  1  0  0  0  0
 10 11  1  0  0  0  0
 10 35  1  0  0  0  0
 10 36  1  0  0  0  0
 11 12  1  0  0  0  0
 11 13  1  0  0  0  0
 11 37  1  0  0  0  0
 12 38  1  0  0  0  0
 13 14  1  0  0  0  0
 13 39  1  0  0  0  0
 13 40  1  0  0  0  0
 14 24  1  0  0  0  0
 14 15  1  0  0  0  0
 15 16  1  0  0  0  0
 15 18  2  0  0  0  0
 16 17  1  0  0  0  0
 16 41  1  0  0  0  0
 16 42  1  0  0  0  0
 17 43  1  0  0  0  0
 18 19  1  0  0  0  0
 19 24  2  0  0  0  0
 19 20  1  0  0  0  0
 20 21  2  0  0  0  0
 20 44  1  0  0  0  0
 21 22  1  0  0  0  0
 21 45  1  0  0  0  0
 22 23  2  0  0  0  0
 22 46  1  0  0  0  0
 23 24  1  0  0  0  0
 23 47  1  0  0  0  0
M  END
> <s_m_source_file>
AV-unprocessed.smi

> <i_m_source_file_index>
1669

> <i_lp_mmshare_version>
43012

> <i_f3d_flags>
0

> <s_epik_input>
W2NIXTFbY0hdW2NIXVtjSF1bY0hdYzFbQ0gyXU4oW0NIM10pW0NIMl1bQ0BIXShbT0hdKVtDSDJdbihjKG4yKVtDSDJdW09IXSljKGMyMylbY0hdW2NIXVtjSF1bY0hdMw==

> <s_epik_cmdline>
J2VwaWtfcHl0aG9uJywgJy1waCcsICc3LjAnLCAnLXRuJywgJzgnLCAnLW1hJywgJzIwMCcsICctbWV0YWxfYmluZGluZycsICctaW1hZScsICc8aW5maWxlLm1hZT4nLCAnLW9tYWUnLCAnPG91dGZpbGUubWFlPic=

> <r_epik_Ionization_Penalty>
1.56301

> <r_epik_Ionization_Penalty_Charging>
0

> <r_epik_Ionization_Penalty_Neutral>
1.56301

> <r_epik_State_Penalty>
1.64771

> <r_epik_Charging_Adjusted_Penalty>
1.64771

> <i_epik_Tot_Q>
0

> <i_epik_Tot_abs_Q>
0

> <r_epik_Metal_State_Penalty>
1.61258

> <b_epik_Metal_Only>
0

> <s_lp_Force_Field>
OPLS_2005

> <r_lp_Energy>
20.891

> <b_lp_Chiralities_Consistent>
1

> <s_lp_Variant>
AV-unprocessed.smi:1669-5

> <Gold.Version>
5.8.1

> <Gold.Id.Protein>
6NUR|6NUR_protein|mol2

> <Gold.PLP.Fitness>
49.1818

> <Gold.PLP.PLP>
-44.8634

> <Gold.PLP.part.hbond>
-2.0000

> <Gold.PLP.part.metal>
0.0000

> <Gold.PLP.part.buried>
-4.6634

> <Gold.PLP.part.nonpolar>
-39.6813

> <Gold.PLP.part.repulsive>
0.0000

> <Gold.PLP.ligand.clash>
0.0000

> <Gold.PLP.ligand.torsion>
0.9817

> <Gold.PLP.Chemscore.Hbond>
1.9920

> <Gold.PLP.Chemscore.CHOScore>
0.0000

> <Gold.PLP.Chemscore.Metal>
0.0000

> <Gold.Chemscore.Hbonds>
donor molecule, donor type, donor heavy atom, donor atom, acceptor molecule, acceptor atom, score
      P1  H  6896  6907       L1    12  0.59

> <Gold.PLP.Chemscore.Internal.Correction>
0.3057

> <Gold.Rescore>
     Score         DG    S(hbond)    S(metal)    S(lipo)     H(rot)  DE(clash)    DE(int)     intcor
     17.31     -18.60       1.64        0.00     132.21       3.06       0.10       1.19       ----

> <Gold.Chemscore.Fitness>
17.3082

> <Gold.Chemscore.DG>
-18.6000

> <Gold.Chemscore.ZeroCoef>
-5.4800

> <Gold.Chemscore.Hbond>
1.6427

> <Gold.Chemscore.Metal>
0.0000

> <Gold.Chemscore.Lipo>
132.2140

> <Gold.Chemscore.Internal_Hbond>
0.0000

> <Gold.Chemscore.DEClash>
0.0980

> <Gold.Chemscore.DEInternal>
1.1938

> <Gold.Chemscore.Rot>
3.0609

> <Gold.Chemscore.Internal.Correction>
   9.000000E+99

> <Gold.Chemscore.Hbonds>
donor molecule, donor type, donor heavy atom, donor atom, acceptor molecule, acceptor atom, score
      P1  H  6896  6907       L1    12  0.10
      P1  H  6896  6909       L1    17  0.01

> <Gold.Chemscore.Hbond.Weighted>
-5.4868

> <Gold.Chemscore.Metal.Weighted>
-0.0000

> <Gold.Chemscore.Lipo.Weighted>
-15.4690

> <Gold.Chemscore.Internal_Hbond.Weighted>
0.0000

> <Gold.Chemscore.DEClash.Weighted>
0.0980

> <Gold.Chemscore.DEInternal.Weighted>
1.1938

> <Gold.Chemscore.Rot.Weighted>
7.8358

> <Gold.Chemscore.Internal.Correction.Weighted>
   9.000000E+99

> <Gold.Protein.RotatedTorsions>
[ 6907 6896 6895 6894 ] final  -23.12 input  -60.11 | X-H torsion
[ 7974 7965 7964 7962 ] final  127.46 input  175.53 | X-H torsion
[ 8008 7997 7996 7995 ] final  -75.83 input   59.86 | X-H torsion
[ 10167 10162 10161 10158 ] final -172.01 input  -65.29 | X-H torsion
[ 10718 10713 10712 10709 ] final  -51.65 input   66.30 | X-H torsion
[ 10763 10752 10751 10750 ] final   -5.13 input  -60.55 | X-H torsion
[ 11005 11000 10999 10996 ] final -118.61 input  -57.11 | X-H torsion

> <Gold.Protein.ActiveResidues>
 VAL166  LYS551  ARG553  GLY616  TRP617  ASP618  TYR619  PRO620  LYS621  CYS622 
 ASP623  PHE694  ASN695  SER759  ASP760  ASP761  ALA762  ILE779  LEU786  VAL792 
 PHE793  MET794  SER795  GLU796  ALA797  LYS798  CYS799  TRP800  GLU811  SER814 

> <Gold.Protein.RotatedAtoms>
  151.2086  135.0472  159.8901 H   0  0  0  0  0  0  0  0  0  0  0  0  # atno 6907 bound_to 6896
  152.5426  134.0770  159.8229 H   0  0  0  0  0  0  0  0  0  0  0  0  # atno 6908 bound_to 6896
  151.0920  133.5260  159.2646 H   0  0  0  0  0  0  0  0  0  0  0  0  # atno 6909 bound_to 6896
  145.0503  139.3888  143.5057 H   0  0  0  0  0  0  0  0  0  0  0  0  # atno 7974 bound_to 7965
  154.5451  140.0737  156.8576 H   0  0  0  0  0  0  0  0  0  0  0  0  # atno 8008 bound_to 7997
  155.3102  140.3390  155.4226 H   0  0  0  0  0  0  0  0  0  0  0  0  # atno 8009 bound_to 7997
  156.1911  140.1686  156.8076 H   0  0  0  0  0  0  0  0  0  0  0  0  # atno 8010 bound_to 7997
  139.5769  144.1511  152.1463 H   0  0  0  0  0  0  0  0  0  0  0  0  # atno 10167 bound_to 10162
  156.1691  130.4149  149.9675 H   0  0  0  0  0  0  0  0  0  0  0  0  # atno 10718 bound_to 10713
  153.3943  135.7003  153.6472 H   0  0  0  0  0  0  0  0  0  0  0  0  # atno 10763 bound_to 10752
  153.5032  135.3648  155.2550 H   0  0  0  0  0  0  0  0  0  0  0  0  # atno 10764 bound_to 10752
  154.8705  135.4117  154.3265 H   0  0  0  0  0  0  0  0  0  0  0  0  # atno 10765 bound_to 10752
  141.0274  134.0033  157.3194 H   0  0  0  0  0  0  0  0  0  0  0  0  # atno 11005 bound_to 11000
  146.3517  140.0150  142.8663 LP  0  0  0  0  0  0  0  0  0  0  0  0  # atno 17320 bound_to 7965
  145.1535  140.9636  143.4419 LP  0  0  0  0  0  0  0  0  0  0  0  0  # atno 17321 bound_to 7965
  140.1056  144.5501  150.6959 LP  0  0  0  0  0  0  0  0  0  0  0  0  # atno 17342 bound_to 10162
  140.7051  143.2462  151.4750 LP  0  0  0  0  0  0  0  0  0  0  0  0  # atno 17343 bound_to 10162
  156.7481  130.9105  151.3636 LP  0  0  0  0  0  0  0  0  0  0  0  0  # atno 17370 bound_to 10713
  157.6789  130.9121  150.0219 LP  0  0  0  0  0  0  0  0  0  0  0  0  # atno 17371 bound_to 10713
  139.9185  135.0199  156.7973 LP  0  0  0  0  0  0  0  0  0  0  0  0  # atno 17394 bound_to 11000
  140.6468  133.9768  155.7735 LP  0  0  0  0  0  0  0  0  0  0  0  0  # atno 17395 bound_to 11000

$$$$
