AV-unprocessed.smi:1794|AV-procd|sdf|7233|dock9
  -GOLD-   22720 8473D 1   1.00000     0.00000
 Structure written by MMmdl.
 55 57  0  0  0  0  0  0  0  0  2 V2000
  144.4485  142.4427  155.1938 C   0  0  0  0  0  0  0  0  0  0  0  0
  145.8633  141.8108  155.1625 C   0  0  0  0  0  0  0  0  0  0  0  0
  146.7121  142.7092  154.2283 C   0  0  0  0  0  0  0  0  0  0  0  0
  146.4894  141.8007  156.5903 C   0  0  0  0  0  0  0  0  0  0  0  0
  147.8641  141.3016  156.6157 N   0  0  0  0  0  0  0  0  0  0  0  0
  148.7329  141.4548  157.6255 C   0  0  0  0  0  0  0  0  0  0  0  0
  148.4491  142.0258  158.6772 O   0  0  0  0  0  0  0  0  0  0  0  0
  149.9245  140.9156  157.3153 N   0  0  0  0  0  0  0  0  0  0  0  0
  151.1516  140.8931  158.0448 C   0  0  0  0  0  0  0  0  0  0  0  0
  151.4613  141.8166  159.0762 C   0  0  0  0  0  0  0  0  0  0  0  0
  152.7133  141.7502  159.7116 C   0  0  0  0  0  0  0  0  0  0  0  0
  153.6217  140.7651  159.2932 C   0  0  0  0  0  0  0  0  0  0  0  0
  153.3444  139.8770  158.3190 N   0  0  0  0  0  0  0  0  0  0  0  0
  152.1362  139.9196  157.7060 C   0  0  0  0  0  0  0  0  0  0  0  0
  151.8927  138.9489  156.7076 N   0  0  0  0  0  0  0  0  0  0  0  0
  150.8348  137.9581  156.8813 C   0  0  0  0  0  0  0  0  0  0  0  0
  150.5734  137.4069  155.4824 C   0  0  0  0  0  0  0  0  0  0  0  0
  150.7849  138.6361  154.6048 C   0  0  0  0  0  0  0  0  0  0  0  0
  151.9036  139.4012  155.3193 C   0  0  0  0  0  0  0  0  0  0  0  0
  145.7760  140.4186  154.5904 N   0  3  0  0  0  0  0  0  0  0  0  0
  147.0155  139.9005  153.9445 C   0  0  0  0  0  0  0  0  0  0  0  0
  146.7382  138.5626  153.2389 C   0  0  0  0  0  0  0  0  0  0  0  0
  146.2308  137.6229  154.1752 O   0  0  0  0  0  0  0  0  0  0  0  0
  145.0014  138.0566  154.7392 C   0  0  0  0  0  0  0  0  0  0  0  0
  145.2163  139.3769  155.4981 C   0  0  0  0  0  0  0  0  0  0  0  0
  144.4871  143.5144  155.3911 H   0  0  0  0  0  0  0  0  0  0  0  0
  143.8207  142.0144  155.9747 H   0  0  0  0  0  0  0  0  0  0  0  0
  143.9343  142.3154  154.2404 H   0  0  0  0  0  0  0  0  0  0  0  0
  146.6354  143.7621  154.5021 H   0  0  0  0  0  0  0  0  0  0  0  0
  146.3853  142.6253  153.1911 H   0  0  0  0  0  0  0  0  0  0  0  0
  147.7734  142.4649  154.2682 H   0  0  0  0  0  0  0  0  0  0  0  0
  146.4506  142.7917  157.0433 H   0  0  0  0  0  0  0  0  0  0  0  0
  145.9176  141.1506  157.2515 H   0  0  0  0  0  0  0  0  0  0  0  0
  148.1834  140.8157  155.7903 H   0  0  0  0  0  0  0  0  0  0  0  0
  149.9754  140.4764  156.4077 H   0  0  0  0  0  0  0  0  0  0  0  0
  150.7786  142.5846  159.3984 H   0  0  0  0  0  0  0  0  0  0  0  0
  152.9725  142.4445  160.4972 H   0  0  0  0  0  0  0  0  0  0  0  0
  154.5960  140.6865  159.7526 H   0  0  0  0  0  0  0  0  0  0  0  0
  151.1380  137.1738  157.5752 H   0  0  0  0  0  0  0  0  0  0  0  0
  149.9226  138.4187  157.2622 H   0  0  0  0  0  0  0  0  0  0  0  0
  151.3109  136.6415  155.2372 H   0  0  0  0  0  0  0  0  0  0  0  0
  149.5799  136.9703  155.3760 H   0  0  0  0  0  0  0  0  0  0  0  0
  151.0333  138.3870  153.5729 H   0  0  0  0  0  0  0  0  0  0  0  0
  149.8761  139.2393  154.5961 H   0  0  0  0  0  0  0  0  0  0  0  0
  151.7655  140.4800  155.2348 H   0  0  0  0  0  0  0  0  0  0  0  0
  152.8673  139.1486  154.8765 H   0  0  0  0  0  0  0  0  0  0  0  0
  147.3998  140.5937  153.1991 H   0  0  0  0  0  0  0  0  0  0  0  0
  147.7993  139.7591  154.6886 H   0  0  0  0  0  0  0  0  0  0  0  0
  146.0332  138.6943  152.4161 H   0  0  0  0  0  0  0  0  0  0  0  0
  147.6586  138.1679  152.8080 H   0  0  0  0  0  0  0  0  0  0  0  0
  144.2478  138.1730  153.9585 H   0  0  0  0  0  0  0  0  0  0  0  0
  144.6363  137.2879  155.4206 H   0  0  0  0  0  0  0  0  0  0  0  0
  145.8905  139.2025  156.3367 H   0  0  0  0  0  0  0  0  0  0  0  0
  144.2571  139.6787  155.9139 H   0  0  0  0  0  0  0  0  0  0  0  0
  145.1047  140.4980  153.8399 H   0  0  0  0  0  0  0  0  0  0  0  0
  1  2  1  0  0  0  0
  1 26  1  0  0  0  0
  1 27  1  0  0  0  0
  1 28  1  0  0  0  0
  2  3  1  0  0  0  0
  2  4  1  0  0  0  0
  2 20  1  0  0  0  0
  3 29  1  0  0  0  0
  3 30  1  0  0  0  0
  3 31  1  0  0  0  0
  4  5  1  0  0  0  0
  4 32  1  0  0  0  0
  4 33  1  0  0  0  0
  5  6  1  0  0  0  0
  5 34  1  0  0  0  0
  6  7  2  0  0  0  0
  6  8  1  0  0  0  0
  8  9  1  0  0  0  0
  8 35  1  0  0  0  0
  9 14  1  0  0  0  0
  9 10  2  0  0  0  0
 10 11  1  0  0  0  0
 10 36  1  0  0  0  0
 11 12  2  0  0  0  0
 11 37  1  0  0  0  0
 12 13  1  0  0  0  0
 12 38  1  0  0  0  0
 13 14  2  0  0  0  0
 14 15  1  0  0  0  0
 15 19  1  0  0  0  0
 15 16  1  0  0  0  0
 16 17  1  0  0  0  0
 16 39  1  0  0  0  0
 16 40  1  0  0  0  0
 17 18  1  0  0  0  0
 17 41  1  0  0  0  0
 17 42  1  0  0  0  0
 18 19  1  0  0  0  0
 18 43  1  0  0  0  0
 18 44  1  0  0  0  0
 19 45  1  0  0  0  0
 19 46  1  0  0  0  0
 20 25  1  0  0  0  0
 20 21  1  0  0  0  0
 20 55  1  0  0  0  0
 21 22  1  0  0  0  0
 21 47  1  0  0  0  0
 21 48  1  0  0  0  0
 22 23  1  0  0  0  0
 22 49  1  0  0  0  0
 22 50  1  0  0  0  0
 23 24  1  0  0  0  0
 24 25  1  0  0  0  0
 24 51  1  0  0  0  0
 24 52  1  0  0  0  0
 25 53  1  0  0  0  0
 25 54  1  0  0  0  0
M  CHG  1  20   1
M  END
> <s_m_source_file>
AV-unprocessed.smi

> <i_m_source_file_index>
1794

> <i_lp_mmshare_version>
43012

> <i_f3d_flags>
0

> <s_epik_input>
W0NIMl0xW0NIMl1PW0NIMl1bQ0gyXU4xQyhbQ0gzXSkoW0NIM10pW0NIMl1bTkhdQyg9TylbTkhdYzJbY0hdW2NIXVtjSF1uYzJOM1tDSDJdW0NIMl1bQ0gyXVtDSDJdMw==

> <s_epik_cmdline>
J2VwaWtfcHl0aG9uJywgJy1waCcsICc3LjAnLCAnLXRuJywgJzgnLCAnLW1hJywgJzIwMCcsICctbWV0YWxfYmluZGluZycsICctaW1hZScsICc8aW5maWxlLm1hZT4nLCAnLW9tYWUnLCAnPG91dGZpbGUubWFlPic=

> <r_lp_tautomer_probability>
1

> <r_epik_Ionization_Penalty>
0.687101

> <r_epik_Ionization_Penalty_Charging>
0.602531

> <r_epik_Ionization_Penalty_Neutral>
0.0845706

> <r_epik_State_Penalty>
0.681137

> <r_epik_Charging_Adjusted_Penalty>
1.28367

> <i_epik_Tot_Q>
1

> <i_epik_Tot_abs_Q>
1

> <r_epik_Metal_State_Penalty>
0.680055

> <b_epik_Metal_Only>
0

> <s_lp_Force_Field>
OPLS_2005

> <r_lp_Energy>
53.5269

> <b_lp_Chiralities_Consistent>
1

> <s_lp_Variant>
AV-unprocessed.smi:1794-2

> <Gold.Version>
5.8.1

> <Gold.Id.Protein>
6NUR|6NUR_protein|mol2

> <Gold.PLP.Fitness>
41.9286

> <Gold.PLP.PLP>
-34.2684

> <Gold.PLP.part.hbond>
-2.4289

> <Gold.PLP.part.metal>
0.0000

> <Gold.PLP.part.buried>
-3.5179

> <Gold.PLP.part.nonpolar>
-27.6814

> <Gold.PLP.part.repulsive>
0.2753

> <Gold.PLP.ligand.clash>
0.0000

> <Gold.PLP.ligand.torsion>
0.8748

> <Gold.PLP.Chemscore.Hbond>
3.0000

> <Gold.PLP.Chemscore.CHOScore>
0.0000

> <Gold.PLP.Chemscore.Metal>
0.0000

> <Gold.Chemscore.Hbonds>
donor molecule, donor type, donor heavy atom, donor atom, acceptor molecule, acceptor atom, score
      L1  H    20    55       P1 10175  2.00
      P1  H  7997  8010       L1    13  1.00

> <Gold.PLP.Chemscore.Internal.Correction>
0.4097

> <Gold.Rescore>
     Score         DG    S(hbond)    S(metal)    S(lipo)     H(rot)  DE(clash)    DE(int)     intcor
     15.11     -16.93       1.57        0.00      88.07       1.60       0.18       1.65       ----

> <Gold.Chemscore.Fitness>
15.1061

> <Gold.Chemscore.DG>
-16.9290

> <Gold.Chemscore.ZeroCoef>
-5.4800

> <Gold.Chemscore.Hbond>
1.5723

> <Gold.Chemscore.Metal>
0.0000

> <Gold.Chemscore.Lipo>
88.0747

> <Gold.Chemscore.Internal_Hbond>
0.0000

> <Gold.Chemscore.DEClash>
0.1777

> <Gold.Chemscore.DEInternal>
1.6452

> <Gold.Chemscore.Rot>
1.6044

> <Gold.Chemscore.Internal.Correction>
   9.000000E+99

> <Gold.Chemscore.Hbonds>
donor molecule, donor type, donor heavy atom, donor atom, acceptor molecule, acceptor atom, score
      L1  H    20    55       P1 10175  0.98
      P1  H  7997  8010       L1    13  0.38

> <Gold.Chemscore.Hbond.Weighted>
-5.2515

> <Gold.Chemscore.Metal.Weighted>
-0.0000

> <Gold.Chemscore.Lipo.Weighted>
-10.3047

> <Gold.Chemscore.Internal_Hbond.Weighted>
0.0000

> <Gold.Chemscore.DEClash.Weighted>
0.1777

> <Gold.Chemscore.DEInternal.Weighted>
1.6452

> <Gold.Chemscore.Rot.Weighted>
4.1072

> <Gold.Chemscore.Internal.Correction.Weighted>
   9.000000E+99

> <Gold.Protein.RotatedTorsions>
[ 6907 6896 6895 6894 ] final  -68.53 input  -60.11 | X-H torsion
[ 7974 7965 7964 7962 ] final  127.05 input  175.53 | X-H torsion
[ 8008 7997 7996 7995 ] final   21.35 input   59.86 | X-H torsion
[ 10167 10162 10161 10158 ] final   72.76 input  -65.29 | X-H torsion
[ 10718 10713 10712 10709 ] final -108.69 input   66.30 | X-H torsion
[ 10763 10752 10751 10750 ] final  -35.15 input  -60.55 | X-H torsion
[ 11005 11000 10999 10996 ] final  123.28 input  -57.11 | X-H torsion

> <Gold.Protein.ActiveResidues>
 VAL166  LYS551  ARG553  GLY616  TRP617  ASP618  TYR619  PRO620  LYS621  CYS622 
 ASP623  PHE694  ASN695  SER759  ASP760  ASP761  ALA762  ILE779  LEU786  VAL792 
 PHE793  MET794  SER795  GLU796  ALA797  LYS798  CYS799  TRP800  GLU811  SER814 

> <Gold.Protein.RotatedAtoms>
  150.7351  134.5725  159.5897 H   0  0  0  0  0  0  0  0  0  0  0  0  # atno 6907 bound_to 6896
  152.3160  134.7436  160.0334 H   0  0  0  0  0  0  0  0  0  0  0  0  # atno 6908 bound_to 6896
  151.7968  133.3329  159.3551 H   0  0  0  0  0  0  0  0  0  0  0  0  # atno 6909 bound_to 6896
  145.0549  139.3852  143.5035 H   0  0  0  0  0  0  0  0  0  0  0  0  # atno 7974 bound_to 7965
  154.9494  140.3063  155.5082 H   0  0  0  0  0  0  0  0  0  0  0  0  # atno 8008 bound_to 7997
  156.2988  140.2321  156.4508 H   0  0  0  0  0  0  0  0  0  0  0  0  # atno 8009 bound_to 7997
  154.8069  140.0431  157.1303 H   0  0  0  0  0  0  0  0  0  0  0  0  # atno 8010 bound_to 7997
  140.0318  144.5459  150.7501 H   0  0  0  0  0  0  0  0  0  0  0  0  # atno 10167 bound_to 10162
  156.0498  130.5725  150.7995 H   0  0  0  0  0  0  0  0  0  0  0  0  # atno 10718 bound_to 10713
  153.8584  135.6842  153.4785 H   0  0  0  0  0  0  0  0  0  0  0  0  # atno 10763 bound_to 10752
  153.1356  135.4679  154.9415 H   0  0  0  0  0  0  0  0  0  0  0  0  # atno 10764 bound_to 10752
  154.7770  135.3256  154.8020 H   0  0  0  0  0  0  0  0  0  0  0  0  # atno 10765 bound_to 10752
  139.9305  134.9641  156.8236 H   0  0  0  0  0  0  0  0  0  0  0  0  # atno 11005 bound_to 11000
  146.3520  140.0218  142.8658 LP  0  0  0  0  0  0  0  0  0  0  0  0  # atno 17320 bound_to 7965
  145.1481  140.9608  143.4449 LP  0  0  0  0  0  0  0  0  0  0  0  0  # atno 17321 bound_to 7965
  140.7298  143.2677  151.3990 LP  0  0  0  0  0  0  0  0  0  0  0  0  # atno 17342 bound_to 10162
  139.6071  144.1175  152.2260 LP  0  0  0  0  0  0  0  0  0  0  0  0  # atno 17343 bound_to 10162
  157.5413  131.0941  150.9824 LP  0  0  0  0  0  0  0  0  0  0  0  0  # atno 17370 bound_to 10713
  157.0106  130.5635  149.5320 LP  0  0  0  0  0  0  0  0  0  0  0  0  # atno 17371 bound_to 10713
  140.6214  133.9990  155.7620 LP  0  0  0  0  0  0  0  0  0  0  0  0  # atno 17394 bound_to 11000
  141.0891  133.9944  157.3266 LP  0  0  0  0  0  0  0  0  0  0  0  0  # atno 17395 bound_to 11000

$$$$
