AV-unprocessed.smi:2796|AV-procd|sdf|10782|dock9
  -GOLD-   2272015213D 1   1.00000     0.00000
 Structure written by MMmdl.
 27 28  0  0  0  0  0  0  0  0  1 V2000
  151.6381  137.2100  154.2945 N   0  0  0  0  0  0  0  0  0  0  0  0
  151.5103  138.2451  154.7959 C   0  0  0  0  0  0  0  0  0  0  0  0
  151.3496  139.5453  155.4243 C   0  0  0  0  0  0  0  0  0  0  0  0
  152.0025  139.8126  156.6457 C   0  0  0  0  0  0  0  0  0  0  0  0
  151.8332  141.0776  157.2409 C   0  0  0  0  0  0  0  0  0  0  0  0
  151.0165  142.0352  156.5960 C   0  0  0  0  0  0  0  0  0  0  0  0
  150.7810  143.3192  157.1075 N   0  0  0  0  0  0  0  0  0  0  0  0
  151.8826  144.1409  157.5872 C   0  0  0  0  0  0  0  0  0  0  0  0
  152.0289  144.1144  159.0957 C   0  0  0  0  0  0  0  0  0  0  0  0
  151.8172  145.1792  159.8965 C   0  0  0  0  0  0  0  0  0  0  0  0
  151.8782  145.1212  161.2658 O   0  0  0  0  0  0  0  0  0  0  0  0
  151.8866  143.8004  161.7965 C   0  0  0  0  0  0  0  0  0  0  0  0
  152.8026  142.8900  160.9628 C   0  0  0  0  0  0  0  0  0  0  0  0
  152.4094  142.8901  159.5934 O   0  0  0  0  0  0  0  0  0  0  0  0
  150.4112  141.6643  155.3768 C   0  0  0  0  0  0  0  0  0  0  0  0
  150.5687  140.4536  154.8001 N   0  0  0  0  0  0  0  0  0  0  0  0
  152.6218  139.0660  157.1221 H   0  0  0  0  0  0  0  0  0  0  0  0
  152.3285  141.2904  158.1763 H   0  0  0  0  0  0  0  0  0  0  0  0
  149.9013  143.7730  156.9054 H   0  0  0  0  0  0  0  0  0  0  0  0
  152.8185  143.7856  157.1549 H   0  0  0  0  0  0  0  0  0  0  0  0
  151.7366  145.1703  157.2573 H   0  0  0  0  0  0  0  0  0  0  0  0
  151.5275  146.1579  159.5436 H   0  0  0  0  0  0  0  0  0  0  0  0
  152.2226  143.8334  162.8332 H   0  0  0  0  0  0  0  0  0  0  0  0
  150.8676  143.4111  161.8019 H   0  0  0  0  0  0  0  0  0  0  0  0
  153.8373  143.2276  161.0341 H   0  0  0  0  0  0  0  0  0  0  0  0
  152.7726  141.8686  161.3422 H   0  0  0  0  0  0  0  0  0  0  0  0
  149.7788  142.3600  154.8447 H   0  0  0  0  0  0  0  0  0  0  0  0
  1  2  3  0  0  0  0
  2  3  1  0  0  0  0
  3 16  1  0  0  0  0
  3  4  2  0  0  0  0
  4  5  1  0  0  0  0
  4 17  1  0  0  0  0
  5  6  2  0  0  0  0
  5 18  1  0  0  0  0
  6  7  1  0  0  0  0
  6 15  1  0  0  0  0
  7  8  1  0  0  0  0
  7 19  1  0  0  0  0
  8  9  1  0  0  0  0
  8 20  1  0  0  0  0
  8 21  1  0  0  0  0
  9 14  1  0  0  0  0
  9 10  2  0  0  0  0
 10 11  1  0  0  0  0
 10 22  1  0  0  0  0
 11 12  1  0  0  0  0
 12 13  1  0  0  0  0
 12 23  1  0  0  0  0
 12 24  1  0  0  0  0
 13 14  1  0  0  0  0
 13 25  1  0  0  0  0
 13 26  1  0  0  0  0
 15 16  2  0  0  0  0
 15 27  1  0  0  0  0
M  END
> <s_m_source_file>
AV-unprocessed.smi

> <i_m_source_file_index>
2796

> <i_lp_mmshare_version>
43012

> <i_f3d_flags>
0

> <s_epik_input>
TiNDYzFbY0hdW2NIXWMoW2NIXW4xKVtOSF1bQ0gyXUMyPVtDSF1PW0NIMl1bQ0gyXU8y

> <s_epik_cmdline>
J2VwaWtfcHl0aG9uJywgJy1waCcsICc3LjAnLCAnLXRuJywgJzgnLCAnLW1hJywgJzIwMCcsICctbWV0YWxfYmluZGluZycsICctaW1hZScsICc8aW5maWxlLm1hZT4nLCAnLW9tYWUnLCAnPG91dGZpbGUubWFlPic=

> <r_lp_tautomer_probability>
1

> <r_epik_Ionization_Penalty>
1.57619e-06

> <r_epik_Ionization_Penalty_Charging>
0

> <r_epik_Ionization_Penalty_Neutral>
1.57619e-06

> <r_epik_State_Penalty>
-0

> <r_epik_Charging_Adjusted_Penalty>
0

> <i_epik_Tot_Q>
0

> <i_epik_Tot_abs_Q>
0

> <r_epik_Metal_State_Penalty>
-0

> <b_epik_Metal_Only>
0

> <s_lp_Force_Field>
OPLS_2005

> <r_lp_Energy>
3.17898

> <b_lp_Chiralities_Consistent>
1

> <s_lp_Variant>
AV-unprocessed.smi:2796-1

> <Gold.Version>
5.8.1

> <Gold.Id.Protein>
6NUR|6NUR_protein|mol2

> <Gold.PLP.Fitness>
43.8831

> <Gold.PLP.PLP>
-36.0613

> <Gold.PLP.part.hbond>
-3.0000

> <Gold.PLP.part.metal>
0.0000

> <Gold.PLP.part.buried>
-4.8004

> <Gold.PLP.part.nonpolar>
-30.8330

> <Gold.PLP.part.repulsive>
2.7703

> <Gold.PLP.ligand.clash>
0.0000

> <Gold.PLP.ligand.torsion>
0.5939

> <Gold.PLP.Chemscore.Hbond>
2.3173

> <Gold.PLP.Chemscore.CHOScore>
0.6858

> <Gold.PLP.Chemscore.Metal>
0.0000

> <Gold.Chemscore.Hbonds>
donor molecule, donor type, donor heavy atom, donor atom, acceptor molecule, acceptor atom, score
      L1  H     7    19       P1  8028  0.94
      P1  H  7989  7998       L1    16  0.95
      P1  H 10752 10763       L1     1  0.47
      L1  C    15    27       P1  8028  0.71

> <Gold.PLP.Chemscore.Internal.Correction>
0.0002

> <Gold.Rescore>
     Score         DG    S(hbond)    S(metal)    S(lipo)     H(rot)  DE(clash)    DE(int)     intcor
     17.69     -19.17       1.60        0.00      98.80       1.26       0.95       0.53       ----

> <Gold.Chemscore.Fitness>
17.6929

> <Gold.Chemscore.DG>
-19.1715

> <Gold.Chemscore.ZeroCoef>
-5.4800

> <Gold.Chemscore.Hbond>
1.6006

> <Gold.Chemscore.Metal>
0.0000

> <Gold.Chemscore.Lipo>
98.7982

> <Gold.Chemscore.Internal_Hbond>
0.0000

> <Gold.Chemscore.DEClash>
0.9522

> <Gold.Chemscore.DEInternal>
0.5264

> <Gold.Chemscore.Rot>
1.2554

> <Gold.Chemscore.Internal.Correction>
   9.000000E+99

> <Gold.Chemscore.Hbonds>
donor molecule, donor type, donor heavy atom, donor atom, acceptor molecule, acceptor atom, score
      L1  H     7    19       P1  8028  0.89
      P1  H  7989  7998       L1    16  0.05
      P1  H 10752 10763       L1     1  0.46

> <Gold.Chemscore.Hbond.Weighted>
-5.3460

> <Gold.Chemscore.Metal.Weighted>
-0.0000

> <Gold.Chemscore.Lipo.Weighted>
-11.5594

> <Gold.Chemscore.Internal_Hbond.Weighted>
0.0000

> <Gold.Chemscore.DEClash.Weighted>
0.9522

> <Gold.Chemscore.DEInternal.Weighted>
0.5264

> <Gold.Chemscore.Rot.Weighted>
3.2139

> <Gold.Chemscore.Internal.Correction.Weighted>
   9.000000E+99

> <Gold.Protein.RotatedTorsions>
[ 6907 6896 6895 6894 ] final   -3.77 input  -60.11 | X-H torsion
[ 7974 7965 7964 7962 ] final   85.17 input  175.53 | X-H torsion
[ 8008 7997 7996 7995 ] final  153.66 input   59.86 | X-H torsion
[ 10167 10162 10161 10158 ] final -166.88 input  -65.29 | X-H torsion
[ 10718 10713 10712 10709 ] final   58.02 input   66.30 | X-H torsion
[ 10763 10752 10751 10750 ] final   10.11 input  -60.55 | X-H torsion
[ 11005 11000 10999 10996 ] final -133.76 input  -57.11 | X-H torsion

> <Gold.Protein.ActiveResidues>
 VAL166  LYS551  ARG553  GLY616  TRP617  ASP618  TYR619  PRO620  LYS621  CYS622 
 ASP623  PHE694  ASN695  SER759  ASP760  ASP761  ALA762  ILE779  LEU786  VAL792 
 PHE793  MET794  SER795  GLU796  ALA797  LYS798  CYS799  TRP800  GLU811  SER814 

> <Gold.Protein.RotatedAtoms>
  151.5085  135.1064  159.9847 H   0  0  0  0  0  0  0  0  0  0  0  0  # atno 6907 bound_to 6896
  152.4672  133.7944  159.6930 H   0  0  0  0  0  0  0  0  0  0  0  0  # atno 6908 bound_to 6896
  150.8661  133.7509  159.3002 H   0  0  0  0  0  0  0  0  0  0  0  0  # atno 6909 bound_to 6896
  145.5891  139.2335  143.2309 H   0  0  0  0  0  0  0  0  0  0  0  0  # atno 7974 bound_to 7965
  156.2570  140.1987  156.6525 H   0  0  0  0  0  0  0  0  0  0  0  0  # atno 8008 bound_to 7997
  154.6526  140.0570  156.9997 H   0  0  0  0  0  0  0  0  0  0  0  0  # atno 8009 bound_to 7997
  155.1395  140.3241  155.4458 H   0  0  0  0  0  0  0  0  0  0  0  0  # atno 8010 bound_to 7997
  139.6085  144.0862  152.1818 H   0  0  0  0  0  0  0  0  0  0  0  0  # atno 10167 bound_to 10162
  157.5563  130.8802  149.9040 H   0  0  0  0  0  0  0  0  0  0  0  0  # atno 10718 bound_to 10713
  153.2067  135.6863  153.8163 H   0  0  0  0  0  0  0  0  0  0  0  0  # atno 10763 bound_to 10752
  153.7410  135.3238  155.3305 H   0  0  0  0  0  0  0  0  0  0  0  0  # atno 10764 bound_to 10752
  154.8201  135.4658  154.0858 H   0  0  0  0  0  0  0  0  0  0  0  0  # atno 10765 bound_to 10752
  140.9052  134.1639  157.4431 H   0  0  0  0  0  0  0  0  0  0  0  0  # atno 11005 bound_to 11000
  146.1660  140.6717  142.9255 LP  0  0  0  0  0  0  0  0  0  0  0  0  # atno 17320 bound_to 7965
  144.7359  140.4807  143.6904 LP  0  0  0  0  0  0  0  0  0  0  0  0  # atno 17321 bound_to 7965
  140.0476  144.5958  150.7362 LP  0  0  0  0  0  0  0  0  0  0  0  0  # atno 17342 bound_to 10162
  140.7302  143.2681  151.3977 LP  0  0  0  0  0  0  0  0  0  0  0  0  # atno 17343 bound_to 10162
  156.0621  130.3698  150.0959 LP  0  0  0  0  0  0  0  0  0  0  0  0  # atno 17370 bound_to 10713
  156.9127  130.9657  151.3560 LP  0  0  0  0  0  0  0  0  0  0  0  0  # atno 17371 bound_to 10713
  139.8748  134.9914  156.5546 LP  0  0  0  0  0  0  0  0  0  0  0  0  # atno 17394 bound_to 11000
  140.8180  133.8376  155.8870 LP  0  0  0  0  0  0  0  0  0  0  0  0  # atno 17395 bound_to 11000

$$$$
