AV-unprocessed.smi:3184|AV-procd|sdf|12164|dock9
  -GOLD-   2272018 03D 1   1.00000     0.00000
 Structure written by MMmdl.
 34 35  0  0  0  0  0  0  0  0  1 V2000
  151.6510  139.3168  155.5543 C   0  0  0  0  0  0  0  0  0  0  0  0
  150.6310  140.4508  155.3803 C   0  0  1  0  0  0  0  0  0  0  0  0
  149.1930  139.9745  155.6608 C   0  0  0  0  0  0  0  0  0  0  0  0
  148.2022  140.9500  155.2436 N   0  0  0  0  0  0  0  0  0  0  0  0
  147.9981  141.4416  153.9614 C   0  0  0  0  0  0  0  0  0  0  0  0
  146.9661  142.3485  154.0479 C   0  0  0  0  0  0  0  0  0  0  0  0
  146.5214  142.4288  155.3655 N   0  0  0  0  0  0  0  0  0  0  0  0
  147.2990  141.5717  156.0141 C   0  0  0  0  0  0  0  0  0  0  0  0
  150.9716  141.5567  156.2730 N   0  0  0  0  0  0  0  0  0  0  0  0
  151.1117  141.4796  157.6075 C   0  0  0  0  0  0  0  0  0  0  0  0
  150.9019  140.4484  158.2474 O   0  0  0  0  0  0  0  0  0  0  0  0
  151.5187  142.6318  158.1829 N   0  0  0  0  0  0  0  0  0  0  0  0
  151.6135  143.9444  157.5362 C   0  0  0  0  0  0  0  0  0  0  0  0
  151.9252  144.9383  158.6552 C   0  0  0  0  0  0  0  0  0  0  0  0
  152.6002  144.0942  159.7266 C   0  0  0  0  0  0  0  0  0  0  0  0
  151.9593  142.7147  159.5743 C   0  0  0  0  0  0  0  0  0  0  0  0
  151.4274  138.4837  154.8874 H   0  0  0  0  0  0  0  0  0  0  0  0
  151.6511  138.9348  156.5757 H   0  0  0  0  0  0  0  0  0  0  0  0
  152.6612  139.6583  155.3256 H   0  0  0  0  0  0  0  0  0  0  0  0
  150.6756  140.7817  154.3410 H   0  0  0  0  0  0  0  0  0  0  0  0
  148.9941  139.0435  155.1287 H   0  0  0  0  0  0  0  0  0  0  0  0
  149.0558  139.7641  156.7227 H   0  0  0  0  0  0  0  0  0  0  0  0
  148.5904  141.1177  153.1184 H   0  0  0  0  0  0  0  0  0  0  0  0
  146.5134  142.9452  153.2698 H   0  0  0  0  0  0  0  0  0  0  0  0
  147.2141  141.3973  157.0768 H   0  0  0  0  0  0  0  0  0  0  0  0
  151.1583  142.4480  155.8369 H   0  0  0  0  0  0  0  0  0  0  0  0
  152.4253  143.9236  156.8072 H   0  0  0  0  0  0  0  0  0  0  0  0
  150.6939  144.2172  157.0163 H   0  0  0  0  0  0  0  0  0  0  0  0
  152.5431  145.7721  158.3206 H   0  0  0  0  0  0  0  0  0  0  0  0
  150.9946  145.3493  159.0489 H   0  0  0  0  0  0  0  0  0  0  0  0
  153.6686  144.0260  159.5171 H   0  0  0  0  0  0  0  0  0  0  0  0
  152.4820  144.5071  160.7289 H   0  0  0  0  0  0  0  0  0  0  0  0
  151.0900  142.6214  160.2267 H   0  0  0  0  0  0  0  0  0  0  0  0
  152.6630  141.9214  159.8316 H   0  0  0  0  0  0  0  0  0  0  0  0
  1  2  1  0  0  0  0
  1 17  1  0  0  0  0
  1 18  1  0  0  0  0
  1 19  1  0  0  0  0
  2  3  1  0  0  0  0
  2  9  1  0  0  0  0
  2 20  1  0  0  0  0
  3  4  1  0  0  0  0
  3 21  1  0  0  0  0
  3 22  1  0  0  0  0
  4  8  1  0  0  0  0
  4  5  1  0  0  0  0
  5  6  2  0  0  0  0
  5 23  1  0  0  0  0
  6  7  1  0  0  0  0
  6 24  1  0  0  0  0
  7  8  2  0  0  0  0
  8 25  1  0  0  0  0
  9 10  1  0  0  0  0
  9 26  1  0  0  0  0
 10 11  2  0  0  0  0
 10 12  1  0  0  0  0
 12 16  1  0  0  0  0
 12 13  1  0  0  0  0
 13 14  1  0  0  0  0
 13 27  1  0  0  0  0
 13 28  1  0  0  0  0
 14 15  1  0  0  0  0
 14 29  1  0  0  0  0
 14 30  1  0  0  0  0
 15 16  1  0  0  0  0
 15 31  1  0  0  0  0
 15 32  1  0  0  0  0
 16 33  1  0  0  0  0
 16 34  1  0  0  0  0
M  END
> <s_m_source_file>
AV-unprocessed.smi

> <i_m_source_file_index>
3184

> <i_lp_mmshare_version>
43012

> <i_f3d_flags>
0

> <s_epik_input>
W2NIXTFuW2NIXVtjSF1uMVtDSDJdW0NAQEhdKFtDSDNdKVtOSF1DKD1PKU4yW0NIMl1bQ0gyXVtDSDJdW0NIMl0y

> <s_epik_cmdline>
J2VwaWtfcHl0aG9uJywgJy1waCcsICc3LjAnLCAnLXRuJywgJzgnLCAnLW1hJywgJzIwMCcsICctbWV0YWxfYmluZGluZycsICctaW1hZScsICc8aW5maWxlLm1hZT4nLCAnLW9tYWUnLCAnPG91dGZpbGUubWFlPic=

> <r_lp_tautomer_probability>
1

> <r_epik_Ionization_Penalty>
0.625774

> <r_epik_Ionization_Penalty_Charging>
0.625709

> <r_epik_Ionization_Penalty_Neutral>
6.46152e-05

> <r_epik_State_Penalty>
0.642123

> <r_epik_Charging_Adjusted_Penalty>
1.26783

> <i_epik_Tot_Q>
0

> <i_epik_Tot_abs_Q>
0

> <r_epik_Metal_State_Penalty>
0.307922

> <b_epik_Metal_Only>
0

> <s_lp_Force_Field>
OPLS_2005

> <r_lp_Energy>
35.7196

> <b_lp_Chiralities_Consistent>
1

> <s_lp_Variant>
AV-unprocessed.smi:3184-4

> <Gold.Version>
5.8.1

> <Gold.Id.Protein>
6NUR|6NUR_protein|mol2

> <Gold.PLP.Fitness>
38.1951

> <Gold.PLP.PLP>
-35.4428

> <Gold.PLP.part.hbond>
0.0000

> <Gold.PLP.part.metal>
0.0000

> <Gold.PLP.part.buried>
-3.9270

> <Gold.PLP.part.nonpolar>
-32.8168

> <Gold.PLP.part.repulsive>
0.2855

> <Gold.PLP.ligand.clash>
0.0000

> <Gold.PLP.ligand.torsion>
0.1318

> <Gold.PLP.Chemscore.Hbond>
0.0000

> <Gold.PLP.Chemscore.CHOScore>
1.0000

> <Gold.PLP.Chemscore.Metal>
0.0000

> <Gold.Chemscore.Hbonds>
donor molecule, donor type, donor heavy atom, donor atom, acceptor molecule, acceptor atom, score
      L1  C     5    23       P1  7957  1.00

> <Gold.PLP.Chemscore.Internal.Correction>
0.0159

> <Gold.Rescore>
     Score         DG    S(hbond)    S(metal)    S(lipo)     H(rot)  DE(clash)    DE(int)     intcor
     10.13     -11.22       0.00        0.00      84.08       1.60       0.07       1.02       ----

> <Gold.Chemscore.Fitness>
10.1283

> <Gold.Chemscore.DG>
-11.2190

> <Gold.Chemscore.ZeroCoef>
-5.4800

> <Gold.Chemscore.Hbond>
0.0000

> <Gold.Chemscore.Metal>
0.0000

> <Gold.Chemscore.Lipo>
84.0800

> <Gold.Chemscore.Internal_Hbond>
0.0000

> <Gold.Chemscore.DEClash>
0.0659

> <Gold.Chemscore.DEInternal>
1.0248

> <Gold.Chemscore.Rot>
1.6009

> <Gold.Chemscore.Internal.Correction>
   9.000000E+99

> <Gold.Chemscore.Hbond.Weighted>
-0.0000

> <Gold.Chemscore.Metal.Weighted>
-0.0000

> <Gold.Chemscore.Lipo.Weighted>
-9.8374

> <Gold.Chemscore.Internal_Hbond.Weighted>
0.0000

> <Gold.Chemscore.DEClash.Weighted>
0.0659

> <Gold.Chemscore.DEInternal.Weighted>
1.0248

> <Gold.Chemscore.Rot.Weighted>
4.0983

> <Gold.Chemscore.Internal.Correction.Weighted>
   9.000000E+99

> <Gold.Protein.RotatedTorsions>
[ 6907 6896 6895 6894 ] final -111.61 input  -60.11 | X-H torsion
[ 7974 7965 7964 7962 ] final  -30.65 input  175.53 | X-H torsion
[ 8008 7997 7996 7995 ] final  145.01 input   59.86 | X-H torsion
[ 10167 10162 10161 10158 ] final   48.95 input  -65.29 | X-H torsion
[ 10718 10713 10712 10709 ] final  176.69 input   66.30 | X-H torsion
[ 10763 10752 10751 10750 ] final  -47.06 input  -60.55 | X-H torsion
[ 11005 11000 10999 10996 ] final -150.01 input  -57.11 | X-H torsion

> <Gold.Protein.ActiveResidues>
 VAL166  LYS551  ARG553  GLY616  TRP617  ASP618  TYR619  PRO620  LYS621  CYS622 
 ASP623  PHE694  ASN695  SER759  ASP760  ASP761  ALA762  ILE779  LEU786  VAL792 
 PHE793  MET794  SER795  GLU796  ALA797  LYS798  CYS799  TRP800  GLU811  SER814 

> <Gold.Protein.RotatedAtoms>
  150.7702  133.9210  159.3397 H   0  0  0  0  0  0  0  0  0  0  0  0  # atno 6907 bound_to 6896
  151.7098  135.0913  160.0275 H   0  0  0  0  0  0  0  0  0  0  0  0  # atno 6908 bound_to 6896
  152.3716  133.6388  159.6127 H   0  0  0  0  0  0  0  0  0  0  0  0  # atno 6909 bound_to 6896
  146.1127  140.5567  142.8771 H   0  0  0  0  0  0  0  0  0  0  0  0  # atno 7974 bound_to 7965
  156.2894  140.2220  156.5146 H   0  0  0  0  0  0  0  0  0  0  0  0  # atno 8008 bound_to 7997
  154.7579  140.0475  157.0971 H   0  0  0  0  0  0  0  0  0  0  0  0  # atno 8009 bound_to 7997
  155.0027  140.3103  155.4864 H   0  0  0  0  0  0  0  0  0  0  0  0  # atno 8010 bound_to 7997
  140.2879  144.3080  150.6247 H   0  0  0  0  0  0  0  0  0  0  0  0  # atno 10167 bound_to 10162
  156.9165  130.9926  151.3012 H   0  0  0  0  0  0  0  0  0  0  0  0  # atno 10718 bound_to 10713
  154.0552  135.6625  153.4805 H   0  0  0  0  0  0  0  0  0  0  0  0  # atno 10763 bound_to 10752
  153.0448  135.5121  154.7713 H   0  0  0  0  0  0  0  0  0  0  0  0  # atno 10764 bound_to 10752
  154.6731  135.3033  154.9681 H   0  0  0  0  0  0  0  0  0  0  0  0  # atno 10765 bound_to 10752
  140.7447  134.3474  157.5139 H   0  0  0  0  0  0  0  0  0  0  0  0  # atno 11005 bound_to 11000
  144.7525  140.5227  143.6791 LP  0  0  0  0  0  0  0  0  0  0  0  0  # atno 17320 bound_to 7965
  145.5631  139.1480  143.3330 LP  0  0  0  0  0  0  0  0  0  0  0  0  # atno 17321 bound_to 7965
  140.5757  143.2177  151.7520 LP  0  0  0  0  0  0  0  0  0  0  0  0  # atno 17342 bound_to 10162
  139.4945  144.4153  152.0036 LP  0  0  0  0  0  0  0  0  0  0  0  0  # atno 17343 bound_to 10162
  157.5935  130.8461  149.8694 LP  0  0  0  0  0  0  0  0  0  0  0  0  # atno 17370 bound_to 10713
  156.0511  130.3717  150.1199 LP  0  0  0  0  0  0  0  0  0  0  0  0  # atno 17371 bound_to 10713
  139.8799  134.9104  156.3012 LP  0  0  0  0  0  0  0  0  0  0  0  0  # atno 17394 bound_to 11000
  140.9805  133.7270  156.0664 LP  0  0  0  0  0  0  0  0  0  0  0  0  # atno 17395 bound_to 11000

$$$$
