AV-unprocessed.smi:1430|AV-procd|sdf|5828|dock2
  -GOLD-   22720 5483D 1   1.00000     0.00000
 Structure written by MMmdl.
 47 48  0  0  0  0  0  0  0  0  2 V2000
  152.2471  140.8791  158.7493 C   0  0  0  0  0  0  0  0  0  0  0  0
  152.7381  139.9642  157.7756 O   0  0  0  0  0  0  0  0  0  0  0  0
  151.9207  139.6365  156.7137 C   0  0  0  0  0  0  0  0  0  0  0  0
  152.3834  138.6980  155.7709 C   0  0  0  0  0  0  0  0  0  0  0  0
  151.5511  138.3587  154.6880 C   0  0  0  0  0  0  0  0  0  0  0  0
  150.2815  138.9614  154.5763 C   0  0  0  0  0  0  0  0  0  0  0  0
  149.4765  138.5966  153.4615 N   0  0  0  0  0  0  0  0  0  0  0  0
  148.4143  139.2300  152.9338 C   0  0  0  0  0  0  0  0  0  0  0  0
  147.9250  140.2802  153.3476 O   0  0  0  0  0  0  0  0  0  0  0  0
  147.9300  138.5633  151.8764 N   0  0  0  0  0  0  0  0  0  0  0  0
  146.7809  138.9820  151.0815 C   0  0  0  0  0  0  0  0  0  0  0  0
  146.1773  137.7999  150.2991 C   0  0  0  0  0  0  0  0  0  0  0  0
  145.9232  136.6171  151.1638 N   0  3  1  0  0  0  0  0  0  0  0  0
  144.8984  136.8572  152.2093 C   0  0  0  0  0  0  0  0  0  0  0  0
  143.4736  136.8089  151.6199 C   0  0  2  0  0  0  0  0  0  0  0  0
  142.3973  136.9667  152.6996 C   0  0  0  0  0  0  0  0  0  0  0  0
  143.2805  135.5500  150.9840 O   0  0  0  0  0  0  0  0  0  0  0  0
  144.1794  135.3321  149.9018 C   0  0  2  0  0  0  0  0  0  0  0  0
  143.8265  133.9875  149.2566 C   0  0  0  0  0  0  0  0  0  0  0  0
  145.6291  135.3576  150.4331 C   0  0  0  0  0  0  0  0  0  0  0  0
  149.9124  139.9008  155.5712 C   0  0  0  0  0  0  0  0  0  0  0  0
  150.7058  140.2295  156.6129 N   0  0  0  0  0  0  0  0  0  0  0  0
  153.0060  141.0305  159.5166 H   0  0  0  0  0  0  0  0  0  0  0  0
  151.3516  140.4961  159.2409 H   0  0  0  0  0  0  0  0  0  0  0  0
  152.0250  141.8516  158.3077 H   0  0  0  0  0  0  0  0  0  0  0  0
  153.3591  138.2469  155.8767 H   0  0  0  0  0  0  0  0  0  0  0  0
  151.8870  137.6416  153.9528 H   0  0  0  0  0  0  0  0  0  0  0  0
  149.7259  137.7209  153.0256 H   0  0  0  0  0  0  0  0  0  0  0  0
  148.3858  137.7039  151.6050 H   0  0  0  0  0  0  0  0  0  0  0  0
  146.0514  139.4061  151.7700 H   0  0  0  0  0  0  0  0  0  0  0  0
  147.0690  139.7847  150.4005 H   0  0  0  0  0  0  0  0  0  0  0  0
  145.2286  138.1253  149.8697 H   0  0  0  0  0  0  0  0  0  0  0  0
  146.8157  137.5344  149.4566 H   0  0  0  0  0  0  0  0  0  0  0  0
  145.0034  136.0835  152.9714 H   0  0  0  0  0  0  0  0  0  0  0  0
  145.0809  137.8067  152.7138 H   0  0  0  0  0  0  0  0  0  0  0  0
  143.3425  137.6067  150.8871 H   0  0  0  0  0  0  0  0  0  0  0  0
  142.4902  137.9258  153.2097 H   0  0  0  0  0  0  0  0  0  0  0  0
  142.4713  136.1792  153.4501 H   0  0  0  0  0  0  0  0  0  0  0  0
  141.3989  136.9183  152.2642 H   0  0  0  0  0  0  0  0  0  0  0  0
  144.0364  136.1135  149.1545 H   0  0  0  0  0  0  0  0  0  0  0  0
  144.4819  133.7726  148.4123 H   0  0  0  0  0  0  0  0  0  0  0  0
  142.8005  133.9898  148.8877 H   0  0  0  0  0  0  0  0  0  0  0  0
  143.9204  133.1689  149.9708 H   0  0  0  0  0  0  0  0  0  0  0  0
  146.3399  135.1954  149.6240 H   0  0  0  0  0  0  0  0  0  0  0  0
  145.7716  134.5287  151.1278 H   0  0  0  0  0  0  0  0  0  0  0  0
  148.9721  140.4271  155.5511 H   0  0  0  0  0  0  0  0  0  0  0  0
  146.7898  136.4670  151.6607 H   0  0  0  0  0  0  0  0  0  0  0  0
  1  2  1  0  0  0  0
  1 23  1  0  0  0  0
  1 24  1  0  0  0  0
  1 25  1  0  0  0  0
  2  3  1  0  0  0  0
  3 22  1  0  0  0  0
  3  4  2  0  0  0  0
  4  5  1  0  0  0  0
  4 26  1  0  0  0  0
  5  6  2  0  0  0  0
  5 27  1  0  0  0  0
  6  7  1  0  0  0  0
  6 21  1  0  0  0  0
  7  8  1  0  0  0  0
  7 28  1  0  0  0  0
  8  9  2  0  0  0  0
  8 10  1  0  0  0  0
 10 11  1  0  0  0  0
 10 29  1  0  0  0  0
 11 12  1  0  0  0  0
 11 30  1  0  0  0  0
 11 31  1  0  0  0  0
 12 13  1  0  0  0  0
 12 32  1  0  0  0  0
 12 33  1  0  0  0  0
 13 20  1  0  0  0  0
 13 14  1  0  0  0  0
 13 47  1  0  0  0  0
 14 15  1  0  0  0  0
 14 34  1  0  0  0  0
 14 35  1  0  0  0  0
 15 16  1  0  0  0  0
 15 17  1  0  0  0  0
 15 36  1  0  0  0  0
 16 37  1  0  0  0  0
 16 38  1  0  0  0  0
 16 39  1  0  0  0  0
 17 18  1  0  0  0  0
 18 19  1  0  0  0  0
 18 20  1  0  0  0  0
 18 40  1  0  0  0  0
 19 41  1  0  0  0  0
 19 42  1  0  0  0  0
 19 43  1  0  0  0  0
 20 44  1  0  0  0  0
 20 45  1  0  0  0  0
 21 22  2  0  0  0  0
 21 46  1  0  0  0  0
M  CHG  1  13   1
M  END
> <s_m_source_file>
AV-unprocessed.smi

> <i_m_source_file_index>
1430

> <i_lp_mmshare_version>
43012

> <i_f3d_flags>
0

> <s_epik_input>
W0NIM11PYzFbY0hdW2NIXWMoW2NIXW4xKVtOSF1DKD1PKVtOSF1bQ0gyXVtDSDJdTjJbQ0gyXVtDQEBIXShbQ0gzXSlPW0NAQEhdKFtDSDNdKVtDSDJdMg==

> <s_epik_cmdline>
J2VwaWtfcHl0aG9uJywgJy1waCcsICc3LjAnLCAnLXRuJywgJzgnLCAnLW1hJywgJzIwMCcsICctbWV0YWxfYmluZGluZycsICctaW1hZScsICc8aW5maWxlLm1hZT4nLCAnLW9tYWUnLCAnPG91dGZpbGUubWFlPic=

> <r_lp_tautomer_probability>
1

> <r_epik_Ionization_Penalty>
0.602607

> <r_epik_Ionization_Penalty_Charging>
0.602531

> <r_epik_Ionization_Penalty_Neutral>
7.66983e-05

> <r_epik_State_Penalty>
0.617039

> <r_epik_Charging_Adjusted_Penalty>
1.21957

> <i_epik_Tot_Q>
1

> <i_epik_Tot_abs_Q>
1

> <r_epik_Metal_State_Penalty>
0.617043

> <b_epik_Metal_Only>
0

> <s_lp_Force_Field>
OPLS_2005

> <r_lp_Energy>
19.3268

> <b_lp_Chiralities_Consistent>
1

> <s_lp_Variant>
AV-unprocessed.smi:1430-7

> <Gold.Version>
5.8.1

> <Gold.Id.Protein>
6NUR|6NUR_protein|mol2

> <Gold.PLP.Fitness>
48.5333

> <Gold.PLP.PLP>
-34.9469

> <Gold.PLP.part.hbond>
-5.8468

> <Gold.PLP.part.metal>
0.0000

> <Gold.PLP.part.buried>
2.8550

> <Gold.PLP.part.nonpolar>
-33.0905

> <Gold.PLP.part.repulsive>
0.5187

> <Gold.PLP.ligand.clash>
0.0000

> <Gold.PLP.ligand.torsion>
0.2916

> <Gold.PLP.Chemscore.Hbond>
4.6593

> <Gold.PLP.Chemscore.CHOScore>
0.0000

> <Gold.PLP.Chemscore.Metal>
0.0000

> <Gold.Chemscore.Hbonds>
donor molecule, donor type, donor heavy atom, donor atom, acceptor molecule, acceptor atom, score
      L1  H     7    28       P1  7948  0.86
      L1  H    10    29       P1  7948  1.00
      L1  H    13    47       P1  7948  1.37
      P1  H  7997  8008       L1     2  1.00

> <Gold.PLP.Chemscore.Internal.Correction>
0.1918

> <Gold.Rescore>
     Score         DG    S(hbond)    S(metal)    S(lipo)     H(rot)  DE(clash)    DE(int)     intcor
     19.21     -22.17       3.43        0.00      83.37       1.76       1.72       1.25       ----

> <Gold.Chemscore.Fitness>
19.2103

> <Gold.Chemscore.DG>
-22.1747

> <Gold.Chemscore.ZeroCoef>
-5.4800

> <Gold.Chemscore.Hbond>
3.4275

> <Gold.Chemscore.Metal>
0.0000

> <Gold.Chemscore.Lipo>
83.3674

> <Gold.Chemscore.Internal_Hbond>
0.0000

> <Gold.Chemscore.DEClash>
1.7154

> <Gold.Chemscore.DEInternal>
1.2490

> <Gold.Chemscore.Rot>
1.7606

> <Gold.Chemscore.Internal.Correction>
   9.000000E+99

> <Gold.Chemscore.Hbonds>
donor molecule, donor type, donor heavy atom, donor atom, acceptor molecule, acceptor atom, score
      L1  H     7    28       P1  7948  0.49
      L1  H    10    29       P1  7948  0.94
      L1  H    13    47       P1  7948  0.67
      P1  H  7997  8008       L1     2  0.29

> <Gold.Chemscore.Hbond.Weighted>
-11.4479

> <Gold.Chemscore.Metal.Weighted>
-0.0000

> <Gold.Chemscore.Lipo.Weighted>
-9.7540

> <Gold.Chemscore.Internal_Hbond.Weighted>
0.0000

> <Gold.Chemscore.DEClash.Weighted>
1.7154

> <Gold.Chemscore.DEInternal.Weighted>
1.2490

> <Gold.Chemscore.Rot.Weighted>
4.5072

> <Gold.Chemscore.Internal.Correction.Weighted>
   9.000000E+99

> <Gold.Protein.RotatedTorsions>
[ 6907 6896 6895 6894 ] final  -13.49 input  -60.11 | X-H torsion
[ 7974 7965 7964 7962 ] final   38.81 input  175.53 | X-H torsion
[ 8008 7997 7996 7995 ] final  -74.83 input   59.86 | X-H torsion
[ 10167 10162 10161 10158 ] final  -78.27 input  -65.29 | X-H torsion
[ 10718 10713 10712 10709 ] final -147.83 input   66.30 | X-H torsion
[ 10763 10752 10751 10750 ] final  -67.93 input  -60.55 | X-H torsion
[ 11005 11000 10999 10996 ] final  165.35 input  -57.11 | X-H torsion

> <Gold.Protein.ActiveResidues>
 VAL166  LYS551  ARG553  GLY616  TRP617  ASP618  TYR619  PRO620  LYS621  CYS622 
 ASP623  PHE694  ASN695  SER759  ASP760  ASP761  ALA762  ILE779  LEU786  VAL792 
 PHE793  MET794  SER795  GLU796  ALA797  LYS798  CYS799  TRP800  GLU811  SER814 

> <Gold.Protein.RotatedAtoms>
  151.3541  135.0890  159.9412 H   0  0  0  0  0  0  0  0  0  0  0  0  # atno 6907 bound_to 6896
  152.5179  133.9323  159.7597 H   0  0  0  0  0  0  0  0  0  0  0  0  # atno 6908 bound_to 6896
  150.9705  133.6295  159.2768 H   0  0  0  0  0  0  0  0  0  0  0  0  # atno 6909 bound_to 6896
  146.1033  139.5728  142.9400 H   0  0  0  0  0  0  0  0  0  0  0  0  # atno 7974 bound_to 7965
  154.5364  140.0754  156.8435 H   0  0  0  0  0  0  0  0  0  0  0  0  # atno 8008 bound_to 7997
  155.3269  140.3399  155.4222 H   0  0  0  0  0  0  0  0  0  0  0  0  # atno 8009 bound_to 7997
  156.1832  140.1659  156.8221 H   0  0  0  0  0  0  0  0  0  0  0  0  # atno 8010 bound_to 7997
  140.4697  143.2430  151.8223 H   0  0  0  0  0  0  0  0  0  0  0  0  # atno 10167 bound_to 10162
  156.4124  130.7988  151.2206 H   0  0  0  0  0  0  0  0  0  0  0  0  # atno 10718 bound_to 10713
  154.3816  135.6073  153.5794 H   0  0  0  0  0  0  0  0  0  0  0  0  # atno 10763 bound_to 10752
  152.9788  135.5862  154.4403 H   0  0  0  0  0  0  0  0  0  0  0  0  # atno 10764 bound_to 10752
  154.4173  135.2845  155.1976 H   0  0  0  0  0  0  0  0  0  0  0  0  # atno 10765 bound_to 10752
  140.2552  134.7945  157.3539 H   0  0  0  0  0  0  0  0  0  0  0  0  # atno 11005 bound_to 11000
  145.5810  141.0382  143.2122 LP  0  0  0  0  0  0  0  0  0  0  0  0  # atno 17320 bound_to 7965
  144.7450  139.7343  143.7295 LP  0  0  0  0  0  0  0  0  0  0  0  0  # atno 17321 bound_to 7965
  139.4817  144.4907  151.9189 LP  0  0  0  0  0  0  0  0  0  0  0  0  # atno 17342 bound_to 10162
  140.3992  144.2515  150.5894 LP  0  0  0  0  0  0  0  0  0  0  0  0  # atno 17343 bound_to 10162
  157.7507  131.0253  150.3914 LP  0  0  0  0  0  0  0  0  0  0  0  0  # atno 17370 bound_to 10713
  156.4215  130.3954  149.6821 LP  0  0  0  0  0  0  0  0  0  0  0  0  # atno 17371 bound_to 10713
  140.1518  134.4840  155.7956 LP  0  0  0  0  0  0  0  0  0  0  0  0  # atno 17394 bound_to 11000
  141.2197  133.6865  156.7392 LP  0  0  0  0  0  0  0  0  0  0  0  0  # atno 17395 bound_to 11000

$$$$
