AV-unprocessed.smi:1768|AV-procd|sdf|7143|dock2
  -GOLD-   22720 8383D 1   1.00000     0.00000
 Structure written by MMmdl.
 33 34  0  0  0  0  0  0  0  0  1 V2000
  150.9924  142.4080  156.3417 C   0  0  0  0  0  0  0  0  0  0  0  0
  150.6082  141.2299  155.5134 C   0  0  0  0  0  0  0  0  0  0  0  0
  151.4869  140.2968  155.1272 N   0  0  0  0  0  0  0  0  0  0  0  0
  150.8947  139.2996  154.3646 N   0  0  0  0  0  0  0  0  0  0  0  0
  149.5823  139.5118  154.1968 C   0  0  0  0  0  0  0  0  0  0  0  0
  148.7305  138.6494  153.4571 N   0  0  0  0  0  0  0  0  0  0  0  0
  147.3983  138.7306  153.2950 C   0  0  0  0  0  0  0  0  0  0  0  0
  146.6760  139.6068  153.7707 O   0  0  0  0  0  0  0  0  0  0  0  0
  146.9442  137.7264  152.5303 N   0  0  0  0  0  0  0  0  0  0  0  0
  145.5519  137.5030  152.1433 C   0  0  2  0  0  0  0  0  0  0  0  0
  144.6651  137.6383  153.3897 C   0  0  0  0  0  0  0  0  0  0  0  0
  145.3953  136.1216  151.4747 C   0  0  2  0  0  0  0  0  0  0  0  0
  143.9498  135.6765  151.2404 C   0  0  0  0  0  0  0  0  0  0  0  0
  144.0992  134.1743  151.1769 C   0  0  0  0  0  0  0  0  0  0  0  0
  145.1521  133.9230  152.2513 C   0  0  0  0  0  0  0  0  0  0  0  0
  145.9561  135.0993  152.2964 O   0  0  0  0  0  0  0  0  0  0  0  0
  148.9586  140.9628  154.9635 S   0  0  0  0  0  0  0  0  0  0  0  0
  151.9898  142.2740  156.7618 H   0  0  0  0  0  0  0  0  0  0  0  0
  150.2842  142.5358  157.1607 H   0  0  0  0  0  0  0  0  0  0  0  0
  150.9881  143.3101  155.7299 H   0  0  0  0  0  0  0  0  0  0  0  0
  149.1911  137.8785  152.9964 H   0  0  0  0  0  0  0  0  0  0  0  0
  147.6167  137.0579  152.1844 H   0  0  0  0  0  0  0  0  0  0  0  0
  145.2358  138.2667  151.4303 H   0  0  0  0  0  0  0  0  0  0  0  0
  143.6109  137.5186  153.1382 H   0  0  0  0  0  0  0  0  0  0  0  0
  144.7807  138.6203  153.8499 H   0  0  0  0  0  0  0  0  0  0  0  0
  144.9154  136.8869  154.1392 H   0  0  0  0  0  0  0  0  0  0  0  0
  145.9264  136.1049  150.5212 H   0  0  0  0  0  0  0  0  0  0  0  0
  143.3193  135.9519  152.0873 H   0  0  0  0  0  0  0  0  0  0  0  0
  143.5129  136.1004  150.3358 H   0  0  0  0  0  0  0  0  0  0  0  0
  143.1668  133.6396  151.3590 H   0  0  0  0  0  0  0  0  0  0  0  0
  144.4803  133.8776  150.1988 H   0  0  0  0  0  0  0  0  0  0  0  0
  144.6791  133.7913  153.2252 H   0  0  0  0  0  0  0  0  0  0  0  0
  145.7529  133.0373  152.0442 H   0  0  0  0  0  0  0  0  0  0  0  0
  1  2  1  0  0  0  0
  1 18  1  0  0  0  0
  1 19  1  0  0  0  0
  1 20  1  0  0  0  0
  2 17  1  0  0  0  0
  2  3  2  0  0  0  0
  3  4  1  0  0  0  0
  4  5  2  0  0  0  0
  5  6  1  0  0  0  0
  5 17  1  0  0  0  0
  6  7  1  0  0  0  0
  6 21  1  0  0  0  0
  7  8  2  0  0  0  0
  7  9  1  0  0  0  0
  9 10  1  0  0  0  0
  9 22  1  0  0  0  0
 10 11  1  0  0  0  0
 10 12  1  0  0  0  0
 10 23  1  0  0  0  0
 11 24  1  0  0  0  0
 11 25  1  0  0  0  0
 11 26  1  0  0  0  0
 12 16  1  0  0  0  0
 12 13  1  0  0  0  0
 12 27  1  0  0  0  0
 13 14  1  0  0  0  0
 13 28  1  0  0  0  0
 13 29  1  0  0  0  0
 14 15  1  0  0  0  0
 14 30  1  0  0  0  0
 14 31  1  0  0  0  0
 15 16  1  0  0  0  0
 15 32  1  0  0  0  0
 15 33  1  0  0  0  0
M  END
> <s_m_source_file>
AV-unprocessed.smi

> <i_m_source_file_index>
1768

> <i_lp_mmshare_version>
43012

> <i_f3d_flags>
0

> <s_epik_input>
W0NIM11jMW5uYyhzMSlbTkhdQyg9TylbTkhdW0NASF0oW0NIM10pW0NAQEhdMltDSDJdW0NIMl1bQ0gyXU8y

> <s_epik_cmdline>
J2VwaWtfcHl0aG9uJywgJy1waCcsICc3LjAnLCAnLXRuJywgJzgnLCAnLW1hJywgJzIwMCcsICctbWV0YWxfYmluZGluZycsICctaW1hZScsICc8aW5maWxlLm1hZT4nLCAnLW9tYWUnLCAnPG91dGZpbGUubWFlPic=

> <r_lp_tautomer_probability>
1

> <r_epik_Ionization_Penalty>
0.000523083

> <r_epik_Ionization_Penalty_Charging>
0

> <r_epik_Ionization_Penalty_Neutral>
0.000523083

> <r_epik_State_Penalty>
-0

> <r_epik_Charging_Adjusted_Penalty>
0

> <i_epik_Tot_Q>
0

> <i_epik_Tot_abs_Q>
0

> <r_epik_Metal_State_Penalty>
0.223408

> <b_epik_Metal_Only>
0

> <s_lp_Force_Field>
OPLS_2005

> <r_lp_Energy>
16.8922

> <b_lp_Chiralities_Consistent>
1

> <s_lp_Variant>
AV-unprocessed.smi:1768-1

> <Gold.Version>
5.8.1

> <Gold.Id.Protein>
6NUR|6NUR_protein|mol2

> <Gold.PLP.Fitness>
33.4400

> <Gold.PLP.PLP>
-28.0384

> <Gold.PLP.part.hbond>
-5.0000

> <Gold.PLP.part.metal>
0.0000

> <Gold.PLP.part.buried>
-3.5193

> <Gold.PLP.part.nonpolar>
-19.4913

> <Gold.PLP.part.repulsive>
0.5464

> <Gold.PLP.ligand.clash>
0.0000

> <Gold.PLP.ligand.torsion>
0.2190

> <Gold.PLP.Chemscore.Hbond>
1.9440

> <Gold.PLP.Chemscore.CHOScore>
0.0000

> <Gold.PLP.Chemscore.Metal>
0.0000

> <Gold.Chemscore.Hbonds>
donor molecule, donor type, donor heavy atom, donor atom, acceptor molecule, acceptor atom, score
      L1  H     6    21       P1  7948  0.94
      L1  H     9    22       P1  7948  1.00

> <Gold.PLP.Chemscore.Internal.Correction>
0.0077

> <Gold.Rescore>
     Score         DG    S(hbond)    S(metal)    S(lipo)     H(rot)  DE(clash)    DE(int)     intcor
     11.92     -14.59       1.95        0.00      50.57       1.29       0.00       2.67       ----

> <Gold.Chemscore.Fitness>
11.9194

> <Gold.Chemscore.DG>
-14.5909

> <Gold.Chemscore.ZeroCoef>
-5.4800

> <Gold.Chemscore.Hbond>
1.9466

> <Gold.Chemscore.Metal>
0.0000

> <Gold.Chemscore.Lipo>
50.5670

> <Gold.Chemscore.Internal_Hbond>
0.0000

> <Gold.Chemscore.DEClash>
0.0038

> <Gold.Chemscore.DEInternal>
2.6677

> <Gold.Chemscore.Rot>
1.2919

> <Gold.Chemscore.Internal.Correction>
   9.000000E+99

> <Gold.Chemscore.Hbonds>
donor molecule, donor type, donor heavy atom, donor atom, acceptor molecule, acceptor atom, score
      L1  H     6    21       P1  7948  0.87
      L1  H     9    22       P1  7948  0.98

> <Gold.Chemscore.Hbond.Weighted>
-6.5017

> <Gold.Chemscore.Metal.Weighted>
-0.0000

> <Gold.Chemscore.Lipo.Weighted>
-5.9163

> <Gold.Chemscore.Internal_Hbond.Weighted>
0.0000

> <Gold.Chemscore.DEClash.Weighted>
0.0038

> <Gold.Chemscore.DEInternal.Weighted>
2.6677

> <Gold.Chemscore.Rot.Weighted>
3.3072

> <Gold.Chemscore.Internal.Correction.Weighted>
   9.000000E+99

> <Gold.Protein.RotatedTorsions>
[ 6907 6896 6895 6894 ] final  -34.77 input  -60.11 | X-H torsion
[ 7974 7965 7964 7962 ] final    0.75 input  175.53 | X-H torsion
[ 8008 7997 7996 7995 ] final  152.70 input   59.86 | X-H torsion
[ 10167 10162 10161 10158 ] final  -27.80 input  -65.29 | X-H torsion
[ 10718 10713 10712 10709 ] final   40.94 input   66.30 | X-H torsion
[ 10763 10752 10751 10750 ] final    0.18 input  -60.55 | X-H torsion
[ 11005 11000 10999 10996 ] final -145.74 input  -57.11 | X-H torsion

> <Gold.Protein.ActiveResidues>
 VAL166  LYS551  ARG553  GLY616  TRP617  ASP618  TYR619  PRO620  LYS621  CYS622 
 ASP623  PHE694  ASN695  SER759  ASP760  ASP761  ALA762  ILE779  LEU786  VAL792 
 PHE793  MET794  SER795  GLU796  ALA797  LYS798  CYS799  TRP800  GLU811  SER814 

> <Gold.Protein.RotatedAtoms>
  151.0484  134.9656  159.8198 H   0  0  0  0  0  0  0  0  0  0  0  0  # atno 6907 bound_to 6896
  152.5376  134.2569  159.8930 H   0  0  0  0  0  0  0  0  0  0  0  0  # atno 6908 bound_to 6896
  151.2583  133.4272  159.2648 H   0  0  0  0  0  0  0  0  0  0  0  0  # atno 6909 bound_to 6896
  146.2436  140.1090  142.8344 H   0  0  0  0  0  0  0  0  0  0  0  0  # atno 7974 bound_to 7965
  156.2616  140.2013  156.6375 H   0  0  0  0  0  0  0  0  0  0  0  0  # atno 8008 bound_to 7997
  154.6635  140.0558  157.0113 H   0  0  0  0  0  0  0  0  0  0  0  0  # atno 8009 bound_to 7997
  155.1241  140.3227  155.4493 H   0  0  0  0  0  0  0  0  0  0  0  0  # atno 8010 bound_to 7997
  140.7275  143.4063  151.1180 H   0  0  0  0  0  0  0  0  0  0  0  0  # atno 10167 bound_to 10162
  157.3880  130.7790  149.7246 H   0  0  0  0  0  0  0  0  0  0  0  0  # atno 10718 bound_to 10713
  153.3239  135.6971  153.7006 H   0  0  0  0  0  0  0  0  0  0  0  0  # atno 10763 bound_to 10752
  153.5835  135.3493  155.2884 H   0  0  0  0  0  0  0  0  0  0  0  0  # atno 10764 bound_to 10752
  154.8604  135.4301  154.2411 H   0  0  0  0  0  0  0  0  0  0  0  0  # atno 10765 bound_to 10752
  140.7891  134.2989  157.5019 H   0  0  0  0  0  0  0  0  0  0  0  0  # atno 11005 bound_to 11000
  145.0503  140.9012  143.4999 LP  0  0  0  0  0  0  0  0  0  0  0  0  # atno 17320 bound_to 7965
  145.1187  139.2708  143.5600 LP  0  0  0  0  0  0  0  0  0  0  0  0  # atno 17321 bound_to 7965
  139.7690  143.8522  152.3116 LP  0  0  0  0  0  0  0  0  0  0  0  0  # atno 17342 bound_to 10162
  139.8434  144.7199  150.9302 LP  0  0  0  0  0  0  0  0  0  0  0  0  # atno 17343 bound_to 10162
  155.9791  130.4043  150.3607 LP  0  0  0  0  0  0  0  0  0  0  0  0  # atno 17370 bound_to 10713
  157.1719  131.0371  151.2791 LP  0  0  0  0  0  0  0  0  0  0  0  0  # atno 17371 bound_to 10713
  139.8733  134.9364  156.3659 LP  0  0  0  0  0  0  0  0  0  0  0  0  # atno 17394 bound_to 11000
  140.9407  133.7516  156.0143 LP  0  0  0  0  0  0  0  0  0  0  0  0  # atno 17395 bound_to 11000

$$$$
