AV-unprocessed.smi:2522|AV-procd|sdf|9919|dock2
  -GOLD-   2272013553D 1   1.00000     0.00000
 Structure written by MMmdl.
 41 42  0  0  0  0  0  0  0  0  1 V2000
  147.3157  135.4689  155.0895 C   0  0  0  0  0  0  0  0  0  0  0  0
  148.4642  134.8378  155.9042 C   0  0  0  0  0  0  0  0  0  0  0  0
  148.7376  135.7153  157.1398 C   0  0  0  0  0  0  0  0  0  0  0  0
  148.0327  133.4350  156.3794 C   0  0  0  0  0  0  0  0  0  0  0  0
  149.7617  134.7629  155.0568 C   0  0  0  0  0  0  0  0  0  0  0  0
  150.1509  136.0556  154.5006 N   0  0  0  0  0  0  0  0  0  0  0  0
  151.1506  136.8369  154.9396 C   0  0  0  0  0  0  0  0  0  0  0  0
  151.8090  136.5995  155.9520 O   0  0  0  0  0  0  0  0  0  0  0  0
  151.4788  138.0590  154.0795 C   0  0  0  0  0  0  0  0  0  0  0  0
  151.0665  139.3101  154.8017 C   0  0  0  0  0  0  0  0  0  0  0  0
  150.0113  140.1334  154.4933 C   0  0  0  0  0  0  0  0  0  0  0  0
  149.8562  141.4490  155.6266 S   0  0  0  0  0  0  0  0  0  0  0  0
  151.2575  140.8244  156.4940 C   0  0  0  0  0  0  0  0  0  0  0  0
  151.7774  141.4145  157.6849 N   0  0  0  0  0  0  0  0  0  0  0  0
  151.3311  142.7273  158.1351 C   0  0  0  0  0  0  0  0  0  0  0  0
  151.9322  142.9226  159.5316 C   0  0  0  0  0  0  0  0  0  0  0  0
  152.9951  141.8351  159.6739 C   0  0  0  0  0  0  0  0  0  0  0  0
  152.7026  140.8968  158.5151 C   0  0  0  0  0  0  0  0  0  0  0  0
  153.2745  139.8122  158.4060 O   0  0  0  0  0  0  0  0  0  0  0  0
  151.7799  139.7306  155.9293 N   0  0  0  0  0  0  0  0  0  0  0  0
  146.4172  135.5858  155.6963 H   0  0  0  0  0  0  0  0  0  0  0  0
  147.0432  134.8549  154.2310 H   0  0  0  0  0  0  0  0  0  0  0  0
  147.5892  136.4555  154.7143 H   0  0  0  0  0  0  0  0  0  0  0  0
  149.0345  136.7246  156.8526 H   0  0  0  0  0  0  0  0  0  0  0  0
  149.5382  135.2996  157.7528 H   0  0  0  0  0  0  0  0  0  0  0  0
  147.8529  135.8020  157.7716 H   0  0  0  0  0  0  0  0  0  0  0  0
  147.1684  133.4901  157.0419 H   0  0  0  0  0  0  0  0  0  0  0  0
  148.8345  132.9381  156.9266 H   0  0  0  0  0  0  0  0  0  0  0  0
  147.7547  132.7909  155.5446 H   0  0  0  0  0  0  0  0  0  0  0  0
  150.5882  134.4179  155.6789 H   0  0  0  0  0  0  0  0  0  0  0  0
  149.6553  134.0183  154.2660 H   0  0  0  0  0  0  0  0  0  0  0  0
  149.6728  136.3424  153.6583 H   0  0  0  0  0  0  0  0  0  0  0  0
  152.5468  138.0703  153.8577 H   0  0  0  0  0  0  0  0  0  0  0  0
  150.9636  137.9778  153.1216 H   0  0  0  0  0  0  0  0  0  0  0  0
  149.3084  140.0366  153.6790 H   0  0  0  0  0  0  0  0  0  0  0  0
  151.6990  143.4875  157.4446 H   0  0  0  0  0  0  0  0  0  0  0  0
  150.2427  142.7918  158.1648 H   0  0  0  0  0  0  0  0  0  0  0  0
  152.3499  143.9222  159.6559 H   0  0  0  0  0  0  0  0  0  0  0  0
  151.1630  142.7905  160.2937 H   0  0  0  0  0  0  0  0  0  0  0  0
  154.0001  142.2436  159.5644 H   0  0  0  0  0  0  0  0  0  0  0  0
  152.9290  141.3182  160.6317 H   0  0  0  0  0  0  0  0  0  0  0  0
  1  2  1  0  0  0  0
  1 21  1  0  0  0  0
  1 22  1  0  0  0  0
  1 23  1  0  0  0  0
  2  3  1  0  0  0  0
  2  4  1  0  0  0  0
  2  5  1  0  0  0  0
  3 24  1  0  0  0  0
  3 25  1  0  0  0  0
  3 26  1  0  0  0  0
  4 27  1  0  0  0  0
  4 28  1  0  0  0  0
  4 29  1  0  0  0  0
  5  6  1  0  0  0  0
  5 30  1  0  0  0  0
  5 31  1  0  0  0  0
  6  7  1  0  0  0  0
  6 32  1  0  0  0  0
  7  8  2  0  0  0  0
  7  9  1  0  0  0  0
  9 10  1  0  0  0  0
  9 33  1  0  0  0  0
  9 34  1  0  0  0  0
 10 20  1  0  0  0  0
 10 11  2  0  0  0  0
 11 12  1  0  0  0  0
 11 35  1  0  0  0  0
 12 13  1  0  0  0  0
 13 14  1  0  0  0  0
 13 20  2  0  0  0  0
 14 18  1  0  0  0  0
 14 15  1  0  0  0  0
 15 16  1  0  0  0  0
 15 36  1  0  0  0  0
 15 37  1  0  0  0  0
 16 17  1  0  0  0  0
 16 38  1  0  0  0  0
 16 39  1  0  0  0  0
 17 18  1  0  0  0  0
 17 40  1  0  0  0  0
 17 41  1  0  0  0  0
 18 19  2  0  0  0  0
M  END
> <s_m_source_file>
AV-unprocessed.smi

> <i_m_source_file_index>
2522

> <i_lp_mmshare_version>
43012

> <i_f3d_flags>
0

> <s_epik_input>
W0NIM11DKFtDSDNdKShbQ0gzXSlbQ0gyXVtOSF1DKD1PKVtDSDJdYzFbY0hdc2MobjEpTjJbQ0gyXVtDSDJdW0NIMl1DMj1P

> <s_epik_cmdline>
J2VwaWtfcHl0aG9uJywgJy1waCcsICc3LjAnLCAnLXRuJywgJzgnLCAnLW1hJywgJzIwMCcsICctbWV0YWxfYmluZGluZycsICctaW1hZScsICc8aW5maWxlLm1hZT4nLCAnLW9tYWUnLCAnPG91dGZpbGUubWFlPic=

> <r_lp_tautomer_probability>
1

> <r_epik_Ionization_Penalty>
2.986e-05

> <r_epik_Ionization_Penalty_Charging>
0

> <r_epik_Ionization_Penalty_Neutral>
2.986e-05

> <r_epik_State_Penalty>
-0

> <r_epik_Charging_Adjusted_Penalty>
0

> <i_epik_Tot_Q>
0

> <i_epik_Tot_abs_Q>
0

> <r_epik_Metal_State_Penalty>
-0

> <b_epik_Metal_Only>
0

> <s_lp_Force_Field>
OPLS_2005

> <r_lp_Energy>
19.1404

> <b_lp_Chiralities_Consistent>
1

> <s_lp_Variant>
AV-unprocessed.smi:2522-1

> <Gold.Version>
5.8.1

> <Gold.Id.Protein>
6NUR|6NUR_protein|mol2

> <Gold.PLP.Fitness>
43.9217

> <Gold.PLP.PLP>
-32.7203

> <Gold.PLP.part.hbond>
-3.6001

> <Gold.PLP.part.metal>
0.0000

> <Gold.PLP.part.buried>
-1.1894

> <Gold.PLP.part.nonpolar>
-27.7599

> <Gold.PLP.part.repulsive>
0.0860

> <Gold.PLP.ligand.clash>
0.0000

> <Gold.PLP.ligand.torsion>
0.3895

> <Gold.PLP.Chemscore.Hbond>
3.0000

> <Gold.PLP.Chemscore.CHOScore>
0.9805

> <Gold.PLP.Chemscore.Metal>
0.0000

> <Gold.Chemscore.Hbonds>
donor molecule, donor type, donor heavy atom, donor atom, acceptor molecule, acceptor atom, score
      L1  H     6    32       P1  7948  1.00
      P1  H  7997  8009       L1    19  1.00
      P1  H 10752 10764       L1     8  1.00
      L1  C    11    35       P1  7957  0.98

> <Gold.PLP.Chemscore.Internal.Correction>
0.0389

> <Gold.Rescore>
     Score         DG    S(hbond)    S(metal)    S(lipo)     H(rot)  DE(clash)    DE(int)     intcor
     15.94     -18.01       2.39        0.00      73.54       1.59       0.35       1.72       ----

> <Gold.Chemscore.Fitness>
15.9432

> <Gold.Chemscore.DG>
-18.0077

> <Gold.Chemscore.ZeroCoef>
-5.4800

> <Gold.Chemscore.Hbond>
2.3929

> <Gold.Chemscore.Metal>
0.0000

> <Gold.Chemscore.Lipo>
73.5358

> <Gold.Chemscore.Internal_Hbond>
0.0000

> <Gold.Chemscore.DEClash>
0.3471

> <Gold.Chemscore.DEInternal>
1.7174

> <Gold.Chemscore.Rot>
1.5892

> <Gold.Chemscore.Internal.Correction>
   9.000000E+99

> <Gold.Chemscore.Hbonds>
donor molecule, donor type, donor heavy atom, donor atom, acceptor molecule, acceptor atom, score
      L1  H     6    32       P1  7948  0.44
      P1  H  7997  8009       L1    19  0.55
      P1  H 10752 10764       L1     8  0.23

> <Gold.Chemscore.Hbond.Weighted>
-7.9924

> <Gold.Chemscore.Metal.Weighted>
-0.0000

> <Gold.Chemscore.Lipo.Weighted>
-8.6037

> <Gold.Chemscore.Internal_Hbond.Weighted>
0.0000

> <Gold.Chemscore.DEClash.Weighted>
0.3471

> <Gold.Chemscore.DEInternal.Weighted>
1.7174

> <Gold.Chemscore.Rot.Weighted>
4.0684

> <Gold.Chemscore.Internal.Correction.Weighted>
   9.000000E+99

> <Gold.Protein.RotatedTorsions>
[ 6907 6896 6895 6894 ] final  124.38 input  -60.11 | X-H torsion
[ 7974 7965 7964 7962 ] final   10.62 input  175.53 | X-H torsion
[ 8008 7997 7996 7995 ] final  154.09 input   59.86 | X-H torsion
[ 10167 10162 10161 10158 ] final  153.77 input  -65.29 | X-H torsion
[ 10718 10713 10712 10709 ] final  -12.70 input   66.30 | X-H torsion
[ 10763 10752 10751 10750 ] final  -20.01 input  -60.55 | X-H torsion
[ 11005 11000 10999 10996 ] final   12.85 input  -57.11 | X-H torsion

> <Gold.Protein.ActiveResidues>
 VAL166  LYS551  ARG553  GLY616  TRP617  ASP618  TYR619  PRO620  LYS621  CYS622 
 ASP623  PHE694  ASN695  SER759  ASP760  ASP761  ALA762  ILE779  LEU786  VAL792 
 PHE793  MET794  SER795  GLU796  ALA797  LYS798  CYS799  TRP800  GLU811  SER814 

> <Gold.Protein.RotatedAtoms>
  152.4082  133.6922  159.6374 H   0  0  0  0  0  0  0  0  0  0  0  0  # atno 6907 bound_to 6896
  150.7965  133.8670  159.3257 H   0  0  0  0  0  0  0  0  0  0  0  0  # atno 6908 bound_to 6896
  151.6419  135.1013  160.0194 H   0  0  0  0  0  0  0  0  0  0  0  0  # atno 6909 bound_to 6896
  146.2385  139.9607  142.8459 H   0  0  0  0  0  0  0  0  0  0  0  0  # atno 7974 bound_to 7965
  156.2549  140.1976  156.6592 H   0  0  0  0  0  0  0  0  0  0  0  0  # atno 8008 bound_to 7997
  154.6477  140.0575  156.9945 H   0  0  0  0  0  0  0  0  0  0  0  0  # atno 8009 bound_to 7997
  155.1465  140.3247  155.4443 H   0  0  0  0  0  0  0  0  0  0  0  0  # atno 8010 bound_to 7997
  139.4826  144.5245  151.7823 H   0  0  0  0  0  0  0  0  0  0  0  0  # atno 10167 bound_to 10162
  156.6409  130.4927  149.6095 H   0  0  0  0  0  0  0  0  0  0  0  0  # atno 10718 bound_to 10713
  153.6137  135.6995  153.5337 H   0  0  0  0  0  0  0  0  0  0  0  0  # atno 10763 bound_to 10752
  153.2995  135.4133  155.1239 H   0  0  0  0  0  0  0  0  0  0  0  0  # atno 10764 bound_to 10752
  154.8558  135.3645  154.5676 H   0  0  0  0  0  0  0  0  0  0  0  0  # atno 10765 bound_to 10752
  140.4874  134.0875  155.7764 H   0  0  0  0  0  0  0  0  0  0  0  0  # atno 11005 bound_to 11000
  145.1773  140.9750  143.4286 LP  0  0  0  0  0  0  0  0  0  0  0  0  # atno 17320 bound_to 7965
  144.9974  139.3631  143.6185 LP  0  0  0  0  0  0  0  0  0  0  0  0  # atno 17321 bound_to 7965
  140.4763  144.1514  150.5925 LP  0  0  0  0  0  0  0  0  0  0  0  0  # atno 17342 bound_to 10162
  140.4327  143.2561  151.9575 LP  0  0  0  0  0  0  0  0  0  0  0  0  # atno 17343 bound_to 10162
  156.2160  130.6708  151.1319 LP  0  0  0  0  0  0  0  0  0  0  0  0  # atno 17370 bound_to 10713
  157.7171  131.0703  150.6283 LP  0  0  0  0  0  0  0  0  0  0  0  0  # atno 17371 bound_to 10713
  141.1501  133.8984  157.2119 LP  0  0  0  0  0  0  0  0  0  0  0  0  # atno 17394 bound_to 11000
  139.9790  135.0104  156.9702 LP  0  0  0  0  0  0  0  0  0  0  0  0  # atno 17395 bound_to 11000

$$$$
