AV-unprocessed.smi:703|AV-procd|sdf|3433|dock6
  -GOLD-   22720 0423D 1   1.00000     0.00000
 Structure written by MMmdl.
 38 39  0  0  0  0  0  0  0  0  2 V2000
  146.0581  142.8025  154.4517 C   0  0  0  0  0  0  0  0  0  0  0  0
  147.3252  141.9843  154.1686 C   0  0  0  0  0  0  0  0  0  0  0  0
  148.3277  142.1085  155.2533 N   0  3  2  0  0  0  0  0  0  0  0  0
  149.6516  141.5224  154.9489 C   0  0  0  0  0  0  0  0  0  0  0  0
  150.2449  141.1428  156.3046 C   0  0  2  0  0  0  0  0  0  0  0  0
  151.4345  140.1702  156.2439 C   0  0  0  0  0  0  0  0  0  0  0  0
  149.0177  140.6791  157.0994 C   0  0  2  0  0  0  0  0  0  0  0  0
  148.7229  139.2617  156.8539 N   0  0  0  0  0  0  0  0  0  0  0  0
  147.7707  138.3116  157.9353 S   0  0  0  0  0  0  0  0  0  0  0  0
  146.9663  139.2321  158.7539 O   0  0  0  0  0  0  0  0  0  0  0  0
  147.1177  137.2760  157.1208 O   0  0  0  0  0  0  0  0  0  0  0  0
  149.0483  137.4855  158.9873 C   0  0  0  0  0  0  0  0  0  0  0  0
  148.4140  136.6897  160.0942 C   0  0  0  0  0  0  0  0  0  0  0  0
  148.3831  135.2767  160.2560 C   0  0  0  0  0  0  0  0  0  0  0  0
  147.6777  135.1024  161.4118 C   0  0  0  0  0  0  0  0  0  0  0  0
  147.2957  136.3007  161.9199 O   0  0  0  0  0  0  0  0  0  0  0  0
  147.7633  137.3073  161.0676 N   0  0  0  0  0  0  0  0  0  0  0  0
  147.8802  141.5634  156.5584 C   0  0  0  0  0  0  0  0  0  0  0  0
  145.3151  142.6433  153.6700 H   0  0  0  0  0  0  0  0  0  0  0  0
  146.2684  143.8716  154.4892 H   0  0  0  0  0  0  0  0  0  0  0  0
  145.6059  142.5141  155.4008 H   0  0  0  0  0  0  0  0  0  0  0  0
  147.0465  140.9342  154.0704 H   0  0  0  0  0  0  0  0  0  0  0  0
  147.7675  142.2824  153.2168 H   0  0  0  0  0  0  0  0  0  0  0  0
  149.5298  140.6283  154.3350 H   0  0  0  0  0  0  0  0  0  0  0  0
  150.2826  142.2228  154.4008 H   0  0  0  0  0  0  0  0  0  0  0  0
  150.5997  142.0627  156.7731 H   0  0  0  0  0  0  0  0  0  0  0  0
  151.1778  139.2420  155.7329 H   0  0  0  0  0  0  0  0  0  0  0  0
  151.7836  139.9165  157.2444 H   0  0  0  0  0  0  0  0  0  0  0  0
  152.2713  140.6171  155.7067 H   0  0  0  0  0  0  0  0  0  0  0  0
  149.1603  140.8301  158.1693 H   0  0  0  0  0  0  0  0  0  0  0  0
  148.8227  138.9086  155.9024 H   0  0  0  0  0  0  0  0  0  0  0  0
  149.6361  136.8322  158.3420 H   0  0  0  0  0  0  0  0  0  0  0  0
  149.7228  138.2476  159.3767 H   0  0  0  0  0  0  0  0  0  0  0  0
  148.8100  134.5118  159.6251 H   0  0  0  0  0  0  0  0  0  0  0  0
  147.3755  134.2309  161.9734 H   0  0  0  0  0  0  0  0  0  0  0  0
  147.7022  142.4034  157.2303 H   0  0  0  0  0  0  0  0  0  0  0  0
  146.9386  141.0173  156.4768 H   0  0  0  0  0  0  0  0  0  0  0  0
  148.4786  143.0951  155.4077 H   0  0  0  0  0  0  0  0  0  0  0  0
  1  2  1  0  0  0  0
  1 19  1  0  0  0  0
  1 20  1  0  0  0  0
  1 21  1  0  0  0  0
  2  3  1  0  0  0  0
  2 22  1  0  0  0  0
  2 23  1  0  0  0  0
  3 18  1  0  0  0  0
  3  4  1  0  0  0  0
  3 38  1  0  0  0  0
  4  5  1  0  0  0  0
  4 24  1  0  0  0  0
  4 25  1  0  0  0  0
  5  6  1  0  0  0  0
  5  7  1  0  0  0  0
  5 26  1  0  0  0  0
  6 27  1  0  0  0  0
  6 28  1  0  0  0  0
  6 29  1  0  0  0  0
  7  8  1  0  0  0  0
  7 18  1  0  0  0  0
  7 30  1  0  0  0  0
  8  9  1  0  0  0  0
  8 31  1  0  0  0  0
  9 10  2  0  0  0  0
  9 11  2  0  0  0  0
  9 12  1  0  0  0  0
 12 13  1  0  0  0  0
 12 32  1  0  0  0  0
 12 33  1  0  0  0  0
 13 17  2  0  0  0  0
 13 14  1  0  0  0  0
 14 15  2  0  0  0  0
 14 34  1  0  0  0  0
 15 16  1  0  0  0  0
 15 35  1  0  0  0  0
 16 17  1  0  0  0  0
 18 36  1  0  0  0  0
 18 37  1  0  0  0  0
M  CHG  1   3   1
M  END
> <s_m_source_file>
AV-unprocessed.smi

> <i_m_source_file_index>
703

> <i_lp_mmshare_version>
43012

> <i_f3d_flags>
0

> <s_epik_input>
W0NIM11bQ0gyXU4xW0NIMl1bQ0BASF0oW0NIM10pW0NASF0oW0NIMl0xKVtOSF1TKD1PKSg9TylbQ0gyXWMyW2NIXVtjSF1vbjI=

> <s_epik_cmdline>
J2VwaWtfcHl0aG9uJywgJy1waCcsICc3LjAnLCAnLXRuJywgJzgnLCAnLW1hJywgJzIwMCcsICctbWV0YWxfYmluZGluZycsICctaW1hZScsICc8aW5maWxlLm1hZT4nLCAnLW9tYWUnLCAnPG91dGZpbGUubWFlPic=

> <r_epik_Ionization_Penalty>
0.00324529

> <r_epik_Ionization_Penalty_Charging>
0.0019384

> <r_epik_Ionization_Penalty_Neutral>
0.00130689

> <r_epik_State_Penalty>
0.00218682

> <r_epik_Charging_Adjusted_Penalty>
0.00412522

> <i_epik_Tot_Q>
1

> <i_epik_Tot_abs_Q>
1

> <r_epik_Metal_State_Penalty>
0.310831

> <b_epik_Metal_Only>
0

> <s_lp_Force_Field>
OPLS_2005

> <r_lp_Energy>
18.8873

> <b_lp_Chiralities_Consistent>
1

> <s_lp_Variant>
AV-unprocessed.smi:703-8

> <Gold.Version>
5.8.1

> <Gold.Id.Protein>
6NUR|6NUR_protein|mol2

> <Gold.PLP.Fitness>
39.3006

> <Gold.PLP.PLP>
-28.6837

> <Gold.PLP.part.hbond>
-4.0000

> <Gold.PLP.part.metal>
0.0000

> <Gold.PLP.part.buried>
-4.3380

> <Gold.PLP.part.nonpolar>
-20.7527

> <Gold.PLP.part.repulsive>
0.1671

> <Gold.PLP.ligand.clash>
0.0000

> <Gold.PLP.ligand.torsion>
1.0002

> <Gold.PLP.Chemscore.Hbond>
3.8240

> <Gold.PLP.Chemscore.CHOScore>
0.0000

> <Gold.PLP.Chemscore.Metal>
0.0000

> <Gold.Chemscore.Hbonds>
donor molecule, donor type, donor heavy atom, donor atom, acceptor molecule, acceptor atom, score
      L1  H     3    38       P1  8028  2.00
      P1  H  6931  6943       L1    17  0.86
      P1  H  6934  6947       L1    17  0.82

> <Gold.PLP.Chemscore.Internal.Correction>
1.1453

> <Gold.Rescore>
     Score         DG    S(hbond)    S(metal)    S(lipo)     H(rot)  DE(clash)    DE(int)     intcor
     15.32     -16.70       2.57        0.00      59.13       1.68       0.18       1.20       ----

> <Gold.Chemscore.Fitness>
15.3209

> <Gold.Chemscore.DG>
-16.6995

> <Gold.Chemscore.ZeroCoef>
-5.4800

> <Gold.Chemscore.Hbond>
2.5731

> <Gold.Chemscore.Metal>
0.0000

> <Gold.Chemscore.Lipo>
59.1340

> <Gold.Chemscore.Internal_Hbond>
0.0000

> <Gold.Chemscore.DEClash>
0.1812

> <Gold.Chemscore.DEInternal>
1.1974

> <Gold.Chemscore.Rot>
1.6770

> <Gold.Chemscore.Internal.Correction>
   9.000000E+99

> <Gold.Chemscore.Hbonds>
donor molecule, donor type, donor heavy atom, donor atom, acceptor molecule, acceptor atom, score
      L1  H     3    38       P1  8028  1.00
      P1  H  6931  6943       L1    17  0.28
      P1  H  6934  6947       L1    17  0.81

> <Gold.Chemscore.Hbond.Weighted>
-8.5941

> <Gold.Chemscore.Metal.Weighted>
-0.0000

> <Gold.Chemscore.Lipo.Weighted>
-6.9187

> <Gold.Chemscore.Internal_Hbond.Weighted>
0.0000

> <Gold.Chemscore.DEClash.Weighted>
0.1812

> <Gold.Chemscore.DEInternal.Weighted>
1.1974

> <Gold.Chemscore.Rot.Weighted>
4.2932

> <Gold.Chemscore.Internal.Correction.Weighted>
   9.000000E+99

> <Gold.Protein.RotatedTorsions>
[ 6907 6896 6895 6894 ] final -176.76 input  -60.11 | X-H torsion
[ 7974 7965 7964 7962 ] final  -39.26 input  175.53 | X-H torsion
[ 8008 7997 7996 7995 ] final  172.65 input   59.86 | X-H torsion
[ 10167 10162 10161 10158 ] final  122.58 input  -65.29 | X-H torsion
[ 10718 10713 10712 10709 ] final  175.38 input   66.30 | X-H torsion
[ 10763 10752 10751 10750 ] final  166.76 input  -60.55 | X-H torsion
[ 11005 11000 10999 10996 ] final  165.80 input  -57.11 | X-H torsion

> <Gold.Protein.ActiveResidues>
 VAL166  LYS551  ARG553  GLY616  TRP617  ASP618  TYR619  PRO620  LYS621  CYS622 
 ASP623  PHE694  ASN695  SER759  ASP760  ASP761  ALA762  ILE779  LEU786  VAL792 
 PHE793  MET794  SER795  GLU796  ALA797  LYS798  CYS799  TRP800  GLU811  SER814 

> <Gold.Protein.RotatedAtoms>
  151.6100  133.3348  159.3065 H   0  0  0  0  0  0  0  0  0  0  0  0  # atno 6907 bound_to 6896
  150.8161  134.7348  159.6743 H   0  0  0  0  0  0  0  0  0  0  0  0  # atno 6908 bound_to 6896
  152.4257  134.5878  160.0017 H   0  0  0  0  0  0  0  0  0  0  0  0  # atno 6909 bound_to 6896
  146.0412  140.6606  142.9086 H   0  0  0  0  0  0  0  0  0  0  0  0  # atno 7974 bound_to 7965
  156.1153  140.1480  156.9281 H   0  0  0  0  0  0  0  0  0  0  0  0  # atno 8008 bound_to 7997
  154.4796  140.0883  156.7388 H   0  0  0  0  0  0  0  0  0  0  0  0  # atno 8009 bound_to 7997
  155.4524  140.3435  155.4304 H   0  0  0  0  0  0  0  0  0  0  0  0  # atno 8010 bound_to 7997
  139.5850  144.7002  151.3432 H   0  0  0  0  0  0  0  0  0  0  0  0  # atno 10167 bound_to 10162
  156.9357  130.9985  151.2978 H   0  0  0  0  0  0  0  0  0  0  0  0  # atno 10718 bound_to 10713
  154.3438  135.2753  155.2408 H   0  0  0  0  0  0  0  0  0  0  0  0  # atno 10763 bound_to 10752
  154.4667  135.5893  153.6297 H   0  0  0  0  0  0  0  0  0  0  0  0  # atno 10764 bound_to 10752
  152.9855  135.6078  154.3642 H   0  0  0  0  0  0  0  0  0  0  0  0  # atno 10765 bound_to 10752
  140.2598  134.7911  157.3579 H   0  0  0  0  0  0  0  0  0  0  0  0  # atno 11005 bound_to 11000
  144.7075  140.3912  143.7106 LP  0  0  0  0  0  0  0  0  0  0  0  0  # atno 17320 bound_to 7965
  145.6881  139.1633  143.2662 LP  0  0  0  0  0  0  0  0  0  0  0  0  # atno 17321 bound_to 7965
  140.7123  143.7358  150.7590 LP  0  0  0  0  0  0  0  0  0  0  0  0  # atno 17342 bound_to 10162
  140.0900  143.4886  152.2484 LP  0  0  0  0  0  0  0  0  0  0  0  0  # atno 17343 bound_to 10162
  157.5818  130.8382  149.8533 LP  0  0  0  0  0  0  0  0  0  0  0  0  # atno 17370 bound_to 10713
  156.0427  130.3735  150.1395 LP  0  0  0  0  0  0  0  0  0  0  0  0  # atno 17371 bound_to 10713
  140.1475  134.4892  155.7985 LP  0  0  0  0  0  0  0  0  0  0  0  0  # atno 17394 bound_to 11000
  141.2191  133.6849  156.7320 LP  0  0  0  0  0  0  0  0  0  0  0  0  # atno 17395 bound_to 11000

$$$$
