AV-unprocessed.smi:114|AV-procd|sdf|1114|dock8
  -GOLD-   2262018233D 1   1.00000     0.00000
 Structure written by MMmdl.
 32 34  0  0  0  0  0  0  0  0  1 V2000
  154.3435  141.1581  161.2721 N   0  0  0  0  0  0  0  0  0  0  0  0
  153.4725  141.4086  160.2845 C   0  0  0  0  0  0  0  0  0  0  0  0
  153.2108  142.6982  159.9681 N   0  0  0  0  0  0  0  0  0  0  0  0
  152.3461  142.9920  158.9893 C   0  0  0  0  0  0  0  0  0  0  0  0
  152.1432  144.3068  158.7396 F   0  0  0  0  0  0  0  0  0  0  0  0
  151.6605  142.1323  158.2284 N   0  0  0  0  0  0  0  0  0  0  0  0
  151.9223  140.8307  158.5429 C   0  0  0  0  0  0  0  0  0  0  0  0
  152.8130  140.3879  159.5571 C   0  0  0  0  0  0  0  0  0  0  0  0
  152.8297  139.0004  159.6003 N   0  0  0  0  0  0  0  0  0  0  0  0
  151.9919  138.6471  158.6621 C   0  0  0  0  0  0  0  0  0  0  0  0
  151.4039  139.6853  157.9729 N   0  0  0  0  0  0  0  0  0  0  0  0
  150.4121  139.5947  156.8587 C   0  0  1  0  0  0  0  0  0  0  0  0
  149.1814  140.0364  157.3419 O   0  0  0  0  0  0  0  0  0  0  0  0
  148.5439  140.8475  156.3624 C   0  0  1  0  0  0  0  0  0  0  0  0
  147.5423  141.7915  157.0446 C   0  0  0  0  0  0  0  0  0  0  0  0
  147.0941  142.7672  156.1279 O   0  0  0  0  0  0  0  0  0  0  0  0
  149.7244  141.5731  155.7144 C   0  0  2  0  0  0  0  0  0  0  0  0
  149.4118  142.0952  154.4361 O   0  0  0  0  0  0  0  0  0  0  0  0
  150.8149  140.5032  155.6847 C   0  0  2  0  0  0  0  0  0  0  0  0
  150.8229  139.7794  154.4674 O   0  0  0  0  0  0  0  0  0  0  0  0
  150.3729  138.5347  156.6031 H   0  0  0  0  0  0  0  0  0  0  0  0
  148.0537  140.2081  155.6252 H   0  0  0  0  0  0  0  0  0  0  0  0
  150.0453  142.3955  156.3539 H   0  0  0  0  0  0  0  0  0  0  0  0
  151.8052  140.9337  155.8403 H   0  0  0  0  0  0  0  0  0  0  0  0
  154.5545  140.2037  161.5265 H   0  0  0  0  0  0  0  0  0  0  0  0
  154.7848  141.9231  161.7617 H   0  0  0  0  0  0  0  0  0  0  0  0
  151.7808  137.6102  158.4441 H   0  0  0  0  0  0  0  0  0  0  0  0
  146.6975  141.2411  157.4603 H   0  0  0  0  0  0  0  0  0  0  0  0
  148.0235  142.3164  157.8702 H   0  0  0  0  0  0  0  0  0  0  0  0
  147.8447  143.2404  155.8026 H   0  0  0  0  0  0  0  0  0  0  0  0
  149.2486  143.0221  154.5233 H   0  0  0  0  0  0  0  0  0  0  0  0
  149.9386  139.5048  154.2779 H   0  0  0  0  0  0  0  0  0  0  0  0
  1  2  1  0  0  0  0
  1 25  1  0  0  0  0
  1 26  1  0  0  0  0
  2  8  1  0  0  0  0
  2  3  2  0  0  0  0
  3  4  1  0  0  0  0
  4  5  1  0  0  0  0
  4  6  2  0  0  0  0
  6  7  1  0  0  0  0
  7 11  1  0  0  0  0
  7  8  2  0  0  0  0
  8  9  1  0  0  0  0
  9 10  2  0  0  0  0
 10 11  1  0  0  0  0
 10 27  1  0  0  0  0
 11 12  1  0  0  0  0
 12 21  1  0  0  0  0
 12 19  1  0  0  0  0
 12 13  1  0  0  0  0
 13 14  1  0  0  0  0
 14 22  1  0  0  0  0
 14 15  1  0  0  0  0
 14 17  1  0  0  0  0
 15 16  1  0  0  0  0
 15 28  1  0  0  0  0
 15 29  1  0  0  0  0
 16 30  1  0  0  0  0
 17 23  1  0  0  0  0
 17 18  1  0  0  0  0
 17 19  1  0  0  0  0
 18 31  1  0  0  0  0
 19 24  1  0  0  0  0
 19 20  1  0  0  0  0
 20 32  1  0  0  0  0
M  END
> <s_m_source_file>
AV-unprocessed.smi

> <i_m_source_file_index>
114

> <i_lp_mmshare_version>
43012

> <i_f3d_flags>
0

> <s_epik_input>
RmMobjEpbmMoW05IMl0pYyhjMTIpbltjSF1uMltDQEBIXTNPW0NASF0oW0NIMl1bT0hdKVtDQEBIXShbT0hdKVtDQEBIXTNbT0hd

> <s_epik_cmdline>
J2VwaWtfcHl0aG9uJywgJy1waCcsICc3LjAnLCAnLXRuJywgJzgnLCAnLW1hJywgJzIwMCcsICctbWV0YWxfYmluZGluZycsICctaW1hZScsICc8aW5maWxlLm1hZT4nLCAnLW9tYWUnLCAnPG91dGZpbGUubWFlPic=

> <r_lp_tautomer_probability>
1

> <r_epik_Ionization_Penalty>
1.13199e-05

> <r_epik_Ionization_Penalty_Charging>
0

> <r_epik_Ionization_Penalty_Neutral>
1.13199e-05

> <r_epik_State_Penalty>
-0

> <r_epik_Charging_Adjusted_Penalty>
0

> <i_epik_Tot_Q>
0

> <i_epik_Tot_abs_Q>
0

> <r_epik_Metal_State_Penalty>
-0

> <b_epik_Metal_Only>
0

> <s_epik_Chemistry_Notes>
This compound contains an acetal/aminal-like group ( X-CH(R)-Y where X, Y are N, S, or O) that may be acid/base labile, releasing an aldehyde.

> <s_lp_Force_Field>
OPLS_2005

> <r_lp_Energy>
39.1669

> <b_lp_Chiralities_Consistent>
1

> <s_lp_Variant>
AV-unprocessed.smi:114-8

> <Gold.Version>
5.8.1

> <Gold.Id.Protein>
6NUR|6NUR_protein|mol2

> <Gold.PLP.Fitness>
42.4163

> <Gold.PLP.PLP>
-33.7425

> <Gold.PLP.part.hbond>
-5.2675

> <Gold.PLP.part.metal>
0.0000

> <Gold.PLP.part.buried>
-4.3954

> <Gold.PLP.part.nonpolar>
-24.2233

> <Gold.PLP.part.repulsive>
0.0261

> <Gold.PLP.ligand.clash>
0.0000

> <Gold.PLP.ligand.torsion>
0.2550

> <Gold.PLP.Chemscore.Hbond>
3.0569

> <Gold.PLP.Chemscore.CHOScore>
0.0000

> <Gold.PLP.Chemscore.Metal>
0.0000

> <Gold.Chemscore.Hbonds>
donor molecule, donor type, donor heavy atom, donor atom, acceptor molecule, acceptor atom, score
      L1  H    16    30       P1  8028  1.00
      L1  H    18    31       P1  8028  0.94
      P1  H  7989  7998       L1    20  1.00
      P1  H  8011  8017       L1    18  0.08

> <Gold.PLP.Chemscore.Internal.Correction>
0.0130

> <Gold.Rescore>
     Score         DG    S(hbond)    S(metal)    S(lipo)     H(rot)  DE(clash)    DE(int)     intcor
      4.45      -4.46       1.93        0.00      24.37       4.03       0.00       0.01       ----

> <Gold.Chemscore.Fitness>
4.4459

> <Gold.Chemscore.DG>
-4.4579

> <Gold.Chemscore.ZeroCoef>
-5.4800

> <Gold.Chemscore.Hbond>
1.9273

> <Gold.Chemscore.Metal>
0.0000

> <Gold.Chemscore.Lipo>
24.3720

> <Gold.Chemscore.Internal_Hbond>
0.0000

> <Gold.Chemscore.DEClash>
0.0015

> <Gold.Chemscore.DEInternal>
0.0105

> <Gold.Chemscore.Rot>
4.0277

> <Gold.Chemscore.Internal.Correction>
   9.000000E+99

> <Gold.Chemscore.Hbonds>
donor molecule, donor type, donor heavy atom, donor atom, acceptor molecule, acceptor atom, score
      L1  H    16    30       P1  8028  0.33
      L1  H    18    31       P1  8028  0.87
      P1  H  7989  7998       L1    20  0.25

> <Gold.Chemscore.Hbond.Weighted>
-6.4373

> <Gold.Chemscore.Metal.Weighted>
-0.0000

> <Gold.Chemscore.Lipo.Weighted>
-2.8515

> <Gold.Chemscore.Internal_Hbond.Weighted>
0.0000

> <Gold.Chemscore.DEClash.Weighted>
0.0015

> <Gold.Chemscore.DEInternal.Weighted>
0.0105

> <Gold.Chemscore.Rot.Weighted>
10.3110

> <Gold.Chemscore.Internal.Correction.Weighted>
   9.000000E+99

> <Gold.Protein.RotatedTorsions>
[ 6907 6896 6895 6894 ] final -142.55 input  -60.11 | X-H torsion
[ 7974 7965 7964 7962 ] final   48.24 input  175.53 | X-H torsion
[ 8008 7997 7996 7995 ] final  171.90 input   59.86 | X-H torsion
[ 10167 10162 10161 10158 ] final -126.98 input  -65.29 | X-H torsion
[ 10718 10713 10712 10709 ] final -122.84 input   66.30 | X-H torsion
[ 10763 10752 10751 10750 ] final -105.84 input  -60.55 | X-H torsion
[ 11005 11000 10999 10996 ] final -178.96 input  -57.11 | X-H torsion

> <Gold.Protein.ActiveResidues>
 VAL166  LYS551  ARG553  GLY616  TRP617  ASP618  TYR619  PRO620  LYS621  CYS622 
 ASP623  PHE694  ASN695  SER759  ASP760  ASP761  ALA762  ILE779  LEU786  VAL792 
 PHE793  MET794  SER795  GLU796  ALA797  LYS798  CYS799  TRP800  GLU811  SER814 

> <Gold.Protein.RotatedAtoms>
  151.0886  133.5334  159.2616 H   0  0  0  0  0  0  0  0  0  0  0  0  # atno 6907 bound_to 6896
  151.2210  135.0518  159.8959 H   0  0  0  0  0  0  0  0  0  0  0  0  # atno 6908 bound_to 6896
  152.5432  134.0688  159.8238 H   0  0  0  0  0  0  0  0  0  0  0  0  # atno 6909 bound_to 6896
  146.0222  139.4665  142.9890 H   0  0  0  0  0  0  0  0  0  0  0  0  # atno 7974 bound_to 7965
  156.1227  140.1500  156.9181 H   0  0  0  0  0  0  0  0  0  0  0  0  # atno 8008 bound_to 7997
  154.4848  140.0868  156.7502 H   0  0  0  0  0  0  0  0  0  0  0  0  # atno 8009 bound_to 7997
  155.4400  140.3430  155.4291 H   0  0  0  0  0  0  0  0  0  0  0  0  # atno 8010 bound_to 7997
  139.9657  143.5900  152.2430 H   0  0  0  0  0  0  0  0  0  0  0  0  # atno 10167 bound_to 10162
  156.1452  130.6495  150.9831 H   0  0  0  0  0  0  0  0  0  0  0  0  # atno 10718 bound_to 10713
  154.7973  135.4734  154.0192 H   0  0  0  0  0  0  0  0  0  0  0  0  # atno 10763 bound_to 10752
  153.1724  135.6827  153.8596 H   0  0  0  0  0  0  0  0  0  0  0  0  # atno 10764 bound_to 10752
  153.8174  135.3209  155.3384 H   0  0  0  0  0  0  0  0  0  0  0  0  # atno 10765 bound_to 10752
  140.4240  134.6580  157.4678 H   0  0  0  0  0  0  0  0  0  0  0  0  # atno 11005 bound_to 11000
  145.7174  141.0086  143.1420 LP  0  0  0  0  0  0  0  0  0  0  0  0  # atno 17320 bound_to 7965
  144.6995  139.8830  143.7448 LP  0  0  0  0  0  0  0  0  0  0  0  0  # atno 17321 bound_to 7965
  139.6519  144.7661  151.2131 LP  0  0  0  0  0  0  0  0  0  0  0  0  # atno 17342 bound_to 10162
  140.7538  143.6147  150.8571 LP  0  0  0  0  0  0  0  0  0  0  0  0  # atno 17343 bound_to 10162
  157.6610  131.0881  150.7838 LP  0  0  0  0  0  0  0  0  0  0  0  0  # atno 17370 bound_to 10713
  156.7910  130.4890  149.5385 LP  0  0  0  0  0  0  0  0  0  0  0  0  # atno 17371 bound_to 10713
  140.0180  134.6589  155.9281 LP  0  0  0  0  0  0  0  0  0  0  0  0  # atno 17394 bound_to 11000
  141.1773  133.6542  156.4878 LP  0  0  0  0  0  0  0  0  0  0  0  0  # atno 17395 bound_to 11000

$$$$
