AV-unprocessed.smi:1994|AV-procd|sdf|8073|dock6
  -GOLD-   2272010283D 1   1.00000     0.00000
 Structure written by MMmdl.
 39 41  0  0  0  0  0  0  0  0  1 V2000
  152.1815  138.7626  155.4851 C   0  0  0  0  0  0  0  0  0  0  0  0
  150.8557  139.2639  155.0073 C   0  0  0  0  0  0  0  0  0  0  0  0
  150.0423  138.5181  154.2588 N   0  0  0  0  0  0  0  0  0  0  0  0
  148.9658  139.3588  154.0509 C   0  0  0  0  0  0  0  0  0  0  0  0
  147.7667  139.1564  153.3304 C   0  0  0  0  0  0  0  0  0  0  0  0
  146.7977  140.1784  153.2551 C   0  0  0  0  0  0  0  0  0  0  0  0
  147.0128  141.4150  153.8976 C   0  0  0  0  0  0  0  0  0  0  0  0
  148.2005  141.6377  154.6207 C   0  0  0  0  0  0  0  0  0  0  0  0
  149.1643  140.6143  154.6927 C   0  0  0  0  0  0  0  0  0  0  0  0
  150.4084  140.5089  155.3060 N   0  0  0  0  0  0  0  0  0  0  0  0
  151.0671  141.5413  156.0943 C   0  0  0  0  0  0  0  0  0  0  0  0
  150.7967  141.3910  157.6052 C   0  0  1  0  0  0  0  0  0  0  0  0
  151.2885  140.1626  158.1033 O   0  0  0  0  0  0  0  0  0  0  0  0
  151.3586  142.5465  158.4498 C   0  0  0  0  0  0  0  0  0  0  0  0
  152.5952  142.1627  159.0387 O   0  0  0  0  0  0  0  0  0  0  0  0
  152.8101  142.4603  160.3676 C   0  0  0  0  0  0  0  0  0  0  0  0
  152.1916  143.5377  161.0520 C   0  0  0  0  0  0  0  0  0  0  0  0
  152.4708  143.7729  162.4126 C   0  0  0  0  0  0  0  0  0  0  0  0
  153.3670  142.9381  163.1051 C   0  0  0  0  0  0  0  0  0  0  0  0
  153.9843  141.8660  162.4347 C   0  0  0  0  0  0  0  0  0  0  0  0
  153.7064  141.6300  161.0745 C   0  0  0  0  0  0  0  0  0  0  0  0
  154.3084  140.5951  160.4406 F   0  0  0  0  0  0  0  0  0  0  0  0
  152.3106  137.7119  155.2230 H   0  0  0  0  0  0  0  0  0  0  0  0
  152.2566  138.8563  156.5684 H   0  0  0  0  0  0  0  0  0  0  0  0
  152.9874  139.3337  155.0237 H   0  0  0  0  0  0  0  0  0  0  0  0
  147.5930  138.2129  152.8343 H   0  0  0  0  0  0  0  0  0  0  0  0
  145.8850  140.0130  152.7015 H   0  0  0  0  0  0  0  0  0  0  0  0
  146.2656  142.1925  153.8346 H   0  0  0  0  0  0  0  0  0  0  0  0
  148.3694  142.5832  155.1141 H   0  0  0  0  0  0  0  0  0  0  0  0
  152.1373  141.5279  155.8882 H   0  0  0  0  0  0  0  0  0  0  0  0
  150.7057  142.5106  155.7490 H   0  0  0  0  0  0  0  0  0  0  0  0
  149.7177  141.3665  157.7624 H   0  0  0  0  0  0  0  0  0  0  0  0
  150.6020  139.7419  158.5978 H   0  0  0  0  0  0  0  0  0  0  0  0
  151.5275  143.4035  157.7961 H   0  0  0  0  0  0  0  0  0  0  0  0
  150.6374  142.8470  159.2117 H   0  0  0  0  0  0  0  0  0  0  0  0
  151.4990  144.2001  160.5558 H   0  0  0  0  0  0  0  0  0  0  0  0
  151.9960  144.5966  162.9251 H   0  0  0  0  0  0  0  0  0  0  0  0
  153.5809  143.1197  164.1480 H   0  0  0  0  0  0  0  0  0  0  0  0
  154.6731  141.2239  162.9639 H   0  0  0  0  0  0  0  0  0  0  0  0
  1  2  1  0  0  0  0
  1 23  1  0  0  0  0
  1 24  1  0  0  0  0
  1 25  1  0  0  0  0
  2 10  1  0  0  0  0
  2  3  2  0  0  0  0
  3  4  1  0  0  0  0
  4  9  2  0  0  0  0
  4  5  1  0  0  0  0
  5  6  2  0  0  0  0
  5 26  1  0  0  0  0
  6  7  1  0  0  0  0
  6 27  1  0  0  0  0
  7  8  2  0  0  0  0
  7 28  1  0  0  0  0
  8  9  1  0  0  0  0
  8 29  1  0  0  0  0
  9 10  1  0  0  0  0
 10 11  1  0  0  0  0
 11 12  1  0  0  0  0
 11 30  1  0  0  0  0
 11 31  1  0  0  0  0
 12 13  1  0  0  0  0
 12 14  1  0  0  0  0
 12 32  1  0  0  0  0
 13 33  1  0  0  0  0
 14 15  1  0  0  0  0
 14 34  1  0  0  0  0
 14 35  1  0  0  0  0
 15 16  1  0  0  0  0
 16 21  1  0  0  0  0
 16 17  2  0  0  0  0
 17 18  1  0  0  0  0
 17 36  1  0  0  0  0
 18 19  2  0  0  0  0
 18 37  1  0  0  0  0
 19 20  1  0  0  0  0
 19 38  1  0  0  0  0
 20 21  2  0  0  0  0
 20 39  1  0  0  0  0
 21 22  1  0  0  0  0
M  END
> <s_m_source_file>
AV-unprocessed.smi

> <i_m_source_file_index>
1994

> <i_lp_mmshare_version>
43012

> <i_f3d_flags>
0

> <s_epik_input>
W2NIXTFbY0hdW2NIXVtjSF1jKGMxMiluKGMobjIpW0NIM10pW0NIMl1bQ0BIXShbT0hdKVtDSDJdT2MzW2NIXVtjSF1bY0hdW2NIXWMzRg==

> <s_epik_cmdline>
J2VwaWtfcHl0aG9uJywgJy1waCcsICc3LjAnLCAnLXRuJywgJzgnLCAnLW1hJywgJzIwMCcsICctbWV0YWxfYmluZGluZycsICctaW1hZScsICc8aW5maWxlLm1hZT4nLCAnLW9tYWUnLCAnPG91dGZpbGUubWFlPic=

> <r_lp_tautomer_probability>
1

> <r_epik_Ionization_Penalty>
0.112614

> <r_epik_Ionization_Penalty_Charging>
0

> <r_epik_Ionization_Penalty_Neutral>
0.112614

> <r_epik_State_Penalty>
0.10231

> <r_epik_Charging_Adjusted_Penalty>
0.10231

> <i_epik_Tot_Q>
0

> <i_epik_Tot_abs_Q>
0

> <r_epik_Metal_State_Penalty>
0.000111664

> <b_epik_Metal_Only>
0

> <s_lp_Force_Field>
OPLS_2005

> <r_lp_Energy>
17.3721

> <b_lp_Chiralities_Consistent>
1

> <s_lp_Variant>
AV-unprocessed.smi:1994-2

> <Gold.Version>
5.8.1

> <Gold.Id.Protein>
6NUR|6NUR_protein|mol2

> <Gold.PLP.Fitness>
49.4151

> <Gold.PLP.PLP>
-52.4946

> <Gold.PLP.part.hbond>
0.0000

> <Gold.PLP.part.metal>
0.0000

> <Gold.PLP.part.buried>
0.0782

> <Gold.PLP.part.nonpolar>
-51.7052

> <Gold.PLP.part.repulsive>
0.2222

> <Gold.PLP.ligand.clash>
0.0000

> <Gold.PLP.ligand.torsion>
1.5512

> <Gold.PLP.Chemscore.Hbond>
0.0000

> <Gold.PLP.Chemscore.CHOScore>
0.0000

> <Gold.PLP.Chemscore.Metal>
0.0000

> <Gold.PLP.Chemscore.Internal.Correction>
0.0229

> <Gold.Rescore>
     Score         DG    S(hbond)    S(metal)    S(lipo)     H(rot)  DE(clash)    DE(int)     intcor
     13.59     -15.73       0.00        0.00     135.46       2.19       0.58       1.55       ----

> <Gold.Chemscore.Fitness>
13.5943

> <Gold.Chemscore.DG>
-15.7257

> <Gold.Chemscore.ZeroCoef>
-5.4800

> <Gold.Chemscore.Hbond>
0.0000

> <Gold.Chemscore.Metal>
0.0000

> <Gold.Chemscore.Lipo>
135.4575

> <Gold.Chemscore.Internal_Hbond>
0.0000

> <Gold.Chemscore.DEClash>
0.5782

> <Gold.Chemscore.DEInternal>
1.5532

> <Gold.Chemscore.Rot>
2.1886

> <Gold.Chemscore.Internal.Correction>
   9.000000E+99

> <Gold.Chemscore.Hbond.Weighted>
-0.0000

> <Gold.Chemscore.Metal.Weighted>
-0.0000

> <Gold.Chemscore.Lipo.Weighted>
-15.8485

> <Gold.Chemscore.Internal_Hbond.Weighted>
0.0000

> <Gold.Chemscore.DEClash.Weighted>
0.5782

> <Gold.Chemscore.DEInternal.Weighted>
1.5532

> <Gold.Chemscore.Rot.Weighted>
5.6028

> <Gold.Chemscore.Internal.Correction.Weighted>
   9.000000E+99

> <Gold.Protein.RotatedTorsions>
[ 6907 6896 6895 6894 ] final -108.81 input  -60.11 | X-H torsion
[ 7974 7965 7964 7962 ] final  163.27 input  175.53 | X-H torsion
[ 8008 7997 7996 7995 ] final -147.19 input   59.86 | X-H torsion
[ 10167 10162 10161 10158 ] final   64.92 input  -65.29 | X-H torsion
[ 10718 10713 10712 10709 ] final    0.71 input   66.30 | X-H torsion
[ 10763 10752 10751 10750 ] final  -39.19 input  -60.55 | X-H torsion
[ 11005 11000 10999 10996 ] final   67.98 input  -57.11 | X-H torsion

> <Gold.Protein.ActiveResidues>
 VAL166  LYS551  ARG553  GLY616  TRP617  ASP618  TYR619  PRO620  LYS621  CYS622 
 ASP623  PHE694  ASN695  SER759  ASP760  ASP761  ALA762  ILE779  LEU786  VAL792 
 PHE793  MET794  SER795  GLU796  ALA797  LYS798  CYS799  TRP800  GLU811  SER814 

> <Gold.Protein.RotatedAtoms>
  150.7524  133.9622  159.3519 H   0  0  0  0  0  0  0  0  0  0  0  0  # atno 6907 bound_to 6896
  151.7549  135.0822  160.0346 H   0  0  0  0  0  0  0  0  0  0  0  0  # atno 6908 bound_to 6896
  152.3442  133.6065  159.5934 H   0  0  0  0  0  0  0  0  0  0  0  0  # atno 6909 bound_to 6896
  144.7597  139.8159  143.6337 H   0  0  0  0  0  0  0  0  0  0  0  0  # atno 7974 bound_to 7965
  155.5716  140.0635  157.2805 H   0  0  0  0  0  0  0  0  0  0  0  0  # atno 8008 bound_to 7997
  154.4359  140.1868  156.0931 H   0  0  0  0  0  0  0  0  0  0  0  0  # atno 8009 bound_to 7997
  156.0372  140.3300  155.7208 H   0  0  0  0  0  0  0  0  0  0  0  0  # atno 8010 bound_to 7997
  140.1169  144.4767  150.6943 H   0  0  0  0  0  0  0  0  0  0  0  0  # atno 10167 bound_to 10162
  156.8374  130.5509  149.5681 H   0  0  0  0  0  0  0  0  0  0  0  0  # atno 10718 bound_to 10713
  153.9253  135.6778  153.4746 H   0  0  0  0  0  0  0  0  0  0  0  0  # atno 10763 bound_to 10752
  153.1007  135.4829  154.8859 H   0  0  0  0  0  0  0  0  0  0  0  0  # atno 10764 bound_to 10752
  154.7457  135.3172  154.8606 H   0  0  0  0  0  0  0  0  0  0  0  0  # atno 10765 bound_to 10752
  139.9738  134.6856  156.0394 H   0  0  0  0  0  0  0  0  0  0  0  0  # atno 11005 bound_to 11000
  146.1647  139.4774  142.9966 LP  0  0  0  0  0  0  0  0  0  0  0  0  # atno 17320 bound_to 7965
  145.6659  141.0229  143.1683 LP  0  0  0  0  0  0  0  0  0  0  0  0  # atno 17321 bound_to 7965
  140.6894  143.2367  151.5173 LP  0  0  0  0  0  0  0  0  0  0  0  0  # atno 17342 bound_to 10162
  139.5589  144.2206  152.1658 LP  0  0  0  0  0  0  0  0  0  0  0  0  # atno 17343 bound_to 10162
  156.0900  130.5888  150.9716 LP  0  0  0  0  0  0  0  0  0  0  0  0  # atno 17370 bound_to 10713
  157.6374  131.0914  150.8320 LP  0  0  0  0  0  0  0  0  0  0  0  0  # atno 17371 bound_to 10713
  141.1416  133.6563  156.3748 LP  0  0  0  0  0  0  0  0  0  0  0  0  # atno 17394 bound_to 11000
  140.5237  134.6279  157.5327 LP  0  0  0  0  0  0  0  0  0  0  0  0  # atno 17395 bound_to 11000

$$$$
