AV-unprocessed.smi:2063|AV-procd|sdf|8412|dock5
  -GOLD-   2272011103D 1   1.00000     0.00000
 Structure written by MMmdl.
 38 39  0  0  0  0  0  0  0  0  2 V2000
  147.4403  136.3520  163.3481 C   0  0  0  0  0  0  0  0  0  0  0  0
  146.8358  135.6630  162.1160 C   0  0  0  0  0  0  0  0  0  0  0  0
  146.6165  134.1563  162.3150 C   0  0  0  0  0  0  0  0  0  0  0  0
  147.6066  135.9613  160.8680 C   0  0  0  0  0  0  0  0  0  0  0  0
  147.9153  137.2022  160.4787 N   0  0  0  0  0  0  0  0  0  0  0  0
  148.6292  137.2168  159.2896 N   0  0  0  0  0  0  0  0  0  0  0  0
  148.8601  135.9904  158.8002 C   0  0  0  0  0  0  0  0  0  0  0  0
  149.5301  135.7844  157.6544 N   0  5  0  0  0  0  0  0  0  0  0  0
  149.2755  136.5567  156.5736 C   0  0  0  0  0  0  0  0  0  0  0  0
  148.1624  136.8445  156.1282 O   0  0  0  0  0  0  0  0  0  0  0  0
  150.3811  137.0263  155.9777 N   0  0  0  0  0  0  0  0  0  0  0  0
  150.4346  137.9056  154.8108 C   0  0  2  0  0  0  0  0  0  0  0  0
  151.8980  138.1271  154.3978 C   0  0  0  0  0  0  0  0  0  0  0  0
  149.7170  139.2309  155.1295 C   0  0  2  0  0  0  0  0  0  0  0  0
  148.2319  139.2575  154.7557 C   0  0  0  0  0  0  0  0  0  0  0  0
  147.9478  140.7261  154.4763 C   0  0  0  0  0  0  0  0  0  0  0  0
  149.3319  141.3783  154.4538 C   0  0  0  0  0  0  0  0  0  0  0  0
  150.2419  140.2938  154.3489 O   0  0  0  0  0  0  0  0  0  0  0  0
  148.1779  134.6995  159.7882 S   0  0  0  0  0  0  0  0  0  0  0  0
  147.5090  137.4303  163.1995 H   0  0  0  0  0  0  0  0  0  0  0  0
  148.4436  135.9800  163.5580 H   0  0  0  0  0  0  0  0  0  0  0  0
  146.8297  136.1786  164.2346 H   0  0  0  0  0  0  0  0  0  0  0  0
  145.8462  136.1003  161.9765 H   0  0  0  0  0  0  0  0  0  0  0  0
  146.1055  133.7181  161.4572 H   0  0  0  0  0  0  0  0  0  0  0  0
  146.0067  133.9615  163.1974 H   0  0  0  0  0  0  0  0  0  0  0  0
  147.5636  133.6312  162.4427 H   0  0  0  0  0  0  0  0  0  0  0  0
  151.2665  136.7565  156.3804 H   0  0  0  0  0  0  0  0  0  0  0  0
  149.9104  137.4374  153.9760 H   0  0  0  0  0  0  0  0  0  0  0  0
  151.9659  138.7650  153.5161 H   0  0  0  0  0  0  0  0  0  0  0  0
  152.3848  137.1818  154.1557 H   0  0  0  0  0  0  0  0  0  0  0  0
  152.4686  138.6011  155.1970 H   0  0  0  0  0  0  0  0  0  0  0  0
  149.8335  139.4813  156.1860 H   0  0  0  0  0  0  0  0  0  0  0  0
  148.0591  138.6755  153.8492 H   0  0  0  0  0  0  0  0  0  0  0  0
  147.5979  138.8454  155.5414 H   0  0  0  0  0  0  0  0  0  0  0  0
  147.4398  140.8400  153.5182 H   0  0  0  0  0  0  0  0  0  0  0  0
  147.3176  141.1729  155.2460 H   0  0  0  0  0  0  0  0  0  0  0  0
  149.4531  142.0794  153.6277 H   0  0  0  0  0  0  0  0  0  0  0  0
  149.5192  141.9137  155.3859 H   0  0  0  0  0  0  0  0  0  0  0  0
  1  2  1  0  0  0  0
  1 20  1  0  0  0  0
  1 21  1  0  0  0  0
  1 22  1  0  0  0  0
  2  3  1  0  0  0  0
  2  4  1  0  0  0  0
  2 23  1  0  0  0  0
  3 24  1  0  0  0  0
  3 25  1  0  0  0  0
  3 26  1  0  0  0  0
  4 19  1  0  0  0  0
  4  5  2  0  0  0  0
  5  6  1  0  0  0  0
  6  7  2  0  0  0  0
  7  8  1  0  0  0  0
  7 19  1  0  0  0  0
  8  9  1  0  0  0  0
  9 10  2  0  0  0  0
  9 11  1  0  0  0  0
 11 12  1  0  0  0  0
 11 27  1  0  0  0  0
 12 13  1  0  0  0  0
 12 14  1  0  0  0  0
 12 28  1  0  0  0  0
 13 29  1  0  0  0  0
 13 30  1  0  0  0  0
 13 31  1  0  0  0  0
 14 18  1  0  0  0  0
 14 15  1  0  0  0  0
 14 32  1  0  0  0  0
 15 16  1  0  0  0  0
 15 33  1  0  0  0  0
 15 34  1  0  0  0  0
 16 17  1  0  0  0  0
 16 35  1  0  0  0  0
 16 36  1  0  0  0  0
 17 18  1  0  0  0  0
 17 37  1  0  0  0  0
 17 38  1  0  0  0  0
M  CHG  1   8  -1
M  END
> <s_m_source_file>
AV-unprocessed.smi

> <i_m_source_file_index>
2063

> <i_lp_mmshare_version>
43012

> <i_f3d_flags>
0

> <s_epik_input>
W0NIM11bQ0hdKFtDSDNdKWMxbm5jKHMxKVtOSF1DKD1PKVtOSF1bQ0BIXShbQ0gzXSlbQ0BASF0yW0NIMl1bQ0gyXVtDSDJdTzI=

> <s_epik_cmdline>
J2VwaWtfcHl0aG9uJywgJy1waCcsICc3LjAnLCAnLXRuJywgJzgnLCAnLW1hJywgJzIwMCcsICctbWV0YWxfYmluZGluZycsICctaW1hZScsICc8aW5maWxlLm1hZT4nLCAnLW9tYWUnLCAnPG91dGZpbGUubWFlPic=

> <r_lp_tautomer_probability>
1

> <r_epik_Ionization_Penalty>
4.37022

> <r_epik_Ionization_Penalty_Charging>
4.21437

> <r_epik_Ionization_Penalty_Neutral>
0.15585

> <r_epik_State_Penalty>
4.21389

> <r_epik_Charging_Adjusted_Penalty>
8.42826

> <i_epik_Tot_Q>
-1

> <i_epik_Tot_abs_Q>
1

> <r_epik_Metal_State_Penalty>
0.693772

> <b_epik_Metal_Only>
1

> <s_lp_Force_Field>
OPLS_2005

> <r_lp_Energy>
9.58619

> <b_lp_Chiralities_Consistent>
1

> <s_lp_Variant>
AV-unprocessed.smi:2063-5

> <Gold.Version>
5.8.1

> <Gold.Id.Protein>
6NUR|6NUR_protein|mol2

> <Gold.PLP.Fitness>
36.6561

> <Gold.PLP.PLP>
-32.2158

> <Gold.PLP.part.hbond>
-3.0000

> <Gold.PLP.part.metal>
0.0000

> <Gold.PLP.part.buried>
-3.9867

> <Gold.PLP.part.nonpolar>
-24.9918

> <Gold.PLP.part.repulsive>
0.1866

> <Gold.PLP.ligand.clash>
0.0000

> <Gold.PLP.ligand.torsion>
1.6107

> <Gold.PLP.Chemscore.Hbond>
2.5120

> <Gold.PLP.Chemscore.CHOScore>
0.0000

> <Gold.PLP.Chemscore.Metal>
0.0000

> <Gold.Chemscore.Hbonds>
donor molecule, donor type, donor heavy atom, donor atom, acceptor molecule, acceptor atom, score
      P1  H  6931  6943       L1     5  0.65
      P1  H  6934  6947       L1     5  0.80
      P1  H  7989  7998       L1    18  1.00

> <Gold.PLP.Chemscore.Internal.Correction>
0.1257

> <Gold.Rescore>
     Score         DG    S(hbond)    S(metal)    S(lipo)     H(rot)  DE(clash)    DE(int)     intcor
     13.86     -16.92       1.75        0.00      78.29       1.39       0.03       3.03       ----

> <Gold.Chemscore.Fitness>
13.8556

> <Gold.Chemscore.DG>
-16.9205

> <Gold.Chemscore.ZeroCoef>
-5.4800

> <Gold.Chemscore.Hbond>
1.7478

> <Gold.Chemscore.Metal>
0.0000

> <Gold.Chemscore.Lipo>
78.2860

> <Gold.Chemscore.Internal_Hbond>
0.0000

> <Gold.Chemscore.DEClash>
0.0309

> <Gold.Chemscore.DEInternal>
3.0340

> <Gold.Chemscore.Rot>
1.3893

> <Gold.Chemscore.Internal.Correction>
   9.000000E+99

> <Gold.Chemscore.Hbonds>
donor molecule, donor type, donor heavy atom, donor atom, acceptor molecule, acceptor atom, score
      P1  H  6931  6943       L1     5  0.33
      P1  H  6934  6947       L1     5  0.59
      P1  H  7989  7998       L1    18  0.57

> <Gold.Chemscore.Hbond.Weighted>
-5.8378

> <Gold.Chemscore.Metal.Weighted>
-0.0000

> <Gold.Chemscore.Lipo.Weighted>
-9.1595

> <Gold.Chemscore.Internal_Hbond.Weighted>
0.0000

> <Gold.Chemscore.DEClash.Weighted>
0.0309

> <Gold.Chemscore.DEInternal.Weighted>
3.0340

> <Gold.Chemscore.Rot.Weighted>
3.5567

> <Gold.Chemscore.Internal.Correction.Weighted>
   9.000000E+99

> <Gold.Protein.RotatedTorsions>
[ 6907 6896 6895 6894 ] final  167.14 input  -60.11 | X-H torsion
[ 7974 7965 7964 7962 ] final  -74.38 input  175.53 | X-H torsion
[ 8008 7997 7996 7995 ] final  -54.88 input   59.86 | X-H torsion
[ 10167 10162 10161 10158 ] final  -99.87 input  -65.29 | X-H torsion
[ 10718 10713 10712 10709 ] final  -69.05 input   66.30 | X-H torsion
[ 10763 10752 10751 10750 ] final  -30.80 input  -60.55 | X-H torsion
[ 11005 11000 10999 10996 ] final  -32.31 input  -57.11 | X-H torsion

> <Gold.Protein.ActiveResidues>
 VAL166  LYS551  ARG553  GLY616  TRP617  ASP618  TYR619  PRO620  LYS621  CYS622 
 ASP623  PHE694  ASN695  SER759  ASP760  ASP761  ALA762  ILE779  LEU786  VAL792 
 PHE793  MET794  SER795  GLU796  ALA797  LYS798  CYS799  TRP800  GLU811  SER814 

> <Gold.Protein.RotatedAtoms>
  151.8679  133.3470  159.3725 H   0  0  0  0  0  0  0  0  0  0  0  0  # atno 6907 bound_to 6896
  150.7161  134.5141  159.5631 H   0  0  0  0  0  0  0  0  0  0  0  0  # atno 6908 bound_to 6896
  152.2668  134.7976  160.0472 H   0  0  0  0  0  0  0  0  0  0  0  0  # atno 6909 bound_to 6896
  145.6399  140.9314  143.1041 H   0  0  0  0  0  0  0  0  0  0  0  0  # atno 7974 bound_to 7965
  154.4177  140.1166  156.5388 H   0  0  0  0  0  0  0  0  0  0  0  0  # atno 8008 bound_to 7997
  155.6530  140.3496  155.4736 H   0  0  0  0  0  0  0  0  0  0  0  0  # atno 8009 bound_to 7997
  155.9777  140.1154  157.0745 H   0  0  0  0  0  0  0  0  0  0  0  0  # atno 8010 bound_to 7997
  140.2579  143.3427  152.0653 H   0  0  0  0  0  0  0  0  0  0  0  0  # atno 10167 bound_to 10162
  156.0475  130.4305  150.2090 H   0  0  0  0  0  0  0  0  0  0  0  0  # atno 10718 bound_to 10713
  153.7869  135.6901  153.4878 H   0  0  0  0  0  0  0  0  0  0  0  0  # atno 10763 bound_to 10752
  153.1775  135.4519  154.9983 H   0  0  0  0  0  0  0  0  0  0  0  0  # atno 10764 bound_to 10752
  154.8060  135.3357  154.7368 H   0  0  0  0  0  0  0  0  0  0  0  0  # atno 10765 bound_to 10752
  140.9541  133.7203  156.1266 H   0  0  0  0  0  0  0  0  0  0  0  0  # atno 11005 bound_to 11000
  144.7161  139.8191  143.7398 LP  0  0  0  0  0  0  0  0  0  0  0  0  # atno 17320 bound_to 7965
  146.1289  139.4321  143.0181 LP  0  0  0  0  0  0  0  0  0  0  0  0  # atno 17321 bound_to 7965
  139.5026  144.6737  151.6180 LP  0  0  0  0  0  0  0  0  0  0  0  0  # atno 17342 bound_to 10162
  140.5989  143.9646  150.6373 LP  0  0  0  0  0  0  0  0  0  0  0  0  # atno 17343 bound_to 10162
  157.0178  130.9970  151.3348 LP  0  0  0  0  0  0  0  0  0  0  0  0  # atno 17370 bound_to 10713
  157.5365  130.8092  149.7978 LP  0  0  0  0  0  0  0  0  0  0  0  0  # atno 17371 bound_to 10713
  140.7561  134.3991  157.5533 LP  0  0  0  0  0  0  0  0  0  0  0  0  # atno 17394 bound_to 11000
  139.8857  134.8931  156.2630 LP  0  0  0  0  0  0  0  0  0  0  0  0  # atno 17395 bound_to 11000

$$$$
