AV-unprocessed.smi:281|AV-procd|sdf|2112|dock5
  -GOLD-   2262021403D 1   1.00000     0.00000
 Structure written by MMmdl.
 55 59  0  0  0  0  0  0  0  0  1 V2000
  153.1747  142.8714  162.1027 C   0  0  0  0  0  0  0  0  0  0  0  0
  153.2712  141.5299  161.3694 C   0  0  1  0  0  0  0  0  0  0  0  0
  152.8672  141.6517  159.8934 C   0  0  0  0  0  0  0  0  0  0  0  0
  153.0556  140.3731  159.2157 N   0  0  0  0  0  0  0  0  0  0  0  0
  152.5248  140.2367  157.9721 C   0  0  0  0  0  0  0  0  0  0  0  0
  153.0563  139.3348  157.1028 N   0  0  0  0  0  0  0  0  0  0  0  0
  152.5379  139.1832  155.8809 C   0  0  0  0  0  0  0  0  0  0  0  0
  151.5050  139.8208  155.3287 N   0  0  0  0  0  0  0  0  0  0  0  0
  150.9676  140.7300  156.1908 C   0  0  0  0  0  0  0  0  0  0  0  0
  151.4135  141.0026  157.5157 C   0  0  0  0  0  0  0  0  0  0  0  0
  150.6331  142.0074  158.0753 N   0  0  0  0  0  0  0  0  0  0  0  0
  149.7720  142.3041  157.1413 C   0  0  0  0  0  0  0  0  0  0  0  0
  149.8924  141.5759  155.9798 N   0  0  0  0  0  0  0  0  0  0  0  0
  149.0724  141.6968  154.7843 C   0  0  0  0  0  0  0  0  0  0  0  0
  148.4093  140.3676  154.3395 C   0  0  2  0  0  0  0  0  0  0  0  0
  149.3301  139.5992  153.5882 O   0  0  0  0  0  0  0  0  0  0  0  0
  147.1564  140.6025  153.5114 C   0  0  0  0  0  0  0  0  0  0  0  0
  146.0759  140.7741  154.5755 C   0  0  0  0  0  0  0  0  0  0  0  0
  146.4989  139.9933  155.6891 O   0  0  0  0  0  0  0  0  0  0  0  0
  147.8330  139.5334  155.4920 C   0  0  0  0  0  0  0  0  0  0  0  0
  154.4123  139.8521  159.3554 C   0  0  0  0  0  0  0  0  0  0  0  0
  154.8668  139.8057  160.8382 C   0  0  2  0  0  0  0  0  0  0  0  0
  156.3731  139.5753  160.9237 C   0  0  0  0  0  0  0  0  0  0  0  0
  156.5455  138.8311  162.2368 C   0  0  0  0  0  0  0  0  0  0  0  0
  155.4431  137.9454  162.2144 O   0  0  0  0  0  0  0  0  0  0  0  0
  154.3085  138.6626  161.7402 C   0  0  2  0  0  0  0  0  0  0  0  0
  153.3417  137.6616  161.0918 C   0  0  0  0  0  0  0  0  0  0  0  0
  154.6225  141.0776  161.4487 O   0  0  0  0  0  0  0  0  0  0  0  0
  152.1556  143.2586  162.0789 H   0  0  0  0  0  0  0  0  0  0  0  0
  153.8273  143.6177  161.6487 H   0  0  0  0  0  0  0  0  0  0  0  0
  153.4655  142.7657  163.1479 H   0  0  0  0  0  0  0  0  0  0  0  0
  152.6083  140.8207  161.8659 H   0  0  0  0  0  0  0  0  0  0  0  0
  151.8237  141.9620  159.8249 H   0  0  0  0  0  0  0  0  0  0  0  0
  153.4697  142.4172  159.4018 H   0  0  0  0  0  0  0  0  0  0  0  0
  153.0190  138.4443  155.2572 H   0  0  0  0  0  0  0  0  0  0  0  0
  149.0176  143.0654  157.2770 H   0  0  0  0  0  0  0  0  0  0  0  0
  148.3145  142.4584  154.9717 H   0  0  0  0  0  0  0  0  0  0  0  0
  149.7007  142.0870  153.9823 H   0  0  0  0  0  0  0  0  0  0  0  0
  149.3662  139.9471  152.7103 H   0  0  0  0  0  0  0  0  0  0  0  0
  147.2312  141.4554  152.8358 H   0  0  0  0  0  0  0  0  0  0  0  0
  146.9255  139.7217  152.9097 H   0  0  0  0  0  0  0  0  0  0  0  0
  146.0057  141.8164  154.8882 H   0  0  0  0  0  0  0  0  0  0  0  0
  145.0931  140.4623  154.2214 H   0  0  0  0  0  0  0  0  0  0  0  0
  147.7697  138.4821  155.2063 H   0  0  0  0  0  0  0  0  0  0  0  0
  148.4150  139.5806  156.4111 H   0  0  0  0  0  0  0  0  0  0  0  0
  154.5209  138.8700  158.8974 H   0  0  0  0  0  0  0  0  0  0  0  0
  155.0748  140.5166  158.7989 H   0  0  0  0  0  0  0  0  0  0  0  0
  156.7051  138.9306  160.1084 H   0  0  0  0  0  0  0  0  0  0  0  0
  156.9557  140.4961  160.8758 H   0  0  0  0  0  0  0  0  0  0  0  0
  157.4931  138.2960  162.2997 H   0  0  0  0  0  0  0  0  0  0  0  0
  156.4666  139.5070  163.0899 H   0  0  0  0  0  0  0  0  0  0  0  0
  153.8280  139.0884  162.6218 H   0  0  0  0  0  0  0  0  0  0  0  0
  152.4384  138.1539  160.7324 H   0  0  0  0  0  0  0  0  0  0  0  0
  153.0330  136.9047  161.8129 H   0  0  0  0  0  0  0  0  0  0  0  0
  153.8076  137.1417  160.2549 H   0  0  0  0  0  0  0  0  0  0  0  0
  1  2  1  0  0  0  0
  1 29  1  0  0  0  0
  1 30  1  0  0  0  0
  1 31  1  0  0  0  0
  2 28  1  0  0  0  0
  2  3  1  0  0  0  0
  2 32  1  0  0  0  0
  3  4  1  0  0  0  0
  3 33  1  0  0  0  0
  3 34  1  0  0  0  0
  4  5  1  0  0  0  0
  4 21  1  0  0  0  0
  5 10  1  0  0  0  0
  5  6  2  0  0  0  0
  6  7  1  0  0  0  0
  7  8  2  0  0  0  0
  7 35  1  0  0  0  0
  8  9  1  0  0  0  0
  9 13  1  0  0  0  0
  9 10  2  0  0  0  0
 10 11  1  0  0  0  0
 11 12  2  0  0  0  0
 12 13  1  0  0  0  0
 12 36  1  0  0  0  0
 13 14  1  0  0  0  0
 14 15  1  0  0  0  0
 14 37  1  0  0  0  0
 14 38  1  0  0  0  0
 15 20  1  0  0  0  0
 15 16  1  0  0  0  0
 15 17  1  0  0  0  0
 16 39  1  0  0  0  0
 17 18  1  0  0  0  0
 17 40  1  0  0  0  0
 17 41  1  0  0  0  0
 18 19  1  0  0  0  0
 18 42  1  0  0  0  0
 18 43  1  0  0  0  0
 19 20  1  0  0  0  0
 20 44  1  0  0  0  0
 20 45  1  0  0  0  0
 21 22  1  0  0  0  0
 21 46  1  0  0  0  0
 21 47  1  0  0  0  0
 22 26  1  0  0  0  0
 22 23  1  0  0  0  0
 22 28  1  0  0  0  0
 23 24  1  0  0  0  0
 23 48  1  0  0  0  0
 23 49  1  0  0  0  0
 24 25  1  0  0  0  0
 24 50  1  0  0  0  0
 24 51  1  0  0  0  0
 25 26  1  0  0  0  0
 26 27  1  0  0  0  0
 26 52  1  0  0  0  0
 27 53  1  0  0  0  0
 27 54  1  0  0  0  0
 27 55  1  0  0  0  0
M  END
> <s_m_source_file>
AV-unprocessed.smi

> <i_m_source_file_index>
281

> <i_lp_mmshare_version>
43012

> <i_f3d_flags>
0

> <s_epik_input>
W0NIM11bQ0BASF0xT1tDSDJdW0NIMl1bQ0BAXTEyW0NIMl1OKFtDSDJdW0NASF0oTzIpW0NIM10pYyhuW2NIXW4zKWMoYzM0KW5bY0hdbjRbQ0gyXVtDQEBdNShbT0hdKVtDSDJdW0NIMl1PW0NIMl01

> <s_epik_cmdline>
J2VwaWtfcHl0aG9uJywgJy1waCcsICc3LjAnLCAnLXRuJywgJzgnLCAnLW1hJywgJzIwMCcsICctbWV0YWxfYmluZGluZycsICctaW1hZScsICc8aW5maWxlLm1hZT4nLCAnLW9tYWUnLCAnPG91dGZpbGUubWFlPic=

> <r_lp_tautomer_probability>
1

> <r_epik_Ionization_Penalty>
0.00571331

> <r_epik_Ionization_Penalty_Charging>
0

> <r_epik_Ionization_Penalty_Neutral>
0.00571331

> <r_epik_State_Penalty>
0.00399586

> <r_epik_Charging_Adjusted_Penalty>
0.00399586

> <i_epik_Tot_Q>
0

> <i_epik_Tot_abs_Q>
0

> <r_epik_Metal_State_Penalty>
-0

> <b_epik_Metal_Only>
0

> <s_lp_Force_Field>
OPLS_2005

> <r_lp_Energy>
53.9998

> <b_lp_Chiralities_Consistent>
1

> <s_lp_Variant>
AV-unprocessed.smi:281-12

> <Gold.Version>
5.8.1

> <Gold.Id.Protein>
6NUR|6NUR_protein|mol2

> <Gold.PLP.Fitness>
50.8001

> <Gold.PLP.PLP>
-41.4959

> <Gold.PLP.part.hbond>
-3.6315

> <Gold.PLP.part.metal>
0.0000

> <Gold.PLP.part.buried>
0.1277

> <Gold.PLP.part.nonpolar>
-37.7258

> <Gold.PLP.part.repulsive>
0.1094

> <Gold.PLP.ligand.clash>
0.0000

> <Gold.PLP.ligand.torsion>
0.9551

> <Gold.PLP.Chemscore.Hbond>
2.9338

> <Gold.PLP.Chemscore.CHOScore>
0.7158

> <Gold.PLP.Chemscore.Metal>
0.0000

> <Gold.Chemscore.Hbonds>
donor molecule, donor type, donor heavy atom, donor atom, acceptor molecule, acceptor atom, score
      L1  H    16    39       P1  7957  1.00
      P1  H  7989  7998       L1     8  0.81
      P1  H  7997  8009       L1     6  0.90
      L1  C    12    36       P1  8028  0.76

> <Gold.PLP.Chemscore.Internal.Correction>
0.2658

> <Gold.Rescore>
     Score         DG    S(hbond)    S(metal)    S(lipo)     H(rot)  DE(clash)    DE(int)     intcor
     15.24     -17.70       1.86        0.00      97.18       2.09       0.56       1.89       ----

> <Gold.Chemscore.Fitness>
15.2450

> <Gold.Chemscore.DG>
-17.6976

> <Gold.Chemscore.ZeroCoef>
-5.4800

> <Gold.Chemscore.Hbond>
1.8579

> <Gold.Chemscore.Metal>
0.0000

> <Gold.Chemscore.Lipo>
97.1756

> <Gold.Chemscore.Internal_Hbond>
0.0000

> <Gold.Chemscore.DEClash>
0.5608

> <Gold.Chemscore.DEInternal>
1.8919

> <Gold.Chemscore.Rot>
2.0927

> <Gold.Chemscore.Internal.Correction>
   9.000000E+99

> <Gold.Chemscore.Hbonds>
donor molecule, donor type, donor heavy atom, donor atom, acceptor molecule, acceptor atom, score
      L1  H    16    39       P1  7957  0.96
      P1  H  7989  7998       L1     8  0.35
      P1  H  7997  8009       L1     6  0.11

> <Gold.Chemscore.Hbond.Weighted>
-6.2054

> <Gold.Chemscore.Metal.Weighted>
-0.0000

> <Gold.Chemscore.Lipo.Weighted>
-11.3695

> <Gold.Chemscore.Internal_Hbond.Weighted>
0.0000

> <Gold.Chemscore.DEClash.Weighted>
0.5608

> <Gold.Chemscore.DEInternal.Weighted>
1.8919

> <Gold.Chemscore.Rot.Weighted>
5.3573

> <Gold.Chemscore.Internal.Correction.Weighted>
   9.000000E+99

> <Gold.Protein.RotatedTorsions>
[ 6907 6896 6895 6894 ] final   58.42 input  -60.11 | X-H torsion
[ 7974 7965 7964 7962 ] final   37.89 input  175.53 | X-H torsion
[ 8008 7997 7996 7995 ] final  160.20 input   59.86 | X-H torsion
[ 10167 10162 10161 10158 ] final -164.11 input  -65.29 | X-H torsion
[ 10718 10713 10712 10709 ] final   78.69 input   66.30 | X-H torsion
[ 10763 10752 10751 10750 ] final   28.84 input  -60.55 | X-H torsion
[ 11005 11000 10999 10996 ] final  148.45 input  -57.11 | X-H torsion

> <Gold.Protein.ActiveResidues>
 VAL166  LYS551  ARG553  GLY616  TRP617  ASP618  TYR619  PRO620  LYS621  CYS622 
 ASP623  PHE694  ASN695  SER759  ASP760  ASP761  ALA762  ILE779  LEU786  VAL792 
 PHE793  MET794  SER795  GLU796  ALA797  LYS798  CYS799  TRP800  GLU811  SER814 

> <Gold.Protein.RotatedAtoms>
  152.3822  134.6572  160.0138 H   0  0  0  0  0  0  0  0  0  0  0  0  # atno 6907 bound_to 6896
  151.6832  133.3306  159.3232 H   0  0  0  0  0  0  0  0  0  0  0  0  # atno 6908 bound_to 6896
  150.7757  134.6699  159.6430 H   0  0  0  0  0  0  0  0  0  0  0  0  # atno 6909 bound_to 6896
  146.1104  139.5839  142.9356 H   0  0  0  0  0  0  0  0  0  0  0  0  # atno 7974 bound_to 7965
  156.2188  140.1811  156.7525 H   0  0  0  0  0  0  0  0  0  0  0  0  # atno 8008 bound_to 7997
  154.5833  140.0662  156.9165 H   0  0  0  0  0  0  0  0  0  0  0  0  # atno 8009 bound_to 7997
  155.2463  140.3325  155.4289 H   0  0  0  0  0  0  0  0  0  0  0  0  # atno 8010 bound_to 7997
  139.6274  144.0506  152.1986 H   0  0  0  0  0  0  0  0  0  0  0  0  # atno 10167 bound_to 10162
  157.6753  130.9880  150.1823 H   0  0  0  0  0  0  0  0  0  0  0  0  # atno 10718 bound_to 10713
  153.0467  135.6503  154.0799 H   0  0  0  0  0  0  0  0  0  0  0  0  # atno 10763 bound_to 10752
  154.0495  135.2897  155.3344 H   0  0  0  0  0  0  0  0  0  0  0  0  # atno 10764 bound_to 10752
  154.6729  135.5349  153.8227 H   0  0  0  0  0  0  0  0  0  0  0  0  # atno 10765 bound_to 10752
  140.0961  134.9011  157.1725 H   0  0  0  0  0  0  0  0  0  0  0  0  # atno 11005 bound_to 11000
  145.5676  141.0398  143.2192 LP  0  0  0  0  0  0  0  0  0  0  0  0  # atno 17320 bound_to 7965
  144.7506  139.7203  143.7274 LP  0  0  0  0  0  0  0  0  0  0  0  0  # atno 17321 bound_to 7965
  140.0163  144.6186  150.7604 LP  0  0  0  0  0  0  0  0  0  0  0  0  # atno 17342 bound_to 10162
  140.7419  143.2824  151.3560 LP  0  0  0  0  0  0  0  0  0  0  0  0  # atno 17343 bound_to 10162
  156.2553  130.3705  149.8189 LP  0  0  0  0  0  0  0  0  0  0  0  0  # atno 17370 bound_to 10713
  156.5949  130.8522  151.3417 LP  0  0  0  0  0  0  0  0  0  0  0  0  # atno 17371 bound_to 10713
  140.3284  134.2837  155.7232 LP  0  0  0  0  0  0  0  0  0  0  0  0  # atno 17394 bound_to 11000
  141.2092  133.7755  157.0009 LP  0  0  0  0  0  0  0  0  0  0  0  0  # atno 17395 bound_to 11000

$$$$
