AV-unprocessed.smi:290|AV-procd|sdf|2221|dock1
  -GOLD-   2262022 63D 1   1.00000     0.00000
 Structure written by MMmdl.
 59 62  0  0  0  0  0  0  0  0  2 V2000
  150.4344  139.1472  158.1913 C   0  0  0  0  0  0  0  0  0  0  0  0
  150.9578  138.7025  156.8150 C   0  0  2  0  0  0  0  0  0  0  0  0
  150.7629  139.7404  155.8548 O   0  0  0  0  0  0  0  0  0  0  0  0
  149.9486  139.2721  154.7905 C   0  0  0  0  0  0  0  0  0  0  0  0
  150.2293  137.7763  154.7411 C   0  0  0  0  0  0  0  0  0  0  0  0
  150.3424  137.4131  156.2142 C   0  0  2  0  0  0  0  0  0  0  0  0
  149.0324  137.1914  156.7134 O   0  0  0  0  0  0  0  0  0  0  0  0
  151.1792  136.1318  156.4440 C   0  0  0  0  0  0  0  0  0  0  0  0
  150.5338  134.9208  155.9615 N   0  0  0  0  0  0  0  0  0  0  0  0
  149.6098  134.8277  154.9439 C   0  0  0  0  0  0  0  0  0  0  0  0
  149.1759  133.6224  154.6917 N   0  0  0  0  0  0  0  0  0  0  0  0
  149.8557  132.8254  155.6027 C   0  0  0  0  0  0  0  0  0  0  0  0
  149.8701  131.4330  155.8738 C   0  0  0  0  0  0  0  0  0  0  0  0
  149.1098  130.5648  155.1688 N   0  0  0  0  0  0  0  0  0  0  0  0
  149.8692  129.6516  154.3366 C   0  0  0  0  0  0  0  0  0  0  0  0
  148.8737  129.0941  153.3179 C   0  0  0  0  0  0  0  0  0  0  0  0
  147.6090  129.9727  153.4239 C   0  0  2  0  0  0  0  0  0  0  0  0
  147.0904  130.3412  152.0680 N   0  3  1  0  0  0  0  0  0  0  0  0
  146.6416  129.1355  151.3239 C   0  0  0  0  0  0  0  0  0  0  0  0
  146.0737  131.4317  152.0469 C   0  0  0  0  0  0  0  0  0  0  0  0
  145.6759  131.8947  150.6323 C   0  0  0  0  0  0  0  0  0  0  0  0
  146.8279  132.1830  149.8680 O   0  0  0  0  0  0  0  0  0  0  0  0
  148.0585  131.1388  154.3372 C   0  0  1  0  0  0  0  0  0  0  0  0
  146.9400  131.7159  155.2338 C   0  0  0  0  0  0  0  0  0  0  0  0
  150.6847  130.9846  156.8655 N   0  0  0  0  0  0  0  0  0  0  0  0
  151.4413  131.8500  157.5478 C   0  0  0  0  0  0  0  0  0  0  0  0
  151.5361  133.1735  157.4000 N   0  0  0  0  0  0  0  0  0  0  0  0
  150.7163  133.6230  156.4066 C   0  0  0  0  0  0  0  0  0  0  0  0
  146.8388  129.4074  153.9527 H   0  0  0  0  0  0  0  0  0  0  0  0
  148.4917  131.9304  153.7239 H   0  0  0  0  0  0  0  0  0  0  0  0
  150.5601  138.3628  158.9374 H   0  0  0  0  0  0  0  0  0  0  0  0
  149.3773  139.4103  158.1527 H   0  0  0  0  0  0  0  0  0  0  0  0
  150.9768  140.0252  158.5421 H   0  0  0  0  0  0  0  0  0  0  0  0
  152.0384  138.5786  156.8836 H   0  0  0  0  0  0  0  0  0  0  0  0
  148.9012  139.4612  155.0301 H   0  0  0  0  0  0  0  0  0  0  0  0
  150.1825  139.7775  153.8533 H   0  0  0  0  0  0  0  0  0  0  0  0
  149.4636  137.2132  154.2057 H   0  0  0  0  0  0  0  0  0  0  0  0
  151.1811  137.6093  154.2346 H   0  0  0  0  0  0  0  0  0  0  0  0
  148.6714  136.4319  156.2828 H   0  0  0  0  0  0  0  0  0  0  0  0
  152.1499  136.2201  155.9541 H   0  0  0  0  0  0  0  0  0  0  0  0
  151.3879  136.0045  157.5070 H   0  0  0  0  0  0  0  0  0  0  0  0
  149.2630  135.6896  154.3927 H   0  0  0  0  0  0  0  0  0  0  0  0
  150.6814  130.1725  153.8267 H   0  0  0  0  0  0  0  0  0  0  0  0
  150.3075  128.8562  154.9405 H   0  0  0  0  0  0  0  0  0  0  0  0
  149.3188  129.1208  152.3222 H   0  0  0  0  0  0  0  0  0  0  0  0
  148.6323  128.0537  153.5386 H   0  0  0  0  0  0  0  0  0  0  0  0
  145.6928  128.7674  151.7161 H   0  0  0  0  0  0  0  0  0  0  0  0
  147.3655  128.3238  151.3913 H   0  0  0  0  0  0  0  0  0  0  0  0
  146.5196  129.3418  150.2616 H   0  0  0  0  0  0  0  0  0  0  0  0
  145.1863  131.1038  152.5899 H   0  0  0  0  0  0  0  0  0  0  0  0
  146.4569  132.3121  152.5597 H   0  0  0  0  0  0  0  0  0  0  0  0
  145.0532  131.1674  150.1132 H   0  0  0  0  0  0  0  0  0  0  0  0
  145.0811  132.8060  150.7008 H   0  0  0  0  0  0  0  0  0  0  0  0
  147.5757  131.7764  150.2799 H   0  0  0  0  0  0  0  0  0  0  0  0
  146.0992  132.1109  154.6686 H   0  0  0  0  0  0  0  0  0  0  0  0
  147.3146  132.5320  155.8524 H   0  0  0  0  0  0  0  0  0  0  0  0
  146.5455  130.9529  155.9059 H   0  0  0  0  0  0  0  0  0  0  0  0
  152.0602  131.4212  158.3223 H   0  0  0  0  0  0  0  0  0  0  0  0
  147.8856  130.7088  151.5647 H   0  0  0  0  0  0  0  0  0  0  0  0
  1  2  1  0  0  0  0
  1 31  1  0  0  0  0
  1 32  1  0  0  0  0
  1 33  1  0  0  0  0
  2  6  1  0  0  0  0
  2  3  1  0  0  0  0
  2 34  1  0  0  0  0
  3  4  1  0  0  0  0
  4  5  1  0  0  0  0
  4 35  1  0  0  0  0
  4 36  1  0  0  0  0
  5  6  1  0  0  0  0
  5 37  1  0  0  0  0
  5 38  1  0  0  0  0
  6  7  1  0  0  0  0
  6  8  1  0  0  0  0
  7 39  1  0  0  0  0
  8  9  1  0  0  0  0
  8 40  1  0  0  0  0
  8 41  1  0  0  0  0
  9 28  1  0  0  0  0
  9 10  1  0  0  0  0
 10 11  2  0  0  0  0
 10 42  1  0  0  0  0
 11 12  1  0  0  0  0
 12 28  2  0  0  0  0
 12 13  1  0  0  0  0
 13 14  1  0  0  0  0
 13 25  2  0  0  0  0
 14 23  1  0  0  0  0
 14 15  1  0  0  0  0
 15 16  1  0  0  0  0
 15 43  1  0  0  0  0
 15 44  1  0  0  0  0
 16 17  1  0  0  0  0
 16 45  1  0  0  0  0
 16 46  1  0  0  0  0
 17 29  1  0  0  0  0
 17 18  1  0  0  0  0
 17 23  1  0  0  0  0
 18 19  1  0  0  0  0
 18 20  1  0  0  0  0
 18 59  1  0  0  0  0
 19 47  1  0  0  0  0
 19 48  1  0  0  0  0
 19 49  1  0  0  0  0
 20 21  1  0  0  0  0
 20 50  1  0  0  0  0
 20 51  1  0  0  0  0
 21 22  1  0  0  0  0
 21 52  1  0  0  0  0
 21 53  1  0  0  0  0
 22 54  1  0  0  0  0
 23 30  1  0  0  0  0
 23 24  1  0  0  0  0
 24 55  1  0  0  0  0
 24 56  1  0  0  0  0
 24 57  1  0  0  0  0
 25 26  1  0  0  0  0
 26 27  2  0  0  0  0
 26 58  1  0  0  0  0
 27 28  1  0  0  0  0
M  CHG  1  18   1
M  END
> <s_m_source_file>
AV-unprocessed.smi

> <i_m_source_file_index>
290

> <i_lp_mmshare_version>
43012

> <i_f3d_flags>
0

> <s_epik_input>
W0NIMl0xW0NIMl1PW0NAQEhdKFtDSDNdKVtDQEBdMShbT0hdKVtDSDJdbihbY0hdbjIpYyhjMjMpbltjSF1uYzNONFtDSDJdW0NIMl1bQ0BIXShbQ0BIXTRbQ0gzXSlOKFtDSDNdKVtDSDJdW0NIMl1bT0hd

> <s_epik_cmdline>
J2VwaWtfcHl0aG9uJywgJy1waCcsICc3LjAnLCAnLXRuJywgJzgnLCAnLW1hJywgJzIwMCcsICctbWV0YWxfYmluZGluZycsICctaW1hZScsICc8aW5maWxlLm1hZT4nLCAnLW9tYWUnLCAnPG91dGZpbGUubWFlPic=

> <r_lp_tautomer_probability>
1

> <r_epik_Ionization_Penalty>
0.0036983

> <r_epik_Ionization_Penalty_Charging>
0.0032725

> <r_epik_Ionization_Penalty_Neutral>
0.000425798

> <r_epik_State_Penalty>
-0

> <r_epik_Charging_Adjusted_Penalty>
0.0032725

> <i_epik_Tot_Q>
1

> <i_epik_Tot_abs_Q>
1

> <r_epik_Metal_State_Penalty>
-0

> <b_epik_Metal_Only>
0

> <s_lp_Force_Field>
OPLS_2005

> <r_lp_Energy>
65.2566

> <b_lp_Chiralities_Consistent>
1

> <s_lp_Variant>
AV-unprocessed.smi:290-7

> <Gold.Version>
5.8.1

> <Gold.Id.Protein>
6NUR|6NUR_protein|mol2

> <Gold.PLP.Fitness>
47.7593

> <Gold.PLP.PLP>
-39.6268

> <Gold.PLP.part.hbond>
-3.3633

> <Gold.PLP.part.metal>
0.0000

> <Gold.PLP.part.buried>
-4.5765

> <Gold.PLP.part.nonpolar>
-31.6422

> <Gold.PLP.part.repulsive>
0.1550

> <Gold.PLP.ligand.clash>
0.1328

> <Gold.PLP.ligand.torsion>
0.7305

> <Gold.PLP.Chemscore.Hbond>
2.1314

> <Gold.PLP.Chemscore.CHOScore>
1.0000

> <Gold.PLP.Chemscore.Metal>
0.0000

> <Gold.Chemscore.Hbonds>
donor molecule, donor type, donor heavy atom, donor atom, acceptor molecule, acceptor atom, score
      L1  H    18    59       P1 10747  1.00
      L1  H    22    54       P1 10747  1.00
      P1  H  6896  6908       L1    27  0.35
      L1  C    10    42       P1  7948  0.87

> <Gold.PLP.Chemscore.Internal.Correction>
0.3321

> <Gold.Rescore>
     Score         DG    S(hbond)    S(metal)    S(lipo)     H(rot)  DE(clash)    DE(int)     intcor
      9.49     -12.59       1.97        0.00      84.71       3.67       0.75       2.36       ----

> <Gold.Chemscore.Fitness>
9.4868

> <Gold.Chemscore.DG>
-12.5941

> <Gold.Chemscore.ZeroCoef>
-5.4800

> <Gold.Chemscore.Hbond>
1.9724

> <Gold.Chemscore.Metal>
0.0000

> <Gold.Chemscore.Lipo>
84.7073

> <Gold.Chemscore.Internal_Hbond>
0.0000

> <Gold.Chemscore.DEClash>
0.7482

> <Gold.Chemscore.DEInternal>
2.3590

> <Gold.Chemscore.Rot>
3.6658

> <Gold.Chemscore.Internal.Correction>
   9.000000E+99

> <Gold.Chemscore.Hbonds>
donor molecule, donor type, donor heavy atom, donor atom, acceptor molecule, acceptor atom, score
      L1  H    18    59       P1 10747  0.98
      L1  H    22    54       P1 10747  0.97
      P1  H  6896  6908       L1    27  0.01

> <Gold.Chemscore.Hbond.Weighted>
-6.5877

> <Gold.Chemscore.Metal.Weighted>
-0.0000

> <Gold.Chemscore.Lipo.Weighted>
-9.9108

> <Gold.Chemscore.Internal_Hbond.Weighted>
0.0000

> <Gold.Chemscore.DEClash.Weighted>
0.7482

> <Gold.Chemscore.DEInternal.Weighted>
2.3590

> <Gold.Chemscore.Rot.Weighted>
9.3844

> <Gold.Chemscore.Internal.Correction.Weighted>
   9.000000E+99

> <Gold.Protein.RotatedTorsions>
[ 6907 6896 6895 6894 ] final   73.27 input  -60.11 | X-H torsion
[ 7974 7965 7964 7962 ] final  -33.52 input  175.53 | X-H torsion
[ 8008 7997 7996 7995 ] final  171.09 input   59.86 | X-H torsion
[ 10167 10162 10161 10158 ] final   54.33 input  -65.29 | X-H torsion
[ 10718 10713 10712 10709 ] final   14.95 input   66.30 | X-H torsion
[ 10763 10752 10751 10750 ] final   31.13 input  -60.55 | X-H torsion
[ 11005 11000 10999 10996 ] final -151.15 input  -57.11 | X-H torsion

> <Gold.Protein.ActiveResidues>
 VAL166  LYS551  ARG553  GLY616  TRP617  ASP618  TYR619  PRO620  LYS621  CYS622 
 ASP623  PHE694  ASN695  SER759  ASP760  ASP761  ALA762  ILE779  LEU786  VAL792 
 PHE793  MET794  SER795  GLU796  ALA797  LYS798  CYS799  TRP800  GLU811  SER814 

> <Gold.Protein.RotatedAtoms>
  152.4914  134.4446  159.9554 H   0  0  0  0  0  0  0  0  0  0  0  0  # atno 6907 bound_to 6896
  151.4433  133.3631  159.2792 H   0  0  0  0  0  0  0  0  0  0  0  0  # atno 6908 bound_to 6896
  150.9072  134.8511  159.7461 H   0  0  0  0  0  0  0  0  0  0  0  0  # atno 6909 bound_to 6896
  146.0904  140.5927  142.8867 H   0  0  0  0  0  0  0  0  0  0  0  0  # atno 7974 bound_to 7965
  156.1304  140.1521  156.9073 H   0  0  0  0  0  0  0  0  0  0  0  0  # atno 8008 bound_to 7997
  154.4905  140.0853  156.7623 H   0  0  0  0  0  0  0  0  0  0  0  0  # atno 8009 bound_to 7997
  155.4266  140.3425  155.4278 H   0  0  0  0  0  0  0  0  0  0  0  0  # atno 8010 bound_to 7997
  140.2312  144.3684  150.6414 H   0  0  0  0  0  0  0  0  0  0  0  0  # atno 10167 bound_to 10162
  157.0465  130.6252  149.5760 H   0  0  0  0  0  0  0  0  0  0  0  0  # atno 10718 bound_to 10713
  153.0333  135.6446  154.1152 H   0  0  0  0  0  0  0  0  0  0  0  0  # atno 10763 bound_to 10752
  154.0871  135.2869  155.3280 H   0  0  0  0  0  0  0  0  0  0  0  0  # atno 10764 bound_to 10752
  154.6490  135.5432  153.7943 H   0  0  0  0  0  0  0  0  0  0  0  0  # atno 10765 bound_to 10752
  140.7326  134.3604  157.5163 H   0  0  0  0  0  0  0  0  0  0  0  0  # atno 11005 bound_to 11000
  144.7356  140.4797  143.6906 LP  0  0  0  0  0  0  0  0  0  0  0  0  # atno 17320 bound_to 7965
  145.6051  139.1507  143.3107 LP  0  0  0  0  0  0  0  0  0  0  0  0  # atno 17321 bound_to 7965
  140.6183  143.2174  151.6746 LP  0  0  0  0  0  0  0  0  0  0  0  0  # atno 17342 bound_to 10162
  139.5109  144.3526  152.0638 LP  0  0  0  0  0  0  0  0  0  0  0  0  # atno 17343 bound_to 10162
  156.0021  130.5102  150.7701 LP  0  0  0  0  0  0  0  0  0  0  0  0  # atno 17370 bound_to 10713
  157.5064  131.0922  151.0252 LP  0  0  0  0  0  0  0  0  0  0  0  0  # atno 17371 bound_to 10713
  139.8823  134.9028  156.2842 LP  0  0  0  0  0  0  0  0  0  0  0  0  # atno 17394 bound_to 11000
  140.9907  133.7210  156.0810 LP  0  0  0  0  0  0  0  0  0  0  0  0  # atno 17395 bound_to 11000

$$$$
