AV-unprocessed.smi:2405|AV-procd|sdf|9513|dock5
  -GOLD-   2272013143D 1   1.00000     0.00000
 Structure written by MMmdl.
 36 37  0  0  0  0  0  0  0  0  2 V2000
  154.4450  141.4709  160.3767 C   0  0  0  0  0  0  0  0  0  0  0  0
  152.9367  141.5499  160.6349 C   0  0  0  0  0  0  0  0  0  0  0  0
  152.1647  141.9243  159.4141 C   0  0  0  0  0  0  0  0  0  0  0  0
  151.3968  141.0671  158.7366 N   0  0  0  0  0  0  0  0  0  0  0  0
  150.7960  141.6498  157.6155 C   0  0  0  0  0  0  0  0  0  0  0  0
  149.8850  140.8363  156.7436 C   0  0  0  0  0  0  0  0  0  0  0  0
  150.6980  139.8255  155.9346 C   0  0  0  0  0  0  0  0  0  0  0  0
  151.4437  140.2130  155.0347 O   0  0  0  0  0  0  0  0  0  0  0  0
  150.5455  138.5345  156.2659 N   0  0  0  0  0  0  0  0  0  0  0  0
  151.2268  137.4131  155.6258 C   0  0  1  0  0  0  0  0  0  0  0  0
  152.0606  136.5988  156.6380 C   0  0  0  0  0  0  0  0  0  0  0  0
  151.5724  135.1495  156.5248 C   0  0  0  0  0  0  0  0  0  0  0  0
  150.1268  135.2443  156.0084 C   0  0  1  0  0  0  0  0  0  0  0  0
  149.0872  135.5034  157.1205 C   0  0  0  0  0  0  0  0  0  0  0  0
  147.9176  135.7442  156.7484 O   0  0  0  0  0  0  0  0  0  0  0  0
  149.4559  135.4528  158.3151 O   0  5  0  0  0  0  0  0  0  0  0  0
  150.1991  136.4308  155.0327 C   0  0  0  0  0  0  0  0  0  0  0  0
  151.1428  142.9672  157.4416 C   0  0  0  0  0  0  0  0  0  0  0  0
  152.2290  143.5241  158.6842 S   0  0  0  0  0  0  0  0  0  0  0  0
  154.9812  141.2012  161.2867 H   0  0  0  0  0  0  0  0  0  0  0  0
  154.8357  142.4283  160.0306 H   0  0  0  0  0  0  0  0  0  0  0  0
  154.6750  140.7210  159.6193 H   0  0  0  0  0  0  0  0  0  0  0  0
  152.5711  140.5906  161.0030 H   0  0  0  0  0  0  0  0  0  0  0  0
  152.7313  142.2829  161.4155 H   0  0  0  0  0  0  0  0  0  0  0  0
  149.1519  140.3014  157.3487 H   0  0  0  0  0  0  0  0  0  0  0  0
  149.3156  141.4759  156.0669 H   0  0  0  0  0  0  0  0  0  0  0  0
  149.9178  138.3092  157.0248 H   0  0  0  0  0  0  0  0  0  0  0  0
  151.8621  137.7902  154.8222 H   0  0  0  0  0  0  0  0  0  0  0  0
  153.1299  136.6777  156.4406 H   0  0  0  0  0  0  0  0  0  0  0  0
  151.8969  136.9566  157.6556 H   0  0  0  0  0  0  0  0  0  0  0  0
  152.1770  134.6227  155.7855 H   0  0  0  0  0  0  0  0  0  0  0  0
  151.6776  134.5992  157.4605 H   0  0  0  0  0  0  0  0  0  0  0  0
  149.8381  134.3287  155.4914 H   0  0  0  0  0  0  0  0  0  0  0  0
  149.2328  136.8981  154.8342 H   0  0  0  0  0  0  0  0  0  0  0  0
  150.5642  136.0693  154.0706 H   0  0  0  0  0  0  0  0  0  0  0  0
  150.8236  143.6409  156.6602 H   0  0  0  0  0  0  0  0  0  0  0  0
  1  2  1  0  0  0  0
  1 20  1  0  0  0  0
  1 21  1  0  0  0  0
  1 22  1  0  0  0  0
  2  3  1  0  0  0  0
  2 23  1  0  0  0  0
  2 24  1  0  0  0  0
  3 19  1  0  0  0  0
  3  4  2  0  0  0  0
  4  5  1  0  0  0  0
  5  6  1  0  0  0  0
  5 18  2  0  0  0  0
  6  7  1  0  0  0  0
  6 25  1  0  0  0  0
  6 26  1  0  0  0  0
  7  8  2  0  0  0  0
  7  9  1  0  0  0  0
  9 10  1  0  0  0  0
  9 27  1  0  0  0  0
 10 17  1  0  0  0  0
 10 11  1  0  0  0  0
 10 28  1  0  0  0  0
 11 12  1  0  0  0  0
 11 29  1  0  0  0  0
 11 30  1  0  0  0  0
 12 13  1  0  0  0  0
 12 31  1  0  0  0  0
 12 32  1  0  0  0  0
 13 14  1  0  0  0  0
 13 17  1  0  0  0  0
 13 33  1  0  0  0  0
 14 15  2  0  0  0  0
 14 16  1  0  0  0  0
 17 34  1  0  0  0  0
 17 35  1  0  0  0  0
 18 19  1  0  0  0  0
 18 36  1  0  0  0  0
M  CHG  1  16  -1
M  END
> <s_m_source_file>
AV-unprocessed.smi

> <i_m_source_file_index>
2405

> <i_lp_mmshare_version>
43012

> <i_f3d_flags>
0

> <s_epik_input>
W0NIM11bQ0gyXWMxbmMoW2NIXXMxKVtDSDJdQyg9TylbTkhdW0NAQEhdMltDSDJdW0NIMl1bQ0BIXShbQ0gyXTIpQyg9TylbT0hd

> <s_epik_cmdline>
J2VwaWtfcHl0aG9uJywgJy1waCcsICc3LjAnLCAnLXRuJywgJzgnLCAnLW1hJywgJzIwMCcsICctbWV0YWxfYmluZGluZycsICctaW1hZScsICc8aW5maWxlLm1hZT4nLCAnLW9tYWUnLCAnPG91dGZpbGUubWFlPic=

> <r_epik_Ionization_Penalty>
0.000544611

> <r_epik_Ionization_Penalty_Charging>
0.000481685

> <r_epik_Ionization_Penalty_Neutral>
6.29266e-05

> <r_epik_State_Penalty>
0.00029893

> <r_epik_Charging_Adjusted_Penalty>
0.000780614

> <i_epik_Tot_Q>
-1

> <i_epik_Tot_abs_Q>
1

> <r_epik_Metal_State_Penalty>
-0

> <b_epik_Metal_Only>
0

> <s_lp_Force_Field>
OPLS_2005

> <r_lp_Energy>
7.49368

> <b_lp_Chiralities_Consistent>
1

> <s_lp_Variant>
AV-unprocessed.smi:2405-2

> <Gold.Version>
5.8.1

> <Gold.Id.Protein>
6NUR|6NUR_protein|mol2

> <Gold.PLP.Fitness>
40.7911

> <Gold.PLP.PLP>
-29.5500

> <Gold.PLP.part.hbond>
-2.0000

> <Gold.PLP.part.metal>
0.0000

> <Gold.PLP.part.buried>
-2.9702

> <Gold.PLP.part.nonpolar>
-24.6516

> <Gold.PLP.part.repulsive>
0.0601

> <Gold.PLP.ligand.clash>
0.0000

> <Gold.PLP.ligand.torsion>
0.4031

> <Gold.PLP.Chemscore.Hbond>
3.0000

> <Gold.PLP.Chemscore.CHOScore>
1.0000

> <Gold.PLP.Chemscore.Metal>
0.0000

> <Gold.Chemscore.Hbonds>
donor molecule, donor type, donor heavy atom, donor atom, acceptor molecule, acceptor atom, score
      P1  H  6896  6909       L1    16  2.00
      P1  H  7989  7998       L1     8  1.00
      L1  C    18    36       P1  8028  1.00

> <Gold.PLP.Chemscore.Internal.Correction>
0.0473

> <Gold.Rescore>
     Score         DG    S(hbond)    S(metal)    S(lipo)     H(rot)  DE(clash)    DE(int)     intcor
     16.41     -16.74       1.99        0.00      84.57       2.06       0.03       0.31       ----

> <Gold.Chemscore.Fitness>
16.4089

> <Gold.Chemscore.DG>
-16.7443

> <Gold.Chemscore.ZeroCoef>
-5.4800

> <Gold.Chemscore.Hbond>
1.9916

> <Gold.Chemscore.Metal>
0.0000

> <Gold.Chemscore.Lipo>
84.5704

> <Gold.Chemscore.Internal_Hbond>
0.0000

> <Gold.Chemscore.DEClash>
0.0280

> <Gold.Chemscore.DEInternal>
0.3074

> <Gold.Chemscore.Rot>
2.0635

> <Gold.Chemscore.Internal.Correction>
   9.000000E+99

> <Gold.Chemscore.Hbonds>
donor molecule, donor type, donor heavy atom, donor atom, acceptor molecule, acceptor atom, score
      P1  H  6896  6909       L1    16  0.98
      P1  H  7989  7998       L1     8  0.97

> <Gold.Chemscore.Hbond.Weighted>
-6.6521

> <Gold.Chemscore.Metal.Weighted>
-0.0000

> <Gold.Chemscore.Lipo.Weighted>
-9.8947

> <Gold.Chemscore.Internal_Hbond.Weighted>
0.0000

> <Gold.Chemscore.DEClash.Weighted>
0.0280

> <Gold.Chemscore.DEInternal.Weighted>
0.3074

> <Gold.Chemscore.Rot.Weighted>
5.2825

> <Gold.Chemscore.Internal.Correction.Weighted>
   9.000000E+99

> <Gold.Protein.RotatedTorsions>
[ 6907 6896 6895 6894 ] final   37.92 input  -60.11 | X-H torsion
[ 7974 7965 7964 7962 ] final  -73.48 input  175.53 | X-H torsion
[ 8008 7997 7996 7995 ] final   76.01 input   59.86 | X-H torsion
[ 10167 10162 10161 10158 ] final -124.13 input  -65.29 | X-H torsion
[ 10718 10713 10712 10709 ] final  150.24 input   66.30 | X-H torsion
[ 10763 10752 10751 10750 ] final -173.97 input  -60.55 | X-H torsion
[ 11005 11000 10999 10996 ] final   81.61 input  -57.11 | X-H torsion

> <Gold.Protein.ActiveResidues>
 VAL166  LYS551  ARG553  GLY616  TRP617  ASP618  TYR619  PRO620  LYS621  CYS622 
 ASP623  PHE694  ASN695  SER759  ASP760  ASP761  ALA762  ILE779  LEU786  VAL792 
 PHE793  MET794  SER795  GLU796  ALA797  LYS798  CYS799  TRP800  GLU811  SER814 

> <Gold.Protein.RotatedAtoms>
  152.1495  134.8999  160.0548 H   0  0  0  0  0  0  0  0  0  0  0  0  # atno 6907 bound_to 6896
  152.0036  133.3830  159.4200 H   0  0  0  0  0  0  0  0  0  0  0  0  # atno 6908 bound_to 6896
  150.6874  134.3729  159.5043 H   0  0  0  0  0  0  0  0  0  0  0  0  # atno 6909 bound_to 6896
  145.6516  140.9281  143.0982 H   0  0  0  0  0  0  0  0  0  0  0  0  # atno 7974 bound_to 7965
  155.8212  140.3469  155.5515 H   0  0  0  0  0  0  0  0  0  0  0  0  # atno 8008 bound_to 7997
  155.8340  140.0931  157.1795 H   0  0  0  0  0  0  0  0  0  0  0  0  # atno 8009 bound_to 7997
  154.4004  140.1407  156.3635 H   0  0  0  0  0  0  0  0  0  0  0  0  # atno 8010 bound_to 7997
  139.9961  143.5589  152.2322 H   0  0  0  0  0  0  0  0  0  0  0  0  # atno 10167 bound_to 10162
  157.2859  131.0844  151.1497 H   0  0  0  0  0  0  0  0  0  0  0  0  # atno 10718 bound_to 10713
  154.6017  135.2855  155.0528 H   0  0  0  0  0  0  0  0  0  0  0  0  # atno 10763 bound_to 10752
  154.1791  135.6460  153.5033 H   0  0  0  0  0  0  0  0  0  0  0  0  # atno 10764 bound_to 10752
  153.0159  135.5419  154.6738 H   0  0  0  0  0  0  0  0  0  0  0  0  # atno 10765 bound_to 10752
  139.9092  134.8009  156.2064 H   0  0  0  0  0  0  0  0  0  0  0  0  # atno 11005 bound_to 11000
  144.7120  139.8334  143.7411 LP  0  0  0  0  0  0  0  0  0  0  0  0  # atno 17320 bound_to 7965
  146.1199  139.4215  143.0235 LP  0  0  0  0  0  0  0  0  0  0  0  0  # atno 17321 bound_to 7965
  139.6305  144.7643  151.2546 LP  0  0  0  0  0  0  0  0  0  0  0  0  # atno 17342 bound_to 10162
  140.7436  143.6488  150.8267 LP  0  0  0  0  0  0  0  0  0  0  0  0  # atno 17343 bound_to 10162
  157.2913  130.6797  149.6115 LP  0  0  0  0  0  0  0  0  0  0  0  0  # atno 17370 bound_to 10713
  155.9665  130.4420  150.5363 LP  0  0  0  0  0  0  0  0  0  0  0  0  # atno 17371 bound_to 10713
  141.0492  133.6897  156.1741 LP  0  0  0  0  0  0  0  0  0  0  0  0  # atno 17394 bound_to 11000
  140.6836  134.4741  157.5589 LP  0  0  0  0  0  0  0  0  0  0  0  0  # atno 17395 bound_to 11000

$$$$
