AV-unprocessed.smi:604|AV-procd|sdf|3037|dock9
  -GOLD-   2262023553D 1   1.00000     0.00000
 Structure written by MMmdl.
 49 51  0  0  0  0  0  0  0  0  2 V2000
  150.2992  136.6340  156.1933 O   0  0  0  0  0  0  0  0  0  0  0  0
  149.8962  136.6041  155.0309 C   0  0  0  0  0  0  0  0  0  0  0  0
  149.7089  135.4917  154.3001 N   0  0  0  0  0  0  0  0  0  0  0  0
  149.9186  134.1392  154.6824 C   0  0  0  0  0  0  0  0  0  0  0  0
  149.4447  133.1277  153.8219 C   0  0  0  0  0  0  0  0  0  0  0  0
  149.6248  131.7790  154.1825 C   0  0  0  0  0  0  0  0  0  0  0  0
  150.2674  131.4927  155.4023 C   0  0  0  0  0  0  0  0  0  0  0  0
  150.7123  132.4474  156.2463 N   0  0  0  0  0  0  0  0  0  0  0  0
  150.5377  133.7394  155.8930 C   0  0  0  0  0  0  0  0  0  0  0  0
  149.6052  137.7051  154.3231 N   0  0  0  0  0  0  0  0  0  0  0  0
  149.7415  139.0754  154.8088 C   0  0  2  0  0  0  0  0  0  0  0  0
  151.1804  139.3568  155.2789 C   0  0  0  0  0  0  0  0  0  0  0  0
  151.3028  140.7668  155.8819 C   0  0  0  0  0  0  0  0  0  0  0  0
  150.3375  140.9624  156.9947 N   0  3  1  0  0  0  0  0  0  0  0  0
  150.5172  142.2602  157.6958 C   0  0  0  0  0  0  0  0  0  0  0  0
  151.8609  142.3271  158.4463 C   0  0  0  0  0  0  0  0  0  0  0  0
  152.1320  141.1636  159.4051 C   0  0  0  0  0  0  0  0  0  0  0  0
  153.2104  141.6793  160.3632 C   0  0  0  0  0  0  0  0  0  0  0  0
  153.1014  143.2110  160.3465 C   0  0  0  0  0  0  0  0  0  0  0  0
  151.9796  143.5507  159.3593 C   0  0  0  0  0  0  0  0  0  0  0  0
  148.9380  140.7319  156.5497 C   0  0  0  0  0  0  0  0  0  0  0  0
  148.7660  139.3178  155.9714 C   0  0  0  0  0  0  0  0  0  0  0  0
  149.4510  135.6320  153.3344 H   0  0  0  0  0  0  0  0  0  0  0  0
  148.9536  133.3790  152.8928 H   0  0  0  0  0  0  0  0  0  0  0  0
  149.2780  130.9832  153.5403 H   0  0  0  0  0  0  0  0  0  0  0  0
  150.4227  130.4694  155.7113 H   0  0  0  0  0  0  0  0  0  0  0  0
  150.8900  134.4555  156.6188 H   0  0  0  0  0  0  0  0  0  0  0  0
  149.2825  137.5871  153.3737 H   0  0  0  0  0  0  0  0  0  0  0  0
  149.4887  139.7656  154.0010 H   0  0  0  0  0  0  0  0  0  0  0  0
  151.4793  138.6173  156.0235 H   0  0  0  0  0  0  0  0  0  0  0  0
  151.8774  139.2550  154.4462 H   0  0  0  0  0  0  0  0  0  0  0  0
  152.3202  140.9089  156.2490 H   0  0  0  0  0  0  0  0  0  0  0  0
  151.1325  141.5225  155.1133 H   0  0  0  0  0  0  0  0  0  0  0  0
  150.5059  143.0726  156.9674 H   0  0  0  0  0  0  0  0  0  0  0  0
  149.6801  142.4587  158.3673 H   0  0  0  0  0  0  0  0  0  0  0  0
  152.6734  142.3735  157.7190 H   0  0  0  0  0  0  0  0  0  0  0  0
  151.2295  140.9299  159.9719 H   0  0  0  0  0  0  0  0  0  0  0  0
  152.4444  140.2563  158.8873 H   0  0  0  0  0  0  0  0  0  0  0  0
  153.0822  141.2702  161.3658 H   0  0  0  0  0  0  0  0  0  0  0  0
  154.1983  141.3783  160.0125 H   0  0  0  0  0  0  0  0  0  0  0  0
  152.8933  143.6155  161.3376 H   0  0  0  0  0  0  0  0  0  0  0  0
  154.0440  143.6442  160.0097 H   0  0  0  0  0  0  0  0  0  0  0  0
  152.1801  144.4681  158.8049 H   0  0  0  0  0  0  0  0  0  0  0  0
  151.0478  143.6963  159.9084 H   0  0  0  0  0  0  0  0  0  0  0  0
  148.2508  140.8636  157.3847 H   0  0  0  0  0  0  0  0  0  0  0  0
  148.6659  141.4769  155.8000 H   0  0  0  0  0  0  0  0  0  0  0  0
  147.7384  139.1820  155.6321 H   0  0  0  0  0  0  0  0  0  0  0  0
  148.9324  138.5812  156.7591 H   0  0  0  0  0  0  0  0  0  0  0  0
  150.5509  140.2465  157.6746 H   0  0  0  0  0  0  0  0  0  0  0  0
  1  2  2  0  0  0  0
  2  3  1  0  0  0  0
  2 10  1  0  0  0  0
  3  4  1  0  0  0  0
  3 23  1  0  0  0  0
  4  9  1  0  0  0  0
  4  5  2  0  0  0  0
  5  6  1  0  0  0  0
  5 24  1  0  0  0  0
  6  7  2  0  0  0  0
  6 25  1  0  0  0  0
  7  8  1  0  0  0  0
  7 26  1  0  0  0  0
  8  9  2  0  0  0  0
  9 27  1  0  0  0  0
 10 11  1  0  0  0  0
 10 28  1  0  0  0  0
 11 22  1  0  0  0  0
 11 12  1  0  0  0  0
 11 29  1  0  0  0  0
 12 13  1  0  0  0  0
 12 30  1  0  0  0  0
 12 31  1  0  0  0  0
 13 14  1  0  0  0  0
 13 32  1  0  0  0  0
 13 33  1  0  0  0  0
 14 15  1  0  0  0  0
 14 21  1  0  0  0  0
 14 49  1  0  0  0  0
 15 16  1  0  0  0  0
 15 34  1  0  0  0  0
 15 35  1  0  0  0  0
 16 20  1  0  0  0  0
 16 17  1  0  0  0  0
 16 36  1  0  0  0  0
 17 18  1  0  0  0  0
 17 37  1  0  0  0  0
 17 38  1  0  0  0  0
 18 19  1  0  0  0  0
 18 39  1  0  0  0  0
 18 40  1  0  0  0  0
 19 20  1  0  0  0  0
 19 41  1  0  0  0  0
 19 42  1  0  0  0  0
 20 43  1  0  0  0  0
 20 44  1  0  0  0  0
 21 22  1  0  0  0  0
 21 45  1  0  0  0  0
 21 46  1  0  0  0  0
 22 47  1  0  0  0  0
 22 48  1  0  0  0  0
M  CHG  1  14   1
M  END
> <s_m_source_file>
AV-unprocessed.smi

> <i_m_source_file_index>
604

> <i_lp_mmshare_version>
43012

> <i_f3d_flags>
0

> <s_epik_input>
W2NIXTFuW2NIXVtjSF1bY0hdYzFbTkhdQyg9TylbTkhdW0NIXTJbQ0gyXVtDSDJdTihbQ0gyXVtDSDJdMilbQ0gyXVtDSF0zW0NIMl1bQ0gyXVtDSDJdW0NIMl0z

> <s_epik_cmdline>
J2VwaWtfcHl0aG9uJywgJy1waCcsICc3LjAnLCAnLXRuJywgJzgnLCAnLW1hJywgJzIwMCcsICctbWV0YWxfYmluZGluZycsICctaW1hZScsICc8aW5maWxlLm1hZT4nLCAnLW9tYWUnLCAnPG91dGZpbGUubWFlPic=

> <r_lp_tautomer_probability>
1

> <r_epik_Ionization_Penalty>
0.00608112

> <r_epik_Ionization_Penalty_Charging>
0.00207989

> <r_epik_Ionization_Penalty_Neutral>
0.00400122

> <r_epik_State_Penalty>
-0

> <r_epik_Charging_Adjusted_Penalty>
0.00207989

> <i_epik_Tot_Q>
1

> <i_epik_Tot_abs_Q>
1

> <r_epik_Metal_State_Penalty>
-0

> <b_epik_Metal_Only>
0

> <s_lp_Force_Field>
OPLS_2005

> <r_lp_Energy>
41.6956

> <b_lp_Chiralities_Consistent>
1

> <s_lp_Variant>
AV-unprocessed.smi:604-1

> <Gold.Version>
5.8.1

> <Gold.Id.Protein>
6NUR|6NUR_protein|mol2

> <Gold.PLP.Fitness>
46.8253

> <Gold.PLP.PLP>
-41.4015

> <Gold.PLP.part.hbond>
-2.3174

> <Gold.PLP.part.metal>
0.0000

> <Gold.PLP.part.buried>
-4.4270

> <Gold.PLP.part.nonpolar>
-34.8016

> <Gold.PLP.part.repulsive>
0.1000

> <Gold.PLP.ligand.clash>
0.0000

> <Gold.PLP.ligand.torsion>
0.1315

> <Gold.PLP.Chemscore.Hbond>
1.8882

> <Gold.PLP.Chemscore.CHOScore>
0.0000

> <Gold.PLP.Chemscore.Metal>
0.0000

> <Gold.Chemscore.Hbonds>
donor molecule, donor type, donor heavy atom, donor atom, acceptor molecule, acceptor atom, score
      L1  H     3    23       P1  7948  0.90
      L1  H    10    28       P1  7948  0.90

> <Gold.PLP.Chemscore.Internal.Correction>
0.0224

> <Gold.Rescore>
     Score         DG    S(hbond)    S(metal)    S(lipo)     H(rot)  DE(clash)    DE(int)     intcor
     17.74     -20.32       1.61        0.00     110.28       1.35       0.16       2.42       ----

> <Gold.Chemscore.Fitness>
17.7420

> <Gold.Chemscore.DG>
-20.3178

> <Gold.Chemscore.ZeroCoef>
-5.4800

> <Gold.Chemscore.Hbond>
1.6105

> <Gold.Chemscore.Metal>
0.0000

> <Gold.Chemscore.Lipo>
110.2830

> <Gold.Chemscore.Internal_Hbond>
0.0000

> <Gold.Chemscore.DEClash>
0.1550

> <Gold.Chemscore.DEInternal>
2.4208

> <Gold.Chemscore.Rot>
1.3455

> <Gold.Chemscore.Internal.Correction>
   9.000000E+99

> <Gold.Chemscore.Hbonds>
donor molecule, donor type, donor heavy atom, donor atom, acceptor molecule, acceptor atom, score
      L1  H     3    23       P1  7948  0.18
      L1  H    10    28       P1  7948  0.81

> <Gold.Chemscore.Hbond.Weighted>
-5.3792

> <Gold.Chemscore.Metal.Weighted>
-0.0000

> <Gold.Chemscore.Lipo.Weighted>
-12.9031

> <Gold.Chemscore.Internal_Hbond.Weighted>
0.0000

> <Gold.Chemscore.DEClash.Weighted>
0.1550

> <Gold.Chemscore.DEInternal.Weighted>
2.4208

> <Gold.Chemscore.Rot.Weighted>
3.4445

> <Gold.Chemscore.Internal.Correction.Weighted>
   9.000000E+99

> <Gold.Protein.RotatedTorsions>
[ 6907 6896 6895 6894 ] final -153.15 input  -60.11 | X-H torsion
[ 7974 7965 7964 7962 ] final  -57.12 input  175.53 | X-H torsion
[ 8008 7997 7996 7995 ] final  177.59 input   59.86 | X-H torsion
[ 10167 10162 10161 10158 ] final  -20.23 input  -65.29 | X-H torsion
[ 10718 10713 10712 10709 ] final -137.15 input   66.30 | X-H torsion
[ 10763 10752 10751 10750 ] final -169.94 input  -60.55 | X-H torsion
[ 11005 11000 10999 10996 ] final  -22.93 input  -57.11 | X-H torsion

> <Gold.Protein.ActiveResidues>
 VAL166  LYS551  ARG553  GLY616  TRP617  ASP618  TYR619  PRO620  LYS621  CYS622 
 ASP623  PHE694  ASN695  SER759  ASP760  ASP761  ALA762  ILE779  LEU786  VAL792 
 PHE793  MET794  SER795  GLU796  ALA797  LYS798  CYS799  TRP800  GLU811  SER814 

> <Gold.Protein.RotatedAtoms>
  151.2383  133.4413  159.2606 H   0  0  0  0  0  0  0  0  0  0  0  0  # atno 6907 bound_to 6896
  151.0730  134.9810  159.8328 H   0  0  0  0  0  0  0  0  0  0  0  0  # atno 6908 bound_to 6896
  152.5414  134.2327  159.8884 H   0  0  0  0  0  0  0  0  0  0  0  0  # atno 6909 bound_to 6896
  145.8547  140.8328  142.9967 H   0  0  0  0  0  0  0  0  0  0  0  0  # atno 7974 bound_to 7965
  156.0640  140.1354  156.9907 H   0  0  0  0  0  0  0  0  0  0  0  0  # atno 8008 bound_to 7997
  154.4496  140.0985  156.6631 H   0  0  0  0  0  0  0  0  0  0  0  0  # atno 8009 bound_to 7997
  155.5333  140.3459  155.4433 H   0  0  0  0  0  0  0  0  0  0  0  0  # atno 8010 bound_to 7997
  140.7274  143.4742  151.0205 H   0  0  0  0  0  0  0  0  0  0  0  0  # atno 10167 bound_to 10162
  156.2849  130.7342  151.1350 H   0  0  0  0  0  0  0  0  0  0  0  0  # atno 10718 bound_to 10713
  154.6469  135.2906  155.0035 H   0  0  0  0  0  0  0  0  0  0  0  0  # atno 10763 bound_to 10752
  154.1141  135.6558  153.4894 H   0  0  0  0  0  0  0  0  0  0  0  0  # atno 10764 bound_to 10752
  153.0356  135.5272  154.7360 H   0  0  0  0  0  0  0  0  0  0  0  0  # atno 10765 bound_to 10752
  140.8704  133.7725  156.0179 H   0  0  0  0  0  0  0  0  0  0  0  0  # atno 11005 bound_to 11000
  144.6728  140.1006  143.7460 LP  0  0  0  0  0  0  0  0  0  0  0  0  # atno 17320 bound_to 7965
  145.9317  139.2610  143.1321 LP  0  0  0  0  0  0  0  0  0  0  0  0  # atno 17321 bound_to 7965
  139.8436  143.7530  152.3180 LP  0  0  0  0  0  0  0  0  0  0  0  0  # atno 17342 bound_to 10162
  139.7688  144.7483  151.0255 LP  0  0  0  0  0  0  0  0  0  0  0  0  # atno 17343 bound_to 10162
  157.7325  131.0599  150.5622 LP  0  0  0  0  0  0  0  0  0  0  0  0  # atno 17370 bound_to 10713
  156.5732  130.4285  149.6010 LP  0  0  0  0  0  0  0  0  0  0  0  0  # atno 17371 bound_to 10713
  140.8580  134.2875  157.5247 LP  0  0  0  0  0  0  0  0  0  0  0  0  # atno 17394 bound_to 11000
  139.8712  134.9503  156.4051 LP  0  0  0  0  0  0  0  0  0  0  0  0  # atno 17395 bound_to 11000

$$$$
