AV-unprocessed.smi:2942|AV-procd|sdf|11267|dock1
  -GOLD-   2272016153D 1   1.00000     0.00000
 Structure written by MMmdl.
 46 49  0  0  0  0  0  0  0  0  2 V2000
  153.4343  141.6837  161.8614 O   0  0  0  0  0  0  0  0  0  0  0  0
  153.4171  141.7234  160.6308 C   0  0  0  0  0  0  0  0  0  0  0  0
  154.0834  140.8319  159.8784 N   0  0  0  0  0  0  0  0  0  0  0  0
  154.8318  139.6879  160.3899 C   0  0  0  0  0  0  0  0  0  0  0  0
  153.9249  138.5701  160.9479 C   0  0  0  0  0  0  0  0  0  0  0  0
  154.3020  138.1121  162.3472 C   0  0  0  0  0  0  0  0  0  0  0  0
  153.6983  136.9912  162.9567 C   0  0  0  0  0  0  0  0  0  0  0  0
  154.0810  136.6285  164.2651 C   0  0  0  0  0  0  0  0  0  0  0  0
  155.0562  137.3946  164.9373 C   0  0  0  0  0  0  0  0  0  0  0  0
  155.6274  138.5042  164.2816 C   0  0  0  0  0  0  0  0  0  0  0  0
  155.2368  138.8166  163.0269 N   0  3  0  0  0  0  0  0  0  0  0  0
  152.5761  142.8030  159.9110 C   0  0  0  0  0  0  0  0  0  0  0  0
  151.4263  142.1089  159.1290 C   0  0  0  0  0  0  0  0  0  0  0  0
  150.5344  143.1612  158.4367 C   0  0  1  0  0  0  0  0  0  0  0  0
  149.9200  144.0950  159.5000 C   0  0  0  0  0  0  0  0  0  0  0  0
  151.0535  144.8073  160.2672 C   0  0  2  0  0  0  0  0  0  0  0  0
  151.9007  145.6393  159.2825 C   0  0  0  0  0  0  0  0  0  0  0  0
  152.5098  144.7031  158.2183 C   0  0  2  0  0  0  0  0  0  0  0  0
  151.3812  143.9877  157.4471 C   0  0  0  0  0  0  0  0  0  0  0  0
  153.4093  143.6547  158.9064 C   0  0  0  0  0  0  0  0  0  0  0  0
  151.9471  143.7573  160.9628 C   0  0  0  0  0  0  0  0  0  0  0  0
  154.0370  140.9343  158.8746 H   0  0  0  0  0  0  0  0  0  0  0  0
  155.4235  139.2928  159.5639 H   0  0  0  0  0  0  0  0  0  0  0  0
  155.5440  140.0142  161.1494 H   0  0  0  0  0  0  0  0  0  0  0  0
  152.8888  138.9105  160.9528 H   0  0  0  0  0  0  0  0  0  0  0  0
  153.9503  137.7070  160.2812 H   0  0  0  0  0  0  0  0  0  0  0  0
  152.9489  136.4173  162.4310 H   0  0  0  0  0  0  0  0  0  0  0  0
  153.6299  135.7743  164.7485 H   0  0  0  0  0  0  0  0  0  0  0  0
  155.3604  137.1352  165.9408 H   0  0  0  0  0  0  0  0  0  0  0  0
  156.3774  139.1472  164.7190 H   0  0  0  0  0  0  0  0  0  0  0  0
  151.8330  141.4247  158.3829 H   0  0  0  0  0  0  0  0  0  0  0  0
  150.8146  141.5009  159.7976 H   0  0  0  0  0  0  0  0  0  0  0  0
  149.7348  142.6563  157.8940 H   0  0  0  0  0  0  0  0  0  0  0  0
  149.2648  144.8275  159.0267 H   0  0  0  0  0  0  0  0  0  0  0  0
  149.2969  143.5247  160.1901 H   0  0  0  0  0  0  0  0  0  0  0  0
  150.6206  145.4682  161.0187 H   0  0  0  0  0  0  0  0  0  0  0  0
  151.2849  146.4031  158.8059 H   0  0  0  0  0  0  0  0  0  0  0  0
  152.6901  146.1689  159.8173 H   0  0  0  0  0  0  0  0  0  0  0  0
  153.1075  145.2906  157.5207 H   0  0  0  0  0  0  0  0  0  0  0  0
  151.8010  143.3403  156.6761 H   0  0  0  0  0  0  0  0  0  0  0  0
  150.7552  144.7165  156.9306 H   0  0  0  0  0  0  0  0  0  0  0  0
  154.2280  144.1626  159.4191 H   0  0  0  0  0  0  0  0  0  0  0  0
  153.8655  143.0187  158.1460 H   0  0  0  0  0  0  0  0  0  0  0  0
  151.3523  143.1989  161.6875 H   0  0  0  0  0  0  0  0  0  0  0  0
  152.7291  144.2598  161.5344 H   0  0  0  0  0  0  0  0  0  0  0  0
  155.6609  139.6254  162.5716 H   0  0  0  0  0  0  0  0  0  0  0  0
  1  2  2  0  0  0  0
  2  3  1  0  0  0  0
  2 12  1  0  0  0  0
  3  4  1  0  0  0  0
  3 22  1  0  0  0  0
  4  5  1  0  0  0  0
  4 23  1  0  0  0  0
  4 24  1  0  0  0  0
  5  6  1  0  0  0  0
  5 25  1  0  0  0  0
  5 26  1  0  0  0  0
  6 11  1  0  0  0  0
  6  7  2  0  0  0  0
  7  8  1  0  0  0  0
  7 27  1  0  0  0  0
  8  9  2  0  0  0  0
  8 28  1  0  0  0  0
  9 10  1  0  0  0  0
  9 29  1  0  0  0  0
 10 11  2  0  0  0  0
 10 30  1  0  0  0  0
 11 46  1  0  0  0  0
 12 20  1  0  0  0  0
 12 21  1  0  0  0  0
 12 13  1  0  0  0  0
 13 14  1  0  0  0  0
 13 31  1  0  0  0  0
 13 32  1  0  0  0  0
 14 19  1  0  0  0  0
 14 15  1  0  0  0  0
 14 33  1  0  0  0  0
 15 16  1  0  0  0  0
 15 34  1  0  0  0  0
 15 35  1  0  0  0  0
 16 17  1  0  0  0  0
 16 21  1  0  0  0  0
 16 36  1  0  0  0  0
 17 18  1  0  0  0  0
 17 37  1  0  0  0  0
 17 38  1  0  0  0  0
 18 19  1  0  0  0  0
 18 20  1  0  0  0  0
 18 39  1  0  0  0  0
 19 40  1  0  0  0  0
 19 41  1  0  0  0  0
 20 42  1  0  0  0  0
 20 43  1  0  0  0  0
 21 44  1  0  0  0  0
 21 45  1  0  0  0  0
M  CHG  1  11   1
M  END
> <s_m_source_file>
AV-unprocessed.smi

> <i_m_source_file_index>
2942

> <i_lp_mmshare_version>
43012

> <i_f3d_flags>
0

> <s_epik_input>
W0NIMl0xW0NASF0oW0NIMl0yKVtDSDJdW0NASF0oW0NIMl0zKVtDSDJdW0NAQEhdMVtDSDJdQzIzQyg9TylbTkhdW0NIMl1bQ0gyXWM0W2NIXVtjSF1bY0hdW2NIXW40

> <s_epik_cmdline>
J2VwaWtfcHl0aG9uJywgJy1waCcsICc3LjAnLCAnLXRuJywgJzgnLCAnLW1hJywgJzIwMCcsICctbWV0YWxfYmluZGluZycsICctaW1hZScsICc8aW5maWxlLm1hZT4nLCAnLW9tYWUnLCAnPG91dGZpbGUubWFlPic=

> <r_epik_Ionization_Penalty>
1.81477

> <r_epik_Ionization_Penalty_Charging>
1.81477

> <r_epik_Ionization_Penalty_Neutral>
2.68418e-08

> <r_epik_State_Penalty>
1.92951

> <r_epik_Charging_Adjusted_Penalty>
3.74429

> <i_epik_Tot_Q>
1

> <i_epik_Tot_abs_Q>
1

> <r_epik_Metal_State_Penalty>
1.95679

> <b_epik_Metal_Only>
0

> <s_lp_Force_Field>
OPLS_2005

> <r_lp_Energy>
40.8466

> <b_lp_Chiralities_Consistent>
1

> <s_lp_Variant>
AV-unprocessed.smi:2942-2

> <Gold.Version>
5.8.1

> <Gold.Id.Protein>
6NUR|6NUR_protein|mol2

> <Gold.PLP.Fitness>
51.9112

> <Gold.PLP.PLP>
-52.9607

> <Gold.PLP.part.hbond>
0.0000

> <Gold.PLP.part.metal>
0.0000

> <Gold.PLP.part.buried>
-5.1058

> <Gold.PLP.part.nonpolar>
-48.7189

> <Gold.PLP.part.repulsive>
0.0956

> <Gold.PLP.ligand.clash>
0.0000

> <Gold.PLP.ligand.torsion>
0.5382

> <Gold.PLP.Chemscore.Hbond>
0.0000

> <Gold.PLP.Chemscore.CHOScore>
0.0000

> <Gold.PLP.Chemscore.Metal>
0.0000

> <Gold.PLP.Chemscore.Internal.Correction>
0.0268

> <Gold.Rescore>
     Score         DG    S(hbond)    S(metal)    S(lipo)     H(rot)  DE(clash)    DE(int)     intcor
     20.51     -21.02       0.00        0.00     163.79       1.41       0.02       0.49       ----

> <Gold.Chemscore.Fitness>
20.5136

> <Gold.Chemscore.DG>
-21.0222

> <Gold.Chemscore.ZeroCoef>
-5.4800

> <Gold.Chemscore.Hbond>
0.0000

> <Gold.Chemscore.Metal>
0.0000

> <Gold.Chemscore.Lipo>
163.7880

> <Gold.Chemscore.Internal_Hbond>
0.0000

> <Gold.Chemscore.DEClash>
0.0215

> <Gold.Chemscore.DEInternal>
0.4871

> <Gold.Chemscore.Rot>
1.4145

> <Gold.Chemscore.Internal.Correction>
   9.000000E+99

> <Gold.Chemscore.Hbond.Weighted>
-0.0000

> <Gold.Chemscore.Metal.Weighted>
-0.0000

> <Gold.Chemscore.Lipo.Weighted>
-19.1632

> <Gold.Chemscore.Internal_Hbond.Weighted>
0.0000

> <Gold.Chemscore.DEClash.Weighted>
0.0215

> <Gold.Chemscore.DEInternal.Weighted>
0.4871

> <Gold.Chemscore.Rot.Weighted>
3.6210

> <Gold.Chemscore.Internal.Correction.Weighted>
   9.000000E+99

> <Gold.Protein.RotatedTorsions>
[ 6907 6896 6895 6894 ] final   96.50 input  -60.11 | X-H torsion
[ 7974 7965 7964 7962 ] final  145.95 input  175.53 | X-H torsion
[ 8008 7997 7996 7995 ] final  -95.78 input   59.86 | X-H torsion
[ 10167 10162 10161 10158 ] final  141.61 input  -65.29 | X-H torsion
[ 10718 10713 10712 10709 ] final  -78.53 input   66.30 | X-H torsion
[ 10763 10752 10751 10750 ] final   17.97 input  -60.55 | X-H torsion
[ 11005 11000 10999 10996 ] final  -85.41 input  -57.11 | X-H torsion

> <Gold.Protein.ActiveResidues>
 VAL166  LYS551  ARG553  GLY616  TRP617  ASP618  TYR619  PRO620  LYS621  CYS622 
 ASP623  PHE694  ASN695  SER759  ASP760  ASP761  ALA762  ILE779  LEU786  VAL792 
 PHE793  MET794  SER795  GLU796  ALA797  LYS798  CYS799  TRP800  GLU811  SER814 

> <Gold.Protein.RotatedAtoms>
  152.5434  134.0877  159.8262 H   0  0  0  0  0  0  0  0  0  0  0  0  # atno 6907 bound_to 6896
  151.0970  133.5264  159.2619 H   0  0  0  0  0  0  0  0  0  0  0  0  # atno 6908 bound_to 6896
  151.2034  135.0461  159.8936 H   0  0  0  0  0  0  0  0  0  0  0  0  # atno 6909 bound_to 6896
  144.8710  139.5846  143.5887 H   0  0  0  0  0  0  0  0  0  0  0  0  # atno 7974 bound_to 7965
  154.7658  140.0477  157.1011 H   0  0  0  0  0  0  0  0  0  0  0  0  # atno 8008 bound_to 7997
  154.9882  140.3110  155.4898 H   0  0  0  0  0  0  0  0  0  0  0  0  # atno 8009 bound_to 7997
  156.2912  140.2223  156.4985 H   0  0  0  0  0  0  0  0  0  0  0  0  # atno 8010 bound_to 7997
  139.5016  144.6161  151.6161 H   0  0  0  0  0  0  0  0  0  0  0  0  # atno 10167 bound_to 10162
  156.0115  130.4520  150.3510 H   0  0  0  0  0  0  0  0  0  0  0  0  # atno 10718 bound_to 10713
  153.1291  135.6736  153.9208 H   0  0  0  0  0  0  0  0  0  0  0  0  # atno 10763 bound_to 10752
  153.8700  135.3071  155.3443 H   0  0  0  0  0  0  0  0  0  0  0  0  # atno 10764 bound_to 10752
  154.7691  135.4948  153.9695 H   0  0  0  0  0  0  0  0  0  0  0  0  # atno 10765 bound_to 10752
  141.1641  133.7398  156.9010 H   0  0  0  0  0  0  0  0  0  0  0  0  # atno 11005 bound_to 11000
  146.2930  139.7195  142.9147 LP  0  0  0  0  0  0  0  0  0  0  0  0  # atno 17320 bound_to 7965
  145.4130  141.0398  143.3006 LP  0  0  0  0  0  0  0  0  0  0  0  0  # atno 17321 bound_to 7965
  140.5849  143.9882  150.6289 LP  0  0  0  0  0  0  0  0  0  0  0  0  # atno 17342 bound_to 10162
  140.3043  143.3240  152.0941 LP  0  0  0  0  0  0  0  0  0  0  0  0  # atno 17343 bound_to 10162
  157.1602  131.0343  151.2844 LP  0  0  0  0  0  0  0  0  0  0  0  0  # atno 17370 bound_to 10713
  157.4317  130.7494  149.6996 LP  0  0  0  0  0  0  0  0  0  0  0  0  # atno 17371 bound_to 10713
  140.1582  134.9183  157.2681 LP  0  0  0  0  0  0  0  0  0  0  0  0  # atno 17394 bound_to 11000
  140.2642  134.3536  155.7396 LP  0  0  0  0  0  0  0  0  0  0  0  0  # atno 17395 bound_to 11000

$$$$
