AV-unprocessed.smi:1551|AV-procd|sdf|6233|dock2
  -GOLD-   22720 6413D 1   1.00000     0.00000
 Structure written by MMmdl.
 38 39  0  0  0  0  0  0  0  0  1 V2000
  151.9588  138.5023  154.5850 C   0  0  0  0  0  0  0  0  0  0  0  0
  150.6182  138.3082  154.1478 O   0  0  0  0  0  0  0  0  0  0  0  0
  149.7375  139.3703  154.2272 C   0  0  0  0  0  0  0  0  0  0  0  0
  150.1986  140.5569  154.6968 N   0  0  0  0  0  0  0  0  0  0  0  0
  149.3394  141.5936  154.7781 C   0  0  0  0  0  0  0  0  0  0  0  0
  147.9855  141.5031  154.4066 C   0  0  0  0  0  0  0  0  0  0  0  0
  147.5048  140.2735  153.9201 C   0  0  0  0  0  0  0  0  0  0  0  0
  148.3983  139.1802  153.8134 C   0  0  0  0  0  0  0  0  0  0  0  0
  148.0112  137.8911  153.3538 N   0  0  0  0  0  0  0  0  0  0  0  0
  146.7734  137.4256  153.1148 C   0  0  0  0  0  0  0  0  0  0  0  0
  145.7353  138.0761  153.2350 O   0  0  0  0  0  0  0  0  0  0  0  0
  146.8098  136.1502  152.7023 N   0  0  0  0  0  0  0  0  0  0  0  0
  145.6544  135.3334  152.3398 C   0  0  2  0  0  0  0  0  0  0  0  0
  146.0292  133.8425  152.4182 C   0  0  0  0  0  0  0  0  0  0  0  0
  144.8608  132.9432  151.9782 C   0  0  0  0  0  0  0  0  0  0  0  0
  144.3349  133.3115  150.5779 C   0  0  2  0  0  0  0  0  0  0  0  0
  145.2851  132.9549  149.5933 O   0  0  0  0  0  0  0  0  0  0  0  0
  144.0033  134.8124  150.4727 C   0  0  0  0  0  0  0  0  0  0  0  0
  145.1744  135.7033  150.9240 C   0  0  0  0  0  0  0  0  0  0  0  0
  152.5185  137.5769  154.4505 H   0  0  0  0  0  0  0  0  0  0  0  0
  151.9997  138.7622  155.6438 H   0  0  0  0  0  0  0  0  0  0  0  0
  152.4601  139.2785  154.0049 H   0  0  0  0  0  0  0  0  0  0  0  0
  149.7416  142.5214  155.1570 H   0  0  0  0  0  0  0  0  0  0  0  0
  147.3294  142.3560  154.4976 H   0  0  0  0  0  0  0  0  0  0  0  0
  146.4625  140.1899  153.6543 H   0  0  0  0  0  0  0  0  0  0  0  0
  148.7729  137.2717  153.1177 H   0  0  0  0  0  0  0  0  0  0  0  0
  147.7133  135.7058  152.6290 H   0  0  0  0  0  0  0  0  0  0  0  0
  144.8328  135.5097  153.0364 H   0  0  0  0  0  0  0  0  0  0  0  0
  146.8980  133.6450  151.7884 H   0  0  0  0  0  0  0  0  0  0  0  0
  146.3235  133.5856  153.4365 H   0  0  0  0  0  0  0  0  0  0  0  0
  145.1627  131.8954  152.0068 H   0  0  0  0  0  0  0  0  0  0  0  0
  144.0487  133.0435  152.6995 H   0  0  0  0  0  0  0  0  0  0  0  0
  143.4335  132.7331  150.3724 H   0  0  0  0  0  0  0  0  0  0  0  0
  145.5978  133.7440  149.1781 H   0  0  0  0  0  0  0  0  0  0  0  0
  143.7117  135.0649  149.4525 H   0  0  0  0  0  0  0  0  0  0  0  0
  143.1357  135.0282  151.0976 H   0  0  0  0  0  0  0  0  0  0  0  0
  144.8686  136.7498  150.8951 H   0  0  0  0  0  0  0  0  0  0  0  0
  145.9987  135.6051  150.2160 H   0  0  0  0  0  0  0  0  0  0  0  0
  1  2  1  0  0  0  0
  1 20  1  0  0  0  0
  1 21  1  0  0  0  0
  1 22  1  0  0  0  0
  2  3  1  0  0  0  0
  3  8  1  0  0  0  0
  3  4  2  0  0  0  0
  4  5  1  0  0  0  0
  5  6  2  0  0  0  0
  5 23  1  0  0  0  0
  6  7  1  0  0  0  0
  6 24  1  0  0  0  0
  7  8  2  0  0  0  0
  7 25  1  0  0  0  0
  8  9  1  0  0  0  0
  9 10  1  0  0  0  0
  9 26  1  0  0  0  0
 10 11  2  0  0  0  0
 10 12  1  0  0  0  0
 12 13  1  0  0  0  0
 12 27  1  0  0  0  0
 13 19  1  0  0  0  0
 13 14  1  0  0  0  0
 13 28  1  0  0  0  0
 14 15  1  0  0  0  0
 14 29  1  0  0  0  0
 14 30  1  0  0  0  0
 15 16  1  0  0  0  0
 15 31  1  0  0  0  0
 15 32  1  0  0  0  0
 16 17  1  0  0  0  0
 16 18  1  0  0  0  0
 16 33  1  0  0  0  0
 17 34  1  0  0  0  0
 18 19  1  0  0  0  0
 18 35  1  0  0  0  0
 18 36  1  0  0  0  0
 19 37  1  0  0  0  0
 19 38  1  0  0  0  0
M  END
> <s_m_source_file>
AV-unprocessed.smi

> <i_m_source_file_index>
1551

> <i_lp_mmshare_version>
43012

> <i_f3d_flags>
0

> <s_epik_input>
W0NIM11PYzFuW2NIXVtjSF1bY0hdYzFbTkhdQyg9TylbTkhdW0NAQEhdMltDSDJdW0NIMl1bQ0BASF0oW09IXSlbQ0gyXVtDSDJdMg==

> <s_epik_cmdline>
J2VwaWtfcHl0aG9uJywgJy1waCcsICc3LjAnLCAnLXRuJywgJzgnLCAnLW1hJywgJzIwMCcsICctbWV0YWxfYmluZGluZycsICctaW1hZScsICc8aW5maWxlLm1hZT4nLCAnLW9tYWUnLCAnPG91dGZpbGUubWFlPic=

> <r_lp_tautomer_probability>
1

> <r_epik_Ionization_Penalty>
9.95655e-05

> <r_epik_Ionization_Penalty_Charging>
0

> <r_epik_Ionization_Penalty_Neutral>
9.95655e-05

> <r_epik_State_Penalty>
-0

> <r_epik_Charging_Adjusted_Penalty>
0

> <i_epik_Tot_Q>
0

> <i_epik_Tot_abs_Q>
0

> <r_epik_Metal_State_Penalty>
-0

> <b_epik_Metal_Only>
0

> <s_lp_Force_Field>
OPLS_2005

> <r_lp_Energy>
13.9049

> <b_lp_Chiralities_Consistent>
1

> <s_lp_Variant>
AV-unprocessed.smi:1551-2

> <Gold.Version>
5.8.1

> <Gold.Id.Protein>
6NUR|6NUR_protein|mol2

> <Gold.PLP.Fitness>
41.9692

> <Gold.PLP.PLP>
-30.3613

> <Gold.PLP.part.hbond>
-2.8856

> <Gold.PLP.part.metal>
0.0000

> <Gold.PLP.part.buried>
-0.7615

> <Gold.PLP.part.nonpolar>
-27.5351

> <Gold.PLP.part.repulsive>
0.5967

> <Gold.PLP.ligand.clash>
0.0000

> <Gold.PLP.ligand.torsion>
0.2936

> <Gold.PLP.Chemscore.Hbond>
3.0640

> <Gold.PLP.Chemscore.CHOScore>
1.0000

> <Gold.PLP.Chemscore.Metal>
0.0000

> <Gold.Chemscore.Hbonds>
donor molecule, donor type, donor heavy atom, donor atom, acceptor molecule, acceptor atom, score
      L1  H     9    26       P1  7948  0.62
      L1  H    12    27       P1  7948  0.56
      L1  H    17    34       P1  7921  1.00
      P1  H  7989  7998       L1     4  0.91
      L1  C     5    23       P1  8028  1.00

> <Gold.PLP.Chemscore.Internal.Correction>
0.0030

> <Gold.Rescore>
     Score         DG    S(hbond)    S(metal)    S(lipo)     H(rot)  DE(clash)    DE(int)     intcor
     13.29     -16.53       2.22        0.00      69.75       1.77       1.72       1.52       ----

> <Gold.Chemscore.Fitness>
13.2942

> <Gold.Chemscore.DG>
-16.5277

> <Gold.Chemscore.ZeroCoef>
-5.4800

> <Gold.Chemscore.Hbond>
2.2221

> <Gold.Chemscore.Metal>
0.0000

> <Gold.Chemscore.Lipo>
69.7489

> <Gold.Chemscore.Internal_Hbond>
0.0000

> <Gold.Chemscore.DEClash>
1.7183

> <Gold.Chemscore.DEInternal>
1.5151

> <Gold.Chemscore.Rot>
1.7714

> <Gold.Chemscore.Internal.Correction>
   9.000000E+99

> <Gold.Chemscore.Hbonds>
donor molecule, donor type, donor heavy atom, donor atom, acceptor molecule, acceptor atom, score
      L1  H     9    26       P1  7948  0.62
      L1  H    12    27       P1  7948  0.52
      L1  H    17    34       P1  7921  0.38
      P1  H  7989  7998       L1     4  0.22

> <Gold.Chemscore.Hbond.Weighted>
-7.4218

> <Gold.Chemscore.Metal.Weighted>
-0.0000

> <Gold.Chemscore.Lipo.Weighted>
-8.1606

> <Gold.Chemscore.Internal_Hbond.Weighted>
0.0000

> <Gold.Chemscore.DEClash.Weighted>
1.7183

> <Gold.Chemscore.DEInternal.Weighted>
1.5151

> <Gold.Chemscore.Rot.Weighted>
4.5347

> <Gold.Chemscore.Internal.Correction.Weighted>
   9.000000E+99

> <Gold.Protein.RotatedTorsions>
[ 6907 6896 6895 6894 ] final  108.94 input  -60.11 | X-H torsion
[ 7974 7965 7964 7962 ] final   -3.66 input  175.53 | X-H torsion
[ 8008 7997 7996 7995 ] final -153.79 input   59.86 | X-H torsion
[ 10167 10162 10161 10158 ] final   50.94 input  -65.29 | X-H torsion
[ 10718 10713 10712 10709 ] final   21.06 input   66.30 | X-H torsion
[ 10763 10752 10751 10750 ] final  -94.84 input  -60.55 | X-H torsion
[ 11005 11000 10999 10996 ] final -110.19 input  -57.11 | X-H torsion

> <Gold.Protein.ActiveResidues>
 VAL166  LYS551  ARG553  GLY616  TRP617  ASP618  TYR619  PRO620  LYS621  CYS622 
 ASP623  PHE694  ASN695  SER759  ASP760  ASP761  ALA762  ILE779  LEU786  VAL792 
 PHE793  MET794  SER795  GLU796  ALA797  LYS798  CYS799  TRP800  GLU811  SER814 

> <Gold.Protein.RotatedAtoms>
  152.5090  133.9016  159.7443 H   0  0  0  0  0  0  0  0  0  0  0  0  # atno 6907 bound_to 6896
  150.9431  133.6626  159.2793 H   0  0  0  0  0  0  0  0  0  0  0  0  # atno 6908 bound_to 6896
  151.3930  135.0964  159.9585 H   0  0  0  0  0  0  0  0  0  0  0  0  # atno 6909 bound_to 6896
  146.2386  140.1755  142.8332 H   0  0  0  0  0  0  0  0  0  0  0  0  # atno 7974 bound_to 7965
  155.6762  140.0739  157.2501 H   0  0  0  0  0  0  0  0  0  0  0  0  # atno 8008 bound_to 7997
  154.4114  140.1690  156.1985 H   0  0  0  0  0  0  0  0  0  0  0  0  # atno 8009 bound_to 7997
  155.9574  140.3372  155.6463 H   0  0  0  0  0  0  0  0  0  0  0  0  # atno 8010 bound_to 7997
  140.2672  144.3307  150.6300 H   0  0  0  0  0  0  0  0  0  0  0  0  # atno 10167 bound_to 10162
  157.1331  130.6600  149.5958 H   0  0  0  0  0  0  0  0  0  0  0  0  # atno 10718 bound_to 10713
  154.7093  135.5142  153.8642 H   0  0  0  0  0  0  0  0  0  0  0  0  # atno 10763 bound_to 10752
  153.0767  135.6618  154.0139 H   0  0  0  0  0  0  0  0  0  0  0  0  # atno 10764 bound_to 10752
  153.9984  135.3013  155.3384 H   0  0  0  0  0  0  0  0  0  0  0  0  # atno 10765 bound_to 10752
  141.0805  133.9227  157.2298 H   0  0  0  0  0  0  0  0  0  0  0  0  # atno 11005 bound_to 11000
  144.9977  140.8604  143.5301 LP  0  0  0  0  0  0  0  0  0  0  0  0  # atno 17320 bound_to 7965
  145.1770  139.2373  143.5312 LP  0  0  0  0  0  0  0  0  0  0  0  0  # atno 17321 bound_to 7965
  140.5919  143.2168  151.7237 LP  0  0  0  0  0  0  0  0  0  0  0  0  # atno 17342 bound_to 10162
  139.4999  144.3926  152.0264 LP  0  0  0  0  0  0  0  0  0  0  0  0  # atno 17343 bound_to 10162
  155.9804  130.4804  150.6768 LP  0  0  0  0  0  0  0  0  0  0  0  0  # atno 17370 bound_to 10713
  157.4374  131.0857  151.0978 LP  0  0  0  0  0  0  0  0  0  0  0  0  # atno 17371 bound_to 10713
  139.9619  135.0152  156.9284 LP  0  0  0  0  0  0  0  0  0  0  0  0  # atno 17394 bound_to 11000
  140.5478  134.0657  155.7360 LP  0  0  0  0  0  0  0  0  0  0  0  0  # atno 17395 bound_to 11000

$$$$
