AV-unprocessed.smi:2922|AV-procd|sdf|11201|dock10
  -GOLD-   2272016 93D 1   1.00000     0.00000
 Structure written by MMmdl.
 30 31  0  0  0  0  0  0  0  0  1 V2000
  142.6291  132.9596  148.3989 N   0  0  0  0  0  0  0  0  0  0  0  0
  143.7822  132.4739  148.8683 C   0  0  0  0  0  0  0  0  0  0  0  0
  144.6706  132.0746  148.1180 O   0  0  0  0  0  0  0  0  0  0  0  0
  143.9549  132.4029  150.3962 C   0  0  1  0  0  0  0  0  0  0  0  0
  145.3328  131.8773  150.8472 C   0  0  0  0  0  0  0  0  0  0  0  0
  145.8994  133.0045  151.6941 C   0  0  0  0  0  0  0  0  0  0  0  0
  145.1702  134.2296  151.1564 C   0  0  2  0  0  0  0  0  0  0  0  0
  145.1527  135.4197  152.1282 C   0  0  0  0  0  0  0  0  0  0  0  0
  144.1418  135.2623  153.1652 N   0  0  0  0  0  0  0  0  0  0  0  0
  142.9701  135.9943  153.2352 C   0  0  0  0  0  0  0  0  0  0  0  0
  142.9339  137.1989  152.6519 N   0  0  0  0  0  0  0  0  0  0  0  0
  141.7795  137.8941  152.7450 C   0  0  0  0  0  0  0  0  0  0  0  0
  140.6593  137.3739  153.4230 C   0  0  0  0  0  0  0  0  0  0  0  0
  139.1828  138.2572  153.5481 Cl  0  0  0  0  0  0  0  0  0  0  0  0
  140.8090  136.0943  153.9938 C   0  0  0  0  0  0  0  0  0  0  0  0
  141.9688  135.4074  153.8966 N   0  0  0  0  0  0  0  0  0  0  0  0
  143.8625  133.7120  150.9585 O   0  0  0  0  0  0  0  0  0  0  0  0
  142.4785  133.0259  147.4027 H   0  0  0  0  0  0  0  0  0  0  0  0
  141.9147  133.2618  149.0457 H   0  0  0  0  0  0  0  0  0  0  0  0
  143.1516  131.7913  150.8081 H   0  0  0  0  0  0  0  0  0  0  0  0
  145.2508  130.9512  151.4169 H   0  0  0  0  0  0  0  0  0  0  0  0
  145.9972  131.6836  150.0038 H   0  0  0  0  0  0  0  0  0  0  0  0
  145.6419  132.8439  152.7422 H   0  0  0  0  0  0  0  0  0  0  0  0
  146.9840  133.0885  151.6201 H   0  0  0  0  0  0  0  0  0  0  0  0
  145.6009  134.5213  150.1963 H   0  0  0  0  0  0  0  0  0  0  0  0
  146.1382  135.5808  152.5670 H   0  0  0  0  0  0  0  0  0  0  0  0
  144.9085  136.3286  151.5782 H   0  0  0  0  0  0  0  0  0  0  0  0
  144.4061  134.7547  153.9971 H   0  0  0  0  0  0  0  0  0  0  0  0
  141.7519  138.8674  152.2777 H   0  0  0  0  0  0  0  0  0  0  0  0
  140.0001  135.6211  154.5304 H   0  0  0  0  0  0  0  0  0  0  0  0
  1  2  1  0  0  0  0
  1 18  1  0  0  0  0
  1 19  1  0  0  0  0
  2  3  2  0  0  0  0
  2  4  1  0  0  0  0
  4 17  1  0  0  0  0
  4  5  1  0  0  0  0
  4 20  1  0  0  0  0
  5  6  1  0  0  0  0
  5 21  1  0  0  0  0
  5 22  1  0  0  0  0
  6  7  1  0  0  0  0
  6 23  1  0  0  0  0
  6 24  1  0  0  0  0
  7  8  1  0  0  0  0
  7 17  1  0  0  0  0
  7 25  1  0  0  0  0
  8  9  1  0  0  0  0
  8 26  1  0  0  0  0
  8 27  1  0  0  0  0
  9 10  1  0  0  0  0
  9 28  1  0  0  0  0
 10 16  1  0  0  0  0
 10 11  2  0  0  0  0
 11 12  1  0  0  0  0
 12 13  2  0  0  0  0
 12 29  1  0  0  0  0
 13 14  1  0  0  0  0
 13 15  1  0  0  0  0
 15 16  2  0  0  0  0
 15 30  1  0  0  0  0
M  END
> <s_m_source_file>
AV-unprocessed.smi

> <i_m_source_file_index>
2922

> <i_lp_mmshare_version>
43012

> <i_f3d_flags>
0

> <s_epik_input>
W05IMl1DKD1PKVtDQEBIXTFbQ0gyXVtDSDJdW0NASF0oTzEpW0NIMl1bTkhdYzJuW2NIXWMoQ2wpW2NIXW4y

> <s_epik_cmdline>
J2VwaWtfcHl0aG9uJywgJy1waCcsICc3LjAnLCAnLXRuJywgJzgnLCAnLW1hJywgJzIwMCcsICctbWV0YWxfYmluZGluZycsICctaW1hZScsICc8aW5maWxlLm1hZT4nLCAnLW9tYWUnLCAnPG91dGZpbGUubWFlPic=

> <r_lp_tautomer_probability>
1

> <r_epik_Ionization_Penalty>
6.13883e-06

> <r_epik_Ionization_Penalty_Charging>
0

> <r_epik_Ionization_Penalty_Neutral>
6.13883e-06

> <r_epik_State_Penalty>
-0

> <r_epik_Charging_Adjusted_Penalty>
0

> <i_epik_Tot_Q>
0

> <i_epik_Tot_abs_Q>
0

> <r_epik_Metal_State_Penalty>
-0

> <b_epik_Metal_Only>
0

> <s_lp_Force_Field>
OPLS_2005

> <r_lp_Energy>
9.79995

> <b_lp_Chiralities_Consistent>
1

> <s_lp_Variant>
AV-unprocessed.smi:2922-4

> <Gold.Version>
5.8.1

> <Gold.Id.Protein>
6NUR|6NUR_protein|mol2

> <Gold.PLP.Fitness>
42.6124

> <Gold.PLP.PLP>
-29.6091

> <Gold.PLP.part.hbond>
-3.6945

> <Gold.PLP.part.metal>
0.0000

> <Gold.PLP.part.buried>
-5.4030

> <Gold.PLP.part.nonpolar>
-21.4330

> <Gold.PLP.part.repulsive>
1.4687

> <Gold.PLP.ligand.clash>
0.0000

> <Gold.PLP.ligand.torsion>
0.4330

> <Gold.PLP.Chemscore.Hbond>
1.9440

> <Gold.PLP.Chemscore.CHOScore>
2.6697

> <Gold.PLP.Chemscore.Metal>
0.0000

> <Gold.Chemscore.Hbonds>
donor molecule, donor type, donor heavy atom, donor atom, acceptor molecule, acceptor atom, score
      L1  H     1    18       P1 10195  1.00
      L1  H     1    19       P1 10186  0.94
      L1  C    12    29       P1 10160  1.00
      L1  C    12    29       P1 10175  0.86
      L1  C    15    30       P1 11000  0.73

> <Gold.PLP.Chemscore.Internal.Correction>
0.0281

> <Gold.Rescore>
     Score         DG    S(hbond)    S(metal)    S(lipo)     H(rot)  DE(clash)    DE(int)     intcor
     12.24     -13.03       1.67        0.00      58.89       1.91       0.33       0.46       ----

> <Gold.Chemscore.Fitness>
12.2386

> <Gold.Chemscore.DG>
-13.0315

> <Gold.Chemscore.ZeroCoef>
-5.4800

> <Gold.Chemscore.Hbond>
1.6651

> <Gold.Chemscore.Metal>
0.0000

> <Gold.Chemscore.Lipo>
58.8901

> <Gold.Chemscore.Internal_Hbond>
0.0000

> <Gold.Chemscore.DEClash>
0.3320

> <Gold.Chemscore.DEInternal>
0.4608

> <Gold.Chemscore.Rot>
1.9142

> <Gold.Chemscore.Internal.Correction>
   9.000000E+99

> <Gold.Chemscore.Hbonds>
donor molecule, donor type, donor heavy atom, donor atom, acceptor molecule, acceptor atom, score
      L1  H     1    18       P1 10195  0.97
      L1  H     1    19       P1 10186  0.86

> <Gold.Chemscore.Hbond.Weighted>
-5.5616

> <Gold.Chemscore.Metal.Weighted>
-0.0000

> <Gold.Chemscore.Lipo.Weighted>
-6.8901

> <Gold.Chemscore.Internal_Hbond.Weighted>
0.0000

> <Gold.Chemscore.DEClash.Weighted>
0.3320

> <Gold.Chemscore.DEInternal.Weighted>
0.4608

> <Gold.Chemscore.Rot.Weighted>
4.9002

> <Gold.Chemscore.Internal.Correction.Weighted>
   9.000000E+99

> <Gold.Protein.RotatedTorsions>
[ 6907 6896 6895 6894 ] final  161.31 input  -60.11 | X-H torsion
[ 7974 7965 7964 7962 ] final -132.42 input  175.53 | X-H torsion
[ 8008 7997 7996 7995 ] final  -24.43 input   59.86 | X-H torsion
[ 10167 10162 10161 10158 ] final  -34.41 input  -65.29 | X-H torsion
[ 10718 10713 10712 10709 ] final  -71.50 input   66.30 | X-H torsion
[ 10763 10752 10751 10750 ] final -154.83 input  -60.55 | X-H torsion
[ 11005 11000 10999 10996 ] final  -93.90 input  -57.11 | X-H torsion

> <Gold.Protein.ActiveResidues>
 VAL166  LYS551  ARG553  GLY616  TRP617  ASP618  TYR619  PRO620  LYS621  CYS622 
 ASP623  PHE694  ASN695  SER759  ASP760  ASP761  ALA762  ILE779  LEU786  VAL792 
 PHE793  MET794  SER795  GLU796  ALA797  LYS798  CYS799  TRP800  GLU811  SER814 

> <Gold.Protein.RotatedAtoms>
  151.9575  133.3685  159.4022 H   0  0  0  0  0  0  0  0  0  0  0  0  # atno 6907 bound_to 6896
  150.6970  134.4276  159.5243 H   0  0  0  0  0  0  0  0  0  0  0  0  # atno 6908 bound_to 6896
  152.1959  134.8631  160.0563 H   0  0  0  0  0  0  0  0  0  0  0  0  # atno 6909 bound_to 6896
  144.9287  140.7102  143.4919 H   0  0  0  0  0  0  0  0  0  0  0  0  # atno 7974 bound_to 7965
  154.4530  140.1954  156.0463 H   0  0  0  0  0  0  0  0  0  0  0  0  # atno 8008 bound_to 7997
  156.0687  140.3287  155.7522 H   0  0  0  0  0  0  0  0  0  0  0  0  # atno 8009 bound_to 7997
  155.5297  140.0577  157.2882 H   0  0  0  0  0  0  0  0  0  0  0  0  # atno 8010 bound_to 7997
  140.7186  143.3550  151.2077 H   0  0  0  0  0  0  0  0  0  0  0  0  # atno 10167 bound_to 10162
  156.0360  130.4352  150.2453 H   0  0  0  0  0  0  0  0  0  0  0  0  # atno 10718 bound_to 10713
  154.7831  135.3181  154.7946 H   0  0  0  0  0  0  0  0  0  0  0  0  # atno 10763 bound_to 10752
  153.8653  135.6849  153.4783 H   0  0  0  0  0  0  0  0  0  0  0  0  # atno 10764 bound_to 10752
  153.1473  135.4714  154.9523 H   0  0  0  0  0  0  0  0  0  0  0  0  # atno 10765 bound_to 10752
  141.1485  133.7919  157.0223 H   0  0  0  0  0  0  0  0  0  0  0  0  # atno 11005 bound_to 11000
  145.3177  139.1798  143.4604 LP  0  0  0  0  0  0  0  0  0  0  0  0  # atno 17320 bound_to 7965
  146.3237  140.3190  142.8632 LP  0  0  0  0  0  0  0  0  0  0  0  0  # atno 17321 bound_to 7965
  139.7090  143.9408  152.2939 LP  0  0  0  0  0  0  0  0  0  0  0  0  # atno 17342 bound_to 10162
  139.9127  144.6847  150.8545 LP  0  0  0  0  0  0  0  0  0  0  0  0  # atno 17343 bound_to 10162
  157.0552  131.0074  151.3240 LP  0  0  0  0  0  0  0  0  0  0  0  0  # atno 17370 bound_to 10713
  157.5111  130.7939  149.7706 LP  0  0  0  0  0  0  0  0  0  0  0  0  # atno 17371 bound_to 10713
  140.0807  134.9649  157.1620 LP  0  0  0  0  0  0  0  0  0  0  0  0  # atno 17394 bound_to 11000
  140.3580  134.2525  155.7190 LP  0  0  0  0  0  0  0  0  0  0  0  0  # atno 17395 bound_to 11000

$$$$
