AV-unprocessed.smi:1483|AV-procd|sdf|5990|dock7
  -GOLD-   22720 6 83D 1   1.00000     0.00000
 Structure written by MMmdl.
 49 50  0  0  0  0  0  0  0  0  2 V2000
  152.1134  145.6862  159.3302 C   0  0  0  0  0  0  0  0  0  0  0  0
  151.9731  144.2154  158.9985 C   0  0  0  0  0  0  0  0  0  0  0  0
  152.6572  143.2371  159.7502 C   0  0  0  0  0  0  0  0  0  0  0  0
  152.4753  141.8821  159.4125 C   0  0  0  0  0  0  0  0  0  0  0  0
  151.6170  141.5577  158.3413 C   0  0  0  0  0  0  0  0  0  0  0  0
  151.3215  140.1071  157.9899 C   0  0  0  0  0  0  0  0  0  0  0  0
  151.6185  139.8708  156.5069 C   0  0  0  0  0  0  0  0  0  0  0  0
  152.7684  139.6548  156.1271 O   0  0  0  0  0  0  0  0  0  0  0  0
  150.5518  139.8624  155.6929 N   0  0  0  0  0  0  0  0  0  0  0  0
  150.5078  139.3790  154.3156 C   0  0  2  0  0  0  0  0  0  0  0  0
  149.0441  139.1643  153.8978 C   0  0  0  0  0  0  0  0  0  0  0  0
  148.3821  138.0298  154.7068 C   0  0  0  0  0  0  0  0  0  0  0  0
  149.1397  136.7537  154.6044 N   0  3  2  0  0  0  0  0  0  0  0  0
  148.4678  135.6579  155.3517 C   0  0  0  0  0  0  0  0  0  0  0  0
  149.1997  134.3023  155.2474 C   0  0  0  0  0  0  0  0  0  0  0  0
  149.0690  133.6879  153.8440 C   0  0  0  0  0  0  0  0  0  0  0  0
  148.6769  133.3264  156.3119 C   0  0  0  0  0  0  0  0  0  0  0  0
  150.5717  136.9169  154.9775 C   0  0  0  0  0  0  0  0  0  0  0  0
  151.2484  138.0352  154.1626 C   0  0  0  0  0  0  0  0  0  0  0  0
  150.9947  142.6147  157.6420 C   0  0  0  0  0  0  0  0  0  0  0  0
  151.1549  143.9154  157.9658 N   0  0  0  0  0  0  0  0  0  0  0  0
  153.0074  145.8696  159.9270 H   0  0  0  0  0  0  0  0  0  0  0  0
  151.2468  146.0273  159.8969 H   0  0  0  0  0  0  0  0  0  0  0  0
  152.1868  146.2829  158.4202 H   0  0  0  0  0  0  0  0  0  0  0  0
  153.3005  143.5155  160.5723 H   0  0  0  0  0  0  0  0  0  0  0  0
  152.9691  141.1064  159.9797 H   0  0  0  0  0  0  0  0  0  0  0  0
  151.9306  139.4379  158.5987 H   0  0  0  0  0  0  0  0  0  0  0  0
  150.2769  139.8787  158.2058 H   0  0  0  0  0  0  0  0  0  0  0  0
  149.6617  140.0922  156.1102 H   0  0  0  0  0  0  0  0  0  0  0  0
  150.9644  140.1295  153.6683 H   0  0  0  0  0  0  0  0  0  0  0  0
  148.4777  140.0882  154.0216 H   0  0  0  0  0  0  0  0  0  0  0  0
  149.0015  138.9229  152.8347 H   0  0  0  0  0  0  0  0  0  0  0  0
  148.2929  138.3135  155.7568 H   0  0  0  0  0  0  0  0  0  0  0  0
  147.3667  137.8786  154.3384 H   0  0  0  0  0  0  0  0  0  0  0  0
  148.3584  135.9554  156.3962 H   0  0  0  0  0  0  0  0  0  0  0  0
  147.4543  135.5257  154.9698 H   0  0  0  0  0  0  0  0  0  0  0  0
  150.2596  134.4460  155.4536 H   0  0  0  0  0  0  0  0  0  0  0  0
  148.0248  133.5145  153.5825 H   0  0  0  0  0  0  0  0  0  0  0  0
  149.5880  132.7306  153.7855 H   0  0  0  0  0  0  0  0  0  0  0  0
  149.5003  134.3365  153.0815 H   0  0  0  0  0  0  0  0  0  0  0  0
  147.6151  133.1193  156.1752 H   0  0  0  0  0  0  0  0  0  0  0  0
  148.8103  133.7310  157.3156 H   0  0  0  0  0  0  0  0  0  0  0  0
  149.2090  132.3756  156.2703 H   0  0  0  0  0  0  0  0  0  0  0  0
  150.6488  137.1268  156.0451 H   0  0  0  0  0  0  0  0  0  0  0  0
  151.1146  135.9887  154.8054 H   0  0  0  0  0  0  0  0  0  0  0  0
  151.2676  137.7515  153.1094 H   0  0  0  0  0  0  0  0  0  0  0  0
  152.2923  138.1319  154.4623 H   0  0  0  0  0  0  0  0  0  0  0  0
  150.3202  142.4092  156.8237 H   0  0  0  0  0  0  0  0  0  0  0  0
  149.1182  136.4936  153.6286 H   0  0  0  0  0  0  0  0  0  0  0  0
  1  2  1  0  0  0  0
  1 22  1  0  0  0  0
  1 23  1  0  0  0  0
  1 24  1  0  0  0  0
  2 21  1  0  0  0  0
  2  3  2  0  0  0  0
  3  4  1  0  0  0  0
  3 25  1  0  0  0  0
  4  5  2  0  0  0  0
  4 26  1  0  0  0  0
  5  6  1  0  0  0  0
  5 20  1  0  0  0  0
  6  7  1  0  0  0  0
  6 27  1  0  0  0  0
  6 28  1  0  0  0  0
  7  8  2  0  0  0  0
  7  9  1  0  0  0  0
  9 10  1  0  0  0  0
  9 29  1  0  0  0  0
 10 19  1  0  0  0  0
 10 11  1  0  0  0  0
 10 30  1  0  0  0  0
 11 12  1  0  0  0  0
 11 31  1  0  0  0  0
 11 32  1  0  0  0  0
 12 13  1  0  0  0  0
 12 33  1  0  0  0  0
 12 34  1  0  0  0  0
 13 14  1  0  0  0  0
 13 18  1  0  0  0  0
 13 49  1  0  0  0  0
 14 15  1  0  0  0  0
 14 35  1  0  0  0  0
 14 36  1  0  0  0  0
 15 16  1  0  0  0  0
 15 17  1  0  0  0  0
 15 37  1  0  0  0  0
 16 38  1  0  0  0  0
 16 39  1  0  0  0  0
 16 40  1  0  0  0  0
 17 41  1  0  0  0  0
 17 42  1  0  0  0  0
 17 43  1  0  0  0  0
 18 19  1  0  0  0  0
 18 44  1  0  0  0  0
 18 45  1  0  0  0  0
 19 46  1  0  0  0  0
 19 47  1  0  0  0  0
 20 21  2  0  0  0  0
 20 48  1  0  0  0  0
M  CHG  1  13   1
M  END
> <s_m_source_file>
AV-unprocessed.smi

> <i_m_source_file_index>
1483

> <i_lp_mmshare_version>
43012

> <i_f3d_flags>
0

> <s_epik_input>
W0NIM11jMVtjSF1bY0hdYyhbY0hdbjEpW0NIMl1DKD1PKVtOSF1bQ0hdMltDSDJdW0NIMl1OKFtDSDJdW0NIMl0yKVtDSDJdW0NIXShbQ0gzXSlbQ0gzXQ==

> <s_epik_cmdline>
J2VwaWtfcHl0aG9uJywgJy1waCcsICc3LjAnLCAnLXRuJywgJzgnLCAnLW1hJywgJzIwMCcsICctbWV0YWxfYmluZGluZycsICctaW1hZScsICc8aW5maWxlLm1hZT4nLCAnLW9tYWUnLCAnPG91dGZpbGUubWFlPic=

> <r_epik_Ionization_Penalty>
0.0186701

> <r_epik_Ionization_Penalty_Charging>
0.00405837

> <r_epik_Ionization_Penalty_Neutral>
0.0146117

> <r_epik_State_Penalty>
0.0114383

> <r_epik_Charging_Adjusted_Penalty>
0.0154967

> <i_epik_Tot_Q>
1

> <i_epik_Tot_abs_Q>
1

> <r_epik_Metal_State_Penalty>
0.0111573

> <b_epik_Metal_Only>
0

> <s_lp_Force_Field>
OPLS_2005

> <r_lp_Energy>
15.6664

> <b_lp_Chiralities_Consistent>
1

> <s_lp_Variant>
AV-unprocessed.smi:1483-2

> <Gold.Version>
5.8.1

> <Gold.Id.Protein>
6NUR|6NUR_protein|mol2

> <Gold.PLP.Fitness>
51.7383

> <Gold.PLP.PLP>
-43.9005

> <Gold.PLP.part.hbond>
-2.0000

> <Gold.PLP.part.metal>
0.0000

> <Gold.PLP.part.buried>
-3.0872

> <Gold.PLP.part.nonpolar>
-37.1417

> <Gold.PLP.part.repulsive>
0.2302

> <Gold.PLP.ligand.clash>
0.0000

> <Gold.PLP.ligand.torsion>
0.6281

> <Gold.PLP.Chemscore.Hbond>
3.0000

> <Gold.PLP.Chemscore.CHOScore>
0.0000

> <Gold.PLP.Chemscore.Metal>
0.0000

> <Gold.Chemscore.Hbonds>
donor molecule, donor type, donor heavy atom, donor atom, acceptor molecule, acceptor atom, score
      L1  H    13    49       P1  7948  2.00
      P1  H  7997  8008       L1     8  0.96

> <Gold.PLP.Chemscore.Internal.Correction>
0.0940

> <Gold.Rescore>
     Score         DG    S(hbond)    S(metal)    S(lipo)     H(rot)  DE(clash)    DE(int)     intcor
     20.55     -22.42       1.99        0.00     120.20       1.47       0.14       1.73       ----

> <Gold.Chemscore.Fitness>
20.5458

> <Gold.Chemscore.DG>
-22.4171

> <Gold.Chemscore.ZeroCoef>
-5.4800

> <Gold.Chemscore.Hbond>
1.9887

> <Gold.Chemscore.Metal>
0.0000

> <Gold.Chemscore.Lipo>
120.2043

> <Gold.Chemscore.Internal_Hbond>
0.0000

> <Gold.Chemscore.DEClash>
0.1408

> <Gold.Chemscore.DEInternal>
1.7304

> <Gold.Chemscore.Rot>
1.4723

> <Gold.Chemscore.Internal.Correction>
   9.000000E+99

> <Gold.Chemscore.Hbonds>
donor molecule, donor type, donor heavy atom, donor atom, acceptor molecule, acceptor atom, score
      L1  H    13    49       P1  7948  0.98
      P1  H  7997  8008       L1     8  0.92

> <Gold.Chemscore.Hbond.Weighted>
-6.6423

> <Gold.Chemscore.Metal.Weighted>
-0.0000

> <Gold.Chemscore.Lipo.Weighted>
-14.0639

> <Gold.Chemscore.Internal_Hbond.Weighted>
0.0000

> <Gold.Chemscore.DEClash.Weighted>
0.1408

> <Gold.Chemscore.DEInternal.Weighted>
1.7304

> <Gold.Chemscore.Rot.Weighted>
3.7691

> <Gold.Chemscore.Internal.Correction.Weighted>
   9.000000E+99

> <Gold.Protein.RotatedTorsions>
[ 6907 6896 6895 6894 ] final  -51.47 input  -60.11 | X-H torsion
[ 7974 7965 7964 7962 ] final   11.25 input  175.53 | X-H torsion
[ 8008 7997 7996 7995 ] final  -18.62 input   59.86 | X-H torsion
[ 10167 10162 10161 10158 ] final  -35.28 input  -65.29 | X-H torsion
[ 10718 10713 10712 10709 ] final  -53.85 input   66.30 | X-H torsion
[ 10763 10752 10751 10750 ] final  103.84 input  -60.55 | X-H torsion
[ 11005 11000 10999 10996 ] final -173.09 input  -57.11 | X-H torsion

> <Gold.Protein.ActiveResidues>
 VAL166  LYS551  ARG553  GLY616  TRP617  ASP618  TYR619  PRO620  LYS621  CYS622 
 ASP623  PHE694  ASN695  SER759  ASP760  ASP761  ALA762  ILE779  LEU786  VAL792 
 PHE793  MET794  SER795  GLU796  ALA797  LYS798  CYS799  TRP800  GLU811  SER814 

> <Gold.Protein.RotatedAtoms>
  150.8609  134.7960  159.7081 H   0  0  0  0  0  0  0  0  0  0  0  0  # atno 6907 bound_to 6896
  152.4646  134.5102  159.9761 H   0  0  0  0  0  0  0  0  0  0  0  0  # atno 6908 bound_to 6896
  151.5206  133.3429  159.2936 H   0  0  0  0  0  0  0  0  0  0  0  0  # atno 6909 bound_to 6896
  146.2374  139.9514  142.8470 H   0  0  0  0  0  0  0  0  0  0  0  0  # atno 7974 bound_to 7965
  154.4893  140.2111  155.9584 H   0  0  0  0  0  0  0  0  0  0  0  0  # atno 8008 bound_to 7997
  156.1282  140.3201  155.8278 H   0  0  0  0  0  0  0  0  0  0  0  0  # atno 8009 bound_to 7997
  155.4344  140.0505  157.3006 H   0  0  0  0  0  0  0  0  0  0  0  0  # atno 8010 bound_to 7997
  140.7168  143.3488  151.2199 H   0  0  0  0  0  0  0  0  0  0  0  0  # atno 10167 bound_to 10162
  156.1500  130.4151  149.9960 H   0  0  0  0  0  0  0  0  0  0  0  0  # atno 10718 bound_to 10713
  153.3580  135.3963  155.1697 H   0  0  0  0  0  0  0  0  0  0  0  0  # atno 10763 bound_to 10752
  154.8674  135.3672  154.5136 H   0  0  0  0  0  0  0  0  0  0  0  0  # atno 10764 bound_to 10752
  153.5593  135.7081  153.5615 H   0  0  0  0  0  0  0  0  0  0  0  0  # atno 10765 bound_to 10752
  140.4897  134.5997  157.4950 H   0  0  0  0  0  0  0  0  0  0  0  0  # atno 11005 bound_to 11000
  145.1858  140.9788  143.4239 LP  0  0  0  0  0  0  0  0  0  0  0  0  # atno 17320 bound_to 7965
  144.9901  139.3698  143.6219 LP  0  0  0  0  0  0  0  0  0  0  0  0  # atno 17321 bound_to 7965
  139.7014  143.9527  152.2907 LP  0  0  0  0  0  0  0  0  0  0  0  0  # atno 17342 bound_to 10162
  139.9221  144.6793  150.8450 LP  0  0  0  0  0  0  0  0  0  0  0  0  # atno 17343 bound_to 10162
  156.7821  130.9225  151.3646 LP  0  0  0  0  0  0  0  0  0  0  0  0  # atno 17370 bound_to 10713
  157.6649  130.8999  149.9910 LP  0  0  0  0  0  0  0  0  0  0  0  0  # atno 17371 bound_to 10713
  139.9777  134.7189  155.9919 LP  0  0  0  0  0  0  0  0  0  0  0  0  # atno 17394 bound_to 11000
  141.1490  133.6551  156.3956 LP  0  0  0  0  0  0  0  0  0  0  0  0  # atno 17395 bound_to 11000

$$$$
