AV-unprocessed.smi:180|AV-procd|sdf|1451|dock6
  -GOLD-   2262019253D 1   1.00000     0.00000
 Structure written by MMmdl.
 54 57  0  0  0  0  0  0  0  0  1 V2000
  148.2007  129.5164  153.9400 C   0  0  0  0  0  0  0  0  0  0  0  0
  147.6312  130.9306  153.8942 C   0  0  0  0  0  0  0  0  0  0  0  0
  146.4233  131.0985  153.7312 O   0  0  0  0  0  0  0  0  0  0  0  0
  148.5090  131.9353  154.0372 N   0  0  0  0  0  0  0  0  0  0  0  0
  148.1721  133.3563  154.0435 C   0  0  0  0  0  0  0  0  0  0  0  0
  148.8541  134.1292  155.1893 C   0  0  2  0  0  0  0  0  0  0  0  0
  149.6875  135.3353  154.7083 C   0  0  0  0  0  0  0  0  0  0  0  0
  150.3445  135.9792  155.8430 N   0  0  0  0  0  0  0  0  0  0  0  0
  150.9122  137.1967  155.6442 C   0  0  0  0  0  0  0  0  0  0  0  0
  152.0785  137.2964  154.9512 N   0  0  0  0  0  0  0  0  0  0  0  0
  152.6480  138.4884  154.7517 C   0  0  0  0  0  0  0  0  0  0  0  0
  152.2259  139.6907  155.1462 N   0  0  0  0  0  0  0  0  0  0  0  0
  151.0510  139.6013  155.8324 C   0  0  0  0  0  0  0  0  0  0  0  0
  150.3350  138.4060  156.1268 C   0  0  0  0  0  0  0  0  0  0  0  0
  149.1800  138.7129  156.8369 N   0  0  0  0  0  0  0  0  0  0  0  0
  149.2178  140.0108  156.9651 C   0  0  0  0  0  0  0  0  0  0  0  0
  150.2993  140.6276  156.3777 N   0  0  0  0  0  0  0  0  0  0  0  0
  150.5880  142.0534  156.3620 C   0  0  0  0  0  0  0  0  0  0  0  0
  151.0302  142.6355  157.7291 C   0  0  0  0  0  0  0  0  0  0  0  0
  149.8548  142.6694  158.5186 O   0  0  0  0  0  0  0  0  0  0  0  0
  152.0760  141.7581  158.4513 C   0  0  0  0  0  0  0  0  0  0  0  0
  152.5646  142.4065  159.7593 C   0  0  0  0  0  0  0  0  0  0  0  0
  153.0772  143.7078  159.4964 O   0  0  0  0  0  0  0  0  0  0  0  0
  152.0956  144.5953  158.9735 C   0  0  0  0  0  0  0  0  0  0  0  0
  151.5811  144.0737  157.6196 C   0  0  0  0  0  0  0  0  0  0  0  0
  151.1295  135.0513  156.6508 C   0  0  0  0  0  0  0  0  0  0  0  0
  150.2606  133.8568  157.0767 C   0  0  0  0  0  0  0  0  0  0  0  0
  149.6912  133.2410  155.9263 O   0  0  0  0  0  0  0  0  0  0  0  0
  149.2110  129.5053  154.3510 H   0  0  0  0  0  0  0  0  0  0  0  0
  148.2332  129.0926  152.9363 H   0  0  0  0  0  0  0  0  0  0  0  0
  147.5743  128.8768  154.5625 H   0  0  0  0  0  0  0  0  0  0  0  0
  149.4825  131.6985  154.1629 H   0  0  0  0  0  0  0  0  0  0  0  0
  148.4957  133.7718  153.0890 H   0  0  0  0  0  0  0  0  0  0  0  0
  147.0905  133.4961  154.0826 H   0  0  0  0  0  0  0  0  0  0  0  0
  148.0684  134.4868  155.8574 H   0  0  0  0  0  0  0  0  0  0  0  0
  150.4475  135.0148  153.9944 H   0  0  0  0  0  0  0  0  0  0  0  0
  149.0383  136.0480  154.1977 H   0  0  0  0  0  0  0  0  0  0  0  0
  153.5737  138.4768  154.1955 H   0  0  0  0  0  0  0  0  0  0  0  0
  148.4468  140.5593  157.4869 H   0  0  0  0  0  0  0  0  0  0  0  0
  151.3603  142.2307  155.6120 H   0  0  0  0  0  0  0  0  0  0  0  0
  149.6972  142.5724  156.0049 H   0  0  0  0  0  0  0  0  0  0  0  0
  150.0078  142.1696  159.3059 H   0  0  0  0  0  0  0  0  0  0  0  0
  151.6719  140.7649  158.6507 H   0  0  0  0  0  0  0  0  0  0  0  0
  152.9447  141.6127  157.8093 H   0  0  0  0  0  0  0  0  0  0  0  0
  151.7633  142.4608  160.4977 H   0  0  0  0  0  0  0  0  0  0  0  0
  153.3575  141.8018  160.1998 H   0  0  0  0  0  0  0  0  0  0  0  0
  151.2794  144.7147  159.6875 H   0  0  0  0  0  0  0  0  0  0  0  0
  152.5472  145.5791  158.8455 H   0  0  0  0  0  0  0  0  0  0  0  0
  152.4129  144.1002  156.9162 H   0  0  0  0  0  0  0  0  0  0  0  0
  150.8202  144.7465  157.2218 H   0  0  0  0  0  0  0  0  0  0  0  0
  151.9784  134.7016  156.0619 H   0  0  0  0  0  0  0  0  0  0  0  0
  151.5379  135.5343  157.5372 H   0  0  0  0  0  0  0  0  0  0  0  0
  150.8666  133.1227  157.6077 H   0  0  0  0  0  0  0  0  0  0  0  0
  149.4723  134.1741  157.7612 H   0  0  0  0  0  0  0  0  0  0  0  0
  1  2  1  0  0  0  0
  1 29  1  0  0  0  0
  1 30  1  0  0  0  0
  1 31  1  0  0  0  0
  2  3  2  0  0  0  0
  2  4  1  0  0  0  0
  4  5  1  0  0  0  0
  4 32  1  0  0  0  0
  5  6  1  0  0  0  0
  5 33  1  0  0  0  0
  5 34  1  0  0  0  0
  6 28  1  0  0  0  0
  6  7  1  0  0  0  0
  6 35  1  0  0  0  0
  7  8  1  0  0  0  0
  7 36  1  0  0  0  0
  7 37  1  0  0  0  0
  8  9  1  0  0  0  0
  8 26  1  0  0  0  0
  9 14  1  0  0  0  0
  9 10  2  0  0  0  0
 10 11  1  0  0  0  0
 11 12  2  0  0  0  0
 11 38  1  0  0  0  0
 12 13  1  0  0  0  0
 13 17  1  0  0  0  0
 13 14  2  0  0  0  0
 14 15  1  0  0  0  0
 15 16  2  0  0  0  0
 16 17  1  0  0  0  0
 16 39  1  0  0  0  0
 17 18  1  0  0  0  0
 18 19  1  0  0  0  0
 18 40  1  0  0  0  0
 18 41  1  0  0  0  0
 19 25  1  0  0  0  0
 19 20  1  0  0  0  0
 19 21  1  0  0  0  0
 20 42  1  0  0  0  0
 21 22  1  0  0  0  0
 21 43  1  0  0  0  0
 21 44  1  0  0  0  0
 22 23  1  0  0  0  0
 22 45  1  0  0  0  0
 22 46  1  0  0  0  0
 23 24  1  0  0  0  0
 24 25  1  0  0  0  0
 24 47  1  0  0  0  0
 24 48  1  0  0  0  0
 25 49  1  0  0  0  0
 25 50  1  0  0  0  0
 26 27  1  0  0  0  0
 26 51  1  0  0  0  0
 26 52  1  0  0  0  0
 27 28  1  0  0  0  0
 27 53  1  0  0  0  0
 27 54  1  0  0  0  0
M  END
> <s_m_source_file>
AV-unprocessed.smi

> <i_m_source_file_index>
180

> <i_lp_mmshare_version>
43012

> <i_f3d_flags>
0

> <s_epik_input>
W0NIM11DKD1PKVtOSF1bQ0gyXVtDQEBIXTFbQ0gyXU4oW0NIMl1bQ0gyXU8xKWMobltjSF1uMiljKGMyMyluW2NIXW4zW0NIMl1DNChbT0hdKVtDSDJdW0NIMl1PW0NIMl1bQ0gyXTQ=

> <s_epik_cmdline>
J2VwaWtfcHl0aG9uJywgJy1waCcsICc3LjAnLCAnLXRuJywgJzgnLCAnLW1hJywgJzIwMCcsICctbWV0YWxfYmluZGluZycsICctaW1hZScsICc8aW5maWxlLm1hZT4nLCAnLW9tYWUnLCAnPG91dGZpbGUubWFlPic=

> <r_lp_tautomer_probability>
1

> <r_epik_Ionization_Penalty>
7.38871e-05

> <r_epik_Ionization_Penalty_Charging>
0

> <r_epik_Ionization_Penalty_Neutral>
7.38871e-05

> <r_epik_State_Penalty>
-0

> <r_epik_Charging_Adjusted_Penalty>
0

> <i_epik_Tot_Q>
0

> <i_epik_Tot_abs_Q>
0

> <r_epik_Metal_State_Penalty>
-0

> <b_epik_Metal_Only>
0

> <s_lp_Force_Field>
OPLS_2005

> <r_lp_Energy>
31.1245

> <b_lp_Chiralities_Consistent>
1

> <s_lp_Variant>
AV-unprocessed.smi:180-1

> <Gold.Version>
5.8.1

> <Gold.Id.Protein>
6NUR|6NUR_protein|mol2

> <Gold.PLP.Fitness>
47.6908

> <Gold.PLP.PLP>
-45.6416

> <Gold.PLP.part.hbond>
-2.5230

> <Gold.PLP.part.metal>
0.0000

> <Gold.PLP.part.buried>
-4.4262

> <Gold.PLP.part.nonpolar>
-40.5284

> <Gold.PLP.part.repulsive>
0.2947

> <Gold.PLP.ligand.clash>
0.0000

> <Gold.PLP.ligand.torsion>
1.2605

> <Gold.PLP.Chemscore.Hbond>
1.4033

> <Gold.PLP.Chemscore.CHOScore>
0.0000

> <Gold.PLP.Chemscore.Metal>
0.0000

> <Gold.Chemscore.Hbonds>
donor molecule, donor type, donor heavy atom, donor atom, acceptor molecule, acceptor atom, score
      P1  H  7989  7998       L1    12  0.66
      P1  H  7997  8010       L1    12  0.03
      P1  H 10752 10765       L1    10  0.86

> <Gold.PLP.Chemscore.Internal.Correction>
0.3603

> <Gold.Rescore>
     Score         DG    S(hbond)    S(metal)    S(lipo)     H(rot)  DE(clash)    DE(int)     intcor
     10.79     -13.29       1.40        0.00      92.20       2.99       1.20       1.30       ----

> <Gold.Chemscore.Fitness>
10.7924

> <Gold.Chemscore.DG>
-13.2862

> <Gold.Chemscore.ZeroCoef>
-5.4800

> <Gold.Chemscore.Hbond>
1.3980

> <Gold.Chemscore.Metal>
0.0000

> <Gold.Chemscore.Lipo>
92.2000

> <Gold.Chemscore.Internal_Hbond>
0.0000

> <Gold.Chemscore.DEClash>
1.1959

> <Gold.Chemscore.DEInternal>
1.2980

> <Gold.Chemscore.Rot>
2.9885

> <Gold.Chemscore.Internal.Correction>
   9.000000E+99

> <Gold.Chemscore.Hbonds>
donor molecule, donor type, donor heavy atom, donor atom, acceptor molecule, acceptor atom, score
      P1  H  7989  7998       L1    12  0.18
      P1  H 10752 10765       L1    10  0.79

> <Gold.Chemscore.Hbond.Weighted>
-4.6694

> <Gold.Chemscore.Metal.Weighted>
-0.0000

> <Gold.Chemscore.Lipo.Weighted>
-10.7874

> <Gold.Chemscore.Internal_Hbond.Weighted>
0.0000

> <Gold.Chemscore.DEClash.Weighted>
1.1959

> <Gold.Chemscore.DEInternal.Weighted>
1.2980

> <Gold.Chemscore.Rot.Weighted>
7.6506

> <Gold.Chemscore.Internal.Correction.Weighted>
   9.000000E+99

> <Gold.Protein.RotatedTorsions>
[ 6907 6896 6895 6894 ] final -178.06 input  -60.11 | X-H torsion
[ 7974 7965 7964 7962 ] final -150.73 input  175.53 | X-H torsion
[ 8008 7997 7996 7995 ] final   84.35 input   59.86 | X-H torsion
[ 10167 10162 10161 10158 ] final  141.00 input  -65.29 | X-H torsion
[ 10718 10713 10712 10709 ] final  107.70 input   66.30 | X-H torsion
[ 10763 10752 10751 10750 ] final  172.78 input  -60.55 | X-H torsion
[ 11005 11000 10999 10996 ] final   93.06 input  -57.11 | X-H torsion

> <Gold.Protein.ActiveResidues>
 VAL166  LYS551  ARG553  GLY616  TRP617  ASP618  TYR619  PRO620  LYS621  CYS622 
 ASP623  PHE694  ASN695  SER759  ASP760  ASP761  ALA762  ILE779  LEU786  VAL792 
 PHE793  MET794  SER795  GLU796  ALA797  LYS798  CYS799  TRP800  GLU811  SER814 

> <Gold.Protein.RotatedAtoms>
  151.6311  133.3332  159.3108 H   0  0  0  0  0  0  0  0  0  0  0  0  # atno 6907 bound_to 6896
  150.8056  134.7182  159.6652 H   0  0  0  0  0  0  0  0  0  0  0  0  # atno 6908 bound_to 6896
  152.4151  134.6060  160.0064 H   0  0  0  0  0  0  0  0  0  0  0  0  # atno 6909 bound_to 6896
  144.7891  140.4893  143.5785 H   0  0  0  0  0  0  0  0  0  0  0  0  # atno 7974 bound_to 7965
  155.9360  140.3411  155.6288 H   0  0  0  0  0  0  0  0  0  0  0  0  # atno 8008 bound_to 7997
  155.7099  140.0770  157.2394 H   0  0  0  0  0  0  0  0  0  0  0  0  # atno 8009 bound_to 7997
  154.4093  140.1624  156.2272 H   0  0  0  0  0  0  0  0  0  0  0  0  # atno 8010 bound_to 7997
  139.5033  144.6199  151.6076 H   0  0  0  0  0  0  0  0  0  0  0  0  # atno 10167 bound_to 10162
  157.6617  131.0878  150.6196 H   0  0  0  0  0  0  0  0  0  0  0  0  # atno 10718 bound_to 10713
  154.4309  135.2760  155.1913 H   0  0  0  0  0  0  0  0  0  0  0  0  # atno 10763 bound_to 10752
  154.3819  135.6085  153.5799 H   0  0  0  0  0  0  0  0  0  0  0  0  # atno 10764 bound_to 10752
  152.9836  135.5882  154.4620 H   0  0  0  0  0  0  0  0  0  0  0  0  # atno 10765 bound_to 10752
  139.8815  134.8768  156.3663 H   0  0  0  0  0  0  0  0  0  0  0  0  # atno 11005 bound_to 11000
  145.5843  139.1491  143.3218 LP  0  0  0  0  0  0  0  0  0  0  0  0  # atno 17320 bound_to 7965
  146.2135  140.5972  142.9049 LP  0  0  0  0  0  0  0  0  0  0  0  0  # atno 17321 bound_to 7965
  140.5898  143.9800  150.6317 LP  0  0  0  0  0  0  0  0  0  0  0  0  # atno 17342 bound_to 10162
  140.2976  143.3282  152.1002 LP  0  0  0  0  0  0  0  0  0  0  0  0  # atno 17343 bound_to 10162
  156.6498  130.4482  149.5723 LP  0  0  0  0  0  0  0  0  0  0  0  0  # atno 17370 bound_to 10713
  156.2146  130.6700  151.1305 LP  0  0  0  0  0  0  0  0  0  0  0  0  # atno 17371 bound_to 10713
  140.9495  133.7460  156.0253 LP  0  0  0  0  0  0  0  0  0  0  0  0  # atno 17394 bound_to 11000
  140.8123  134.3385  157.5408 LP  0  0  0  0  0  0  0  0  0  0  0  0  # atno 17395 bound_to 11000

$$$$
