AV-unprocessed.smi:1487|AV-procd|sdf|6009|dock8
  -GOLD-   22720 6103D 1   1.00000     0.00000
 Structure written by MMmdl.
 48 50  0  0  0  0  0  0  0  0  2 V2000
  152.9897  143.2366  160.2439 C   0  0  0  0  0  0  0  0  0  0  0  0
  152.3346  142.5053  159.0856 C   0  0  0  0  0  0  0  0  0  0  0  0
  152.6379  141.1413  158.8749 C   0  0  0  0  0  0  0  0  0  0  0  0
  152.0496  140.4247  157.8102 C   0  0  0  0  0  0  0  0  0  0  0  0
  152.2008  139.1042  157.4242 N   0  0  0  0  0  0  0  0  0  0  0  0
  151.3948  139.0387  156.3689 C   0  0  0  0  0  0  0  0  0  0  0  0
  150.7493  140.1670  156.0151 N   0  0  0  0  0  0  0  0  0  0  0  0
  149.8333  140.3375  154.9011 C   0  0  0  0  0  0  0  0  0  0  0  0
  149.1165  139.0287  154.5119 C   0  0  2  0  0  0  0  0  0  0  0  0
  149.8941  138.3992  153.5132 O   0  0  0  0  0  0  0  0  0  0  0  0
  147.6826  139.2449  153.9762 C   0  0  0  0  0  0  0  0  0  0  0  0
  147.1315  138.0303  153.3232 N   0  3  2  0  0  0  0  0  0  0  0  0
  146.3548  138.3481  152.0979 C   0  0  0  0  0  0  0  0  0  0  0  0
  145.9570  137.0652  151.3516 C   0  0  0  0  0  0  0  0  0  0  0  0
  145.1614  136.1209  152.2636 C   0  0  0  0  0  0  0  0  0  0  0  0
  145.9164  135.8516  153.5762 C   0  0  1  0  0  0  0  0  0  0  0  0
  147.0430  135.0297  153.3401 O   0  0  0  0  0  0  0  0  0  0  0  0
  146.3606  137.1617  154.2556 C   0  0  0  0  0  0  0  0  0  0  0  0
  151.1431  141.1155  156.9536 C   0  0  0  0  0  0  0  0  0  0  0  0
  150.8305  142.4715  157.1555 C   0  0  0  0  0  0  0  0  0  0  0  0
  151.4289  143.1734  158.2229 C   0  0  0  0  0  0  0  0  0  0  0  0
  151.0868  144.6382  158.4304 C   0  0  0  0  0  0  0  0  0  0  0  0
  153.5988  142.5625  160.8470 H   0  0  0  0  0  0  0  0  0  0  0  0
  152.2352  143.6767  160.8962 H   0  0  0  0  0  0  0  0  0  0  0  0
  153.6362  144.0326  159.8740 H   0  0  0  0  0  0  0  0  0  0  0  0
  153.3267  140.6317  159.5330 H   0  0  0  0  0  0  0  0  0  0  0  0
  151.2740  138.1188  155.8154 H   0  0  0  0  0  0  0  0  0  0  0  0
  149.1028  141.1031  155.1681 H   0  0  0  0  0  0  0  0  0  0  0  0
  150.3989  140.7272  154.0536 H   0  0  0  0  0  0  0  0  0  0  0  0
  149.1040  138.3732  155.3811 H   0  0  0  0  0  0  0  0  0  0  0  0
  149.5180  137.5556  153.3144 H   0  0  0  0  0  0  0  0  0  0  0  0
  147.0001  139.5425  154.7732 H   0  0  0  0  0  0  0  0  0  0  0  0
  147.7006  140.0786  153.2725 H   0  0  0  0  0  0  0  0  0  0  0  0
  145.4675  138.9255  152.3640 H   0  0  0  0  0  0  0  0  0  0  0  0
  146.9529  138.9722  151.4329 H   0  0  0  0  0  0  0  0  0  0  0  0
  145.3655  137.3150  150.4701 H   0  0  0  0  0  0  0  0  0  0  0  0
  146.8527  136.5598  150.9877 H   0  0  0  0  0  0  0  0  0  0  0  0
  144.1976  136.5772  152.4933 H   0  0  0  0  0  0  0  0  0  0  0  0
  144.9425  135.1856  151.7465 H   0  0  0  0  0  0  0  0  0  0  0  0
  145.2617  135.3012  154.2528 H   0  0  0  0  0  0  0  0  0  0  0  0
  147.6791  135.5224  152.8436 H   0  0  0  0  0  0  0  0  0  0  0  0
  146.9456  136.9292  155.1453 H   0  0  0  0  0  0  0  0  0  0  0  0
  145.4810  137.7075  154.6015 H   0  0  0  0  0  0  0  0  0  0  0  0
  150.1341  142.9685  156.4969 H   0  0  0  0  0  0  0  0  0  0  0  0
  150.4378  145.0116  157.6377 H   0  0  0  0  0  0  0  0  0  0  0  0
  151.9908  145.2474  158.4355 H   0  0  0  0  0  0  0  0  0  0  0  0
  150.5699  144.7766  159.3804 H   0  0  0  0  0  0  0  0  0  0  0  0
  147.9258  137.4902  153.0114 H   0  0  0  0  0  0  0  0  0  0  0  0
  1  2  1  0  0  0  0
  1 23  1  0  0  0  0
  1 24  1  0  0  0  0
  1 25  1  0  0  0  0
  2 21  1  0  0  0  0
  2  3  2  0  0  0  0
  3  4  1  0  0  0  0
  3 26  1  0  0  0  0
  4 19  2  0  0  0  0
  4  5  1  0  0  0  0
  5  6  2  0  0  0  0
  6  7  1  0  0  0  0
  6 27  1  0  0  0  0
  7  8  1  0  0  0  0
  7 19  1  0  0  0  0
  8  9  1  0  0  0  0
  8 28  1  0  0  0  0
  8 29  1  0  0  0  0
  9 10  1  0  0  0  0
  9 11  1  0  0  0  0
  9 30  1  0  0  0  0
 10 31  1  0  0  0  0
 11 12  1  0  0  0  0
 11 32  1  0  0  0  0
 11 33  1  0  0  0  0
 12 18  1  0  0  0  0
 12 13  1  0  0  0  0
 12 48  1  0  0  0  0
 13 14  1  0  0  0  0
 13 34  1  0  0  0  0
 13 35  1  0  0  0  0
 14 15  1  0  0  0  0
 14 36  1  0  0  0  0
 14 37  1  0  0  0  0
 15 16  1  0  0  0  0
 15 38  1  0  0  0  0
 15 39  1  0  0  0  0
 16 17  1  0  0  0  0
 16 18  1  0  0  0  0
 16 40  1  0  0  0  0
 17 41  1  0  0  0  0
 18 42  1  0  0  0  0
 18 43  1  0  0  0  0
 19 20  1  0  0  0  0
 20 21  2  0  0  0  0
 20 44  1  0  0  0  0
 21 22  1  0  0  0  0
 22 45  1  0  0  0  0
 22 46  1  0  0  0  0
 22 47  1  0  0  0  0
M  CHG  1  12   1
M  END
> <s_m_source_file>
AV-unprocessed.smi

> <i_m_source_file_index>
1487

> <i_lp_mmshare_version>
43012

> <i_f3d_flags>
0

> <s_epik_input>
W0NIM11jKFtjSF0xKWMoW0NIM10pW2NIXWMoYzEyKW4oW2NIXW4yKVtDSDJdW0NASF0oW09IXSlbQ0gyXU4zW0NIMl1bQ0gyXVtDSDJdW0NAQEhdKFtPSF0pW0NIMl0z

> <s_epik_cmdline>
J2VwaWtfcHl0aG9uJywgJy1waCcsICc3LjAnLCAnLXRuJywgJzgnLCAnLW1hJywgJzIwMCcsICctbWV0YWxfYmluZGluZycsICctaW1hZScsICc8aW5maWxlLm1hZT4nLCAnLW9tYWUnLCAnPG91dGZpbGUubWFlPic=

> <r_epik_Ionization_Penalty>
0.0940186

> <r_epik_Ionization_Penalty_Charging>
0.00679686

> <r_epik_Ionization_Penalty_Neutral>
0.0872218

> <r_epik_State_Penalty>
0.0799311

> <r_epik_Charging_Adjusted_Penalty>
0.086728

> <i_epik_Tot_Q>
1

> <i_epik_Tot_abs_Q>
1

> <r_epik_Metal_State_Penalty>
7.95545e-05

> <b_epik_Metal_Only>
0

> <s_lp_Force_Field>
OPLS_2005

> <r_lp_Energy>
25.8202

> <b_lp_Chiralities_Consistent>
1

> <s_lp_Variant>
AV-unprocessed.smi:1487-3

> <Gold.Version>
5.8.1

> <Gold.Id.Protein>
6NUR|6NUR_protein|mol2

> <Gold.PLP.Fitness>
53.3053

> <Gold.PLP.PLP>
-43.9875

> <Gold.PLP.part.hbond>
-3.9627

> <Gold.PLP.part.metal>
0.0000

> <Gold.PLP.part.buried>
-0.0719

> <Gold.PLP.part.nonpolar>
-41.2272

> <Gold.PLP.part.repulsive>
0.0340

> <Gold.PLP.ligand.clash>
0.0000

> <Gold.PLP.ligand.torsion>
1.3572

> <Gold.PLP.Chemscore.Hbond>
4.0000

> <Gold.PLP.Chemscore.CHOScore>
0.0000

> <Gold.PLP.Chemscore.Metal>
0.0000

> <Gold.Chemscore.Hbonds>
donor molecule, donor type, donor heavy atom, donor atom, acceptor molecule, acceptor atom, score
      L1  H    10    31       P1  7948  0.91
      L1  H    12    48       P1  7948  2.00
      L1  H    17    41       P1  7948  1.00

> <Gold.PLP.Chemscore.Internal.Correction>
0.0322

> <Gold.Rescore>
     Score         DG    S(hbond)    S(metal)    S(lipo)     H(rot)  DE(clash)    DE(int)     intcor
     19.72     -22.80       2.83        0.00     125.65       2.67       1.70       1.38       ----

> <Gold.Chemscore.Fitness>
19.7225

> <Gold.Chemscore.DG>
-22.8041

> <Gold.Chemscore.ZeroCoef>
-5.4800

> <Gold.Chemscore.Hbond>
2.8327

> <Gold.Chemscore.Metal>
0.0000

> <Gold.Chemscore.Lipo>
125.6516

> <Gold.Chemscore.Internal_Hbond>
0.0000

> <Gold.Chemscore.DEClash>
1.6970

> <Gold.Chemscore.DEInternal>
1.3847

> <Gold.Chemscore.Rot>
2.6712

> <Gold.Chemscore.Internal.Correction>
   9.000000E+99

> <Gold.Chemscore.Hbonds>
donor molecule, donor type, donor heavy atom, donor atom, acceptor molecule, acceptor atom, score
      L1  H    10    31       P1  7948  0.77
      L1  H    12    48       P1  7948  0.96
      L1  H    17    41       P1  7948  1.00

> <Gold.Chemscore.Hbond.Weighted>
-9.4613

> <Gold.Chemscore.Metal.Weighted>
-0.0000

> <Gold.Chemscore.Lipo.Weighted>
-14.7012

> <Gold.Chemscore.Internal_Hbond.Weighted>
0.0000

> <Gold.Chemscore.DEClash.Weighted>
1.6970

> <Gold.Chemscore.DEInternal.Weighted>
1.3847

> <Gold.Chemscore.Rot.Weighted>
6.8383

> <Gold.Chemscore.Internal.Correction.Weighted>
   9.000000E+99

> <Gold.Protein.RotatedTorsions>
[ 6907 6896 6895 6894 ] final -113.31 input  -60.11 | X-H torsion
[ 7974 7965 7964 7962 ] final  117.53 input  175.53 | X-H torsion
[ 8008 7997 7996 7995 ] final  -58.96 input   59.86 | X-H torsion
[ 10167 10162 10161 10158 ] final  -60.84 input  -65.29 | X-H torsion
[ 10718 10713 10712 10709 ] final -114.38 input   66.30 | X-H torsion
[ 10763 10752 10751 10750 ] final -155.01 input  -60.55 | X-H torsion
[ 11005 11000 10999 10996 ] final   30.09 input  -57.11 | X-H torsion

> <Gold.Protein.ActiveResidues>
 VAL166  LYS551  ARG553  GLY616  TRP617  ASP618  TYR619  PRO620  LYS621  CYS622 
 ASP623  PHE694  ASN695  SER759  ASP760  ASP761  ALA762  ILE779  LEU786  VAL792 
 PHE793  MET794  SER795  GLU796  ALA797  LYS798  CYS799  TRP800  GLU811  SER814 

> <Gold.Protein.RotatedAtoms>
  150.7820  133.8963  159.3327 H   0  0  0  0  0  0  0  0  0  0  0  0  # atno 6907 bound_to 6896
  151.6824  135.0958  160.0228 H   0  0  0  0  0  0  0  0  0  0  0  0  # atno 6908 bound_to 6896
  152.3874  133.6591  159.6245 H   0  0  0  0  0  0  0  0  0  0  0  0  # atno 6909 bound_to 6896
  145.1662  139.3127  143.4491 H   0  0  0  0  0  0  0  0  0  0  0  0  # atno 7974 bound_to 7965
  154.4331  140.1072  156.6040 H   0  0  0  0  0  0  0  0  0  0  0  0  # atno 8008 bound_to 7997
  155.5881  140.3491  155.4540 H   0  0  0  0  0  0  0  0  0  0  0  0  # atno 8009 bound_to 7997
  156.0268  140.1251  157.0290 H   0  0  0  0  0  0  0  0  0  0  0  0  # atno 8010 bound_to 7997
  140.6045  143.2370  151.5853 H   0  0  0  0  0  0  0  0  0  0  0  0  # atno 10167 bound_to 10162
  156.0826  130.6024  150.8768 H   0  0  0  0  0  0  0  0  0  0  0  0  # atno 10718 bound_to 10713
  154.7818  135.3177  154.7973 H   0  0  0  0  0  0  0  0  0  0  0  0  # atno 10763 bound_to 10752
  153.8682  135.6847  153.4781 H   0  0  0  0  0  0  0  0  0  0  0  0  # atno 10764 bound_to 10752
  153.1457  135.4720  154.9500 H   0  0  0  0  0  0  0  0  0  0  0  0  # atno 10765 bound_to 10752
  140.2980  134.2789  155.7760 H   0  0  0  0  0  0  0  0  0  0  0  0  # atno 11005 bound_to 11000
  146.3475  140.1791  142.8589 LP  0  0  0  0  0  0  0  0  0  0  0  0  # atno 17320 bound_to 7965
  145.0280  140.8847  143.5127 LP  0  0  0  0  0  0  0  0  0  0  0  0  # atno 17321 bound_to 7965
  139.5315  144.2903  152.1157 LP  0  0  0  0  0  0  0  0  0  0  0  0  # atno 17342 bound_to 10162
  140.2090  144.4582  150.6395 LP  0  0  0  0  0  0  0  0  0  0  0  0  # atno 17343 bound_to 10162
  157.5949  131.0943  150.9057 LP  0  0  0  0  0  0  0  0  0  0  0  0  # atno 17370 bound_to 10713
  156.9226  130.5320  149.5279 LP  0  0  0  0  0  0  0  0  0  0  0  0  # atno 17371 bound_to 10713
  141.2133  133.7628  156.9724 LP  0  0  0  0  0  0  0  0  0  0  0  0  # atno 17394 bound_to 11000
  140.1135  134.9462  157.2100 LP  0  0  0  0  0  0  0  0  0  0  0  0  # atno 17395 bound_to 11000

$$$$
