AV-unprocessed.smi:20|AV-procd|sdf|114|dock10
  -GOLD-   2262015283D 1   1.00000     0.00000
 Structure written by MMmdl.
 57 61  0  0  0  0  0  0  0  0  1 V2000
  145.0260  137.3695  160.7174 O   0  0  0  0  0  0  0  0  0  0  0  0
  145.9323  136.6901  161.1933 C   0  0  0  0  0  0  0  0  0  0  0  0
  145.9468  135.1710  161.1782 C   0  0  0  0  0  0  0  0  0  0  0  0
  147.4171  134.8277  161.5150 C   0  0  1  0  0  0  0  0  0  0  0  0
  147.5650  133.5602  162.3880 C   0  0  0  0  0  0  0  0  0  0  0  0
  147.2119  132.2875  161.6002 C   0  0  0  0  0  0  0  0  0  0  0  0
  148.0346  132.1912  160.3063 C   0  0  0  0  0  0  0  0  0  0  0  0
  147.8950  133.4156  159.5198 N   0  0  0  0  0  0  0  0  0  0  0  0
  148.2238  133.3791  158.2044 C   0  0  0  0  0  0  0  0  0  0  0  0
  149.5316  133.3567  157.8324 N   0  0  0  0  0  0  0  0  0  0  0  0
  149.8647  133.3328  156.5383 C   0  0  0  0  0  0  0  0  0  0  0  0
  149.0647  133.3263  155.4704 N   0  0  0  0  0  0  0  0  0  0  0  0
  147.7517  133.3394  155.8378 C   0  0  0  0  0  0  0  0  0  0  0  0
  147.2474  133.3634  157.1684 C   0  0  0  0  0  0  0  0  0  0  0  0
  145.8571  133.3552  157.1467 N   0  0  0  0  0  0  0  0  0  0  0  0
  145.5572  133.3401  155.8766 C   0  0  0  0  0  0  0  0  0  0  0  0
  146.6356  133.3377  155.0213 N   0  0  0  0  0  0  0  0  0  0  0  0
  146.5992  133.3291  153.5700 C   0  0  0  0  0  0  0  0  0  0  0  0
  145.8490  132.1045  152.9895 C   0  0  2  0  0  0  0  0  0  0  0  0
  146.5853  130.7702  153.2627 C   0  0  0  0  0  0  0  0  0  0  0  0
  147.9155  130.8069  152.7873 O   0  0  0  0  0  0  0  0  0  0  0  0
  145.5134  132.2965  151.4890 C   0  0  2  0  0  0  0  0  0  0  0  0
  144.7777  133.5845  151.1623 C   0  0  0  0  0  0  0  0  0  0  0  0
  144.1877  133.2796  149.7902 C   0  0  0  0  0  0  0  0  0  0  0  0
  143.9046  131.8853  149.7970 O   0  0  0  0  0  0  0  0  0  0  0  0
  144.5359  131.2656  150.9133 C   0  0  0  0  0  0  0  0  0  0  0  0
  148.2497  134.6501  160.2200 C   0  0  0  0  0  0  0  0  0  0  0  0
  147.8969  136.0928  162.2633 C   0  0  0  0  0  0  0  0  0  0  0  0
  147.0284  137.1539  161.7897 N   0  0  0  0  0  0  0  0  0  0  0  0
  145.2606  134.8102  161.9454 H   0  0  0  0  0  0  0  0  0  0  0  0
  145.6193  134.7769  160.2157 H   0  0  0  0  0  0  0  0  0  0  0  0
  148.5932  133.4833  162.7443 H   0  0  0  0  0  0  0  0  0  0  0  0
  146.9385  133.6325  163.2777 H   0  0  0  0  0  0  0  0  0  0  0  0
  147.3845  131.4056  162.2173 H   0  0  0  0  0  0  0  0  0  0  0  0
  146.1488  132.2897  161.3563 H   0  0  0  0  0  0  0  0  0  0  0  0
  149.0878  132.0348  160.5429 H   0  0  0  0  0  0  0  0  0  0  0  0
  147.7006  131.3285  159.7281 H   0  0  0  0  0  0  0  0  0  0  0  0
  150.9240  133.3183  156.3287 H   0  0  0  0  0  0  0  0  0  0  0  0
  144.5351  133.3376  155.5263 H   0  0  0  0  0  0  0  0  0  0  0  0
  146.1287  134.2582  153.2483 H   0  0  0  0  0  0  0  0  0  0  0  0
  147.6240  133.3572  153.1975 H   0  0  0  0  0  0  0  0  0  0  0  0
  144.8981  132.0383  153.5202 H   0  0  0  0  0  0  0  0  0  0  0  0
  146.6014  130.5433  154.3288 H   0  0  0  0  0  0  0  0  0  0  0  0
  146.0680  129.9359  152.7895 H   0  0  0  0  0  0  0  0  0  0  0  0
  147.9318  130.4494  151.9126 H   0  0  0  0  0  0  0  0  0  0  0  0
  146.4326  132.2692  150.9013 H   0  0  0  0  0  0  0  0  0  0  0  0
  143.9772  133.7608  151.8823 H   0  0  0  0  0  0  0  0  0  0  0  0
  145.4255  134.4615  151.1498 H   0  0  0  0  0  0  0  0  0  0  0  0
  143.2949  133.8682  149.5791 H   0  0  0  0  0  0  0  0  0  0  0  0
  144.9202  133.4812  149.0078 H   0  0  0  0  0  0  0  0  0  0  0  0
  145.0328  130.3417  150.6168 H   0  0  0  0  0  0  0  0  0  0  0  0
  143.7646  131.0136  151.6424 H   0  0  0  0  0  0  0  0  0  0  0  0
  148.1343  135.5239  159.5796 H   0  0  0  0  0  0  0  0  0  0  0  0
  149.3108  134.5979  160.4681 H   0  0  0  0  0  0  0  0  0  0  0  0
  147.7629  135.9957  163.3417 H   0  0  0  0  0  0  0  0  0  0  0  0
  148.9458  136.3255  162.0772 H   0  0  0  0  0  0  0  0  0  0  0  0
  147.2379  138.1334  161.9170 H   0  0  0  0  0  0  0  0  0  0  0  0
  1  2  2  0  0  0  0
  2 29  1  0  0  0  0
  2  3  1  0  0  0  0
  3  4  1  0  0  0  0
  3 30  1  0  0  0  0
  3 31  1  0  0  0  0
  4 27  1  0  0  0  0
  4  5  1  0  0  0  0
  4 28  1  0  0  0  0
  5  6  1  0  0  0  0
  5 32  1  0  0  0  0
  5 33  1  0  0  0  0
  6  7  1  0  0  0  0
  6 34  1  0  0  0  0
  6 35  1  0  0  0  0
  7  8  1  0  0  0  0
  7 36  1  0  0  0  0
  7 37  1  0  0  0  0
  8  9  1  0  0  0  0
  8 27  1  0  0  0  0
  9 14  1  0  0  0  0
  9 10  2  0  0  0  0
 10 11  1  0  0  0  0
 11 12  2  0  0  0  0
 11 38  1  0  0  0  0
 12 13  1  0  0  0  0
 13 17  1  0  0  0  0
 13 14  2  0  0  0  0
 14 15  1  0  0  0  0
 15 16  2  0  0  0  0
 16 17  1  0  0  0  0
 16 39  1  0  0  0  0
 17 18  1  0  0  0  0
 18 19  1  0  0  0  0
 18 40  1  0  0  0  0
 18 41  1  0  0  0  0
 19 20  1  0  0  0  0
 19 22  1  0  0  0  0
 19 42  1  0  0  0  0
 20 21  1  0  0  0  0
 20 43  1  0  0  0  0
 20 44  1  0  0  0  0
 21 45  1  0  0  0  0
 22 26  1  0  0  0  0
 22 23  1  0  0  0  0
 22 46  1  0  0  0  0
 23 24  1  0  0  0  0
 23 47  1  0  0  0  0
 23 48  1  0  0  0  0
 24 25  1  0  0  0  0
 24 49  1  0  0  0  0
 24 50  1  0  0  0  0
 25 26  1  0  0  0  0
 26 51  1  0  0  0  0
 26 52  1  0  0  0  0
 27 53  1  0  0  0  0
 27 54  1  0  0  0  0
 28 29  1  0  0  0  0
 28 55  1  0  0  0  0
 28 56  1  0  0  0  0
 29 57  1  0  0  0  0
M  END
> <s_m_source_file>
AV-unprocessed.smi

> <i_m_source_file_index>
20

> <i_lp_mmshare_version>
43012

> <i_f3d_flags>
0

> <s_epik_input>
W0NIMl0xW05IXUMoPU8pW0NIMl1bQ0BAXTEyW0NIMl1bQ0gyXVtDSDJdTihbQ0gyXTIpYyhuW2NIXW4zKWMoYzM0KW5bY0hdbjRbQ0gyXVtDQEhdKFtDSDJdW09IXSlbQ0BASF01W0NIMl1bQ0gyXU9bQ0gyXTU=

> <s_epik_cmdline>
J2VwaWtfcHl0aG9uJywgJy1waCcsICc3LjAnLCAnLXRuJywgJzgnLCAnLW1hJywgJzIwMCcsICctbWV0YWxfYmluZGluZycsICctaW1hZScsICc8aW5maWxlLm1hZT4nLCAnLW9tYWUnLCAnPG91dGZpbGUubWFlPic=

> <r_lp_tautomer_probability>
1

> <r_epik_Ionization_Penalty>
0.0019697

> <r_epik_Ionization_Penalty_Charging>
0

> <r_epik_Ionization_Penalty_Neutral>
0.0019697

> <r_epik_State_Penalty>
0.00113613

> <r_epik_Charging_Adjusted_Penalty>
0.00113613

> <i_epik_Tot_Q>
0

> <i_epik_Tot_abs_Q>
0

> <r_epik_Metal_State_Penalty>
-0

> <b_epik_Metal_Only>
0

> <s_lp_Force_Field>
OPLS_2005

> <r_lp_Energy>
58.2949

> <b_lp_Chiralities_Consistent>
1

> <s_lp_Variant>
AV-unprocessed.smi:20-2

> <Gold.Version>
5.8.1

> <Gold.Id.Protein>
6NUR|6NUR_protein|mol2

> <Gold.PLP.Fitness>
48.1552

> <Gold.PLP.PLP>
-37.5629

> <Gold.PLP.part.hbond>
-3.0000

> <Gold.PLP.part.metal>
0.0000

> <Gold.PLP.part.buried>
-8.3933

> <Gold.PLP.part.nonpolar>
-27.7683

> <Gold.PLP.part.repulsive>
1.0124

> <Gold.PLP.ligand.clash>
0.0000

> <Gold.PLP.ligand.torsion>
0.3987

> <Gold.PLP.Chemscore.Hbond>
2.6110

> <Gold.PLP.Chemscore.CHOScore>
1.0000

> <Gold.PLP.Chemscore.Metal>
0.0000

> <Gold.Chemscore.Hbonds>
donor molecule, donor type, donor heavy atom, donor atom, acceptor molecule, acceptor atom, score
      L1  H    21    45       P1 10747  0.69
      P1  H  6896  6909       L1    10  1.00
      P1  H 10785 10796       L1    25  0.57
      L1  C    16    39       P1 10957  0.98

> <Gold.PLP.Chemscore.Internal.Correction>
0.5567

> <Gold.Rescore>
     Score         DG    S(hbond)    S(metal)    S(lipo)     H(rot)  DE(clash)    DE(int)     intcor
     17.12     -17.61       2.43        0.00      94.25       2.74       0.08       0.40       ----

> <Gold.Chemscore.Fitness>
17.1243

> <Gold.Chemscore.DG>
-17.6058

> <Gold.Chemscore.ZeroCoef>
-5.4800

> <Gold.Chemscore.Hbond>
2.4300

> <Gold.Chemscore.Metal>
0.0000

> <Gold.Chemscore.Lipo>
94.2536

> <Gold.Chemscore.Internal_Hbond>
0.0000

> <Gold.Chemscore.DEClash>
0.0850

> <Gold.Chemscore.DEInternal>
0.3965

> <Gold.Chemscore.Rot>
2.7415

> <Gold.Chemscore.Internal.Correction>
   9.000000E+99

> <Gold.Chemscore.Hbonds>
donor molecule, donor type, donor heavy atom, donor atom, acceptor molecule, acceptor atom, score
      L1  H    21    45       P1 10747  0.67
      P1  H  6896  6909       L1    10  0.87
      P1  H 10785 10796       L1    25  0.14

> <Gold.Chemscore.Hbond.Weighted>
-8.1163

> <Gold.Chemscore.Metal.Weighted>
-0.0000

> <Gold.Chemscore.Lipo.Weighted>
-11.0277

> <Gold.Chemscore.Internal_Hbond.Weighted>
0.0000

> <Gold.Chemscore.DEClash.Weighted>
0.0850

> <Gold.Chemscore.DEInternal.Weighted>
0.3965

> <Gold.Chemscore.Rot.Weighted>
7.0182

> <Gold.Chemscore.Internal.Correction.Weighted>
   9.000000E+99

> <Gold.Protein.RotatedTorsions>
[ 6907 6896 6895 6894 ] final    0.90 input  -60.11 | X-H torsion
[ 7974 7965 7964 7962 ] final  162.91 input  175.53 | X-H torsion
[ 8008 7997 7996 7995 ] final   30.36 input   59.86 | X-H torsion
[ 10167 10162 10161 10158 ] final -121.59 input  -65.29 | X-H torsion
[ 10718 10713 10712 10709 ] final  -93.99 input   66.30 | X-H torsion
[ 10763 10752 10751 10750 ] final   70.46 input  -60.55 | X-H torsion
[ 11005 11000 10999 10996 ] final   83.68 input  -57.11 | X-H torsion

> <Gold.Protein.ActiveResidues>
 VAL166  LYS551  ARG553  GLY616  TRP617  ASP618  TYR619  PRO620  LYS621  CYS622 
 ASP623  PHE694  ASN695  SER759  ASP760  ASP761  ALA762  ILE779  LEU786  VAL792 
 PHE793  MET794  SER795  GLU796  ALA797  LYS798  CYS799  TRP800  GLU811  SER814 

> <Gold.Protein.RotatedAtoms>
  151.5840  135.1057  160.0023 H   0  0  0  0  0  0  0  0  0  0  0  0  # atno 6907 bound_to 6896
  152.4340  133.7323  159.6605 H   0  0  0  0  0  0  0  0  0  0  0  0  # atno 6908 bound_to 6896
  150.8235  133.8141  159.3151 H   0  0  0  0  0  0  0  0  0  0  0  0  # atno 6909 bound_to 6896
  144.7614  139.8106  143.6331 H   0  0  0  0  0  0  0  0  0  0  0  0  # atno 7974 bound_to 7965
  155.0892  140.3218  155.4579 H   0  0  0  0  0  0  0  0  0  0  0  0  # atno 8008 bound_to 7997
  156.2747  140.2081  156.5965 H   0  0  0  0  0  0  0  0  0  0  0  0  # atno 8009 bound_to 7997
  154.6917  140.0516  157.0357 H   0  0  0  0  0  0  0  0  0  0  0  0  # atno 8010 bound_to 7997
  140.0234  143.5321  152.2210 H   0  0  0  0  0  0  0  0  0  0  0  0  # atno 10167 bound_to 10162
  156.0021  130.5049  150.5859 H   0  0  0  0  0  0  0  0  0  0  0  0  # atno 10718 bound_to 10713
  153.0343  135.5173  154.7445 H   0  0  0  0  0  0  0  0  0  0  0  0  # atno 10763 bound_to 10752
  154.6434  135.2915  155.0078 H   0  0  0  0  0  0  0  0  0  0  0  0  # atno 10764 bound_to 10752
  154.0988  135.6639  153.4917 H   0  0  0  0  0  0  0  0  0  0  0  0  # atno 10765 bound_to 10752
  139.9023  134.8162  156.2342 H   0  0  0  0  0  0  0  0  0  0  0  0  # atno 11005 bound_to 11000
  146.1681  139.4821  142.9945 LP  0  0  0  0  0  0  0  0  0  0  0  0  # atno 17320 bound_to 7965
  145.6606  141.0241  143.1711 LP  0  0  0  0  0  0  0  0  0  0  0  0  # atno 17321 bound_to 7965
  139.6124  144.7612  151.2921 LP  0  0  0  0  0  0  0  0  0  0  0  0  # atno 17342 bound_to 10162
  140.7333  143.6799  150.8009 LP  0  0  0  0  0  0  0  0  0  0  0  0  # atno 17343 bound_to 10162
  157.3732  131.0769  151.1540 LP  0  0  0  0  0  0  0  0  0  0  0  0  # atno 17370 bound_to 10713
  157.2287  130.6515  149.5840 LP  0  0  0  0  0  0  0  0  0  0  0  0  # atno 17371 bound_to 10713
  141.0326  133.6980  156.1457 LP  0  0  0  0  0  0  0  0  0  0  0  0  # atno 17394 bound_to 11000
  140.7074  134.4499  157.5583 LP  0  0  0  0  0  0  0  0  0  0  0  0  # atno 17395 bound_to 11000

$$$$
