AV-unprocessed.smi:2957|AV-procd|sdf|11306|dock3
  -GOLD-   2272016203D 1   1.00000     0.00000
 Structure written by MMmdl.
 29 30  0  0  0  0  0  0  0  0  1 V2000
  148.8242  141.4019  157.1517 O   0  0  0  0  0  0  0  0  0  0  0  0
  149.4569  141.2522  156.1052 C   0  0  0  0  0  0  0  0  0  0  0  0
  150.9920  141.2079  156.1142 C   0  0  0  0  0  0  0  0  0  0  0  0
  151.5776  141.5460  157.4230 N   0  0  0  0  0  0  0  0  0  0  0  0
  151.3096  142.8315  157.9310 C   0  0  0  0  0  0  0  0  0  0  0  0
  151.8000  143.2707  159.1048 C   0  0  0  0  0  0  0  0  0  0  0  0
  151.4532  144.6458  159.6535 C   0  0  0  0  0  0  0  0  0  0  0  0
  151.9711  144.8216  160.8694 F   0  0  0  0  0  0  0  0  0  0  0  0
  151.9449  145.5900  158.8525 F   0  0  0  0  0  0  0  0  0  0  0  0
  150.1327  144.8144  159.7325 F   0  0  0  0  0  0  0  0  0  0  0  0
  152.6063  142.3318  159.8583 C   0  0  0  0  0  0  0  0  0  0  0  0
  152.8717  141.0937  159.3951 C   0  0  0  0  0  0  0  0  0  0  0  0
  153.8448  140.0171  160.3325 Cl  0  0  0  0  0  0  0  0  0  0  0  0
  152.3477  140.6418  158.0998 C   0  0  0  0  0  0  0  0  0  0  0  0
  152.5820  139.5202  157.6466 O   0  0  0  0  0  0  0  0  0  0  0  0
  148.8748  141.1011  154.9066 N   0  0  0  0  0  0  0  0  0  0  0  0
  147.4689  141.1024  154.6611 C   0  0  0  0  0  0  0  0  0  0  0  0
  147.0051  140.9456  153.2289 C   0  0  0  0  0  0  0  0  0  0  0  0
  146.8884  142.2811  153.9100 C   0  0  0  0  0  0  0  0  0  0  0  0
  151.3036  140.2106  155.8011 H   0  0  0  0  0  0  0  0  0  0  0  0
  151.3785  141.8798  155.3453 H   0  0  0  0  0  0  0  0  0  0  0  0
  150.6809  143.4429  157.2998 H   0  0  0  0  0  0  0  0  0  0  0  0
  153.0117  142.6316  160.8136 H   0  0  0  0  0  0  0  0  0  0  0  0
  149.4744  140.9796  154.1033 H   0  0  0  0  0  0  0  0  0  0  0  0
  146.8275  140.6591  155.4215 H   0  0  0  0  0  0  0  0  0  0  0  0
  147.7637  140.8418  152.4554 H   0  0  0  0  0  0  0  0  0  0  0  0
  146.0869  140.3874  153.0579 H   0  0  0  0  0  0  0  0  0  0  0  0
  145.8925  142.6151  154.1940 H   0  0  0  0  0  0  0  0  0  0  0  0
  147.5694  143.0683  153.5915 H   0  0  0  0  0  0  0  0  0  0  0  0
  1  2  2  0  0  0  0
  2  3  1  0  0  0  0
  2 16  1  0  0  0  0
  3  4  1  0  0  0  0
  3 20  1  0  0  0  0
  3 21  1  0  0  0  0
  4 14  1  0  0  0  0
  4  5  1  0  0  0  0
  5  6  2  0  0  0  0
  5 22  1  0  0  0  0
  6  7  1  0  0  0  0
  6 11  1  0  0  0  0
  7  8  1  0  0  0  0
  7  9  1  0  0  0  0
  7 10  1  0  0  0  0
 11 12  2  0  0  0  0
 11 23  1  0  0  0  0
 12 13  1  0  0  0  0
 12 14  1  0  0  0  0
 14 15  2  0  0  0  0
 16 17  1  0  0  0  0
 16 24  1  0  0  0  0
 17 19  1  0  0  0  0
 17 18  1  0  0  0  0
 17 25  1  0  0  0  0
 18 19  1  0  0  0  0
 18 26  1  0  0  0  0
 18 27  1  0  0  0  0
 19 28  1  0  0  0  0
 19 29  1  0  0  0  0
M  END
> <s_m_source_file>
AV-unprocessed.smi

> <i_m_source_file_index>
2957

> <i_lp_mmshare_version>
43012

> <i_f3d_flags>
0

> <s_epik_input>
W0NIMl0xW0NIMl1bQ0hdMVtOSF1DKD1PKVtDSDJdbjJbY0hdYyhDKEYpKEYpRilbY0hdYyhDbCljMj1P

> <s_epik_cmdline>
J2VwaWtfcHl0aG9uJywgJy1waCcsICc3LjAnLCAnLXRuJywgJzgnLCAnLW1hJywgJzIwMCcsICctbWV0YWxfYmluZGluZycsICctaW1hZScsICc8aW5maWxlLm1hZT4nLCAnLW9tYWUnLCAnPG91dGZpbGUubWFlPic=

> <r_lp_tautomer_probability>
1

> <r_epik_Ionization_Penalty>
2.10194e-08

> <r_epik_Ionization_Penalty_Charging>
3.49098e-10

> <r_epik_Ionization_Penalty_Neutral>
2.06703e-08

> <r_epik_State_Penalty>
-0

> <r_epik_Charging_Adjusted_Penalty>
3.49098e-10

> <i_epik_Tot_Q>
0

> <i_epik_Tot_abs_Q>
0

> <r_epik_Metal_State_Penalty>
-0

> <b_epik_Metal_Only>
0

> <s_lp_Force_Field>
OPLS_2005

> <r_lp_Energy>
26.5923

> <b_lp_Chiralities_Consistent>
1

> <s_lp_Variant>
AV-unprocessed.smi:2957-1

> <Gold.Version>
5.8.1

> <Gold.Id.Protein>
6NUR|6NUR_protein|mol2

> <Gold.PLP.Fitness>
46.9080

> <Gold.PLP.PLP>
-42.7577

> <Gold.PLP.part.hbond>
-1.0000

> <Gold.PLP.part.metal>
0.0000

> <Gold.PLP.part.buried>
-5.4554

> <Gold.PLP.part.nonpolar>
-35.3818

> <Gold.PLP.part.repulsive>
0.2380

> <Gold.PLP.ligand.clash>
0.0000

> <Gold.PLP.ligand.torsion>
0.1412

> <Gold.PLP.Chemscore.Hbond>
0.9500

> <Gold.PLP.Chemscore.CHOScore>
0.5056

> <Gold.PLP.Chemscore.Metal>
0.0000

> <Gold.Chemscore.Hbonds>
donor molecule, donor type, donor heavy atom, donor atom, acceptor molecule, acceptor atom, score
      P1  H  7997  8009       L1    15  0.53
      L1  C     5    22       P1  8028  0.50

> <Gold.PLP.Chemscore.Internal.Correction>
0.0659

> <Gold.Rescore>
     Score         DG    S(hbond)    S(metal)    S(lipo)     H(rot)  DE(clash)    DE(int)     intcor
     11.76     -14.24       0.81        0.00      87.31       1.62       1.00       1.48       ----

> <Gold.Chemscore.Fitness>
11.7617

> <Gold.Chemscore.DG>
-14.2425

> <Gold.Chemscore.ZeroCoef>
-5.4800

> <Gold.Chemscore.Hbond>
0.8060

> <Gold.Chemscore.Metal>
0.0000

> <Gold.Chemscore.Lipo>
87.3137

> <Gold.Chemscore.Internal_Hbond>
0.0000

> <Gold.Chemscore.DEClash>
0.9988

> <Gold.Chemscore.DEInternal>
1.4820

> <Gold.Chemscore.Rot>
1.6192

> <Gold.Chemscore.Internal.Correction>
   9.000000E+99

> <Gold.Chemscore.Hbonds>
donor molecule, donor type, donor heavy atom, donor atom, acceptor molecule, acceptor atom, score
      P1  H  7997  8009       L1    15  0.08

> <Gold.Chemscore.Hbond.Weighted>
-2.6920

> <Gold.Chemscore.Metal.Weighted>
-0.0000

> <Gold.Chemscore.Lipo.Weighted>
-10.2157

> <Gold.Chemscore.Internal_Hbond.Weighted>
0.0000

> <Gold.Chemscore.DEClash.Weighted>
0.9988

> <Gold.Chemscore.DEInternal.Weighted>
1.4820

> <Gold.Chemscore.Rot.Weighted>
4.1452

> <Gold.Chemscore.Internal.Correction.Weighted>
   9.000000E+99

> <Gold.Protein.RotatedTorsions>
[ 6907 6896 6895 6894 ] final  -78.62 input  -60.11 | X-H torsion
[ 7974 7965 7964 7962 ] final  124.04 input  175.53 | X-H torsion
[ 8008 7997 7996 7995 ] final -173.51 input   59.86 | X-H torsion
[ 10167 10162 10161 10158 ] final  -95.52 input  -65.29 | X-H torsion
[ 10718 10713 10712 10709 ] final  -39.59 input   66.30 | X-H torsion
[ 10763 10752 10751 10750 ] final  175.79 input  -60.55 | X-H torsion
[ 11005 11000 10999 10996 ] final  -40.82 input  -57.11 | X-H torsion

> <Gold.Protein.ActiveResidues>
 VAL166  LYS551  ARG553  GLY616  TRP617  ASP618  TYR619  PRO620  LYS621  CYS622 
 ASP623  PHE694  ASN695  SER759  ASP760  ASP761  ALA762  ILE779  LEU786  VAL792 
 PHE793  MET794  SER795  GLU796  ALA797  LYS798  CYS799  TRP800  GLU811  SER814 

> <Gold.Protein.RotatedAtoms>
  150.6968  134.4245  159.5219 H   0  0  0  0  0  0  0  0  0  0  0  0  # atno 6907 bound_to 6896
  152.1982  134.8609  160.0520 H   0  0  0  0  0  0  0  0  0  0  0  0  # atno 6908 bound_to 6896
  151.9539  133.3639  159.4047 H   0  0  0  0  0  0  0  0  0  0  0  0  # atno 6909 bound_to 6896
  145.0889  139.3601  143.4871 H   0  0  0  0  0  0  0  0  0  0  0  0  # atno 7974 bound_to 7965
  155.9584  140.1139  157.0917 H   0  0  0  0  0  0  0  0  0  0  0  0  # atno 8008 bound_to 7997
  154.4126  140.1187  156.5212 H   0  0  0  0  0  0  0  0  0  0  0  0  # atno 8009 bound_to 7997
  155.6752  140.3473  155.4836 H   0  0  0  0  0  0  0  0  0  0  0  0  # atno 8010 bound_to 7997
  140.3033  143.3149  152.0226 H   0  0  0  0  0  0  0  0  0  0  0  0  # atno 10167 bound_to 10162
  156.2908  130.4228  149.8241 H   0  0  0  0  0  0  0  0  0  0  0  0  # atno 10718 bound_to 10713
  154.4723  135.2771  155.1633 H   0  0  0  0  0  0  0  0  0  0  0  0  # atno 10763 bound_to 10752
  154.3377  135.6177  153.5585 H   0  0  0  0  0  0  0  0  0  0  0  0  # atno 10764 bound_to 10752
  152.9865  135.5781  154.5107 H   0  0  0  0  0  0  0  0  0  0  0  0  # atno 10765 bound_to 10752
  141.0202  133.6866  156.2374 H   0  0  0  0  0  0  0  0  0  0  0  0  # atno 11005 bound_to 11000
  146.3531  140.0715  142.8623 LP  0  0  0  0  0  0  0  0  0  0  0  0  # atno 17320 bound_to 7965
  145.1089  140.9393  143.4668 LP  0  0  0  0  0  0  0  0  0  0  0  0  # atno 17321 bound_to 7965
  139.4910  144.6440  151.6818 LP  0  0  0  0  0  0  0  0  0  0  0  0  # atno 17342 bound_to 10162
  140.5632  144.0233  150.6180 LP  0  0  0  0  0  0  0  0  0  0  0  0  # atno 17343 bound_to 10162
  156.5654  130.8402  151.3341 LP  0  0  0  0  0  0  0  0  0  0  0  0  # atno 17370 bound_to 10713
  157.7342  130.9742  150.2015 LP  0  0  0  0  0  0  0  0  0  0  0  0  # atno 17371 bound_to 10713
  140.6586  134.4992  157.5582 LP  0  0  0  0  0  0  0  0  0  0  0  0  # atno 17394 bound_to 11000
  139.9141  134.8282  156.1425 LP  0  0  0  0  0  0  0  0  0  0  0  0  # atno 17395 bound_to 11000

$$$$
