AV-unprocessed.smi:2139|AV-procd|sdf|8713|dock10
  -GOLD-   2272011473D 1   1.00000     0.00000
 Structure written by MMmdl.
 40 41  0  0  0  0  0  0  0  0  1 V2000
  149.6634  138.6706  154.2612 C   0  0  0  0  0  0  0  0  0  0  0  0
  148.5415  139.6762  154.5572 C   0  0  0  0  0  0  0  0  0  0  0  0
  148.9698  141.1493  154.4116 C   0  0  1  0  0  0  0  0  0  0  0  0
  147.7703  142.0630  154.1250 C   0  0  0  0  0  0  0  0  0  0  0  0
  149.6466  141.6128  155.6220 N   0  0  0  0  0  0  0  0  0  0  0  0
  150.8310  141.1742  156.0804 C   0  0  0  0  0  0  0  0  0  0  0  0
  151.4899  140.2891  155.5339 O   0  0  0  0  0  0  0  0  0  0  0  0
  151.2990  141.8210  157.3587 C   0  0  0  0  0  0  0  0  0  0  0  0
  151.3467  143.2319  157.4444 C   0  0  0  0  0  0  0  0  0  0  0  0
  151.8293  143.8416  158.6159 C   0  0  0  0  0  0  0  0  0  0  0  0
  152.2591  143.0142  159.6669 C   0  0  0  0  0  0  0  0  0  0  0  0
  152.2244  141.6680  159.6058 N   0  0  0  0  0  0  0  0  0  0  0  0
  151.7571  141.0694  158.4819 C   0  0  0  0  0  0  0  0  0  0  0  0
  151.7010  139.6616  158.4973 N   0  0  0  0  0  0  0  0  0  0  0  0
  152.4252  138.9682  159.5568 C   0  0  0  0  0  0  0  0  0  0  0  0
  152.4525  137.4582  159.2632 C   0  0  0  0  0  0  0  0  0  0  0  0
  151.1201  136.9769  159.1058 O   0  0  0  0  0  0  0  0  0  0  0  0
  150.4432  137.6117  158.0238 C   0  0  0  0  0  0  0  0  0  0  0  0
  150.3634  139.1257  158.2820 C   0  0  0  0  0  0  0  0  0  0  0  0
  149.2868  137.6485  154.3018 H   0  0  0  0  0  0  0  0  0  0  0  0
  150.4727  138.7502  154.9862 H   0  0  0  0  0  0  0  0  0  0  0  0
  150.0848  138.8308  153.2683 H   0  0  0  0  0  0  0  0  0  0  0  0
  147.7128  139.4783  153.8762 H   0  0  0  0  0  0  0  0  0  0  0  0
  148.1555  139.4997  155.5619 H   0  0  0  0  0  0  0  0  0  0  0  0
  149.6414  141.2187  153.5542 H   0  0  0  0  0  0  0  0  0  0  0  0
  147.2558  141.7605  153.2125 H   0  0  0  0  0  0  0  0  0  0  0  0
  148.0882  143.0979  153.9945 H   0  0  0  0  0  0  0  0  0  0  0  0
  147.0458  142.0368  154.9396 H   0  0  0  0  0  0  0  0  0  0  0  0
  149.1755  142.3298  156.1544 H   0  0  0  0  0  0  0  0  0  0  0  0
  151.0276  143.8504  156.6178 H   0  0  0  0  0  0  0  0  0  0  0  0
  151.8761  144.9171  158.7030 H   0  0  0  0  0  0  0  0  0  0  0  0
  152.6403  143.4436  160.5815 H   0  0  0  0  0  0  0  0  0  0  0  0
  153.4418  139.3559  159.6279 H   0  0  0  0  0  0  0  0  0  0  0  0
  151.9384  139.1483  160.5162 H   0  0  0  0  0  0  0  0  0  0  0  0
  153.0344  137.2478  158.3646 H   0  0  0  0  0  0  0  0  0  0  0  0
  152.9294  136.9239  160.0849 H   0  0  0  0  0  0  0  0  0  0  0  0
  150.9608  137.4054  157.0853 H   0  0  0  0  0  0  0  0  0  0  0  0
  149.4413  137.1915  157.9347 H   0  0  0  0  0  0  0  0  0  0  0  0
  149.7526  139.3239  159.1638 H   0  0  0  0  0  0  0  0  0  0  0  0
  149.8798  139.6228  157.4420 H   0  0  0  0  0  0  0  0  0  0  0  0
  1  2  1  0  0  0  0
  1 20  1  0  0  0  0
  1 21  1  0  0  0  0
  1 22  1  0  0  0  0
  2  3  1  0  0  0  0
  2 23  1  0  0  0  0
  2 24  1  0  0  0  0
  3  4  1  0  0  0  0
  3  5  1  0  0  0  0
  3 25  1  0  0  0  0
  4 26  1  0  0  0  0
  4 27  1  0  0  0  0
  4 28  1  0  0  0  0
  5  6  1  0  0  0  0
  5 29  1  0  0  0  0
  6  7  2  0  0  0  0
  6  8  1  0  0  0  0
  8 13  1  0  0  0  0
  8  9  2  0  0  0  0
  9 10  1  0  0  0  0
  9 30  1  0  0  0  0
 10 11  2  0  0  0  0
 10 31  1  0  0  0  0
 11 12  1  0  0  0  0
 11 32  1  0  0  0  0
 12 13  2  0  0  0  0
 13 14  1  0  0  0  0
 14 19  1  0  0  0  0
 14 15  1  0  0  0  0
 15 16  1  0  0  0  0
 15 33  1  0  0  0  0
 15 34  1  0  0  0  0
 16 17  1  0  0  0  0
 16 35  1  0  0  0  0
 16 36  1  0  0  0  0
 17 18  1  0  0  0  0
 18 19  1  0  0  0  0
 18 37  1  0  0  0  0
 18 38  1  0  0  0  0
 19 39  1  0  0  0  0
 19 40  1  0  0  0  0
M  END
> <s_m_source_file>
AV-unprocessed.smi

> <i_m_source_file_index>
2139

> <i_lp_mmshare_version>
43012

> <i_f3d_flags>
0

> <s_epik_input>
W0NIM11bQ0gyXVtDQEhdKFtDSDNdKVtOSF1DKD1PKWMxW2NIXVtjSF1bY0hdbmMxTjJbQ0gyXVtDSDJdT1tDSDJdW0NIMl0y

> <s_epik_cmdline>
J2VwaWtfcHl0aG9uJywgJy1waCcsICc3LjAnLCAnLXRuJywgJzgnLCAnLW1hJywgJzIwMCcsICctbWV0YWxfYmluZGluZycsICctaW1hZScsICc8aW5maWxlLm1hZT4nLCAnLW9tYWUnLCAnPG91dGZpbGUubWFlPic=

> <r_lp_tautomer_probability>
1

> <r_epik_Ionization_Penalty>
1.73125e-05

> <r_epik_Ionization_Penalty_Charging>
0

> <r_epik_Ionization_Penalty_Neutral>
1.73125e-05

> <r_epik_State_Penalty>
-0

> <r_epik_Charging_Adjusted_Penalty>
0

> <i_epik_Tot_Q>
0

> <i_epik_Tot_abs_Q>
0

> <r_epik_Metal_State_Penalty>
-0

> <b_epik_Metal_Only>
0

> <s_lp_Force_Field>
OPLS_2005

> <r_lp_Energy>
25.2402

> <b_lp_Chiralities_Consistent>
1

> <s_lp_Variant>
AV-unprocessed.smi:2139-2

> <Gold.Version>
5.8.1

> <Gold.Id.Protein>
6NUR|6NUR_protein|mol2

> <Gold.PLP.Fitness>
40.4117

> <Gold.PLP.PLP>
-37.3756

> <Gold.PLP.part.hbond>
-2.3477

> <Gold.PLP.part.metal>
0.0000

> <Gold.PLP.part.buried>
-6.1487

> <Gold.PLP.part.nonpolar>
-29.6856

> <Gold.PLP.part.repulsive>
0.1431

> <Gold.PLP.ligand.clash>
0.0000

> <Gold.PLP.ligand.torsion>
1.3435

> <Gold.PLP.Chemscore.Hbond>
1.8230

> <Gold.PLP.Chemscore.CHOScore>
0.0000

> <Gold.PLP.Chemscore.Metal>
0.0000

> <Gold.Chemscore.Hbonds>
donor molecule, donor type, donor heavy atom, donor atom, acceptor molecule, acceptor atom, score
      P1  H  6896  6909       L1    17  0.85
      P1  H  7989  7998       L1     7  0.73

> <Gold.PLP.Chemscore.Internal.Correction>
0.2541

> <Gold.Rescore>
     Score         DG    S(hbond)    S(metal)    S(lipo)     H(rot)  DE(clash)    DE(int)     intcor
     15.06     -17.38       1.64        0.00      83.34       1.30       0.12       2.20       ----

> <Gold.Chemscore.Fitness>
15.0578

> <Gold.Chemscore.DG>
-17.3798

> <Gold.Chemscore.ZeroCoef>
-5.4800

> <Gold.Chemscore.Hbond>
1.6431

> <Gold.Chemscore.Metal>
0.0000

> <Gold.Chemscore.Lipo>
83.3363

> <Gold.Chemscore.Internal_Hbond>
0.0000

> <Gold.Chemscore.DEClash>
0.1237

> <Gold.Chemscore.DEInternal>
2.1983

> <Gold.Chemscore.Rot>
1.3041

> <Gold.Chemscore.Internal.Correction>
   9.000000E+99

> <Gold.Chemscore.Hbonds>
donor molecule, donor type, donor heavy atom, donor atom, acceptor molecule, acceptor atom, score
      L1  H     5    29       P1  8028  0.02
      P1  H  6896  6909       L1    17  0.14
      P1  H  7989  7998       L1     7  0.35

> <Gold.Chemscore.Hbond.Weighted>
-5.4879

> <Gold.Chemscore.Metal.Weighted>
-0.0000

> <Gold.Chemscore.Lipo.Weighted>
-9.7503

> <Gold.Chemscore.Internal_Hbond.Weighted>
0.0000

> <Gold.Chemscore.DEClash.Weighted>
0.1237

> <Gold.Chemscore.DEInternal.Weighted>
2.1983

> <Gold.Chemscore.Rot.Weighted>
3.3385

> <Gold.Chemscore.Internal.Correction.Weighted>
   9.000000E+99

> <Gold.Protein.RotatedTorsions>
[ 6907 6896 6895 6894 ] final  111.18 input  -60.11 | X-H torsion
[ 7974 7965 7964 7962 ] final  -28.19 input  175.53 | X-H torsion
[ 8008 7997 7996 7995 ] final  126.05 input   59.86 | X-H torsion
[ 10167 10162 10161 10158 ] final  131.76 input  -65.29 | X-H torsion
[ 10718 10713 10712 10709 ] final -155.94 input   66.30 | X-H torsion
[ 10763 10752 10751 10750 ] final -102.51 input  -60.55 | X-H torsion
[ 11005 11000 10999 10996 ] final  -69.10 input  -57.11 | X-H torsion

> <Gold.Protein.ActiveResidues>
 VAL166  LYS551  ARG553  GLY616  TRP617  ASP618  TYR619  PRO620  LYS621  CYS622 
 ASP623  PHE694  ASN695  SER759  ASP760  ASP761  ALA762  ILE779  LEU786  VAL792 
 PHE793  MET794  SER795  GLU796  ALA797  LYS798  CYS799  TRP800  GLU811  SER814 

> <Gold.Protein.RotatedAtoms>
  152.4982  133.8694  159.7290 H   0  0  0  0  0  0  0  0  0  0  0  0  # atno 6907 bound_to 6896
  150.9184  133.6901  159.2844 H   0  0  0  0  0  0  0  0  0  0  0  0  # atno 6908 bound_to 6896
  151.4286  135.1011  159.9688 H   0  0  0  0  0  0  0  0  0  0  0  0  # atno 6909 bound_to 6896
  146.1306  140.5250  142.8695 H   0  0  0  0  0  0  0  0  0  0  0  0  # atno 7974 bound_to 7965
  156.2852  140.2702  156.2049 H   0  0  0  0  0  0  0  0  0  0  0  0  # atno 8008 bound_to 7997
  155.0324  140.0386  157.2497 H   0  0  0  0  0  0  0  0  0  0  0  0  # atno 8009 bound_to 7997
  154.7343  140.2713  155.6433 H   0  0  0  0  0  0  0  0  0  0  0  0  # atno 8010 bound_to 7997
  139.5369  144.6692  151.4754 H   0  0  0  0  0  0  0  0  0  0  0  0  # atno 10167 bound_to 10162
  156.5196  130.8472  151.2677 H   0  0  0  0  0  0  0  0  0  0  0  0  # atno 10718 bound_to 10713
  154.7739  135.4858  153.9704 H   0  0  0  0  0  0  0  0  0  0  0  0  # atno 10763 bound_to 10752
  153.1403  135.6771  153.9045 H   0  0  0  0  0  0  0  0  0  0  0  0  # atno 10764 bound_to 10752
  153.8721  135.3142  155.3421 H   0  0  0  0  0  0  0  0  0  0  0  0  # atno 10765 bound_to 10752
  141.1546  133.6756  156.6547 H   0  0  0  0  0  0  0  0  0  0  0  0  # atno 11005 bound_to 11000
  144.7686  140.5587  143.6686 LP  0  0  0  0  0  0  0  0  0  0  0  0  # atno 17320 bound_to 7965
  145.5270  139.1476  143.3521 LP  0  0  0  0  0  0  0  0  0  0  0  0  # atno 17321 bound_to 7965
  140.6581  143.8557  150.6857 LP  0  0  0  0  0  0  0  0  0  0  0  0  # atno 17342 bound_to 10162
  140.1943  143.4011  152.1840 LP  0  0  0  0  0  0  0  0  0  0  0  0  # atno 17343 bound_to 10162
  157.7439  130.9922  150.2627 LP  0  0  0  0  0  0  0  0  0  0  0  0  # atno 17370 bound_to 10713
  156.3162  130.3779  149.7617 LP  0  0  0  0  0  0  0  0  0  0  0  0  # atno 17371 bound_to 10713
  140.3293  134.7942  157.4314 LP  0  0  0  0  0  0  0  0  0  0  0  0  # atno 17394 bound_to 11000
  140.1030  134.5447  155.8335 LP  0  0  0  0  0  0  0  0  0  0  0  0  # atno 17395 bound_to 11000

$$$$
