AV-unprocessed.smi:2757|AV-procd|sdf|10621|dock10
  -GOLD-   2272015 63D 1   1.00000     0.00000
 Structure written by MMmdl.
 32 33  0  0  0  0  0  0  0  0  2 V2000
  149.5602  137.8113  155.0824 C   0  0  0  0  0  0  0  0  0  0  0  0
  148.6124  136.9046  154.4534 N   0  0  0  0  0  0  0  0  0  0  0  0
  147.6721  136.2152  155.1165 C   0  0  0  0  0  0  0  0  0  0  0  0
  147.5141  136.2751  156.3364 O   0  0  0  0  0  0  0  0  0  0  0  0
  146.7893  135.3570  154.2588 C   0  0  0  0  0  0  0  0  0  0  0  0
  145.7751  134.5419  154.8416 C   0  0  0  0  0  0  0  0  0  0  0  0
  145.1914  133.9268  153.7717 C   0  0  0  0  0  0  0  0  0  0  0  0
  145.8397  134.3674  152.6370 N   0  0  0  0  0  0  0  0  0  0  0  0
  145.5816  133.9970  151.2536 C   0  0  1  0  0  0  0  0  0  0  0  0
  145.7869  132.4862  151.0200 C   0  0  0  0  0  0  0  0  0  0  0  0
  145.4883  132.1277  149.5564 C   0  0  0  0  0  0  0  0  0  0  0  0
  144.0820  132.6007  149.1505 C   0  0  0  0  0  0  0  0  0  0  0  0
  143.9247  134.0510  149.3970 N   0  3  0  0  0  0  0  0  0  0  0  0
  144.1679  134.4272  150.8072 C   0  0  0  0  0  0  0  0  0  0  0  0
  146.8260  135.2419  152.9374 N   0  0  0  0  0  0  0  0  0  0  0  0
  150.2386  138.2189  154.3328 H   0  0  0  0  0  0  0  0  0  0  0  0
  150.1553  137.2925  155.8351 H   0  0  0  0  0  0  0  0  0  0  0  0
  149.0410  138.6427  155.5606 H   0  0  0  0  0  0  0  0  0  0  0  0
  148.6653  136.7971  153.4508 H   0  0  0  0  0  0  0  0  0  0  0  0
  145.5132  134.4276  155.8834 H   0  0  0  0  0  0  0  0  0  0  0  0
  144.3759  133.2199  153.7260 H   0  0  0  0  0  0  0  0  0  0  0  0
  146.3070  134.5335  150.6395 H   0  0  0  0  0  0  0  0  0  0  0  0
  146.8080  132.1996  151.2733 H   0  0  0  0  0  0  0  0  0  0  0  0
  145.1302  131.9089  151.6722 H   0  0  0  0  0  0  0  0  0  0  0  0
  146.2335  132.5889  148.9069 H   0  0  0  0  0  0  0  0  0  0  0  0
  145.5759  131.0504  149.4116 H   0  0  0  0  0  0  0  0  0  0  0  0
  143.9043  132.3971  148.0942 H   0  0  0  0  0  0  0  0  0  0  0  0
  143.3218  132.0571  149.7129 H   0  0  0  0  0  0  0  0  0  0  0  0
  144.5814  134.5496  148.8135 H   0  0  0  0  0  0  0  0  0  0  0  0
  143.4039  133.9622  151.4319 H   0  0  0  0  0  0  0  0  0  0  0  0
  144.0489  135.5063  150.9095 H   0  0  0  0  0  0  0  0  0  0  0  0
  142.9872  134.3269  149.1415 H   0  0  0  0  0  0  0  0  0  0  0  0
  1  2  1  0  0  0  0
  1 16  1  0  0  0  0
  1 17  1  0  0  0  0
  1 18  1  0  0  0  0
  2  3  1  0  0  0  0
  2 19  1  0  0  0  0
  3  4  2  0  0  0  0
  3  5  1  0  0  0  0
  5 15  2  0  0  0  0
  5  6  1  0  0  0  0
  6  7  2  0  0  0  0
  6 20  1  0  0  0  0
  7  8  1  0  0  0  0
  7 21  1  0  0  0  0
  8  9  1  0  0  0  0
  8 15  1  0  0  0  0
  9 14  1  0  0  0  0
  9 10  1  0  0  0  0
  9 22  1  0  0  0  0
 10 11  1  0  0  0  0
 10 23  1  0  0  0  0
 10 24  1  0  0  0  0
 11 12  1  0  0  0  0
 11 25  1  0  0  0  0
 11 26  1  0  0  0  0
 12 13  1  0  0  0  0
 12 27  1  0  0  0  0
 12 28  1  0  0  0  0
 13 14  1  0  0  0  0
 13 29  1  0  0  0  0
 13 32  1  0  0  0  0
 14 30  1  0  0  0  0
 14 31  1  0  0  0  0
M  CHG  1  13   1
M  END
> <s_m_source_file>
AV-unprocessed.smi

> <i_m_source_file_index>
2757

> <i_lp_mmshare_version>
43012

> <i_f3d_flags>
0

> <s_epik_input>
W0NIM11bTkhdQyg9TyljMVtjSF1bY0hdbihuMSlbQ0BASF0yW0NIMl1bQ0gyXVtDSDJdW05IXVtDSDJdMg==

> <s_epik_cmdline>
J2VwaWtfcHl0aG9uJywgJy1waCcsICc3LjAnLCAnLXRuJywgJzgnLCAnLW1hJywgJzIwMCcsICctbWV0YWxfYmluZGluZycsICctaW1hZScsICc8aW5maWxlLm1hZT4nLCAnLW9tYWUnLCAnPG91dGZpbGUubWFlPic=

> <r_lp_tautomer_probability>
1

> <r_epik_Ionization_Penalty>
0.000652722

> <r_epik_Ionization_Penalty_Charging>
0.000651447

> <r_epik_Ionization_Penalty_Neutral>
1.27533e-06

> <r_epik_State_Penalty>
0.000412577

> <r_epik_Charging_Adjusted_Penalty>
0.00106402

> <i_epik_Tot_Q>
1

> <i_epik_Tot_abs_Q>
1

> <r_epik_Metal_State_Penalty>
-0

> <b_epik_Metal_Only>
0

> <s_lp_Force_Field>
OPLS_2005

> <r_lp_Energy>
20.0976

> <b_lp_Chiralities_Consistent>
1

> <s_lp_Variant>
AV-unprocessed.smi:2757-2

> <Gold.Version>
5.8.1

> <Gold.Id.Protein>
6NUR|6NUR_protein|mol2

> <Gold.PLP.Fitness>
33.8529

> <Gold.PLP.PLP>
-18.8616

> <Gold.PLP.part.hbond>
-3.0000

> <Gold.PLP.part.metal>
0.0000

> <Gold.PLP.part.buried>
-4.7929

> <Gold.PLP.part.nonpolar>
-15.5085

> <Gold.PLP.part.repulsive>
3.6386

> <Gold.PLP.ligand.clash>
0.0000

> <Gold.PLP.ligand.torsion>
0.0130

> <Gold.PLP.Chemscore.Hbond>
4.0000

> <Gold.PLP.Chemscore.CHOScore>
0.9995

> <Gold.PLP.Chemscore.Metal>
0.0000

> <Gold.Chemscore.Hbonds>
donor molecule, donor type, donor heavy atom, donor atom, acceptor molecule, acceptor atom, score
      L1  H     2    19       P1  7948  1.00
      L1  H    13    29       P1  7921  1.00
      L1  H    13    32       P1 10186  2.00
      L1  C     7    21       P1 10957  1.00

> <Gold.PLP.Chemscore.Internal.Correction>
0.0189

> <Gold.Rescore>
     Score         DG    S(hbond)    S(metal)    S(lipo)     H(rot)  DE(clash)    DE(int)     intcor
     17.11     -18.67       2.87        0.00      52.59       1.00       1.52       0.04       ----

> <Gold.Chemscore.Fitness>
17.1079

> <Gold.Chemscore.DG>
-18.6677

> <Gold.Chemscore.ZeroCoef>
-5.4800

> <Gold.Chemscore.Hbond>
2.8725

> <Gold.Chemscore.Metal>
0.0000

> <Gold.Chemscore.Lipo>
52.5929

> <Gold.Chemscore.Internal_Hbond>
0.0000

> <Gold.Chemscore.DEClash>
1.5161

> <Gold.Chemscore.DEInternal>
0.0437

> <Gold.Chemscore.Rot>
1.0000

> <Gold.Chemscore.Internal.Correction>
   9.000000E+99

> <Gold.Chemscore.Hbonds>
donor molecule, donor type, donor heavy atom, donor atom, acceptor molecule, acceptor atom, score
      L1  H     2    19       P1  7948  1.00
      L1  H    13    29       P1  7921  0.98
      L1  H    13    32       P1 10186  0.91

> <Gold.Chemscore.Hbond.Weighted>
-9.5943

> <Gold.Chemscore.Metal.Weighted>
-0.0000

> <Gold.Chemscore.Lipo.Weighted>
-6.1534

> <Gold.Chemscore.Internal_Hbond.Weighted>
0.0000

> <Gold.Chemscore.DEClash.Weighted>
1.5161

> <Gold.Chemscore.DEInternal.Weighted>
0.0437

> <Gold.Chemscore.Rot.Weighted>
2.5600

> <Gold.Chemscore.Internal.Correction.Weighted>
   9.000000E+99

> <Gold.Protein.RotatedTorsions>
[ 6907 6896 6895 6894 ] final -151.74 input  -60.11 | X-H torsion
[ 7974 7965 7964 7962 ] final -169.80 input  175.53 | X-H torsion
[ 8008 7997 7996 7995 ] final   31.55 input   59.86 | X-H torsion
[ 10167 10162 10161 10158 ] final -136.80 input  -65.29 | X-H torsion
[ 10718 10713 10712 10709 ] final -158.89 input   66.30 | X-H torsion
[ 10763 10752 10751 10750 ] final   67.34 input  -60.55 | X-H torsion
[ 11005 11000 10999 10996 ] final  -45.00 input  -57.11 | X-H torsion

> <Gold.Protein.ActiveResidues>
 VAL166  LYS551  ARG553  GLY616  TRP617  ASP618  TYR619  PRO620  LYS621  CYS622 
 ASP623  PHE694  ASN695  SER759  ASP760  ASP761  ALA762  ILE779  LEU786  VAL792 
 PHE793  MET794  SER795  GLU796  ALA797  LYS798  CYS799  TRP800  GLU811  SER814 

> <Gold.Protein.RotatedAtoms>
  151.2176  133.4521  159.2599 H   0  0  0  0  0  0  0  0  0  0  0  0  # atno 6907 bound_to 6896
  151.0916  134.9919  159.8415 H   0  0  0  0  0  0  0  0  0  0  0  0  # atno 6908 bound_to 6896
  152.5435  134.2109  159.8802 H   0  0  0  0  0  0  0  0  0  0  0  0  # atno 6909 bound_to 6896
  144.7179  140.2167  143.6321 H   0  0  0  0  0  0  0  0  0  0  0  0  # atno 7974 bound_to 7965
  155.1081  140.3236  155.4529 H   0  0  0  0  0  0  0  0  0  0  0  0  # atno 8008 bound_to 7997
  156.2698  140.2049  156.6154 H   0  0  0  0  0  0  0  0  0  0  0  0  # atno 8009 bound_to 7997
  154.6777  140.0529  157.0220 H   0  0  0  0  0  0  0  0  0  0  0  0  # atno 8010 bound_to 7997
  139.8641  143.7040  152.2647 H   0  0  0  0  0  0  0  0  0  0  0  0  # atno 10167 bound_to 10162
  156.5604  130.8644  151.2808 H   0  0  0  0  0  0  0  0  0  0  0  0  # atno 10718 bound_to 10713
  153.0181  135.5288  154.6963 H   0  0  0  0  0  0  0  0  0  0  0  0  # atno 10763 bound_to 10752
  154.6084  135.2875  155.0461 H   0  0  0  0  0  0  0  0  0  0  0  0  # atno 10764 bound_to 10752
  154.1492  135.6566  153.5012 H   0  0  0  0  0  0  0  0  0  0  0  0  # atno 10765 bound_to 10752
  141.0487  133.6751  156.2951 H   0  0  0  0  0  0  0  0  0  0  0  0  # atno 11005 bound_to 11000
  145.8540  139.2189  143.1755 LP  0  0  0  0  0  0  0  0  0  0  0  0  # atno 17320 bound_to 7965
  146.0234  140.8326  142.9912 LP  0  0  0  0  0  0  0  0  0  0  0  0  # atno 17321 bound_to 7965
  139.7345  144.7574  151.0748 LP  0  0  0  0  0  0  0  0  0  0  0  0  # atno 17342 bound_to 10162
  140.7771  143.5047  150.9727 LP  0  0  0  0  0  0  0  0  0  0  0  0  # atno 17343 bound_to 10162
  157.7369  130.9787  150.2165 LP  0  0  0  0  0  0  0  0  0  0  0  0  # atno 17370 bound_to 10713
  156.2804  130.3732  149.7941 LP  0  0  0  0  0  0  0  0  0  0  0  0  # atno 17371 bound_to 10713
  140.6097  134.5471  157.5531 LP  0  0  0  0  0  0  0  0  0  0  0  0  # atno 17394 bound_to 11000
  139.9332  134.7923  156.0872 LP  0  0  0  0  0  0  0  0  0  0  0  0  # atno 17395 bound_to 11000

$$$$
