AV-unprocessed.smi:1028|AV-procd|sdf|4473|dock4
  -GOLD-   22720 2453D 1   1.00000     0.00000
 Structure written by MMmdl.
 43 44  0  0  0  0  0  0  0  0  1 V2000
  145.5881  131.8440  151.4997 C   0  0  0  0  0  0  0  0  0  0  0  0
  144.6808  132.8720  150.7953 C   0  0  0  0  0  0  0  0  0  0  0  0
  144.7729  132.6917  149.2675 C   0  0  0  0  0  0  0  0  0  0  0  0
  143.2237  132.5919  151.2213 C   0  0  0  0  0  0  0  0  0  0  0  0
  145.1026  134.2777  151.1756 C   0  0  0  0  0  0  0  0  0  0  0  0
  145.4886  135.3037  150.3433 C   0  0  0  0  0  0  0  0  0  0  0  0
  145.8756  136.7586  151.2202 S   0  0  0  0  0  0  0  0  0  0  0  0
  145.5146  135.9134  152.7171 C   0  0  0  0  0  0  0  0  0  0  0  0
  145.5819  136.5592  154.0599 C   0  0  0  0  0  0  0  0  0  0  0  0
  146.9324  136.3237  154.7540 C   0  0  0  0  0  0  0  0  0  0  0  0
  147.9876  137.1406  154.1662 N   0  0  0  0  0  0  0  0  0  0  0  0
  148.3764  138.3420  154.6204 C   0  0  0  0  0  0  0  0  0  0  0  0
  147.8686  138.8877  155.6008 O   0  0  0  0  0  0  0  0  0  0  0  0
  149.5088  139.0332  153.8433 C   0  0  0  0  0  0  0  0  0  0  0  0
  150.8537  138.2833  153.9907 C   0  0  0  0  0  0  0  0  0  0  0  0
  151.8515  139.2729  154.6044 C   0  0  0  0  0  0  0  0  0  0  0  0
  150.9938  140.3353  155.2845 C   0  0  0  0  0  0  0  0  0  0  0  0
  149.7756  140.4568  154.3709 C   0  0  0  0  0  0  0  0  0  0  0  0
  145.1205  134.6525  152.5259 N   0  0  0  0  0  0  0  0  0  0  0  0
  145.2943  130.8222  151.2570 H   0  0  0  0  0  0  0  0  0  0  0  0
  145.5408  131.9511  152.5840 H   0  0  0  0  0  0  0  0  0  0  0  0
  146.6314  131.9593  151.2040 H   0  0  0  0  0  0  0  0  0  0  0  0
  145.7921  132.8329  148.9066 H   0  0  0  0  0  0  0  0  0  0  0  0
  144.1382  133.4085  148.7452 H   0  0  0  0  0  0  0  0  0  0  0  0
  144.4591  131.6921  148.9651 H   0  0  0  0  0  0  0  0  0  0  0  0
  142.9193  131.5802  150.9507 H   0  0  0  0  0  0  0  0  0  0  0  0
  142.5260  133.2782  150.7401 H   0  0  0  0  0  0  0  0  0  0  0  0
  143.0957  132.6897  152.3000 H   0  0  0  0  0  0  0  0  0  0  0  0
  145.5655  135.2991  149.2662 H   0  0  0  0  0  0  0  0  0  0  0  0
  145.3994  137.6283  153.9441 H   0  0  0  0  0  0  0  0  0  0  0  0
  144.7675  136.1680  154.6707 H   0  0  0  0  0  0  0  0  0  0  0  0
  146.8532  136.5242  155.8238 H   0  0  0  0  0  0  0  0  0  0  0  0
  147.2220  135.2771  154.6553 H   0  0  0  0  0  0  0  0  0  0  0  0
  148.4572  136.7650  153.3552 H   0  0  0  0  0  0  0  0  0  0  0  0
  149.2307  139.0916  152.7894 H   0  0  0  0  0  0  0  0  0  0  0  0
  150.7619  137.4089  154.6376 H   0  0  0  0  0  0  0  0  0  0  0  0
  151.2131  137.9195  153.0274 H   0  0  0  0  0  0  0  0  0  0  0  0
  152.5473  138.7930  155.2932 H   0  0  0  0  0  0  0  0  0  0  0  0
  152.4399  139.7357  153.8109 H   0  0  0  0  0  0  0  0  0  0  0  0
  150.6859  139.9880  156.2716 H   0  0  0  0  0  0  0  0  0  0  0  0
  151.5195  141.2822  155.4116 H   0  0  0  0  0  0  0  0  0  0  0  0
  150.0118  141.1147  153.5335 H   0  0  0  0  0  0  0  0  0  0  0  0
  148.9226  140.8971  154.8904 H   0  0  0  0  0  0  0  0  0  0  0  0
  1  2  1  0  0  0  0
  1 20  1  0  0  0  0
  1 21  1  0  0  0  0
  1 22  1  0  0  0  0
  2  3  1  0  0  0  0
  2  4  1  0  0  0  0
  2  5  1  0  0  0  0
  3 23  1  0  0  0  0
  3 24  1  0  0  0  0
  3 25  1  0  0  0  0
  4 26  1  0  0  0  0
  4 27  1  0  0  0  0
  4 28  1  0  0  0  0
  5 19  1  0  0  0  0
  5  6  2  0  0  0  0
  6  7  1  0  0  0  0
  6 29  1  0  0  0  0
  7  8  1  0  0  0  0
  8  9  1  0  0  0  0
  8 19  2  0  0  0  0
  9 10  1  0  0  0  0
  9 30  1  0  0  0  0
  9 31  1  0  0  0  0
 10 11  1  0  0  0  0
 10 32  1  0  0  0  0
 10 33  1  0  0  0  0
 11 12  1  0  0  0  0
 11 34  1  0  0  0  0
 12 13  2  0  0  0  0
 12 14  1  0  0  0  0
 14 18  1  0  0  0  0
 14 15  1  0  0  0  0
 14 35  1  0  0  0  0
 15 16  1  0  0  0  0
 15 36  1  0  0  0  0
 15 37  1  0  0  0  0
 16 17  1  0  0  0  0
 16 38  1  0  0  0  0
 16 39  1  0  0  0  0
 17 18  1  0  0  0  0
 17 40  1  0  0  0  0
 17 41  1  0  0  0  0
 18 42  1  0  0  0  0
 18 43  1  0  0  0  0
M  END
> <s_m_source_file>
AV-unprocessed.smi

> <i_m_source_file_index>
1028

> <i_lp_mmshare_version>
43012

> <i_f3d_flags>
0

> <s_epik_input>
W0NIM11DKFtDSDNdKShbQ0gzXSljMVtjSF1zYyhuMSlbQ0gyXVtDSDJdW05IXUMoPU8pW0NIXTJbQ0gyXVtDSDJdW0NIMl1bQ0gyXTI=

> <s_epik_cmdline>
J2VwaWtfcHl0aG9uJywgJy1waCcsICc3LjAnLCAnLXRuJywgJzgnLCAnLW1hJywgJzIwMCcsICctbWV0YWxfYmluZGluZycsICctaW1hZScsICc8aW5maWxlLm1hZT4nLCAnLW9tYWUnLCAnPG91dGZpbGUubWFlPic=

> <r_epik_Ionization_Penalty>
0.000842107

> <r_epik_Ionization_Penalty_Charging>
0

> <r_epik_Ionization_Penalty_Neutral>
0.000842107

> <r_epik_State_Penalty>
0.000542609

> <r_epik_Charging_Adjusted_Penalty>
0.000542609

> <i_epik_Tot_Q>
0

> <i_epik_Tot_abs_Q>
0

> <r_epik_Metal_State_Penalty>
-0

> <b_epik_Metal_Only>
0

> <s_lp_Force_Field>
OPLS_2005

> <r_lp_Energy>
10.9616

> <b_lp_Chiralities_Consistent>
1

> <s_lp_Variant>
AV-unprocessed.smi:1028-1

> <Gold.Version>
5.8.1

> <Gold.Id.Protein>
6NUR|6NUR_protein|mol2

> <Gold.PLP.Fitness>
37.4702

> <Gold.PLP.PLP>
-32.8259

> <Gold.PLP.part.hbond>
-1.0000

> <Gold.PLP.part.metal>
0.0000

> <Gold.PLP.part.buried>
0.2363

> <Gold.PLP.part.nonpolar>
-32.2447

> <Gold.PLP.part.repulsive>
0.0881

> <Gold.PLP.ligand.clash>
0.0000

> <Gold.PLP.ligand.torsion>
0.6858

> <Gold.PLP.Chemscore.Hbond>
1.0000

> <Gold.PLP.Chemscore.CHOScore>
1.0000

> <Gold.PLP.Chemscore.Metal>
0.0000

> <Gold.Chemscore.Hbonds>
donor molecule, donor type, donor heavy atom, donor atom, acceptor molecule, acceptor atom, score
      L1  H    11    34       P1  7948  1.00
      L1  C     6    29       P1  7921  0.39

> <Gold.PLP.Chemscore.Internal.Correction>
0.0158

> <Gold.Rescore>
     Score         DG    S(hbond)    S(metal)    S(lipo)     H(rot)  DE(clash)    DE(int)     intcor
     15.35     -16.16       1.00        0.00      93.87       1.42       0.03       0.78       ----

> <Gold.Chemscore.Fitness>
15.3507

> <Gold.Chemscore.DG>
-16.1612

> <Gold.Chemscore.ZeroCoef>
-5.4800

> <Gold.Chemscore.Hbond>
0.9999

> <Gold.Chemscore.Metal>
0.0000

> <Gold.Chemscore.Lipo>
93.8743

> <Gold.Chemscore.Internal_Hbond>
0.0000

> <Gold.Chemscore.DEClash>
0.0291

> <Gold.Chemscore.DEInternal>
0.7814

> <Gold.Chemscore.Rot>
1.4226

> <Gold.Chemscore.Internal.Correction>
   9.000000E+99

> <Gold.Chemscore.Hbonds>
donor molecule, donor type, donor heavy atom, donor atom, acceptor molecule, acceptor atom, score
      L1  H    11    34       P1  7948  1.00

> <Gold.Chemscore.Hbond.Weighted>
-3.3398

> <Gold.Chemscore.Metal.Weighted>
-0.0000

> <Gold.Chemscore.Lipo.Weighted>
-10.9833

> <Gold.Chemscore.Internal_Hbond.Weighted>
0.0000

> <Gold.Chemscore.DEClash.Weighted>
0.0291

> <Gold.Chemscore.DEInternal.Weighted>
0.7814

> <Gold.Chemscore.Rot.Weighted>
3.6419

> <Gold.Chemscore.Internal.Correction.Weighted>
   9.000000E+99

> <Gold.Protein.RotatedTorsions>
[ 6907 6896 6895 6894 ] final -111.29 input  -60.11 | X-H torsion
[ 7974 7965 7964 7962 ] final  118.36 input  175.53 | X-H torsion
[ 8008 7997 7996 7995 ] final  -39.53 input   59.86 | X-H torsion
[ 10167 10162 10161 10158 ] final  120.14 input  -65.29 | X-H torsion
[ 10718 10713 10712 10709 ] final  169.95 input   66.30 | X-H torsion
[ 10763 10752 10751 10750 ] final   98.09 input  -60.55 | X-H torsion
[ 11005 11000 10999 10996 ] final   73.18 input  -57.11 | X-H torsion

> <Gold.Protein.ActiveResidues>
 VAL166  LYS551  ARG553  GLY616  TRP617  ASP618  TYR619  PRO620  LYS621  CYS622 
 ASP623  PHE694  ASN695  SER759  ASP760  ASP761  ALA762  ILE779  LEU786  VAL792 
 PHE793  MET794  SER795  GLU796  ALA797  LYS798  CYS799  TRP800  GLU811  SER814 

> <Gold.Protein.RotatedAtoms>
  150.7681  133.9256  159.3411 H   0  0  0  0  0  0  0  0  0  0  0  0  # atno 6907 bound_to 6896
  151.7150  135.0903  160.0283 H   0  0  0  0  0  0  0  0  0  0  0  0  # atno 6908 bound_to 6896
  152.3686  133.6351  159.6105 H   0  0  0  0  0  0  0  0  0  0  0  0  # atno 6909 bound_to 6896
  145.1561  139.3182  143.4541 H   0  0  0  0  0  0  0  0  0  0  0  0  # atno 7974 bound_to 7965
  154.4022  140.1549  156.2878 H   0  0  0  0  0  0  0  0  0  0  0  0  # atno 8008 bound_to 7997
  155.8812  140.3443  155.5867 H   0  0  0  0  0  0  0  0  0  0  0  0  # atno 8009 bound_to 7997
  155.7664  140.0824  157.2120 H   0  0  0  0  0  0  0  0  0  0  0  0  # atno 8010 bound_to 7997
  139.6001  144.7054  151.3083 H   0  0  0  0  0  0  0  0  0  0  0  0  # atno 10167 bound_to 10162
  157.0152  131.0216  151.2791 H   0  0  0  0  0  0  0  0  0  0  0  0  # atno 10718 bound_to 10713
  153.2849  135.4160  155.1113 H   0  0  0  0  0  0  0  0  0  0  0  0  # atno 10763 bound_to 10752
  154.8501  135.3504  154.6061 H   0  0  0  0  0  0  0  0  0  0  0  0  # atno 10764 bound_to 10752
  153.6483  135.7054  153.5275 H   0  0  0  0  0  0  0  0  0  0  0  0  # atno 10765 bound_to 10752
  139.9453  134.7325  156.0996 H   0  0  0  0  0  0  0  0  0  0  0  0  # atno 11005 bound_to 11000
  146.3488  140.1654  142.8590 LP  0  0  0  0  0  0  0  0  0  0  0  0  # atno 17320 bound_to 7965
  145.0379  140.8923  143.5070 LP  0  0  0  0  0  0  0  0  0  0  0  0  # atno 17321 bound_to 7965
  140.7243  143.7048  150.7816 LP  0  0  0  0  0  0  0  0  0  0  0  0  # atno 17342 bound_to 10162
  140.0623  143.5142  152.2621 LP  0  0  0  0  0  0  0  0  0  0  0  0  # atno 17343 bound_to 10162
  157.5290  130.8046  149.7895 LP  0  0  0  0  0  0  0  0  0  0  0  0  # atno 17370 bound_to 10713
  156.0121  130.3828  150.2229 LP  0  0  0  0  0  0  0  0  0  0  0  0  # atno 17371 bound_to 10713
  141.1101  133.6646  156.2958 LP  0  0  0  0  0  0  0  0  0  0  0  0  # atno 17394 bound_to 11000
  140.5851  134.5707  157.5488 LP  0  0  0  0  0  0  0  0  0  0  0  0  # atno 17395 bound_to 11000

$$$$
