AV-unprocessed.smi:1929|AV-procd|sdf|7806|dock1
  -GOLD-   22720 9543D 1   1.00000     0.00000
 Structure written by MMmdl.
 42 43  0  0  0  0  0  0  0  0  3 V2000
  143.8234  146.1733  155.5086 C   0  0  0  0  0  0  0  0  0  0  0  0
  143.7872  144.7684  155.1192 N   0  5  0  0  0  0  0  0  0  0  0  0
  144.4271  143.7827  155.8040 C   0  0  0  0  0  0  0  0  0  0  0  0
  145.2362  143.8421  156.7357 O   0  0  0  0  0  0  0  0  0  0  0  0
  144.0517  142.3996  155.2595 C   0  0  0  0  0  0  0  0  0  0  0  0
  145.2412  141.7344  154.6708 N   0  3  2  0  0  0  0  0  0  0  0  0
  146.0614  141.0025  155.6742 C   0  0  0  0  0  0  0  0  0  0  0  0
  147.2109  140.2337  154.9999 C   0  0  0  0  0  0  0  0  0  0  0  0
  148.1017  141.1602  154.1495 C   0  0  2  0  0  0  0  0  0  0  0  0
  148.8844  142.0738  154.9820 N   0  0  0  0  0  0  0  0  0  0  0  0
  149.8108  141.7053  155.8791 C   0  0  0  0  0  0  0  0  0  0  0  0
  150.1159  140.5324  156.0926 O   0  0  0  0  0  0  0  0  0  0  0  0
  150.3260  142.7747  156.5102 N   0  0  0  0  0  0  0  0  0  0  0  0
  151.3008  142.8150  157.5442 C   0  0  0  0  0  0  0  0  0  0  0  0
  151.6587  141.5947  158.1537 C   0  0  0  0  0  0  0  0  0  0  0  0
  152.6125  141.6071  159.1910 C   0  0  0  0  0  0  0  0  0  0  0  0
  153.2016  142.7338  159.6433 N   0  0  0  0  0  0  0  0  0  0  0  0
  152.8477  143.9027  159.0685 C   0  0  0  0  0  0  0  0  0  0  0  0
  151.9056  144.0015  158.0249 C   0  0  0  0  0  0  0  0  0  0  0  0
  147.2244  141.9485  153.1620 C   0  0  0  0  0  0  0  0  0  0  0  0
  146.0655  142.6750  153.8697 C   0  0  0  0  0  0  0  0  0  0  0  0
  143.3410  146.8110  154.7678 H   0  0  0  0  0  0  0  0  0  0  0  0
  144.8410  146.5493  155.6219 H   0  0  0  0  0  0  0  0  0  0  0  0
  143.3121  146.3550  156.4545 H   0  0  0  0  0  0  0  0  0  0  0  0
  143.6824  141.8183  156.1054 H   0  0  0  0  0  0  0  0  0  0  0  0
  143.2362  142.4365  154.5334 H   0  0  0  0  0  0  0  0  0  0  0  0
  146.4549  141.7064  156.4090 H   0  0  0  0  0  0  0  0  0  0  0  0
  145.4434  140.2923  156.2235 H   0  0  0  0  0  0  0  0  0  0  0  0
  147.8032  139.7128  155.7528 H   0  0  0  0  0  0  0  0  0  0  0  0
  146.7903  139.4566  154.3604 H   0  0  0  0  0  0  0  0  0  0  0  0
  148.7984  140.5493  153.5722 H   0  0  0  0  0  0  0  0  0  0  0  0
  148.6998  143.0600  154.8719 H   0  0  0  0  0  0  0  0  0  0  0  0
  149.9214  143.6671  156.2683 H   0  0  0  0  0  0  0  0  0  0  0  0
  151.2177  140.6624  157.8328 H   0  0  0  0  0  0  0  0  0  0  0  0
  152.9090  140.6861  159.6711 H   0  0  0  0  0  0  0  0  0  0  0  0
  153.3259  144.7900  159.4563 H   0  0  0  0  0  0  0  0  0  0  0  0
  151.6628  144.9756  157.6302 H   0  0  0  0  0  0  0  0  0  0  0  0
  147.8306  142.6636  152.6041 H   0  0  0  0  0  0  0  0  0  0  0  0
  146.8123  141.2603  152.4227 H   0  0  0  0  0  0  0  0  0  0  0  0
  145.4413  143.1616  153.1191 H   0  0  0  0  0  0  0  0  0  0  0  0
  146.4504  143.4634  154.5182 H   0  0  0  0  0  0  0  0  0  0  0  0
  144.8819  141.0455  154.0253 H   0  0  0  0  0  0  0  0  0  0  0  0
  1  2  1  0  0  0  0
  1 22  1  0  0  0  0
  1 23  1  0  0  0  0
  1 24  1  0  0  0  0
  2  3  1  0  0  0  0
  3  4  2  0  0  0  0
  3  5  1  0  0  0  0
  5  6  1  0  0  0  0
  5 25  1  0  0  0  0
  5 26  1  0  0  0  0
  6 21  1  0  0  0  0
  6  7  1  0  0  0  0
  6 42  1  0  0  0  0
  7  8  1  0  0  0  0
  7 27  1  0  0  0  0
  7 28  1  0  0  0  0
  8  9  1  0  0  0  0
  8 29  1  0  0  0  0
  8 30  1  0  0  0  0
  9 10  1  0  0  0  0
  9 20  1  0  0  0  0
  9 31  1  0  0  0  0
 10 11  1  0  0  0  0
 10 32  1  0  0  0  0
 11 12  2  0  0  0  0
 11 13  1  0  0  0  0
 13 14  1  0  0  0  0
 13 33  1  0  0  0  0
 14 19  1  0  0  0  0
 14 15  2  0  0  0  0
 15 16  1  0  0  0  0
 15 34  1  0  0  0  0
 16 17  2  0  0  0  0
 16 35  1  0  0  0  0
 17 18  1  0  0  0  0
 18 19  2  0  0  0  0
 18 36  1  0  0  0  0
 19 37  1  0  0  0  0
 20 21  1  0  0  0  0
 20 38  1  0  0  0  0
 20 39  1  0  0  0  0
 21 40  1  0  0  0  0
 21 41  1  0  0  0  0
M  CHG  1   2  -1
M  CHG  1   6   1
M  END
> <s_m_source_file>
AV-unprocessed.smi

> <i_m_source_file_index>
1929

> <i_lp_mmshare_version>
43012

> <i_f3d_flags>
0

> <s_epik_input>
W0NIM11bTkhdQyg9TylbQ0gyXU4xW0NIMl1bQ0gyXVtDSF0oW0NIMl1bQ0gyXTEpW05IXUMoPU8pW05IXWMyW2NIXVtjSF1uW2NIXVtjSF0y

> <s_epik_cmdline>
J2VwaWtfcHl0aG9uJywgJy1waCcsICc3LjAnLCAnLXRuJywgJzgnLCAnLW1hJywgJzIwMCcsICctbWV0YWxfYmluZGluZycsICctaW1hZScsICc8aW5maWxlLm1hZT4nLCAnLW9tYWUnLCAnPG91dGZpbGUubWFlPic=

> <r_epik_Ionization_Penalty>
6.23856

> <r_epik_Ionization_Penalty_Charging>
6.13946

> <r_epik_Ionization_Penalty_Neutral>
0.0990993

> <r_epik_State_Penalty>
7.04382

> <r_epik_Charging_Adjusted_Penalty>
13.1833

> <i_epik_Tot_Q>
0

> <i_epik_Tot_abs_Q>
2

> <r_epik_Metal_State_Penalty>
3.07449

> <b_epik_Metal_Only>
1

> <s_lp_Force_Field>
OPLS_2005

> <r_lp_Energy>
14.5033

> <b_lp_Chiralities_Consistent>
1

> <s_lp_Variant>
AV-unprocessed.smi:1929-8

> <Gold.Version>
5.8.1

> <Gold.Id.Protein>
6NUR|6NUR_protein|mol2

> <Gold.PLP.Fitness>
46.7564

> <Gold.PLP.PLP>
-35.5438

> <Gold.PLP.part.hbond>
-3.0000

> <Gold.PLP.part.metal>
0.0000

> <Gold.PLP.part.buried>
-7.3504

> <Gold.PLP.part.nonpolar>
-26.3699

> <Gold.PLP.part.repulsive>
0.5198

> <Gold.PLP.ligand.clash>
0.0000

> <Gold.PLP.ligand.torsion>
0.2886

> <Gold.PLP.Chemscore.Hbond>
3.9105

> <Gold.PLP.Chemscore.CHOScore>
0.0000

> <Gold.PLP.Chemscore.Metal>
0.0000

> <Gold.Chemscore.Hbonds>
donor molecule, donor type, donor heavy atom, donor atom, acceptor molecule, acceptor atom, score
      L1  H     6    42       P1 10175  2.00
      L1  H    10    32       P1  8028  0.91
      L1  H    13    33       P1  8028  1.00

> <Gold.PLP.Chemscore.Internal.Correction>
0.0582

> <Gold.Rescore>
     Score         DG    S(hbond)    S(metal)    S(lipo)     H(rot)  DE(clash)    DE(int)     intcor
     17.83     -21.10       2.73        0.00      91.20       1.63       1.48       1.79       ----

> <Gold.Chemscore.Fitness>
17.8290

> <Gold.Chemscore.DG>
-21.0982

> <Gold.Chemscore.ZeroCoef>
-5.4800

> <Gold.Chemscore.Hbond>
2.7323

> <Gold.Chemscore.Metal>
0.0000

> <Gold.Chemscore.Lipo>
91.2037

> <Gold.Chemscore.Internal_Hbond>
0.0000

> <Gold.Chemscore.DEClash>
1.4803

> <Gold.Chemscore.DEInternal>
1.7890

> <Gold.Chemscore.Rot>
1.6323

> <Gold.Chemscore.Internal.Correction>
   9.000000E+99

> <Gold.Chemscore.Hbonds>
donor molecule, donor type, donor heavy atom, donor atom, acceptor molecule, acceptor atom, score
      L1  H     6    42       P1 10175  0.73
      L1  H    10    32       P1  8028  0.90
      L1  H    13    33       P1  8028  0.98

> <Gold.Chemscore.Hbond.Weighted>
-9.1259

> <Gold.Chemscore.Metal.Weighted>
-0.0000

> <Gold.Chemscore.Lipo.Weighted>
-10.6708

> <Gold.Chemscore.Internal_Hbond.Weighted>
0.0000

> <Gold.Chemscore.DEClash.Weighted>
1.4803

> <Gold.Chemscore.DEInternal.Weighted>
1.7890

> <Gold.Chemscore.Rot.Weighted>
4.1786

> <Gold.Chemscore.Internal.Correction.Weighted>
   9.000000E+99

> <Gold.Protein.RotatedTorsions>
[ 6907 6896 6895 6894 ] final  162.83 input  -60.11 | X-H torsion
[ 7974 7965 7964 7962 ] final   68.46 input  175.53 | X-H torsion
[ 8008 7997 7996 7995 ] final -157.28 input   59.86 | X-H torsion
[ 10167 10162 10161 10158 ] final  157.38 input  -65.29 | X-H torsion
[ 10718 10713 10712 10709 ] final  138.19 input   66.30 | X-H torsion
[ 10763 10752 10751 10750 ] final  131.99 input  -60.55 | X-H torsion
[ 11005 11000 10999 10996 ] final  -39.19 input  -57.11 | X-H torsion

> <Gold.Protein.ActiveResidues>
 VAL166  LYS551  ARG553  GLY616  TRP617  ASP618  TYR619  PRO620  LYS621  CYS622 
 ASP623  PHE694  ASN695  SER759  ASP760  ASP761  ALA762  ILE779  LEU786  VAL792 
 PHE793  MET794  SER795  GLU796  ALA797  LYS798  CYS799  TRP800  GLU811  SER814 

> <Gold.Protein.RotatedAtoms>
  151.9345  133.3620  159.3942 H   0  0  0  0  0  0  0  0  0  0  0  0  # atno 6907 bound_to 6896
  150.7010  134.4503  159.5342 H   0  0  0  0  0  0  0  0  0  0  0  0  # atno 6908 bound_to 6896
  152.2149  134.8467  160.0544 H   0  0  0  0  0  0  0  0  0  0  0  0  # atno 6909 bound_to 6896
  145.8024  139.2989  143.1147 H   0  0  0  0  0  0  0  0  0  0  0  0  # atno 7974 bound_to 7965
  155.7301  140.0801  157.2293 H   0  0  0  0  0  0  0  0  0  0  0  0  # atno 8008 bound_to 7997
  154.4034  140.1597  156.2553 H   0  0  0  0  0  0  0  0  0  0  0  0  # atno 8009 bound_to 7997
  155.9117  140.3403  155.6107 H   0  0  0  0  0  0  0  0  0  0  0  0  # atno 8010 bound_to 7997
  139.4823  144.4923  151.8291 H   0  0  0  0  0  0  0  0  0  0  0  0  # atno 10167 bound_to 10162
  157.4280  131.1045  151.0281 H   0  0  0  0  0  0  0  0  0  0  0  0  # atno 10718 bound_to 10713
  153.7834  135.3165  155.3369 H   0  0  0  0  0  0  0  0  0  0  0  0  # atno 10763 bound_to 10752
  154.8153  135.4640  154.0629 H   0  0  0  0  0  0  0  0  0  0  0  0  # atno 10764 bound_to 10752
  153.1924  135.6910  153.8421 H   0  0  0  0  0  0  0  0  0  0  0  0  # atno 10765 bound_to 10752
  141.0083  133.6920  156.2153 H   0  0  0  0  0  0  0  0  0  0  0  0  # atno 11005 bound_to 11000
  145.9864  140.8639  143.0088 LP  0  0  0  0  0  0  0  0  0  0  0  0  # atno 17320 bound_to 7965
  144.6767  140.2153  143.7372 LP  0  0  0  0  0  0  0  0  0  0  0  0  # atno 17321 bound_to 7965
  140.4408  144.1989  150.5891 LP  0  0  0  0  0  0  0  0  0  0  0  0  # atno 17342 bound_to 10162
  140.4685  143.2422  151.9122 LP  0  0  0  0  0  0  0  0  0  0  0  0  # atno 17343 bound_to 10162
  157.1187  130.6052  149.5500 LP  0  0  0  0  0  0  0  0  0  0  0  0  # atno 17370 bound_to 10713
  155.9903  130.4954  150.7252 LP  0  0  0  0  0  0  0  0  0  0  0  0  # atno 17371 bound_to 10713
  140.6775  134.4802  157.5588 LP  0  0  0  0  0  0  0  0  0  0  0  0  # atno 17394 bound_to 11000
  139.9076  134.8416  156.1649 LP  0  0  0  0  0  0  0  0  0  0  0  0  # atno 17395 bound_to 11000

$$$$
