AV-unprocessed.smi:3263|AV-procd|sdf|12490|dock9
  -GOLD-   2272018393D 1   1.00000     0.00000
 Structure written by MMmdl.
 42 44  0  0  0  0  0  0  0  0  2 V2000
  148.0707  143.8269  160.7021 O   0  0  0  0  0  0  0  0  0  0  0  0
  148.3859  144.9892  160.4457 C   0  0  0  0  0  0  0  0  0  0  0  0
  149.8516  145.3545  160.1973 C   0  0  0  0  0  0  0  0  0  0  0  0
  150.7917  144.1290  160.2391 C   0  0  2  0  0  0  0  0  0  0  0  0
  152.2302  144.4538  160.6960 C   0  0  0  0  0  0  0  0  0  0  0  0
  153.0964  143.7892  159.6090 C   0  0  2  0  0  0  0  0  0  0  0  0
  153.0121  144.6230  158.3174 C   0  0  0  0  0  0  0  0  0  0  0  0
  151.5884  144.3227  157.8140 C   0  0  0  0  0  0  0  0  0  0  0  0
  151.0323  143.3814  158.9024 C   0  0  1  0  0  0  0  0  0  0  0  0
  152.2711  142.5603  159.2440 C   0  0  0  0  0  0  0  0  0  0  0  0
  147.4960  145.9888  160.3494 N   0  0  0  0  0  0  0  0  0  0  0  0
  146.0528  145.8325  160.4783 C   0  0  0  0  0  0  0  0  0  0  0  0
  145.3201  146.3691  159.2369 C   0  0  0  0  0  0  0  0  0  0  0  0
  145.4410  147.8741  159.1048 C   0  0  0  0  0  0  0  0  0  0  0  0
  145.5106  148.5173  157.8499 C   0  0  0  0  0  0  0  0  0  0  0  0
  145.6255  149.9224  157.8024 C   0  0  0  0  0  0  0  0  0  0  0  0
  145.6689  150.6531  159.0082 C   0  0  0  0  0  0  0  0  0  0  0  0
  145.5964  149.9591  160.2332 C   0  0  0  0  0  0  0  0  0  0  0  0
  145.4866  148.6126  160.2375 N   0  3  0  0  0  0  0  0  0  0  0  0
  149.9477  145.8782  159.2453 H   0  0  0  0  0  0  0  0  0  0  0  0
  150.1560  146.0697  160.9620 H   0  0  0  0  0  0  0  0  0  0  0  0
  150.3719  143.4128  160.9483 H   0  0  0  0  0  0  0  0  0  0  0  0
  152.4231  145.5250  160.7688 H   0  0  0  0  0  0  0  0  0  0  0  0
  152.4277  144.0168  161.6756 H   0  0  0  0  0  0  0  0  0  0  0  0
  154.1178  143.5823  159.9295 H   0  0  0  0  0  0  0  0  0  0  0  0
  153.1738  145.6860  158.4993 H   0  0  0  0  0  0  0  0  0  0  0  0
  153.7539  144.2914  157.5897 H   0  0  0  0  0  0  0  0  0  0  0  0
  150.9911  145.2227  157.6732 H   0  0  0  0  0  0  0  0  0  0  0  0
  151.6292  143.8091  156.8525 H   0  0  0  0  0  0  0  0  0  0  0  0
  150.1780  142.7898  158.5714 H   0  0  0  0  0  0  0  0  0  0  0  0
  152.6726  142.0058  158.3940 H   0  0  0  0  0  0  0  0  0  0  0  0
  152.1219  141.8743  160.0799 H   0  0  0  0  0  0  0  0  0  0  0  0
  147.8417  146.9149  160.1425 H   0  0  0  0  0  0  0  0  0  0  0  0
  145.8072  144.7827  160.6483 H   0  0  0  0  0  0  0  0  0  0  0  0
  145.7277  146.3756  161.3663 H   0  0  0  0  0  0  0  0  0  0  0  0
  145.7167  145.8964  158.3372 H   0  0  0  0  0  0  0  0  0  0  0  0
  144.2613  146.1094  159.2768 H   0  0  0  0  0  0  0  0  0  0  0  0
  145.4771  147.9440  156.9348 H   0  0  0  0  0  0  0  0  0  0  0  0
  145.6797  150.4336  156.8524 H   0  0  0  0  0  0  0  0  0  0  0  0
  145.7564  151.7296  158.9934 H   0  0  0  0  0  0  0  0  0  0  0  0
  145.6228  150.4361  161.2021 H   0  0  0  0  0  0  0  0  0  0  0  0
  145.4360  148.1304  161.1356 H   0  0  0  0  0  0  0  0  0  0  0  0
  1  2  2  0  0  0  0
  2  3  1  0  0  0  0
  2 11  1  0  0  0  0
  3  4  1  0  0  0  0
  3 20  1  0  0  0  0
  3 21  1  0  0  0  0
  4  9  1  0  0  0  0
  4  5  1  0  0  0  0
  4 22  1  0  0  0  0
  5  6  1  0  0  0  0
  5 23  1  0  0  0  0
  5 24  1  0  0  0  0
  6 10  1  0  0  0  0
  6  7  1  0  0  0  0
  6 25  1  0  0  0  0
  7  8  1  0  0  0  0
  7 26  1  0  0  0  0
  7 27  1  0  0  0  0
  8  9  1  0  0  0  0
  8 28  1  0  0  0  0
  8 29  1  0  0  0  0
  9 10  1  0  0  0  0
  9 30  1  0  0  0  0
 10 31  1  0  0  0  0
 10 32  1  0  0  0  0
 11 12  1  0  0  0  0
 11 33  1  0  0  0  0
 12 13  1  0  0  0  0
 12 34  1  0  0  0  0
 12 35  1  0  0  0  0
 13 14  1  0  0  0  0
 13 36  1  0  0  0  0
 13 37  1  0  0  0  0
 14 19  1  0  0  0  0
 14 15  2  0  0  0  0
 15 16  1  0  0  0  0
 15 38  1  0  0  0  0
 16 17  2  0  0  0  0
 16 39  1  0  0  0  0
 17 18  1  0  0  0  0
 17 40  1  0  0  0  0
 18 19  2  0  0  0  0
 18 41  1  0  0  0  0
 19 42  1  0  0  0  0
M  CHG  1  19   1
M  END
> <s_m_source_file>
AV-unprocessed.smi

> <i_m_source_file_index>
3263

> <i_lp_mmshare_version>
43012

> <i_f3d_flags>
0

> <s_epik_input>
W0NIMl0xW0NIMl1bQ0BASF0oW0NIMl0yKVtDQEBIXShbQ0gyXVtDQEhdMTIpW0NIMl1DKD1PKVtOSF1bQ0gyXVtDSDJdYzNbY0hdW2NIXVtjSF1bY0hdbjM=

> <s_epik_cmdline>
J2VwaWtfcHl0aG9uJywgJy1waCcsICc3LjAnLCAnLXRuJywgJzgnLCAnLW1hJywgJzIwMCcsICctbWV0YWxfYmluZGluZycsICctaW1hZScsICc8aW5maWxlLm1hZT4nLCAnLW9tYWUnLCAnPG91dGZpbGUubWFlPic=

> <r_epik_Ionization_Penalty>
1.83579

> <r_epik_Ionization_Penalty_Charging>
1.83579

> <r_epik_Ionization_Penalty_Neutral>
2.47288e-08

> <r_epik_State_Penalty>
1.95213

> <r_epik_Charging_Adjusted_Penalty>
3.78793

> <i_epik_Tot_Q>
1

> <i_epik_Tot_abs_Q>
1

> <r_epik_Metal_State_Penalty>
1.97847

> <b_epik_Metal_Only>
0

> <s_lp_Force_Field>
OPLS_2005

> <r_lp_Energy>
51.925

> <b_lp_Chiralities_Consistent>
1

> <s_lp_Variant>
AV-unprocessed.smi:3263-5

> <Gold.Version>
5.8.1

> <Gold.Id.Protein>
6NUR|6NUR_protein|mol2

> <Gold.PLP.Fitness>
53.2770

> <Gold.PLP.PLP>
-51.7685

> <Gold.PLP.part.hbond>
-3.1240

> <Gold.PLP.part.metal>
0.0000

> <Gold.PLP.part.buried>
-7.6692

> <Gold.PLP.part.nonpolar>
-41.6564

> <Gold.PLP.part.repulsive>
0.5346

> <Gold.PLP.ligand.clash>
0.0000

> <Gold.PLP.ligand.torsion>
0.7563

> <Gold.PLP.Chemscore.Hbond>
1.0000

> <Gold.PLP.Chemscore.CHOScore>
0.0000

> <Gold.PLP.Chemscore.Metal>
0.0000

> <Gold.Chemscore.Hbonds>
donor molecule, donor type, donor heavy atom, donor atom, acceptor molecule, acceptor atom, score
      P1  H  6933  6944       L1     1  1.00

> <Gold.PLP.Chemscore.Internal.Correction>
0.0210

> <Gold.Rescore>
     Score         DG    S(hbond)    S(metal)    S(lipo)     H(rot)  DE(clash)    DE(int)     intcor
     20.77     -21.57       1.00        0.00     143.23       1.56       0.10       0.70       ----

> <Gold.Chemscore.Fitness>
20.7708

> <Gold.Chemscore.DG>
-21.5696

> <Gold.Chemscore.ZeroCoef>
-5.4800

> <Gold.Chemscore.Hbond>
0.9985

> <Gold.Chemscore.Metal>
0.0000

> <Gold.Chemscore.Lipo>
143.2330

> <Gold.Chemscore.Internal_Hbond>
0.0000

> <Gold.Chemscore.DEClash>
0.0955

> <Gold.Chemscore.DEInternal>
0.7033

> <Gold.Chemscore.Rot>
1.5640

> <Gold.Chemscore.Internal.Correction>
   9.000000E+99

> <Gold.Chemscore.Hbonds>
donor molecule, donor type, donor heavy atom, donor atom, acceptor molecule, acceptor atom, score
      P1  H  6933  6944       L1     1  1.00

> <Gold.Chemscore.Hbond.Weighted>
-3.3351

> <Gold.Chemscore.Metal.Weighted>
-0.0000

> <Gold.Chemscore.Lipo.Weighted>
-16.7583

> <Gold.Chemscore.Internal_Hbond.Weighted>
0.0000

> <Gold.Chemscore.DEClash.Weighted>
0.0955

> <Gold.Chemscore.DEInternal.Weighted>
0.7033

> <Gold.Chemscore.Rot.Weighted>
4.0038

> <Gold.Chemscore.Internal.Correction.Weighted>
   9.000000E+99

> <Gold.Protein.RotatedTorsions>
[ 6907 6896 6895 6894 ] final  165.31 input  -60.11 | X-H torsion
[ 7974 7965 7964 7962 ] final  116.17 input  175.53 | X-H torsion
[ 8008 7997 7996 7995 ] final  116.42 input   59.86 | X-H torsion
[ 10167 10162 10161 10158 ] final   10.76 input  -65.29 | X-H torsion
[ 10718 10713 10712 10709 ] final  -88.79 input   66.30 | X-H torsion
[ 10763 10752 10751 10750 ] final -147.06 input  -60.55 | X-H torsion
[ 11005 11000 10999 10996 ] final   85.85 input  -57.11 | X-H torsion

> <Gold.Protein.ActiveResidues>
 VAL166  LYS551  ARG553  GLY616  TRP617  ASP618  TYR619  PRO620  LYS621  CYS622 
 ASP623  PHE694  ASN695  SER759  ASP760  ASP761  ALA762  ILE779  LEU786  VAL792 
 PHE793  MET794  SER795  GLU796  ALA797  LYS798  CYS799  TRP800  GLU811  SER814 

> <Gold.Protein.RotatedAtoms>
  151.8963  133.3527  159.3815 H   0  0  0  0  0  0  0  0  0  0  0  0  # atno 6907 bound_to 6896
  150.7091  134.4873  159.5508 H   0  0  0  0  0  0  0  0  0  0  0  0  # atno 6908 bound_to 6896
  152.2453  134.8188  160.0505 H   0  0  0  0  0  0  0  0  0  0  0  0  # atno 6909 bound_to 6896
  145.1829  139.3040  143.4408 H   0  0  0  0  0  0  0  0  0  0  0  0  # atno 7974 bound_to 7965
  156.2438  140.2918  156.0520 H   0  0  0  0  0  0  0  0  0  0  0  0  # atno 8008 bound_to 7997
  155.1871  140.0406  157.2910 H   0  0  0  0  0  0  0  0  0  0  0  0  # atno 8009 bound_to 7997
  154.6220  140.2478  155.7545 H   0  0  0  0  0  0  0  0  0  0  0  0  # atno 8010 bound_to 7997
  140.6174  143.8279  150.7134 H   0  0  0  0  0  0  0  0  0  0  0  0  # atno 10167 bound_to 10162
  155.9983  130.4848  150.5072 H   0  0  0  0  0  0  0  0  0  0  0  0  # atno 10718 bound_to 10713
  154.8305  135.3370  154.6760 H   0  0  0  0  0  0  0  0  0  0  0  0  # atno 10763 bound_to 10752
  153.7380  135.6947  153.4978 H   0  0  0  0  0  0  0  0  0  0  0  0  # atno 10764 bound_to 10752
  153.2264  135.4431  155.0498 H   0  0  0  0  0  0  0  0  0  0  0  0  # atno 10765 bound_to 10752
  139.8960  134.8315  156.2639 H   0  0  0  0  0  0  0  0  0  0  0  0  # atno 11005 bound_to 11000
  146.3450  140.2015  142.8589 LP  0  0  0  0  0  0  0  0  0  0  0  0  # atno 17320 bound_to 7965
  145.0118  140.8720  143.5220 LP  0  0  0  0  0  0  0  0  0  0  0  0  # atno 17321 bound_to 7965
  140.1861  143.4075  152.1897 LP  0  0  0  0  0  0  0  0  0  0  0  0  # atno 17342 bound_to 10162
  139.5410  144.7256  151.4735 LP  0  0  0  0  0  0  0  0  0  0  0  0  # atno 17343 bound_to 10162
  157.3050  131.0652  151.2041 LP  0  0  0  0  0  0  0  0  0  0  0  0  # atno 17370 bound_to 10713
  157.3008  130.6841  149.6163 LP  0  0  0  0  0  0  0  0  0  0  0  0  # atno 17371 bound_to 10713
  141.0145  133.7077  156.1165 LP  0  0  0  0  0  0  0  0  0  0  0  0  # atno 17394 bound_to 11000
  140.7321  134.4243  157.5564 LP  0  0  0  0  0  0  0  0  0  0  0  0  # atno 17395 bound_to 11000

$$$$
