AV-unprocessed.smi:160|AV-procd|sdf|1343|dock7
  -GOLD-   2262019 43D 1   1.00000     0.00000
 Structure written by MMmdl.
 29 30  0  0  0  0  0  0  0  0  1 V2000
  149.9348  134.6328  157.0668 N   0  0  0  0  0  0  0  0  0  0  0  0
  150.1161  135.9201  157.3793 C   0  0  0  0  0  0  0  0  0  0  0  0
  149.9518  136.3497  158.5199 O   0  0  0  0  0  0  0  0  0  0  0  0
  150.5347  136.8247  156.2535 C   0  0  0  0  0  0  0  0  0  0  0  0
  151.1922  136.3342  155.1611 N   0  0  0  0  0  0  0  0  0  0  0  0
  151.3413  137.4645  154.4822 C   0  0  0  0  0  0  0  0  0  0  0  0
  150.8184  138.5374  155.0844 N   0  0  0  0  0  0  0  0  0  0  0  0
  150.8160  139.9699  154.6605 C   0  0  2  0  0  0  0  0  0  0  0  0
  151.3135  140.7171  155.7312 O   0  0  0  0  0  0  0  0  0  0  0  0
  150.4048  141.7547  156.0924 C   0  0  2  0  0  0  0  0  0  0  0  0
  150.5023  142.0211  157.6023 C   0  0  0  0  0  0  0  0  0  0  0  0
  149.6782  143.1104  157.9574 O   0  0  0  0  0  0  0  0  0  0  0  0
  149.0467  141.2024  155.6566 C   0  0  1  0  0  0  0  0  0  0  0  0
  148.0656  142.2053  155.4672 O   0  0  0  0  0  0  0  0  0  0  0  0
  149.3869  140.4549  154.3732 C   0  0  1  0  0  0  0  0  0  0  0  0
  149.3612  141.2913  153.2311 O   0  0  0  0  0  0  0  0  0  0  0  0
  150.2900  138.1362  156.2679 N   0  0  0  0  0  0  0  0  0  0  0  0
  151.4807  140.0032  153.7957 H   0  0  0  0  0  0  0  0  0  0  0  0
  150.6382  142.6500  155.5125 H   0  0  0  0  0  0  0  0  0  0  0  0
  148.6832  140.4935  156.4015 H   0  0  0  0  0  0  0  0  0  0  0  0
  148.7114  139.6167  154.1951 H   0  0  0  0  0  0  0  0  0  0  0  0
  149.6535  133.9768  157.7804 H   0  0  0  0  0  0  0  0  0  0  0  0
  150.0812  134.3258  156.1163 H   0  0  0  0  0  0  0  0  0  0  0  0
  151.8432  137.5113  153.5270 H   0  0  0  0  0  0  0  0  0  0  0  0
  150.1532  141.1527  158.1613 H   0  0  0  0  0  0  0  0  0  0  0  0
  151.5333  142.2082  157.9051 H   0  0  0  0  0  0  0  0  0  0  0  0
  149.3766  143.5303  157.1665 H   0  0  0  0  0  0  0  0  0  0  0  0
  148.4732  143.0502  155.5816 H   0  0  0  0  0  0  0  0  0  0  0  0
  149.2638  140.7443  152.4663 H   0  0  0  0  0  0  0  0  0  0  0  0
  1  2  1  0  0  0  0
  1 22  1  0  0  0  0
  1 23  1  0  0  0  0
  2  3  2  0  0  0  0
  2  4  1  0  0  0  0
  4 17  2  0  0  0  0
  4  5  1  0  0  0  0
  5  6  2  0  0  0  0
  6  7  1  0  0  0  0
  6 24  1  0  0  0  0
  7  8  1  0  0  0  0
  7 17  1  0  0  0  0
  8 18  1  0  0  0  0
  8 15  1  0  0  0  0
  8  9  1  0  0  0  0
  9 10  1  0  0  0  0
 10 19  1  0  0  0  0
 10 11  1  0  0  0  0
 10 13  1  0  0  0  0
 11 12  1  0  0  0  0
 11 25  1  0  0  0  0
 11 26  1  0  0  0  0
 12 27  1  0  0  0  0
 13 20  1  0  0  0  0
 13 14  1  0  0  0  0
 13 15  1  0  0  0  0
 14 28  1  0  0  0  0
 15 21  1  0  0  0  0
 15 16  1  0  0  0  0
 16 29  1  0  0  0  0
M  END
> <s_m_source_file>
AV-unprocessed.smi

> <i_m_source_file_index>
160

> <i_lp_mmshare_version>
43012

> <i_f3d_flags>
0

> <s_epik_input>
W05IMl1DKD1PKWMxbltjSF1uKG4xKVtDQEBIXTJPW0NASF0oW0NIMl1bT0hdKVtDQEBIXShbT0hdKVtDQEhdMltPSF0=

> <s_epik_cmdline>
J2VwaWtfcHl0aG9uJywgJy1waCcsICc3LjAnLCAnLXRuJywgJzgnLCAnLW1hJywgJzIwMCcsICctbWV0YWxfYmluZGluZycsICctaW1hZScsICc8aW5maWxlLm1hZT4nLCAnLW9tYWUnLCAnPG91dGZpbGUubWFlPic=

> <r_lp_tautomer_probability>
1

> <r_epik_Ionization_Penalty>
1.06932e-05

> <r_epik_Ionization_Penalty_Charging>
0

> <r_epik_Ionization_Penalty_Neutral>
1.06932e-05

> <r_epik_State_Penalty>
-0

> <r_epik_Charging_Adjusted_Penalty>
0

> <i_epik_Tot_Q>
0

> <i_epik_Tot_abs_Q>
0

> <r_epik_Metal_State_Penalty>
0.0142097

> <b_epik_Metal_Only>
0

> <s_epik_Chemistry_Notes>
This compound contains an acetal/aminal-like group ( X-CH(R)-Y where X, Y are N, S, or O) that may be acid/base labile, releasing an aldehyde.

> <s_lp_Force_Field>
OPLS_2005

> <r_lp_Energy>
39.0499

> <b_lp_Chiralities_Consistent>
1

> <s_lp_Variant>
AV-unprocessed.smi:160-1

> <Gold.Version>
5.8.1

> <Gold.Id.Protein>
6NUR|6NUR_protein|mol2

> <Gold.PLP.Fitness>
44.2637

> <Gold.PLP.PLP>
-25.7258

> <Gold.PLP.part.hbond>
-7.6503

> <Gold.PLP.part.metal>
0.0000

> <Gold.PLP.part.buried>
0.2181

> <Gold.PLP.part.nonpolar>
-18.6368

> <Gold.PLP.part.repulsive>
0.2690

> <Gold.PLP.ligand.clash>
0.0000

> <Gold.PLP.ligand.torsion>
0.4141

> <Gold.PLP.Chemscore.Hbond>
5.5420

> <Gold.PLP.Chemscore.CHOScore>
0.9048

> <Gold.PLP.Chemscore.Metal>
0.0000

> <Gold.Chemscore.Hbonds>
donor molecule, donor type, donor heavy atom, donor atom, acceptor molecule, acceptor atom, score
      L1  H    12    27       P1  8028  1.00
      L1  H    14    28       P1  8028  1.00
      L1  H    16    29       P1  7957  0.96
      P1  H  6896  6908       L1     3  0.86
      P1  H  8011  8017       L1    16  0.37
      P1  H 10752 10764       L1     5  0.75
      L1  C     6    24       P1  7949  0.65

> <Gold.PLP.Chemscore.Internal.Correction>
0.0256

> <Gold.Rescore>
     Score         DG    S(hbond)    S(metal)    S(lipo)     H(rot)  DE(clash)    DE(int)     intcor
     10.37     -12.34       4.25        0.00      26.23       4.06       1.43       0.54       ----

> <Gold.Chemscore.Fitness>
10.3738

> <Gold.Chemscore.DG>
-12.3449

> <Gold.Chemscore.ZeroCoef>
-5.4800

> <Gold.Chemscore.Hbond>
4.2484

> <Gold.Chemscore.Metal>
0.0000

> <Gold.Chemscore.Lipo>
26.2283

> <Gold.Chemscore.Internal_Hbond>
0.0000

> <Gold.Chemscore.DEClash>
1.4280

> <Gold.Chemscore.DEInternal>
0.5430

> <Gold.Chemscore.Rot>
4.0600

> <Gold.Chemscore.Internal.Correction>
   9.000000E+99

> <Gold.Chemscore.Hbonds>
donor molecule, donor type, donor heavy atom, donor atom, acceptor molecule, acceptor atom, score
      L1  H    12    27       P1  8028  0.77
      L1  H    14    28       P1  8028  1.00
      L1  H    16    29       P1  7957  0.91
      P1  H  6896  6908       L1     3  0.29
      P1  H  8011  8017       L1    16  0.01
      P1  H 10752 10764       L1     5  0.09

> <Gold.Chemscore.Hbond.Weighted>
-14.1898

> <Gold.Chemscore.Metal.Weighted>
-0.0000

> <Gold.Chemscore.Lipo.Weighted>
-3.0687

> <Gold.Chemscore.Internal_Hbond.Weighted>
0.0000

> <Gold.Chemscore.DEClash.Weighted>
1.4280

> <Gold.Chemscore.DEInternal.Weighted>
0.5430

> <Gold.Chemscore.Rot.Weighted>
10.3936

> <Gold.Chemscore.Internal.Correction.Weighted>
   9.000000E+99

> <Gold.Protein.RotatedTorsions>
[ 6907 6896 6895 6894 ] final -168.95 input  -60.11 | X-H torsion
[ 7974 7965 7964 7962 ] final -173.87 input  175.53 | X-H torsion
[ 8008 7997 7996 7995 ] final    6.21 input   59.86 | X-H torsion
[ 10167 10162 10161 10158 ] final  -83.19 input  -65.29 | X-H torsion
[ 10718 10713 10712 10709 ] final  -50.85 input   66.30 | X-H torsion
[ 10763 10752 10751 10750 ] final  -56.51 input  -60.55 | X-H torsion
[ 11005 11000 10999 10996 ] final    9.82 input  -57.11 | X-H torsion

> <Gold.Protein.ActiveResidues>
 VAL166  LYS551  ARG553  GLY616  TRP617  ASP618  TYR619  PRO620  LYS621  CYS622 
 ASP623  PHE694  ASN695  SER759  ASP760  ASP761  ALA762  ILE779  LEU786  VAL792 
 PHE793  MET794  SER795  GLU796  ALA797  LYS798  CYS799  TRP800  GLU811  SER814 

> <Gold.Protein.RotatedAtoms>
  151.4837  133.3540  159.2842 H   0  0  0  0  0  0  0  0  0  0  0  0  # atno 6907 bound_to 6896
  150.8880  134.8282  159.7284 H   0  0  0  0  0  0  0  0  0  0  0  0  # atno 6908 bound_to 6896
  152.4805  134.4743  159.9697 H   0  0  0  0  0  0  0  0  0  0  0  0  # atno 6909 bound_to 6896
  144.7135  140.1557  143.6380 H   0  0  0  0  0  0  0  0  0  0  0  0  # atno 7974 bound_to 7965
  154.7381  140.2743  155.6397 H   0  0  0  0  0  0  0  0  0  0  0  0  # atno 8008 bound_to 7997
  156.2867  140.2702  156.2026 H   0  0  0  0  0  0  0  0  0  0  0  0  # atno 8009 bound_to 7997
  155.0294  140.0371  157.2458 H   0  0  0  0  0  0  0  0  0  0  0  0  # atno 8010 bound_to 7997
  140.4249  143.2570  151.8839 H   0  0  0  0  0  0  0  0  0  0  0  0  # atno 10167 bound_to 10162
  156.1763  130.4150  149.9572 H   0  0  0  0  0  0  0  0  0  0  0  0  # atno 10718 bound_to 10713
  154.2078  135.6400  153.5106 H   0  0  0  0  0  0  0  0  0  0  0  0  # atno 10763 bound_to 10752
  152.9997  135.5467  154.6247 H   0  0  0  0  0  0  0  0  0  0  0  0  # atno 10764 bound_to 10752
  154.5676  135.2914  155.0832 H   0  0  0  0  0  0  0  0  0  0  0  0  # atno 10765 bound_to 10752
  140.5215  134.0555  155.7846 H   0  0  0  0  0  0  0  0  0  0  0  0  # atno 11005 bound_to 11000
  145.9076  139.2467  143.1456 LP  0  0  0  0  0  0  0  0  0  0  0  0  # atno 17320 bound_to 7965
  145.9748  140.8731  143.0144 LP  0  0  0  0  0  0  0  0  0  0  0  0  # atno 17321 bound_to 7965
  139.4783  144.5397  151.8546 LP  0  0  0  0  0  0  0  0  0  0  0  0  # atno 17342 bound_to 10162
  140.4492  144.1879  150.5896 LP  0  0  0  0  0  0  0  0  0  0  0  0  # atno 17343 bound_to 10162
  156.7357  130.9060  151.3629 LP  0  0  0  0  0  0  0  0  0  0  0  0  # atno 17370 bound_to 10713
  157.6838  130.9165  150.0333 LP  0  0  0  0  0  0  0  0  0  0  0  0  # atno 17371 bound_to 10713
  141.1332  133.9267  157.2491 LP  0  0  0  0  0  0  0  0  0  0  0  0  # atno 17394 bound_to 11000
  139.9603  135.0155  156.9243 LP  0  0  0  0  0  0  0  0  0  0  0  0  # atno 17395 bound_to 11000

$$$$
