AV-unprocessed.smi:1289|AV-procd|sdf|5388|dock10
  -GOLD-   22720 4543D 1   1.00000     0.00000
 Structure written by MMmdl.
 38 40  0  0  0  0  0  0  0  0  2 V2000
  151.4543  142.8759  157.2492 N   0  0  0  0  0  0  0  0  0  0  0  0
  150.8150  142.1839  156.5776 C   0  0  0  0  0  0  0  0  0  0  0  0
  150.0115  141.3148  155.7343 C   0  0  0  0  0  0  0  0  0  0  0  0
  150.5660  140.1338  155.2033 C   0  0  0  0  0  0  0  0  0  0  0  0
  149.7866  139.2966  154.3818 C   0  0  0  0  0  0  0  0  0  0  0  0
  148.4487  139.6228  154.0792 C   0  0  0  0  0  0  0  0  0  0  0  0
  147.7621  138.7508  153.2617 O   0  0  0  0  0  0  0  0  0  0  0  0
  146.3862  139.0051  153.0109 C   0  0  0  0  0  0  0  0  0  0  0  0
  145.8592  137.9640  152.0122 C   0  0  1  0  0  0  0  0  0  0  0  0
  146.4108  138.2470  150.7414 O   0  0  0  0  0  0  0  0  0  0  0  0
  146.2072  136.5223  152.4346 C   0  0  0  0  0  0  0  0  0  0  0  0
  145.2974  135.5209  151.8601 N   0  0  0  0  0  0  0  0  0  0  0  0
  144.1059  135.6939  151.2265 C   0  0  0  0  0  0  0  0  0  0  0  0
  143.6399  134.4616  150.8814 N   0  3  0  0  0  0  0  0  0  0  0  0
  144.5476  133.4860  151.2988 C   0  0  0  0  0  0  0  0  0  0  0  0
  144.5155  132.1002  151.1766 C   0  0  0  0  0  0  0  0  0  0  0  0
  145.6114  131.3919  151.7117 C   0  0  0  0  0  0  0  0  0  0  0  0
  146.6838  132.0608  152.3367 C   0  0  0  0  0  0  0  0  0  0  0  0
  146.7054  133.4660  152.4558 C   0  0  0  0  0  0  0  0  0  0  0  0
  145.6171  134.1595  151.9267 C   0  0  0  0  0  0  0  0  0  0  0  0
  147.8957  140.8101  154.6227 C   0  0  0  0  0  0  0  0  0  0  0  0
  148.6744  141.6499  155.4429 C   0  0  0  0  0  0  0  0  0  0  0  0
  151.5897  139.8642  155.4203 H   0  0  0  0  0  0  0  0  0  0  0  0
  150.2219  138.3945  153.9776 H   0  0  0  0  0  0  0  0  0  0  0  0
  145.8323  138.9336  153.9486 H   0  0  0  0  0  0  0  0  0  0  0  0
  146.2415  140.0092  152.6081 H   0  0  0  0  0  0  0  0  0  0  0  0
  144.7767  138.0661  151.9268 H   0  0  0  0  0  0  0  0  0  0  0  0
  145.7053  138.4554  150.1478 H   0  0  0  0  0  0  0  0  0  0  0  0
  147.2345  136.2690  152.1722 H   0  0  0  0  0  0  0  0  0  0  0  0
  146.1401  136.4273  153.5188 H   0  0  0  0  0  0  0  0  0  0  0  0
  143.6175  136.6382  151.0335 H   0  0  0  0  0  0  0  0  0  0  0  0
  143.6964  131.5852  150.6964 H   0  0  0  0  0  0  0  0  0  0  0  0
  145.6312  130.3141  151.6395 H   0  0  0  0  0  0  0  0  0  0  0  0
  147.5080  131.4848  152.7318 H   0  0  0  0  0  0  0  0  0  0  0  0
  147.5352  133.9679  152.9311 H   0  0  0  0  0  0  0  0  0  0  0  0
  146.8756  141.1015  154.4247 H   0  0  0  0  0  0  0  0  0  0  0  0
  148.2378  142.5528  155.8453 H   0  0  0  0  0  0  0  0  0  0  0  0
  142.7663  134.3017  150.3963 H   0  0  0  0  0  0  0  0  0  0  0  0
  1  2  3  0  0  0  0
  2  3  1  0  0  0  0
  3 22  1  0  0  0  0
  3  4  2  0  0  0  0
  4  5  1  0  0  0  0
  4 23  1  0  0  0  0
  5  6  2  0  0  0  0
  5 24  1  0  0  0  0
  6  7  1  0  0  0  0
  6 21  1  0  0  0  0
  7  8  1  0  0  0  0
  8  9  1  0  0  0  0
  8 25  1  0  0  0  0
  8 26  1  0  0  0  0
  9 10  1  0  0  0  0
  9 11  1  0  0  0  0
  9 27  1  0  0  0  0
 10 28  1  0  0  0  0
 11 12  1  0  0  0  0
 11 29  1  0  0  0  0
 11 30  1  0  0  0  0
 12 20  1  0  0  0  0
 12 13  1  0  0  0  0
 13 14  2  0  0  0  0
 13 31  1  0  0  0  0
 14 15  1  0  0  0  0
 14 38  1  0  0  0  0
 15 20  2  0  0  0  0
 15 16  1  0  0  0  0
 16 17  2  0  0  0  0
 16 32  1  0  0  0  0
 17 18  1  0  0  0  0
 17 33  1  0  0  0  0
 18 19  2  0  0  0  0
 18 34  1  0  0  0  0
 19 20  1  0  0  0  0
 19 35  1  0  0  0  0
 21 22  2  0  0  0  0
 21 36  1  0  0  0  0
 22 37  1  0  0  0  0
M  CHG  1  14   1
M  END
> <s_m_source_file>
AV-unprocessed.smi

> <i_m_source_file_index>
1289

> <i_lp_mmshare_version>
43012

> <i_f3d_flags>
0

> <s_epik_input>
TiNDYzFbY0hdW2NIXWMoW2NIXVtjSF0xKU9bQ0gyXVtDQEhdKFtPSF0pW0NIMl1uKFtjSF1uMiljKGMyMylbY0hdW2NIXVtjSF1bY0hdMw==

> <s_epik_cmdline>
J2VwaWtfcHl0aG9uJywgJy1waCcsICc3LjAnLCAnLXRuJywgJzgnLCAnLW1hJywgJzIwMCcsICctbWV0YWxfYmluZGluZycsICctaW1hZScsICc8aW5maWxlLm1hZT4nLCAnLW9tYWUnLCAnPG91dGZpbGUubWFlPic=

> <r_epik_Ionization_Penalty>
1.39523

> <r_epik_Ionization_Penalty_Charging>
1.39523

> <r_epik_Ionization_Penalty_Neutral>
2.3993e-06

> <r_epik_State_Penalty>
1.47691

> <r_epik_Charging_Adjusted_Penalty>
2.87215

> <i_epik_Tot_Q>
1

> <i_epik_Tot_abs_Q>
1

> <r_epik_Metal_State_Penalty>
5.51858

> <b_epik_Metal_Only>
0

> <s_lp_Force_Field>
OPLS_2005

> <r_lp_Energy>
20.386

> <b_lp_Chiralities_Consistent>
1

> <s_lp_Variant>
AV-unprocessed.smi:1289-4

> <Gold.Version>
5.8.1

> <Gold.Id.Protein>
6NUR|6NUR_protein|mol2

> <Gold.PLP.Fitness>
51.1833

> <Gold.PLP.PLP>
-37.3992

> <Gold.PLP.part.hbond>
-3.1396

> <Gold.PLP.part.metal>
0.0000

> <Gold.PLP.part.buried>
1.7633

> <Gold.PLP.part.nonpolar>
-37.0093

> <Gold.PLP.part.repulsive>
1.3371

> <Gold.PLP.ligand.clash>
0.0000

> <Gold.PLP.ligand.torsion>
0.4595

> <Gold.PLP.Chemscore.Hbond>
3.8880

> <Gold.PLP.Chemscore.CHOScore>
1.0000

> <Gold.PLP.Chemscore.Metal>
0.0000

> <Gold.Chemscore.Hbonds>
donor molecule, donor type, donor heavy atom, donor atom, acceptor molecule, acceptor atom, score
      L1  H    10    28       P1 10171  1.00
      L1  H    14    38       P1 10186  2.00
      P1  H  7954  7966       L1    10  0.98
      L1  C    13    31       P1 10171  1.00

> <Gold.PLP.Chemscore.Internal.Correction>
0.0390

> <Gold.Rescore>
     Score         DG    S(hbond)    S(metal)    S(lipo)     H(rot)  DE(clash)    DE(int)     intcor
     16.21     -18.46       2.56        0.00      94.45       2.58       1.79       0.47       ----

> <Gold.Chemscore.Fitness>
16.2105

> <Gold.Chemscore.DG>
-18.4627

> <Gold.Chemscore.ZeroCoef>
-5.4800

> <Gold.Chemscore.Hbond>
2.5557

> <Gold.Chemscore.Metal>
0.0000

> <Gold.Chemscore.Lipo>
94.4534

> <Gold.Chemscore.Internal_Hbond>
0.0000

> <Gold.Chemscore.DEClash>
1.7864

> <Gold.Chemscore.DEInternal>
0.4658

> <Gold.Chemscore.Rot>
2.5798

> <Gold.Chemscore.Internal.Correction>
   9.000000E+99

> <Gold.Chemscore.Hbonds>
donor molecule, donor type, donor heavy atom, donor atom, acceptor molecule, acceptor atom, score
      L1  H    10    28       P1 10171  0.95
      L1  H    14    38       P1 10186  0.74
      P1  H  7954  7966       L1    10  0.83

> <Gold.Chemscore.Hbond.Weighted>
-8.5359

> <Gold.Chemscore.Metal.Weighted>
-0.0000

> <Gold.Chemscore.Lipo.Weighted>
-11.0510

> <Gold.Chemscore.Internal_Hbond.Weighted>
0.0000

> <Gold.Chemscore.DEClash.Weighted>
1.7864

> <Gold.Chemscore.DEInternal.Weighted>
0.4658

> <Gold.Chemscore.Rot.Weighted>
6.6043

> <Gold.Chemscore.Internal.Correction.Weighted>
   9.000000E+99

> <Gold.Protein.RotatedTorsions>
[ 6907 6896 6895 6894 ] final   96.50 input  -60.11 | X-H torsion
[ 7974 7965 7964 7962 ] final  -71.71 input  175.53 | X-H torsion
[ 8008 7997 7996 7995 ] final    3.90 input   59.86 | X-H torsion
[ 10167 10162 10161 10158 ] final  -70.31 input  -65.29 | X-H torsion
[ 10718 10713 10712 10709 ] final -129.35 input   66.30 | X-H torsion
[ 10763 10752 10751 10750 ] final   24.75 input  -60.55 | X-H torsion
[ 11005 11000 10999 10996 ] final  169.44 input  -57.11 | X-H torsion

> <Gold.Protein.ActiveResidues>
 VAL166  LYS551  ARG553  GLY616  TRP617  ASP618  TYR619  PRO620  LYS621  CYS622 
 ASP623  PHE694  ASN695  SER759  ASP760  ASP761  ALA762  ILE779  LEU786  VAL792 
 PHE793  MET794  SER795  GLU796  ALA797  LYS798  CYS799  TRP800  GLU811  SER814 

> <Gold.Protein.RotatedAtoms>
  152.5434  134.0876  159.8262 H   0  0  0  0  0  0  0  0  0  0  0  0  # atno 6907 bound_to 6896
  151.0970  133.5265  159.2619 H   0  0  0  0  0  0  0  0  0  0  0  0  # atno 6908 bound_to 6896
  151.2034  135.0461  159.8936 H   0  0  0  0  0  0  0  0  0  0  0  0  # atno 6909 bound_to 6896
  145.6746  140.9209  143.0865 H   0  0  0  0  0  0  0  0  0  0  0  0  # atno 7974 bound_to 7965
  154.7093  140.2689  155.6644 H   0  0  0  0  0  0  0  0  0  0  0  0  # atno 8008 bound_to 7997
  156.2790  140.2756  156.1654 H   0  0  0  0  0  0  0  0  0  0  0  0  # atno 8009 bound_to 7997
  155.0656  140.0371  157.2581 H   0  0  0  0  0  0  0  0  0  0  0  0  # atno 8010 bound_to 7997
  140.5363  143.2318  151.7172 H   0  0  0  0  0  0  0  0  0  0  0  0  # atno 10167 bound_to 10162
  156.2038  130.6875  151.0571 H   0  0  0  0  0  0  0  0  0  0  0  0  # atno 10718 bound_to 10713
  153.0741  135.6598  154.0183 H   0  0  0  0  0  0  0  0  0  0  0  0  # atno 10763 bound_to 10752
  153.9821  135.2954  155.3420 H   0  0  0  0  0  0  0  0  0  0  0  0  # atno 10764 bound_to 10752
  154.7124  135.5199  153.8757 H   0  0  0  0  0  0  0  0  0  0  0  0  # atno 10765 bound_to 10752
  140.2978  134.7620  157.3892 H   0  0  0  0  0  0  0  0  0  0  0  0  # atno 11005 bound_to 11000
  144.7046  139.8616  143.7434 LP  0  0  0  0  0  0  0  0  0  0  0  0  # atno 17320 bound_to 7965
  146.1016  139.4013  143.0343 LP  0  0  0  0  0  0  0  0  0  0  0  0  # atno 17321 bound_to 7965
  139.4972  144.4038  152.0153 LP  0  0  0  0  0  0  0  0  0  0  0  0  # atno 17342 bound_to 10162
  140.3144  144.3501  150.6025 LP  0  0  0  0  0  0  0  0  0  0  0  0  # atno 17343 bound_to 10162
  157.7001  131.0779  150.6847 LP  0  0  0  0  0  0  0  0  0  0  0  0  # atno 17370 bound_to 10713
  156.6905  130.4594  149.5601 LP  0  0  0  0  0  0  0  0  0  0  0  0  # atno 17371 bound_to 10713
  140.1136  134.5312  155.8244 LP  0  0  0  0  0  0  0  0  0  0  0  0  # atno 17394 bound_to 11000
  141.2134  133.6733  156.6736 LP  0  0  0  0  0  0  0  0  0  0  0  0  # atno 17395 bound_to 11000

$$$$
