AV-unprocessed.smi:2740|AV-procd|sdf|10554|dock2
  -GOLD-   2272015 03D 1   1.00000     0.00000
 Structure written by MMmdl.
 31 32  0  0  0  0  0  0  0  0  1 V2000
  153.6255  141.7868  161.0358 C   0  0  0  0  0  0  0  0  0  0  0  0
  152.8372  142.4012  159.9292 C   0  0  0  0  0  0  0  0  0  0  0  0
  152.7518  143.7325  159.6002 C   0  0  0  0  0  0  0  0  0  0  0  0
  151.9262  143.9928  158.5041 N   0  0  0  0  0  0  0  0  0  0  0  0
  151.3902  142.8743  158.0036 C   0  0  0  0  0  0  0  0  0  0  0  0
  150.5084  142.8359  156.8917 N   0  0  0  0  0  0  0  0  0  0  0  0
  150.0308  141.7571  156.2466 C   0  0  0  0  0  0  0  0  0  0  0  0
  150.2788  140.5862  156.5363 O   0  0  0  0  0  0  0  0  0  0  0  0
  149.2342  142.1130  155.2288 N   0  0  0  0  0  0  0  0  0  0  0  0
  148.5543  141.1827  154.3349 C   0  0  0  0  0  0  0  0  0  0  0  0
  147.0383  141.4357  154.2991 C   0  0  2  0  0  0  0  0  0  0  0  0
  146.6632  142.8591  153.8960 C   0  0  0  0  0  0  0  0  0  0  0  0
  145.2747  142.9816  154.4814 C   0  0  0  0  0  0  0  0  0  0  0  0
  145.4124  142.2104  155.7921 C   0  0  0  0  0  0  0  0  0  0  0  0
  146.4689  141.2727  155.5952 O   0  0  0  0  0  0  0  0  0  0  0  0
  151.8745  141.4169  158.8563 S   0  0  0  0  0  0  0  0  0  0  0  0
  153.8434  142.5187  161.8140 H   0  0  0  0  0  0  0  0  0  0  0  0
  154.5732  141.3972  160.6639 H   0  0  0  0  0  0  0  0  0  0  0  0
  153.0775  140.9636  161.4945 H   0  0  0  0  0  0  0  0  0  0  0  0
  153.2433  144.5598  160.0904 H   0  0  0  0  0  0  0  0  0  0  0  0
  150.2122  143.7351  156.5419 H   0  0  0  0  0  0  0  0  0  0  0  0
  149.0792  143.0967  155.0636 H   0  0  0  0  0  0  0  0  0  0  0  0
  148.9768  141.2929  153.3357 H   0  0  0  0  0  0  0  0  0  0  0  0
  148.7582  140.1567  154.6457 H   0  0  0  0  0  0  0  0  0  0  0  0
  146.5465  140.7361  153.6210 H   0  0  0  0  0  0  0  0  0  0  0  0
  147.3319  143.5829  154.3644 H   0  0  0  0  0  0  0  0  0  0  0  0
  146.6886  143.0159  152.8173 H   0  0  0  0  0  0  0  0  0  0  0  0
  144.9569  144.0146  154.6253 H   0  0  0  0  0  0  0  0  0  0  0  0
  144.5516  142.4887  153.8301 H   0  0  0  0  0  0  0  0  0  0  0  0
  145.6930  142.8816  156.6044 H   0  0  0  0  0  0  0  0  0  0  0  0
  144.4856  141.7092  156.0722 H   0  0  0  0  0  0  0  0  0  0  0  0
  1  2  1  0  0  0  0
  1 17  1  0  0  0  0
  1 18  1  0  0  0  0
  1 19  1  0  0  0  0
  2 16  1  0  0  0  0
  2  3  2  0  0  0  0
  3  4  1  0  0  0  0
  3 20  1  0  0  0  0
  4  5  2  0  0  0  0
  5  6  1  0  0  0  0
  5 16  1  0  0  0  0
  6  7  1  0  0  0  0
  6 21  1  0  0  0  0
  7  8  2  0  0  0  0
  7  9  1  0  0  0  0
  9 10  1  0  0  0  0
  9 22  1  0  0  0  0
 10 11  1  0  0  0  0
 10 23  1  0  0  0  0
 10 24  1  0  0  0  0
 11 15  1  0  0  0  0
 11 12  1  0  0  0  0
 11 25  1  0  0  0  0
 12 13  1  0  0  0  0
 12 26  1  0  0  0  0
 12 27  1  0  0  0  0
 13 14  1  0  0  0  0
 13 28  1  0  0  0  0
 13 29  1  0  0  0  0
 14 15  1  0  0  0  0
 14 30  1  0  0  0  0
 14 31  1  0  0  0  0
M  END
> <s_m_source_file>
AV-unprocessed.smi

> <i_m_source_file_index>
2740

> <i_lp_mmshare_version>
43012

> <i_f3d_flags>
0

> <s_epik_input>
W0NIM11jMVtjSF1uYyhzMSlbTkhdQyg9TylbTkhdW0NIMl1bQ0BASF0yW0NIMl1bQ0gyXVtDSDJdTzI=

> <s_epik_cmdline>
J2VwaWtfcHl0aG9uJywgJy1waCcsICc3LjAnLCAnLXRuJywgJzgnLCAnLW1hJywgJzIwMCcsICctbWV0YWxfYmluZGluZycsICctaW1hZScsICc8aW5maWxlLm1hZT4nLCAnLW9tYWUnLCAnPG91dGZpbGUubWFlPic=

> <r_lp_tautomer_probability>
0.999

> <r_epik_Ionization_Penalty>
0.000387528

> <r_epik_Ionization_Penalty_Charging>
0

> <r_epik_Ionization_Penalty_Neutral>
0.000387528

> <r_epik_State_Penalty>
0.000177984

> <r_epik_Charging_Adjusted_Penalty>
0.000177984

> <i_epik_Tot_Q>
0

> <i_epik_Tot_abs_Q>
0

> <r_epik_Metal_State_Penalty>
0.00626158

> <b_epik_Metal_Only>
0

> <s_lp_Force_Field>
OPLS_2005

> <r_lp_Energy>
15.1526

> <b_lp_Chiralities_Consistent>
1

> <s_lp_Variant>
AV-unprocessed.smi:2740-1

> <Gold.Version>
5.8.1

> <Gold.Id.Protein>
6NUR|6NUR_protein|mol2

> <Gold.PLP.Fitness>
41.0553

> <Gold.PLP.PLP>
-35.3924

> <Gold.PLP.part.hbond>
-2.0000

> <Gold.PLP.part.metal>
0.0000

> <Gold.PLP.part.buried>
-6.2637

> <Gold.PLP.part.nonpolar>
-28.0129

> <Gold.PLP.part.repulsive>
0.3922

> <Gold.PLP.ligand.clash>
0.0000

> <Gold.PLP.ligand.torsion>
0.0261

> <Gold.PLP.Chemscore.Hbond>
1.9040

> <Gold.PLP.Chemscore.CHOScore>
0.0000

> <Gold.PLP.Chemscore.Metal>
0.0000

> <Gold.Chemscore.Hbonds>
donor molecule, donor type, donor heavy atom, donor atom, acceptor molecule, acceptor atom, score
      L1  H     6    21       P1  8028  0.96
      L1  H     9    22       P1  8028  1.00

> <Gold.PLP.Chemscore.Internal.Correction>
0.0032

> <Gold.Rescore>
     Score         DG    S(hbond)    S(metal)    S(lipo)     H(rot)  DE(clash)    DE(int)     intcor
     15.78     -17.04       1.90        0.00      72.23       1.27       0.03       1.23       ----

> <Gold.Chemscore.Fitness>
15.7840

> <Gold.Chemscore.DG>
-17.0408

> <Gold.Chemscore.ZeroCoef>
-5.4800

> <Gold.Chemscore.Hbond>
1.9027

> <Gold.Chemscore.Metal>
0.0000

> <Gold.Chemscore.Lipo>
72.2325

> <Gold.Chemscore.Internal_Hbond>
0.0000

> <Gold.Chemscore.DEClash>
0.0279

> <Gold.Chemscore.DEInternal>
1.2289

> <Gold.Chemscore.Rot>
1.2678

> <Gold.Chemscore.Internal.Correction>
   9.000000E+99

> <Gold.Chemscore.Hbonds>
donor molecule, donor type, donor heavy atom, donor atom, acceptor molecule, acceptor atom, score
      L1  H     6    21       P1  8028  0.92
      L1  H     9    22       P1  8028  0.96

> <Gold.Chemscore.Hbond.Weighted>
-6.3550

> <Gold.Chemscore.Metal.Weighted>
-0.0000

> <Gold.Chemscore.Lipo.Weighted>
-8.4512

> <Gold.Chemscore.Internal_Hbond.Weighted>
0.0000

> <Gold.Chemscore.DEClash.Weighted>
0.0279

> <Gold.Chemscore.DEInternal.Weighted>
1.2289

> <Gold.Chemscore.Rot.Weighted>
3.2455

> <Gold.Chemscore.Internal.Correction.Weighted>
   9.000000E+99

> <Gold.Protein.RotatedTorsions>
[ 6907 6896 6895 6894 ] final  -20.55 input  -60.11 | X-H torsion
[ 7974 7965 7964 7962 ] final   70.67 input  175.53 | X-H torsion
[ 8008 7997 7996 7995 ] final   12.71 input   59.86 | X-H torsion
[ 10167 10162 10161 10158 ] final  124.48 input  -65.29 | X-H torsion
[ 10718 10713 10712 10709 ] final  -47.90 input   66.30 | X-H torsion
[ 10763 10752 10751 10750 ] final  -36.92 input  -60.55 | X-H torsion
[ 11005 11000 10999 10996 ] final -156.46 input  -57.11 | X-H torsion

> <Gold.Protein.ActiveResidues>
 VAL166  LYS551  ARG553  GLY616  TRP617  ASP618  TYR619  PRO620  LYS621  CYS622 
 ASP623  PHE694  ASN695  SER759  ASP760  ASP761  ALA762  ILE779  LEU786  VAL792 
 PHE793  MET794  SER795  GLU796  ALA797  LYS798  CYS799  TRP800  GLU811  SER814 

> <Gold.Protein.RotatedAtoms>
  151.2464  135.0607  159.9044 H   0  0  0  0  0  0  0  0  0  0  0  0  # atno 6907 bound_to 6896
  152.5386  134.0379  159.8064 H   0  0  0  0  0  0  0  0  0  0  0  0  # atno 6908 bound_to 6896
  151.0580  133.5519  159.2668 H   0  0  0  0  0  0  0  0  0  0  0  0  # atno 6909 bound_to 6896
  145.7753  139.2862  143.1297 H   0  0  0  0  0  0  0  0  0  0  0  0  # atno 7974 bound_to 7965
  154.8244  140.2889  155.5765 H   0  0  0  0  0  0  0  0  0  0  0  0  # atno 8008 bound_to 7997
  156.3000  140.2544  156.3088 H   0  0  0  0  0  0  0  0  0  0  0  0  # atno 8009 bound_to 7997
  154.9302  140.0383  157.2033 H   0  0  0  0  0  0  0  0  0  0  0  0  # atno 8010 bound_to 7997
  139.5739  144.6953  151.3704 H   0  0  0  0  0  0  0  0  0  0  0  0  # atno 10167 bound_to 10162
  156.2039  130.4157  149.9204 H   0  0  0  0  0  0  0  0  0  0  0  0  # atno 10718 bound_to 10713
  153.8877  135.6815  153.4762 H   0  0  0  0  0  0  0  0  0  0  0  0  # atno 10763 bound_to 10752
  153.1198  135.4745  154.9174 H   0  0  0  0  0  0  0  0  0  0  0  0  # atno 10764 bound_to 10752
  154.7638  135.3218  154.8280 H   0  0  0  0  0  0  0  0  0  0  0  0  # atno 10765 bound_to 10752
  140.6753  134.4203  157.5229 H   0  0  0  0  0  0  0  0  0  0  0  0  # atno 11005 bound_to 11000
  146.0129  140.8419  142.9962 LP  0  0  0  0  0  0  0  0  0  0  0  0  # atno 17320 bound_to 7965
  144.6805  140.2516  143.7331 LP  0  0  0  0  0  0  0  0  0  0  0  0  # atno 17321 bound_to 7965
  140.7023  143.7601  150.7423 LP  0  0  0  0  0  0  0  0  0  0  0  0  # atno 17342 bound_to 10162
  140.1115  143.4695  152.2367 LP  0  0  0  0  0  0  0  0  0  0  0  0  # atno 17343 bound_to 10162
  156.6904  130.8893  151.3587 LP  0  0  0  0  0  0  0  0  0  0  0  0  # atno 17370 bound_to 10713
  157.7001  130.9324  150.0761 LP  0  0  0  0  0  0  0  0  0  0  0  0  # atno 17371 bound_to 10713
  139.8968  134.8650  156.2069 LP  0  0  0  0  0  0  0  0  0  0  0  0  # atno 17394 bound_to 11000
  141.0360  133.6963  156.1513 LP  0  0  0  0  0  0  0  0  0  0  0  0  # atno 17395 bound_to 11000

$$$$
