AV-unprocessed.smi:412|AV-procd|sdf|2511|dock5
  -GOLD-   2262022463D 1   1.00000     0.00000
 Structure written by MMmdl.
 36 38  0  0  0  0  0  0  0  0  1 V2000
  151.9691  145.6224  160.5906 C   0  0  0  0  0  0  0  0  0  0  0  0
  151.9894  144.4420  159.7353 N   0  0  0  0  0  0  0  0  0  0  0  0
  151.5609  144.3550  158.4544 C   0  0  0  0  0  0  0  0  0  0  0  0
  151.0752  145.2693  157.7882 O   0  0  0  0  0  0  0  0  0  0  0  0
  151.7657  143.0858  158.0285 N   0  0  0  0  0  0  0  0  0  0  0  0
  151.4518  142.5524  156.7034 C   0  0  0  0  0  0  0  0  0  0  0  0
  150.3759  141.4502  156.7659 C   0  0  1  0  0  0  0  0  0  0  0  0
  149.1279  142.0184  156.4186 O   0  0  0  0  0  0  0  0  0  0  0  0
  150.7344  140.2868  155.8531 C   0  0  0  0  0  0  0  0  0  0  0  0
  151.9961  139.6575  155.9454 C   0  0  0  0  0  0  0  0  0  0  0  0
  152.3149  138.5772  155.0997 C   0  0  0  0  0  0  0  0  0  0  0  0
  151.3726  138.1155  154.1609 C   0  0  0  0  0  0  0  0  0  0  0  0
  150.1108  138.7333  154.0697 C   0  0  0  0  0  0  0  0  0  0  0  0
  149.7925  139.8153  154.9134 C   0  0  0  0  0  0  0  0  0  0  0  0
  152.3476  142.3418  159.0655 C   0  0  0  0  0  0  0  0  0  0  0  0
  152.7595  140.9988  159.1267 C   0  0  0  0  0  0  0  0  0  0  0  0
  153.3244  140.5504  160.3437 C   0  0  0  0  0  0  0  0  0  0  0  0
  153.4643  141.4301  161.4485 C   0  0  0  0  0  0  0  0  0  0  0  0
  153.0437  142.7780  161.3594 C   0  0  0  0  0  0  0  0  0  0  0  0
  152.4866  143.1964  160.1388 C   0  0  0  0  0  0  0  0  0  0  0  0
  151.5236  146.4837  160.0913 H   0  0  0  0  0  0  0  0  0  0  0  0
  152.9840  145.8916  160.8838 H   0  0  0  0  0  0  0  0  0  0  0  0
  151.3933  145.4228  161.4947 H   0  0  0  0  0  0  0  0  0  0  0  0
  151.1636  143.3463  156.0135 H   0  0  0  0  0  0  0  0  0  0  0  0
  152.3739  142.1328  156.2974 H   0  0  0  0  0  0  0  0  0  0  0  0
  150.2909  141.0687  157.7845 H   0  0  0  0  0  0  0  0  0  0  0  0
  149.2262  142.9577  156.3859 H   0  0  0  0  0  0  0  0  0  0  0  0
  152.7236  139.9998  156.6667 H   0  0  0  0  0  0  0  0  0  0  0  0
  153.2820  138.1018  155.1724 H   0  0  0  0  0  0  0  0  0  0  0  0
  151.6166  137.2866  153.5130 H   0  0  0  0  0  0  0  0  0  0  0  0
  149.3859  138.3763  153.3528 H   0  0  0  0  0  0  0  0  0  0  0  0
  148.8204  140.2806  154.8375 H   0  0  0  0  0  0  0  0  0  0  0  0
  152.6549  140.3335  158.2828 H   0  0  0  0  0  0  0  0  0  0  0  0
  153.6542  139.5259  160.4326 H   0  0  0  0  0  0  0  0  0  0  0  0
  153.8985  141.0667  162.3681 H   0  0  0  0  0  0  0  0  0  0  0  0
  153.1483  143.4547  162.1946 H   0  0  0  0  0  0  0  0  0  0  0  0
  1  2  1  0  0  0  0
  1 21  1  0  0  0  0
  1 22  1  0  0  0  0
  1 23  1  0  0  0  0
  2 20  1  0  0  0  0
  2  3  1  0  0  0  0
  3  4  2  0  0  0  0
  3  5  1  0  0  0  0
  5  6  1  0  0  0  0
  5 15  1  0  0  0  0
  6  7  1  0  0  0  0
  6 24  1  0  0  0  0
  6 25  1  0  0  0  0
  7  8  1  0  0  0  0
  7  9  1  0  0  0  0
  7 26  1  0  0  0  0
  8 27  1  0  0  0  0
  9 14  1  0  0  0  0
  9 10  2  0  0  0  0
 10 11  1  0  0  0  0
 10 28  1  0  0  0  0
 11 12  2  0  0  0  0
 11 29  1  0  0  0  0
 12 13  1  0  0  0  0
 12 30  1  0  0  0  0
 13 14  2  0  0  0  0
 13 31  1  0  0  0  0
 14 32  1  0  0  0  0
 15 20  2  0  0  0  0
 15 16  1  0  0  0  0
 16 17  2  0  0  0  0
 16 33  1  0  0  0  0
 17 18  1  0  0  0  0
 17 34  1  0  0  0  0
 18 19  2  0  0  0  0
 18 35  1  0  0  0  0
 19 20  1  0  0  0  0
 19 36  1  0  0  0  0
M  END
> <s_m_source_file>
AV-unprocessed.smi

> <i_m_source_file_index>
412

> <i_lp_mmshare_version>
43012

> <i_f3d_flags>
0

> <s_epik_input>
W2NIXTFbY0hdW2NIXVtjSF1jKGMxMiluKFtDSDNdKWMoPU8pbjJbQ0gyXVtDQEhdKFtPSF0pYzNbY0hdW2NIXVtjSF1bY0hdW2NIXTM=

> <s_epik_cmdline>
J2VwaWtfcHl0aG9uJywgJy1waCcsICc3LjAnLCAnLXRuJywgJzgnLCAnLW1hJywgJzIwMCcsICctbWV0YWxfYmluZGluZycsICctaW1hZScsICc8aW5maWxlLm1hZT4nLCAnLW9tYWUnLCAnPG91dGZpbGUubWFlPic=

> <r_lp_tautomer_probability>
1

> <r_epik_Ionization_Penalty>
1.34619e-06

> <r_epik_Ionization_Penalty_Charging>
2.57375e-09

> <r_epik_Ionization_Penalty_Neutral>
1.34362e-06

> <r_epik_State_Penalty>
-0

> <r_epik_Charging_Adjusted_Penalty>
2.57375e-09

> <i_epik_Tot_Q>
0

> <i_epik_Tot_abs_Q>
0

> <r_epik_Metal_State_Penalty>
-0

> <b_epik_Metal_Only>
0

> <s_lp_Force_Field>
OPLS_2005

> <r_lp_Energy>
43.5229

> <b_lp_Chiralities_Consistent>
1

> <s_lp_Variant>
AV-unprocessed.smi:412-2

> <Gold.Version>
5.8.1

> <Gold.Id.Protein>
6NUR|6NUR_protein|mol2

> <Gold.PLP.Fitness>
50.8248

> <Gold.PLP.PLP>
-49.2141

> <Gold.PLP.part.hbond>
-1.2259

> <Gold.PLP.part.metal>
0.0000

> <Gold.PLP.part.buried>
-2.4889

> <Gold.PLP.part.nonpolar>
-46.5249

> <Gold.PLP.part.repulsive>
0.2822

> <Gold.PLP.ligand.clash>
0.0103

> <Gold.PLP.ligand.torsion>
0.6941

> <Gold.PLP.Chemscore.Hbond>
1.0000

> <Gold.PLP.Chemscore.CHOScore>
0.0000

> <Gold.PLP.Chemscore.Metal>
0.0000

> <Gold.Chemscore.Hbonds>
donor molecule, donor type, donor heavy atom, donor atom, acceptor molecule, acceptor atom, score
      L1  H     8    27       P1  8028  1.00

> <Gold.PLP.Chemscore.Internal.Correction>
0.0092

> <Gold.Rescore>
     Score         DG    S(hbond)    S(metal)    S(lipo)     H(rot)  DE(clash)    DE(int)     intcor
     17.17     -19.21       0.98        0.00     127.66       1.76       1.27       0.77       ----

> <Gold.Chemscore.Fitness>
17.1674

> <Gold.Chemscore.DG>
-19.2073

> <Gold.Chemscore.ZeroCoef>
-5.4800

> <Gold.Chemscore.Hbond>
0.9837

> <Gold.Chemscore.Metal>
0.0000

> <Gold.Chemscore.Lipo>
127.6569

> <Gold.Chemscore.Internal_Hbond>
0.0000

> <Gold.Chemscore.DEClash>
1.2681

> <Gold.Chemscore.DEInternal>
0.7718

> <Gold.Chemscore.Rot>
1.7555

> <Gold.Chemscore.Internal.Correction>
   9.000000E+99

> <Gold.Chemscore.Hbonds>
donor molecule, donor type, donor heavy atom, donor atom, acceptor molecule, acceptor atom, score
      L1  H     8    27       P1  8028  0.97

> <Gold.Chemscore.Hbond.Weighted>
-3.2856

> <Gold.Chemscore.Metal.Weighted>
-0.0000

> <Gold.Chemscore.Lipo.Weighted>
-14.9359

> <Gold.Chemscore.Internal_Hbond.Weighted>
0.0000

> <Gold.Chemscore.DEClash.Weighted>
1.2681

> <Gold.Chemscore.DEInternal.Weighted>
0.7718

> <Gold.Chemscore.Rot.Weighted>
4.4942

> <Gold.Chemscore.Internal.Correction.Weighted>
   9.000000E+99

> <Gold.Protein.RotatedTorsions>
[ 6907 6896 6895 6894 ] final  -31.43 input  -60.11 | X-H torsion
[ 7974 7965 7964 7962 ] final -151.60 input  175.53 | X-H torsion
[ 8008 7997 7996 7995 ] final   52.80 input   59.86 | X-H torsion
[ 10167 10162 10161 10158 ] final   54.62 input  -65.29 | X-H torsion
[ 10718 10713 10712 10709 ] final -151.03 input   66.30 | X-H torsion
[ 10763 10752 10751 10750 ] final  -60.10 input  -60.55 | X-H torsion
[ 11005 11000 10999 10996 ] final  137.98 input  -57.11 | X-H torsion

> <Gold.Protein.ActiveResidues>
 VAL166  LYS551  ARG553  GLY616  TRP617  ASP618  TYR619  PRO620  LYS621  CYS622 
 ASP623  PHE694  ASN695  SER759  ASP760  ASP761  ALA762  ILE779  LEU786  VAL792 
 PHE793  MET794  SER795  GLU796  ALA797  LYS798  CYS799  TRP800  GLU811  SER814 

> <Gold.Protein.RotatedAtoms>
  151.0921  134.9922  159.8407 H   0  0  0  0  0  0  0  0  0  0  0  0  # atno 6907 bound_to 6896
  152.5430  134.2052  159.8738 H   0  0  0  0  0  0  0  0  0  0  0  0  # atno 6908 bound_to 6896
  151.2089  133.4523  159.2631 H   0  0  0  0  0  0  0  0  0  0  0  0  # atno 6909 bound_to 6896
  144.7840  140.4775  143.5819 H   0  0  0  0  0  0  0  0  0  0  0  0  # atno 7974 bound_to 7965
  155.4578  140.3460  155.4309 H   0  0  0  0  0  0  0  0  0  0  0  0  # atno 8008 bound_to 7997
  156.1180  140.1479  156.9275 H   0  0  0  0  0  0  0  0  0  0  0  0  # atno 8009 bound_to 7997
  154.4803  140.0872  156.7340 H   0  0  0  0  0  0  0  0  0  0  0  0  # atno 8010 bound_to 7997
  140.2281  144.3716  150.6424 H   0  0  0  0  0  0  0  0  0  0  0  0  # atno 10167 bound_to 10162
  156.4539  130.8181  151.2412 H   0  0  0  0  0  0  0  0  0  0  0  0  # atno 10718 bound_to 10713
  154.2640  135.6303  153.5285 H   0  0  0  0  0  0  0  0  0  0  0  0  # atno 10763 bound_to 10752
  152.9891  135.5594  154.5673 H   0  0  0  0  0  0  0  0  0  0  0  0  # atno 10764 bound_to 10752
  154.5228  135.2883  155.1223 H   0  0  0  0  0  0  0  0  0  0  0  0  # atno 10765 bound_to 10752
  140.0151  134.9422  157.0360 H   0  0  0  0  0  0  0  0  0  0  0  0  # atno 11005 bound_to 11000
  145.5971  139.1500  143.3150 LP  0  0  0  0  0  0  0  0  0  0  0  0  # atno 17320 bound_to 7965
  146.2063  140.6094  142.9079 LP  0  0  0  0  0  0  0  0  0  0  0  0  # atno 17321 bound_to 7965
  140.6205  143.2176  151.6703 LP  0  0  0  0  0  0  0  0  0  0  0  0  # atno 17342 bound_to 10162
  139.5120  144.3492  152.0668 LP  0  0  0  0  0  0  0  0  0  0  0  0  # atno 17343 bound_to 10162
  157.7501  131.0129  150.3403 LP  0  0  0  0  0  0  0  0  0  0  0  0  # atno 17370 bound_to 10713
  156.3787  130.3876  149.7118 LP  0  0  0  0  0  0  0  0  0  0  0  0  # atno 17371 bound_to 10713
  140.4485  134.1607  155.7179 LP  0  0  0  0  0  0  0  0  0  0  0  0  # atno 17394 bound_to 11000
  141.1737  133.8556  157.1488 LP  0  0  0  0  0  0  0  0  0  0  0  0  # atno 17395 bound_to 11000

$$$$
