AV-unprocessed.smi:37|AV-procd|sdf|318|dock4
  -GOLD-   2262016143D 1   1.00000     0.00000
 Structure written by MMmdl.
 44 45  0  0  0  0  0  0  0  0  1 V2000
  147.4875  141.9031  154.3589 C   0  0  0  0  0  0  0  0  0  0  0  0
  148.1627  140.7789  153.5593 C   0  0  0  0  0  0  0  0  0  0  0  0
  149.0117  139.8401  154.4187 C   0  0  0  0  0  0  0  0  0  0  0  0
  150.2369  139.7677  154.3068 O   0  0  0  0  0  0  0  0  0  0  0  0
  148.2615  139.1323  155.2761 O   0  0  0  0  0  0  0  0  0  0  0  0
  148.8813  138.4140  156.3322 C   0  0  0  0  0  0  0  0  0  0  0  0
  148.1228  137.1078  156.6010 C   0  0  1  0  0  0  0  0  0  0  0  0
  148.3909  136.1397  155.5872 O   0  0  0  0  0  0  0  0  0  0  0  0
  148.7500  134.9295  156.1825 C   0  0  2  0  0  0  0  0  0  0  0  0
  148.1996  133.7720  155.3830 N   0  0  0  0  0  0  0  0  0  0  0  0
  147.4373  133.9595  154.2359 C   0  0  0  0  0  0  0  0  0  0  0  0
  146.9332  132.9315  153.5131 C   0  0  0  0  0  0  0  0  0  0  0  0
  146.1999  133.1885  152.4168 F   0  0  0  0  0  0  0  0  0  0  0  0
  147.1734  131.5487  153.9161 C   0  0  0  0  0  0  0  0  0  0  0  0
  146.7623  130.5523  153.3248 O   0  0  0  0  0  0  0  0  0  0  0  0
  147.9383  131.4102  155.0783 N   0  0  0  0  0  0  0  0  0  0  0  0
  148.4617  132.4608  155.8335 C   0  0  0  0  0  0  0  0  0  0  0  0
  149.1186  132.2264  156.8469 O   0  0  0  0  0  0  0  0  0  0  0  0
  148.2121  134.9698  157.6168 C   0  0  2  0  0  0  0  0  0  0  0  0
  146.2581  134.5437  157.6926 Br  0  0  0  0  0  0  0  0  0  0  0  0
  148.4475  136.4355  157.9414 C   0  0  2  0  0  0  0  0  0  0  0  0
  147.6237  136.9185  158.9949 O   0  0  0  0  0  0  0  0  0  0  0  0
  147.9244  136.6299  160.2729 C   0  0  0  0  0  0  0  0  0  0  0  0
  149.0581  136.4420  160.7178 O   0  0  0  0  0  0  0  0  0  0  0  0
  146.6737  136.5510  161.1507 C   0  0  0  0  0  0  0  0  0  0  0  0
  146.6366  135.3120  162.0574 C   0  0  0  0  0  0  0  0  0  0  0  0
  148.1259  130.4713  155.3984 H   0  0  0  0  0  0  0  0  0  0  0  0
  146.9030  142.5447  153.6994 H   0  0  0  0  0  0  0  0  0  0  0  0
  148.2241  142.5315  154.8612 H   0  0  0  0  0  0  0  0  0  0  0  0
  146.8107  141.5040  155.1151 H   0  0  0  0  0  0  0  0  0  0  0  0
  147.4045  140.1868  153.0464 H   0  0  0  0  0  0  0  0  0  0  0  0
  148.8004  141.2107  152.7876 H   0  0  0  0  0  0  0  0  0  0  0  0
  149.9129  138.1784  156.0659 H   0  0  0  0  0  0  0  0  0  0  0  0
  148.9091  139.0314  157.2310 H   0  0  0  0  0  0  0  0  0  0  0  0
  147.0513  137.3067  156.5497 H   0  0  0  0  0  0  0  0  0  0  0  0
  149.8382  134.8458  156.1363 H   0  0  0  0  0  0  0  0  0  0  0  0
  147.2157  134.9599  153.8942 H   0  0  0  0  0  0  0  0  0  0  0  0
  148.7487  134.2806  158.2693 H   0  0  0  0  0  0  0  0  0  0  0  0
  149.5034  136.5826  158.1735 H   0  0  0  0  0  0  0  0  0  0  0  0
  146.6237  137.4531  161.7608 H   0  0  0  0  0  0  0  0  0  0  0  0
  145.7962  136.5582  160.5039 H   0  0  0  0  0  0  0  0  0  0  0  0
  145.7251  135.3017  162.6551 H   0  0  0  0  0  0  0  0  0  0  0  0
  147.4820  135.2967  162.7460 H   0  0  0  0  0  0  0  0  0  0  0  0
  146.6576  134.3909  161.4739 H   0  0  0  0  0  0  0  0  0  0  0  0
  1  2  1  0  0  0  0
  1 28  1  0  0  0  0
  1 29  1  0  0  0  0
  1 30  1  0  0  0  0
  2  3  1  0  0  0  0
  2 31  1  0  0  0  0
  2 32  1  0  0  0  0
  3  4  2  0  0  0  0
  3  5  1  0  0  0  0
  5  6  1  0  0  0  0
  6  7  1  0  0  0  0
  6 33  1  0  0  0  0
  6 34  1  0  0  0  0
  7 21  1  0  0  0  0
  7  8  1  0  0  0  0
  7 35  1  0  0  0  0
  8  9  1  0  0  0  0
  9 10  1  0  0  0  0
  9 19  1  0  0  0  0
  9 36  1  0  0  0  0
 10 17  1  0  0  0  0
 10 11  1  0  0  0  0
 11 12  2  0  0  0  0
 11 37  1  0  0  0  0
 12 13  1  0  0  0  0
 12 14  1  0  0  0  0
 14 15  2  0  0  0  0
 14 16  1  0  0  0  0
 16 27  1  0  0  0  0
 16 17  1  0  0  0  0
 17 18  2  0  0  0  0
 19 20  1  0  0  0  0
 19 21  1  0  0  0  0
 19 38  1  0  0  0  0
 21 22  1  0  0  0  0
 21 39  1  0  0  0  0
 22 23  1  0  0  0  0
 23 24  2  0  0  0  0
 23 25  1  0  0  0  0
 25 26  1  0  0  0  0
 25 40  1  0  0  0  0
 25 41  1  0  0  0  0
 26 42  1  0  0  0  0
 26 43  1  0  0  0  0
 26 44  1  0  0  0  0
M  END
> <s_m_source_file>
AV-unprocessed.smi

> <i_m_source_file_index>
37

> <i_lp_mmshare_version>
43012

> <i_f3d_flags>
0

> <s_epik_input>
W0NIM11bQ0gyXUMoPU8pT1tDSDJdW0NAQEhdMU9bQ0BASF0objJbY0hdYyhGKWMoPU8pW25IXWMyPU8pW0NAQEhdKEJyKVtDQEhdMU9DKD1PKVtDSDJdW0NIM10=

> <s_epik_cmdline>
J2VwaWtfcHl0aG9uJywgJy1waCcsICc3LjAnLCAnLXRuJywgJzgnLCAnLW1hJywgJzIwMCcsICctbWV0YWxfYmluZGluZycsICctaW1hZScsICc8aW5maWxlLm1hZT4nLCAnLW9tYWUnLCAnPG91dGZpbGUubWFlPic=

> <r_lp_tautomer_probability>
0.999537

> <r_epik_Ionization_Penalty>
0.104106

> <r_epik_Ionization_Penalty_Charging>
0.104106

> <r_epik_Ionization_Penalty_Neutral>
3.94675e-16

> <r_epik_State_Penalty>
0.0940182

> <r_epik_Charging_Adjusted_Penalty>
0.198124

> <i_epik_Tot_Q>
0

> <i_epik_Tot_abs_Q>
0

> <r_epik_Metal_State_Penalty>
3.05314

> <b_epik_Metal_Only>
0

> <s_epik_Chemistry_Notes>
This compound has an ester and may undergo hydrolysis at high or low pH. This compound contains an acetal/aminal-like group ( X-CH(R)-Y where X, Y are N, S, or O) that may be acid/base labile, releasing an aldehyde.

> <s_lp_Force_Field>
OPLS_2005

> <r_lp_Energy>
25.1984

> <b_lp_Chiralities_Consistent>
1

> <s_lp_Variant>
AV-unprocessed.smi:37-16

> <Gold.Version>
5.8.1

> <Gold.Id.Protein>
6NUR|6NUR_protein|mol2

> <Gold.PLP.Fitness>
41.8807

> <Gold.PLP.PLP>
-32.1413

> <Gold.PLP.part.hbond>
-2.8414

> <Gold.PLP.part.metal>
0.0000

> <Gold.PLP.part.buried>
-0.7187

> <Gold.PLP.part.nonpolar>
-28.3415

> <Gold.PLP.part.repulsive>
0.2649

> <Gold.PLP.ligand.clash>
0.0000

> <Gold.PLP.ligand.torsion>
1.1749

> <Gold.PLP.Chemscore.Hbond>
3.0000

> <Gold.PLP.Chemscore.CHOScore>
0.9914

> <Gold.PLP.Chemscore.Metal>
0.0000

> <Gold.Chemscore.Hbonds>
donor molecule, donor type, donor heavy atom, donor atom, acceptor molecule, acceptor atom, score
      P1  H  6931  6943       L1    24  0.45
      P1  H  7989  7998       L1     4  1.00

> <Gold.PLP.Chemscore.Internal.Correction>
0.1152

> <Gold.Rescore>
     Score         DG    S(hbond)    S(metal)    S(lipo)     H(rot)  DE(clash)    DE(int)     intcor
     10.57     -11.93       2.90        0.00      45.29       3.33       0.02       1.33       ----

> <Gold.Chemscore.Fitness>
10.5742

> <Gold.Chemscore.DG>
-11.9291

> <Gold.Chemscore.ZeroCoef>
-5.4800

> <Gold.Chemscore.Hbond>
2.8970

> <Gold.Chemscore.Metal>
0.0000

> <Gold.Chemscore.Lipo>
45.2864

> <Gold.Chemscore.Internal_Hbond>
0.0000

> <Gold.Chemscore.DEClash>
0.0231

> <Gold.Chemscore.DEInternal>
1.3318

> <Gold.Chemscore.Rot>
3.3303

> <Gold.Chemscore.Internal.Correction>
   9.000000E+99

> <Gold.Chemscore.Hbonds>
donor molecule, donor type, donor heavy atom, donor atom, acceptor molecule, acceptor atom, score
      P1  H  6931  6943       L1    24  0.05
      P1  H  7989  7998       L1     4  0.98

> <Gold.Chemscore.Hbond.Weighted>
-9.6761

> <Gold.Chemscore.Metal.Weighted>
-0.0000

> <Gold.Chemscore.Lipo.Weighted>
-5.2985

> <Gold.Chemscore.Internal_Hbond.Weighted>
0.0000

> <Gold.Chemscore.DEClash.Weighted>
0.0231

> <Gold.Chemscore.DEInternal.Weighted>
1.3318

> <Gold.Chemscore.Rot.Weighted>
8.5256

> <Gold.Chemscore.Internal.Correction.Weighted>
   9.000000E+99

> <Gold.Protein.RotatedTorsions>
[ 6907 6896 6895 6894 ] final  -39.14 input  -60.11 | X-H torsion
[ 7974 7965 7964 7962 ] final    4.94 input  175.53 | X-H torsion
[ 8008 7997 7996 7995 ] final -114.27 input   59.86 | X-H torsion
[ 10167 10162 10161 10158 ] final  150.28 input  -65.29 | X-H torsion
[ 10718 10713 10712 10709 ] final    1.39 input   66.30 | X-H torsion
[ 10763 10752 10751 10750 ] final   -6.03 input  -60.55 | X-H torsion
[ 11005 11000 10999 10996 ] final   94.46 input  -57.11 | X-H torsion

> <Gold.Protein.ActiveResidues>
 VAL166  LYS551  ARG553  GLY616  TRP617  ASP618  TYR619  PRO620  LYS621  CYS622 
 ASP623  PHE694  ASN695  SER759  ASP760  ASP761  ALA762  ILE779  LEU786  VAL792 
 PHE793  MET794  SER795  GLU796  ALA797  LYS798  CYS799  TRP800  GLU811  SER814 

> <Gold.Protein.RotatedAtoms>
  150.9940  134.9268  159.7915 H   0  0  0  0  0  0  0  0  0  0  0  0  # atno 6907 bound_to 6896
  152.5259  134.3244  159.9170 H   0  0  0  0  0  0  0  0  0  0  0  0  # atno 6908 bound_to 6896
  151.3249  133.3983  159.2692 H   0  0  0  0  0  0  0  0  0  0  0  0  # atno 6909 bound_to 6896
  146.2442  140.0459  142.8378 H   0  0  0  0  0  0  0  0  0  0  0  0  # atno 7974 bound_to 7965
  155.0337  140.0393  157.2483 H   0  0  0  0  0  0  0  0  0  0  0  0  # atno 8008 bound_to 7997
  154.7275  140.2724  155.6462 H   0  0  0  0  0  0  0  0  0  0  0  0  # atno 8009 bound_to 7997
  156.2833  140.2690  156.1965 H   0  0  0  0  0  0  0  0  0  0  0  0  # atno 8010 bound_to 7997
  139.4852  144.5535  151.7359 H   0  0  0  0  0  0  0  0  0  0  0  0  # atno 10167 bound_to 10162
  156.8475  130.5542  149.5672 H   0  0  0  0  0  0  0  0  0  0  0  0  # atno 10718 bound_to 10713
  153.4067  135.7006  153.6388 H   0  0  0  0  0  0  0  0  0  0  0  0  # atno 10763 bound_to 10752
  153.4899  135.3675  155.2486 H   0  0  0  0  0  0  0  0  0  0  0  0  # atno 10764 bound_to 10752
  154.8714  135.4086  154.3411 H   0  0  0  0  0  0  0  0  0  0  0  0  # atno 10765 bound_to 10752
  139.8798  134.8846  156.3867 H   0  0  0  0  0  0  0  0  0  0  0  0  # atno 11005 bound_to 11000
  145.1027  140.9356  143.4703 LP  0  0  0  0  0  0  0  0  0  0  0  0  # atno 17320 bound_to 7965
  145.0656  139.3071  143.5858 LP  0  0  0  0  0  0  0  0  0  0  0  0  # atno 17321 bound_to 7965
  140.5092  144.1050  150.5991 LP  0  0  0  0  0  0  0  0  0  0  0  0  # atno 17342 bound_to 10162
  140.3970  143.2723  151.9992 LP  0  0  0  0  0  0  0  0  0  0  0  0  # atno 17343 bound_to 10162
  156.0846  130.5848  150.9625 LP  0  0  0  0  0  0  0  0  0  0  0  0  # atno 17370 bound_to 10713
  157.6322  131.0920  150.8420 LP  0  0  0  0  0  0  0  0  0  0  0  0  # atno 17371 bound_to 10713
  140.9361  133.7546  156.0086 LP  0  0  0  0  0  0  0  0  0  0  0  0  # atno 17394 bound_to 11000
  140.8274  134.3218  157.5361 LP  0  0  0  0  0  0  0  0  0  0  0  0  # atno 17395 bound_to 11000

$$$$
