AV-unprocessed.smi:2167|AV-procd|sdf|8816|dock2
  -GOLD-   2272012 03D 1   1.00000     0.00000
 Structure written by MMmdl.
 41 42  0  0  0  0  0  0  0  0  1 V2000
  145.6819  142.0411  155.9866 C   0  0  0  0  0  0  0  0  0  0  0  0
  146.7890  142.2009  154.9346 C   0  0  0  0  0  0  0  0  0  0  0  0
  146.3337  142.9807  153.6929 C   0  0  0  0  0  0  0  0  0  0  0  0
  147.4170  140.8911  154.5762 C   0  0  0  0  0  0  0  0  0  0  0  0
  148.6693  140.5556  154.9009 N   0  0  0  0  0  0  0  0  0  0  0  0
  149.0191  139.2752  154.4595 C   0  0  0  0  0  0  0  0  0  0  0  0
  150.3887  138.7315  154.7434 C   0  0  0  0  0  0  0  0  0  0  0  0
  151.1628  139.6958  155.6426 C   0  0  0  0  0  0  0  0  0  0  0  0
  152.2547  140.1341  155.2806 O   0  0  0  0  0  0  0  0  0  0  0  0
  150.5849  140.0193  156.8114 N   0  0  0  0  0  0  0  0  0  0  0  0
  151.1445  140.9256  157.8164 C   0  0  2  0  0  0  0  0  0  0  0  0
  151.2970  142.3156  157.1569 C   0  0  0  0  0  0  0  0  0  0  0  0
  151.3469  143.4779  158.1639 C   0  0  0  0  0  0  0  0  0  0  0  0
  152.5692  143.4790  159.0949 C   0  0  0  0  0  0  0  0  0  0  0  0
  152.6510  142.2466  160.0119 C   0  0  0  0  0  0  0  0  0  0  0  0
  153.1353  141.0676  159.3057 N   0  0  0  0  0  0  0  0  0  0  0  0
  152.5324  140.4327  158.2892 C   0  0  0  0  0  0  0  0  0  0  0  0
  153.0808  139.4761  157.7418 O   0  0  0  0  0  0  0  0  0  0  0  0
  148.0069  138.6435  153.7805 C   0  0  0  0  0  0  0  0  0  0  0  0
  146.5750  139.6306  153.6812 S   0  0  0  0  0  0  0  0  0  0  0  0
  146.0653  141.5648  156.8896 H   0  0  0  0  0  0  0  0  0  0  0  0
  144.8615  141.4294  155.6097 H   0  0  0  0  0  0  0  0  0  0  0  0
  145.2698  143.0089  156.2733 H   0  0  0  0  0  0  0  0  0  0  0  0
  147.5727  142.7988  155.4021 H   0  0  0  0  0  0  0  0  0  0  0  0
  147.1656  143.1479  153.0081 H   0  0  0  0  0  0  0  0  0  0  0  0
  145.9305  143.9559  153.9671 H   0  0  0  0  0  0  0  0  0  0  0  0
  145.5574  142.4417  153.1486 H   0  0  0  0  0  0  0  0  0  0  0  0
  150.3211  137.7592  155.2334 H   0  0  0  0  0  0  0  0  0  0  0  0
  150.9455  138.5710  153.8190 H   0  0  0  0  0  0  0  0  0  0  0  0
  149.6855  139.6108  157.0203 H   0  0  0  0  0  0  0  0  0  0  0  0
  150.4583  140.9840  158.6631 H   0  0  0  0  0  0  0  0  0  0  0  0
  152.1702  142.3453  156.5026 H   0  0  0  0  0  0  0  0  0  0  0  0
  150.4400  142.4956  156.5053 H   0  0  0  0  0  0  0  0  0  0  0  0
  151.3350  144.4169  157.6096 H   0  0  0  0  0  0  0  0  0  0  0  0
  150.4353  143.4767  158.7628 H   0  0  0  0  0  0  0  0  0  0  0  0
  153.4868  143.5773  158.5134 H   0  0  0  0  0  0  0  0  0  0  0  0
  152.5160  144.3704  159.7207 H   0  0  0  0  0  0  0  0  0  0  0  0
  153.3557  142.4474  160.8190 H   0  0  0  0  0  0  0  0  0  0  0  0
  151.6908  142.0416  160.4873 H   0  0  0  0  0  0  0  0  0  0  0  0
  154.0342  140.7122  159.5979 H   0  0  0  0  0  0  0  0  0  0  0  0
  148.0162  137.6580  153.3386 H   0  0  0  0  0  0  0  0  0  0  0  0
  1  2  1  0  0  0  0
  1 21  1  0  0  0  0
  1 22  1  0  0  0  0
  1 23  1  0  0  0  0
  2  3  1  0  0  0  0
  2  4  1  0  0  0  0
  2 24  1  0  0  0  0
  3 25  1  0  0  0  0
  3 26  1  0  0  0  0
  3 27  1  0  0  0  0
  4 20  1  0  0  0  0
  4  5  2  0  0  0  0
  5  6  1  0  0  0  0
  6  7  1  0  0  0  0
  6 19  2  0  0  0  0
  7  8  1  0  0  0  0
  7 28  1  0  0  0  0
  7 29  1  0  0  0  0
  8  9  2  0  0  0  0
  8 10  1  0  0  0  0
 10 11  1  0  0  0  0
 10 30  1  0  0  0  0
 11 17  1  0  0  0  0
 11 12  1  0  0  0  0
 11 31  1  0  0  0  0
 12 13  1  0  0  0  0
 12 32  1  0  0  0  0
 12 33  1  0  0  0  0
 13 14  1  0  0  0  0
 13 34  1  0  0  0  0
 13 35  1  0  0  0  0
 14 15  1  0  0  0  0
 14 36  1  0  0  0  0
 14 37  1  0  0  0  0
 15 16  1  0  0  0  0
 15 38  1  0  0  0  0
 15 39  1  0  0  0  0
 16 17  1  0  0  0  0
 16 40  1  0  0  0  0
 17 18  2  0  0  0  0
 19 20  1  0  0  0  0
 19 41  1  0  0  0  0
M  END
> <s_m_source_file>
AV-unprocessed.smi

> <i_m_source_file_index>
2167

> <i_lp_mmshare_version>
43012

> <i_f3d_flags>
0

> <s_epik_input>
W0NIM11bQ0hdKFtDSDNdKWMxbmMoW2NIXXMxKVtDSDJdQyg9TylbTkhdW0NAQEhdMltDSDJdW0NIMl1bQ0gyXVtDSDJdW05IXUMyPU8=

> <s_epik_cmdline>
J2VwaWtfcHl0aG9uJywgJy1waCcsICc3LjAnLCAnLXRuJywgJzgnLCAnLW1hJywgJzIwMCcsICctbWV0YWxfYmluZGluZycsICctaW1hZScsICc8aW5maWxlLm1hZT4nLCAnLW9tYWUnLCAnPG91dGZpbGUubWFlPic=

> <r_lp_tautomer_probability>
1

> <r_epik_Ionization_Penalty>
3.1619e-05

> <r_epik_Ionization_Penalty_Charging>
0

> <r_epik_Ionization_Penalty_Neutral>
3.1619e-05

> <r_epik_State_Penalty>
-0

> <r_epik_Charging_Adjusted_Penalty>
0

> <i_epik_Tot_Q>
0

> <i_epik_Tot_abs_Q>
0

> <r_epik_Metal_State_Penalty>
-0

> <b_epik_Metal_Only>
0

> <s_lp_Force_Field>
OPLS_2005

> <r_lp_Energy>
2.42102

> <b_lp_Chiralities_Consistent>
1

> <s_lp_Variant>
AV-unprocessed.smi:2167-1

> <Gold.Version>
5.8.1

> <Gold.Id.Protein>
6NUR|6NUR_protein|mol2

> <Gold.PLP.Fitness>
44.1493

> <Gold.PLP.PLP>
-36.2506

> <Gold.PLP.part.hbond>
-2.0375

> <Gold.PLP.part.metal>
0.0000

> <Gold.PLP.part.buried>
-4.1811

> <Gold.PLP.part.nonpolar>
-30.8691

> <Gold.PLP.part.repulsive>
0.2436

> <Gold.PLP.ligand.clash>
0.0000

> <Gold.PLP.ligand.torsion>
0.1302

> <Gold.PLP.Chemscore.Hbond>
1.6880

> <Gold.PLP.Chemscore.CHOScore>
1.0000

> <Gold.PLP.Chemscore.Metal>
0.0000

> <Gold.Chemscore.Hbonds>
donor molecule, donor type, donor heavy atom, donor atom, acceptor molecule, acceptor atom, score
      P1  H  7989  7998       L1     9  0.60
      P1  H  7997  8010       L1    18  1.00
      L1  C    19    41       P1  7948  1.00

> <Gold.PLP.Chemscore.Internal.Correction>
0.0951

> <Gold.Rescore>
     Score         DG    S(hbond)    S(metal)    S(lipo)     H(rot)  DE(clash)    DE(int)     intcor
     11.80     -16.42       1.43        0.00      87.02       1.57       0.28       4.34       ----

> <Gold.Chemscore.Fitness>
11.8003

> <Gold.Chemscore.DG>
-16.4234

> <Gold.Chemscore.ZeroCoef>
-5.4800

> <Gold.Chemscore.Hbond>
1.4339

> <Gold.Chemscore.Metal>
0.0000

> <Gold.Chemscore.Lipo>
87.0235

> <Gold.Chemscore.Internal_Hbond>
0.0000

> <Gold.Chemscore.DEClash>
0.2782

> <Gold.Chemscore.DEInternal>
4.3448

> <Gold.Chemscore.Rot>
1.5733

> <Gold.Chemscore.Internal.Correction>
   9.000000E+99

> <Gold.Chemscore.Hbonds>
donor molecule, donor type, donor heavy atom, donor atom, acceptor molecule, acceptor atom, score
      P1  H  7989  7998       L1     9  0.11
      P1  H  7997  8010       L1    18  0.70

> <Gold.Chemscore.Hbond.Weighted>
-4.7892

> <Gold.Chemscore.Metal.Weighted>
-0.0000

> <Gold.Chemscore.Lipo.Weighted>
-10.1818

> <Gold.Chemscore.Internal_Hbond.Weighted>
0.0000

> <Gold.Chemscore.DEClash.Weighted>
0.2782

> <Gold.Chemscore.DEInternal.Weighted>
4.3448

> <Gold.Chemscore.Rot.Weighted>
4.0276

> <Gold.Chemscore.Internal.Correction.Weighted>
   9.000000E+99

> <Gold.Protein.RotatedTorsions>
[ 6907 6896 6895 6894 ] final   32.12 input  -60.11 | X-H torsion
[ 7974 7965 7964 7962 ] final   41.33 input  175.53 | X-H torsion
[ 8008 7997 7996 7995 ] final   43.60 input   59.86 | X-H torsion
[ 10167 10162 10161 10158 ] final   32.22 input  -65.29 | X-H torsion
[ 10718 10713 10712 10709 ] final   37.19 input   66.30 | X-H torsion
[ 10763 10752 10751 10750 ] final -168.70 input  -60.55 | X-H torsion
[ 11005 11000 10999 10996 ] final -142.04 input  -57.11 | X-H torsion

> <Gold.Protein.ActiveResidues>
 VAL166  LYS551  ARG553  GLY616  TRP617  ASP618  TYR619  PRO620  LYS621  CYS622 
 ASP623  PHE694  ASN695  SER759  ASP760  ASP761  ALA762  ILE779  LEU786  VAL792 
 PHE793  MET794  SER795  GLU796  ALA797  LYS798  CYS799  TRP800  GLU811  SER814 

> <Gold.Protein.RotatedAtoms>
  152.0700  134.9540  160.0574 H   0  0  0  0  0  0  0  0  0  0  0  0  # atno 6907 bound_to 6896
  152.0869  133.4176  159.4534 H   0  0  0  0  0  0  0  0  0  0  0  0  # atno 6908 bound_to 6896
  150.6836  134.2836  159.4681 H   0  0  0  0  0  0  0  0  0  0  0  0  # atno 6909 bound_to 6896
  146.0832  139.5428  142.9523 H   0  0  0  0  0  0  0  0  0  0  0  0  # atno 7974 bound_to 7965
  155.3053  140.3387  155.4246 H   0  0  0  0  0  0  0  0  0  0  0  0  # atno 8008 bound_to 7997
  156.1981  140.1722  156.7994 H   0  0  0  0  0  0  0  0  0  0  0  0  # atno 8009 bound_to 7997
  154.5525  140.0703  156.8674 H   0  0  0  0  0  0  0  0  0  0  0  0  # atno 8010 bound_to 7997
  140.4519  144.1036  150.6193 H   0  0  0  0  0  0  0  0  0  0  0  0  # atno 10167 bound_to 10162
  157.3440  130.7563  149.6931 H   0  0  0  0  0  0  0  0  0  0  0  0  # atno 10718 bound_to 10713
  154.6601  135.2923  154.9877 H   0  0  0  0  0  0  0  0  0  0  0  0  # atno 10763 bound_to 10752
  154.0940  135.6586  153.4861 H   0  0  0  0  0  0  0  0  0  0  0  0  # atno 10764 bound_to 10752
  153.0425  135.5226  154.7548 H   0  0  0  0  0  0  0  0  0  0  0  0  # atno 10765 bound_to 10752
  140.8265  134.2569  157.4877 H   0  0  0  0  0  0  0  0  0  0  0  0  # atno 11005 bound_to 11000
  145.6179  141.0328  143.1931 LP  0  0  0  0  0  0  0  0  0  0  0  0  # atno 17320 bound_to 7965
  144.7307  139.7733  143.7348 LP  0  0  0  0  0  0  0  0  0  0  0  0  # atno 17321 bound_to 7965
  140.4197  143.2617  151.9730 LP  0  0  0  0  0  0  0  0  0  0  0  0  # atno 17342 bound_to 10162
  139.4797  144.5841  151.7882 LP  0  0  0  0  0  0  0  0  0  0  0  0  # atno 17343 bound_to 10162
  155.9711  130.4159  150.4207 LP  0  0  0  0  0  0  0  0  0  0  0  0  # atno 17370 bound_to 10713
  157.2259  131.0493  151.2520 LP  0  0  0  0  0  0  0  0  0  0  0  0  # atno 17371 bound_to 10713
  139.8706  134.9563  156.4233 LP  0  0  0  0  0  0  0  0  0  0  0  0  # atno 17394 bound_to 11000
  140.9044  133.7756  155.9718 LP  0  0  0  0  0  0  0  0  0  0  0  0  # atno 17395 bound_to 11000

$$$$
