AV-unprocessed.smi:746|AV-procd|sdf|3578|dock3
  -GOLD-   22720 0573D 1   1.00000     0.00000
 Structure written by MMmdl.
 48 50  0  0  0  0  0  0  0  0  1 V2000
  152.0286  131.0113  157.2377 C   0  0  0  0  0  0  0  0  0  0  0  0
  152.5743  132.2415  157.6808 O   0  0  0  0  0  0  0  0  0  0  0  0
  153.9709  132.3286  157.4525 C   0  0  0  0  0  0  0  0  0  0  0  0
  154.4988  133.6402  158.0407 C   0  0  0  0  0  0  0  0  0  0  0  0
  153.9673  134.7287  157.2906 O   0  0  0  0  0  0  0  0  0  0  0  0
  153.7990  135.9436  157.9226 C   0  0  0  0  0  0  0  0  0  0  0  0
  153.6697  137.1023  157.1316 C   0  0  0  0  0  0  0  0  0  0  0  0
  153.4838  138.3423  157.7709 C   0  0  0  0  0  0  0  0  0  0  0  0
  153.4226  138.3877  159.1780 C   0  0  0  0  0  0  0  0  0  0  0  0
  153.2448  139.6525  159.7995 N   0  0  0  0  0  0  0  0  0  0  0  0
  152.7904  140.8007  159.2563 C   0  0  0  0  0  0  0  0  0  0  0  0
  152.5011  140.9023  158.0629 O   0  0  0  0  0  0  0  0  0  0  0  0
  152.7527  141.8584  160.1152 N   0  0  0  0  0  0  0  0  0  0  0  0
  153.4027  141.8408  161.4488 C   0  0  0  0  0  0  0  0  0  0  0  0
  152.7128  142.7214  162.4975 C   0  0  0  0  0  0  0  0  0  0  0  0
  152.5281  144.1391  161.9767 C   0  0  0  0  0  0  0  0  0  0  0  0
  151.6306  144.1049  160.7380 C   0  0  1  0  0  0  0  0  0  0  0  0
  151.5711  145.4708  160.0276 C   0  0  0  0  0  0  0  0  0  0  0  0
  152.3846  145.3377  158.7295 C   0  0  0  0  0  0  0  0  0  0  0  0
  153.0706  143.9720  158.7943 C   0  0  0  0  0  0  0  0  0  0  0  0
  152.1310  143.1268  159.6582 C   0  0  1  0  0  0  0  0  0  0  0  0
  153.5839  137.1716  159.8850 C   0  0  0  0  0  0  0  0  0  0  0  0
  153.7640  135.9794  159.2777 N   0  0  0  0  0  0  0  0  0  0  0  0
  150.9566  130.9945  157.4331 H   0  0  0  0  0  0  0  0  0  0  0  0
  152.4793  130.1686  157.7635 H   0  0  0  0  0  0  0  0  0  0  0  0
  152.1780  130.8759  156.1657 H   0  0  0  0  0  0  0  0  0  0  0  0
  154.4939  131.4768  157.8901 H   0  0  0  0  0  0  0  0  0  0  0  0
  154.1592  132.3116  156.3780 H   0  0  0  0  0  0  0  0  0  0  0  0
  154.1713  133.7192  159.0786 H   0  0  0  0  0  0  0  0  0  0  0  0
  155.5901  133.6483  158.0310 H   0  0  0  0  0  0  0  0  0  0  0  0
  153.7094  137.0404  156.0541 H   0  0  0  0  0  0  0  0  0  0  0  0
  153.3810  139.2441  157.1849 H   0  0  0  0  0  0  0  0  0  0  0  0
  153.5608  139.7148  160.7563 H   0  0  0  0  0  0  0  0  0  0  0  0
  153.4450  140.8370  161.8737 H   0  0  0  0  0  0  0  0  0  0  0  0
  154.4359  142.1671  161.3215 H   0  0  0  0  0  0  0  0  0  0  0  0
  151.7447  142.2945  162.7630 H   0  0  0  0  0  0  0  0  0  0  0  0
  153.3060  142.7370  163.4123 H   0  0  0  0  0  0  0  0  0  0  0  0
  152.0818  144.7682  162.7473 H   0  0  0  0  0  0  0  0  0  0  0  0
  153.4994  144.5737  161.7373 H   0  0  0  0  0  0  0  0  0  0  0  0
  150.6290  143.8099  161.0549 H   0  0  0  0  0  0  0  0  0  0  0  0
  150.5393  145.7356  159.7931 H   0  0  0  0  0  0  0  0  0  0  0  0
  151.9655  146.2689  160.6582 H   0  0  0  0  0  0  0  0  0  0  0  0
  151.7103  145.3679  157.8727 H   0  0  0  0  0  0  0  0  0  0  0  0
  153.1038  146.1479  158.6072 H   0  0  0  0  0  0  0  0  0  0  0  0
  153.2333  143.5442  157.8045 H   0  0  0  0  0  0  0  0  0  0  0  0
  154.0431  144.0684  159.2793 H   0  0  0  0  0  0  0  0  0  0  0  0
  151.2500  142.8960  159.0547 H   0  0  0  0  0  0  0  0  0  0  0  0
  153.5903  137.1351  160.9633 H   0  0  0  0  0  0  0  0  0  0  0  0
  1  2  1  0  0  0  0
  1 24  1  0  0  0  0
  1 25  1  0  0  0  0
  1 26  1  0  0  0  0
  2  3  1  0  0  0  0
  3  4  1  0  0  0  0
  3 27  1  0  0  0  0
  3 28  1  0  0  0  0
  4  5  1  0  0  0  0
  4 29  1  0  0  0  0
  4 30  1  0  0  0  0
  5  6  1  0  0  0  0
  6 23  1  0  0  0  0
  6  7  2  0  0  0  0
  7  8  1  0  0  0  0
  7 31  1  0  0  0  0
  8  9  2  0  0  0  0
  8 32  1  0  0  0  0
  9 10  1  0  0  0  0
  9 22  1  0  0  0  0
 10 11  1  0  0  0  0
 10 33  1  0  0  0  0
 11 12  2  0  0  0  0
 11 13  1  0  0  0  0
 13 21  1  0  0  0  0
 13 14  1  0  0  0  0
 14 15  1  0  0  0  0
 14 34  1  0  0  0  0
 14 35  1  0  0  0  0
 15 16  1  0  0  0  0
 15 36  1  0  0  0  0
 15 37  1  0  0  0  0
 16 17  1  0  0  0  0
 16 38  1  0  0  0  0
 16 39  1  0  0  0  0
 17 21  1  0  0  0  0
 17 18  1  0  0  0  0
 17 40  1  0  0  0  0
 18 19  1  0  0  0  0
 18 41  1  0  0  0  0
 18 42  1  0  0  0  0
 19 20  1  0  0  0  0
 19 43  1  0  0  0  0
 19 44  1  0  0  0  0
 20 21  1  0  0  0  0
 20 45  1  0  0  0  0
 20 46  1  0  0  0  0
 21 47  1  0  0  0  0
 22 23  2  0  0  0  0
 22 48  1  0  0  0  0
M  END
> <s_m_source_file>
AV-unprocessed.smi

> <i_m_source_file_index>
746

> <i_lp_mmshare_version>
43012

> <i_f3d_flags>
0

> <s_epik_input>
W0NIM11PW0NIMl1bQ0gyXU9jMVtjSF1bY0hdYyhbY0hdbjEpW05IXUMoPU8pTihbQ0gyXVtDSDJdW0NIMl0yKVtDQEhdKFtDQEBIXTIzKVtDSDJdW0NIMl1bQ0gyXTM=

> <s_epik_cmdline>
J2VwaWtfcHl0aG9uJywgJy1waCcsICc3LjAnLCAnLXRuJywgJzgnLCAnLW1hJywgJzIwMCcsICctbWV0YWxfYmluZGluZycsICctaW1hZScsICc8aW5maWxlLm1hZT4nLCAnLW9tYWUnLCAnPG91dGZpbGUubWFlPic=

> <r_lp_tautomer_probability>
1

> <r_epik_Ionization_Penalty>
8.29966e-05

> <r_epik_Ionization_Penalty_Charging>
0

> <r_epik_Ionization_Penalty_Neutral>
8.29966e-05

> <r_epik_State_Penalty>
-0

> <r_epik_Charging_Adjusted_Penalty>
0

> <i_epik_Tot_Q>
0

> <i_epik_Tot_abs_Q>
0

> <r_epik_Metal_State_Penalty>
-0

> <b_epik_Metal_Only>
0

> <s_lp_Force_Field>
OPLS_2005

> <r_lp_Energy>
59.487

> <b_lp_Chiralities_Consistent>
1

> <s_lp_Variant>
AV-unprocessed.smi:746-3

> <Gold.Version>
5.8.1

> <Gold.Id.Protein>
6NUR|6NUR_protein|mol2

> <Gold.PLP.Fitness>
55.0544

> <Gold.PLP.PLP>
-47.1817

> <Gold.PLP.part.hbond>
-3.0000

> <Gold.PLP.part.metal>
0.0000

> <Gold.PLP.part.buried>
-5.5711

> <Gold.PLP.part.nonpolar>
-39.4181

> <Gold.PLP.part.repulsive>
0.0871

> <Gold.PLP.ligand.clash>
0.1912

> <Gold.PLP.ligand.torsion>
0.5734

> <Gold.PLP.Chemscore.Hbond>
3.0000

> <Gold.PLP.Chemscore.CHOScore>
0.0000

> <Gold.PLP.Chemscore.Metal>
0.0000

> <Gold.Chemscore.Hbonds>
donor molecule, donor type, donor heavy atom, donor atom, acceptor molecule, acceptor atom, score
      P1  H  6896  6908       L1    23  1.00
      P1  H  6896  6909       L1     2  0.89
      P1  H 10752 10764       L1     5  0.99

> <Gold.PLP.Chemscore.Internal.Correction>
0.2107

> <Gold.Rescore>
     Score         DG    S(hbond)    S(metal)    S(lipo)     H(rot)  DE(clash)    DE(int)     intcor
     21.39     -23.59       2.07        0.00     128.76       1.52       0.07       2.14       ----

> <Gold.Chemscore.Fitness>
21.3869

> <Gold.Chemscore.DG>
-23.5879

> <Gold.Chemscore.ZeroCoef>
-5.4800

> <Gold.Chemscore.Hbond>
2.0741

> <Gold.Chemscore.Metal>
0.0000

> <Gold.Chemscore.Lipo>
128.7573

> <Gold.Chemscore.Internal_Hbond>
0.0000

> <Gold.Chemscore.DEClash>
0.0653

> <Gold.Chemscore.DEInternal>
2.1356

> <Gold.Chemscore.Rot>
1.5172

> <Gold.Chemscore.Internal.Correction>
   9.000000E+99

> <Gold.Chemscore.Hbonds>
donor molecule, donor type, donor heavy atom, donor atom, acceptor molecule, acceptor atom, score
      P1  H  6896  6908       L1    23  0.35
      P1  H  6896  6909       L1     2  0.78
      P1  H 10752 10764       L1     5  0.23

> <Gold.Chemscore.Hbond.Weighted>
-6.9274

> <Gold.Chemscore.Metal.Weighted>
-0.0000

> <Gold.Chemscore.Lipo.Weighted>
-15.0646

> <Gold.Chemscore.Internal_Hbond.Weighted>
0.0000

> <Gold.Chemscore.DEClash.Weighted>
0.0653

> <Gold.Chemscore.DEInternal.Weighted>
2.1356

> <Gold.Chemscore.Rot.Weighted>
3.8841

> <Gold.Chemscore.Internal.Correction.Weighted>
   9.000000E+99

> <Gold.Protein.RotatedTorsions>
[ 6907 6896 6895 6894 ] final  -72.82 input  -60.11 | X-H torsion
[ 7974 7965 7964 7962 ] final -179.49 input  175.53 | X-H torsion
[ 8008 7997 7996 7995 ] final  100.87 input   59.86 | X-H torsion
[ 10167 10162 10161 10158 ] final   28.90 input  -65.29 | X-H torsion
[ 10718 10713 10712 10709 ] final  178.65 input   66.30 | X-H torsion
[ 10763 10752 10751 10750 ] final    9.82 input  -60.55 | X-H torsion
[ 11005 11000 10999 10996 ] final  -58.70 input  -57.11 | X-H torsion

> <Gold.Protein.ActiveResidues>
 VAL166  LYS551  ARG553  GLY616  TRP617  ASP618  TYR619  PRO620  LYS621  CYS622 
 ASP623  PHE694  ASN695  SER759  ASP760  ASP761  ALA762  ILE779  LEU786  VAL792 
 PHE793  MET794  SER795  GLU796  ALA797  LYS798  CYS799  TRP800  GLU811  SER814 

> <Gold.Protein.RotatedAtoms>
  150.7154  134.5107  159.5605 H   0  0  0  0  0  0  0  0  0  0  0  0  # atno 6907 bound_to 6896
  152.2684  134.7956  160.0427 H   0  0  0  0  0  0  0  0  0  0  0  0  # atno 6908 bound_to 6896
  151.8645  133.3428  159.3751 H   0  0  0  0  0  0  0  0  0  0  0  0  # atno 6909 bound_to 6896
  144.7137  140.0710  143.6429 H   0  0  0  0  0  0  0  0  0  0  0  0  # atno 7974 bound_to 7965
  156.1245  140.3206  155.8257 H   0  0  0  0  0  0  0  0  0  0  0  0  # atno 8008 bound_to 7997
  155.4444  140.0528  157.3024 H   0  0  0  0  0  0  0  0  0  0  0  0  # atno 8009 bound_to 7997
  154.4852  140.2070  155.9685 H   0  0  0  0  0  0  0  0  0  0  0  0  # atno 8010 bound_to 7997
  140.4812  144.0613  150.6266 H   0  0  0  0  0  0  0  0  0  0  0  0  # atno 10167 bound_to 10162
  156.8875  130.9836  151.3054 H   0  0  0  0  0  0  0  0  0  0  0  0  # atno 10718 bound_to 10713
  153.2099  135.6867  153.8127 H   0  0  0  0  0  0  0  0  0  0  0  0  # atno 10763 bound_to 10752
  153.7363  135.3245  155.3296 H   0  0  0  0  0  0  0  0  0  0  0  0  # atno 10764 bound_to 10752
  154.8216  135.4648  154.0902 H   0  0  0  0  0  0  0  0  0  0  0  0  # atno 10765 bound_to 10752
  141.1218  133.6613  156.4961 H   0  0  0  0  0  0  0  0  0  0  0  0  # atno 11005 bound_to 11000
  145.9783  139.2922  143.1057 LP  0  0  0  0  0  0  0  0  0  0  0  0  # atno 17320 bound_to 7965
  145.9039  140.9224  143.0488 LP  0  0  0  0  0  0  0  0  0  0  0  0  # atno 17321 bound_to 7965
  140.3855  143.2780  152.0121 LP  0  0  0  0  0  0  0  0  0  0  0  0  # atno 17342 bound_to 10162
  139.4834  144.6120  151.7416 LP  0  0  0  0  0  0  0  0  0  0  0  0  # atno 17343 bound_to 10162
  157.6104  130.8578  149.8942 LP  0  0  0  0  0  0  0  0  0  0  0  0  # atno 17370 bound_to 10713
  156.0646  130.3694  150.0907 LP  0  0  0  0  0  0  0  0  0  0  0  0  # atno 17371 bound_to 10713
  140.4484  134.6951  157.5027 LP  0  0  0  0  0  0  0  0  0  0  0  0  # atno 17394 bound_to 11000
  140.0182  134.6587  155.9278 LP  0  0  0  0  0  0  0  0  0  0  0  0  # atno 17395 bound_to 11000

$$$$
