AV-unprocessed.smi:2044|AV-procd|sdf|8301|dock6
  -GOLD-   2272010563D 1   1.00000     0.00000
 Structure written by MMmdl.
 40 41  0  0  0  0  0  0  0  0  2 V2000
  150.6802  142.4165  157.3589 C   0  0  0  0  0  0  0  0  0  0  0  0
  150.4195  141.5113  156.2040 C   0  0  0  0  0  0  0  0  0  0  0  0
  149.3104  141.2711  155.4432 C   0  0  0  0  0  0  0  0  0  0  0  0
  149.7679  140.2943  154.5115 C   0  0  0  0  0  0  0  0  0  0  0  0
  149.0034  139.6955  153.4770 N   0  0  0  0  0  0  0  0  0  0  0  0
  147.7628  139.1843  153.5453 C   0  0  0  0  0  0  0  0  0  0  0  0
  147.0673  139.1270  154.5593 O   0  0  0  0  0  0  0  0  0  0  0  0
  147.3546  138.7364  152.3491 N   0  0  0  0  0  0  0  0  0  0  0  0
  146.0462  138.1449  152.0839 C   0  0  0  0  0  0  0  0  0  0  0  0
  145.7237  136.9395  153.0078 C   0  0  1  0  0  0  0  0  0  0  0  0
  144.1959  136.8418  153.2407 C   0  0  0  0  0  0  0  0  0  0  0  0
  146.3251  135.6816  152.4547 N   0  3  0  0  0  0  0  0  0  0  0  0
  146.4187  134.5987  153.4724 C   0  0  0  0  0  0  0  0  0  0  0  0
  147.1136  133.3540  152.8974 C   0  0  0  0  0  0  0  0  0  0  0  0
  146.3983  132.8977  151.7595 O   0  0  0  0  0  0  0  0  0  0  0  0
  146.3839  133.8744  150.7295 C   0  0  0  0  0  0  0  0  0  0  0  0
  145.6778  135.1492  151.2234 C   0  0  0  0  0  0  0  0  0  0  0  0
  151.0356  139.9729  154.6929 N   0  0  0  0  0  0  0  0  0  0  0  0
  151.4616  140.7489  155.7771 O   0  0  0  0  0  0  0  0  0  0  0  0
  149.7455  142.7728  157.7925 H   0  0  0  0  0  0  0  0  0  0  0  0
  151.2598  143.2845  157.0448 H   0  0  0  0  0  0  0  0  0  0  0  0
  151.2389  141.8996  158.1393 H   0  0  0  0  0  0  0  0  0  0  0  0
  148.3394  141.7306  155.5496 H   0  0  0  0  0  0  0  0  0  0  0  0
  149.4527  139.6663  152.5736 H   0  0  0  0  0  0  0  0  0  0  0  0
  147.9880  138.8169  151.5666 H   0  0  0  0  0  0  0  0  0  0  0  0
  145.2946  138.9233  152.2197 H   0  0  0  0  0  0  0  0  0  0  0  0
  146.0108  137.8751  151.0291 H   0  0  0  0  0  0  0  0  0  0  0  0
  146.1773  137.1120  153.9853 H   0  0  0  0  0  0  0  0  0  0  0  0
  143.7828  137.7787  153.6141 H   0  0  0  0  0  0  0  0  0  0  0  0
  143.9431  136.0927  153.9910 H   0  0  0  0  0  0  0  0  0  0  0  0
  143.6667  136.5967  152.3191 H   0  0  0  0  0  0  0  0  0  0  0  0
  146.9733  134.9265  154.3493 H   0  0  0  0  0  0  0  0  0  0  0  0
  145.4174  134.3336  153.8154 H   0  0  0  0  0  0  0  0  0  0  0  0
  148.1504  133.5698  152.6339 H   0  0  0  0  0  0  0  0  0  0  0  0
  147.1333  132.5580  153.6420 H   0  0  0  0  0  0  0  0  0  0  0  0
  147.4027  134.0944  150.4060 H   0  0  0  0  0  0  0  0  0  0  0  0
  145.8587  133.4668  149.8657 H   0  0  0  0  0  0  0  0  0  0  0  0
  144.6251  134.9411  151.4222 H   0  0  0  0  0  0  0  0  0  0  0  0
  145.7217  135.8781  150.4148 H   0  0  0  0  0  0  0  0  0  0  0  0
  147.2706  135.9155  152.1872 H   0  0  0  0  0  0  0  0  0  0  0  0
  1  2  1  0  0  0  0
  1 20  1  0  0  0  0
  1 21  1  0  0  0  0
  1 22  1  0  0  0  0
  2 19  1  0  0  0  0
  2  3  2  0  0  0  0
  3  4  1  0  0  0  0
  3 23  1  0  0  0  0
  4  5  1  0  0  0  0
  4 18  2  0  0  0  0
  5  6  1  0  0  0  0
  5 24  1  0  0  0  0
  6  7  2  0  0  0  0
  6  8  1  0  0  0  0
  8  9  1  0  0  0  0
  8 25  1  0  0  0  0
  9 10  1  0  0  0  0
  9 26  1  0  0  0  0
  9 27  1  0  0  0  0
 10 11  1  0  0  0  0
 10 12  1  0  0  0  0
 10 28  1  0  0  0  0
 11 29  1  0  0  0  0
 11 30  1  0  0  0  0
 11 31  1  0  0  0  0
 12 17  1  0  0  0  0
 12 13  1  0  0  0  0
 12 40  1  0  0  0  0
 13 14  1  0  0  0  0
 13 32  1  0  0  0  0
 13 33  1  0  0  0  0
 14 15  1  0  0  0  0
 14 34  1  0  0  0  0
 14 35  1  0  0  0  0
 15 16  1  0  0  0  0
 16 17  1  0  0  0  0
 16 36  1  0  0  0  0
 16 37  1  0  0  0  0
 17 38  1  0  0  0  0
 17 39  1  0  0  0  0
 18 19  1  0  0  0  0
M  CHG  1  12   1
M  END
> <s_m_source_file>
AV-unprocessed.smi

> <i_m_source_file_index>
2044

> <i_lp_mmshare_version>
43012

> <i_f3d_flags>
0

> <s_epik_input>
W0NIM11jMVtjSF1jKG5vMSlbTkhdQyg9TylbTkhdW0NIMl1bQ0BIXShbQ0gzXSlOMltDSDJdW0NIMl1PW0NIMl1bQ0gyXTI=

> <s_epik_cmdline>
J2VwaWtfcHl0aG9uJywgJy1waCcsICc3LjAnLCAnLXRuJywgJzgnLCAnLW1hJywgJzIwMCcsICctbWV0YWxfYmluZGluZycsICctaW1hZScsICc8aW5maWxlLm1hZT4nLCAnLW9tYWUnLCAnPG91dGZpbGUubWFlPic=

> <r_epik_Ionization_Penalty>
0.707076

> <r_epik_Ionization_Penalty_Charging>
0.707039

> <r_epik_Ionization_Penalty_Neutral>
3.67886e-05

> <r_epik_State_Penalty>
0.730276

> <r_epik_Charging_Adjusted_Penalty>
1.43732

> <i_epik_Tot_Q>
1

> <i_epik_Tot_abs_Q>
1

> <r_epik_Metal_State_Penalty>
0.743216

> <b_epik_Metal_Only>
0

> <s_lp_Force_Field>
OPLS_2005

> <r_lp_Energy>
19.4768

> <b_lp_Chiralities_Consistent>
1

> <s_lp_Variant>
AV-unprocessed.smi:2044-4

> <Gold.Version>
5.8.1

> <Gold.Id.Protein>
6NUR|6NUR_protein|mol2

> <Gold.PLP.Fitness>
42.4458

> <Gold.PLP.PLP>
-30.4400

> <Gold.PLP.part.hbond>
-5.5819

> <Gold.PLP.part.metal>
0.0000

> <Gold.PLP.part.buried>
-4.4638

> <Gold.PLP.part.nonpolar>
-21.3776

> <Gold.PLP.part.repulsive>
0.5281

> <Gold.PLP.ligand.clash>
0.0000

> <Gold.PLP.ligand.torsion>
0.8834

> <Gold.PLP.Chemscore.Hbond>
4.5773

> <Gold.PLP.Chemscore.CHOScore>
0.0000

> <Gold.PLP.Chemscore.Metal>
0.0000

> <Gold.Chemscore.Hbonds>
donor molecule, donor type, donor heavy atom, donor atom, acceptor molecule, acceptor atom, score
      L1  H     5    24       P1  7957  0.84
      L1  H     8    25       P1  7957  0.70
      L1  H    12    40       P1  7948  2.00
      P1  H  7989  7998       L1    18  0.81

> <Gold.PLP.Chemscore.Internal.Correction>
0.0408

> <Gold.Rescore>
     Score         DG    S(hbond)    S(metal)    S(lipo)     H(rot)  DE(clash)    DE(int)     intcor
     15.60     -17.37       2.94        0.00      53.17       1.62       0.03       1.73       ----

> <Gold.Chemscore.Fitness>
15.6004

> <Gold.Chemscore.DG>
-17.3690

> <Gold.Chemscore.ZeroCoef>
-5.4800

> <Gold.Chemscore.Hbond>
2.9398

> <Gold.Chemscore.Metal>
0.0000

> <Gold.Chemscore.Lipo>
53.1676

> <Gold.Chemscore.Internal_Hbond>
0.0000

> <Gold.Chemscore.DEClash>
0.0344

> <Gold.Chemscore.DEInternal>
1.7343

> <Gold.Chemscore.Rot>
1.6213

> <Gold.Chemscore.Internal.Correction>
   9.000000E+99

> <Gold.Chemscore.Hbonds>
donor molecule, donor type, donor heavy atom, donor atom, acceptor molecule, acceptor atom, score
      L1  H     5    24       P1  7957  0.81
      L1  H     8    25       P1  7957  0.49
      L1  H    12    40       P1  7948  1.00
      P1  H  7989  7998       L1    18  0.03

> <Gold.Chemscore.Hbond.Weighted>
-9.8190

> <Gold.Chemscore.Metal.Weighted>
-0.0000

> <Gold.Chemscore.Lipo.Weighted>
-6.2206

> <Gold.Chemscore.Internal_Hbond.Weighted>
0.0000

> <Gold.Chemscore.DEClash.Weighted>
0.0344

> <Gold.Chemscore.DEInternal.Weighted>
1.7343

> <Gold.Chemscore.Rot.Weighted>
4.1506

> <Gold.Chemscore.Internal.Correction.Weighted>
   9.000000E+99

> <Gold.Protein.RotatedTorsions>
[ 6907 6896 6895 6894 ] final -168.21 input  -60.11 | X-H torsion
[ 7974 7965 7964 7962 ] final -137.43 input  175.53 | X-H torsion
[ 8008 7997 7996 7995 ] final  -28.44 input   59.86 | X-H torsion
[ 10167 10162 10161 10158 ] final  143.25 input  -65.29 | X-H torsion
[ 10718 10713 10712 10709 ] final   69.85 input   66.30 | X-H torsion
[ 10763 10752 10751 10750 ] final   54.73 input  -60.55 | X-H torsion
[ 11005 11000 10999 10996 ] final    5.47 input  -57.11 | X-H torsion

> <Gold.Protein.ActiveResidues>
 VAL166  LYS551  ARG553  GLY616  TRP617  ASP618  TYR619  PRO620  LYS621  CYS622 
 ASP623  PHE694  ASN695  SER759  ASP760  ASP761  ALA762  ILE779  LEU786  VAL792 
 PHE793  MET794  SER795  GLU796  ALA797  LYS798  CYS799  TRP800  GLU811  SER814 

> <Gold.Protein.RotatedAtoms>
  151.4720  133.3567  159.2824 H   0  0  0  0  0  0  0  0  0  0  0  0  # atno 6907 bound_to 6896
  150.8955  134.8364  159.7334 H   0  0  0  0  0  0  0  0  0  0  0  0  # atno 6908 bound_to 6896
  152.4848  134.4634  159.9664 H   0  0  0  0  0  0  0  0  0  0  0  0  # atno 6909 bound_to 6896
  144.8842  140.6551  143.5186 H   0  0  0  0  0  0  0  0  0  0  0  0  # atno 7974 bound_to 7965
  154.4332  140.1845  156.1090 H   0  0  0  0  0  0  0  0  0  0  0  0  # atno 8008 bound_to 7997
  156.0233  140.3338  155.7036 H   0  0  0  0  0  0  0  0  0  0  0  0  # atno 8009 bound_to 7997
  155.5945  140.0634  157.2740 H   0  0  0  0  0  0  0  0  0  0  0  0  # atno 8010 bound_to 7997
  139.4974  144.6053  151.6392 H   0  0  0  0  0  0  0  0  0  0  0  0  # atno 10167 bound_to 10162
  157.6368  130.9447  150.0570 H   0  0  0  0  0  0  0  0  0  0  0  0  # atno 10718 bound_to 10713
  152.9808  135.5735  154.4951 H   0  0  0  0  0  0  0  0  0  0  0  0  # atno 10763 bound_to 10752
  154.4480  135.2777  155.1803 H   0  0  0  0  0  0  0  0  0  0  0  0  # atno 10764 bound_to 10752
  154.3443  135.6222  153.5665 H   0  0  0  0  0  0  0  0  0  0  0  0  # atno 10765 bound_to 10752
  140.5704  134.0108  155.8006 H   0  0  0  0  0  0  0  0  0  0  0  0  # atno 11005 bound_to 11000
  145.3898  139.1619  143.4235 LP  0  0  0  0  0  0  0  0  0  0  0  0  # atno 17320 bound_to 7965
  146.3014  140.3986  142.8703 LP  0  0  0  0  0  0  0  0  0  0  0  0  # atno 17321 bound_to 7965
  140.5713  144.0104  150.6218 LP  0  0  0  0  0  0  0  0  0  0  0  0  # atno 17342 bound_to 10162
  140.3222  143.3130  152.0772 LP  0  0  0  0  0  0  0  0  0  0  0  0  # atno 17343 bound_to 10162
  156.1614  130.3644  149.9293 LP  0  0  0  0  0  0  0  0  0  0  0  0  # atno 17370 bound_to 10713
  156.7291  130.9036  151.3624 LP  0  0  0  0  0  0  0  0  0  0  0  0  # atno 17371 bound_to 10713
  141.1060  133.9693  157.2996 LP  0  0  0  0  0  0  0  0  0  0  0  0  # atno 17394 bound_to 11000
  139.9365  135.0196  156.8571 LP  0  0  0  0  0  0  0  0  0  0  0  0  # atno 17395 bound_to 11000

$$$$
