AV-unprocessed.smi:2388|AV-procd|sdf|9471|dock8
  -GOLD-   2272013103D 1   1.00000     0.00000
 Structure written by MMmdl.
 43 44  0  0  0  0  0  0  0  0  1 V2000
  152.9968  140.9405  160.3334 C   0  0  0  0  0  0  0  0  0  0  0  0
  152.4720  142.1800  159.6399 C   0  0  0  0  0  0  0  0  0  0  0  0
  152.8234  143.4672  160.0916 C   0  0  0  0  0  0  0  0  0  0  0  0
  152.3068  144.5765  159.3985 C   0  0  0  0  0  0  0  0  0  0  0  0
  151.4660  144.3548  158.2908 C   0  0  0  0  0  0  0  0  0  0  0  0
  151.1596  143.0305  157.9047 C   0  0  0  0  0  0  0  0  0  0  0  0
  150.3021  142.9151  156.7785 N   0  0  0  0  0  0  0  0  0  0  0  0
  150.0149  141.8142  156.0615 C   0  0  0  0  0  0  0  0  0  0  0  0
  150.4600  140.6869  156.2789 O   0  0  0  0  0  0  0  0  0  0  0  0
  149.1640  142.0964  155.0649 N   0  0  0  0  0  0  0  0  0  0  0  0
  148.6381  141.1316  154.1058 C   0  0  0  0  0  0  0  0  0  0  0  0
  147.0990  141.1211  154.1462 C   0  0  0  0  0  0  0  0  0  0  0  0
  146.4676  142.5237  154.1978 C   0  0  0  0  0  0  0  0  0  0  0  0
  146.8081  143.3626  153.3619 O   0  0  0  0  0  0  0  0  0  0  0  0
  145.5585  142.7991  155.1652 N   0  0  0  0  0  0  0  0  0  0  0  0
  144.8302  144.0664  155.3175 C   0  0  0  0  0  0  0  0  0  0  0  0
  143.3609  143.8421  154.9155 C   0  0  0  0  0  0  0  0  0  0  0  0
  142.7307  142.7079  155.7468 C   0  0  0  0  0  0  0  0  0  0  0  0
  143.6088  141.4419  155.7443 C   0  0  0  0  0  0  0  0  0  0  0  0
  145.0674  141.7813  156.1035 C   0  0  0  0  0  0  0  0  0  0  0  0
  151.6646  141.9670  158.5786 N   0  0  0  0  0  0  0  0  0  0  0  0
  153.5324  141.1958  161.2482 H   0  0  0  0  0  0  0  0  0  0  0  0
  153.6804  140.4018  159.6765 H   0  0  0  0  0  0  0  0  0  0  0  0
  152.1751  140.2735  160.5959 H   0  0  0  0  0  0  0  0  0  0  0  0
  153.4716  143.6038  160.9445 H   0  0  0  0  0  0  0  0  0  0  0  0
  152.5509  145.5813  159.7103 H   0  0  0  0  0  0  0  0  0  0  0  0
  151.0610  145.1965  157.7479 H   0  0  0  0  0  0  0  0  0  0  0  0
  149.8490  143.7690  156.4894 H   0  0  0  0  0  0  0  0  0  0  0  0
  148.8497  143.0506  154.9659 H   0  0  0  0  0  0  0  0  0  0  0  0
  148.9775  141.3625  153.0942 H   0  0  0  0  0  0  0  0  0  0  0  0
  149.0365  140.1485  154.3605 H   0  0  0  0  0  0  0  0  0  0  0  0
  146.7166  140.6014  153.2668 H   0  0  0  0  0  0  0  0  0  0  0  0
  146.7780  140.5577  155.0236 H   0  0  0  0  0  0  0  0  0  0  0  0
  144.8845  144.3867  156.3589 H   0  0  0  0  0  0  0  0  0  0  0  0
  145.2539  144.8888  154.7436 H   0  0  0  0  0  0  0  0  0  0  0  0
  142.7901  144.7616  155.0471 H   0  0  0  0  0  0  0  0  0  0  0  0
  143.3077  143.5919  153.8550 H   0  0  0  0  0  0  0  0  0  0  0  0
  142.6032  143.0494  156.7748 H   0  0  0  0  0  0  0  0  0  0  0  0
  141.7330  142.4755  155.3736 H   0  0  0  0  0  0  0  0  0  0  0  0
  143.2095  140.7086  156.4453 H   0  0  0  0  0  0  0  0  0  0  0  0
  143.5769  140.9771  154.7579 H   0  0  0  0  0  0  0  0  0  0  0  0
  145.6715  140.8733  156.1002 H   0  0  0  0  0  0  0  0  0  0  0  0
  145.1225  142.1695  157.1216 H   0  0  0  0  0  0  0  0  0  0  0  0
  1  2  1  0  0  0  0
  1 22  1  0  0  0  0
  1 23  1  0  0  0  0
  1 24  1  0  0  0  0
  2 21  1  0  0  0  0
  2  3  2  0  0  0  0
  3  4  1  0  0  0  0
  3 25  1  0  0  0  0
  4  5  2  0  0  0  0
  4 26  1  0  0  0  0
  5  6  1  0  0  0  0
  5 27  1  0  0  0  0
  6  7  1  0  0  0  0
  6 21  2  0  0  0  0
  7  8  1  0  0  0  0
  7 28  1  0  0  0  0
  8  9  2  0  0  0  0
  8 10  1  0  0  0  0
 10 11  1  0  0  0  0
 10 29  1  0  0  0  0
 11 12  1  0  0  0  0
 11 30  1  0  0  0  0
 11 31  1  0  0  0  0
 12 13  1  0  0  0  0
 12 32  1  0  0  0  0
 12 33  1  0  0  0  0
 13 14  2  0  0  0  0
 13 15  1  0  0  0  0
 15 20  1  0  0  0  0
 15 16  1  0  0  0  0
 16 17  1  0  0  0  0
 16 34  1  0  0  0  0
 16 35  1  0  0  0  0
 17 18  1  0  0  0  0
 17 36  1  0  0  0  0
 17 37  1  0  0  0  0
 18 19  1  0  0  0  0
 18 38  1  0  0  0  0
 18 39  1  0  0  0  0
 19 20  1  0  0  0  0
 19 40  1  0  0  0  0
 19 41  1  0  0  0  0
 20 42  1  0  0  0  0
 20 43  1  0  0  0  0
M  END
> <s_m_source_file>
AV-unprocessed.smi

> <i_m_source_file_index>
2388

> <i_lp_mmshare_version>
43012

> <i_f3d_flags>
0

> <s_epik_input>
W0NIM11jMVtjSF1bY0hdW2NIXWMobjEpW05IXUMoPU8pW05IXVtDSDJdW0NIMl1DKD1PKU4yW0NIMl1bQ0gyXVtDSDJdW0NIMl1bQ0gyXTI=

> <s_epik_cmdline>
J2VwaWtfcHl0aG9uJywgJy1waCcsICc3LjAnLCAnLXRuJywgJzgnLCAnLW1hJywgJzIwMCcsICctbWV0YWxfYmluZGluZycsICctaW1hZScsICc8aW5maWxlLm1hZT4nLCAnLW9tYWUnLCAnPG91dGZpbGUubWFlPic=

> <r_lp_tautomer_probability>
1

> <r_epik_Ionization_Penalty>
7.16628e-05

> <r_epik_Ionization_Penalty_Charging>
0

> <r_epik_Ionization_Penalty_Neutral>
7.16628e-05

> <r_epik_State_Penalty>
-0

> <r_epik_Charging_Adjusted_Penalty>
0

> <i_epik_Tot_Q>
0

> <i_epik_Tot_abs_Q>
0

> <r_epik_Metal_State_Penalty>
-0

> <b_epik_Metal_Only>
0

> <s_lp_Force_Field>
OPLS_2005

> <r_lp_Energy>
26.3076

> <b_lp_Chiralities_Consistent>
1

> <s_lp_Variant>
AV-unprocessed.smi:2388-1

> <Gold.Version>
5.8.1

> <Gold.Id.Protein>
6NUR|6NUR_protein|mol2

> <Gold.PLP.Fitness>
46.8582

> <Gold.PLP.PLP>
-41.2134

> <Gold.PLP.part.hbond>
-3.0000

> <Gold.PLP.part.metal>
0.0000

> <Gold.PLP.part.buried>
-4.1140

> <Gold.PLP.part.nonpolar>
-34.8444

> <Gold.PLP.part.repulsive>
0.5009

> <Gold.PLP.ligand.clash>
0.0000

> <Gold.PLP.ligand.torsion>
0.1676

> <Gold.PLP.Chemscore.Hbond>
1.9850

> <Gold.PLP.Chemscore.CHOScore>
0.0000

> <Gold.PLP.Chemscore.Metal>
0.0000

> <Gold.Chemscore.Hbonds>
donor molecule, donor type, donor heavy atom, donor atom, acceptor molecule, acceptor atom, score
      L1  H     7    28       P1  8028  1.00
      L1  H    10    29       P1  8028  0.94
      P1  H  8022  8030       L1    14  0.07

> <Gold.PLP.Chemscore.Internal.Correction>
0.0251

> <Gold.Rescore>
     Score         DG    S(hbond)    S(metal)    S(lipo)     H(rot)  DE(clash)    DE(int)     intcor
     16.22     -17.90       2.02        0.00      81.62       1.51       0.25       1.44       ----

> <Gold.Chemscore.Fitness>
16.2179

> <Gold.Chemscore.DG>
-17.9031

> <Gold.Chemscore.ZeroCoef>
-5.4800

> <Gold.Chemscore.Hbond>
2.0202

> <Gold.Chemscore.Metal>
0.0000

> <Gold.Chemscore.Lipo>
81.6155

> <Gold.Chemscore.Internal_Hbond>
0.0000

> <Gold.Chemscore.DEClash>
0.2493

> <Gold.Chemscore.DEInternal>
1.4359

> <Gold.Chemscore.Rot>
1.5131

> <Gold.Chemscore.Internal.Correction>
   9.000000E+99

> <Gold.Chemscore.Hbonds>
donor molecule, donor type, donor heavy atom, donor atom, acceptor molecule, acceptor atom, score
      L1  H     7    28       P1  8028  0.97
      L1  H    10    29       P1  8028  0.91
      P1  H  8022  8030       L1    14  0.07

> <Gold.Chemscore.Hbond.Weighted>
-6.7476

> <Gold.Chemscore.Metal.Weighted>
-0.0000

> <Gold.Chemscore.Lipo.Weighted>
-9.5490

> <Gold.Chemscore.Internal_Hbond.Weighted>
0.0000

> <Gold.Chemscore.DEClash.Weighted>
0.2493

> <Gold.Chemscore.DEInternal.Weighted>
1.4359

> <Gold.Chemscore.Rot.Weighted>
3.8735

> <Gold.Chemscore.Internal.Correction.Weighted>
   9.000000E+99

> <Gold.Protein.RotatedTorsions>
[ 6907 6896 6895 6894 ] final   26.57 input  -60.11 | X-H torsion
[ 7974 7965 7964 7962 ] final  105.15 input  175.53 | X-H torsion
[ 8008 7997 7996 7995 ] final  116.94 input   59.86 | X-H torsion
[ 10167 10162 10161 10158 ] final  -77.53 input  -65.29 | X-H torsion
[ 10718 10713 10712 10709 ] final  -61.15 input   66.30 | X-H torsion
[ 10763 10752 10751 10750 ] final -131.64 input  -60.55 | X-H torsion
[ 11005 11000 10999 10996 ] final  138.93 input  -57.11 | X-H torsion

> <Gold.Protein.ActiveResidues>
 VAL166  LYS551  ARG553  GLY616  TRP617  ASP618  TYR619  PRO620  LYS621  CYS622 
 ASP623  PHE694  ASN695  SER759  ASP760  ASP761  ALA762  ILE779  LEU786  VAL792 
 PHE793  MET794  SER795  GLU796  ALA797  LYS798  CYS799  TRP800  GLU811  SER814 

> <Gold.Protein.RotatedAtoms>
  151.9894  134.9987  160.0560 H   0  0  0  0  0  0  0  0  0  0  0  0  # atno 6907 bound_to 6896
  152.1623  133.4585  159.4875 H   0  0  0  0  0  0  0  0  0  0  0  0  # atno 6908 bound_to 6896
  150.6889  134.1974  159.4352 H   0  0  0  0  0  0  0  0  0  0  0  0  # atno 6909 bound_to 6896
  145.3234  139.2506  143.3699 H   0  0  0  0  0  0  0  0  0  0  0  0  # atno 7974 bound_to 7965
  156.2467  140.2907  156.0602 H   0  0  0  0  0  0  0  0  0  0  0  0  # atno 8008 bound_to 7997
  155.1784  140.0403  157.2894 H   0  0  0  0  0  0  0  0  0  0  0  0  # atno 8009 bound_to 7997
  154.6276  140.2491  155.7479 H   0  0  0  0  0  0  0  0  0  0  0  0  # atno 8010 bound_to 7997
  140.4762  143.2414  151.8129 H   0  0  0  0  0  0  0  0  0  0  0  0  # atno 10167 bound_to 10162
  156.0941  130.4195  150.0954 H   0  0  0  0  0  0  0  0  0  0  0  0  # atno 10718 bound_to 10713
  154.8749  135.3823  154.4279 H   0  0  0  0  0  0  0  0  0  0  0  0  # atno 10763 bound_to 10752
  153.4976  135.7030  153.5854 H   0  0  0  0  0  0  0  0  0  0  0  0  # atno 10764 bound_to 10752
  153.4200  135.3904  155.2072 H   0  0  0  0  0  0  0  0  0  0  0  0  # atno 10765 bound_to 10752
  140.0218  134.9393  157.0490 H   0  0  0  0  0  0  0  0  0  0  0  0  # atno 11005 bound_to 11000
  146.3073  140.3797  142.8682 LP  0  0  0  0  0  0  0  0  0  0  0  0  # atno 17320 bound_to 7965
  144.8921  140.7536  143.5920 LP  0  0  0  0  0  0  0  0  0  0  0  0  # atno 17321 bound_to 7965
  139.4826  144.4830  151.9282 LP  0  0  0  0  0  0  0  0  0  0  0  0  # atno 17342 bound_to 10162
  140.3916  144.2609  150.5899 LP  0  0  0  0  0  0  0  0  0  0  0  0  # atno 17343 bound_to 10162
  156.8957  130.9603  151.3583 LP  0  0  0  0  0  0  0  0  0  0  0  0  # atno 17370 bound_to 10713
  157.6098  130.8574  149.8933 LP  0  0  0  0  0  0  0  0  0  0  0  0  # atno 17371 bound_to 10713
  140.4373  134.1717  155.7171 LP  0  0  0  0  0  0  0  0  0  0  0  0  # atno 17394 bound_to 11000
  141.1779  133.8476  157.1360 LP  0  0  0  0  0  0  0  0  0  0  0  0  # atno 17395 bound_to 11000

$$$$
