AV-unprocessed.smi:107|AV-procd|sdf|1024|dock7
  -GOLD-   2262018 23D 1   1.00000     0.00000
 Structure written by MMmdl.
 30 31  0  0  0  0  0  0  0  0  2 V2000
  150.7439  143.0514  158.6231 C   0  0  0  0  0  0  0  0  0  0  0  0
  151.1485  141.9218  157.6921 C   0  0  0  0  0  0  0  0  0  0  0  0
  150.5711  141.7414  156.4836 C   0  0  0  0  0  0  0  0  0  0  0  0
  150.9420  140.7103  155.6377 N   0  0  0  0  0  0  0  0  0  0  0  0
  150.2745  140.5210  154.2911 C   0  0  1  0  0  0  0  0  0  0  0  0
  149.5739  139.1614  154.2311 C   0  0  0  0  0  0  0  0  0  0  0  0
  148.1503  139.5324  154.5903 C   0  0  2  0  0  0  0  0  0  0  0  0
  147.2364  138.5875  154.0721 O   0  0  0  0  0  0  0  0  0  0  0  0
  148.0107  140.9064  153.9304 C   0  0  1  0  0  0  0  0  0  0  0  0
  146.9193  141.7855  154.5607 C   0  0  0  0  0  0  0  0  0  0  0  0
  147.0874  143.1275  154.1570 O   0  0  0  0  0  0  0  0  0  0  0  0
  149.2941  141.5045  154.1142 O   0  0  0  0  0  0  0  0  0  0  0  0
  151.9439  139.7929  156.0506 C   0  0  0  0  0  0  0  0  0  0  0  0
  152.2294  138.8664  155.2915 O   0  0  0  0  0  0  0  0  0  0  0  0
  152.5372  139.9707  157.2653 N   0  5  0  0  0  0  0  0  0  0  0  0
  152.2000  140.9869  158.1101 C   0  0  0  0  0  0  0  0  0  0  0  0
  152.7468  141.1384  159.2021 O   0  0  0  0  0  0  0  0  0  0  0  0
  149.9494  143.6586  158.1886 H   0  0  0  0  0  0  0  0  0  0  0  0
  151.5955  143.7024  158.8234 H   0  0  0  0  0  0  0  0  0  0  0  0
  150.3839  142.6528  159.5720 H   0  0  0  0  0  0  0  0  0  0  0  0
  149.7945  142.4253  156.1798 H   0  0  0  0  0  0  0  0  0  0  0  0
  151.0573  140.6499  153.5423 H   0  0  0  0  0  0  0  0  0  0  0  0
  149.6366  138.7925  153.2061 H   0  0  0  0  0  0  0  0  0  0  0  0
  150.0261  138.4263  154.8982 H   0  0  0  0  0  0  0  0  0  0  0  0
  148.0419  139.6077  155.6733 H   0  0  0  0  0  0  0  0  0  0  0  0
  146.7078  139.0128  153.4140 H   0  0  0  0  0  0  0  0  0  0  0  0
  147.8399  140.7760  152.8596 H   0  0  0  0  0  0  0  0  0  0  0  0
  145.9352  141.4630  154.2198 H   0  0  0  0  0  0  0  0  0  0  0  0
  146.9236  141.7139  155.6482 H   0  0  0  0  0  0  0  0  0  0  0  0
  147.6012  143.5729  154.8136 H   0  0  0  0  0  0  0  0  0  0  0  0
  1  2  1  0  0  0  0
  1 18  1  0  0  0  0
  1 19  1  0  0  0  0
  1 20  1  0  0  0  0
  2 16  1  0  0  0  0
  2  3  2  0  0  0  0
  3  4  1  0  0  0  0
  3 21  1  0  0  0  0
  4  5  1  0  0  0  0
  4 13  1  0  0  0  0
  5 12  1  0  0  0  0
  5  6  1  0  0  0  0
  5 22  1  0  0  0  0
  6  7  1  0  0  0  0
  6 23  1  0  0  0  0
  6 24  1  0  0  0  0
  7  8  1  0  0  0  0
  7  9  1  0  0  0  0
  7 25  1  0  0  0  0
  8 26  1  0  0  0  0
  9 10  1  0  0  0  0
  9 12  1  0  0  0  0
  9 27  1  0  0  0  0
 10 11  1  0  0  0  0
 10 28  1  0  0  0  0
 10 29  1  0  0  0  0
 11 30  1  0  0  0  0
 13 14  2  0  0  0  0
 13 15  1  0  0  0  0
 15 16  1  0  0  0  0
 16 17  2  0  0  0  0
M  CHG  1  15  -1
M  END
> <s_m_source_file>
AV-unprocessed.smi

> <i_m_source_file_index>
107

> <i_lp_mmshare_version>
43012

> <i_f3d_flags>
0

> <s_epik_input>
Tz1jMVtuSF1jKD1PKW4oW2NIXWMxW0NIM10pW0NAQEhdMltDSDJdW0NAQEhdKFtPSF0pW0NASF0oTzIpW0NIMl1bT0hd

> <s_epik_cmdline>
J2VwaWtfcHl0aG9uJywgJy1waCcsICc3LjAnLCAnLXRuJywgJzgnLCAnLW1hJywgJzIwMCcsICctbWV0YWxfYmluZGluZycsICctaW1hZScsICc8aW5maWxlLm1hZT4nLCAnLW9tYWUnLCAnPG91dGZpbGUubWFlPic=

> <r_lp_tautomer_probability>
0.999537

> <r_epik_Ionization_Penalty>
3.66603

> <r_epik_Ionization_Penalty_Charging>
1.09773e-07

> <r_epik_Ionization_Penalty_Neutral>
3.66603

> <r_epik_State_Penalty>
3.66562

> <r_epik_Charging_Adjusted_Penalty>
3.66562

> <i_epik_Tot_Q>
-1

> <i_epik_Tot_abs_Q>
1

> <r_epik_Metal_State_Penalty>
0.234536

> <b_epik_Metal_Only>
1

> <s_epik_Chemistry_Notes>
This compound contains an acetal/aminal-like group ( X-CH(R)-Y where X, Y are N, S, or O) that may be acid/base labile, releasing an aldehyde.

> <s_lp_Force_Field>
OPLS_2005

> <r_lp_Energy>
34.1834

> <b_lp_Chiralities_Consistent>
1

> <s_lp_Variant>
AV-unprocessed.smi:107-12

> <Gold.Version>
5.8.1

> <Gold.Id.Protein>
6NUR|6NUR_protein|mol2

> <Gold.PLP.Fitness>
41.0488

> <Gold.PLP.PLP>
-27.3617

> <Gold.PLP.part.hbond>
-5.0000

> <Gold.PLP.part.metal>
0.0000

> <Gold.PLP.part.buried>
1.9420

> <Gold.PLP.part.nonpolar>
-23.7738

> <Gold.PLP.part.repulsive>
0.1877

> <Gold.PLP.ligand.clash>
0.0000

> <Gold.PLP.ligand.torsion>
0.0977

> <Gold.PLP.Chemscore.Hbond>
3.6261

> <Gold.PLP.Chemscore.CHOScore>
0.9979

> <Gold.PLP.Chemscore.Metal>
0.0000

> <Gold.Chemscore.Hbonds>
donor molecule, donor type, donor heavy atom, donor atom, acceptor molecule, acceptor atom, score
      L1  H    11    30       P1  8028  0.95
      P1  H  7997  8009       L1    15  1.98
      P1  H  8011  8017       L1    12  0.61
      L1  C     3    21       P1  8028  1.00

> <Gold.PLP.Chemscore.Internal.Correction>
0.0107

> <Gold.Rescore>
     Score         DG    S(hbond)    S(metal)    S(lipo)     H(rot)  DE(clash)    DE(int)     intcor
      5.63      -8.57       1.37        0.00      46.19       2.69       1.59       1.35       ----

> <Gold.Chemscore.Fitness>
5.6340

> <Gold.Chemscore.DG>
-8.5708

> <Gold.Chemscore.ZeroCoef>
-5.4800

> <Gold.Chemscore.Hbond>
1.3669

> <Gold.Chemscore.Metal>
0.0000

> <Gold.Chemscore.Lipo>
46.1911

> <Gold.Chemscore.Internal_Hbond>
0.0000

> <Gold.Chemscore.DEClash>
1.5863

> <Gold.Chemscore.DEInternal>
1.3505

> <Gold.Chemscore.Rot>
2.6871

> <Gold.Chemscore.Internal.Correction>
   9.000000E+99

> <Gold.Chemscore.Hbonds>
donor molecule, donor type, donor heavy atom, donor atom, acceptor molecule, acceptor atom, score
      L1  H    11    30       P1  8028  0.21
      P1  H  7997  8009       L1    15  0.32
      P1  H  8011  8017       L1    12  0.18

> <Gold.Chemscore.Hbond.Weighted>
-4.5655

> <Gold.Chemscore.Metal.Weighted>
-0.0000

> <Gold.Chemscore.Lipo.Weighted>
-5.4044

> <Gold.Chemscore.Internal_Hbond.Weighted>
0.0000

> <Gold.Chemscore.DEClash.Weighted>
1.5863

> <Gold.Chemscore.DEInternal.Weighted>
1.3505

> <Gold.Chemscore.Rot.Weighted>
6.8791

> <Gold.Chemscore.Internal.Correction.Weighted>
   9.000000E+99

> <Gold.Protein.RotatedTorsions>
[ 6907 6896 6895 6894 ] final -174.21 input  -60.11 | X-H torsion
[ 7974 7965 7964 7962 ] final   19.06 input  175.53 | X-H torsion
[ 8008 7997 7996 7995 ] final  163.50 input   59.86 | X-H torsion
[ 10167 10162 10161 10158 ] final -151.10 input  -65.29 | X-H torsion
[ 10718 10713 10712 10709 ] final  172.61 input   66.30 | X-H torsion
[ 10763 10752 10751 10750 ] final -120.79 input  -60.55 | X-H torsion
[ 11005 11000 10999 10996 ] final  -65.48 input  -57.11 | X-H torsion

> <Gold.Protein.ActiveResidues>
 VAL166  LYS551  ARG553  GLY616  TRP617  ASP618  TYR619  PRO620  LYS621  CYS622 
 ASP623  PHE694  ASN695  SER759  ASP760  ASP761  ALA762  ILE779  LEU786  VAL792 
 PHE793  MET794  SER795  GLU796  ALA797  LYS798  CYS799  TRP800  GLU811  SER814 

> <Gold.Protein.RotatedAtoms>
  151.5687  133.3393  159.2985 H   0  0  0  0  0  0  0  0  0  0  0  0  # atno 6907 bound_to 6896
  150.8380  134.7663  159.6920 H   0  0  0  0  0  0  0  0  0  0  0  0  # atno 6908 bound_to 6896
  152.4453  134.5515  159.9919 H   0  0  0  0  0  0  0  0  0  0  0  0  # atno 6909 bound_to 6896
  146.2163  139.8367  142.8649 H   0  0  0  0  0  0  0  0  0  0  0  0  # atno 7974 bound_to 7965
  156.1952  140.1722  156.8013 H   0  0  0  0  0  0  0  0  0  0  0  0  # atno 8008 bound_to 7997
  154.5520  140.0716  156.8715 H   0  0  0  0  0  0  0  0  0  0  0  0  # atno 8009 bound_to 7997
  155.3010  140.3361  155.4250 H   0  0  0  0  0  0  0  0  0  0  0  0  # atno 8010 bound_to 7997
  139.7297  143.8828  152.2530 H   0  0  0  0  0  0  0  0  0  0  0  0  # atno 10167 bound_to 10162
  156.9765  131.0106  151.2892 H   0  0  0  0  0  0  0  0  0  0  0  0  # atno 10718 bound_to 10713
  154.8653  135.4190  154.2516 H   0  0  0  0  0  0  0  0  0  0  0  0  # atno 10763 bound_to 10752
  153.3461  135.6996  153.6832 H   0  0  0  0  0  0  0  0  0  0  0  0  # atno 10764 bound_to 10752
  153.5791  135.3576  155.2841 H   0  0  0  0  0  0  0  0  0  0  0  0  # atno 10765 bound_to 10752
  141.1455  133.6682  156.5993 H   0  0  0  0  0  0  0  0  0  0  0  0  # atno 11005 bound_to 11000
  145.2941  141.0175  143.3646 LP  0  0  0  0  0  0  0  0  0  0  0  0  # atno 17320 bound_to 7965
  144.9055  139.4594  143.6612 LP  0  0  0  0  0  0  0  0  0  0  0  0  # atno 17321 bound_to 7965
  139.8747  144.7049  150.8946 LP  0  0  0  0  0  0  0  0  0  0  0  0  # atno 17342 bound_to 10162
  140.7769  143.3709  151.1651 LP  0  0  0  0  0  0  0  0  0  0  0  0  # atno 17343 bound_to 10162
  157.5556  130.8211  149.8200 LP  0  0  0  0  0  0  0  0  0  0  0  0  # atno 17370 bound_to 10713
  156.0262  130.3779  150.1818 LP  0  0  0  0  0  0  0  0  0  0  0  0  # atno 17371 bound_to 10713
  140.3701  134.7613  157.4593 LP  0  0  0  0  0  0  0  0  0  0  0  0  # atno 17394 bound_to 11000
  140.0717  134.5853  155.8635 LP  0  0  0  0  0  0  0  0  0  0  0  0  # atno 17395 bound_to 11000

$$$$
