AV-unprocessed.smi:1643|AV-procd|sdf|6583|dock6
  -GOLD-   22720 7273D 1   1.00000     0.00000
 Structure written by MMmdl.
 54 56  0  0  0  0  0  0  0  0  2 V2000
  149.9996  135.0561  155.5906 C   0  0  0  0  0  0  0  0  0  0  0  0
  150.2879  136.5220  155.2573 C   0  0  0  0  0  0  0  0  0  0  0  0
  151.2023  136.7721  154.4713 O   0  0  0  0  0  0  0  0  0  0  0  0
  149.5379  137.4892  155.8380 N   0  0  0  0  0  0  0  0  0  0  0  0
  148.4187  137.1784  156.7343 C   0  0  0  0  0  0  0  0  0  0  0  0
  147.1090  137.0617  155.9376 C   0  0  0  0  0  0  0  0  0  0  0  0
  146.7650  138.2972  155.0790 C   0  0  0  0  0  0  0  0  0  0  0  0
  147.6810  138.5066  153.9491 N   0  0  0  0  0  0  0  0  0  0  0  0
  147.0079  139.0657  152.7756 C   0  0  0  0  0  0  0  0  0  0  0  0
  146.1387  138.0644  151.9872 C   0  0  1  0  0  0  0  0  0  0  0  0
  146.6575  137.9812  150.6754 O   0  0  0  0  0  0  0  0  0  0  0  0
  146.1311  136.6622  152.6311 C   0  0  0  0  0  0  0  0  0  0  0  0
  145.2865  135.7048  151.9039 N   0  0  0  0  0  0  0  0  0  0  0  0
  144.1863  135.9304  151.1364 C   0  0  0  0  0  0  0  0  0  0  0  0
  143.7494  134.7244  150.6793 N   0  3  0  0  0  0  0  0  0  0  0  0
  144.5831  133.7136  151.1619 C   0  0  0  0  0  0  0  0  0  0  0  0
  144.5465  132.3371  150.9738 C   0  0  0  0  0  0  0  0  0  0  0  0
  145.5525  131.5726  151.6069 C   0  0  0  0  0  0  0  0  0  0  0  0
  145.5416  130.0646  151.4221 C   0  0  0  0  0  0  0  0  0  0  0  0
  146.5537  132.1951  152.3967 C   0  0  0  0  0  0  0  0  0  0  0  0
  147.6340  131.3645  153.0682 C   0  0  0  0  0  0  0  0  0  0  0  0
  146.5726  133.5966  152.5767 C   0  0  0  0  0  0  0  0  0  0  0  0
  145.5730  134.3353  151.9481 C   0  0  0  0  0  0  0  0  0  0  0  0
  148.8299  139.3494  154.3134 C   0  0  0  0  0  0  0  0  0  0  0  0
  149.6611  138.9217  155.5441 C   0  0  0  0  0  0  0  0  0  0  0  0
  150.0883  134.8744  156.6616 H   0  0  0  0  0  0  0  0  0  0  0  0
  150.7102  134.4016  155.0843 H   0  0  0  0  0  0  0  0  0  0  0  0
  148.9984  134.7742  155.2643 H   0  0  0  0  0  0  0  0  0  0  0  0
  148.6001  136.2530  157.2834 H   0  0  0  0  0  0  0  0  0  0  0  0
  148.3145  137.9433  157.5046 H   0  0  0  0  0  0  0  0  0  0  0  0
  147.1497  136.1812  155.2952 H   0  0  0  0  0  0  0  0  0  0  0  0
  146.2931  136.8810  156.6377 H   0  0  0  0  0  0  0  0  0  0  0  0
  145.7490  138.1485  154.7188 H   0  0  0  0  0  0  0  0  0  0  0  0
  146.7148  139.1937  155.6987 H   0  0  0  0  0  0  0  0  0  0  0  0
  146.4044  139.9221  153.0810 H   0  0  0  0  0  0  0  0  0  0  0  0
  147.7553  139.4611  152.0856 H   0  0  0  0  0  0  0  0  0  0  0  0
  145.1149  138.4251  151.8984 H   0  0  0  0  0  0  0  0  0  0  0  0
  145.9683  138.1980  150.0660 H   0  0  0  0  0  0  0  0  0  0  0  0
  147.1402  136.2599  152.7243 H   0  0  0  0  0  0  0  0  0  0  0  0
  145.7338  136.7202  153.6454 H   0  0  0  0  0  0  0  0  0  0  0  0
  143.7398  136.8924  150.9294 H   0  0  0  0  0  0  0  0  0  0  0  0
  143.7827  131.8708  150.3687 H   0  0  0  0  0  0  0  0  0  0  0  0
  146.4507  129.7349  150.9184 H   0  0  0  0  0  0  0  0  0  0  0  0
  144.6909  129.7420  150.8209 H   0  0  0  0  0  0  0  0  0  0  0  0
  145.4770  129.5603  152.3865 H   0  0  0  0  0  0  0  0  0  0  0  0
  148.3394  131.9934  153.6124 H   0  0  0  0  0  0  0  0  0  0  0  0
  148.1979  130.7969  152.3273 H   0  0  0  0  0  0  0  0  0  0  0  0
  147.1931  130.6656  153.7792 H   0  0  0  0  0  0  0  0  0  0  0  0
  147.3384  134.0700  153.1731 H   0  0  0  0  0  0  0  0  0  0  0  0
  149.5070  139.3832  153.4592 H   0  0  0  0  0  0  0  0  0  0  0  0
  148.5000  140.3789  154.4599 H   0  0  0  0  0  0  0  0  0  0  0  0
  149.3248  139.5025  156.4036 H   0  0  0  0  0  0  0  0  0  0  0  0
  150.7021  139.2193  155.4181 H   0  0  0  0  0  0  0  0  0  0  0  0
  142.9409  134.6032  150.0830 H   0  0  0  0  0  0  0  0  0  0  0  0
  1  2  1  0  0  0  0
  1 26  1  0  0  0  0
  1 27  1  0  0  0  0
  1 28  1  0  0  0  0
  2  3  2  0  0  0  0
  2  4  1  0  0  0  0
  4 25  1  0  0  0  0
  4  5  1  0  0  0  0
  5  6  1  0  0  0  0
  5 29  1  0  0  0  0
  5 30  1  0  0  0  0
  6  7  1  0  0  0  0
  6 31  1  0  0  0  0
  6 32  1  0  0  0  0
  7  8  1  0  0  0  0
  7 33  1  0  0  0  0
  7 34  1  0  0  0  0
  8  9  1  0  0  0  0
  8 24  1  0  0  0  0
  9 10  1  0  0  0  0
  9 35  1  0  0  0  0
  9 36  1  0  0  0  0
 10 11  1  0  0  0  0
 10 12  1  0  0  0  0
 10 37  1  0  0  0  0
 11 38  1  0  0  0  0
 12 13  1  0  0  0  0
 12 39  1  0  0  0  0
 12 40  1  0  0  0  0
 13 23  1  0  0  0  0
 13 14  1  0  0  0  0
 14 15  2  0  0  0  0
 14 41  1  0  0  0  0
 15 16  1  0  0  0  0
 15 54  1  0  0  0  0
 16 23  2  0  0  0  0
 16 17  1  0  0  0  0
 17 18  2  0  0  0  0
 17 42  1  0  0  0  0
 18 19  1  0  0  0  0
 18 20  1  0  0  0  0
 19 43  1  0  0  0  0
 19 44  1  0  0  0  0
 19 45  1  0  0  0  0
 20 21  1  0  0  0  0
 20 22  2  0  0  0  0
 21 46  1  0  0  0  0
 21 47  1  0  0  0  0
 21 48  1  0  0  0  0
 22 23  1  0  0  0  0
 22 49  1  0  0  0  0
 24 25  1  0  0  0  0
 24 50  1  0  0  0  0
 24 51  1  0  0  0  0
 25 52  1  0  0  0  0
 25 53  1  0  0  0  0
M  CHG  1  15   1
M  END
> <s_m_source_file>
AV-unprocessed.smi

> <i_m_source_file_index>
1643

> <i_lp_mmshare_version>
43012

> <i_f3d_flags>
0

> <s_epik_input>
W0NIM11DKD1PKU4xW0NIMl1bQ0gyXVtDSDJdTihbQ0gyXVtDSDJdMSlbQ0gyXVtDQEhdKFtPSF0pW0NIMl1uKFtjSF1uMiljKGMyMylbY0hdYyhbQ0gzXSljKFtjSF0zKVtDSDNd

> <s_epik_cmdline>
J2VwaWtfcHl0aG9uJywgJy1waCcsICc3LjAnLCAnLXRuJywgJzgnLCAnLW1hJywgJzIwMCcsICctbWV0YWxfYmluZGluZycsICctaW1hZScsICc8aW5maWxlLm1hZT4nLCAnLW9tYWUnLCAnPG91dGZpbGUubWFlPic=

> <r_epik_Ionization_Penalty>
2.25269

> <r_epik_Ionization_Penalty_Charging>
1.20735

> <r_epik_Ionization_Penalty_Neutral>
1.04533

> <r_epik_State_Penalty>
2.37869

> <r_epik_Charging_Adjusted_Penalty>
3.58604

> <i_epik_Tot_Q>
1

> <i_epik_Tot_abs_Q>
1

> <r_epik_Metal_State_Penalty>
6.40045

> <b_epik_Metal_Only>
0

> <s_lp_Force_Field>
OPLS_2005

> <r_lp_Energy>
51.5531

> <b_lp_Chiralities_Consistent>
1

> <s_lp_Variant>
AV-unprocessed.smi:1643-12

> <Gold.Version>
5.8.1

> <Gold.Id.Protein>
6NUR|6NUR_protein|mol2

> <Gold.PLP.Fitness>
51.6937

> <Gold.PLP.PLP>
-36.3851

> <Gold.PLP.part.hbond>
-4.7736

> <Gold.PLP.part.metal>
0.0000

> <Gold.PLP.part.buried>
-2.6531

> <Gold.PLP.part.nonpolar>
-30.4934

> <Gold.PLP.part.repulsive>
1.3659

> <Gold.PLP.ligand.clash>
0.0000

> <Gold.PLP.ligand.torsion>
1.2842

> <Gold.PLP.Chemscore.Hbond>
4.9337

> <Gold.PLP.Chemscore.CHOScore>
1.0000

> <Gold.PLP.Chemscore.Metal>
0.0000

> <Gold.Chemscore.Hbonds>
donor molecule, donor type, donor heavy atom, donor atom, acceptor molecule, acceptor atom, score
      L1  H    11    38       P1 10171  0.72
      L1  H    15    54       P1 10186  2.00
      P1  H  7954  7966       L1    11  1.00
      P1  H 10752 10765       L1     3  0.91
      L1  C    14    41       P1 10171  0.98

> <Gold.PLP.Chemscore.Internal.Correction>
0.0757

> <Gold.Rescore>
     Score         DG    S(hbond)    S(metal)    S(lipo)     H(rot)  DE(clash)    DE(int)     intcor
     18.68     -21.24       3.39        0.00      84.43       2.12       1.21       1.36       ----

> <Gold.Chemscore.Fitness>
18.6787

> <Gold.Chemscore.DG>
-21.2438

> <Gold.Chemscore.ZeroCoef>
-5.4800

> <Gold.Chemscore.Hbond>
3.3887

> <Gold.Chemscore.Metal>
0.0000

> <Gold.Chemscore.Lipo>
84.4258

> <Gold.Chemscore.Internal_Hbond>
0.0000

> <Gold.Chemscore.DEClash>
1.2090

> <Gold.Chemscore.DEInternal>
1.3561

> <Gold.Chemscore.Rot>
2.1220

> <Gold.Chemscore.Internal.Correction>
   9.000000E+99

> <Gold.Chemscore.Hbonds>
donor molecule, donor type, donor heavy atom, donor atom, acceptor molecule, acceptor atom, score
      L1  H    11    38       P1 10171  0.70
      L1  H    15    54       P1 10186  0.71
      P1  H  7954  7966       L1    11  0.76
      P1  H 10752 10765       L1     3  0.88

> <Gold.Chemscore.Hbond.Weighted>
-11.3182

> <Gold.Chemscore.Metal.Weighted>
-0.0000

> <Gold.Chemscore.Lipo.Weighted>
-9.8778

> <Gold.Chemscore.Internal_Hbond.Weighted>
0.0000

> <Gold.Chemscore.DEClash.Weighted>
1.2090

> <Gold.Chemscore.DEInternal.Weighted>
1.3561

> <Gold.Chemscore.Rot.Weighted>
5.4322

> <Gold.Chemscore.Internal.Correction.Weighted>
   9.000000E+99

> <Gold.Protein.RotatedTorsions>
[ 6907 6896 6895 6894 ] final   14.19 input  -60.11 | X-H torsion
[ 7974 7965 7964 7962 ] final  -92.80 input  175.53 | X-H torsion
[ 8008 7997 7996 7995 ] final   62.60 input   59.86 | X-H torsion
[ 10167 10162 10161 10158 ] final  -94.00 input  -65.29 | X-H torsion
[ 10718 10713 10712 10709 ] final   37.84 input   66.30 | X-H torsion
[ 10763 10752 10751 10750 ] final  163.57 input  -60.55 | X-H torsion
[ 11005 11000 10999 10996 ] final   18.32 input  -57.11 | X-H torsion

> <Gold.Protein.ActiveResidues>
 VAL166  LYS551  ARG553  GLY616  TRP617  ASP618  TYR619  PRO620  LYS621  CYS622 
 ASP623  PHE694  ASN695  SER759  ASP760  ASP761  ALA762  ILE779  LEU786  VAL792 
 PHE793  MET794  SER795  GLU796  ALA797  LYS798  CYS799  TRP800  GLU811  SER814 

> <Gold.Protein.RotatedAtoms>
  151.7982  135.0716  160.0396 H   0  0  0  0  0  0  0  0  0  0  0  0  # atno 6907 bound_to 6896
  152.3108  133.5746  159.5688 H   0  0  0  0  0  0  0  0  0  0  0  0  # atno 6908 bound_to 6896
  150.7319  134.0072  159.3699 H   0  0  0  0  0  0  0  0  0  0  0  0  # atno 6909 bound_to 6896
  145.3951  140.9532  143.2319 H   0  0  0  0  0  0  0  0  0  0  0  0  # atno 7974 bound_to 7965
  155.6169  140.3495  155.4640 H   0  0  0  0  0  0  0  0  0  0  0  0  # atno 8008 bound_to 7997
  156.0110  140.1233  157.0478 H   0  0  0  0  0  0  0  0  0  0  0  0  # atno 8009 bound_to 7997
  154.4281  140.1081  156.5815 H   0  0  0  0  0  0  0  0  0  0  0  0  # atno 8010 bound_to 7997
  140.3189  143.3061  152.0068 H   0  0  0  0  0  0  0  0  0  0  0  0  # atno 10167 bound_to 10162
  157.3517  130.7602  149.6983 H   0  0  0  0  0  0  0  0  0  0  0  0  # atno 10718 bound_to 10713
  154.2957  135.2760  155.2634 H   0  0  0  0  0  0  0  0  0  0  0  0  # atno 10763 bound_to 10752
  154.5094  135.5786  153.6596 H   0  0  0  0  0  0  0  0  0  0  0  0  # atno 10764 bound_to 10752
  152.9908  135.6177  154.3124 H   0  0  0  0  0  0  0  0  0  0  0  0  # atno 10765 bound_to 10752
  140.4261  134.1469  155.7676 H   0  0  0  0  0  0  0  0  0  0  0  0  # atno 11005 bound_to 11000
  144.8413  139.5467  143.6899 LP  0  0  0  0  0  0  0  0  0  0  0  0  # atno 17320 bound_to 7965
  146.2779  139.6800  142.9250 LP  0  0  0  0  0  0  0  0  0  0  0  0  # atno 17321 bound_to 7965
  139.4878  144.6326  151.7039 LP  0  0  0  0  0  0  0  0  0  0  0  0  # atno 17342 bound_to 10162
  140.5501  144.0439  150.6123 LP  0  0  0  0  0  0  0  0  0  0  0  0  # atno 17343 bound_to 10162
  155.9722  130.4139  150.4104 LP  0  0  0  0  0  0  0  0  0  0  0  0  # atno 17370 bound_to 10713
  157.2167  131.0473  151.2569 LP  0  0  0  0  0  0  0  0  0  0  0  0  # atno 17371 bound_to 10713
  141.1765  133.8504  157.1405 LP  0  0  0  0  0  0  0  0  0  0  0  0  # atno 17394 bound_to 11000
  140.0167  134.9964  157.0507 LP  0  0  0  0  0  0  0  0  0  0  0  0  # atno 17395 bound_to 11000

$$$$
