AV-unprocessed.smi:2678|AV-procd|sdf|10369|dock6
  -GOLD-   2272014393D 1   1.00000     0.00000
 Structure written by MMmdl.
 46 47  0  0  0  0  0  0  0  0  1 V2000
  148.0016  134.2300  154.6787 C   0  0  0  0  0  0  0  0  0  0  0  0
  147.1627  135.5033  154.8492 C   0  0  0  0  0  0  0  0  0  0  0  0
  145.7718  135.3554  154.2121 C   0  0  0  0  0  0  0  0  0  0  0  0
  147.8756  136.6358  154.2651 N   0  0  0  0  0  0  0  0  0  0  0  0
  148.2469  137.7459  154.9229 C   0  0  0  0  0  0  0  0  0  0  0  0
  148.0087  137.9240  156.1174 O   0  0  0  0  0  0  0  0  0  0  0  0
  149.0030  138.8055  154.0991 C   0  0  1  0  0  0  0  0  0  0  0  0
  148.1879  139.3166  152.8881 C   0  0  0  0  0  0  0  0  0  0  0  0
  147.0924  140.3299  153.2671 C   0  0  0  0  0  0  0  0  0  0  0  0
  147.6704  141.4975  154.0806 C   0  0  0  0  0  0  0  0  0  0  0  0
  148.3909  140.9947  155.3435 C   0  0  2  0  0  0  0  0  0  0  0  0
  148.9516  142.1337  156.0736 N   0  0  0  0  0  0  0  0  0  0  0  0
  149.6953  142.1189  157.1953 C   0  0  0  0  0  0  0  0  0  0  0  0
  149.9747  141.0627  157.7580 O   0  0  0  0  0  0  0  0  0  0  0  0
  150.0637  143.3410  157.6275 N   0  0  0  0  0  0  0  0  0  0  0  0
  150.8300  143.6918  158.7708 C   0  0  0  0  0  0  0  0  0  0  0  0
  151.7867  142.8464  159.3829 C   0  0  0  0  0  0  0  0  0  0  0  0
  152.4944  143.3224  160.5037 C   0  0  0  0  0  0  0  0  0  0  0  0
  152.2253  144.6252  160.9661 C   0  0  0  0  0  0  0  0  0  0  0  0
  151.3257  145.4462  160.3844 N   0  0  0  0  0  0  0  0  0  0  0  0
  150.6521  144.9837  159.3096 C   0  0  0  0  0  0  0  0  0  0  0  0
  149.5015  139.9846  154.9672 C   0  0  0  0  0  0  0  0  0  0  0  0
  147.5059  133.3719  155.1338 H   0  0  0  0  0  0  0  0  0  0  0  0
  148.9780  134.3354  155.1530 H   0  0  0  0  0  0  0  0  0  0  0  0
  148.1651  133.9990  153.6255 H   0  0  0  0  0  0  0  0  0  0  0  0
  147.0385  135.6774  155.9197 H   0  0  0  0  0  0  0  0  0  0  0  0
  145.2310  134.5139  154.6457 H   0  0  0  0  0  0  0  0  0  0  0  0
  145.8435  135.1864  153.1372 H   0  0  0  0  0  0  0  0  0  0  0  0
  145.1656  136.2482  154.3688 H   0  0  0  0  0  0  0  0  0  0  0  0
  148.1094  136.5678  153.2852 H   0  0  0  0  0  0  0  0  0  0  0  0
  149.8896  138.3112  153.6979 H   0  0  0  0  0  0  0  0  0  0  0  0
  148.8716  139.7885  152.1815 H   0  0  0  0  0  0  0  0  0  0  0  0
  147.7413  138.4779  152.3518 H   0  0  0  0  0  0  0  0  0  0  0  0
  146.6172  140.7113  152.3631 H   0  0  0  0  0  0  0  0  0  0  0  0
  146.3036  139.8390  153.8371 H   0  0  0  0  0  0  0  0  0  0  0  0
  148.3636  142.0646  153.4574 H   0  0  0  0  0  0  0  0  0  0  0  0
  146.8687  142.1840  154.3553 H   0  0  0  0  0  0  0  0  0  0  0  0
  147.6442  140.5116  155.9740 H   0  0  0  0  0  0  0  0  0  0  0  0
  148.7375  143.0436  155.6917 H   0  0  0  0  0  0  0  0  0  0  0  0
  149.6973  144.1198  157.0992 H   0  0  0  0  0  0  0  0  0  0  0  0
  152.0020  141.8568  159.0122 H   0  0  0  0  0  0  0  0  0  0  0  0
  153.2302  142.7032  160.9951 H   0  0  0  0  0  0  0  0  0  0  0  0
  152.7511  145.0202  161.8228 H   0  0  0  0  0  0  0  0  0  0  0  0
  149.9422  145.6682  158.8679 H   0  0  0  0  0  0  0  0  0  0  0  0
  149.9814  139.5985  155.8675 H   0  0  0  0  0  0  0  0  0  0  0  0
  150.2860  140.5086  154.4193 H   0  0  0  0  0  0  0  0  0  0  0  0
  1  2  1  0  0  0  0
  1 23  1  0  0  0  0
  1 24  1  0  0  0  0
  1 25  1  0  0  0  0
  2  3  1  0  0  0  0
  2  4  1  0  0  0  0
  2 26  1  0  0  0  0
  3 27  1  0  0  0  0
  3 28  1  0  0  0  0
  3 29  1  0  0  0  0
  4  5  1  0  0  0  0
  4 30  1  0  0  0  0
  5  6  2  0  0  0  0
  5  7  1  0  0  0  0
  7 22  1  0  0  0  0
  7  8  1  0  0  0  0
  7 31  1  0  0  0  0
  8  9  1  0  0  0  0
  8 32  1  0  0  0  0
  8 33  1  0  0  0  0
  9 10  1  0  0  0  0
  9 34  1  0  0  0  0
  9 35  1  0  0  0  0
 10 11  1  0  0  0  0
 10 36  1  0  0  0  0
 10 37  1  0  0  0  0
 11 12  1  0  0  0  0
 11 22  1  0  0  0  0
 11 38  1  0  0  0  0
 12 13  1  0  0  0  0
 12 39  1  0  0  0  0
 13 14  2  0  0  0  0
 13 15  1  0  0  0  0
 15 16  1  0  0  0  0
 15 40  1  0  0  0  0
 16 21  1  0  0  0  0
 16 17  2  0  0  0  0
 17 18  1  0  0  0  0
 17 41  1  0  0  0  0
 18 19  2  0  0  0  0
 18 42  1  0  0  0  0
 19 20  1  0  0  0  0
 19 43  1  0  0  0  0
 20 21  2  0  0  0  0
 21 44  1  0  0  0  0
 22 45  1  0  0  0  0
 22 46  1  0  0  0  0
M  END
> <s_m_source_file>
AV-unprocessed.smi

> <i_m_source_file_index>
2678

> <i_lp_mmshare_version>
43012

> <i_f3d_flags>
0

> <s_epik_input>
W0NIM11bQ0hdKFtDSDNdKVtOSF1DKD1PKVtDQEBIXTFbQ0gyXVtDSDJdW0NIMl1bQ0BIXShbQ0gyXTEpW05IXUMoPU8pW05IXWMyW2NIXVtjSF1bY0hdbltjSF0y

> <s_epik_cmdline>
J2VwaWtfcHl0aG9uJywgJy1waCcsICc3LjAnLCAnLXRuJywgJzgnLCAnLW1hJywgJzIwMCcsICctbWV0YWxfYmluZGluZycsICctaW1hZScsICc8aW5maWxlLm1hZT4nLCAnLW9tYWUnLCAnPG91dGZpbGUubWFlPic=

> <r_epik_Ionization_Penalty>
0.00482944

> <r_epik_Ionization_Penalty_Charging>
0

> <r_epik_Ionization_Penalty_Neutral>
0.00482944

> <r_epik_State_Penalty>
0.00347168

> <r_epik_Charging_Adjusted_Penalty>
0.00347168

> <i_epik_Tot_Q>
0

> <i_epik_Tot_abs_Q>
0

> <r_epik_Metal_State_Penalty>
-0

> <b_epik_Metal_Only>
0

> <s_lp_Force_Field>
OPLS_2005

> <r_lp_Energy>
20.538

> <b_lp_Chiralities_Consistent>
1

> <s_lp_Variant>
AV-unprocessed.smi:2678-4

> <Gold.Version>
5.8.1

> <Gold.Id.Protein>
6NUR|6NUR_protein|mol2

> <Gold.PLP.Fitness>
41.8458

> <Gold.PLP.PLP>
-30.5869

> <Gold.PLP.part.hbond>
-3.0000

> <Gold.PLP.part.metal>
0.0000

> <Gold.PLP.part.buried>
-0.1469

> <Gold.PLP.part.nonpolar>
-28.4918

> <Gold.PLP.part.repulsive>
0.3664

> <Gold.PLP.ligand.clash>
0.0000

> <Gold.PLP.ligand.torsion>
0.1935

> <Gold.PLP.Chemscore.Hbond>
3.0000

> <Gold.PLP.Chemscore.CHOScore>
0.8633

> <Gold.PLP.Chemscore.Metal>
0.0000

> <Gold.Chemscore.Hbonds>
donor molecule, donor type, donor heavy atom, donor atom, acceptor molecule, acceptor atom, score
      L1  H     4    30       P1  7948  1.00
      L1  H    12    39       P1  8028  1.00
      L1  H    15    40       P1  8028  1.00
      L1  C    21    44       P1  8029  0.85

> <Gold.PLP.Chemscore.Internal.Correction>
0.0559

> <Gold.Rescore>
     Score         DG    S(hbond)    S(metal)    S(lipo)     H(rot)  DE(clash)    DE(int)     intcor
     20.87     -23.06       2.84        0.00     101.09       1.46       1.81       0.38       ----

> <Gold.Chemscore.Fitness>
20.8683

> <Gold.Chemscore.DG>
-23.0601

> <Gold.Chemscore.ZeroCoef>
-5.4800

> <Gold.Chemscore.Hbond>
2.8416

> <Gold.Chemscore.Metal>
0.0000

> <Gold.Chemscore.Lipo>
101.0894

> <Gold.Chemscore.Internal_Hbond>
0.0000

> <Gold.Chemscore.DEClash>
1.8077

> <Gold.Chemscore.DEInternal>
0.3841

> <Gold.Chemscore.Rot>
1.4603

> <Gold.Chemscore.Internal.Correction>
   9.000000E+99

> <Gold.Chemscore.Hbonds>
donor molecule, donor type, donor heavy atom, donor atom, acceptor molecule, acceptor atom, score
      L1  H     4    30       P1  7948  1.00
      L1  H    12    39       P1  8028  0.97
      L1  H    15    40       P1  8028  0.62

> <Gold.Chemscore.Hbond.Weighted>
-9.4910

> <Gold.Chemscore.Metal.Weighted>
-0.0000

> <Gold.Chemscore.Lipo.Weighted>
-11.8275

> <Gold.Chemscore.Internal_Hbond.Weighted>
0.0000

> <Gold.Chemscore.DEClash.Weighted>
1.8077

> <Gold.Chemscore.DEInternal.Weighted>
0.3841

> <Gold.Chemscore.Rot.Weighted>
3.7383

> <Gold.Chemscore.Internal.Correction.Weighted>
   9.000000E+99

> <Gold.Protein.RotatedTorsions>
[ 6907 6896 6895 6894 ] final    8.32 input  -60.11 | X-H torsion
[ 7974 7965 7964 7962 ] final  -51.58 input  175.53 | X-H torsion
[ 8008 7997 7996 7995 ] final -119.81 input   59.86 | X-H torsion
[ 10167 10162 10161 10158 ] final  -12.40 input  -65.29 | X-H torsion
[ 10718 10713 10712 10709 ] final    4.64 input   66.30 | X-H torsion
[ 10763 10752 10751 10750 ] final  -56.02 input  -60.55 | X-H torsion
[ 11005 11000 10999 10996 ] final -136.22 input  -57.11 | X-H torsion

> <Gold.Protein.ActiveResidues>
 VAL166  LYS551  ARG553  GLY616  TRP617  ASP618  TYR619  PRO620  LYS621  CYS622 
 ASP623  PHE694  ASN695  SER759  ASP760  ASP761  ALA762  ILE779  LEU786  VAL792 
 PHE793  MET794  SER795  GLU796  ALA797  LYS798  CYS799  TRP800  GLU811  SER814 

> <Gold.Protein.RotatedAtoms>
  151.7042  135.0924  160.0256 H   0  0  0  0  0  0  0  0  0  0  0  0  # atno 6907 bound_to 6896
  152.3702  133.6404  159.6089 H   0  0  0  0  0  0  0  0  0  0  0  0  # atno 6908 bound_to 6896
  150.7667  133.9199  159.3436 H   0  0  0  0  0  0  0  0  0  0  0  0  # atno 6909 bound_to 6896
  145.9174  140.7863  142.9664 H   0  0  0  0  0  0  0  0  0  0  0  0  # atno 7974 bound_to 7965
  155.1216  140.0398  157.2751 H   0  0  0  0  0  0  0  0  0  0  0  0  # atno 8008 bound_to 7997
  154.6609  140.2590  155.7084 H   0  0  0  0  0  0  0  0  0  0  0  0  # atno 8009 bound_to 7997
  156.2618  140.2817  156.1080 H   0  0  0  0  0  0  0  0  0  0  0  0  # atno 8010 bound_to 7997
  140.7160  143.5536  150.9273 H   0  0  0  0  0  0  0  0  0  0  0  0  # atno 10167 bound_to 10162
  156.8956  130.5703  149.5649 H   0  0  0  0  0  0  0  0  0  0  0  0  # atno 10718 bound_to 10713
  154.2001  135.6412  153.5084 H   0  0  0  0  0  0  0  0  0  0  0  0  # atno 10763 bound_to 10752
  153.0014  135.5449  154.6324 H   0  0  0  0  0  0  0  0  0  0  0  0  # atno 10764 bound_to 10752
  154.5735  135.2919  155.0777 H   0  0  0  0  0  0  0  0  0  0  0  0  # atno 10765 bound_to 10752
  140.8825  134.1913  157.4581 H   0  0  0  0  0  0  0  0  0  0  0  0  # atno 11005 bound_to 11000
  144.6749  140.1922  143.7395 LP  0  0  0  0  0  0  0  0  0  0  0  0  # atno 17320 bound_to 7965
  145.8593  139.2215  143.1726 LP  0  0  0  0  0  0  0  0  0  0  0  0  # atno 17321 bound_to 7965
  139.9261  143.6548  152.3086 LP  0  0  0  0  0  0  0  0  0  0  0  0  # atno 17342 bound_to 10162
  139.6982  144.7638  151.1318 LP  0  0  0  0  0  0  0  0  0  0  0  0  # atno 17343 bound_to 10162
  156.0607  130.5660  150.9186 LP  0  0  0  0  0  0  0  0  0  0  0  0  # atno 17370 bound_to 10713
  157.6057  131.0939  150.8883 LP  0  0  0  0  0  0  0  0  0  0  0  0  # atno 17371 bound_to 10713
  139.8721  134.9823  156.5153 LP  0  0  0  0  0  0  0  0  0  0  0  0  # atno 17394 bound_to 11000
  140.8444  133.8180  155.9106 LP  0  0  0  0  0  0  0  0  0  0  0  0  # atno 17395 bound_to 11000

$$$$
