AV-unprocessed.smi:1854|AV-procd|sdf|7529|dock8
  -GOLD-   22720 9243D 1   1.00000     0.00000
 Structure written by MMmdl.
 39 41  0  0  0  0  0  0  0  0  1 V2000
  151.4918  136.4310  155.4611 O   0  0  0  0  0  0  0  0  0  0  0  0
  150.7008  137.0421  156.1776 C   0  0  0  0  0  0  0  0  0  0  0  0
  151.0573  137.8964  157.1473 N   0  0  0  0  0  0  0  0  0  0  0  0
  152.4315  138.2283  157.5097 C   0  0  0  0  0  0  0  0  0  0  0  0
  152.4502  139.5565  158.2088 C   0  0  0  0  0  0  0  0  0  0  0  0
  151.9825  140.6646  157.6327 N   0  0  0  0  0  0  0  0  0  0  0  0
  152.1832  141.6226  158.6071 C   0  0  0  0  0  0  0  0  0  0  0  0
  151.8939  143.0060  158.6087 C   0  0  0  0  0  0  0  0  0  0  0  0
  152.1867  143.7949  159.7406 C   0  0  0  0  0  0  0  0  0  0  0  0
  152.7720  143.2135  160.8840 C   0  0  0  0  0  0  0  0  0  0  0  0
  153.0701  141.8374  160.9024 C   0  0  0  0  0  0  0  0  0  0  0  0
  152.7767  141.0547  159.7698 C   0  0  0  0  0  0  0  0  0  0  0  0
  152.9367  139.7069  159.4667 N   0  0  0  0  0  0  0  0  0  0  0  0
  153.4998  138.6923  160.3433 C   0  0  0  0  0  0  0  0  0  0  0  0
  152.5904  137.4615  160.4337 C   0  0  0  0  0  0  0  0  0  0  0  0
  153.3956  136.3249  160.7103 O   0  0  0  0  0  0  0  0  0  0  0  0
  153.8165  136.1188  162.0079 C   0  0  0  0  0  0  0  0  0  0  0  0
  153.5506  137.0133  163.0765 C   0  0  0  0  0  0  0  0  0  0  0  0
  154.0137  136.7325  164.3765 C   0  0  0  0  0  0  0  0  0  0  0  0
  154.7466  135.5586  164.6273 C   0  0  0  0  0  0  0  0  0  0  0  0
  155.0171  134.6651  163.5749 C   0  0  0  0  0  0  0  0  0  0  0  0
  154.5551  134.9436  162.2734 C   0  0  0  0  0  0  0  0  0  0  0  0
  154.9002  133.8282  161.0003 Cl  0  0  0  0  0  0  0  0  0  0  0  0
  149.6049  136.9626  156.1090 H   0  0  0  0  0  0  0  0  0  0  0  0
  150.3243  138.3441  157.6782 H   0  0  0  0  0  0  0  0  0  0  0  0
  152.8645  137.4621  158.1555 H   0  0  0  0  0  0  0  0  0  0  0  0
  153.0485  138.2670  156.6122 H   0  0  0  0  0  0  0  0  0  0  0  0
  151.4447  143.4605  157.7380 H   0  0  0  0  0  0  0  0  0  0  0  0
  151.9604  144.8511  159.7318 H   0  0  0  0  0  0  0  0  0  0  0  0
  152.9922  143.8244  161.7471 H   0  0  0  0  0  0  0  0  0  0  0  0
  153.5179  141.3887  161.7766 H   0  0  0  0  0  0  0  0  0  0  0  0
  154.4911  138.4122  159.9875 H   0  0  0  0  0  0  0  0  0  0  0  0
  153.6421  139.1272  161.3330 H   0  0  0  0  0  0  0  0  0  0  0  0
  151.8543  137.6056  161.2264 H   0  0  0  0  0  0  0  0  0  0  0  0
  152.0566  137.3249  159.4919 H   0  0  0  0  0  0  0  0  0  0  0  0
  152.9927  137.9248  162.9258 H   0  0  0  0  0  0  0  0  0  0  0  0
  153.8059  137.4204  165.1829 H   0  0  0  0  0  0  0  0  0  0  0  0
  155.1009  135.3437  165.6247 H   0  0  0  0  0  0  0  0  0  0  0  0
  155.5806  133.7640  163.7676 H   0  0  0  0  0  0  0  0  0  0  0  0
  1  2  2  0  0  0  0
  2  3  1  0  0  0  0
  2 24  1  0  0  0  0
  3  4  1  0  0  0  0
  3 25  1  0  0  0  0
  4  5  1  0  0  0  0
  4 26  1  0  0  0  0
  4 27  1  0  0  0  0
  5 13  1  0  0  0  0
  5  6  2  0  0  0  0
  6  7  1  0  0  0  0
  7 12  2  0  0  0  0
  7  8  1  0  0  0  0
  8  9  2  0  0  0  0
  8 28  1  0  0  0  0
  9 10  1  0  0  0  0
  9 29  1  0  0  0  0
 10 11  2  0  0  0  0
 10 30  1  0  0  0  0
 11 12  1  0  0  0  0
 11 31  1  0  0  0  0
 12 13  1  0  0  0  0
 13 14  1  0  0  0  0
 14 15  1  0  0  0  0
 14 32  1  0  0  0  0
 14 33  1  0  0  0  0
 15 16  1  0  0  0  0
 15 34  1  0  0  0  0
 15 35  1  0  0  0  0
 16 17  1  0  0  0  0
 17 22  1  0  0  0  0
 17 18  2  0  0  0  0
 18 19  1  0  0  0  0
 18 36  1  0  0  0  0
 19 20  2  0  0  0  0
 19 37  1  0  0  0  0
 20 21  1  0  0  0  0
 20 38  1  0  0  0  0
 21 22  2  0  0  0  0
 21 39  1  0  0  0  0
 22 23  1  0  0  0  0
M  END
> <s_m_source_file>
AV-unprocessed.smi

> <i_m_source_file_index>
1854

> <i_lp_mmshare_version>
43012

> <i_f3d_flags>
0

> <s_epik_input>
Tz1bQ0hdW05IXVtDSDJdYyhuMSluKGMoYzEyKVtjSF1bY0hdW2NIXVtjSF0yKVtDSDJdW0NIMl1PYzNbY0hdW2NIXVtjSF1bY0hdYzNDbA==

> <s_epik_cmdline>
J2VwaWtfcHl0aG9uJywgJy1waCcsICc3LjAnLCAnLXRuJywgJzgnLCAnLW1hJywgJzIwMCcsICctbWV0YWxfYmluZGluZycsICctaW1hZScsICc8aW5maWxlLm1hZT4nLCAnLW9tYWUnLCAnPG91dGZpbGUubWFlPic=

> <r_lp_tautomer_probability>
1

> <r_epik_Ionization_Penalty>
0.0546265

> <r_epik_Ionization_Penalty_Charging>
0

> <r_epik_Ionization_Penalty_Neutral>
0.0546265

> <r_epik_State_Penalty>
0.0470049

> <r_epik_Charging_Adjusted_Penalty>
0.0470049

> <i_epik_Tot_Q>
0

> <i_epik_Tot_abs_Q>
0

> <r_epik_Metal_State_Penalty>
0.0430103

> <b_epik_Metal_Only>
0

> <s_lp_Force_Field>
OPLS_2005

> <r_lp_Energy>
13.3616

> <b_lp_Chiralities_Consistent>
1

> <s_lp_Variant>
AV-unprocessed.smi:1854-1

> <Gold.Version>
5.8.1

> <Gold.Id.Protein>
6NUR|6NUR_protein|mol2

> <Gold.PLP.Fitness>
48.6238

> <Gold.PLP.PLP>
-43.6482

> <Gold.PLP.part.hbond>
-1.9508

> <Gold.PLP.part.metal>
0.0000

> <Gold.PLP.part.buried>
-3.8870

> <Gold.PLP.part.nonpolar>
-37.9123

> <Gold.PLP.part.repulsive>
0.1350

> <Gold.PLP.ligand.clash>
0.0000

> <Gold.PLP.ligand.torsion>
0.5236

> <Gold.PLP.Chemscore.Hbond>
1.9913

> <Gold.PLP.Chemscore.CHOScore>
0.0000

> <Gold.PLP.Chemscore.Metal>
0.0000

> <Gold.Chemscore.Hbonds>
donor molecule, donor type, donor heavy atom, donor atom, acceptor molecule, acceptor atom, score
      P1  H  6896  6909       L1    16  1.00
      P1  H 10752 10764       L1     1  1.00

> <Gold.PLP.Chemscore.Internal.Correction>
0.0491

> <Gold.Rescore>
     Score         DG    S(hbond)    S(metal)    S(lipo)     H(rot)  DE(clash)    DE(int)     intcor
     18.82     -19.96       1.64        0.00     129.98       2.42       0.39       0.76       ----

> <Gold.Chemscore.Fitness>
18.8193

> <Gold.Chemscore.DG>
-19.9628

> <Gold.Chemscore.ZeroCoef>
-5.4800

> <Gold.Chemscore.Hbond>
1.6383

> <Gold.Chemscore.Metal>
0.0000

> <Gold.Chemscore.Lipo>
129.9792

> <Gold.Chemscore.Internal_Hbond>
0.0000

> <Gold.Chemscore.DEClash>
0.3869

> <Gold.Chemscore.DEInternal>
0.7565

> <Gold.Chemscore.Rot>
2.4205

> <Gold.Chemscore.Internal.Correction>
   9.000000E+99

> <Gold.Chemscore.Hbonds>
donor molecule, donor type, donor heavy atom, donor atom, acceptor molecule, acceptor atom, score
      P1  H  6896  6909       L1    16  0.28
      P1  H 10752 10764       L1     1  1.00

> <Gold.Chemscore.Hbond.Weighted>
-5.4718

> <Gold.Chemscore.Metal.Weighted>
-0.0000

> <Gold.Chemscore.Lipo.Weighted>
-15.2076

> <Gold.Chemscore.Internal_Hbond.Weighted>
0.0000

> <Gold.Chemscore.DEClash.Weighted>
0.3869

> <Gold.Chemscore.DEInternal.Weighted>
0.7565

> <Gold.Chemscore.Rot.Weighted>
6.1965

> <Gold.Chemscore.Internal.Correction.Weighted>
   9.000000E+99

> <Gold.Protein.RotatedTorsions>
[ 6907 6896 6895 6894 ] final  164.60 input  -60.11 | X-H torsion
[ 7974 7965 7964 7962 ] final  152.18 input  175.53 | X-H torsion
[ 8008 7997 7996 7995 ] final -159.99 input   59.86 | X-H torsion
[ 10167 10162 10161 10158 ] final  -91.11 input  -65.29 | X-H torsion
[ 10718 10713 10712 10709 ] final -114.54 input   66.30 | X-H torsion
[ 10763 10752 10751 10750 ] final  -48.01 input  -60.55 | X-H torsion
[ 11005 11000 10999 10996 ] final  148.35 input  -57.11 | X-H torsion

> <Gold.Protein.ActiveResidues>
 VAL166  LYS551  ARG553  GLY616  TRP617  ASP618  TYR619  PRO620  LYS621  CYS622 
 ASP623  PHE694  ASN695  SER759  ASP760  ASP761  ALA762  ILE779  LEU786  VAL792 
 PHE793  MET794  SER795  GLU796  ALA797  LYS798  CYS799  TRP800  GLU811  SER814 

> <Gold.Protein.RotatedAtoms>
  151.9074  133.3552  159.3851 H   0  0  0  0  0  0  0  0  0  0  0  0  # atno 6907 bound_to 6896
  150.7066  134.4767  159.5460 H   0  0  0  0  0  0  0  0  0  0  0  0  # atno 6908 bound_to 6896
  152.2367  134.8269  160.0517 H   0  0  0  0  0  0  0  0  0  0  0  0  # atno 6909 bound_to 6896
  144.8240  139.6635  143.6088 H   0  0  0  0  0  0  0  0  0  0  0  0  # atno 7974 bound_to 7965
  155.7708  140.0851  157.2109 H   0  0  0  0  0  0  0  0  0  0  0  0  # atno 8008 bound_to 7997
  154.3996  140.1525  156.2997 H   0  0  0  0  0  0  0  0  0  0  0  0  # atno 8009 bound_to 7997
  155.8749  140.3423  155.5849 H   0  0  0  0  0  0  0  0  0  0  0  0  # atno 8010 bound_to 7997
  140.3482  143.2905  151.9757 H   0  0  0  0  0  0  0  0  0  0  0  0  # atno 10167 bound_to 10162
  156.0836  130.6032  150.8788 H   0  0  0  0  0  0  0  0  0  0  0  0  # atno 10718 bound_to 10713
  154.0707  135.6605  153.4824 H   0  0  0  0  0  0  0  0  0  0  0  0  # atno 10763 bound_to 10752
  153.0392  135.5156  154.7569 H   0  0  0  0  0  0  0  0  0  0  0  0  # atno 10764 bound_to 10752
  154.6634  135.3018  154.9804 H   0  0  0  0  0  0  0  0  0  0  0  0  # atno 10765 bound_to 10752
  140.0953  134.9016  157.1713 H   0  0  0  0  0  0  0  0  0  0  0  0  # atno 11005 bound_to 11000
  146.2546  139.6273  142.9404 LP  0  0  0  0  0  0  0  0  0  0  0  0  # atno 17320 bound_to 7965
  145.5041  141.0437  143.2524 LP  0  0  0  0  0  0  0  0  0  0  0  0  # atno 17321 bound_to 7965
  139.4830  144.6099  151.7453 LP  0  0  0  0  0  0  0  0  0  0  0  0  # atno 17342 bound_to 10162
  140.5244  144.0828  150.6033 LP  0  0  0  0  0  0  0  0  0  0  0  0  # atno 17343 bound_to 10162
  157.5963  131.0943  150.9036 LP  0  0  0  0  0  0  0  0  0  0  0  0  # atno 17370 bound_to 10713
  156.9202  130.5312  149.5279 LP  0  0  0  0  0  0  0  0  0  0  0  0  # atno 17371 bound_to 10713
  140.3296  134.2825  155.7230 LP  0  0  0  0  0  0  0  0  0  0  0  0  # atno 17394 bound_to 11000
  141.2090  133.7762  157.0024 LP  0  0  0  0  0  0  0  0  0  0  0  0  # atno 17395 bound_to 11000

$$$$
