AV-unprocessed.smi:5|AV-procd|sdf|37|dock5
  -GOLD-   2262015153D 1   1.00000     0.00000
 Structure written by MMmdl.
 44 45  0  0  0  0  0  0  0  0  1 V2000
  153.2553  142.7184  161.4085 C   0  0  0  0  0  0  0  0  0  0  0  0
  152.6420  142.7741  160.0241 C   0  0  0  0  0  0  0  0  0  0  0  0
  152.5928  143.9092  159.3026 C   0  0  0  0  0  0  0  0  0  0  0  0
  151.9618  143.9805  157.9259 C   0  0  0  0  0  0  0  0  0  0  0  0
  151.1051  142.7354  157.6380 C   0  0  0  0  0  0  0  0  0  0  0  0
  151.8259  141.5115  158.0354 N   0  0  0  0  0  0  0  0  0  0  0  0
  152.1292  140.4725  157.2169 C   0  0  0  0  0  0  0  0  0  0  0  0
  152.9609  139.6096  157.5013 O   0  0  0  0  0  0  0  0  0  0  0  0
  151.4900  140.4829  156.0346 N   0  0  0  0  0  0  0  0  0  0  0  0
  151.6431  139.4854  154.9808 C   0  0  0  0  0  0  0  0  0  0  0  0
  150.3879  138.6360  154.8200 C   0  0  0  0  0  0  0  0  0  0  0  0
  149.2264  139.1684  154.3636 C   0  0  0  0  0  0  0  0  0  0  0  0
  148.0505  138.4500  154.1974 N   0  0  0  0  0  0  0  0  0  0  0  0
  146.8372  139.0812  153.7048 C   0  0  0  0  0  0  0  0  0  0  0  0
  146.3890  138.4485  152.3769 C   0  0  0  0  0  0  0  0  0  0  0  0
  146.9903  140.6102  153.6045 C   0  0  0  0  0  0  0  0  0  0  0  0
  148.0456  137.0636  154.4946 C   0  0  0  0  0  0  0  0  0  0  0  0
  147.0642  136.3320  154.3641 O   0  0  0  0  0  0  0  0  0  0  0  0
  149.2410  136.5163  154.9584 N   0  0  0  0  0  0  0  0  0  0  0  0
  150.4387  137.2082  155.1501 C   0  0  0  0  0  0  0  0  0  0  0  0
  151.4250  136.6027  155.5658 O   0  0  0  0  0  0  0  0  0  0  0  0
  152.1058  141.4524  159.4817 C   0  0  0  0  0  0  0  0  0  0  0  0
  149.2414  135.5299  155.1739 H   0  0  0  0  0  0  0  0  0  0  0  0
  152.5234  142.3564  162.1308 H   0  0  0  0  0  0  0  0  0  0  0  0
  153.5964  143.7017  161.7336 H   0  0  0  0  0  0  0  0  0  0  0  0
  154.1102  142.0416  161.4168 H   0  0  0  0  0  0  0  0  0  0  0  0
  153.0088  144.8258  159.6947 H   0  0  0  0  0  0  0  0  0  0  0  0
  151.3483  144.8792  157.8569 H   0  0  0  0  0  0  0  0  0  0  0  0
  152.7575  144.0761  157.1864 H   0  0  0  0  0  0  0  0  0  0  0  0
  150.1905  142.7854  158.2312 H   0  0  0  0  0  0  0  0  0  0  0  0
  150.7708  142.7499  156.6007 H   0  0  0  0  0  0  0  0  0  0  0  0
  150.8419  141.2368  155.8575 H   0  0  0  0  0  0  0  0  0  0  0  0
  151.8280  140.0103  154.0434 H   0  0  0  0  0  0  0  0  0  0  0  0
  152.5294  138.8759  155.1649 H   0  0  0  0  0  0  0  0  0  0  0  0
  149.2232  140.2204  154.1179 H   0  0  0  0  0  0  0  0  0  0  0  0
  146.0361  138.9142  154.4244 H   0  0  0  0  0  0  0  0  0  0  0  0
  145.4407  138.8715  152.0446 H   0  0  0  0  0  0  0  0  0  0  0  0
  146.2492  137.3721  152.4828 H   0  0  0  0  0  0  0  0  0  0  0  0
  147.1186  138.6136  151.5838 H   0  0  0  0  0  0  0  0  0  0  0  0
  146.0372  141.0788  153.3583 H   0  0  0  0  0  0  0  0  0  0  0  0
  147.7022  140.9042  152.8333 H   0  0  0  0  0  0  0  0  0  0  0  0
  147.3276  141.0344  154.5508 H   0  0  0  0  0  0  0  0  0  0  0  0
  152.8461  140.6849  159.7137 H   0  0  0  0  0  0  0  0  0  0  0  0
  151.1952  141.1851  160.0193 H   0  0  0  0  0  0  0  0  0  0  0  0
  1  2  1  0  0  0  0
  1 24  1  0  0  0  0
  1 25  1  0  0  0  0
  1 26  1  0  0  0  0
  2 22  1  0  0  0  0
  2  3  2  0  0  0  0
  3  4  1  0  0  0  0
  3 27  1  0  0  0  0
  4  5  1  0  0  0  0
  4 28  1  0  0  0  0
  4 29  1  0  0  0  0
  5  6  1  0  0  0  0
  5 30  1  0  0  0  0
  5 31  1  0  0  0  0
  6  7  1  0  0  0  0
  6 22  1  0  0  0  0
  7  8  2  0  0  0  0
  7  9  1  0  0  0  0
  9 10  1  0  0  0  0
  9 32  1  0  0  0  0
 10 11  1  0  0  0  0
 10 33  1  0  0  0  0
 10 34  1  0  0  0  0
 11 20  1  0  0  0  0
 11 12  2  0  0  0  0
 12 13  1  0  0  0  0
 12 35  1  0  0  0  0
 13 14  1  0  0  0  0
 13 17  1  0  0  0  0
 14 15  1  0  0  0  0
 14 16  1  0  0  0  0
 14 36  1  0  0  0  0
 15 37  1  0  0  0  0
 15 38  1  0  0  0  0
 15 39  1  0  0  0  0
 16 40  1  0  0  0  0
 16 41  1  0  0  0  0
 16 42  1  0  0  0  0
 17 18  2  0  0  0  0
 17 19  1  0  0  0  0
 19 23  1  0  0  0  0
 19 20  1  0  0  0  0
 20 21  2  0  0  0  0
 22 43  1  0  0  0  0
 22 44  1  0  0  0  0
M  END
> <s_m_source_file>
AV-unprocessed.smi

> <i_m_source_file_index>
5

> <i_lp_mmshare_version>
43012

> <i_f3d_flags>
0

> <s_epik_input>
W0NIM11DMT1bQ0hdW0NIMl1bQ0gyXU4oW0NIMl0xKUMoPU8pW05IXVtDSDJdYzJbY0hdbihbQ0hdKFtDSDNdKVtDSDNdKWMoPU8pW25IXWMyPU8=

> <s_epik_cmdline>
J2VwaWtfcHl0aG9uJywgJy1waCcsICc3LjAnLCAnLXRuJywgJzgnLCAnLW1hJywgJzIwMCcsICctbWV0YWxfYmluZGluZycsICctaW1hZScsICc8aW5maWxlLm1hZT4nLCAnLW9tYWUnLCAnPG91dGZpbGUubWFlPic=

> <r_lp_tautomer_probability>
0.999537

> <r_epik_Ionization_Penalty>
0.000965624

> <r_epik_Ionization_Penalty_Charging>
0.000915459

> <r_epik_Ionization_Penalty_Neutral>
5.01649e-05

> <r_epik_State_Penalty>
0.000593189

> <r_epik_Charging_Adjusted_Penalty>
0.00150865

> <i_epik_Tot_Q>
0

> <i_epik_Tot_abs_Q>
0

> <r_epik_Metal_State_Penalty>
0.281504

> <b_epik_Metal_Only>
0

> <s_lp_Force_Field>
OPLS_2005

> <r_lp_Energy>
30.7874

> <b_lp_Chiralities_Consistent>
1

> <s_lp_Variant>
AV-unprocessed.smi:5-1

> <Gold.Version>
5.8.1

> <Gold.Id.Protein>
6NUR|6NUR_protein|mol2

> <Gold.PLP.Fitness>
47.9698

> <Gold.PLP.PLP>
-42.2320

> <Gold.PLP.part.hbond>
-3.0000

> <Gold.PLP.part.metal>
0.0000

> <Gold.PLP.part.buried>
1.3366

> <Gold.PLP.part.nonpolar>
-42.0381

> <Gold.PLP.part.repulsive>
2.0577

> <Gold.PLP.ligand.clash>
0.0000

> <Gold.PLP.ligand.torsion>
0.2754

> <Gold.PLP.Chemscore.Hbond>
1.9913

> <Gold.PLP.Chemscore.CHOScore>
0.0844

> <Gold.PLP.Chemscore.Metal>
0.0000

> <Gold.Chemscore.Hbonds>
donor molecule, donor type, donor heavy atom, donor atom, acceptor molecule, acceptor atom, score
      P1  H  7997  8008       L1     8  1.00
      P1  H 10752 10764       L1    21  0.96

> <Gold.PLP.Chemscore.Internal.Correction>
0.0617

> <Gold.Rescore>
     Score         DG    S(hbond)    S(metal)    S(lipo)     H(rot)  DE(clash)    DE(int)     intcor
     17.23     -20.71       1.82        0.00     110.86       1.48       2.39       1.09       ----

> <Gold.Chemscore.Fitness>
17.2325

> <Gold.Chemscore.DG>
-20.7142

> <Gold.Chemscore.ZeroCoef>
-5.4800

> <Gold.Chemscore.Hbond>
1.8157

> <Gold.Chemscore.Metal>
0.0000

> <Gold.Chemscore.Lipo>
110.8555

> <Gold.Chemscore.Internal_Hbond>
0.0000

> <Gold.Chemscore.DEClash>
2.3886

> <Gold.Chemscore.DEInternal>
1.0930

> <Gold.Chemscore.Rot>
1.4846

> <Gold.Chemscore.Internal.Correction>
   9.000000E+99

> <Gold.Chemscore.Hbonds>
donor molecule, donor type, donor heavy atom, donor atom, acceptor molecule, acceptor atom, score
      P1  H  7997  8008       L1     8  0.55
      P1  H 10752 10764       L1    21  0.90

> <Gold.Chemscore.Hbond.Weighted>
-6.0646

> <Gold.Chemscore.Metal.Weighted>
-0.0000

> <Gold.Chemscore.Lipo.Weighted>
-12.9701

> <Gold.Chemscore.Internal_Hbond.Weighted>
0.0000

> <Gold.Chemscore.DEClash.Weighted>
2.3886

> <Gold.Chemscore.DEInternal.Weighted>
1.0930

> <Gold.Chemscore.Rot.Weighted>
3.8005

> <Gold.Chemscore.Internal.Correction.Weighted>
   9.000000E+99

> <Gold.Protein.RotatedTorsions>
[ 6907 6896 6895 6894 ] final -106.25 input  -60.11 | X-H torsion
[ 7974 7965 7964 7962 ] final -104.97 input  175.53 | X-H torsion
[ 8008 7997 7996 7995 ] final  -65.38 input   59.86 | X-H torsion
[ 10167 10162 10161 10158 ] final   -0.03 input  -65.29 | X-H torsion
[ 10718 10713 10712 10709 ] final -122.30 input   66.30 | X-H torsion
[ 10763 10752 10751 10750 ] final  -56.98 input  -60.55 | X-H torsion
[ 11005 11000 10999 10996 ] final  -26.83 input  -57.11 | X-H torsion

> <Gold.Protein.ActiveResidues>
 VAL166  LYS551  ARG553  GLY616  TRP617  ASP618  TYR619  PRO620  LYS621  CYS622 
 ASP623  PHE694  ASN695  SER759  ASP760  ASP761  ALA762  ILE779  LEU786  VAL792 
 PHE793  MET794  SER795  GLU796  ALA797  LYS798  CYS799  TRP800  GLU811  SER814 

> <Gold.Protein.RotatedAtoms>
  150.7379  134.0005  159.3636 H   0  0  0  0  0  0  0  0  0  0  0  0  # atno 6907 bound_to 6896
  151.7958  135.0721  160.0403 H   0  0  0  0  0  0  0  0  0  0  0  0  # atno 6908 bound_to 6896
  152.3175  133.5782  159.5758 H   0  0  0  0  0  0  0  0  0  0  0  0  # atno 6909 bound_to 6896
  145.2364  140.9189  143.3175 H   0  0  0  0  0  0  0  0  0  0  0  0  # atno 7974 bound_to 7965
  154.4668  140.0934  156.7041 H   0  0  0  0  0  0  0  0  0  0  0  0  # atno 8008 bound_to 7997
  155.4836  140.3468  155.4325 H   0  0  0  0  0  0  0  0  0  0  0  0  # atno 8009 bound_to 7997
  156.0970  140.1412  156.9506 H   0  0  0  0  0  0  0  0  0  0  0  0  # atno 8010 bound_to 7997
  140.6749  143.6943  150.8002 H   0  0  0  0  0  0  0  0  0  0  0  0  # atno 10167 bound_to 10162
  156.1407  130.6464  150.9766 H   0  0  0  0  0  0  0  0  0  0  0  0  # atno 10718 bound_to 10713
  154.2153  135.6387  153.5127 H   0  0  0  0  0  0  0  0  0  0  0  0  # atno 10763 bound_to 10752
  152.9981  135.5483  154.6172 H   0  0  0  0  0  0  0  0  0  0  0  0  # atno 10764 bound_to 10752
  154.5619  135.2909  155.0885 H   0  0  0  0  0  0  0  0  0  0  0  0  # atno 10765 bound_to 10752
  140.9064  133.7490  156.0612 H   0  0  0  0  0  0  0  0  0  0  0  0  # atno 11005 bound_to 11000
  144.9629  139.3961  143.6347 LP  0  0  0  0  0  0  0  0  0  0  0  0  # atno 17320 bound_to 7965
  146.3340  139.8690  142.8843 LP  0  0  0  0  0  0  0  0  0  0  0  0  # atno 17321 bound_to 7965
  140.0634  143.5132  152.2616 LP  0  0  0  0  0  0  0  0  0  0  0  0  # atno 17342 bound_to 10162
  139.6037  144.7590  151.3112 LP  0  0  0  0  0  0  0  0  0  0  0  0  # atno 17343 bound_to 10162
  157.6573  131.0887  150.7918 LP  0  0  0  0  0  0  0  0  0  0  0  0  # atno 17370 bound_to 10713
  156.7994  130.4916  149.5372 LP  0  0  0  0  0  0  0  0  0  0  0  0  # atno 17371 bound_to 10713
  140.8165  134.3338  157.5395 LP  0  0  0  0  0  0  0  0  0  0  0  0  # atno 17394 bound_to 11000
  139.8750  134.9284  156.3451 LP  0  0  0  0  0  0  0  0  0  0  0  0  # atno 17395 bound_to 11000

$$$$
