AV-unprocessed.smi:437|AV-procd|sdf|2561|dock1
  -GOLD-   2262022533D 1   1.00000     0.00000
 Structure written by MMmdl.
 48 49  0  0  0  0  0  0  0  0  1 V2000
  146.7131  131.1269  161.4426 C   0  0  0  0  0  0  0  0  0  0  0  0
  146.5257  132.4261  160.7062 C   0  0  0  0  0  0  0  0  0  0  0  0
  145.9313  132.3641  159.5601 N   0  0  0  0  0  0  0  0  0  0  0  0
  145.7138  133.4969  158.7999 N   0  0  0  0  0  0  0  0  0  0  0  0
  145.0387  133.2379  157.5192 C   0  0  0  0  0  0  0  0  0  0  0  0
  145.8459  133.7157  156.3019 C   0  0  0  0  0  0  0  0  0  0  0  0
  146.7754  134.5139  156.4483 O   0  0  0  0  0  0  0  0  0  0  0  0
  145.4588  133.1908  155.1217 N   0  0  0  0  0  0  0  0  0  0  0  0
  145.9826  133.4322  153.9045 C   0  0  0  0  0  0  0  0  0  0  0  0
  146.7477  134.3564  153.6203 O   0  0  0  0  0  0  0  0  0  0  0  0
  145.5613  132.5231  153.0135 N   0  0  0  0  0  0  0  0  0  0  0  0
  146.1476  132.2868  151.6934 C   0  0  2  0  0  0  0  0  0  0  0  0
  146.2074  133.5975  150.8801 C   0  0  0  0  0  0  0  0  0  0  0  0
  144.8107  134.0802  150.4529 C   0  0  0  0  0  0  0  0  0  0  0  0
  144.0549  132.9858  149.6846 C   0  0  0  0  0  0  0  0  0  0  0  0
  143.9721  131.6850  150.4992 C   0  0  0  0  0  0  0  0  0  0  0  0
  145.3701  131.1899  150.9242 C   0  0  2  0  0  0  0  0  0  0  0  0
  145.2886  129.8626  151.6977 C   0  0  0  0  0  0  0  0  0  0  0  0
  146.0783  134.7597  159.1659 C   0  0  0  0  0  0  0  0  0  0  0  0
  145.8579  135.7439  158.4582 O   0  0  0  0  0  0  0  0  0  0  0  0
  146.7510  134.8225  160.4653 C   0  0  0  0  0  0  0  0  0  0  0  0
  147.1564  136.1256  160.8833 C   0  0  0  0  0  0  0  0  0  0  0  0
  147.4852  137.1761  161.2416 N   0  0  0  0  0  0  0  0  0  0  0  0
  146.9740  133.7167  161.2189 C   0  0  0  0  0  0  0  0  0  0  0  0
  147.6670  133.7275  162.5745 C   0  0  0  0  0  0  0  0  0  0  0  0
  146.1763  131.1395  162.3913 H   0  0  0  0  0  0  0  0  0  0  0  0
  147.7679  130.9489  161.6525 H   0  0  0  0  0  0  0  0  0  0  0  0
  146.3451  130.2760  160.8671 H   0  0  0  0  0  0  0  0  0  0  0  0
  144.8524  132.1687  157.4024 H   0  0  0  0  0  0  0  0  0  0  0  0
  144.0534  133.7079  157.5115 H   0  0  0  0  0  0  0  0  0  0  0  0
  144.6879  132.5404  155.1554 H   0  0  0  0  0  0  0  0  0  0  0  0
  144.7731  131.9441  153.2631 H   0  0  0  0  0  0  0  0  0  0  0  0
  147.1697  131.9285  151.8309 H   0  0  0  0  0  0  0  0  0  0  0  0
  146.7134  134.3774  151.4505 H   0  0  0  0  0  0  0  0  0  0  0  0
  146.8147  133.4360  149.9886 H   0  0  0  0  0  0  0  0  0  0  0  0
  144.2361  134.3747  151.3319 H   0  0  0  0  0  0  0  0  0  0  0  0
  144.9013  134.9723  149.8326 H   0  0  0  0  0  0  0  0  0  0  0  0
  143.0515  133.3320  149.4356 H   0  0  0  0  0  0  0  0  0  0  0  0
  144.5584  132.7912  148.7366 H   0  0  0  0  0  0  0  0  0  0  0  0
  143.3497  131.8464  151.3803 H   0  0  0  0  0  0  0  0  0  0  0  0
  143.4708  130.9185  149.9072 H   0  0  0  0  0  0  0  0  0  0  0  0
  145.9302  130.9845  150.0107 H   0  0  0  0  0  0  0  0  0  0  0  0
  144.6893  129.9583  152.6034 H   0  0  0  0  0  0  0  0  0  0  0  0
  146.2807  129.5169  151.9887 H   0  0  0  0  0  0  0  0  0  0  0  0
  144.8355  129.0822  151.0857 H   0  0  0  0  0  0  0  0  0  0  0  0
  147.9249  134.7352  162.8987 H   0  0  0  0  0  0  0  0  0  0  0  0
  148.5899  133.1477  162.5354 H   0  0  0  0  0  0  0  0  0  0  0  0
  147.0210  133.2944  163.3391 H   0  0  0  0  0  0  0  0  0  0  0  0
  1  2  1  0  0  0  0
  1 26  1  0  0  0  0
  1 27  1  0  0  0  0
  1 28  1  0  0  0  0
  2 24  1  0  0  0  0
  2  3  2  0  0  0  0
  3  4  1  0  0  0  0
  4  5  1  0  0  0  0
  4 19  1  0  0  0  0
  5  6  1  0  0  0  0
  5 29  1  0  0  0  0
  5 30  1  0  0  0  0
  6  7  2  0  0  0  0
  6  8  1  0  0  0  0
  8  9  1  0  0  0  0
  8 31  1  0  0  0  0
  9 10  2  0  0  0  0
  9 11  1  0  0  0  0
 11 12  1  0  0  0  0
 11 32  1  0  0  0  0
 12 17  1  0  0  0  0
 12 13  1  0  0  0  0
 12 33  1  0  0  0  0
 13 14  1  0  0  0  0
 13 34  1  0  0  0  0
 13 35  1  0  0  0  0
 14 15  1  0  0  0  0
 14 36  1  0  0  0  0
 14 37  1  0  0  0  0
 15 16  1  0  0  0  0
 15 38  1  0  0  0  0
 15 39  1  0  0  0  0
 16 17  1  0  0  0  0
 16 40  1  0  0  0  0
 16 41  1  0  0  0  0
 17 18  1  0  0  0  0
 17 42  1  0  0  0  0
 18 43  1  0  0  0  0
 18 44  1  0  0  0  0
 18 45  1  0  0  0  0
 19 20  2  0  0  0  0
 19 21  1  0  0  0  0
 21 22  1  0  0  0  0
 21 24  2  0  0  0  0
 22 23  3  0  0  0  0
 24 25  1  0  0  0  0
 25 46  1  0  0  0  0
 25 47  1  0  0  0  0
 25 48  1  0  0  0  0
M  END
> <s_m_source_file>
AV-unprocessed.smi

> <i_m_source_file_index>
437

> <i_lp_mmshare_version>
43012

> <i_f3d_flags>
0

> <s_epik_input>
TiNDYyhjMVtDSDNdKWMoPU8pbihuYzFbQ0gzXSlbQ0gyXUMoPU8pW05IXUMoPU8pW05IXVtDQEBIXTJbQ0gyXVtDSDJdW0NIMl1bQ0gyXVtDQEhdMltDSDNd

> <s_epik_cmdline>
J2VwaWtfcHl0aG9uJywgJy1waCcsICc3LjAnLCAnLXRuJywgJzgnLCAnLW1hJywgJzIwMCcsICctbWV0YWxfYmluZGluZycsICctaW1hZScsICc8aW5maWxlLm1hZT4nLCAnLW9tYWUnLCAnPG91dGZpbGUubWFlPic=

> <r_lp_tautomer_probability>
1

> <r_epik_Ionization_Penalty>
3.27035e-05

> <r_epik_Ionization_Penalty_Charging>
1.6965e-11

> <r_epik_Ionization_Penalty_Neutral>
3.27035e-05

> <r_epik_State_Penalty>
-0

> <r_epik_Charging_Adjusted_Penalty>
1.6965e-11

> <i_epik_Tot_Q>
0

> <i_epik_Tot_abs_Q>
0

> <r_epik_Metal_State_Penalty>
-0

> <b_epik_Metal_Only>
0

> <s_lp_Force_Field>
OPLS_2005

> <r_lp_Energy>
26.4777

> <b_lp_Chiralities_Consistent>
1

> <s_lp_Variant>
AV-unprocessed.smi:437-3

> <Gold.Version>
5.8.1

> <Gold.Id.Protein>
6NUR|6NUR_protein|mol2

> <Gold.PLP.Fitness>
40.1828

> <Gold.PLP.PLP>
-33.3586

> <Gold.PLP.part.hbond>
-2.6128

> <Gold.PLP.part.metal>
0.0000

> <Gold.PLP.part.buried>
-4.3693

> <Gold.PLP.part.nonpolar>
-26.4089

> <Gold.PLP.part.repulsive>
0.0879

> <Gold.PLP.ligand.clash>
0.0000

> <Gold.PLP.ligand.torsion>
0.3399

> <Gold.PLP.Chemscore.Hbond>
2.4898

> <Gold.PLP.Chemscore.CHOScore>
0.0000

> <Gold.PLP.Chemscore.Metal>
0.0000

> <Gold.Chemscore.Hbonds>
donor molecule, donor type, donor heavy atom, donor atom, acceptor molecule, acceptor atom, score
      L1  H     8    31       P1 10957  0.63
      P1  H  6931  6943       L1    23  0.91
      P1  H  6934  6947       L1    23  0.94

> <Gold.PLP.Chemscore.Internal.Correction>
0.0348

> <Gold.Rescore>
     Score         DG    S(hbond)    S(metal)    S(lipo)     H(rot)  DE(clash)    DE(int)     intcor
     15.88     -21.19       2.61        0.00      93.98       1.57       0.20       5.12       ----

> <Gold.Chemscore.Fitness>
15.8752

> <Gold.Chemscore.DG>
-21.1946

> <Gold.Chemscore.ZeroCoef>
-5.4800

> <Gold.Chemscore.Hbond>
2.6127

> <Gold.Chemscore.Metal>
0.0000

> <Gold.Chemscore.Lipo>
93.9835

> <Gold.Chemscore.Internal_Hbond>
0.0000

> <Gold.Chemscore.DEClash>
0.1960

> <Gold.Chemscore.DEInternal>
5.1234

> <Gold.Chemscore.Rot>
1.5656

> <Gold.Chemscore.Internal.Correction>
   9.000000E+99

> <Gold.Chemscore.Hbonds>
donor molecule, donor type, donor heavy atom, donor atom, acceptor molecule, acceptor atom, score
      L1  H     8    31       P1 10957  0.62
      P1  H  6931  6943       L1    23  0.85
      P1  H  6934  6947       L1    23  0.91

> <Gold.Chemscore.Hbond.Weighted>
-8.7264

> <Gold.Chemscore.Metal.Weighted>
-0.0000

> <Gold.Chemscore.Lipo.Weighted>
-10.9961

> <Gold.Chemscore.Internal_Hbond.Weighted>
0.0000

> <Gold.Chemscore.DEClash.Weighted>
0.1960

> <Gold.Chemscore.DEInternal.Weighted>
5.1234

> <Gold.Chemscore.Rot.Weighted>
4.0079

> <Gold.Chemscore.Internal.Correction.Weighted>
   9.000000E+99

> <Gold.Protein.RotatedTorsions>
[ 6907 6896 6895 6894 ] final -128.96 input  -60.11 | X-H torsion
[ 7974 7965 7964 7962 ] final -127.38 input  175.53 | X-H torsion
[ 8008 7997 7996 7995 ] final  -86.19 input   59.86 | X-H torsion
[ 10167 10162 10161 10158 ] final -122.38 input  -65.29 | X-H torsion
[ 10718 10713 10712 10709 ] final -108.24 input   66.30 | X-H torsion
[ 10763 10752 10751 10750 ] final    5.18 input  -60.55 | X-H torsion
[ 11005 11000 10999 10996 ] final  147.39 input  -57.11 | X-H torsion

> <Gold.Protein.ActiveResidues>
 VAL166  LYS551  ARG553  GLY616  TRP617  ASP618  TYR619  PRO620  LYS621  CYS622 
 ASP623  PHE694  ASN695  SER759  ASP760  ASP761  ALA762  ILE779  LEU786  VAL792 
 PHE793  MET794  SER795  GLU796  ALA797  LYS798  CYS799  TRP800  GLU811  SER814 

> <Gold.Protein.RotatedAtoms>
  150.9235  133.6852  159.2826 H   0  0  0  0  0  0  0  0  0  0  0  0  # atno 6907 bound_to 6896
  151.4298  135.1007  159.9648 H   0  0  0  0  0  0  0  0  0  0  0  0  # atno 6908 bound_to 6896
  152.4991  133.8668  159.7333 H   0  0  0  0  0  0  0  0  0  0  0  0  # atno 6909 bound_to 6896
  144.9776  140.7609  143.4632 H   0  0  0  0  0  0  0  0  0  0  0  0  # atno 7974 bound_to 7965
  154.6491  140.0581  156.9935 H   0  0  0  0  0  0  0  0  0  0  0  0  # atno 8008 bound_to 7997
  155.1398  140.3264  155.4436 H   0  0  0  0  0  0  0  0  0  0  0  0  # atno 8009 bound_to 7997
  156.2568  140.1966  156.6514 H   0  0  0  0  0  0  0  0  0  0  0  0  # atno 8010 bound_to 7997
  140.0149  143.5404  152.2247 H   0  0  0  0  0  0  0  0  0  0  0  0  # atno 10167 bound_to 10162
  156.0476  130.5703  150.7934 H   0  0  0  0  0  0  0  0  0  0  0  0  # atno 10718 bound_to 10713
  153.2624  135.6924  153.7565 H   0  0  0  0  0  0  0  0  0  0  0  0  # atno 10763 bound_to 10752
  153.6619  135.3359  155.3130 H   0  0  0  0  0  0  0  0  0  0  0  0  # atno 10764 bound_to 10752
  154.8435  135.4479  154.1619 H   0  0  0  0  0  0  0  0  0  0  0  0  # atno 10765 bound_to 10752
  140.0872  134.9062  157.1594 H   0  0  0  0  0  0  0  0  0  0  0  0  # atno 11005 bound_to 11000
  145.2467  139.2049  143.4964 LP  0  0  0  0  0  0  0  0  0  0  0  0  # atno 17320 bound_to 7965
  146.3399  140.2372  142.8595 LP  0  0  0  0  0  0  0  0  0  0  0  0  # atno 17321 bound_to 7965
  139.6180  144.7623  151.2804 LP  0  0  0  0  0  0  0  0  0  0  0  0  # atno 17342 bound_to 10162
  140.7366  143.6701  150.8089 LP  0  0  0  0  0  0  0  0  0  0  0  0  # atno 17343 bound_to 10162
  157.5368  131.0939  150.9881 LP  0  0  0  0  0  0  0  0  0  0  0  0  # atno 17370 bound_to 10713
  157.0174  130.5660  149.5327 LP  0  0  0  0  0  0  0  0  0  0  0  0  # atno 17371 bound_to 10713
  140.3403  134.2711  155.7213 LP  0  0  0  0  0  0  0  0  0  0  0  0  # atno 17394 bound_to 11000
  141.2066  133.7828  157.0166 LP  0  0  0  0  0  0  0  0  0  0  0  0  # atno 17395 bound_to 11000

$$$$
