AV-unprocessed.smi:234|AV-procd|sdf|1791|dock6
  -GOLD-   2262020353D 1   1.00000     0.00000
 Structure written by MMmdl.
 59 62  0  0  0  0  0  0  0  0  1 V2000
  153.4200  138.2097  157.6617 C   0  0  0  0  0  0  0  0  0  0  0  0
  153.3248  136.6935  157.4462 C   0  0  0  0  0  0  0  0  0  0  0  0
  152.2939  136.3417  156.5343 O   0  0  0  0  0  0  0  0  0  0  0  0
  150.9742  136.5844  157.0037 C   0  0  2  0  0  0  0  0  0  0  0  0
  149.9415  135.7460  156.2506 C   0  0  0  0  0  0  0  0  0  0  0  0
  149.0329  136.9772  156.3487 C   0  0  2  0  0  0  0  0  0  0  0  0
  148.1858  137.2009  155.1745 N   0  0  0  0  0  0  0  0  0  0  0  0
  147.5678  138.5147  155.0481 C   0  0  0  0  0  0  0  0  0  0  0  0
  147.3057  136.2199  154.8669 C   0  0  0  0  0  0  0  0  0  0  0  0
  147.2666  135.1465  155.6955 N   0  0  0  0  0  0  0  0  0  0  0  0
  146.4240  134.1393  155.4486 C   0  0  0  0  0  0  0  0  0  0  0  0
  145.5567  134.0034  154.4435 N   0  0  0  0  0  0  0  0  0  0  0  0
  145.6039  135.0740  153.5995 C   0  0  0  0  0  0  0  0  0  0  0  0
  146.4409  136.2177  153.7342 C   0  0  0  0  0  0  0  0  0  0  0  0
  146.2133  137.0944  152.6793 N   0  0  0  0  0  0  0  0  0  0  0  0
  145.2894  136.5079  151.9691 C   0  0  0  0  0  0  0  0  0  0  0  0
  144.8722  135.2854  152.4440 N   0  0  0  0  0  0  0  0  0  0  0  0
  143.8715  134.4142  151.8481 C   0  0  0  0  0  0  0  0  0  0  0  0
  144.3703  133.6828  150.5791 C   0  0  2  0  0  0  0  0  0  0  0  0
  145.7664  133.8989  150.4502 O   0  0  0  0  0  0  0  0  0  0  0  0
  143.6937  134.1371  149.2941 C   0  0  0  0  0  0  0  0  0  0  0  0
  143.8746  132.9310  148.3809 C   0  0  0  0  0  0  0  0  0  0  0  0
  143.7489  131.8052  149.2395 O   0  0  0  0  0  0  0  0  0  0  0  0
  144.0478  132.1718  150.5859 C   0  0  1  0  0  0  0  0  0  0  0  0
  145.1175  131.2426  151.1819 C   0  0  0  0  0  0  0  0  0  0  0  0
  150.3117  137.8572  156.4118 C   0  0  0  0  0  0  0  0  0  0  0  0
  150.2406  139.0652  157.3467 C   0  0  0  0  0  0  0  0  0  0  0  0
  150.9021  138.3490  155.0780 C   0  0  0  0  0  0  0  0  0  0  0  0
  154.2911  138.4583  158.2679 H   0  0  0  0  0  0  0  0  0  0  0  0
  152.5434  138.5966  158.1799 H   0  0  0  0  0  0  0  0  0  0  0  0
  153.5131  138.7358  156.7115 H   0  0  0  0  0  0  0  0  0  0  0  0
  154.2660  136.3353  157.0290 H   0  0  0  0  0  0  0  0  0  0  0  0
  153.1886  136.1722  158.3948 H   0  0  0  0  0  0  0  0  0  0  0  0
  150.8471  136.4889  158.0851 H   0  0  0  0  0  0  0  0  0  0  0  0
  150.2450  135.4951  155.2325 H   0  0  0  0  0  0  0  0  0  0  0  0
  149.5844  134.8702  156.7927 H   0  0  0  0  0  0  0  0  0  0  0  0
  148.4873  137.0030  157.2938 H   0  0  0  0  0  0  0  0  0  0  0  0
  147.0406  138.6162  154.0987 H   0  0  0  0  0  0  0  0  0  0  0  0
  148.3159  139.3043  155.0917 H   0  0  0  0  0  0  0  0  0  0  0  0
  146.8536  138.6800  155.8554 H   0  0  0  0  0  0  0  0  0  0  0  0
  146.4492  133.3247  156.1572 H   0  0  0  0  0  0  0  0  0  0  0  0
  144.8900  136.9505  151.0683 H   0  0  0  0  0  0  0  0  0  0  0  0
  143.5492  133.6913  152.5987 H   0  0  0  0  0  0  0  0  0  0  0  0
  142.9958  135.0214  151.6150 H   0  0  0  0  0  0  0  0  0  0  0  0
  145.9493  134.1464  149.5568 H   0  0  0  0  0  0  0  0  0  0  0  0
  142.6290  134.2993  149.4663 H   0  0  0  0  0  0  0  0  0  0  0  0
  144.1096  135.0557  148.8778 H   0  0  0  0  0  0  0  0  0  0  0  0
  143.1439  132.9016  147.5727 H   0  0  0  0  0  0  0  0  0  0  0  0
  144.8716  132.9299  147.9388 H   0  0  0  0  0  0  0  0  0  0  0  0
  143.1200  132.0173  151.1386 H   0  0  0  0  0  0  0  0  0  0  0  0
  145.3587  131.5291  152.2056 H   0  0  0  0  0  0  0  0  0  0  0  0
  146.0387  131.2617  150.5991 H   0  0  0  0  0  0  0  0  0  0  0  0
  144.7652  130.2113  151.2005 H   0  0  0  0  0  0  0  0  0  0  0  0
  149.5446  139.8182  156.9784 H   0  0  0  0  0  0  0  0  0  0  0  0
  151.2114  139.5486  157.4556 H   0  0  0  0  0  0  0  0  0  0  0  0
  149.9066  138.7795  158.3444 H   0  0  0  0  0  0  0  0  0  0  0  0
  150.3218  139.1686  154.6549 H   0  0  0  0  0  0  0  0  0  0  0  0
  150.9367  137.5598  154.3268 H   0  0  0  0  0  0  0  0  0  0  0  0
  151.9225  138.7110  155.2063 H   0  0  0  0  0  0  0  0  0  0  0  0
  1  2  1  0  0  0  0
  1 29  1  0  0  0  0
  1 30  1  0  0  0  0
  1 31  1  0  0  0  0
  2  3  1  0  0  0  0
  2 32  1  0  0  0  0
  2 33  1  0  0  0  0
  3  4  1  0  0  0  0
  4 26  1  0  0  0  0
  4  5  1  0  0  0  0
  4 34  1  0  0  0  0
  5  6  1  0  0  0  0
  5 35  1  0  0  0  0
  5 36  1  0  0  0  0
  6  7  1  0  0  0  0
  6 26  1  0  0  0  0
  6 37  1  0  0  0  0
  7  8  1  0  0  0  0
  7  9  1  0  0  0  0
  8 38  1  0  0  0  0
  8 39  1  0  0  0  0
  8 40  1  0  0  0  0
  9 14  1  0  0  0  0
  9 10  2  0  0  0  0
 10 11  1  0  0  0  0
 11 12  2  0  0  0  0
 11 41  1  0  0  0  0
 12 13  1  0  0  0  0
 13 17  1  0  0  0  0
 13 14  2  0  0  0  0
 14 15  1  0  0  0  0
 15 16  2  0  0  0  0
 16 17  1  0  0  0  0
 16 42  1  0  0  0  0
 17 18  1  0  0  0  0
 18 19  1  0  0  0  0
 18 43  1  0  0  0  0
 18 44  1  0  0  0  0
 19 24  1  0  0  0  0
 19 20  1  0  0  0  0
 19 21  1  0  0  0  0
 20 45  1  0  0  0  0
 21 22  1  0  0  0  0
 21 46  1  0  0  0  0
 21 47  1  0  0  0  0
 22 23  1  0  0  0  0
 22 48  1  0  0  0  0
 22 49  1  0  0  0  0
 23 24  1  0  0  0  0
 24 25  1  0  0  0  0
 24 50  1  0  0  0  0
 25 51  1  0  0  0  0
 25 52  1  0  0  0  0
 25 53  1  0  0  0  0
 26 27  1  0  0  0  0
 26 28  1  0  0  0  0
 27 54  1  0  0  0  0
 27 55  1  0  0  0  0
 27 56  1  0  0  0  0
 28 57  1  0  0  0  0
 28 58  1  0  0  0  0
 28 59  1  0  0  0  0
M  END
> <s_m_source_file>
AV-unprocessed.smi

> <i_m_source_file_index>
234

> <i_lp_mmshare_version>
43012

> <i_f3d_flags>
0

> <s_epik_input>
W0NIM11bQ0gyXU9bQ0BASF0oQzEoW0NIM10pW0NIM10pW0NIMl1bQ0BIXTFOKFtDSDNdKWMobltjSF1uMiljKGMyMyluW2NIXW4zW0NIMl1bQ0BAXTQoW09IXSlbQ0gyXVtDSDJdT1tDQEhdNFtDSDNd

> <s_epik_cmdline>
J2VwaWtfcHl0aG9uJywgJy1waCcsICc3LjAnLCAnLXRuJywgJzgnLCAnLW1hJywgJzIwMCcsICctbWV0YWxfYmluZGluZycsICctaW1hZScsICc8aW5maWxlLm1hZT4nLCAnLW9tYWUnLCAnPG91dGZpbGUubWFlPic=

> <r_lp_tautomer_probability>
1

> <r_epik_Ionization_Penalty>
0.00349132

> <r_epik_Ionization_Penalty_Charging>
0

> <r_epik_Ionization_Penalty_Neutral>
0.00349132

> <r_epik_State_Penalty>
0.00242418

> <r_epik_Charging_Adjusted_Penalty>
0.00242418

> <i_epik_Tot_Q>
0

> <i_epik_Tot_abs_Q>
0

> <r_epik_Metal_State_Penalty>
-0

> <b_epik_Metal_Only>
0

> <s_lp_Force_Field>
OPLS_2005

> <r_lp_Energy>
50.4374

> <b_lp_Chiralities_Consistent>
1

> <s_lp_Variant>
AV-unprocessed.smi:234-7

> <Gold.Version>
5.8.1

> <Gold.Id.Protein>
6NUR|6NUR_protein|mol2

> <Gold.PLP.Fitness>
34.8923

> <Gold.PLP.PLP>
-26.4773

> <Gold.PLP.part.hbond>
-3.0000

> <Gold.PLP.part.metal>
0.0000

> <Gold.PLP.part.buried>
0.2855

> <Gold.PLP.part.nonpolar>
-24.7971

> <Gold.PLP.part.repulsive>
1.4449

> <Gold.PLP.ligand.clash>
0.0000

> <Gold.PLP.ligand.torsion>
1.9744

> <Gold.PLP.Chemscore.Hbond>
2.8480

> <Gold.PLP.Chemscore.CHOScore>
1.0000

> <Gold.PLP.Chemscore.Metal>
0.0000

> <Gold.Chemscore.Hbonds>
donor molecule, donor type, donor heavy atom, donor atom, acceptor molecule, acceptor atom, score
      L1  H    20    45       P1  7921  0.99
      P1  H 10752 10764       L1     3  1.00
      P1  H 10785 10796       L1    23  0.82
      L1  C    16    42       P1 10171  1.00

> <Gold.PLP.Chemscore.Internal.Correction>
0.8197

> <Gold.Rescore>
     Score         DG    S(hbond)    S(metal)    S(lipo)     H(rot)  DE(clash)    DE(int)     intcor
      9.23     -15.89       2.05        0.00      87.94       2.62       2.31       4.36       ----

> <Gold.Chemscore.Fitness>
9.2296

> <Gold.Chemscore.DG>
-15.8946

> <Gold.Chemscore.ZeroCoef>
-5.4800

> <Gold.Chemscore.Hbond>
2.0471

> <Gold.Chemscore.Metal>
0.0000

> <Gold.Chemscore.Lipo>
87.9423

> <Gold.Chemscore.Internal_Hbond>
0.0000

> <Gold.Chemscore.DEClash>
2.3087

> <Gold.Chemscore.DEInternal>
4.3562

> <Gold.Chemscore.Rot>
2.6219

> <Gold.Chemscore.Internal.Correction>
   9.000000E+99

> <Gold.Chemscore.Hbonds>
donor molecule, donor type, donor heavy atom, donor atom, acceptor molecule, acceptor atom, score
      L1  H    20    45       P1  7921  0.32
      P1  H 10752 10764       L1     3  0.64
      P1  H 10785 10796       L1    23  0.81

> <Gold.Chemscore.Hbond.Weighted>
-6.8375

> <Gold.Chemscore.Metal.Weighted>
-0.0000

> <Gold.Chemscore.Lipo.Weighted>
-10.2892

> <Gold.Chemscore.Internal_Hbond.Weighted>
0.0000

> <Gold.Chemscore.DEClash.Weighted>
2.3087

> <Gold.Chemscore.DEInternal.Weighted>
4.3562

> <Gold.Chemscore.Rot.Weighted>
6.7121

> <Gold.Chemscore.Internal.Correction.Weighted>
   9.000000E+99

> <Gold.Protein.RotatedTorsions>
[ 6907 6896 6895 6894 ] final   52.84 input  -60.11 | X-H torsion
[ 7974 7965 7964 7962 ] final  -27.06 input  175.53 | X-H torsion
[ 8008 7997 7996 7995 ] final  -61.19 input   59.86 | X-H torsion
[ 10167 10162 10161 10158 ] final -160.75 input  -65.29 | X-H torsion
[ 10718 10713 10712 10709 ] final  107.65 input   66.30 | X-H torsion
[ 10763 10752 10751 10750 ] final  -33.43 input  -60.55 | X-H torsion
[ 11005 11000 10999 10996 ] final  -50.25 input  -57.11 | X-H torsion

> <Gold.Protein.ActiveResidues>
 VAL166  LYS551  ARG553  GLY616  TRP617  ASP618  TYR619  PRO620  LYS621  CYS622 
 ASP623  PHE694  ASN695  SER759  ASP760  ASP761  ALA762  ILE779  LEU786  VAL792 
 PHE793  MET794  SER795  GLU796  ALA797  LYS798  CYS799  TRP800  GLU811  SER814 

> <Gold.Protein.RotatedAtoms>
  152.3275  134.7302  160.0297 H   0  0  0  0  0  0  0  0  0  0  0  0  # atno 6907 bound_to 6896
  151.7729  133.3337  159.3457 H   0  0  0  0  0  0  0  0  0  0  0  0  # atno 6908 bound_to 6896
  150.7404  134.5933  159.6043 H   0  0  0  0  0  0  0  0  0  0  0  0  # atno 6909 bound_to 6896
  146.1383  140.5103  142.8663 H   0  0  0  0  0  0  0  0  0  0  0  0  # atno 7974 bound_to 7965
  154.4435  140.1023  156.6392 H   0  0  0  0  0  0  0  0  0  0  0  0  # atno 8008 bound_to 7997
  155.5520  140.3486  155.4452 H   0  0  0  0  0  0  0  0  0  0  0  0  # atno 8009 bound_to 7997
  156.0522  140.1306  157.0026 H   0  0  0  0  0  0  0  0  0  0  0  0  # atno 8010 bound_to 7997
  139.6516  144.0074  152.2165 H   0  0  0  0  0  0  0  0  0  0  0  0  # atno 10167 bound_to 10162
  157.6619  131.0877  150.6188 H   0  0  0  0  0  0  0  0  0  0  0  0  # atno 10718 bound_to 10713
  153.8302  135.6867  153.4815 H   0  0  0  0  0  0  0  0  0  0  0  0  # atno 10763 bound_to 10752
  153.1516  135.4616  154.9642 H   0  0  0  0  0  0  0  0  0  0  0  0  # atno 10764 bound_to 10752
  154.7890  135.3295  154.7766 H   0  0  0  0  0  0  0  0  0  0  0  0  # atno 10765 bound_to 10752
  141.0805  133.6654  156.3704 H   0  0  0  0  0  0  0  0  0  0  0  0  # atno 11005 bound_to 11000
  144.7764  140.5748  143.6635 LP  0  0  0  0  0  0  0  0  0  0  0  0  # atno 17320 bound_to 7965
  145.5105  139.1479  143.3607 LP  0  0  0  0  0  0  0  0  0  0  0  0  # atno 17321 bound_to 7965
  139.9789  144.6442  150.7919 LP  0  0  0  0  0  0  0  0  0  0  0  0  # atno 17342 bound_to 10162
  140.7540  143.3019  151.3059 LP  0  0  0  0  0  0  0  0  0  0  0  0  # atno 17343 bound_to 10162
  156.6490  130.4480  149.5726 LP  0  0  0  0  0  0  0  0  0  0  0  0  # atno 17370 bound_to 10713
  156.2151  130.6703  151.1311 LP  0  0  0  0  0  0  0  0  0  0  0  0  # atno 17371 bound_to 10713
  140.5478  134.6057  157.5399 LP  0  0  0  0  0  0  0  0  0  0  0  0  # atno 17394 bound_to 11000
  139.9619  134.7438  156.0219 LP  0  0  0  0  0  0  0  0  0  0  0  0  # atno 17395 bound_to 11000

$$$$
