AV-unprocessed.smi:1240|AV-procd|sdf|5211|dock8
  -GOLD-   22720 4303D 1   1.00000     0.00000
 Structure written by MMmdl.
 48 50  0  0  0  0  0  0  0  0  4 V2000
  147.3879  132.6025  154.1535 O   0  0  0  0  0  0  0  0  0  0  0  0
  147.9272  133.6130  153.6878 C   0  0  0  0  0  0  0  0  0  0  0  0
  149.1427  134.1287  154.0115 N   0  5  0  0  0  0  0  0  0  0  0  0
  149.4804  134.7010  155.3140 C   0  0  0  0  0  0  0  0  0  0  0  0
  149.1951  136.2445  155.3419 C   0  0  2  0  0  0  0  0  0  0  0  0
  150.2966  137.1265  154.6652 C   0  0  2  0  0  0  0  0  0  0  0  0
  151.6059  137.1737  155.4407 C   0  0  0  0  0  0  0  0  0  0  0  0
  152.3121  138.3786  154.8306 C   0  0  0  0  0  0  0  0  0  0  0  0
  151.2774  139.2803  154.4605 O   0  0  0  0  0  0  0  0  0  0  0  0
  150.0122  138.6355  154.5623 C   0  0  0  0  0  0  0  0  0  0  0  0
  148.8873  136.7925  156.7105 N   0  3  0  0  0  0  0  0  0  0  0  0
  147.4925  136.6014  157.1896 C   0  0  0  0  0  0  0  0  0  0  0  0
  147.2412  137.4709  158.4327 C   0  0  0  0  0  0  0  0  0  0  0  0
  148.1959  137.1595  159.4411 O   0  0  0  0  0  0  0  0  0  0  0  0
  149.5291  137.4219  159.0185 C   0  0  0  0  0  0  0  0  0  0  0  0
  149.8684  136.5426  157.8047 C   0  0  0  0  0  0  0  0  0  0  0  0
  147.3147  134.3271  152.7264 N   0  0  0  0  0  0  0  0  0  0  0  0
  146.0380  134.1211  152.1383 C   0  0  0  0  0  0  0  0  0  0  0  0
  145.4581  135.1980  151.4322 C   0  0  0  0  0  0  0  0  0  0  0  0
  144.1829  135.0417  150.8524 C   0  0  0  0  0  0  0  0  0  0  0  0
  143.5213  133.8723  150.9877 N   0  3  0  0  0  0  0  0  0  0  0  0
  144.0270  132.8216  151.6692 C   0  0  0  0  0  0  0  0  0  0  0  0
  145.2984  132.9188  152.2702 C   0  0  0  0  0  0  0  0  0  0  0  0
  148.8965  134.2197  156.0985 H   0  0  0  0  0  0  0  0  0  0  0  0
  150.5234  134.5302  155.5834 H   0  0  0  0  0  0  0  0  0  0  0  0
  148.2824  136.4092  154.7663 H   0  0  0  0  0  0  0  0  0  0  0  0
  150.5169  136.7574  153.6615 H   0  0  0  0  0  0  0  0  0  0  0  0
  151.4137  137.3523  156.5000 H   0  0  0  0  0  0  0  0  0  0  0  0
  152.1958  136.2609  155.3510 H   0  0  0  0  0  0  0  0  0  0  0  0
  153.0183  138.8418  155.5201 H   0  0  0  0  0  0  0  0  0  0  0  0
  152.8564  138.0862  153.9318 H   0  0  0  0  0  0  0  0  0  0  0  0
  149.3844  138.8884  153.7075 H   0  0  0  0  0  0  0  0  0  0  0  0
  149.5173  138.9990  155.4641 H   0  0  0  0  0  0  0  0  0  0  0  0
  146.7850  136.8738  156.4057 H   0  0  0  0  0  0  0  0  0  0  0  0
  147.3132  135.5541  157.4354 H   0  0  0  0  0  0  0  0  0  0  0  0
  147.2937  138.5319  158.1826 H   0  0  0  0  0  0  0  0  0  0  0  0
  146.2409  137.2862  158.8243 H   0  0  0  0  0  0  0  0  0  0  0  0
  149.6470  138.4798  158.7781 H   0  0  0  0  0  0  0  0  0  0  0  0
  150.2101  137.2048  159.8416 H   0  0  0  0  0  0  0  0  0  0  0  0
  149.8493  135.4948  158.1070 H   0  0  0  0  0  0  0  0  0  0  0  0
  150.8820  136.7630  157.4714 H   0  0  0  0  0  0  0  0  0  0  0  0
  147.8668  135.0696  152.3226 H   0  0  0  0  0  0  0  0  0  0  0  0
  145.9880  136.1339  151.3282 H   0  0  0  0  0  0  0  0  0  0  0  0
  143.6752  135.8125  150.2913 H   0  0  0  0  0  0  0  0  0  0  0  0
  143.4012  131.9427  151.7197 H   0  0  0  0  0  0  0  0  0  0  0  0
  145.6801  132.0788  152.8309 H   0  0  0  0  0  0  0  0  0  0  0  0
  148.9440  137.7892  156.5605 H   0  0  0  0  0  0  0  0  0  0  0  0
  142.5986  133.7805  150.5623 H   0  0  0  0  0  0  0  0  0  0  0  0
  1  2  2  0  0  0  0
  2  3  1  0  0  0  0
  2 17  1  0  0  0  0
  3  4  1  0  0  0  0
  4  5  1  0  0  0  0
  4 24  1  0  0  0  0
  4 25  1  0  0  0  0
  5  6  1  0  0  0  0
  5 11  1  0  0  0  0
  5 26  1  0  0  0  0
  6 10  1  0  0  0  0
  6  7  1  0  0  0  0
  6 27  1  0  0  0  0
  7  8  1  0  0  0  0
  7 28  1  0  0  0  0
  7 29  1  0  0  0  0
  8  9  1  0  0  0  0
  8 30  1  0  0  0  0
  8 31  1  0  0  0  0
  9 10  1  0  0  0  0
 10 32  1  0  0  0  0
 10 33  1  0  0  0  0
 11 16  1  0  0  0  0
 11 12  1  0  0  0  0
 11 47  1  0  0  0  0
 12 13  1  0  0  0  0
 12 34  1  0  0  0  0
 12 35  1  0  0  0  0
 13 14  1  0  0  0  0
 13 36  1  0  0  0  0
 13 37  1  0  0  0  0
 14 15  1  0  0  0  0
 15 16  1  0  0  0  0
 15 38  1  0  0  0  0
 15 39  1  0  0  0  0
 16 40  1  0  0  0  0
 16 41  1  0  0  0  0
 17 18  1  0  0  0  0
 17 42  1  0  0  0  0
 18 23  1  0  0  0  0
 18 19  2  0  0  0  0
 19 20  1  0  0  0  0
 19 43  1  0  0  0  0
 20 21  2  0  0  0  0
 20 44  1  0  0  0  0
 21 22  1  0  0  0  0
 21 48  1  0  0  0  0
 22 23  2  0  0  0  0
 22 45  1  0  0  0  0
 23 46  1  0  0  0  0
M  CHG  1   3  -1
M  CHG  1  11   1
M  CHG  1  21   1
M  END
> <s_m_source_file>
AV-unprocessed.smi

> <i_m_source_file_index>
1240

> <i_lp_mmshare_version>
43012

> <i_f3d_flags>
0

> <s_epik_input>
W2NIXTFbY0hdbltjSF1bY0hdYzFbTkhdQyg9TylbTkhdW0NIMl1bQ0BIXShbQ0BASF0yW0NIMl1bQ0gyXU9bQ0gyXTIpTjNbQ0gyXVtDSDJdT1tDSDJdW0NIMl0z

> <s_epik_cmdline>
J2VwaWtfcHl0aG9uJywgJy1waCcsICc3LjAnLCAnLXRuJywgJzgnLCAnLW1hJywgJzIwMCcsICctbWV0YWxfYmluZGluZycsICctaW1hZScsICc8aW5maWxlLm1hZT4nLCAnLW9tYWUnLCAnPG91dGZpbGUubWFlPic=

> <r_epik_Ionization_Penalty>
8.41087

> <r_epik_Ionization_Penalty_Charging>
8.41087

> <r_epik_Ionization_Penalty_Neutral>
3.12936e-06

> <r_epik_State_Penalty>
8.81894

> <r_epik_Charging_Adjusted_Penalty>
17.2298

> <i_epik_Tot_Q>
1

> <i_epik_Tot_abs_Q>
3

> <r_epik_Metal_State_Penalty>
4.82983

> <b_epik_Metal_Only>
1

> <s_lp_Force_Field>
OPLS_2005

> <r_lp_Energy>
48.2206

> <b_lp_Chiralities_Consistent>
1

> <s_lp_Variant>
AV-unprocessed.smi:1240-17

> <Gold.Version>
5.8.1

> <Gold.Id.Protein>
6NUR|6NUR_protein|mol2

> <Gold.PLP.Fitness>
41.3586

> <Gold.PLP.PLP>
-31.4891

> <Gold.PLP.part.hbond>
-3.9975

> <Gold.PLP.part.metal>
0.0000

> <Gold.PLP.part.buried>
-4.3390

> <Gold.PLP.part.nonpolar>
-23.6452

> <Gold.PLP.part.repulsive>
1.2594

> <Gold.PLP.ligand.clash>
0.0000

> <Gold.PLP.ligand.torsion>
1.5237

> <Gold.PLP.Chemscore.Hbond>
4.2034

> <Gold.PLP.Chemscore.CHOScore>
0.0000

> <Gold.PLP.Chemscore.Metal>
0.0000

> <Gold.Chemscore.Hbonds>
donor molecule, donor type, donor heavy atom, donor atom, acceptor molecule, acceptor atom, score
      L1  H    17    42       P1  7948  1.00
      L1  H    21    48       P1 10186  2.00
      P1  H  7989  7998       L1     9  1.00

> <Gold.PLP.Chemscore.Internal.Correction>
0.3065

> <Gold.Rescore>
     Score         DG    S(hbond)    S(metal)    S(lipo)     H(rot)  DE(clash)    DE(int)     intcor
     15.28     -18.66       2.98        0.00      64.96       1.70       0.33       3.05       ----

> <Gold.Chemscore.Fitness>
15.2828

> <Gold.Chemscore.DG>
-18.6641

> <Gold.Chemscore.ZeroCoef>
-5.4800

> <Gold.Chemscore.Hbond>
2.9766

> <Gold.Chemscore.Metal>
0.0000

> <Gold.Chemscore.Lipo>
64.9562

> <Gold.Chemscore.Internal_Hbond>
0.0000

> <Gold.Chemscore.DEClash>
0.3350

> <Gold.Chemscore.DEInternal>
3.0464

> <Gold.Chemscore.Rot>
1.7021

> <Gold.Chemscore.Internal.Correction>
   9.000000E+99

> <Gold.Chemscore.Hbonds>
donor molecule, donor type, donor heavy atom, donor atom, acceptor molecule, acceptor atom, score
      L1  H    17    42       P1  7948  0.90
      L1  H    21    48       P1 10186  0.90
      P1  H  7989  7998       L1     9  0.98

> <Gold.Chemscore.Hbond.Weighted>
-9.9417

> <Gold.Chemscore.Metal.Weighted>
-0.0000

> <Gold.Chemscore.Lipo.Weighted>
-7.5999

> <Gold.Chemscore.Internal_Hbond.Weighted>
0.0000

> <Gold.Chemscore.DEClash.Weighted>
0.3350

> <Gold.Chemscore.DEInternal.Weighted>
3.0464

> <Gold.Chemscore.Rot.Weighted>
4.3575

> <Gold.Chemscore.Internal.Correction.Weighted>
   9.000000E+99

> <Gold.Protein.RotatedTorsions>
[ 6907 6896 6895 6894 ] final   23.94 input  -60.11 | X-H torsion
[ 7974 7965 7964 7962 ] final  -32.13 input  175.53 | X-H torsion
[ 8008 7997 7996 7995 ] final   48.11 input   59.86 | X-H torsion
[ 10167 10162 10161 10158 ] final  129.64 input  -65.29 | X-H torsion
[ 10718 10713 10712 10709 ] final -136.38 input   66.30 | X-H torsion
[ 10763 10752 10751 10750 ] final -116.84 input  -60.55 | X-H torsion
[ 11005 11000 10999 10996 ] final  -35.20 input  -57.11 | X-H torsion

> <Gold.Protein.ActiveResidues>
 VAL166  LYS551  ARG553  GLY616  TRP617  ASP618  TYR619  PRO620  LYS621  CYS622 
 ASP623  PHE694  ASN695  SER759  ASP760  ASP761  ALA762  ILE779  LEU786  VAL792 
 PHE793  MET794  SER795  GLU796  ALA797  LYS798  CYS799  TRP800  GLU811  SER814 

> <Gold.Protein.RotatedAtoms>
  151.9500  135.0173  160.0541 H   0  0  0  0  0  0  0  0  0  0  0  0  # atno 6907 bound_to 6896
  152.1961  133.4803  159.5042 H   0  0  0  0  0  0  0  0  0  0  0  0  # atno 6908 bound_to 6896
  150.6945  134.1567  159.4203 H   0  0  0  0  0  0  0  0  0  0  0  0  # atno 6909 bound_to 6896
  146.1014  140.5754  142.8819 H   0  0  0  0  0  0  0  0  0  0  0  0  # atno 7974 bound_to 7965
  155.3802  140.3428  155.4246 H   0  0  0  0  0  0  0  0  0  0  0  0  # atno 8008 bound_to 7997
  156.1614  140.1602  156.8638 H   0  0  0  0  0  0  0  0  0  0  0  0  # atno 8009 bound_to 7997
  154.5144  140.0782  156.8034 H   0  0  0  0  0  0  0  0  0  0  0  0  # atno 8010 bound_to 7997
  139.5468  144.6780  151.4449 H   0  0  0  0  0  0  0  0  0  0  0  0  # atno 10167 bound_to 10162
  156.2765  130.7296  151.1279 H   0  0  0  0  0  0  0  0  0  0  0  0  # atno 10718 bound_to 10713
  154.8534  135.4331  154.1885 H   0  0  0  0  0  0  0  0  0  0  0  0  # atno 10763 bound_to 10752
  153.2959  135.6965  153.7254 H   0  0  0  0  0  0  0  0  0  0  0  0  # atno 10764 bound_to 10752
  153.6403  135.3469  155.3044 H   0  0  0  0  0  0  0  0  0  0  0  0  # atno 10765 bound_to 10752
  140.9777  133.7073  156.1631 H   0  0  0  0  0  0  0  0  0  0  0  0  # atno 11005 bound_to 11000
  144.7435  140.5007  143.6852 LP  0  0  0  0  0  0  0  0  0  0  0  0  # atno 17320 bound_to 7965
  145.5848  139.1491  143.3215 LP  0  0  0  0  0  0  0  0  0  0  0  0  # atno 17321 bound_to 7965
  140.6718  143.8276  150.7009 LP  0  0  0  0  0  0  0  0  0  0  0  0  # atno 17342 bound_to 10162
  140.1703  143.4200  152.2005 LP  0  0  0  0  0  0  0  0  0  0  0  0  # atno 17343 bound_to 10162
  157.7301  131.0619  150.5744 LP  0  0  0  0  0  0  0  0  0  0  0  0  # atno 17370 bound_to 10713
  156.5845  130.4313  149.5963 LP  0  0  0  0  0  0  0  0  0  0  0  0  # atno 17371 bound_to 10713
  140.7233  134.4334  157.5573 LP  0  0  0  0  0  0  0  0  0  0  0  0  # atno 17394 bound_to 11000
  139.8937  134.8723  156.2210 LP  0  0  0  0  0  0  0  0  0  0  0  0  # atno 17395 bound_to 11000

$$$$
