AV-unprocessed.smi:283|AV-procd|sdf|2145|dock5
  -GOLD-   2262021473D 1   1.00000     0.00000
 Structure written by MMmdl.
 48 51  0  0  0  0  0  0  0  0  1 V2000
  153.9621  141.0132  160.1032 C   0  0  0  0  0  0  0  0  0  0  0  0
  152.5810  141.4230  159.5747 C   0  0  2  0  0  0  0  0  0  0  0  0
  152.4171  140.9611  158.1974 N   0  0  0  0  0  0  0  0  0  0  0  0
  151.3514  140.2097  157.8412 C   0  0  0  0  0  0  0  0  0  0  0  0
  151.0976  139.0186  158.4439 N   0  0  0  0  0  0  0  0  0  0  0  0
  150.0371  138.2951  158.0738 C   0  0  0  0  0  0  0  0  0  0  0  0
  149.1244  138.5710  157.1396 N   0  0  0  0  0  0  0  0  0  0  0  0
  149.3768  139.7655  156.5285 C   0  0  0  0  0  0  0  0  0  0  0  0
  150.4645  140.6350  156.8194 C   0  0  0  0  0  0  0  0  0  0  0  0
  150.4054  141.7549  156.0003 N   0  0  0  0  0  0  0  0  0  0  0  0
  149.3431  141.5541  155.2676 C   0  0  0  0  0  0  0  0  0  0  0  0
  148.6660  140.3812  155.5171 N   0  0  0  0  0  0  0  0  0  0  0  0
  147.4267  139.8852  154.8400 C   0  0  2  0  0  0  0  0  0  0  0  0
  146.7812  138.9830  155.6727 O   0  0  0  0  0  0  0  0  0  0  0  0
  145.9026  138.1902  154.8853 C   0  0  1  0  0  0  0  0  0  0  0  0
  144.5034  138.8414  154.9501 C   0  0  0  0  0  0  0  0  0  0  0  0
  143.6354  138.2716  153.9928 O   0  0  0  0  0  0  0  0  0  0  0  0
  146.5794  138.1020  153.4930 C   0  0  1  0  0  0  0  0  0  0  0  0
  145.6902  138.3761  152.4262 O   0  0  0  0  0  0  0  0  0  0  0  0
  147.6976  139.1461  153.5219 C   0  0  2  0  0  0  0  0  0  0  0  0
  148.9708  138.5288  153.4674 O   0  0  0  0  0  0  0  0  0  0  0  0
  152.3587  142.9250  159.7662 C   0  0  0  0  0  0  0  0  0  0  0  0
  152.1533  143.7534  158.6384 C   0  0  0  0  0  0  0  0  0  0  0  0
  151.9476  145.1372  158.7916 C   0  0  0  0  0  0  0  0  0  0  0  0
  151.9525  145.7101  160.0760 C   0  0  0  0  0  0  0  0  0  0  0  0
  152.1669  144.8975  161.2044 C   0  0  0  0  0  0  0  0  0  0  0  0
  152.3722  143.5109  161.0570 C   0  0  0  0  0  0  0  0  0  0  0  0
  152.6413  142.5637  162.4783 Cl  0  0  0  0  0  0  0  0  0  0  0  0
  146.8019  140.7697  154.7055 H   0  0  0  0  0  0  0  0  0  0  0  0
  145.8546  137.2022  155.3454 H   0  0  0  0  0  0  0  0  0  0  0  0
  146.9895  137.1022  153.3417 H   0  0  0  0  0  0  0  0  0  0  0  0
  147.6334  139.8627  152.7016 H   0  0  0  0  0  0  0  0  0  0  0  0
  154.0706  141.2737  161.1563 H   0  0  0  0  0  0  0  0  0  0  0  0
  154.7622  141.5102  159.5533 H   0  0  0  0  0  0  0  0  0  0  0  0
  154.1141  139.9370  160.0144 H   0  0  0  0  0  0  0  0  0  0  0  0
  151.8403  140.8805  160.1612 H   0  0  0  0  0  0  0  0  0  0  0  0
  153.0341  141.3849  157.5195 H   0  0  0  0  0  0  0  0  0  0  0  0
  149.9012  137.3619  158.6001 H   0  0  0  0  0  0  0  0  0  0  0  0
  149.0224  142.2613  154.5166 H   0  0  0  0  0  0  0  0  0  0  0  0
  144.0628  138.6628  155.9313 H   0  0  0  0  0  0  0  0  0  0  0  0
  144.5519  139.9229  154.8192 H   0  0  0  0  0  0  0  0  0  0  0  0
  143.4859  138.9045  153.3077 H   0  0  0  0  0  0  0  0  0  0  0  0
  145.3532  139.2520  152.5351 H   0  0  0  0  0  0  0  0  0  0  0  0
  148.8915  137.7233  152.9797 H   0  0  0  0  0  0  0  0  0  0  0  0
  152.1506  143.3304  157.6446 H   0  0  0  0  0  0  0  0  0  0  0  0
  151.7873  145.7584  157.9227 H   0  0  0  0  0  0  0  0  0  0  0  0
  151.7951  146.7718  160.1959 H   0  0  0  0  0  0  0  0  0  0  0  0
  152.1752  145.3420  162.1888 H   0  0  0  0  0  0  0  0  0  0  0  0
  1  2  1  0  0  0  0
  1 33  1  0  0  0  0
  1 34  1  0  0  0  0
  1 35  1  0  0  0  0
  2  3  1  0  0  0  0
  2 22  1  0  0  0  0
  2 36  1  0  0  0  0
  3  4  1  0  0  0  0
  3 37  1  0  0  0  0
  4  9  1  0  0  0  0
  4  5  2  0  0  0  0
  5  6  1  0  0  0  0
  6  7  2  0  0  0  0
  6 38  1  0  0  0  0
  7  8  1  0  0  0  0
  8 12  1  0  0  0  0
  8  9  2  0  0  0  0
  9 10  1  0  0  0  0
 10 11  2  0  0  0  0
 11 12  1  0  0  0  0
 11 39  1  0  0  0  0
 12 13  1  0  0  0  0
 13 29  1  0  0  0  0
 13 20  1  0  0  0  0
 13 14  1  0  0  0  0
 14 15  1  0  0  0  0
 15 30  1  0  0  0  0
 15 16  1  0  0  0  0
 15 18  1  0  0  0  0
 16 17  1  0  0  0  0
 16 40  1  0  0  0  0
 16 41  1  0  0  0  0
 17 42  1  0  0  0  0
 18 31  1  0  0  0  0
 18 19  1  0  0  0  0
 18 20  1  0  0  0  0
 19 43  1  0  0  0  0
 20 32  1  0  0  0  0
 20 21  1  0  0  0  0
 21 44  1  0  0  0  0
 22 27  1  0  0  0  0
 22 23  2  0  0  0  0
 23 24  1  0  0  0  0
 23 45  1  0  0  0  0
 24 25  2  0  0  0  0
 24 46  1  0  0  0  0
 25 26  1  0  0  0  0
 25 47  1  0  0  0  0
 26 27  2  0  0  0  0
 26 48  1  0  0  0  0
 27 28  1  0  0  0  0
M  END
> <s_m_source_file>
AV-unprocessed.smi

> <i_m_source_file_index>
283

> <i_lp_mmshare_version>
43012

> <i_f3d_flags>
0

> <s_epik_input>
Q2xjMVtjSF1bY0hdW2NIXVtjSF1jMVtDQEhdKFtDSDNdKVtOSF1jKG5bY0hdbjIpYyhjMjMpbltjSF1uM1tDQEBIXTRPW0NASF0oW0NIMl1bT0hdKVtDQEBIXShbT0hdKVtDQEhdNFtPSF0=

> <s_epik_cmdline>
J2VwaWtfcHl0aG9uJywgJy1waCcsICc3LjAnLCAnLXRuJywgJzgnLCAnLW1hJywgJzIwMCcsICctbWV0YWxfYmluZGluZycsICctaW1hZScsICc8aW5maWxlLm1hZT4nLCAnLW9tYWUnLCAnPG91dGZpbGUubWFlPic=

> <r_lp_tautomer_probability>
1

> <r_epik_Ionization_Penalty>
0.000266407

> <r_epik_Ionization_Penalty_Charging>
0

> <r_epik_Ionization_Penalty_Neutral>
0.000266407

> <r_epik_State_Penalty>
-0

> <r_epik_Charging_Adjusted_Penalty>
0

> <i_epik_Tot_Q>
0

> <i_epik_Tot_abs_Q>
0

> <r_epik_Metal_State_Penalty>
-0

> <b_epik_Metal_Only>
0

> <s_epik_Chemistry_Notes>
This compound contains an acetal/aminal-like group ( X-CH(R)-Y where X, Y are N, S, or O) that may be acid/base labile, releasing an aldehyde.

> <s_lp_Force_Field>
OPLS_2005

> <r_lp_Energy>
49.3255

> <b_lp_Chiralities_Consistent>
1

> <s_lp_Variant>
AV-unprocessed.smi:283-21

> <Gold.Version>
5.8.1

> <Gold.Id.Protein>
6NUR|6NUR_protein|mol2

> <Gold.PLP.Fitness>
57.2877

> <Gold.PLP.PLP>
-49.6626

> <Gold.PLP.part.hbond>
-4.5713

> <Gold.PLP.part.metal>
0.0000

> <Gold.PLP.part.buried>
-3.0201

> <Gold.PLP.part.nonpolar>
-40.3719

> <Gold.PLP.part.repulsive>
0.1989

> <Gold.PLP.ligand.clash>
0.0000

> <Gold.PLP.ligand.torsion>
1.3700

> <Gold.PLP.Chemscore.Hbond>
2.9600

> <Gold.PLP.Chemscore.CHOScore>
0.4788

> <Gold.PLP.Chemscore.Metal>
0.0000

> <Gold.Chemscore.Hbonds>
donor molecule, donor type, donor heavy atom, donor atom, acceptor molecule, acceptor atom, score
      L1  H    17    42       P1 10175  1.00
      L1  H    19    43       P1 10175  0.83
      L1  H    21    44       P1  7948  1.00
      L1  C    11    39       P1  8028  0.34

> <Gold.PLP.Chemscore.Internal.Correction>
0.0485

> <Gold.Rescore>
     Score         DG    S(hbond)    S(metal)    S(lipo)     H(rot)  DE(clash)    DE(int)     intcor
     15.85     -18.77       2.91        0.00     120.08       4.10       0.13       2.79       ----

> <Gold.Chemscore.Fitness>
15.8545

> <Gold.Chemscore.DG>
-18.7686

> <Gold.Chemscore.ZeroCoef>
-5.4800

> <Gold.Chemscore.Hbond>
2.9124

> <Gold.Chemscore.Metal>
0.0000

> <Gold.Chemscore.Lipo>
120.0775

> <Gold.Chemscore.Internal_Hbond>
0.0000

> <Gold.Chemscore.DEClash>
0.1257

> <Gold.Chemscore.DEInternal>
2.7884

> <Gold.Chemscore.Rot>
4.0968

> <Gold.Chemscore.Internal.Correction>
   9.000000E+99

> <Gold.Chemscore.Hbonds>
donor molecule, donor type, donor heavy atom, donor atom, acceptor molecule, acceptor atom, score
      L1  H    17    42       P1 10175  0.99
      L1  H    19    43       P1 10175  0.79
      L1  H    21    44       P1  7948  1.00

> <Gold.Chemscore.Hbond.Weighted>
-9.7274

> <Gold.Chemscore.Metal.Weighted>
-0.0000

> <Gold.Chemscore.Lipo.Weighted>
-14.0491

> <Gold.Chemscore.Internal_Hbond.Weighted>
0.0000

> <Gold.Chemscore.DEClash.Weighted>
0.1257

> <Gold.Chemscore.DEInternal.Weighted>
2.7884

> <Gold.Chemscore.Rot.Weighted>
10.4879

> <Gold.Chemscore.Internal.Correction.Weighted>
   9.000000E+99

> <Gold.Protein.RotatedTorsions>
[ 6907 6896 6895 6894 ] final -163.45 input  -60.11 | X-H torsion
[ 7974 7965 7964 7962 ] final -160.88 input  175.53 | X-H torsion
[ 8008 7997 7996 7995 ] final  132.22 input   59.86 | X-H torsion
[ 10167 10162 10161 10158 ] final   32.54 input  -65.29 | X-H torsion
[ 10718 10713 10712 10709 ] final  -97.10 input   66.30 | X-H torsion
[ 10763 10752 10751 10750 ] final   51.85 input  -60.55 | X-H torsion
[ 11005 11000 10999 10996 ] final  170.59 input  -57.11 | X-H torsion

> <Gold.Protein.ActiveResidues>
 VAL166  LYS551  ARG553  GLY616  TRP617  ASP618  TYR619  PRO620  LYS621  CYS622 
 ASP623  PHE694  ASN695  SER759  ASP760  ASP761  ALA762  ILE779  LEU786  VAL792 
 PHE793  MET794  SER795  GLU796  ALA797  LYS798  CYS799  TRP800  GLU811  SER814 

> <Gold.Protein.RotatedAtoms>
  151.3962  133.3772  159.2726 H   0  0  0  0  0  0  0  0  0  0  0  0  # atno 6907 bound_to 6896
  150.9467  134.8873  159.7657 H   0  0  0  0  0  0  0  0  0  0  0  0  # atno 6908 bound_to 6896
  152.5095  134.3916  159.9438 H   0  0  0  0  0  0  0  0  0  0  0  0  # atno 6909 bound_to 6896
  144.7411  140.3478  143.6122 H   0  0  0  0  0  0  0  0  0  0  0  0  # atno 7974 bound_to 7965
  156.2980  140.2552  156.3053 H   0  0  0  0  0  0  0  0  0  0  0  0  # atno 8008 bound_to 7997
  154.9378  140.0397  157.2100 H   0  0  0  0  0  0  0  0  0  0  0  0  # atno 8009 bound_to 7997
  154.8155  140.2851  155.5827 H   0  0  0  0  0  0  0  0  0  0  0  0  # atno 8010 bound_to 7997
  140.4489  144.1077  150.6188 H   0  0  0  0  0  0  0  0  0  0  0  0  # atno 10167 bound_to 10162
  156.0076  130.5180  150.6324 H   0  0  0  0  0  0  0  0  0  0  0  0  # atno 10718 bound_to 10713
  152.9786  135.5832  154.4483 H   0  0  0  0  0  0  0  0  0  0  0  0  # atno 10763 bound_to 10752
  154.4075  135.2769  155.2060 H   0  0  0  0  0  0  0  0  0  0  0  0  # atno 10764 bound_to 10752
  154.3864  135.6135  153.5873 H   0  0  0  0  0  0  0  0  0  0  0  0  # atno 10765 bound_to 10752
  140.3099  134.7525  157.3983 H   0  0  0  0  0  0  0  0  0  0  0  0  # atno 11005 bound_to 11000
  145.7308  139.1735  143.2431 LP  0  0  0  0  0  0  0  0  0  0  0  0  # atno 17320 bound_to 7965
  146.1208  140.7312  142.9458 LP  0  0  0  0  0  0  0  0  0  0  0  0  # atno 17321 bound_to 7965
  140.4230  143.2603  151.9691 LP  0  0  0  0  0  0  0  0  0  0  0  0  # atno 17342 bound_to 10162
  139.4795  144.5813  151.7927 LP  0  0  0  0  0  0  0  0  0  0  0  0  # atno 17343 bound_to 10162
  157.4120  131.0825  151.1212 LP  0  0  0  0  0  0  0  0  0  0  0  0  # atno 17370 bound_to 10713
  157.1841  130.6322  149.5682 LP  0  0  0  0  0  0  0  0  0  0  0  0  # atno 17371 bound_to 10713
  140.1034  134.5442  155.8332 LP  0  0  0  0  0  0  0  0  0  0  0  0  # atno 17394 bound_to 11000
  141.2110  133.6702  156.6552 LP  0  0  0  0  0  0  0  0  0  0  0  0  # atno 17395 bound_to 11000

$$$$
