AV-unprocessed.smi:716|AV-procd|sdf|3488|dock2
  -GOLD-   22720 0483D 1   1.00000     0.00000
 Structure written by MMmdl.
 48 50  0  0  0  0  0  0  0  0  1 V2000
  147.4128  143.1748  157.7719 C   0  0  0  0  0  0  0  0  0  0  0  0
  148.7176  142.3911  157.6157 C   0  0  0  0  0  0  0  0  0  0  0  0
  149.7150  143.0005  158.4171 O   0  0  0  0  0  0  0  0  0  0  0  0
  151.0091  142.4640  158.1916 C   0  0  2  0  0  0  0  0  0  0  0  0
  151.2252  141.0589  158.7623 C   0  0  0  0  0  0  0  0  0  0  0  0
  152.6355  141.5350  159.1138 C   0  0  2  0  0  0  0  0  0  0  0  0
  153.1067  140.9893  160.3812 N   0  0  0  0  0  0  0  0  0  0  0  0
  153.9702  139.9705  160.4969 C   0  0  0  0  0  0  0  0  0  0  0  0
  154.4689  139.3951  159.5287 O   0  0  0  0  0  0  0  0  0  0  0  0
  154.3411  139.5611  161.9293 C   0  0  0  0  0  0  0  0  0  0  0  0
  154.0243  138.1579  162.2311 N   0  0  0  0  0  0  0  0  0  0  0  0
  153.8075  137.3703  161.1124 N   0  0  0  0  0  0  0  0  0  0  0  0
  153.5138  136.1165  161.2271 C   0  0  0  0  0  0  0  0  0  0  0  0
  153.2925  135.3358  159.9659 C   0  0  0  0  0  0  0  0  0  0  0  0
  153.4113  135.5240  162.5470 C   0  0  0  0  0  0  0  0  0  0  0  0
  153.6285  136.2925  163.6357 C   0  0  0  0  0  0  0  0  0  0  0  0
  153.9649  137.7097  163.5207 C   0  0  0  0  0  0  0  0  0  0  0  0
  154.1771  138.4344  164.4927 O   0  0  0  0  0  0  0  0  0  0  0  0
  152.0762  142.9791  159.1899 C   0  0  0  0  0  0  0  0  0  0  0  0
  151.5744  143.5257  160.5333 C   0  0  0  0  0  0  0  0  0  0  0  0
  151.3889  145.0341  160.3516 C   0  0  0  0  0  0  0  0  0  0  0  0
  152.3154  145.4267  159.1957 C   0  0  0  0  0  0  0  0  0  0  0  0
  152.9649  144.1240  158.7168 C   0  0  0  0  0  0  0  0  0  0  0  0
  146.6200  142.7362  157.1659 H   0  0  0  0  0  0  0  0  0  0  0  0
  147.5391  144.2114  157.4587 H   0  0  0  0  0  0  0  0  0  0  0  0
  147.0794  143.1760  158.8099 H   0  0  0  0  0  0  0  0  0  0  0  0
  148.5656  141.3546  157.9197 H   0  0  0  0  0  0  0  0  0  0  0  0
  149.0276  142.3873  156.5698 H   0  0  0  0  0  0  0  0  0  0  0  0
  151.3363  142.5520  157.1529 H   0  0  0  0  0  0  0  0  0  0  0  0
  150.5999  140.8480  159.6319 H   0  0  0  0  0  0  0  0  0  0  0  0
  151.1833  140.2556  158.0263 H   0  0  0  0  0  0  0  0  0  0  0  0
  153.3275  141.3962  158.2793 H   0  0  0  0  0  0  0  0  0  0  0  0
  152.7490  141.4116  161.2257 H   0  0  0  0  0  0  0  0  0  0  0  0
  155.4080  139.7477  162.0650 H   0  0  0  0  0  0  0  0  0  0  0  0
  153.8368  140.2147  162.6438 H   0  0  0  0  0  0  0  0  0  0  0  0
  153.1231  134.2802  160.1801 H   0  0  0  0  0  0  0  0  0  0  0  0
  154.1580  135.4073  159.3069 H   0  0  0  0  0  0  0  0  0  0  0  0
  152.4230  135.7110  159.4256 H   0  0  0  0  0  0  0  0  0  0  0  0
  153.1636  134.4777  162.6491 H   0  0  0  0  0  0  0  0  0  0  0  0
  153.5517  135.8504  164.6180 H   0  0  0  0  0  0  0  0  0  0  0  0
  150.6542  143.0481  160.8714 H   0  0  0  0  0  0  0  0  0  0  0  0
  152.3178  143.3614  161.3139 H   0  0  0  0  0  0  0  0  0  0  0  0
  150.3544  145.2553  160.0863 H   0  0  0  0  0  0  0  0  0  0  0  0
  151.6171  145.5809  161.2669 H   0  0  0  0  0  0  0  0  0  0  0  0
  151.7323  145.8772  158.3915 H   0  0  0  0  0  0  0  0  0  0  0  0
  153.0669  146.1543  159.5033 H   0  0  0  0  0  0  0  0  0  0  0  0
  153.9566  144.0295  159.1612 H   0  0  0  0  0  0  0  0  0  0  0  0
  153.1055  144.1246  157.6356 H   0  0  0  0  0  0  0  0  0  0  0  0
  1  2  1  0  0  0  0
  1 24  1  0  0  0  0
  1 25  1  0  0  0  0
  1 26  1  0  0  0  0
  2  3  1  0  0  0  0
  2 27  1  0  0  0  0
  2 28  1  0  0  0  0
  3  4  1  0  0  0  0
  4 19  1  0  0  0  0
  4  5  1  0  0  0  0
  4 29  1  0  0  0  0
  5  6  1  0  0  0  0
  5 30  1  0  0  0  0
  5 31  1  0  0  0  0
  6  7  1  0  0  0  0
  6 19  1  0  0  0  0
  6 32  1  0  0  0  0
  7  8  1  0  0  0  0
  7 33  1  0  0  0  0
  8  9  2  0  0  0  0
  8 10  1  0  0  0  0
 10 11  1  0  0  0  0
 10 34  1  0  0  0  0
 10 35  1  0  0  0  0
 11 17  1  0  0  0  0
 11 12  1  0  0  0  0
 12 13  2  0  0  0  0
 13 14  1  0  0  0  0
 13 15  1  0  0  0  0
 14 36  1  0  0  0  0
 14 37  1  0  0  0  0
 14 38  1  0  0  0  0
 15 16  2  0  0  0  0
 15 39  1  0  0  0  0
 16 17  1  0  0  0  0
 16 40  1  0  0  0  0
 17 18  2  0  0  0  0
 19 23  1  0  0  0  0
 19 20  1  0  0  0  0
 20 21  1  0  0  0  0
 20 41  1  0  0  0  0
 20 42  1  0  0  0  0
 21 22  1  0  0  0  0
 21 43  1  0  0  0  0
 21 44  1  0  0  0  0
 22 23  1  0  0  0  0
 22 45  1  0  0  0  0
 22 46  1  0  0  0  0
 23 47  1  0  0  0  0
 23 48  1  0  0  0  0
M  END
> <s_m_source_file>
AV-unprocessed.smi

> <i_m_source_file_index>
716

> <i_lp_mmshare_version>
43012

> <i_f3d_flags>
0

> <s_epik_input>
W0NIMl0xW0NIMl1bQ0gyXVtDSDJdQzEyW0NASF0oT1tDSDJdW0NIM10pW0NIMl1bQ0BIXTJbTkhdQyg9TylbQ0gyXW4zbmMoW0NIM10pW2NIXVtjSF1jMz1P

> <s_epik_cmdline>
J2VwaWtfcHl0aG9uJywgJy1waCcsICc3LjAnLCAnLXRuJywgJzgnLCAnLW1hJywgJzIwMCcsICctbWV0YWxfYmluZGluZycsICctaW1hZScsICc8aW5maWxlLm1hZT4nLCAnLW9tYWUnLCAnPG91dGZpbGUubWFlPic=

> <r_lp_tautomer_probability>
1

> <r_epik_Ionization_Penalty>
4.75561e-08

> <r_epik_Ionization_Penalty_Charging>
2.86617e-08

> <r_epik_Ionization_Penalty_Neutral>
1.88944e-08

> <r_epik_State_Penalty>
-0

> <r_epik_Charging_Adjusted_Penalty>
2.86617e-08

> <i_epik_Tot_Q>
0

> <i_epik_Tot_abs_Q>
0

> <r_epik_Metal_State_Penalty>
-0

> <b_epik_Metal_Only>
0

> <s_lp_Force_Field>
OPLS_2005

> <r_lp_Energy>
50.3273

> <b_lp_Chiralities_Consistent>
1

> <s_lp_Variant>
AV-unprocessed.smi:716-3

> <Gold.Version>
5.8.1

> <Gold.Id.Protein>
6NUR|6NUR_protein|mol2

> <Gold.PLP.Fitness>
44.8148

> <Gold.PLP.PLP>
-42.7826

> <Gold.PLP.part.hbond>
-1.1377

> <Gold.PLP.part.metal>
0.0000

> <Gold.PLP.part.buried>
-5.1247

> <Gold.PLP.part.nonpolar>
-36.8762

> <Gold.PLP.part.repulsive>
0.1742

> <Gold.PLP.ligand.clash>
0.0000

> <Gold.PLP.ligand.torsion>
0.5695

> <Gold.PLP.Chemscore.Hbond>
0.9425

> <Gold.PLP.Chemscore.CHOScore>
0.0000

> <Gold.PLP.Chemscore.Metal>
0.0000

> <Gold.Chemscore.Hbonds>
donor molecule, donor type, donor heavy atom, donor atom, acceptor molecule, acceptor atom, score
      P1  H  7997  8010       L1     9  0.08

> <Gold.PLP.Chemscore.Internal.Correction>
0.3436

> <Gold.Rescore>
     Score         DG    S(hbond)    S(metal)    S(lipo)     H(rot)  DE(clash)    DE(int)     intcor
     16.10     -18.42       0.97        0.00     120.90       1.73       0.34       1.98       ----

> <Gold.Chemscore.Fitness>
16.1019

> <Gold.Chemscore.DG>
-18.4212

> <Gold.Chemscore.ZeroCoef>
-5.4800

> <Gold.Chemscore.Hbond>
0.9690

> <Gold.Chemscore.Metal>
0.0000

> <Gold.Chemscore.Lipo>
120.9049

> <Gold.Chemscore.Internal_Hbond>
0.0000

> <Gold.Chemscore.DEClash>
0.3417

> <Gold.Chemscore.DEInternal>
1.9776

> <Gold.Chemscore.Rot>
1.7348

> <Gold.Chemscore.Internal.Correction>
   9.000000E+99

> <Gold.Chemscore.Hbonds>
donor molecule, donor type, donor heavy atom, donor atom, acceptor molecule, acceptor atom, score
      P1  H  7997  8010       L1     9  0.11

> <Gold.Chemscore.Hbond.Weighted>
-3.2364

> <Gold.Chemscore.Metal.Weighted>
-0.0000

> <Gold.Chemscore.Lipo.Weighted>
-14.1459

> <Gold.Chemscore.Internal_Hbond.Weighted>
0.0000

> <Gold.Chemscore.DEClash.Weighted>
0.3417

> <Gold.Chemscore.DEInternal.Weighted>
1.9776

> <Gold.Chemscore.Rot.Weighted>
4.4411

> <Gold.Chemscore.Internal.Correction.Weighted>
   9.000000E+99

> <Gold.Protein.RotatedTorsions>
[ 6907 6896 6895 6894 ] final   29.91 input  -60.11 | X-H torsion
[ 7974 7965 7964 7962 ] final   14.10 input  175.53 | X-H torsion
[ 8008 7997 7996 7995 ] final  -11.45 input   59.86 | X-H torsion
[ 10167 10162 10161 10158 ] final  -55.46 input  -65.29 | X-H torsion
[ 10718 10713 10712 10709 ] final  -71.49 input   66.30 | X-H torsion
[ 10763 10752 10751 10750 ] final -131.11 input  -60.55 | X-H torsion
[ 11005 11000 10999 10996 ] final    6.53 input  -57.11 | X-H torsion

> <Gold.Protein.ActiveResidues>
 VAL166  LYS551  ARG553  GLY616  TRP617  ASP618  TYR619  PRO620  LYS621  CYS622 
 ASP623  PHE694  ASN695  SER759  ASP760  ASP761  ALA762  ILE779  LEU786  VAL792 
 PHE793  MET794  SER795  GLU796  ALA797  LYS798  CYS799  TRP800  GLU811  SER814 

> <Gold.Protein.RotatedAtoms>
  152.0384  134.9726  160.0573 H   0  0  0  0  0  0  0  0  0  0  0  0  # atno 6907 bound_to 6896
  152.1174  133.4329  159.4668 H   0  0  0  0  0  0  0  0  0  0  0  0  # atno 6908 bound_to 6896
  150.6847  134.2494  159.4548 H   0  0  0  0  0  0  0  0  0  0  0  0  # atno 6909 bound_to 6896
  146.2313  139.9091  142.8527 H   0  0  0  0  0  0  0  0  0  0  0  0  # atno 7974 bound_to 7965
  154.5464  140.2302  155.8556 H   0  0  0  0  0  0  0  0  0  0  0  0  # atno 8008 bound_to 7997
  156.1906  140.3078  155.9287 H   0  0  0  0  0  0  0  0  0  0  0  0  # atno 8009 bound_to 7997
  155.3156  140.0438  157.3027 H   0  0  0  0  0  0  0  0  0  0  0  0  # atno 8010 bound_to 7997
  140.6373  143.2489  151.5084 H   0  0  0  0  0  0  0  0  0  0  0  0  # atno 10167 bound_to 10162
  156.0360  130.4352  150.2452 H   0  0  0  0  0  0  0  0  0  0  0  0  # atno 10718 bound_to 10713
  154.8752  135.3840  154.4193 H   0  0  0  0  0  0  0  0  0  0  0  0  # atno 10763 bound_to 10752
  153.4898  135.7030  153.5895 H   0  0  0  0  0  0  0  0  0  0  0  0  # atno 10764 bound_to 10752
  153.4274  135.3887  155.2116 H   0  0  0  0  0  0  0  0  0  0  0  0  # atno 10765 bound_to 10752
  140.5584  134.0215  155.7962 H   0  0  0  0  0  0  0  0  0  0  0  0  # atno 11005 bound_to 11000
  145.2248  140.9949  143.4025 LP  0  0  0  0  0  0  0  0  0  0  0  0  # atno 17320 bound_to 7965
  144.9580  139.4010  143.6370 LP  0  0  0  0  0  0  0  0  0  0  0  0  # atno 17321 bound_to 7965
  139.5583  144.2220  152.1649 LP  0  0  0  0  0  0  0  0  0  0  0  0  # atno 17342 bound_to 10162
  140.1480  144.5141  150.6704 LP  0  0  0  0  0  0  0  0  0  0  0  0  # atno 17343 bound_to 10162
  157.0551  131.0074  151.3241 LP  0  0  0  0  0  0  0  0  0  0  0  0  # atno 17370 bound_to 10713
  157.5111  130.7939  149.7706 LP  0  0  0  0  0  0  0  0  0  0  0  0  # atno 17371 bound_to 10713
  141.1129  133.9587  157.2876 LP  0  0  0  0  0  0  0  0  0  0  0  0  # atno 17394 bound_to 11000
  139.9420  135.0190  156.8736 LP  0  0  0  0  0  0  0  0  0  0  0  0  # atno 17395 bound_to 11000

$$$$
