AV-unprocessed.smi:1047|AV-procd|sdf|4597|dock2
  -GOLD-   22720 3 83D 1   1.00000     0.00000
 Structure written by MMmdl.
 57 59  0  0  0  0  0  0  0  0  3 V2000
  148.7484  130.7788  155.4737 C   0  0  0  0  0  0  0  0  0  0  0  0
  148.4022  132.2479  155.1929 C   0  0  0  0  0  0  0  0  0  0  0  0
  149.3385  133.1897  155.8619 N   0  3  2  0  0  0  0  0  0  0  0  0
  149.4210  133.0007  157.3314 C   0  0  0  0  0  0  0  0  0  0  0  0
  148.2009  133.6134  158.0431 C   0  0  0  0  0  0  0  0  0  0  0  0
  148.1017  134.9946  157.7177 O   0  0  0  0  0  0  0  0  0  0  0  0
  147.9295  135.2149  156.3212 C   0  0  1  0  0  0  0  0  0  0  0  0
  147.7038  136.7172  156.0742 C   0  0  0  0  0  0  0  0  0  0  0  0
  148.9246  137.4990  156.2559 N   0  0  0  0  0  0  0  0  0  0  0  0
  149.3840  138.1519  155.0323 C   0  0  0  0  0  0  0  0  0  0  0  0
  150.9196  138.2267  154.9550 C   0  0  2  0  0  0  0  0  0  0  0  0
  151.4418  136.9450  154.6629 O   0  0  0  0  0  0  0  0  0  0  0  0
  151.5839  138.8283  156.2112 C   0  0  0  0  0  0  0  0  0  0  0  0
  151.1815  140.2191  156.4573 N   0  0  0  0  0  0  0  0  0  0  0  0
  150.3861  141.0429  155.7222 C   0  0  0  0  0  0  0  0  0  0  0  0
  150.3246  142.2390  156.3705 N   0  3  0  0  0  0  0  0  0  0  0  0
  151.0939  142.1786  157.5346 C   0  0  0  0  0  0  0  0  0  0  0  0
  151.3415  143.1332  158.5139 C   0  0  0  0  0  0  0  0  0  0  0  0
  152.1786  142.7539  159.5876 C   0  0  0  0  0  0  0  0  0  0  0  0
  152.4679  143.7735  160.6762 C   0  0  0  0  0  0  0  0  0  0  0  0
  152.7375  141.4509  159.6528 C   0  0  0  0  0  0  0  0  0  0  0  0
  153.6350  141.0534  160.8125 C   0  0  0  0  0  0  0  0  0  0  0  0
  152.4749  140.4947  158.6456 C   0  0  0  0  0  0  0  0  0  0  0  0
  151.6472  140.8851  157.5957 C   0  0  0  0  0  0  0  0  0  0  0  0
  149.1237  134.6228  155.5349 C   0  0  0  0  0  0  0  0  0  0  0  0
  147.9894  130.1202  155.0511 H   0  0  0  0  0  0  0  0  0  0  0  0
  148.7948  130.5825  156.5453 H   0  0  0  0  0  0  0  0  0  0  0  0
  149.7037  130.4906  155.0361 H   0  0  0  0  0  0  0  0  0  0  0  0
  148.3626  132.4307  154.1192 H   0  0  0  0  0  0  0  0  0  0  0  0
  147.3941  132.4252  155.5694 H   0  0  0  0  0  0  0  0  0  0  0  0
  149.5245  131.9437  157.5792 H   0  0  0  0  0  0  0  0  0  0  0  0
  150.3285  133.4879  157.6907 H   0  0  0  0  0  0  0  0  0  0  0  0
  147.2809  133.0935  157.7720 H   0  0  0  0  0  0  0  0  0  0  0  0
  148.3109  133.5158  159.1232 H   0  0  0  0  0  0  0  0  0  0  0  0
  147.0135  134.7085  156.0145 H   0  0  0  0  0  0  0  0  0  0  0  0
  147.3286  136.8551  155.0594 H   0  0  0  0  0  0  0  0  0  0  0  0
  146.9239  137.0826  156.7433 H   0  0  0  0  0  0  0  0  0  0  0  0
  149.6642  136.9028  156.6140 H   0  0  0  0  0  0  0  0  0  0  0  0
  149.0023  137.6226  154.1582 H   0  0  0  0  0  0  0  0  0  0  0  0
  148.9748  139.1616  154.9825 H   0  0  0  0  0  0  0  0  0  0  0  0
  151.1680  138.8561  154.1001 H   0  0  0  0  0  0  0  0  0  0  0  0
  151.1296  136.6820  153.8107 H   0  0  0  0  0  0  0  0  0  0  0  0
  151.3487  138.2380  157.0978 H   0  0  0  0  0  0  0  0  0  0  0  0
  152.6704  138.8209  156.1139 H   0  0  0  0  0  0  0  0  0  0  0  0
  149.8931  140.7929  154.7937 H   0  0  0  0  0  0  0  0  0  0  0  0
  150.9129  144.1231  158.4575 H   0  0  0  0  0  0  0  0  0  0  0  0
  153.5407  143.9477  160.7640 H   0  0  0  0  0  0  0  0  0  0  0  0
  152.0929  143.4234  161.6384 H   0  0  0  0  0  0  0  0  0  0  0  0
  151.9924  144.7314  160.4620 H   0  0  0  0  0  0  0  0  0  0  0  0
  153.9526  140.0131  160.7335 H   0  0  0  0  0  0  0  0  0  0  0  0
  153.1102  141.1687  161.7611 H   0  0  0  0  0  0  0  0  0  0  0  0
  154.5307  141.6752  160.8332 H   0  0  0  0  0  0  0  0  0  0  0  0
  152.8998  139.5029  158.6939 H   0  0  0  0  0  0  0  0  0  0  0  0
  150.0393  135.1535  155.7982 H   0  0  0  0  0  0  0  0  0  0  0  0
  148.9897  134.7681  154.4637 H   0  0  0  0  0  0  0  0  0  0  0  0
  150.2514  132.9476  155.5031 H   0  0  0  0  0  0  0  0  0  0  0  0
  149.7976  143.0368  156.0391 H   0  0  0  0  0  0  0  0  0  0  0  0
  1  2  1  0  0  0  0
  1 26  1  0  0  0  0
  1 27  1  0  0  0  0
  1 28  1  0  0  0  0
  2  3  1  0  0  0  0
  2 29  1  0  0  0  0
  2 30  1  0  0  0  0
  3 25  1  0  0  0  0
  3  4  1  0  0  0  0
  3 56  1  0  0  0  0
  4  5  1  0  0  0  0
  4 31  1  0  0  0  0
  4 32  1  0  0  0  0
  5  6  1  0  0  0  0
  5 33  1  0  0  0  0
  5 34  1  0  0  0  0
  6  7  1  0  0  0  0
  7  8  1  0  0  0  0
  7 25  1  0  0  0  0
  7 35  1  0  0  0  0
  8  9  1  0  0  0  0
  8 36  1  0  0  0  0
  8 37  1  0  0  0  0
  9 10  1  0  0  0  0
  9 38  1  0  0  0  0
 10 11  1  0  0  0  0
 10 39  1  0  0  0  0
 10 40  1  0  0  0  0
 11 12  1  0  0  0  0
 11 13  1  0  0  0  0
 11 41  1  0  0  0  0
 12 42  1  0  0  0  0
 13 14  1  0  0  0  0
 13 43  1  0  0  0  0
 13 44  1  0  0  0  0
 14 24  1  0  0  0  0
 14 15  1  0  0  0  0
 15 16  2  0  0  0  0
 15 45  1  0  0  0  0
 16 17  1  0  0  0  0
 16 57  1  0  0  0  0
 17 24  2  0  0  0  0
 17 18  1  0  0  0  0
 18 19  2  0  0  0  0
 18 46  1  0  0  0  0
 19 20  1  0  0  0  0
 19 21  1  0  0  0  0
 20 47  1  0  0  0  0
 20 48  1  0  0  0  0
 20 49  1  0  0  0  0
 21 22  1  0  0  0  0
 21 23  2  0  0  0  0
 22 50  1  0  0  0  0
 22 51  1  0  0  0  0
 22 52  1  0  0  0  0
 23 24  1  0  0  0  0
 23 53  1  0  0  0  0
 25 54  1  0  0  0  0
 25 55  1  0  0  0  0
M  CHG  1   3   1
M  CHG  1  16   1
M  END
> <s_m_source_file>
AV-unprocessed.smi

> <i_m_source_file_index>
1047

> <i_lp_mmshare_version>
43012

> <i_f3d_flags>
0

> <s_epik_input>
W0NIM11bQ0gyXU4xW0NIMl1bQ0gyXU9bQ0BIXShbQ0gyXTEpW0NIMl1bTkhdW0NIMl1bQ0BIXShbT0hdKVtDSDJdbihbY0hdbjIpYyhjMjMpW2NIXWMoW0NIM10pYyhbY0hdMylbQ0gzXQ==

> <s_epik_cmdline>
J2VwaWtfcHl0aG9uJywgJy1waCcsICc3LjAnLCAnLXRuJywgJzgnLCAnLW1hJywgJzIwMCcsICctbWV0YWxfYmluZGluZycsICctaW1hZScsICc8aW5maWxlLm1hZT4nLCAnLW9tYWUnLCAnPG91dGZpbGUubWFlPic=

> <r_epik_Ionization_Penalty>
2.03028

> <r_epik_Ionization_Penalty_Charging>
1.21256

> <r_epik_Ionization_Penalty_Neutral>
0.817715

> <r_epik_State_Penalty>
2.54959

> <r_epik_Charging_Adjusted_Penalty>
3.76215

> <i_epik_Tot_Q>
2

> <i_epik_Tot_abs_Q>
2

> <r_epik_Metal_State_Penalty>
6.52811

> <b_epik_Metal_Only>
0

> <s_lp_Force_Field>
OPLS_2005

> <r_lp_Energy>
43.5189

> <b_lp_Chiralities_Consistent>
1

> <s_lp_Variant>
AV-unprocessed.smi:1047-38

> <Gold.Version>
5.8.1

> <Gold.Id.Protein>
6NUR|6NUR_protein|mol2

> <Gold.PLP.Fitness>
58.0853

> <Gold.PLP.PLP>
-47.3621

> <Gold.PLP.part.hbond>
-3.0000

> <Gold.PLP.part.metal>
0.0000

> <Gold.PLP.part.buried>
-5.5325

> <Gold.PLP.part.nonpolar>
-39.2655

> <Gold.PLP.part.repulsive>
0.1241

> <Gold.PLP.ligand.clash>
0.0000

> <Gold.PLP.ligand.torsion>
0.7565

> <Gold.PLP.Chemscore.Hbond>
4.0000

> <Gold.PLP.Chemscore.CHOScore>
0.0000

> <Gold.PLP.Chemscore.Metal>
0.0000

> <Gold.Chemscore.Hbonds>
donor molecule, donor type, donor heavy atom, donor atom, acceptor molecule, acceptor atom, score
      L1  H    12    42       P1  7949  0.03
      L1  H    16    57       P1  8028  2.00
      P1  H 10752 10765       L1    12  0.30

> <Gold.PLP.Chemscore.Internal.Correction>
0.2362

> <Gold.Rescore>
     Score         DG    S(hbond)    S(metal)    S(lipo)     H(rot)  DE(clash)    DE(int)     intcor
     18.58     -19.37       1.92        0.00     123.05       2.71       0.04       0.75       ----

> <Gold.Chemscore.Fitness>
18.5775

> <Gold.Chemscore.DG>
-19.3700

> <Gold.Chemscore.ZeroCoef>
-5.4800

> <Gold.Chemscore.Hbond>
1.9246

> <Gold.Chemscore.Metal>
0.0000

> <Gold.Chemscore.Lipo>
123.0457

> <Gold.Chemscore.Internal_Hbond>
0.0000

> <Gold.Chemscore.DEClash>
0.0410

> <Gold.Chemscore.DEInternal>
0.7515

> <Gold.Chemscore.Rot>
2.7088

> <Gold.Chemscore.Internal.Correction>
   9.000000E+99

> <Gold.Chemscore.Hbonds>
donor molecule, donor type, donor heavy atom, donor atom, acceptor molecule, acceptor atom, score
      L1  H    12    42       P1  7949  0.04
      L1  H    16    57       P1  8028  0.99

> <Gold.Chemscore.Hbond.Weighted>
-6.4283

> <Gold.Chemscore.Metal.Weighted>
-0.0000

> <Gold.Chemscore.Lipo.Weighted>
-14.3964

> <Gold.Chemscore.Internal_Hbond.Weighted>
0.0000

> <Gold.Chemscore.DEClash.Weighted>
0.0410

> <Gold.Chemscore.DEInternal.Weighted>
0.7515

> <Gold.Chemscore.Rot.Weighted>
6.9346

> <Gold.Chemscore.Internal.Correction.Weighted>
   9.000000E+99

> <Gold.Protein.RotatedTorsions>
[ 6907 6896 6895 6894 ] final -129.29 input  -60.11 | X-H torsion
[ 7974 7965 7964 7962 ] final  -27.41 input  175.53 | X-H torsion
[ 8008 7997 7996 7995 ] final  -41.45 input   59.86 | X-H torsion
[ 10167 10162 10161 10158 ] final -122.54 input  -65.29 | X-H torsion
[ 10718 10713 10712 10709 ] final  178.07 input   66.30 | X-H torsion
[ 10763 10752 10751 10750 ] final  165.76 input  -60.55 | X-H torsion
[ 11005 11000 10999 10996 ] final   30.36 input  -57.11 | X-H torsion

> <Gold.Protein.ActiveResidues>
 VAL166  LYS551  ARG553  GLY616  TRP617  ASP618  TYR619  PRO620  LYS621  CYS622 
 ASP623  PHE694  ASN695  SER759  ASP760  ASP761  ALA762  ILE779  LEU786  VAL792 
 PHE793  MET794  SER795  GLU796  ALA797  LYS798  CYS799  TRP800  GLU811  SER814 

> <Gold.Protein.RotatedAtoms>
  150.9272  133.6810  159.2818 H   0  0  0  0  0  0  0  0  0  0  0  0  # atno 6907 bound_to 6896
  151.4245  135.1000  159.9633 H   0  0  0  0  0  0  0  0  0  0  0  0  # atno 6908 bound_to 6896
  152.5008  133.8716  159.7356 H   0  0  0  0  0  0  0  0  0  0  0  0  # atno 6909 bound_to 6896
  146.1359  140.5148  142.8673 H   0  0  0  0  0  0  0  0  0  0  0  0  # atno 7974 bound_to 7965
  154.4004  140.1499  156.3194 H   0  0  0  0  0  0  0  0  0  0  0  0  # atno 8008 bound_to 7997
  155.8543  140.3456  155.5693 H   0  0  0  0  0  0  0  0  0  0  0  0  # atno 8009 bound_to 7997
  155.7949  140.0862  157.1979 H   0  0  0  0  0  0  0  0  0  0  0  0  # atno 8010 bound_to 7997
  140.0131  143.5421  152.2254 H   0  0  0  0  0  0  0  0  0  0  0  0  # atno 10167 bound_to 10162
  156.8960  130.9863  151.3042 H   0  0  0  0  0  0  0  0  0  0  0  0  # atno 10718 bound_to 10713
  154.3289  135.2755  155.2482 H   0  0  0  0  0  0  0  0  0  0  0  0  # atno 10763 bound_to 10752
  154.4803  135.5860  153.6388 H   0  0  0  0  0  0  0  0  0  0  0  0  # atno 10764 bound_to 10752
  152.9868  135.6109  154.3480 H   0  0  0  0  0  0  0  0  0  0  0  0  # atno 10765 bound_to 10752
  140.2952  134.2819  155.7766 H   0  0  0  0  0  0  0  0  0  0  0  0  # atno 11005 bound_to 11000
  144.7740  140.5699  143.6651 LP  0  0  0  0  0  0  0  0  0  0  0  0  # atno 17320 bound_to 7965
  145.5156  139.1478  143.3581 LP  0  0  0  0  0  0  0  0  0  0  0  0  # atno 17321 bound_to 7965
  139.6191  144.7625  151.2780 LP  0  0  0  0  0  0  0  0  0  0  0  0  # atno 17342 bound_to 10162
  140.7373  143.6681  150.8105 LP  0  0  0  0  0  0  0  0  0  0  0  0  # atno 17343 bound_to 10162
  157.6055  130.8544  149.8868 LP  0  0  0  0  0  0  0  0  0  0  0  0  # atno 17370 bound_to 10713
  156.0605  130.3700  150.0993 LP  0  0  0  0  0  0  0  0  0  0  0  0  # atno 17371 bound_to 10713
  141.2139  133.7610  156.9684 LP  0  0  0  0  0  0  0  0  0  0  0  0  # atno 17394 bound_to 11000
  140.1159  134.9447  157.2134 LP  0  0  0  0  0  0  0  0  0  0  0  0  # atno 17395 bound_to 11000

$$$$
