AV-unprocessed.smi:2253|AV-procd|sdf|9120|dock9
  -GOLD-   2272012323D 1   1.00000     0.00000
 Structure written by MMmdl.
 51 53  0  0  0  0  0  0  0  0  2 V2000
  147.0818  142.0020  154.6811 C   0  0  0  0  0  0  0  0  0  0  0  0
  148.2318  142.0154  155.6104 N   0  3  2  0  0  0  0  0  0  0  0  0
  149.5043  141.6550  154.9376 C   0  0  0  0  0  0  0  0  0  0  0  0
  150.6938  141.7480  155.9103 C   0  0  0  0  0  0  0  0  0  0  0  0
  150.4967  140.8415  157.1526 C   0  0  2  0  0  0  0  0  0  0  0  0
  150.5422  139.3920  156.8500 N   0  0  0  0  0  0  0  0  0  0  0  0
  150.4946  138.5839  158.0804 C   0  0  0  0  0  0  0  0  0  0  0  0
  150.4481  137.0773  157.7732 C   0  0  0  0  0  0  0  0  0  0  0  0
  151.6762  136.6425  156.9654 C   0  0  0  0  0  0  0  0  0  0  0  0
  151.5770  135.2401  156.5714 N   0  0  0  0  0  0  0  0  0  0  0  0
  150.6231  134.7266  155.7811 C   0  0  0  0  0  0  0  0  0  0  0  0
  149.7182  135.4014  155.2913 O   0  0  0  0  0  0  0  0  0  0  0  0
  150.7967  133.4039  155.6129 N   0  0  0  0  0  0  0  0  0  0  0  0
  150.0120  132.4675  154.8823 C   0  0  0  0  0  0  0  0  0  0  0  0
  148.9180  132.8038  154.0469 C   0  0  0  0  0  0  0  0  0  0  0  0
  148.2324  131.7676  153.3812 C   0  0  0  0  0  0  0  0  0  0  0  0
  148.5631  130.4640  153.4919 N   0  0  0  0  0  0  0  0  0  0  0  0
  149.6089  130.1467  154.2835 C   0  0  0  0  0  0  0  0  0  0  0  0
  150.3606  131.1042  154.9933 C   0  0  0  0  0  0  0  0  0  0  0  0
  151.4002  130.7153  155.7709 F   0  0  0  0  0  0  0  0  0  0  0  0
  151.7702  137.5343  155.7250 C   0  0  0  0  0  0  0  0  0  0  0  0
  151.7614  139.0242  156.1101 C   0  0  0  0  0  0  0  0  0  0  0  0
  149.1658  141.2928  157.8077 C   0  0  0  0  0  0  0  0  0  0  0  0
  147.9842  141.2004  156.8254 C   0  0  0  0  0  0  0  0  0  0  0  0
  146.9046  140.9983  154.2926 H   0  0  0  0  0  0  0  0  0  0  0  0
  147.2607  142.6686  153.8370 H   0  0  0  0  0  0  0  0  0  0  0  0
  146.1753  142.3391  155.1848 H   0  0  0  0  0  0  0  0  0  0  0  0
  149.4315  140.6471  154.5262 H   0  0  0  0  0  0  0  0  0  0  0  0
  149.6700  142.3288  154.0960 H   0  0  0  0  0  0  0  0  0  0  0  0
  151.6342  141.5695  155.3932 H   0  0  0  0  0  0  0  0  0  0  0  0
  150.7749  142.7818  156.2493 H   0  0  0  0  0  0  0  0  0  0  0  0
  151.3080  141.0490  157.8523 H   0  0  0  0  0  0  0  0  0  0  0  0
  151.3529  138.8152  158.7133 H   0  0  0  0  0  0  0  0  0  0  0  0
  149.6020  138.8003  158.6611 H   0  0  0  0  0  0  0  0  0  0  0  0
  150.3952  136.5166  158.7071 H   0  0  0  0  0  0  0  0  0  0  0  0
  149.5347  136.8467  157.2226 H   0  0  0  0  0  0  0  0  0  0  0  0
  152.5756  136.7885  157.5669 H   0  0  0  0  0  0  0  0  0  0  0  0
  152.2829  134.6156  156.9327 H   0  0  0  0  0  0  0  0  0  0  0  0
  151.5840  133.0024  156.1007 H   0  0  0  0  0  0  0  0  0  0  0  0
  148.5894  133.8192  153.8946 H   0  0  0  0  0  0  0  0  0  0  0  0
  147.3946  131.9947  152.7387 H   0  0  0  0  0  0  0  0  0  0  0  0
  149.8548  129.0975  154.3537 H   0  0  0  0  0  0  0  0  0  0  0  0
  152.6806  137.3048  155.1699 H   0  0  0  0  0  0  0  0  0  0  0  0
  150.9370  137.3300  155.0505 H   0  0  0  0  0  0  0  0  0  0  0  0
  151.8336  139.5750  155.1758 H   0  0  0  0  0  0  0  0  0  0  0  0
  152.6462  139.2703  156.6994 H   0  0  0  0  0  0  0  0  0  0  0  0
  148.9406  140.7672  158.7330 H   0  0  0  0  0  0  0  0  0  0  0  0
  149.2706  142.3338  158.1171 H   0  0  0  0  0  0  0  0  0  0  0  0
  147.0763  141.5526  157.3164 H   0  0  0  0  0  0  0  0  0  0  0  0
  147.8079  140.1610  156.5437 H   0  0  0  0  0  0  0  0  0  0  0  0
  148.3361  142.9698  155.9241 H   0  0  0  0  0  0  0  0  0  0  0  0
  1  2  1  0  0  0  0
  1 25  1  0  0  0  0
  1 26  1  0  0  0  0
  1 27  1  0  0  0  0
  2 24  1  0  0  0  0
  2  3  1  0  0  0  0
  2 51  1  0  0  0  0
  3  4  1  0  0  0  0
  3 28  1  0  0  0  0
  3 29  1  0  0  0  0
  4  5  1  0  0  0  0
  4 30  1  0  0  0  0
  4 31  1  0  0  0  0
  5  6  1  0  0  0  0
  5 23  1  0  0  0  0
  5 32  1  0  0  0  0
  6 22  1  0  0  0  0
  6  7  1  0  0  0  0
  7  8  1  0  0  0  0
  7 33  1  0  0  0  0
  7 34  1  0  0  0  0
  8  9  1  0  0  0  0
  8 35  1  0  0  0  0
  8 36  1  0  0  0  0
  9 10  1  0  0  0  0
  9 21  1  0  0  0  0
  9 37  1  0  0  0  0
 10 11  1  0  0  0  0
 10 38  1  0  0  0  0
 11 12  2  0  0  0  0
 11 13  1  0  0  0  0
 13 14  1  0  0  0  0
 13 39  1  0  0  0  0
 14 19  1  0  0  0  0
 14 15  2  0  0  0  0
 15 16  1  0  0  0  0
 15 40  1  0  0  0  0
 16 17  2  0  0  0  0
 16 41  1  0  0  0  0
 17 18  1  0  0  0  0
 18 19  2  0  0  0  0
 18 42  1  0  0  0  0
 19 20  1  0  0  0  0
 21 22  1  0  0  0  0
 21 43  1  0  0  0  0
 21 44  1  0  0  0  0
 22 45  1  0  0  0  0
 22 46  1  0  0  0  0
 23 24  1  0  0  0  0
 23 47  1  0  0  0  0
 23 48  1  0  0  0  0
 24 49  1  0  0  0  0
 24 50  1  0  0  0  0
M  CHG  1   2   1
M  END
> <s_m_source_file>
AV-unprocessed.smi

> <i_m_source_file_index>
2253

> <i_lp_mmshare_version>
43012

> <i_f3d_flags>
0

> <s_epik_input>
W0NIM11OMVtDSDJdW0NIMl1bQ0hdKFtDSDJdW0NIMl0xKU4yW0NIMl1bQ0gyXVtDSF0oW0NIMl1bQ0gyXTIpW05IXUMoPU8pW05IXWMzW2NIXVtjSF1uW2NIXWMzRg==

> <s_epik_cmdline>
J2VwaWtfcHl0aG9uJywgJy1waCcsICc3LjAnLCAnLXRuJywgJzgnLCAnLW1hJywgJzIwMCcsICctbWV0YWxfYmluZGluZycsICctaW1hZScsICc8aW5maWxlLm1hZT4nLCAnLW9tYWUnLCAnPG91dGZpbGUubWFlPic=

> <r_epik_Ionization_Penalty>
1.01315

> <r_epik_Ionization_Penalty_Charging>
0.000974969

> <r_epik_Ionization_Penalty_Neutral>
1.01217

> <r_epik_State_Penalty>
1.10286

> <r_epik_Charging_Adjusted_Penalty>
1.10383

> <i_epik_Tot_Q>
1

> <i_epik_Tot_abs_Q>
1

> <r_epik_Metal_State_Penalty>
1.10232

> <b_epik_Metal_Only>
0

> <s_lp_Force_Field>
OPLS_2005

> <r_lp_Energy>
40.3277

> <b_lp_Chiralities_Consistent>
1

> <s_lp_Variant>
AV-unprocessed.smi:2253-6

> <Gold.Version>
5.8.1

> <Gold.Id.Protein>
6NUR|6NUR_protein|mol2

> <Gold.PLP.Fitness>
40.7047

> <Gold.PLP.PLP>
-34.8009

> <Gold.PLP.part.hbond>
-1.0000

> <Gold.PLP.part.metal>
0.0000

> <Gold.PLP.part.buried>
-5.4125

> <Gold.PLP.part.nonpolar>
-29.1420

> <Gold.PLP.part.repulsive>
0.5840

> <Gold.PLP.ligand.clash>
0.0000

> <Gold.PLP.ligand.torsion>
0.0490

> <Gold.PLP.Chemscore.Hbond>
2.0000

> <Gold.PLP.Chemscore.CHOScore>
0.0000

> <Gold.PLP.Chemscore.Metal>
0.0000

> <Gold.Chemscore.Hbonds>
donor molecule, donor type, donor heavy atom, donor atom, acceptor molecule, acceptor atom, score
      L1  H     2    51       P1  8028  2.00

> <Gold.PLP.Chemscore.Internal.Correction>
0.0018

> <Gold.Rescore>
     Score         DG    S(hbond)    S(metal)    S(lipo)     H(rot)  DE(clash)    DE(int)     intcor
     12.61     -15.31       1.00        0.00      82.83       1.24       0.37       2.33       ----

> <Gold.Chemscore.Fitness>
12.6090

> <Gold.Chemscore.DG>
-15.3095

> <Gold.Chemscore.ZeroCoef>
-5.4800

> <Gold.Chemscore.Hbond>
0.9951

> <Gold.Chemscore.Metal>
0.0000

> <Gold.Chemscore.Lipo>
82.8258

> <Gold.Chemscore.Internal_Hbond>
0.0000

> <Gold.Chemscore.DEClash>
0.3728

> <Gold.Chemscore.DEInternal>
2.3277

> <Gold.Chemscore.Rot>
1.2440

> <Gold.Chemscore.Internal.Correction>
   9.000000E+99

> <Gold.Chemscore.Hbonds>
donor molecule, donor type, donor heavy atom, donor atom, acceptor molecule, acceptor atom, score
      L1  H     2    51       P1  8028  0.89

> <Gold.Chemscore.Hbond.Weighted>
-3.3235

> <Gold.Chemscore.Metal.Weighted>
-0.0000

> <Gold.Chemscore.Lipo.Weighted>
-9.6906

> <Gold.Chemscore.Internal_Hbond.Weighted>
0.0000

> <Gold.Chemscore.DEClash.Weighted>
0.3728

> <Gold.Chemscore.DEInternal.Weighted>
2.3277

> <Gold.Chemscore.Rot.Weighted>
3.1847

> <Gold.Chemscore.Internal.Correction.Weighted>
   9.000000E+99

> <Gold.Protein.RotatedTorsions>
[ 6907 6896 6895 6894 ] final -168.90 input  -60.11 | X-H torsion
[ 7974 7965 7964 7962 ] final  177.00 input  175.53 | X-H torsion
[ 8008 7997 7996 7995 ] final   59.24 input   59.86 | X-H torsion
[ 10167 10162 10161 10158 ] final -137.47 input  -65.29 | X-H torsion
[ 10718 10713 10712 10709 ] final   71.89 input   66.30 | X-H torsion
[ 10763 10752 10751 10750 ] final  -83.46 input  -60.55 | X-H torsion
[ 11005 11000 10999 10996 ] final  174.22 input  -57.11 | X-H torsion

> <Gold.Protein.ActiveResidues>
 VAL166  LYS551  ARG553  GLY616  TRP617  ASP618  TYR619  PRO620  LYS621  CYS622 
 ASP623  PHE694  ASN695  SER759  ASP760  ASP761  ALA762  ILE779  LEU786  VAL792 
 PHE793  MET794  SER795  GLU796  ALA797  LYS798  CYS799  TRP800  GLU811  SER814 

> <Gold.Protein.RotatedAtoms>
  151.4830  133.3542  159.2841 H   0  0  0  0  0  0  0  0  0  0  0  0  # atno 6907 bound_to 6896
  150.8884  134.8287  159.7287 H   0  0  0  0  0  0  0  0  0  0  0  0  # atno 6908 bound_to 6896
  152.4808  134.4737  159.9695 H   0  0  0  0  0  0  0  0  0  0  0  0  # atno 6909 bound_to 6896
  144.7175  140.0182  143.6440 H   0  0  0  0  0  0  0  0  0  0  0  0  # atno 7974 bound_to 7965
  155.5629  140.3488  155.4496 H   0  0  0  0  0  0  0  0  0  0  0  0  # atno 8008 bound_to 7997
  156.0501  140.1315  157.0086 H   0  0  0  0  0  0  0  0  0  0  0  0  # atno 8009 bound_to 7997
  154.4430  140.1006  156.6348 H   0  0  0  0  0  0  0  0  0  0  0  0  # atno 8010 bound_to 7997
  139.8575  143.7120  152.2653 H   0  0  0  0  0  0  0  0  0  0  0  0  # atno 10167 bound_to 10162
  157.6474  130.9551  150.0851 H   0  0  0  0  0  0  0  0  0  0  0  0  # atno 10718 bound_to 10713
  154.5880  135.5555  153.7250 H   0  0  0  0  0  0  0  0  0  0  0  0  # atno 10763 bound_to 10752
  153.0106  135.6336  154.1889 H   0  0  0  0  0  0  0  0  0  0  0  0  # atno 10764 bound_to 10752
  154.1830  135.2886  155.3026 H   0  0  0  0  0  0  0  0  0  0  0  0  # atno 10765 bound_to 10752
  140.3489  134.7212  157.4254 H   0  0  0  0  0  0  0  0  0  0  0  0  # atno 11005 bound_to 11000
  146.0203  139.3245  143.0817 LP  0  0  0  0  0  0  0  0  0  0  0  0  # atno 17320 bound_to 7965
  145.8577  140.9493  143.0716 LP  0  0  0  0  0  0  0  0  0  0  0  0  # atno 17321 bound_to 7965
  139.7406  144.7560  151.0659 LP  0  0  0  0  0  0  0  0  0  0  0  0  # atno 17342 bound_to 10162
  140.7779  143.4977  150.9811 LP  0  0  0  0  0  0  0  0  0  0  0  0  # atno 17343 bound_to 10162
  156.1816  130.3650  149.9027 LP  0  0  0  0  0  0  0  0  0  0  0  0  # atno 17370 bound_to 10713
  156.6978  130.8921  151.3596 LP  0  0  0  0  0  0  0  0  0  0  0  0  # atno 17371 bound_to 10713
  140.0719  134.5851  155.8633 LP  0  0  0  0  0  0  0  0  0  0  0  0  # atno 17394 bound_to 11000
  141.2017  133.6620  156.5968 LP  0  0  0  0  0  0  0  0  0  0  0  0  # atno 17395 bound_to 11000

$$$$
