AV-unprocessed.smi:2100|AV-procd|sdf|8575|dock10
  -GOLD-   2272011303D 1   1.00000     0.00000
 Structure written by MMmdl.
 41 42  0  0  0  0  0  0  0  0  1 V2000
  149.0360  140.5739  154.7373 C   0  0  0  0  0  0  0  0  0  0  0  0
  150.0290  139.5797  155.3489 C   0  0  1  0  0  0  0  0  0  0  0  0
  149.6614  138.1230  155.0181 C   0  0  0  0  0  0  0  0  0  0  0  0
  150.6968  137.1983  155.4998 N   0  0  0  0  0  0  0  0  0  0  0  0
  150.2894  135.5153  155.5390 S   0  0  0  0  0  0  0  0  0  0  0  0
  151.3603  134.7540  154.8775 O   0  0  0  0  0  0  0  0  0  0  0  0
  149.8441  135.1830  156.9007 O   0  0  0  0  0  0  0  0  0  0  0  0
  148.9143  135.5260  154.4985 N   0  0  0  0  0  0  0  0  0  0  0  0
  148.0719  134.3332  154.3942 C   0  0  0  0  0  0  0  0  0  0  0  0
  148.6238  133.3535  153.3452 C   0  0  0  0  0  0  0  0  0  0  0  0
  147.5448  132.5450  152.6422 C   0  0  0  0  0  0  0  0  0  0  0  0
  147.4953  131.1415  152.7834 C   0  0  0  0  0  0  0  0  0  0  0  0
  146.4763  130.4339  152.1165 C   0  0  0  0  0  0  0  0  0  0  0  0
  145.5537  131.1523  151.3322 C   0  0  0  0  0  0  0  0  0  0  0  0
  145.6879  132.5526  151.2542 C   0  0  0  0  0  0  0  0  0  0  0  0
  146.6578  133.2407  151.8941 N   0  0  0  0  0  0  0  0  0  0  0  0
  152.0508  137.5626  155.0476 C   0  0  0  0  0  0  0  0  0  0  0  0
  152.3635  139.0442  155.3307 C   0  0  2  0  0  0  0  0  0  0  0  0
  152.6843  139.3252  156.8087 C   0  0  0  0  0  0  0  0  0  0  0  0
  151.3216  139.8815  154.8367 O   0  0  0  0  0  0  0  0  0  0  0  0
  148.0255  140.3965  155.1061 H   0  0  0  0  0  0  0  0  0  0  0  0
  149.0152  140.4933  153.6501 H   0  0  0  0  0  0  0  0  0  0  0  0
  149.3064  141.5995  154.9901 H   0  0  0  0  0  0  0  0  0  0  0  0
  150.0189  139.7205  156.4297 H   0  0  0  0  0  0  0  0  0  0  0  0
  148.7038  137.8738  155.4756 H   0  0  0  0  0  0  0  0  0  0  0  0
  149.5457  137.9906  153.9414 H   0  0  0  0  0  0  0  0  0  0  0  0
  149.0975  135.9794  153.6031 H   0  0  0  0  0  0  0  0  0  0  0  0
  148.0020  133.8427  155.3657 H   0  0  0  0  0  0  0  0  0  0  0  0
  147.0640  134.6460  154.1207 H   0  0  0  0  0  0  0  0  0  0  0  0
  149.1842  133.9123  152.5948 H   0  0  0  0  0  0  0  0  0  0  0  0
  149.3404  132.6726  153.8070 H   0  0  0  0  0  0  0  0  0  0  0  0
  148.2205  130.6165  153.3876 H   0  0  0  0  0  0  0  0  0  0  0  0
  146.4072  129.3596  152.2012 H   0  0  0  0  0  0  0  0  0  0  0  0
  144.7617  130.6428  150.8037 H   0  0  0  0  0  0  0  0  0  0  0  0
  144.9981  133.1359  150.6623 H   0  0  0  0  0  0  0  0  0  0  0  0
  152.7956  136.9258  155.5237 H   0  0  0  0  0  0  0  0  0  0  0  0
  152.1176  137.3724  153.9756 H   0  0  0  0  0  0  0  0  0  0  0  0
  153.2554  139.3082  154.7617 H   0  0  0  0  0  0  0  0  0  0  0  0
  153.5877  138.7966  157.1088 H   0  0  0  0  0  0  0  0  0  0  0  0
  151.8853  139.0020  157.4753 H   0  0  0  0  0  0  0  0  0  0  0  0
  152.8549  140.3886  156.9759 H   0  0  0  0  0  0  0  0  0  0  0  0
  1  2  1  0  0  0  0
  1 21  1  0  0  0  0
  1 22  1  0  0  0  0
  1 23  1  0  0  0  0
  2 20  1  0  0  0  0
  2  3  1  0  0  0  0
  2 24  1  0  0  0  0
  3  4  1  0  0  0  0
  3 25  1  0  0  0  0
  3 26  1  0  0  0  0
  4  5  1  0  0  0  0
  4 17  1  0  0  0  0
  5  6  2  0  0  0  0
  5  7  2  0  0  0  0
  5  8  1  0  0  0  0
  8  9  1  0  0  0  0
  8 27  1  0  0  0  0
  9 10  1  0  0  0  0
  9 28  1  0  0  0  0
  9 29  1  0  0  0  0
 10 11  1  0  0  0  0
 10 30  1  0  0  0  0
 10 31  1  0  0  0  0
 11 16  1  0  0  0  0
 11 12  2  0  0  0  0
 12 13  1  0  0  0  0
 12 32  1  0  0  0  0
 13 14  2  0  0  0  0
 13 33  1  0  0  0  0
 14 15  1  0  0  0  0
 14 34  1  0  0  0  0
 15 16  2  0  0  0  0
 15 35  1  0  0  0  0
 17 18  1  0  0  0  0
 17 36  1  0  0  0  0
 17 37  1  0  0  0  0
 18 19  1  0  0  0  0
 18 20  1  0  0  0  0
 18 38  1  0  0  0  0
 19 39  1  0  0  0  0
 19 40  1  0  0  0  0
 19 41  1  0  0  0  0
M  END
> <s_m_source_file>
AV-unprocessed.smi

> <i_m_source_file_index>
2100

> <i_lp_mmshare_version>
43012

> <i_f3d_flags>
0

> <s_epik_input>
W0NIM11bQ0BASF0xW0NIMl1OKFtDSDJdW0NASF0oTzEpW0NIM10pUyg9TykoPU8pW05IXVtDSDJdW0NIMl1jMltjSF1bY0hdW2NIXVtjSF1uMg==

> <s_epik_cmdline>
J2VwaWtfcHl0aG9uJywgJy1waCcsICc3LjAnLCAnLXRuJywgJzgnLCAnLW1hJywgJzIwMCcsICctbWV0YWxfYmluZGluZycsICctaW1hZScsICc8aW5maWxlLm1hZT4nLCAnLW9tYWUnLCAnPG91dGZpbGUubWFlPic=

> <r_epik_Ionization_Penalty>
0.085378

> <r_epik_Ionization_Penalty_Charging>
0

> <r_epik_Ionization_Penalty_Neutral>
0.085378

> <r_epik_State_Penalty>
0.0441186

> <r_epik_Charging_Adjusted_Penalty>
0.0441186

> <i_epik_Tot_Q>
0

> <i_epik_Tot_abs_Q>
0

> <r_epik_Metal_State_Penalty>
0.24397

> <b_epik_Metal_Only>
0

> <s_lp_Force_Field>
OPLS_2005

> <r_lp_Energy>
8.75792

> <b_lp_Chiralities_Consistent>
1

> <s_lp_Variant>
AV-unprocessed.smi:2100-3

> <Gold.Version>
5.8.1

> <Gold.Id.Protein>
6NUR|6NUR_protein|mol2

> <Gold.PLP.Fitness>
40.0994

> <Gold.PLP.PLP>
-32.3753

> <Gold.PLP.part.hbond>
-2.9646

> <Gold.PLP.part.metal>
0.0000

> <Gold.PLP.part.buried>
-2.6742

> <Gold.PLP.part.nonpolar>
-27.1535

> <Gold.PLP.part.repulsive>
0.4187

> <Gold.PLP.ligand.clash>
0.0000

> <Gold.PLP.ligand.torsion>
0.9081

> <Gold.PLP.Chemscore.Hbond>
2.9357

> <Gold.PLP.Chemscore.CHOScore>
0.0000

> <Gold.PLP.Chemscore.Metal>
0.0000

> <Gold.Chemscore.Hbonds>
donor molecule, donor type, donor heavy atom, donor atom, acceptor molecule, acceptor atom, score
      L1  H     8    27       P1  7948  1.00
      P1  H  7989  7998       L1    20  1.00
      P1  H 10752 10763       L1     6  0.62

> <Gold.PLP.Chemscore.Internal.Correction>
0.7330

> <Gold.Rescore>
     Score         DG    S(hbond)    S(metal)    S(lipo)     H(rot)  DE(clash)    DE(int)     intcor
     18.97     -20.00       2.71        0.00      84.23       1.71       0.05       0.98       ----

> <Gold.Chemscore.Fitness>
18.9681

> <Gold.Chemscore.DG>
-20.0040

> <Gold.Chemscore.ZeroCoef>
-5.4800

> <Gold.Chemscore.Hbond>
2.7054

> <Gold.Chemscore.Metal>
0.0000

> <Gold.Chemscore.Lipo>
84.2322

> <Gold.Chemscore.Internal_Hbond>
0.0000

> <Gold.Chemscore.DEClash>
0.0540

> <Gold.Chemscore.DEInternal>
0.9819

> <Gold.Chemscore.Rot>
1.7060

> <Gold.Chemscore.Internal.Correction>
   9.000000E+99

> <Gold.Chemscore.Hbonds>
donor molecule, donor type, donor heavy atom, donor atom, acceptor molecule, acceptor atom, score
      L1  H     8    27       P1  7948  0.89
      P1  H  7989  7998       L1    20  0.95
      P1  H 10752 10763       L1     6  0.60

> <Gold.Chemscore.Hbond.Weighted>
-9.0362

> <Gold.Chemscore.Metal.Weighted>
-0.0000

> <Gold.Chemscore.Lipo.Weighted>
-9.8552

> <Gold.Chemscore.Internal_Hbond.Weighted>
0.0000

> <Gold.Chemscore.DEClash.Weighted>
0.0540

> <Gold.Chemscore.DEInternal.Weighted>
0.9819

> <Gold.Chemscore.Rot.Weighted>
4.3674

> <Gold.Chemscore.Internal.Correction.Weighted>
   9.000000E+99

> <Gold.Protein.RotatedTorsions>
[ 6907 6896 6895 6894 ] final   18.84 input  -60.11 | X-H torsion
[ 7974 7965 7964 7962 ] final  170.07 input  175.53 | X-H torsion
[ 8008 7997 7996 7995 ] final  -28.41 input   59.86 | X-H torsion
[ 10167 10162 10161 10158 ] final   90.23 input  -65.29 | X-H torsion
[ 10718 10713 10712 10709 ] final -101.66 input   66.30 | X-H torsion
[ 10763 10752 10751 10750 ] final   69.71 input  -60.55 | X-H torsion
[ 11005 11000 10999 10996 ] final   -2.66 input  -57.11 | X-H torsion

> <Gold.Protein.ActiveResidues>
 VAL166  LYS551  ARG553  GLY616  TRP617  ASP618  TYR619  PRO620  LYS621  CYS622 
 ASP623  PHE694  ASN695  SER759  ASP760  ASP761  ALA762  ILE779  LEU786  VAL792 
 PHE793  MET794  SER795  GLU796  ALA797  LYS798  CYS799  TRP800  GLU811  SER814 

> <Gold.Protein.RotatedAtoms>
  151.8716  135.0487  160.0479 H   0  0  0  0  0  0  0  0  0  0  0  0  # atno 6907 bound_to 6896
  152.2584  133.5271  159.5375 H   0  0  0  0  0  0  0  0  0  0  0  0  # atno 6908 bound_to 6896
  150.7108  134.0780  159.3930 H   0  0  0  0  0  0  0  0  0  0  0  0  # atno 6909 bound_to 6896
  144.7335  139.9148  143.6417 H   0  0  0  0  0  0  0  0  0  0  0  0  # atno 7974 bound_to 7965
  154.4333  140.1846  156.1086 H   0  0  0  0  0  0  0  0  0  0  0  0  # atno 8008 bound_to 7997
  156.0236  140.3338  155.7039 H   0  0  0  0  0  0  0  0  0  0  0  0  # atno 8009 bound_to 7997
  155.5941  140.0634  157.2741 H   0  0  0  0  0  0  0  0  0  0  0  0  # atno 8010 bound_to 7997
  139.8494  144.6601  150.9188 H   0  0  0  0  0  0  0  0  0  0  0  0  # atno 10167 bound_to 10162
  156.0202  130.5384  150.6995 H   0  0  0  0  0  0  0  0  0  0  0  0  # atno 10718 bound_to 10713
  153.0302  135.5200  154.7330 H   0  0  0  0  0  0  0  0  0  0  0  0  # atno 10763 bound_to 10752
  154.6352  135.2905  155.0172 H   0  0  0  0  0  0  0  0  0  0  0  0  # atno 10764 bound_to 10752
  154.1109  135.6622  153.4937 H   0  0  0  0  0  0  0  0  0  0  0  0  # atno 10765 bound_to 10752
  140.6608  133.9322  155.8435 H   0  0  0  0  0  0  0  0  0  0  0  0  # atno 11005 bound_to 11000
  146.0974  139.3967  143.0368 LP  0  0  0  0  0  0  0  0  0  0  0  0  # atno 17320 bound_to 7965
  145.7627  140.9929  143.1191 LP  0  0  0  0  0  0  0  0  0  0  0  0  # atno 17321 bound_to 7965
  140.7789  143.3841  151.1424 LP  0  0  0  0  0  0  0  0  0  0  0  0  # atno 17342 bound_to 10162
  139.7481  143.8821  152.3069 LP  0  0  0  0  0  0  0  0  0  0  0  0  # atno 17343 bound_to 10162
  157.4658  131.0888  151.0696 LP  0  0  0  0  0  0  0  0  0  0  0  0  # atno 17370 bound_to 10713
  157.1170  130.6046  149.5496 LP  0  0  0  0  0  0  0  0  0  0  0  0  # atno 17371 bound_to 10713
  141.0466  134.0545  157.3836 LP  0  0  0  0  0  0  0  0  0  0  0  0  # atno 17394 bound_to 11000
  139.9013  135.0165  156.7283 LP  0  0  0  0  0  0  0  0  0  0  0  0  # atno 17395 bound_to 11000

$$$$
