AV-unprocessed.smi:2541|AV-procd|sdf|9989|dock4
  -GOLD-   2272014 43D 1   1.00000     0.00000
 Structure written by MMmdl.
 38 39  0  0  0  0  0  0  0  0  1 V2000
  151.3637  140.6204  155.1242 O   0  0  0  0  0  0  0  0  0  0  0  0
  150.3905  141.0480  155.7477 C   0  0  0  0  0  0  0  0  0  0  0  0
  149.2062  141.7026  155.0243 C   0  0  0  0  0  0  0  0  0  0  0  0
  148.3109  140.6892  154.3579 C   0  0  0  0  0  0  0  0  0  0  0  0
  147.0821  140.9105  153.6754 C   0  0  0  0  0  0  0  0  0  0  0  0
  146.7086  139.6599  153.2763 C   0  0  0  0  0  0  0  0  0  0  0  0
  147.6277  138.7417  153.6681 O   0  0  0  0  0  0  0  0  0  0  0  0
  148.6487  139.4083  154.3553 N   0  0  0  0  0  0  0  0  0  0  0  0
  150.2865  140.9741  157.0837 N   0  0  0  0  0  0  0  0  0  0  0  0
  151.2933  140.4138  157.9808 C   0  0  0  0  0  0  0  0  0  0  0  0
  152.6446  141.1532  157.8504 C   0  0  2  0  0  0  0  0  0  0  0  0
  153.6618  140.1942  158.0766 O   0  0  0  0  0  0  0  0  0  0  0  0
  152.8439  142.3123  158.8663 C   0  0  0  0  0  0  0  0  0  0  0  0
  152.7759  141.8396  160.3398 C   0  0  0  0  0  0  0  0  0  0  0  0
  152.9471  142.9996  161.3345 C   0  0  0  0  0  0  0  0  0  0  0  0
  151.9129  144.1056  161.0908 C   0  0  0  0  0  0  0  0  0  0  0  0
  151.9815  144.6005  159.6408 C   0  0  0  0  0  0  0  0  0  0  0  0
  151.8033  143.4402  158.6490 C   0  0  0  0  0  0  0  0  0  0  0  0
  148.6355  142.2826  155.7501 H   0  0  0  0  0  0  0  0  0  0  0  0
  149.5873  142.4147  154.2905 H   0  0  0  0  0  0  0  0  0  0  0  0
  146.5565  141.8393  153.5109 H   0  0  0  0  0  0  0  0  0  0  0  0
  145.8584  139.2781  152.7305 H   0  0  0  0  0  0  0  0  0  0  0  0
  149.4544  141.3501  157.5144 H   0  0  0  0  0  0  0  0  0  0  0  0
  150.8809  140.5396  158.9798 H   0  0  0  0  0  0  0  0  0  0  0  0
  151.4182  139.3388  157.8382 H   0  0  0  0  0  0  0  0  0  0  0  0
  152.7535  141.5420  156.8368 H   0  0  0  0  0  0  0  0  0  0  0  0
  153.2907  139.4684  158.5547 H   0  0  0  0  0  0  0  0  0  0  0  0
  153.8362  142.7361  158.7021 H   0  0  0  0  0  0  0  0  0  0  0  0
  151.8237  141.3398  160.5230 H   0  0  0  0  0  0  0  0  0  0  0  0
  153.5550  141.1091  160.5500 H   0  0  0  0  0  0  0  0  0  0  0  0
  152.8585  142.6284  162.3560 H   0  0  0  0  0  0  0  0  0  0  0  0
  153.9523  143.4130  161.2430 H   0  0  0  0  0  0  0  0  0  0  0  0
  150.9123  143.7267  161.3033 H   0  0  0  0  0  0  0  0  0  0  0  0
  152.0838  144.9351  161.7775 H   0  0  0  0  0  0  0  0  0  0  0  0
  151.2135  145.3554  159.4704 H   0  0  0  0  0  0  0  0  0  0  0  0
  152.9405  145.0890  159.4641 H   0  0  0  0  0  0  0  0  0  0  0  0
  151.8728  143.8397  157.6371 H   0  0  0  0  0  0  0  0  0  0  0  0
  150.7960  143.0333  158.7469 H   0  0  0  0  0  0  0  0  0  0  0  0
  1  2  2  0  0  0  0
  2  3  1  0  0  0  0
  2  9  1  0  0  0  0
  3  4  1  0  0  0  0
  3 19  1  0  0  0  0
  3 20  1  0  0  0  0
  4  8  2  0  0  0  0
  4  5  1  0  0  0  0
  5  6  2  0  0  0  0
  5 21  1  0  0  0  0
  6  7  1  0  0  0  0
  6 22  1  0  0  0  0
  7  8  1  0  0  0  0
  9 10  1  0  0  0  0
  9 23  1  0  0  0  0
 10 11  1  0  0  0  0
 10 24  1  0  0  0  0
 10 25  1  0  0  0  0
 11 12  1  0  0  0  0
 11 13  1  0  0  0  0
 11 26  1  0  0  0  0
 12 27  1  0  0  0  0
 13 18  1  0  0  0  0
 13 14  1  0  0  0  0
 13 28  1  0  0  0  0
 14 15  1  0  0  0  0
 14 29  1  0  0  0  0
 14 30  1  0  0  0  0
 15 16  1  0  0  0  0
 15 31  1  0  0  0  0
 15 32  1  0  0  0  0
 16 17  1  0  0  0  0
 16 33  1  0  0  0  0
 16 34  1  0  0  0  0
 17 18  1  0  0  0  0
 17 35  1  0  0  0  0
 17 36  1  0  0  0  0
 18 37  1  0  0  0  0
 18 38  1  0  0  0  0
M  END
> <s_m_source_file>
AV-unprocessed.smi

> <i_m_source_file_index>
2541

> <i_lp_mmshare_version>
43012

> <i_f3d_flags>
0

> <s_epik_input>
bjFvW2NIXVtjSF1jMVtDSDJdQyg9TylbTkhdW0NIMl1bQ0BIXShbT0hdKVtDSF0yW0NIMl1bQ0gyXVtDSDJdW0NIMl1bQ0gyXTI=

> <s_epik_cmdline>
J2VwaWtfcHl0aG9uJywgJy1waCcsICc3LjAnLCAnLXRuJywgJzgnLCAnLW1hJywgJzIwMCcsICctbWV0YWxfYmluZGluZycsICctaW1hZScsICc8aW5maWxlLm1hZT4nLCAnLW9tYWUnLCAnPG91dGZpbGUubWFlPic=

> <r_lp_tautomer_probability>
1

> <r_epik_Ionization_Penalty>
2.3322e-07

> <r_epik_Ionization_Penalty_Charging>
0

> <r_epik_Ionization_Penalty_Neutral>
2.3322e-07

> <r_epik_State_Penalty>
-0

> <r_epik_Charging_Adjusted_Penalty>
0

> <i_epik_Tot_Q>
0

> <i_epik_Tot_abs_Q>
0

> <r_epik_Metal_State_Penalty>
-0

> <b_epik_Metal_Only>
0

> <s_lp_Force_Field>
OPLS_2005

> <r_lp_Energy>
14.1188

> <b_lp_Chiralities_Consistent>
1

> <s_lp_Variant>
AV-unprocessed.smi:2541-1

> <Gold.Version>
5.8.1

> <Gold.Id.Protein>
6NUR|6NUR_protein|mol2

> <Gold.PLP.Fitness>
47.4477

> <Gold.PLP.PLP>
-40.0450

> <Gold.PLP.part.hbond>
-2.0000

> <Gold.PLP.part.metal>
0.0000

> <Gold.PLP.part.buried>
-3.4119

> <Gold.PLP.part.nonpolar>
-33.3291

> <Gold.PLP.part.repulsive>
0.3873

> <Gold.PLP.ligand.clash>
0.0000

> <Gold.PLP.ligand.torsion>
0.6853

> <Gold.PLP.Chemscore.Hbond>
1.9920

> <Gold.PLP.Chemscore.CHOScore>
0.9206

> <Gold.PLP.Chemscore.Metal>
0.0000

> <Gold.Chemscore.Hbonds>
donor molecule, donor type, donor heavy atom, donor atom, acceptor molecule, acceptor atom, score
      P1  H  7989  7998       L1     1  0.85
      P1  H  7997  8008       L1    12  0.63
      L1  C     6    22       P1 10175  0.90

> <Gold.PLP.Chemscore.Internal.Correction>
0.0354

> <Gold.Rescore>
     Score         DG    S(hbond)    S(metal)    S(lipo)     H(rot)  DE(clash)    DE(int)     intcor
     16.51     -17.68       1.69        0.00     108.99       2.42       0.42       0.76       ----

> <Gold.Chemscore.Fitness>
16.5097

> <Gold.Chemscore.DG>
-17.6844

> <Gold.Chemscore.ZeroCoef>
-5.4800

> <Gold.Chemscore.Hbond>
1.6888

> <Gold.Chemscore.Metal>
0.0000

> <Gold.Chemscore.Lipo>
108.9900

> <Gold.Chemscore.Internal_Hbond>
0.0000

> <Gold.Chemscore.DEClash>
0.4186

> <Gold.Chemscore.DEInternal>
0.7561

> <Gold.Chemscore.Rot>
2.4172

> <Gold.Chemscore.Internal.Correction>
   9.000000E+99

> <Gold.Chemscore.Hbonds>
donor molecule, donor type, donor heavy atom, donor atom, acceptor molecule, acceptor atom, score
      P1  H  7989  7998       L1     1  0.83
      P1  H  7997  8008       L1    12  0.61

> <Gold.Chemscore.Hbond.Weighted>
-5.6406

> <Gold.Chemscore.Metal.Weighted>
-0.0000

> <Gold.Chemscore.Lipo.Weighted>
-12.7518

> <Gold.Chemscore.Internal_Hbond.Weighted>
0.0000

> <Gold.Chemscore.DEClash.Weighted>
0.4186

> <Gold.Chemscore.DEInternal.Weighted>
0.7561

> <Gold.Chemscore.Rot.Weighted>
6.1880

> <Gold.Chemscore.Internal.Correction.Weighted>
   9.000000E+99

> <Gold.Protein.RotatedTorsions>
[ 6907 6896 6895 6894 ] final -162.16 input  -60.11 | X-H torsion
[ 7974 7965 7964 7962 ] final -167.45 input  175.53 | X-H torsion
[ 8008 7997 7996 7995 ] final  -95.74 input   59.86 | X-H torsion
[ 10167 10162 10161 10158 ] final    5.03 input  -65.29 | X-H torsion
[ 10718 10713 10712 10709 ] final    9.98 input   66.30 | X-H torsion
[ 10763 10752 10751 10750 ] final  -39.85 input  -60.55 | X-H torsion
[ 11005 11000 10999 10996 ] final   12.96 input  -57.11 | X-H torsion

> <Gold.Protein.ActiveResidues>
 VAL166  LYS551  ARG553  GLY616  TRP617  ASP618  TYR619  PRO620  LYS621  CYS622 
 ASP623  PHE694  ASN695  SER759  ASP760  ASP761  ALA762  ILE779  LEU786  VAL792 
 PHE793  MET794  SER795  GLU796  ALA797  LYS798  CYS799  TRP800  GLU811  SER814 

> <Gold.Protein.RotatedAtoms>
  151.3759  133.3838  159.2704 H   0  0  0  0  0  0  0  0  0  0  0  0  # atno 6907 bound_to 6896
  150.9615  134.9003  159.7744 H   0  0  0  0  0  0  0  0  0  0  0  0  # atno 6908 bound_to 6896
  152.5151  134.3718  159.9373 H   0  0  0  0  0  0  0  0  0  0  0  0  # atno 6909 bound_to 6896
  144.7223  140.2517  143.6277 H   0  0  0  0  0  0  0  0  0  0  0  0  # atno 7974 bound_to 7965
  154.7653  140.0477  157.1007 H   0  0  0  0  0  0  0  0  0  0  0  0  # atno 8008 bound_to 7997
  154.9887  140.3110  155.4896 H   0  0  0  0  0  0  0  0  0  0  0  0  # atno 8009 bound_to 7997
  156.2911  140.2222  156.4990 H   0  0  0  0  0  0  0  0  0  0  0  0  # atno 8010 bound_to 7997
  140.6503  143.7560  150.7565 H   0  0  0  0  0  0  0  0  0  0  0  0  # atno 10167 bound_to 10162
  156.9742  130.5981  149.5671 H   0  0  0  0  0  0  0  0  0  0  0  0  # atno 10718 bound_to 10713
  153.9361  135.6766  153.4745 H   0  0  0  0  0  0  0  0  0  0  0  0  # atno 10763 bound_to 10752
  153.0955  135.4853  154.8767 H   0  0  0  0  0  0  0  0  0  0  0  0  # atno 10764 bound_to 10752
  154.7402  135.3159  154.8700 H   0  0  0  0  0  0  0  0  0  0  0  0  # atno 10765 bound_to 10752
  140.4861  134.0887  155.7761 H   0  0  0  0  0  0  0  0  0  0  0  0  # atno 11005 bound_to 11000
  145.8222  139.2048  143.1931 LP  0  0  0  0  0  0  0  0  0  0  0  0  # atno 17320 bound_to 7965
  146.0504  140.8075  142.9784 LP  0  0  0  0  0  0  0  0  0  0  0  0  # atno 17321 bound_to 7965
  140.1209  143.4612  152.2313 LP  0  0  0  0  0  0  0  0  0  0  0  0  # atno 17342 bound_to 10162
  139.5718  144.7466  151.3871 LP  0  0  0  0  0  0  0  0  0  0  0  0  # atno 17343 bound_to 10162
  156.0270  130.5363  150.8433 LP  0  0  0  0  0  0  0  0  0  0  0  0  # atno 17370 bound_to 10713
  157.5571  131.0945  150.9613 LP  0  0  0  0  0  0  0  0  0  0  0  0  # atno 17371 bound_to 10713
  141.1507  133.8973  157.2104 LP  0  0  0  0  0  0  0  0  0  0  0  0  # atno 17394 bound_to 11000
  139.9797  135.0102  156.9719 LP  0  0  0  0  0  0  0  0  0  0  0  0  # atno 17395 bound_to 11000

$$$$
