AV-unprocessed.smi:2032|AV-procd|sdf|8234|dock9
  -GOLD-   2272010503D 1   1.00000     0.00000
 Structure written by MMmdl.
 42 43  0  0  0  0  0  0  0  0  1 V2000
  150.8336  142.1947  157.7292 C   0  0  0  0  0  0  0  0  0  0  0  0
  150.6626  141.7576  156.2704 C   0  0  1  0  0  0  0  0  0  0  0  0
  151.2163  140.3420  156.0194 C   0  0  0  0  0  0  0  0  0  0  0  0
  150.9940  139.8734  154.6470 N   0  0  0  0  0  0  0  0  0  0  0  0
  151.4991  138.4982  154.4235 C   0  0  1  0  0  0  0  0  0  0  0  0
  153.0312  138.3825  154.6271 C   0  0  0  0  0  0  0  0  0  0  0  0
  150.7964  137.4292  155.3102 C   0  0  0  0  0  0  0  0  0  0  0  0
  150.1035  136.3997  154.5398 N   0  0  0  0  0  0  0  0  0  0  0  0
  150.0345  135.1037  154.8774 C   0  0  0  0  0  0  0  0  0  0  0  0
  150.5499  134.6395  155.8949 O   0  0  0  0  0  0  0  0  0  0  0  0
  149.3391  134.3997  153.9672 N   0  0  0  0  0  0  0  0  0  0  0  0
  149.0642  133.0068  153.9579 C   0  0  0  0  0  0  0  0  0  0  0  0
  149.7271  132.1012  154.6867 N   0  0  0  0  0  0  0  0  0  0  0  0
  149.2466  130.8060  154.4772 C   0  0  0  0  0  0  0  0  0  0  0  0
  148.2104  130.7433  153.5791 C   0  0  0  0  0  0  0  0  0  0  0  0
  147.7928  132.3183  152.9589 S   0  0  0  0  0  0  0  0  0  0  0  0
  149.5608  139.9953  154.3572 C   0  0  0  0  0  0  0  0  0  0  0  0
  149.0114  141.4118  154.6114 C   0  0  1  0  0  0  0  0  0  0  0  0
  147.4989  141.4944  154.3803 C   0  0  0  0  0  0  0  0  0  0  0  0
  149.2757  141.7793  155.9591 O   0  0  0  0  0  0  0  0  0  0  0  0
  151.8861  142.2119  158.0130 H   0  0  0  0  0  0  0  0  0  0  0  0
  150.3145  141.5171  158.4076 H   0  0  0  0  0  0  0  0  0  0  0  0
  150.4311  143.1959  157.8853 H   0  0  0  0  0  0  0  0  0  0  0  0
  151.1817  142.4719  155.6290 H   0  0  0  0  0  0  0  0  0  0  0  0
  152.2798  140.3788  156.2448 H   0  0  0  0  0  0  0  0  0  0  0  0
  150.7653  139.6422  156.7250 H   0  0  0  0  0  0  0  0  0  0  0  0
  151.2971  138.2363  153.3838 H   0  0  0  0  0  0  0  0  0  0  0  0
  153.3900  137.3598  154.5175 H   0  0  0  0  0  0  0  0  0  0  0  0
  153.3236  138.7270  155.6195 H   0  0  0  0  0  0  0  0  0  0  0  0
  153.5910  138.9585  153.8916 H   0  0  0  0  0  0  0  0  0  0  0  0
  151.5297  136.9385  155.9509 H   0  0  0  0  0  0  0  0  0  0  0  0
  150.0546  137.8689  155.9749 H   0  0  0  0  0  0  0  0  0  0  0  0
  149.6499  136.6971  153.6885 H   0  0  0  0  0  0  0  0  0  0  0  0
  148.9739  134.9183  153.1822 H   0  0  0  0  0  0  0  0  0  0  0  0
  149.7025  129.9843  155.0095 H   0  0  0  0  0  0  0  0  0  0  0  0
  147.6697  129.8699  153.2465 H   0  0  0  0  0  0  0  0  0  0  0  0
  149.3619  139.7599  153.3133 H   0  0  0  0  0  0  0  0  0  0  0  0
  149.0020  139.2751  154.9569 H   0  0  0  0  0  0  0  0  0  0  0  0
  149.5060  142.1213  153.9458 H   0  0  0  0  0  0  0  0  0  0  0  0
  147.2437  141.2279  153.3544 H   0  0  0  0  0  0  0  0  0  0  0  0
  147.1314  142.5043  154.5624 H   0  0  0  0  0  0  0  0  0  0  0  0
  146.9604  140.8190  155.0459 H   0  0  0  0  0  0  0  0  0  0  0  0
  1  2  1  0  0  0  0
  1 21  1  0  0  0  0
  1 22  1  0  0  0  0
  1 23  1  0  0  0  0
  2 20  1  0  0  0  0
  2  3  1  0  0  0  0
  2 24  1  0  0  0  0
  3  4  1  0  0  0  0
  3 25  1  0  0  0  0
  3 26  1  0  0  0  0
  4  5  1  0  0  0  0
  4 17  1  0  0  0  0
  5  6  1  0  0  0  0
  5  7  1  0  0  0  0
  5 27  1  0  0  0  0
  6 28  1  0  0  0  0
  6 29  1  0  0  0  0
  6 30  1  0  0  0  0
  7  8  1  0  0  0  0
  7 31  1  0  0  0  0
  7 32  1  0  0  0  0
  8  9  1  0  0  0  0
  8 33  1  0  0  0  0
  9 10  2  0  0  0  0
  9 11  1  0  0  0  0
 11 12  1  0  0  0  0
 11 34  1  0  0  0  0
 12 16  1  0  0  0  0
 12 13  2  0  0  0  0
 13 14  1  0  0  0  0
 14 15  2  0  0  0  0
 14 35  1  0  0  0  0
 15 16  1  0  0  0  0
 15 36  1  0  0  0  0
 17 18  1  0  0  0  0
 17 37  1  0  0  0  0
 17 38  1  0  0  0  0
 18 19  1  0  0  0  0
 18 20  1  0  0  0  0
 18 39  1  0  0  0  0
 19 40  1  0  0  0  0
 19 41  1  0  0  0  0
 19 42  1  0  0  0  0
M  END
> <s_m_source_file>
AV-unprocessed.smi

> <i_m_source_file_index>
2032

> <i_lp_mmshare_version>
43012

> <i_f3d_flags>
0

> <s_epik_input>
W0NIM11bQ0BASF0xW0NIMl1OKFtDSDJdW0NASF0oTzEpW0NIM10pW0NASF0oW0NIM10pW0NIMl1bTkhdQyg9TylbTkhdYzJuW2NIXVtjSF1zMg==

> <s_epik_cmdline>
J2VwaWtfcHl0aG9uJywgJy1waCcsICc3LjAnLCAnLXRuJywgJzgnLCAnLW1hJywgJzIwMCcsICctbWV0YWxfYmluZGluZycsICctaW1hZScsICc8aW5maWxlLm1hZT4nLCAnLW9tYWUnLCAnPG91dGZpbGUubWFlPic=

> <r_lp_tautomer_probability>
0.999

> <r_epik_Ionization_Penalty>
0.219202

> <r_epik_Ionization_Penalty_Charging>
0

> <r_epik_Ionization_Penalty_Neutral>
0.219202

> <r_epik_State_Penalty>
0.209349

> <r_epik_Charging_Adjusted_Penalty>
0.209349

> <i_epik_Tot_Q>
0

> <i_epik_Tot_abs_Q>
0

> <r_epik_Metal_State_Penalty>
0.247737

> <b_epik_Metal_Only>
0

> <s_lp_Force_Field>
OPLS_2005

> <r_lp_Energy>
24.906

> <b_lp_Chiralities_Consistent>
1

> <s_lp_Variant>
AV-unprocessed.smi:2032-4

> <Gold.Version>
5.8.1

> <Gold.Id.Protein>
6NUR|6NUR_protein|mol2

> <Gold.PLP.Fitness>
46.8284

> <Gold.PLP.PLP>
-39.8792

> <Gold.PLP.part.hbond>
-3.1361

> <Gold.PLP.part.metal>
0.0000

> <Gold.PLP.part.buried>
-6.1763

> <Gold.PLP.part.nonpolar>
-32.9642

> <Gold.PLP.part.repulsive>
1.2505

> <Gold.PLP.ligand.clash>
0.0000

> <Gold.PLP.ligand.torsion>
0.9792

> <Gold.PLP.Chemscore.Hbond>
2.9600

> <Gold.PLP.Chemscore.CHOScore>
0.0000

> <Gold.PLP.Chemscore.Metal>
0.0000

> <Gold.Chemscore.Hbonds>
donor molecule, donor type, donor heavy atom, donor atom, acceptor molecule, acceptor atom, score
      L1  H     8    33       P1  7948  0.96
      L1  H    11    34       P1  7948  0.90
      P1  H  7989  7998       L1     4  1.00

> <Gold.PLP.Chemscore.Internal.Correction>
0.0275

> <Gold.Rescore>
     Score         DG    S(hbond)    S(metal)    S(lipo)     H(rot)  DE(clash)    DE(int)     intcor
     14.25     -16.53       1.95        0.00      73.15       1.57       0.08       2.20       ----

> <Gold.Chemscore.Fitness>
14.2510

> <Gold.Chemscore.DG>
-16.5323

> <Gold.Chemscore.ZeroCoef>
-5.4800

> <Gold.Chemscore.Hbond>
1.9539

> <Gold.Chemscore.Metal>
0.0000

> <Gold.Chemscore.Lipo>
73.1478

> <Gold.Chemscore.Internal_Hbond>
0.0000

> <Gold.Chemscore.DEClash>
0.0814

> <Gold.Chemscore.DEInternal>
2.1998

> <Gold.Chemscore.Rot>
1.5750

> <Gold.Chemscore.Internal.Correction>
   9.000000E+99

> <Gold.Chemscore.Hbonds>
donor molecule, donor type, donor heavy atom, donor atom, acceptor molecule, acceptor atom, score
      L1  H     8    33       P1  7948  0.59
      L1  H    11    34       P1  7948  0.18
      P1  H  7989  7998       L1     4  0.18

> <Gold.Chemscore.Hbond.Weighted>
-6.5259

> <Gold.Chemscore.Metal.Weighted>
-0.0000

> <Gold.Chemscore.Lipo.Weighted>
-8.5583

> <Gold.Chemscore.Internal_Hbond.Weighted>
0.0000

> <Gold.Chemscore.DEClash.Weighted>
0.0814

> <Gold.Chemscore.DEInternal.Weighted>
2.1998

> <Gold.Chemscore.Rot.Weighted>
4.0319

> <Gold.Chemscore.Internal.Correction.Weighted>
   9.000000E+99

> <Gold.Protein.RotatedTorsions>
[ 6907 6896 6895 6894 ] final  -88.24 input  -60.11 | X-H torsion
[ 7974 7965 7964 7962 ] final   67.95 input  175.53 | X-H torsion
[ 8008 7997 7996 7995 ] final  -57.81 input   59.86 | X-H torsion
[ 10167 10162 10161 10158 ] final  -88.15 input  -65.29 | X-H torsion
[ 10718 10713 10712 10709 ] final  -61.21 input   66.30 | X-H torsion
[ 10763 10752 10751 10750 ] final   -2.10 input  -60.55 | X-H torsion
[ 11005 11000 10999 10996 ] final -113.15 input  -57.11 | X-H torsion

> <Gold.Protein.ActiveResidues>
 VAL166  LYS551  ARG553  GLY616  TRP617  ASP618  TYR619  PRO620  LYS621  CYS622 
 ASP623  PHE694  ASN695  SER759  ASP760  ASP761  ALA762  ILE779  LEU786  VAL792 
 PHE793  MET794  SER795  GLU796  ALA797  LYS798  CYS799  TRP800  GLU811  SER814 

> <Gold.Protein.RotatedAtoms>
  150.6868  134.2772  159.4611 H   0  0  0  0  0  0  0  0  0  0  0  0  # atno 6907 bound_to 6896
  152.0689  134.9544  160.0584 H   0  0  0  0  0  0  0  0  0  0  0  0  # atno 6908 bound_to 6896
  152.0942  133.4181  159.4594 H   0  0  0  0  0  0  0  0  0  0  0  0  # atno 6909 bound_to 6896
  145.8084  139.3019  143.1113 H   0  0  0  0  0  0  0  0  0  0  0  0  # atno 7974 bound_to 7965
  154.4283  140.1098  156.5857 H   0  0  0  0  0  0  0  0  0  0  0  0  # atno 8008 bound_to 7997
  155.6065  140.3494  155.4590 H   0  0  0  0  0  0  0  0  0  0  0  0  # atno 8009 bound_to 7997
  156.0132  140.1223  157.0422 H   0  0  0  0  0  0  0  0  0  0  0  0  # atno 8010 bound_to 7997
  140.3775  143.2764  151.9424 H   0  0  0  0  0  0  0  0  0  0  0  0  # atno 10167 bound_to 10162
  156.0937  130.4196  150.0962 H   0  0  0  0  0  0  0  0  0  0  0  0  # atno 10718 bound_to 10713
  153.3535  135.6987  153.6769 H   0  0  0  0  0  0  0  0  0  0  0  0  # atno 10763 bound_to 10752
  153.5486  135.3558  155.2750 H   0  0  0  0  0  0  0  0  0  0  0  0  # atno 10764 bound_to 10752
  154.8657  135.4221  154.2776 H   0  0  0  0  0  0  0  0  0  0  0  0  # atno 10765 bound_to 10752
  141.0632  133.9501  157.2628 H   0  0  0  0  0  0  0  0  0  0  0  0  # atno 11005 bound_to 11000
  145.9803  140.8688  143.0118 LP  0  0  0  0  0  0  0  0  0  0  0  0  # atno 17320 bound_to 7965
  144.6760  140.2071  143.7381 LP  0  0  0  0  0  0  0  0  0  0  0  0  # atno 17321 bound_to 7965
  139.4798  144.5849  151.7870 LP  0  0  0  0  0  0  0  0  0  0  0  0  # atno 17342 bound_to 10162
  140.4971  144.1225  150.5962 LP  0  0  0  0  0  0  0  0  0  0  0  0  # atno 17343 bound_to 10162
  156.8966  130.9606  151.3581 LP  0  0  0  0  0  0  0  0  0  0  0  0  # atno 17370 bound_to 10713
  157.6093  130.8571  149.8925 LP  0  0  0  0  0  0  0  0  0  0  0  0  # atno 17371 bound_to 10713
  139.9452  135.0185  156.8830 LP  0  0  0  0  0  0  0  0  0  0  0  0  # atno 17394 bound_to 11000
  140.5826  134.0337  155.7470 LP  0  0  0  0  0  0  0  0  0  0  0  0  # atno 17395 bound_to 11000

$$$$
