AV-unprocessed.smi:1075|AV-procd|sdf|4695|dock1
  -GOLD-   22720 3213D 1   1.00000     0.00000
 Structure written by MMmdl.
 50 51  0  0  0  0  0  0  0  0  1 V2000
  152.0947  139.9759  157.3226 C   0  0  0  0  0  0  0  0  0  0  0  0
  152.4317  140.8297  158.5115 C   0  0  0  0  0  0  0  0  0  0  0  0
  153.2032  140.3345  159.4637 N   0  0  0  0  0  0  0  0  0  0  0  0
  153.3080  141.3248  160.3707 N   0  0  0  0  0  0  0  0  0  0  0  0
  154.0989  141.1088  161.5666 C   0  0  0  0  0  0  0  0  0  0  0  0
  152.5980  142.4485  159.9936 C   0  0  0  0  0  0  0  0  0  0  0  0
  152.5581  143.6769  160.8475 C   0  0  0  0  0  0  0  0  0  0  0  0
  152.0151  142.1669  158.7831 C   0  0  0  0  0  0  0  0  0  0  0  0
  151.1232  143.0276  157.9100 C   0  0  2  0  0  0  0  0  0  0  0  0
  150.9569  144.4462  158.4871 C   0  0  0  0  0  0  0  0  0  0  0  0
  149.7857  142.3090  157.6638 C   0  0  0  0  0  0  0  0  0  0  0  0
  149.0968  141.9233  158.6086 O   0  0  0  0  0  0  0  0  0  0  0  0
  149.4446  142.1365  156.3733 N   0  0  0  0  0  0  0  0  0  0  0  0
  148.2825  141.4359  155.8136 C   0  0  1  0  0  0  0  0  0  0  0  0
  146.9872  141.9638  156.4741 C   0  0  0  0  0  0  0  0  0  0  0  0
  148.2875  141.7598  154.2982 C   0  0  0  0  0  0  0  0  0  0  0  0
  147.3040  140.9094  153.4750 C   0  0  0  0  0  0  0  0  0  0  0  0
  147.5442  139.4055  153.6835 C   0  0  2  0  0  0  0  0  0  0  0  0
  146.5647  138.5582  152.8591 C   0  0  0  0  0  0  0  0  0  0  0  0
  147.4644  139.0641  155.1801 C   0  0  0  0  0  0  0  0  0  0  0  0
  148.4495  139.9039  156.0117 C   0  0  0  0  0  0  0  0  0  0  0  0
  151.0153  139.8702  157.2132 H   0  0  0  0  0  0  0  0  0  0  0  0
  152.5169  138.9740  157.4093 H   0  0  0  0  0  0  0  0  0  0  0  0
  152.4804  140.4189  156.4043 H   0  0  0  0  0  0  0  0  0  0  0  0
  153.4410  141.0503  162.4337 H   0  0  0  0  0  0  0  0  0  0  0  0
  154.7958  141.9363  161.7013 H   0  0  0  0  0  0  0  0  0  0  0  0
  154.6670  140.1807  161.4903 H   0  0  0  0  0  0  0  0  0  0  0  0
  151.7131  144.3147  160.5919 H   0  0  0  0  0  0  0  0  0  0  0  0
  153.4698  144.2611  160.7229 H   0  0  0  0  0  0  0  0  0  0  0  0
  152.4622  143.4201  161.9025 H   0  0  0  0  0  0  0  0  0  0  0  0
  151.5763  143.1476  156.9254 H   0  0  0  0  0  0  0  0  0  0  0  0
  150.4901  144.4362  159.4722 H   0  0  0  0  0  0  0  0  0  0  0  0
  150.3428  145.0697  157.8363 H   0  0  0  0  0  0  0  0  0  0  0  0
  151.9251  144.9374  158.5870 H   0  0  0  0  0  0  0  0  0  0  0  0
  150.0924  142.5044  155.6915 H   0  0  0  0  0  0  0  0  0  0  0  0
  146.0944  141.5309  156.0246 H   0  0  0  0  0  0  0  0  0  0  0  0
  146.9067  143.0467  156.3741 H   0  0  0  0  0  0  0  0  0  0  0  0
  146.9468  141.7297  157.5376 H   0  0  0  0  0  0  0  0  0  0  0  0
  148.0768  142.8182  154.1385 H   0  0  0  0  0  0  0  0  0  0  0  0
  149.2890  141.5932  153.8974 H   0  0  0  0  0  0  0  0  0  0  0  0
  146.2776  141.1634  153.7403 H   0  0  0  0  0  0  0  0  0  0  0  0
  147.4122  141.1570  152.4185 H   0  0  0  0  0  0  0  0  0  0  0  0
  148.5524  139.1733  153.3371 H   0  0  0  0  0  0  0  0  0  0  0  0
  145.5324  138.7401  153.1594 H   0  0  0  0  0  0  0  0  0  0  0  0
  146.7655  137.4938  152.9837 H   0  0  0  0  0  0  0  0  0  0  0  0
  146.6472  138.7864  151.7961 H   0  0  0  0  0  0  0  0  0  0  0  0
  146.4483  139.2212  155.5431 H   0  0  0  0  0  0  0  0  0  0  0  0
  147.6787  138.0054  155.3298 H   0  0  0  0  0  0  0  0  0  0  0  0
  149.4641  139.6132  155.7339 H   0  0  0  0  0  0  0  0  0  0  0  0
  148.3400  139.6365  157.0629 H   0  0  0  0  0  0  0  0  0  0  0  0
  1  2  1  0  0  0  0
  1 22  1  0  0  0  0
  1 23  1  0  0  0  0
  1 24  1  0  0  0  0
  2  8  1  0  0  0  0
  2  3  2  0  0  0  0
  3  4  1  0  0  0  0
  4  5  1  0  0  0  0
  4  6  1  0  0  0  0
  5 25  1  0  0  0  0
  5 26  1  0  0  0  0
  5 27  1  0  0  0  0
  6  7  1  0  0  0  0
  6  8  2  0  0  0  0
  7 28  1  0  0  0  0
  7 29  1  0  0  0  0
  7 30  1  0  0  0  0
  8  9  1  0  0  0  0
  9 10  1  0  0  0  0
  9 11  1  0  0  0  0
  9 31  1  0  0  0  0
 10 32  1  0  0  0  0
 10 33  1  0  0  0  0
 10 34  1  0  0  0  0
 11 12  2  0  0  0  0
 11 13  1  0  0  0  0
 13 14  1  0  0  0  0
 13 35  1  0  0  0  0
 14 21  1  0  0  0  0
 14 15  1  0  0  0  0
 14 16  1  0  0  0  0
 15 36  1  0  0  0  0
 15 37  1  0  0  0  0
 15 38  1  0  0  0  0
 16 17  1  0  0  0  0
 16 39  1  0  0  0  0
 16 40  1  0  0  0  0
 17 18  1  0  0  0  0
 17 41  1  0  0  0  0
 17 42  1  0  0  0  0
 18 19  1  0  0  0  0
 18 20  1  0  0  0  0
 18 43  1  0  0  0  0
 19 44  1  0  0  0  0
 19 45  1  0  0  0  0
 19 46  1  0  0  0  0
 20 21  1  0  0  0  0
 20 47  1  0  0  0  0
 20 48  1  0  0  0  0
 21 49  1  0  0  0  0
 21 50  1  0  0  0  0
M  END
> <s_m_source_file>
AV-unprocessed.smi

> <i_m_source_file_index>
1075

> <i_lp_mmshare_version>
43012

> <i_f3d_flags>
0

> <s_epik_input>
W0NIM11jMW5uKFtDSDNdKWMoW0NIM10pYzFbQ0BIXShbQ0gzXSlDKD1PKVtOSF1bQ0BAXTIoW0NIM10pW0NIMl1bQ0gyXVtDQEBIXShbQ0gzXSlbQ0gyXVtDSDJdMg==

> <s_epik_cmdline>
J2VwaWtfcHl0aG9uJywgJy1waCcsICc3LjAnLCAnLXRuJywgJzgnLCAnLW1hJywgJzIwMCcsICctbWV0YWxfYmluZGluZycsICctaW1hZScsICc8aW5maWxlLm1hZT4nLCAnLW9tYWUnLCAnPG91dGZpbGUubWFlPic=

> <r_lp_tautomer_probability>
1

> <r_epik_Ionization_Penalty>
0.00502928

> <r_epik_Ionization_Penalty_Charging>
0

> <r_epik_Ionization_Penalty_Neutral>
0.00502928

> <r_epik_State_Penalty>
0.0036576

> <r_epik_Charging_Adjusted_Penalty>
0.0036576

> <i_epik_Tot_Q>
0

> <i_epik_Tot_abs_Q>
0

> <r_epik_Metal_State_Penalty>
-0

> <b_epik_Metal_Only>
0

> <s_lp_Force_Field>
OPLS_2005

> <r_lp_Energy>
7.43589

> <b_lp_Chiralities_Consistent>
1

> <s_lp_Variant>
AV-unprocessed.smi:1075-3

> <Gold.Version>
5.8.1

> <Gold.Id.Protein>
6NUR|6NUR_protein|mol2

> <Gold.PLP.Fitness>
38.7061

> <Gold.PLP.PLP>
-40.6446

> <Gold.PLP.part.hbond>
-1.6231

> <Gold.PLP.part.metal>
0.0000

> <Gold.PLP.part.buried>
-4.8585

> <Gold.PLP.part.nonpolar>
-35.0491

> <Gold.PLP.part.repulsive>
0.1350

> <Gold.PLP.ligand.clash>
1.5160

> <Gold.PLP.ligand.torsion>
0.2771

> <Gold.PLP.Chemscore.Hbond>
0.0000

> <Gold.PLP.Chemscore.CHOScore>
0.0000

> <Gold.PLP.Chemscore.Metal>
0.0000

> <Gold.PLP.Chemscore.Internal.Correction>
0.1317

> <Gold.Rescore>
     Score         DG    S(hbond)    S(metal)    S(lipo)     H(rot)  DE(clash)    DE(int)     intcor
     15.08     -16.37       0.20        0.00     114.26       1.23       0.03       1.26       ----

> <Gold.Chemscore.Fitness>
15.0753

> <Gold.Chemscore.DG>
-16.3664

> <Gold.Chemscore.ZeroCoef>
-5.4800

> <Gold.Chemscore.Hbond>
0.2013

> <Gold.Chemscore.Metal>
0.0000

> <Gold.Chemscore.Lipo>
114.2565

> <Gold.Chemscore.Internal_Hbond>
0.0000

> <Gold.Chemscore.DEClash>
0.0343

> <Gold.Chemscore.DEInternal>
1.2568

> <Gold.Chemscore.Rot>
1.2321

> <Gold.Chemscore.Internal.Correction>
   9.000000E+99

> <Gold.Chemscore.Hbond.Weighted>
-0.6724

> <Gold.Chemscore.Metal.Weighted>
-0.0000

> <Gold.Chemscore.Lipo.Weighted>
-13.3680

> <Gold.Chemscore.Internal_Hbond.Weighted>
0.0000

> <Gold.Chemscore.DEClash.Weighted>
0.0343

> <Gold.Chemscore.DEInternal.Weighted>
1.2568

> <Gold.Chemscore.Rot.Weighted>
3.1541

> <Gold.Chemscore.Internal.Correction.Weighted>
   9.000000E+99

> <Gold.Protein.RotatedTorsions>
[ 6907 6896 6895 6894 ] final   -5.59 input  -60.11 | X-H torsion
[ 7974 7965 7964 7962 ] final  139.17 input  175.53 | X-H torsion
[ 8008 7997 7996 7995 ] final   17.63 input   59.86 | X-H torsion
[ 10167 10162 10161 10158 ] final   38.47 input  -65.29 | X-H torsion
[ 10718 10713 10712 10709 ] final  -32.90 input   66.30 | X-H torsion
[ 10763 10752 10751 10750 ] final  -55.63 input  -60.55 | X-H torsion
[ 11005 11000 10999 10996 ] final  -91.98 input  -57.11 | X-H torsion

> <Gold.Protein.ActiveResidues>
 VAL166  LYS551  ARG553  GLY616  TRP617  ASP618  TYR619  PRO620  LYS621  CYS622 
 ASP623  PHE694  ASN695  SER759  ASP760  ASP761  ALA762  ILE779  LEU786  VAL792 
 PHE793  MET794  SER795  GLU796  ALA797  LYS798  CYS799  TRP800  GLU811  SER814 

> <Gold.Protein.RotatedAtoms>
  151.4791  135.1051  159.9772 H   0  0  0  0  0  0  0  0  0  0  0  0  # atno 6907 bound_to 6896
  152.4786  133.8195  159.7057 H   0  0  0  0  0  0  0  0  0  0  0  0  # atno 6908 bound_to 6896
  150.8842  133.7269  159.2950 H   0  0  0  0  0  0  0  0  0  0  0  0  # atno 6909 bound_to 6896
  144.9304  139.5055  143.5620 H   0  0  0  0  0  0  0  0  0  0  0  0  # atno 7974 bound_to 7965
  154.8943  140.2991  155.5353 H   0  0  0  0  0  0  0  0  0  0  0  0  # atno 8008 bound_to 7997
  156.3020  140.2419  156.3897 H   0  0  0  0  0  0  0  0  0  0  0  0  # atno 8009 bound_to 7997
  154.8586  140.0406  157.1640 H   0  0  0  0  0  0  0  0  0  0  0  0  # atno 8010 bound_to 7997
  140.3933  144.1823  150.6131 H   0  0  0  0  0  0  0  0  0  0  0  0  # atno 10167 bound_to 10162
  156.3692  130.4336  149.7559 H   0  0  0  0  0  0  0  0  0  0  0  0  # atno 10718 bound_to 10713
  154.1938  135.6422  153.5067 H   0  0  0  0  0  0  0  0  0  0  0  0  # atno 10763 bound_to 10752
  153.0028  135.5435  154.6387 H   0  0  0  0  0  0  0  0  0  0  0  0  # atno 10764 bound_to 10752
  154.5783  135.2923  155.0732 H   0  0  0  0  0  0  0  0  0  0  0  0  # atno 10765 bound_to 10752
  141.1532  133.7791  156.9955 H   0  0  0  0  0  0  0  0  0  0  0  0  # atno 11005 bound_to 11000
  146.3244  139.8250  142.8919 LP  0  0  0  0  0  0  0  0  0  0  0  0  # atno 17320 bound_to 7965
  145.3152  141.0230  143.3532 LP  0  0  0  0  0  0  0  0  0  0  0  0  # atno 17321 bound_to 7965
  140.4817  143.2377  151.8946 LP  0  0  0  0  0  0  0  0  0  0  0  0  # atno 17342 bound_to 10162
  139.4788  144.5262  151.8732 LP  0  0  0  0  0  0  0  0  0  0  0  0  # atno 17343 bound_to 10162
  156.4694  130.7989  151.3007 LP  0  0  0  0  0  0  0  0  0  0  0  0  # atno 17370 bound_to 10713
  157.7482  131.0041  150.3062 LP  0  0  0  0  0  0  0  0  0  0  0  0  # atno 17371 bound_to 10713
  140.0974  134.9556  157.1871 LP  0  0  0  0  0  0  0  0  0  0  0  0  # atno 17394 bound_to 11000
  140.3364  134.2753  155.7219 LP  0  0  0  0  0  0  0  0  0  0  0  0  # atno 17395 bound_to 11000

$$$$
