AV-unprocessed.smi:3056|AV-procd|sdf|11646|dock4
  -GOLD-   2272017 43D 1   1.00000     0.00000
 Structure written by MMmdl.
 48 49  0  0  0  0  0  0  0  0  2 V2000
  147.6672  145.1832  161.4735 C   0  0  0  0  0  0  0  0  0  0  0  0
  148.9782  144.9308  160.7873 C   0  0  0  0  0  0  0  0  0  0  0  0
  150.2864  145.2221  161.2665 C   0  0  0  0  0  0  0  0  0  0  0  0
  151.2341  144.8913  160.4050 N   0  0  0  0  0  0  0  0  0  0  0  0
  150.5711  144.3636  159.3531 N   0  0  0  0  0  0  0  0  0  0  0  0
  151.3170  143.9289  158.1769 C   0  0  1  0  0  0  0  0  0  0  0  0
  152.8226  144.1789  158.3899 C   0  0  0  0  0  0  0  0  0  0  0  0
  150.9748  142.4569  157.8240 C   0  0  2  0  0  0  0  0  0  0  0  0
  152.1743  141.5093  158.0178 C   0  0  0  0  0  0  0  0  0  0  0  0
  150.4939  142.3731  156.4217 N   0  3  0  0  0  0  0  0  0  0  0  0
  149.7162  141.1609  156.0720 C   0  0  0  0  0  0  0  0  0  0  0  0
  148.8535  141.3288  154.8090 C   0  0  0  0  0  0  0  0  0  0  0  0
  149.4041  141.3149  153.7074 O   0  0  0  0  0  0  0  0  0  0  0  0
  147.5143  141.4818  154.9425 N   0  0  0  0  0  0  0  0  0  0  0  0
  146.5600  141.7305  153.8569 C   0  0  0  0  0  0  0  0  0  0  0  0
  145.9089  143.1058  154.0865 C   0  0  0  0  0  0  0  0  0  0  0  0
  145.2833  143.1342  155.3667 O   0  0  0  0  0  0  0  0  0  0  0  0
  146.1866  142.8843  156.4417 C   0  0  1  0  0  0  0  0  0  0  0  0
  145.4041  142.9723  157.7564 C   0  0  0  0  0  0  0  0  0  0  0  0
  146.8352  141.5000  156.2417 C   0  0  0  0  0  0  0  0  0  0  0  0
  149.2053  144.3837  159.5567 C   0  0  0  0  0  0  0  0  0  0  0  0
  147.7846  145.2620  162.5544 H   0  0  0  0  0  0  0  0  0  0  0  0
  146.9521  144.3821  161.2860 H   0  0  0  0  0  0  0  0  0  0  0  0
  147.2087  146.1111  161.1312 H   0  0  0  0  0  0  0  0  0  0  0  0
  150.5726  145.6706  162.2066 H   0  0  0  0  0  0  0  0  0  0  0  0
  151.0064  144.5604  157.3419 H   0  0  0  0  0  0  0  0  0  0  0  0
  153.3867  144.0487  157.4667 H   0  0  0  0  0  0  0  0  0  0  0  0
  153.2418  143.5021  159.1350 H   0  0  0  0  0  0  0  0  0  0  0  0
  153.0045  145.1997  158.7283 H   0  0  0  0  0  0  0  0  0  0  0  0
  150.1705  142.1330  158.4865 H   0  0  0  0  0  0  0  0  0  0  0  0
  152.4877  141.4651  159.0604 H   0  0  0  0  0  0  0  0  0  0  0  0
  153.0315  141.8298  157.4249 H   0  0  0  0  0  0  0  0  0  0  0  0
  151.9354  140.4874  157.7244 H   0  0  0  0  0  0  0  0  0  0  0  0
  149.8984  143.1710  156.2466 H   0  0  0  0  0  0  0  0  0  0  0  0
  150.4295  140.3575  155.8867 H   0  0  0  0  0  0  0  0  0  0  0  0
  149.0988  140.8581  156.9173 H   0  0  0  0  0  0  0  0  0  0  0  0
  147.0026  141.7069  152.8630 H   0  0  0  0  0  0  0  0  0  0  0  0
  145.7978  140.9499  153.8645 H   0  0  0  0  0  0  0  0  0  0  0  0
  146.6496  143.9041  154.0158 H   0  0  0  0  0  0  0  0  0  0  0  0
  145.1561  143.2997  153.3224 H   0  0  0  0  0  0  0  0  0  0  0  0
  146.9590  143.6556  156.4432 H   0  0  0  0  0  0  0  0  0  0  0  0
  146.0570  142.8052  158.6135 H   0  0  0  0  0  0  0  0  0  0  0  0
  144.6066  142.2295  157.7921 H   0  0  0  0  0  0  0  0  0  0  0  0
  144.9486  143.9559  157.8736 H   0  0  0  0  0  0  0  0  0  0  0  0
  146.0745  140.7179  156.2583 H   0  0  0  0  0  0  0  0  0  0  0  0
  147.5068  141.2840  157.0737 H   0  0  0  0  0  0  0  0  0  0  0  0
  148.5111  144.0206  158.8132 H   0  0  0  0  0  0  0  0  0  0  0  0
  151.2970  142.4372  155.8128 H   0  0  0  0  0  0  0  0  0  0  0  0
  1  2  1  0  0  0  0
  1 22  1  0  0  0  0
  1 23  1  0  0  0  0
  1 24  1  0  0  0  0
  2 21  2  0  0  0  0
  2  3  1  0  0  0  0
  3  4  2  0  0  0  0
  3 25  1  0  0  0  0
  4  5  1  0  0  0  0
  5  6  1  0  0  0  0
  5 21  1  0  0  0  0
  6  7  1  0  0  0  0
  6  8  1  0  0  0  0
  6 26  1  0  0  0  0
  7 27  1  0  0  0  0
  7 28  1  0  0  0  0
  7 29  1  0  0  0  0
  8  9  1  0  0  0  0
  8 10  1  0  0  0  0
  8 30  1  0  0  0  0
  9 31  1  0  0  0  0
  9 32  1  0  0  0  0
  9 33  1  0  0  0  0
 10 11  1  0  0  0  0
 10 34  1  0  0  0  0
 10 48  1  0  0  0  0
 11 12  1  0  0  0  0
 11 35  1  0  0  0  0
 11 36  1  0  0  0  0
 12 13  2  0  0  0  0
 12 14  1  0  0  0  0
 14 20  1  0  0  0  0
 14 15  1  0  0  0  0
 15 16  1  0  0  0  0
 15 37  1  0  0  0  0
 15 38  1  0  0  0  0
 16 17  1  0  0  0  0
 16 39  1  0  0  0  0
 16 40  1  0  0  0  0
 17 18  1  0  0  0  0
 18 19  1  0  0  0  0
 18 20  1  0  0  0  0
 18 41  1  0  0  0  0
 19 42  1  0  0  0  0
 19 43  1  0  0  0  0
 19 44  1  0  0  0  0
 20 45  1  0  0  0  0
 20 46  1  0  0  0  0
 21 47  1  0  0  0  0
M  CHG  1  10   1
M  END
> <s_m_source_file>
AV-unprocessed.smi

> <i_m_source_file_index>
3056

> <i_lp_mmshare_version>
43012

> <i_f3d_flags>
0

> <s_epik_input>
W0NIM11jMVtjSF1ubihbY0hdMSlbQ0BIXShbQ0gzXSlbQ0BIXShbQ0gzXSlbTkhdW0NIMl1DKD1PKU4yW0NIMl1bQ0gyXU9bQ0BASF0oW0NIM10pW0NIMl0y

> <s_epik_cmdline>
J2VwaWtfcHl0aG9uJywgJy1waCcsICc3LjAnLCAnLXRuJywgJzgnLCAnLW1hJywgJzIwMCcsICctbWV0YWxfYmluZGluZycsICctaW1hZScsICc8aW5maWxlLm1hZT4nLCAnLW9tYWUnLCAnPG91dGZpbGUubWFlPic=

> <r_lp_tautomer_probability>
1

> <r_epik_Ionization_Penalty>
0.233715

> <r_epik_Ionization_Penalty_Charging>
0.233698

> <r_epik_Ionization_Penalty_Neutral>
1.68157e-05

> <r_epik_State_Penalty>
0.225221

> <r_epik_Charging_Adjusted_Penalty>
0.458919

> <i_epik_Tot_Q>
1

> <i_epik_Tot_abs_Q>
1

> <r_epik_Metal_State_Penalty>
0.225535

> <b_epik_Metal_Only>
0

> <s_lp_Force_Field>
OPLS_2005

> <r_lp_Energy>
27.0437

> <b_lp_Chiralities_Consistent>
1

> <s_lp_Variant>
AV-unprocessed.smi:3056-2

> <Gold.Version>
5.8.1

> <Gold.Id.Protein>
6NUR|6NUR_protein|mol2

> <Gold.PLP.Fitness>
44.4160

> <Gold.PLP.PLP>
-37.1866

> <Gold.PLP.part.hbond>
-3.0000

> <Gold.PLP.part.metal>
0.0000

> <Gold.PLP.part.buried>
-2.0337

> <Gold.PLP.part.nonpolar>
-34.3297

> <Gold.PLP.part.repulsive>
2.6254

> <Gold.PLP.ligand.clash>
0.0000

> <Gold.PLP.ligand.torsion>
1.9004

> <Gold.PLP.Chemscore.Hbond>
3.0715

> <Gold.PLP.Chemscore.CHOScore>
0.5524

> <Gold.PLP.Chemscore.Metal>
0.0000

> <Gold.Chemscore.Hbonds>
donor molecule, donor type, donor heavy atom, donor atom, acceptor molecule, acceptor atom, score
      L1  H    10    34       P1  8028  2.00
      P1  H  7989  7998       L1    13  0.10
      P1  H  8011  8017       L1    13  0.86
      L1  C    21    47       P1  8029  0.57

> <Gold.PLP.Chemscore.Internal.Correction>
0.1584

> <Gold.Rescore>
     Score         DG    S(hbond)    S(metal)    S(lipo)     H(rot)  DE(clash)    DE(int)     intcor
     14.98     -19.72       2.14        0.00      98.72       1.74       3.04       1.70       ----

> <Gold.Chemscore.Fitness>
14.9774

> <Gold.Chemscore.DG>
-19.7228

> <Gold.Chemscore.ZeroCoef>
-5.4800

> <Gold.Chemscore.Hbond>
2.1364

> <Gold.Chemscore.Metal>
0.0000

> <Gold.Chemscore.Lipo>
98.7160

> <Gold.Chemscore.Internal_Hbond>
0.0000

> <Gold.Chemscore.DEClash>
3.0424

> <Gold.Chemscore.DEInternal>
1.7030

> <Gold.Chemscore.Rot>
1.7354

> <Gold.Chemscore.Internal.Correction>
   9.000000E+99

> <Gold.Chemscore.Hbonds>
donor molecule, donor type, donor heavy atom, donor atom, acceptor molecule, acceptor atom, score
      L1  H    10    34       P1  8028  0.99
      P1  H  7989  7998       L1    13  0.11
      P1  H  8011  8017       L1    13  0.85

> <Gold.Chemscore.Hbond.Weighted>
-7.1356

> <Gold.Chemscore.Metal.Weighted>
-0.0000

> <Gold.Chemscore.Lipo.Weighted>
-11.5498

> <Gold.Chemscore.Internal_Hbond.Weighted>
0.0000

> <Gold.Chemscore.DEClash.Weighted>
3.0424

> <Gold.Chemscore.DEInternal.Weighted>
1.7030

> <Gold.Chemscore.Rot.Weighted>
4.4426

> <Gold.Chemscore.Internal.Correction.Weighted>
   9.000000E+99

> <Gold.Protein.RotatedTorsions>
[ 6907 6896 6895 6894 ] final  -63.56 input  -60.11 | X-H torsion
[ 7974 7965 7964 7962 ] final    6.13 input  175.53 | X-H torsion
[ 8008 7997 7996 7995 ] final  130.39 input   59.86 | X-H torsion
[ 10167 10162 10161 10158 ] final  170.39 input  -65.29 | X-H torsion
[ 10718 10713 10712 10709 ] final  169.20 input   66.30 | X-H torsion
[ 10763 10752 10751 10750 ] final  -55.08 input  -60.55 | X-H torsion
[ 11005 11000 10999 10996 ] final   96.19 input  -57.11 | X-H torsion

> <Gold.Protein.ActiveResidues>
 VAL166  LYS551  ARG553  GLY616  TRP617  ASP618  TYR619  PRO620  LYS621  CYS622 
 ASP623  PHE694  ASN695  SER759  ASP760  ASP761  ALA762  ILE779  LEU786  VAL792 
 PHE793  MET794  SER795  GLU796  ALA797  LYS798  CYS799  TRP800  GLU811  SER814 

> <Gold.Protein.RotatedAtoms>
  150.7641  134.6419  159.6241 H   0  0  0  0  0  0  0  0  0  0  0  0  # atno 6907 bound_to 6896
  152.3664  134.6794  160.0199 H   0  0  0  0  0  0  0  0  0  0  0  0  # atno 6908 bound_to 6896
  151.7168  133.3277  159.3341 H   0  0  0  0  0  0  0  0  0  0  0  0  # atno 6909 bound_to 6896
  146.2437  140.0280  142.8392 H   0  0  0  0  0  0  0  0  0  0  0  0  # atno 7974 bound_to 7965
  156.2953  140.2597  156.2754 H   0  0  0  0  0  0  0  0  0  0  0  0  # atno 8008 bound_to 7997
  154.9654  140.0392  157.2228 H   0  0  0  0  0  0  0  0  0  0  0  0  # atno 8009 bound_to 7997
  154.7908  140.2811  155.5997 H   0  0  0  0  0  0  0  0  0  0  0  0  # atno 8010 bound_to 7997
  139.5017  144.3601  151.9833 H   0  0  0  0  0  0  0  0  0  0  0  0  # atno 10167 bound_to 10162
  157.0261  131.0246  151.2759 H   0  0  0  0  0  0  0  0  0  0  0  0  # atno 10718 bound_to 10713
  154.1850  135.6437  153.5044 H   0  0  0  0  0  0  0  0  0  0  0  0  # atno 10763 bound_to 10752
  153.0049  135.5415  154.6474 H   0  0  0  0  0  0  0  0  0  0  0  0  # atno 10764 bound_to 10752
  154.5848  135.2928  155.0668 H   0  0  0  0  0  0  0  0  0  0  0  0  # atno 10765 bound_to 10752
  139.8783  134.8938  156.4122 H   0  0  0  0  0  0  0  0  0  0  0  0  # atno 11005 bound_to 11000
  145.1180  140.9445  143.4617 LP  0  0  0  0  0  0  0  0  0  0  0  0  # atno 17320 bound_to 7965
  145.0509  139.3182  143.5929 LP  0  0  0  0  0  0  0  0  0  0  0  0  # atno 17321 bound_to 7965
  140.3038  144.3617  150.6053 LP  0  0  0  0  0  0  0  0  0  0  0  0  # atno 17342 bound_to 10162
  140.5853  143.2170  151.7354 LP  0  0  0  0  0  0  0  0  0  0  0  0  # atno 17343 bound_to 10162
  157.5213  130.8000  149.7812 LP  0  0  0  0  0  0  0  0  0  0  0  0  # atno 17370 bound_to 10713
  156.0085  130.3844  150.2345 LP  0  0  0  0  0  0  0  0  0  0  0  0  # atno 17371 bound_to 10713
  140.9192  133.7657  155.9886 LP  0  0  0  0  0  0  0  0  0  0  0  0  # atno 17394 bound_to 11000
  140.8459  134.3012  157.5295 LP  0  0  0  0  0  0  0  0  0  0  0  0  # atno 17395 bound_to 11000

$$$$
