AV-unprocessed.smi:1018|AV-procd|sdf|4441|dock3
  -GOLD-   22720 2403D 1   1.00000     0.00000
 Structure written by MMmdl.
 52 53  0  0  0  0  0  0  0  0  1 V2000
  151.4046  145.2136  158.7409 C   0  0  0  0  0  0  0  0  0  0  0  0
  152.0738  143.8971  158.3332 C   0  0  2  0  0  0  0  0  0  0  0  0
  151.1615  143.0370  157.4378 C   0  0  0  0  0  0  0  0  0  0  0  0
  151.7956  141.7552  157.1631 N   0  0  0  0  0  0  0  0  0  0  0  0
  151.0802  140.9745  156.2456 C   0  0  0  0  0  0  0  0  0  0  0  0
  151.6497  139.8301  155.6419 C   0  0  0  0  0  0  0  0  0  0  0  0
  150.8720  139.0891  154.7325 C   0  0  0  0  0  0  0  0  0  0  0  0
  149.5584  139.5115  154.4460 C   0  0  0  0  0  0  0  0  0  0  0  0
  148.7921  138.7352  153.5352 N   0  0  0  0  0  0  0  0  0  0  0  0
  147.4756  138.8087  153.2755 C   0  0  0  0  0  0  0  0  0  0  0  0
  146.6910  139.6038  153.7919 O   0  0  0  0  0  0  0  0  0  0  0  0
  147.1172  137.9116  152.3462 N   0  0  0  0  0  0  0  0  0  0  0  0
  145.7673  137.7282  151.8105 C   0  0  0  0  0  0  0  0  0  0  0  0
  145.2170  136.2820  151.9708 C   0  0  0  0  0  0  0  0  0  0  0  0
  143.6778  136.3602  152.0493 C   0  0  0  0  0  0  0  0  0  0  0  0
  145.5922  135.4258  150.7347 C   0  0  0  0  0  0  0  0  0  0  0  0
  145.7346  135.6605  153.2942 C   0  0  0  0  0  0  0  0  0  0  0  0
  147.0501  135.4829  153.4559 N   0  0  0  0  0  0  0  0  0  0  0  0
  144.9406  135.3427  154.1783 O   0  0  0  0  0  0  0  0  0  0  0  0
  149.0757  140.6615  155.1169 C   0  0  0  0  0  0  0  0  0  0  0  0
  149.8159  141.3753  155.9919 N   0  0  0  0  0  0  0  0  0  0  0  0
  152.1807  141.0485  158.3778 C   0  0  0  0  0  0  0  0  0  0  0  0
  153.0781  141.9496  159.2470 C   0  0  2  0  0  0  0  0  0  0  0  0
  153.4367  141.2903  160.5828 C   0  0  0  0  0  0  0  0  0  0  0  0
  152.3875  143.1678  159.5184 O   0  0  0  0  0  0  0  0  0  0  0  0
  151.1541  145.8138  157.8658 H   0  0  0  0  0  0  0  0  0  0  0  0
  152.0659  145.8073  159.3725 H   0  0  0  0  0  0  0  0  0  0  0  0
  150.4851  145.0332  159.2981 H   0  0  0  0  0  0  0  0  0  0  0  0
  152.9987  144.1274  157.8013 H   0  0  0  0  0  0  0  0  0  0  0  0
  150.2016  142.8718  157.9292 H   0  0  0  0  0  0  0  0  0  0  0  0
  150.9592  143.5557  156.4997 H   0  0  0  0  0  0  0  0  0  0  0  0
  152.6584  139.5196  155.8711 H   0  0  0  0  0  0  0  0  0  0  0  0
  151.2834  138.2093  154.2597 H   0  0  0  0  0  0  0  0  0  0  0  0
  149.3193  138.0850  152.9710 H   0  0  0  0  0  0  0  0  0  0  0  0
  147.8332  137.3038  151.9755 H   0  0  0  0  0  0  0  0  0  0  0  0
  145.1193  138.4340  152.3318 H   0  0  0  0  0  0  0  0  0  0  0  0
  145.7309  138.0285  150.7618 H   0  0  0  0  0  0  0  0  0  0  0  0
  143.2568  136.7790  151.1345 H   0  0  0  0  0  0  0  0  0  0  0  0
  143.3440  136.9903  152.8750 H   0  0  0  0  0  0  0  0  0  0  0  0
  143.2328  135.3740  152.1893 H   0  0  0  0  0  0  0  0  0  0  0  0
  145.2514  135.9006  149.8142 H   0  0  0  0  0  0  0  0  0  0  0  0
  145.1316  134.4378  150.7743 H   0  0  0  0  0  0  0  0  0  0  0  0
  146.6690  135.2828  150.6401 H   0  0  0  0  0  0  0  0  0  0  0  0
  147.4020  135.0828  154.3135 H   0  0  0  0  0  0  0  0  0  0  0  0
  147.6868  135.7533  152.7205 H   0  0  0  0  0  0  0  0  0  0  0  0
  148.0687  141.0234  154.9807 H   0  0  0  0  0  0  0  0  0  0  0  0
  151.2903  140.7618  158.9389 H   0  0  0  0  0  0  0  0  0  0  0  0
  152.7091  140.1308  158.1164 H   0  0  0  0  0  0  0  0  0  0  0  0
  154.0025  142.1743  158.7116 H   0  0  0  0  0  0  0  0  0  0  0  0
  153.9769  140.3565  160.4261 H   0  0  0  0  0  0  0  0  0  0  0  0
  152.5425  141.0672  161.1653 H   0  0  0  0  0  0  0  0  0  0  0  0
  154.0703  141.9445  161.1822 H   0  0  0  0  0  0  0  0  0  0  0  0
  1  2  1  0  0  0  0
  1 26  1  0  0  0  0
  1 27  1  0  0  0  0
  1 28  1  0  0  0  0
  2 25  1  0  0  0  0
  2  3  1  0  0  0  0
  2 29  1  0  0  0  0
  3  4  1  0  0  0  0
  3 30  1  0  0  0  0
  3 31  1  0  0  0  0
  4  5  1  0  0  0  0
  4 22  1  0  0  0  0
  5 21  1  0  0  0  0
  5  6  2  0  0  0  0
  6  7  1  0  0  0  0
  6 32  1  0  0  0  0
  7  8  2  0  0  0  0
  7 33  1  0  0  0  0
  8  9  1  0  0  0  0
  8 20  1  0  0  0  0
  9 10  1  0  0  0  0
  9 34  1  0  0  0  0
 10 11  2  0  0  0  0
 10 12  1  0  0  0  0
 12 13  1  0  0  0  0
 12 35  1  0  0  0  0
 13 14  1  0  0  0  0
 13 36  1  0  0  0  0
 13 37  1  0  0  0  0
 14 15  1  0  0  0  0
 14 16  1  0  0  0  0
 14 17  1  0  0  0  0
 15 38  1  0  0  0  0
 15 39  1  0  0  0  0
 15 40  1  0  0  0  0
 16 41  1  0  0  0  0
 16 42  1  0  0  0  0
 16 43  1  0  0  0  0
 17 18  1  0  0  0  0
 17 19  2  0  0  0  0
 18 44  1  0  0  0  0
 18 45  1  0  0  0  0
 20 21  2  0  0  0  0
 20 46  1  0  0  0  0
 22 23  1  0  0  0  0
 22 47  1  0  0  0  0
 22 48  1  0  0  0  0
 23 24  1  0  0  0  0
 23 25  1  0  0  0  0
 23 49  1  0  0  0  0
 24 50  1  0  0  0  0
 24 51  1  0  0  0  0
 24 52  1  0  0  0  0
M  END
> <s_m_source_file>
AV-unprocessed.smi

> <i_m_source_file_index>
1018

> <i_lp_mmshare_version>
43012

> <i_f3d_flags>
0

> <s_epik_input>
W0NIM11bQ0BASF0xW0NIMl1OKFtDSDJdW0NASF0oTzEpW0NIM10pYzJbY0hdW2NIXWMoW2NIXW4yKVtOSF1DKD1PKVtOSF1bQ0gyXUMoW0NIM10pKFtDSDNdKUMoPU8pW05IMl0=

> <s_epik_cmdline>
J2VwaWtfcHl0aG9uJywgJy1waCcsICc3LjAnLCAnLXRuJywgJzgnLCAnLW1hJywgJzIwMCcsICctbWV0YWxfYmluZGluZycsICctaW1hZScsICc8aW5maWxlLm1hZT4nLCAnLW9tYWUnLCAnPG91dGZpbGUubWFlPic=

> <r_lp_tautomer_probability>
1

> <r_epik_Ionization_Penalty>
0.002562

> <r_epik_Ionization_Penalty_Charging>
0

> <r_epik_Ionization_Penalty_Neutral>
0.002562

> <r_epik_State_Penalty>
0.00175377

> <r_epik_Charging_Adjusted_Penalty>
0.00175377

> <i_epik_Tot_Q>
0

> <i_epik_Tot_abs_Q>
0

> <r_epik_Metal_State_Penalty>
-0

> <b_epik_Metal_Only>
0

> <s_lp_Force_Field>
OPLS_2005

> <r_lp_Energy>
23.1449

> <b_lp_Chiralities_Consistent>
1

> <s_lp_Variant>
AV-unprocessed.smi:1018-2

> <Gold.Version>
5.8.1

> <Gold.Id.Protein>
6NUR|6NUR_protein|mol2

> <Gold.PLP.Fitness>
53.1778

> <Gold.PLP.PLP>
-46.8794

> <Gold.PLP.part.hbond>
-4.0000

> <Gold.PLP.part.metal>
0.0000

> <Gold.PLP.part.buried>
-1.8718

> <Gold.PLP.part.nonpolar>
-41.7555

> <Gold.PLP.part.repulsive>
0.4441

> <Gold.PLP.ligand.clash>
0.0000

> <Gold.PLP.ligand.torsion>
0.7048

> <Gold.PLP.Chemscore.Hbond>
2.5200

> <Gold.PLP.Chemscore.CHOScore>
0.0000

> <Gold.PLP.Chemscore.Metal>
0.0000

> <Gold.Chemscore.Hbonds>
donor molecule, donor type, donor heavy atom, donor atom, acceptor molecule, acceptor atom, score
      L1  H     9    34       P1  7948  0.54
      L1  H    12    35       P1  7948  1.00
      L1  H    18    45       P1  7948  1.00

> <Gold.PLP.Chemscore.Internal.Correction>
0.1480

> <Gold.Rescore>
     Score         DG    S(hbond)    S(metal)    S(lipo)     H(rot)  DE(clash)    DE(int)     intcor
     17.63     -21.61       2.76        0.00     104.83       2.09       0.73       3.25       ----

> <Gold.Chemscore.Fitness>
17.6331

> <Gold.Chemscore.DG>
-21.6112

> <Gold.Chemscore.ZeroCoef>
-5.4800

> <Gold.Chemscore.Hbond>
2.7631

> <Gold.Chemscore.Metal>
0.0000

> <Gold.Chemscore.Lipo>
104.8273

> <Gold.Chemscore.Internal_Hbond>
0.0000

> <Gold.Chemscore.DEClash>
0.7306

> <Gold.Chemscore.DEInternal>
3.2475

> <Gold.Chemscore.Rot>
2.0947

> <Gold.Chemscore.Internal.Correction>
   9.000000E+99

> <Gold.Chemscore.Hbonds>
donor molecule, donor type, donor heavy atom, donor atom, acceptor molecule, acceptor atom, score
      L1  H     9    34       P1  7948  0.51
      L1  H    12    35       P1  7948  0.93
      L1  H    18    45       P1  7948  0.98

> <Gold.Chemscore.Hbond.Weighted>
-9.2288

> <Gold.Chemscore.Metal.Weighted>
-0.0000

> <Gold.Chemscore.Lipo.Weighted>
-12.2648

> <Gold.Chemscore.Internal_Hbond.Weighted>
0.0000

> <Gold.Chemscore.DEClash.Weighted>
0.7306

> <Gold.Chemscore.DEInternal.Weighted>
3.2475

> <Gold.Chemscore.Rot.Weighted>
5.3624

> <Gold.Chemscore.Internal.Correction.Weighted>
   9.000000E+99

> <Gold.Protein.RotatedTorsions>
[ 6907 6896 6895 6894 ] final -168.75 input  -60.11 | X-H torsion
[ 7974 7965 7964 7962 ] final  -46.73 input  175.53 | X-H torsion
[ 8008 7997 7996 7995 ] final   57.04 input   59.86 | X-H torsion
[ 10167 10162 10161 10158 ] final   52.42 input  -65.29 | X-H torsion
[ 10718 10713 10712 10709 ] final   98.67 input   66.30 | X-H torsion
[ 10763 10752 10751 10750 ] final   36.32 input  -60.55 | X-H torsion
[ 11005 11000 10999 10996 ] final -178.72 input  -57.11 | X-H torsion

> <Gold.Protein.ActiveResidues>
 VAL166  LYS551  ARG553  GLY616  TRP617  ASP618  TYR619  PRO620  LYS621  CYS622 
 ASP623  PHE694  ASN695  SER759  ASP760  ASP761  ALA762  ILE779  LEU786  VAL792 
 PHE793  MET794  SER795  GLU796  ALA797  LYS798  CYS799  TRP800  GLU811  SER814 

> <Gold.Protein.RotatedAtoms>
  151.4806  133.3547  159.2837 H   0  0  0  0  0  0  0  0  0  0  0  0  # atno 6907 bound_to 6896
  150.8900  134.8304  159.7297 H   0  0  0  0  0  0  0  0  0  0  0  0  # atno 6908 bound_to 6896
  152.4817  134.4714  159.9688 H   0  0  0  0  0  0  0  0  0  0  0  0  # atno 6909 bound_to 6896
  145.9689  140.7403  142.9420 H   0  0  0  0  0  0  0  0  0  0  0  0  # atno 7974 bound_to 7965
  155.5273  140.3481  155.4419 H   0  0  0  0  0  0  0  0  0  0  0  0  # atno 8008 bound_to 7997
  156.0742  140.1370  156.9818 H   0  0  0  0  0  0  0  0  0  0  0  0  # atno 8009 bound_to 7997
  154.4544  140.0959  156.6690 H   0  0  0  0  0  0  0  0  0  0  0  0  # atno 8010 bound_to 7997
  140.2515  144.3474  150.6346 H   0  0  0  0  0  0  0  0  0  0  0  0  # atno 10167 bound_to 10162
  157.6891  131.0647  150.4831 H   0  0  0  0  0  0  0  0  0  0  0  0  # atno 10718 bound_to 10713
  153.0082  135.6309  154.1966 H   0  0  0  0  0  0  0  0  0  0  0  0  # atno 10763 bound_to 10752
  154.1709  135.2818  155.3083 H   0  0  0  0  0  0  0  0  0  0  0  0  # atno 10764 bound_to 10752
  154.5909  135.5618  153.7337 H   0  0  0  0  0  0  0  0  0  0  0  0  # atno 10765 bound_to 10752
  140.4266  134.6557  157.4691 H   0  0  0  0  0  0  0  0  0  0  0  0  # atno 11005 bound_to 11000
  144.6832  140.2716  143.7305 LP  0  0  0  0  0  0  0  0  0  0  0  0  # atno 17320 bound_to 7965
  145.7934  139.1936  143.2090 LP  0  0  0  0  0  0  0  0  0  0  0  0  # atno 17321 bound_to 7965
  140.6037  143.2167  151.7023 LP  0  0  0  0  0  0  0  0  0  0  0  0  # atno 17342 bound_to 10162
  139.5045  144.3753  152.0430 LP  0  0  0  0  0  0  0  0  0  0  0  0  # atno 17343 bound_to 10162
  156.5162  130.4151  149.6275 LP  0  0  0  0  0  0  0  0  0  0  0  0  # atno 17370 bound_to 10713
  156.3196  130.7273  151.2182 LP  0  0  0  0  0  0  0  0  0  0  0  0  # atno 17371 bound_to 10713
  140.0163  134.6614  155.9305 LP  0  0  0  0  0  0  0  0  0  0  0  0  # atno 17394 bound_to 11000
  141.1762  133.6541  156.4840 LP  0  0  0  0  0  0  0  0  0  0  0  0  # atno 17395 bound_to 11000

$$$$
