AV-unprocessed.smi:771|AV-procd|sdf|3682|dock7
  -GOLD-   22720 1 93D 1   1.00000     0.00000
 Structure written by MMmdl.
 41 42  0  0  0  0  0  0  0  0  3 V2000
  147.8973  134.3127  156.2885 O   0  0  0  0  0  0  0  0  0  0  0  0
  148.2731  134.4594  155.1248 C   0  0  0  0  0  0  0  0  0  0  0  0
  149.7674  134.4284  154.7768 C   0  0  0  0  0  0  0  0  0  0  0  0
  150.5581  135.3855  155.5691 N   0  0  0  0  0  0  0  0  0  0  0  0
  150.7426  136.6726  155.0266 C   0  0  0  0  0  0  0  0  0  0  0  0
  151.4451  137.6262  155.6692 C   0  0  0  0  0  0  0  0  0  0  0  0
  151.6228  138.9435  155.0987 N   0  3  0  0  0  0  0  0  0  0  0  0
  150.6993  139.4370  154.4592 O   0  0  0  0  0  0  0  0  0  0  0  0
  152.6880  139.5287  155.2712 O   0  5  0  0  0  0  0  0  0  0  0  0
  152.0175  137.2891  156.9583 C   0  0  0  0  0  0  0  0  0  0  0  0
  151.8422  136.0606  157.4838 C   0  0  0  0  0  0  0  0  0  0  0  0
  151.0768  135.0246  156.7832 C   0  0  0  0  0  0  0  0  0  0  0  0
  150.9112  133.9007  157.2585 O   0  0  0  0  0  0  0  0  0  0  0  0
  147.4323  134.6596  154.0991 N   0  0  0  0  0  0  0  0  0  0  0  0
  145.9762  134.6709  154.1970 C   0  0  0  0  0  0  0  0  0  0  0  0
  145.2935  133.9288  153.0238 C   0  0  1  0  0  0  0  0  0  0  0  0
  145.3299  134.7686  151.7302 C   0  0  0  0  0  0  0  0  0  0  0  0
  144.5882  134.0700  150.5795 C   0  0  0  0  0  0  0  0  0  0  0  0
  145.1547  132.6659  150.3221 C   0  0  0  0  0  0  0  0  0  0  0  0
  145.1278  131.8107  151.6006 C   0  0  0  0  0  0  0  0  0  0  0  0
  145.8446  132.4993  152.7782 C   0  0  1  0  0  0  0  0  0  0  0  0
  147.2370  132.5268  152.5246 O   0  0  0  0  0  0  0  0  0  0  0  0
  150.1591  133.4191  154.9197 H   0  0  0  0  0  0  0  0  0  0  0  0
  149.8706  134.6262  153.7091 H   0  0  0  0  0  0  0  0  0  0  0  0
  150.2717  136.8269  154.0664 H   0  0  0  0  0  0  0  0  0  0  0  0
  152.5892  138.0189  157.5125 H   0  0  0  0  0  0  0  0  0  0  0  0
  152.2759  135.8314  158.4461 H   0  0  0  0  0  0  0  0  0  0  0  0
  147.8285  134.7826  153.1783 H   0  0  0  0  0  0  0  0  0  0  0  0
  145.6728  134.2320  155.1487 H   0  0  0  0  0  0  0  0  0  0  0  0
  145.6487  135.7104  154.2263 H   0  0  0  0  0  0  0  0  0  0  0  0
  144.2408  133.8167  153.2885 H   0  0  0  0  0  0  0  0  0  0  0  0
  144.8801  135.7458  151.9088 H   0  0  0  0  0  0  0  0  0  0  0  0
  146.3637  134.9568  151.4374 H   0  0  0  0  0  0  0  0  0  0  0  0
  143.5265  133.9978  150.8192 H   0  0  0  0  0  0  0  0  0  0  0  0
  144.6596  134.6711  149.6725 H   0  0  0  0  0  0  0  0  0  0  0  0
  144.5834  132.1736  149.5347 H   0  0  0  0  0  0  0  0  0  0  0  0
  146.1782  132.7472  149.9540 H   0  0  0  0  0  0  0  0  0  0  0  0
  144.0900  131.6221  151.8782 H   0  0  0  0  0  0  0  0  0  0  0  0
  145.5714  130.8334  151.4070 H   0  0  0  0  0  0  0  0  0  0  0  0
  145.6936  131.8897  153.6698 H   0  0  0  0  0  0  0  0  0  0  0  0
  147.5720  133.3729  152.7782 H   0  0  0  0  0  0  0  0  0  0  0  0
  1  2  2  0  0  0  0
  2  3  1  0  0  0  0
  2 14  1  0  0  0  0
  3  4  1  0  0  0  0
  3 23  1  0  0  0  0
  3 24  1  0  0  0  0
  4 12  1  0  0  0  0
  4  5  1  0  0  0  0
  5  6  2  0  0  0  0
  5 25  1  0  0  0  0
  6  7  1  0  0  0  0
  6 10  1  0  0  0  0
  7  8  2  0  0  0  0
  7  9  1  0  0  0  0
 10 11  2  0  0  0  0
 10 26  1  0  0  0  0
 11 12  1  0  0  0  0
 11 27  1  0  0  0  0
 12 13  2  0  0  0  0
 14 15  1  0  0  0  0
 14 28  1  0  0  0  0
 15 16  1  0  0  0  0
 15 29  1  0  0  0  0
 15 30  1  0  0  0  0
 16 21  1  0  0  0  0
 16 17  1  0  0  0  0
 16 31  1  0  0  0  0
 17 18  1  0  0  0  0
 17 32  1  0  0  0  0
 17 33  1  0  0  0  0
 18 19  1  0  0  0  0
 18 34  1  0  0  0  0
 18 35  1  0  0  0  0
 19 20  1  0  0  0  0
 19 36  1  0  0  0  0
 19 37  1  0  0  0  0
 20 21  1  0  0  0  0
 20 38  1  0  0  0  0
 20 39  1  0  0  0  0
 21 22  1  0  0  0  0
 21 40  1  0  0  0  0
 22 41  1  0  0  0  0
M  CHG  1   7   1
M  CHG  1   9  -1
M  END
> <s_m_source_file>
AV-unprocessed.smi

> <i_m_source_file_index>
771

> <i_lp_mmshare_version>
43012

> <i_f3d_flags>
0

> <s_epik_input>
Tz1jMVtjSF1bY0hdYyhbTitdKD1PKVtPLV0pW2NIXW4xW0NIMl1DKD1PKVtOSF1bQ0gyXVtDQEBIXTJbQ0gyXVtDSDJdW0NIMl1bQ0gyXVtDQEhdMltPSF0=

> <s_epik_cmdline>
J2VwaWtfcHl0aG9uJywgJy1waCcsICc3LjAnLCAnLXRuJywgJzgnLCAnLW1hJywgJzIwMCcsICctbWV0YWxfYmluZGluZycsICctaW1hZScsICc8aW5maWxlLm1hZT4nLCAnLW9tYWUnLCAnPG91dGZpbGUubWFlPic=

> <r_lp_tautomer_probability>
1

> <r_epik_Ionization_Penalty>
3.77175e-07

> <r_epik_Ionization_Penalty_Charging>
7.70067e-11

> <r_epik_Ionization_Penalty_Neutral>
3.77098e-07

> <r_epik_State_Penalty>
-0

> <r_epik_Charging_Adjusted_Penalty>
7.70067e-11

> <i_epik_Tot_Q>
0

> <i_epik_Tot_abs_Q>
2

> <r_epik_Metal_State_Penalty>
-0

> <b_epik_Metal_Only>
0

> <s_lp_Force_Field>
OPLS_2005

> <r_lp_Energy>
25.2575

> <b_lp_Chiralities_Consistent>
1

> <s_lp_Variant>
AV-unprocessed.smi:771-2

> <Gold.Version>
5.8.1

> <Gold.Id.Protein>
6NUR|6NUR_protein|mol2

> <Gold.PLP.Fitness>
42.6270

> <Gold.PLP.PLP>
-32.6850

> <Gold.PLP.part.hbond>
-5.2761

> <Gold.PLP.part.metal>
0.0000

> <Gold.PLP.part.buried>
-4.0216

> <Gold.PLP.part.nonpolar>
-23.4393

> <Gold.PLP.part.repulsive>
0.1881

> <Gold.PLP.ligand.clash>
0.0000

> <Gold.PLP.ligand.torsion>
1.1258

> <Gold.PLP.Chemscore.Hbond>
3.0143

> <Gold.PLP.Chemscore.CHOScore>
1.0342

> <Gold.PLP.Chemscore.Metal>
0.0000

> <Gold.Chemscore.Hbonds>
donor molecule, donor type, donor heavy atom, donor atom, acceptor molecule, acceptor atom, score
      L1  H    14    28       P1  7948  0.45
      P1  H  6896  6909       L1    13  0.58
      P1  H  7989  7998       L1     8  1.00
      P1  H  7997  8009       L1     9  1.00
      L1  C     5    25       P1  7948  0.79
      L1  C     5    25       P1  7949  0.07

> <Gold.PLP.Chemscore.Internal.Correction>
0.0482

> <Gold.Rescore>
     Score         DG    S(hbond)    S(metal)    S(lipo)     H(rot)  DE(clash)    DE(int)     intcor
     14.88     -17.36       3.27        0.00      62.33       2.48       0.00       2.47       ----

> <Gold.Chemscore.Fitness>
14.8843

> <Gold.Chemscore.DG>
-17.3569

> <Gold.Chemscore.ZeroCoef>
-5.4800

> <Gold.Chemscore.Hbond>
3.2700

> <Gold.Chemscore.Metal>
0.0000

> <Gold.Chemscore.Lipo>
62.3257

> <Gold.Chemscore.Internal_Hbond>
0.0000

> <Gold.Chemscore.DEClash>
0.0044

> <Gold.Chemscore.DEInternal>
2.4683

> <Gold.Chemscore.Rot>
2.4753

> <Gold.Chemscore.Internal.Correction>
   9.000000E+99

> <Gold.Chemscore.Hbonds>
donor molecule, donor type, donor heavy atom, donor atom, acceptor molecule, acceptor atom, score
      L1  H    14    28       P1  7948  0.42
      P1  H  6896  6909       L1    13  0.56
      P1  H  7989  7998       L1     8  0.30
      P1  H  7997  8009       L1     9  0.98

> <Gold.Chemscore.Hbond.Weighted>
-10.9217

> <Gold.Chemscore.Metal.Weighted>
-0.0000

> <Gold.Chemscore.Lipo.Weighted>
-7.2921

> <Gold.Chemscore.Internal_Hbond.Weighted>
0.0000

> <Gold.Chemscore.DEClash.Weighted>
0.0044

> <Gold.Chemscore.DEInternal.Weighted>
2.4683

> <Gold.Chemscore.Rot.Weighted>
6.3369

> <Gold.Chemscore.Internal.Correction.Weighted>
   9.000000E+99

> <Gold.Protein.RotatedTorsions>
[ 6907 6896 6895 6894 ] final  -20.21 input  -60.11 | X-H torsion
[ 7974 7965 7964 7962 ] final -134.67 input  175.53 | X-H torsion
[ 8008 7997 7996 7995 ] final -140.74 input   59.86 | X-H torsion
[ 10167 10162 10161 10158 ] final -173.64 input  -65.29 | X-H torsion
[ 10718 10713 10712 10709 ] final  -19.50 input   66.30 | X-H torsion
[ 10763 10752 10751 10750 ] final    6.74 input  -60.55 | X-H torsion
[ 11005 11000 10999 10996 ] final -120.97 input  -57.11 | X-H torsion

> <Gold.Protein.ActiveResidues>
 VAL166  LYS551  ARG553  GLY616  TRP617  ASP618  TYR619  PRO620  LYS621  CYS622 
 ASP623  PHE694  ASN695  SER759  ASP760  ASP761  ALA762  ILE779  LEU786  VAL792 
 PHE793  MET794  SER795  GLU796  ALA797  LYS798  CYS799  TRP800  GLU811  SER814 

> <Gold.Protein.RotatedAtoms>
  151.2515  135.0623  159.9063 H   0  0  0  0  0  0  0  0  0  0  0  0  # atno 6907 bound_to 6896
  152.5379  134.0327  159.8042 H   0  0  0  0  0  0  0  0  0  0  0  0  # atno 6908 bound_to 6896
  151.0536  133.5554  159.2671 H   0  0  0  0  0  0  0  0  0  0  0  0  # atno 6909 bound_to 6896
  144.9082  140.6861  143.5042 H   0  0  0  0  0  0  0  0  0  0  0  0  # atno 7974 bound_to 7965
  155.4664  140.0549  157.2985 H   0  0  0  0  0  0  0  0  0  0  0  0  # atno 8008 bound_to 7997
  154.4716  140.2043  155.9934 H   0  0  0  0  0  0  0  0  0  0  0  0  # atno 8009 bound_to 7997
  156.1065  140.3211  155.8018 H   0  0  0  0  0  0  0  0  0  0  0  0  # atno 8010 bound_to 7997
  139.5677  144.1715  152.1338 H   0  0  0  0  0  0  0  0  0  0  0  0  # atno 10167 bound_to 10162
  156.5448  130.4687  149.6481 H   0  0  0  0  0  0  0  0  0  0  0  0  # atno 10718 bound_to 10713
  153.2443  135.6907  153.7749 H   0  0  0  0  0  0  0  0  0  0  0  0  # atno 10763 bound_to 10752
  153.6867  135.3319  155.3193 H   0  0  0  0  0  0  0  0  0  0  0  0  # atno 10764 bound_to 10752
  154.8368  135.4535  154.1376 H   0  0  0  0  0  0  0  0  0  0  0  0  # atno 10765 bound_to 10752
  141.0105  134.0272  157.3420 H   0  0  0  0  0  0  0  0  0  0  0  0  # atno 11005 bound_to 11000
  145.3499  139.1709  143.4440 LP  0  0  0  0  0  0  0  0  0  0  0  0  # atno 17320 bound_to 7965
  146.3145  140.3550  142.8659 LP  0  0  0  0  0  0  0  0  0  0  0  0  # atno 17321 bound_to 7965
  140.1241  144.5347  150.6844 LP  0  0  0  0  0  0  0  0  0  0  0  0  # atno 17342 bound_to 10162
  140.6961  143.2405  151.4996 LP  0  0  0  0  0  0  0  0  0  0  0  0  # atno 17343 bound_to 10162
  156.2938  130.7139  151.1994 LP  0  0  0  0  0  0  0  0  0  0  0  0  # atno 17370 bound_to 10713
  157.7398  131.0524  150.5204 LP  0  0  0  0  0  0  0  0  0  0  0  0  # atno 17371 bound_to 10713
  139.9087  135.0185  156.7598 LP  0  0  0  0  0  0  0  0  0  0  0  0  # atno 17394 bound_to 11000
  140.6742  133.9532  155.7873 LP  0  0  0  0  0  0  0  0  0  0  0  0  # atno 17395 bound_to 11000

$$$$
