AV-unprocessed.smi:1683|AV-procd|sdf|6749|dock5
  -GOLD-   22720 7503D 1   1.00000     0.00000
 Structure written by MMmdl.
 37 38  0  0  0  0  0  0  0  0  2 V2000
  144.4979  136.6012  151.4265 O   0  0  0  0  0  0  0  0  0  0  0  0
  145.7055  136.3631  151.4548 C   0  0  0  0  0  0  0  0  0  0  0  0
  146.6379  137.2973  151.6899 N   0  0  0  0  0  0  0  0  0  0  0  0
  146.3657  138.7124  151.9203 C   0  0  0  0  0  0  0  0  0  0  0  0
  146.8951  139.1969  153.2843 C   0  0  2  0  0  0  0  0  0  0  0  0
  147.0696  140.7110  153.3793 C   0  0  0  0  0  0  0  0  0  0  0  0
  148.1037  140.9103  154.4954 C   0  0  0  0  0  0  0  0  0  0  0  0
  148.7608  139.5983  154.7130 N   0  3  2  0  0  0  0  0  0  0  0  0
  150.2353  139.6406  154.8668 C   0  0  0  0  0  0  0  0  0  0  0  0
  150.6743  140.3101  156.1810 C   0  0  0  0  0  0  0  0  0  0  0  0
  151.9556  140.0244  156.4076 F   0  0  0  0  0  0  0  0  0  0  0  0
  150.5415  141.6344  156.1175 F   0  0  0  0  0  0  0  0  0  0  0  0
  149.9465  139.8440  157.1957 F   0  0  0  0  0  0  0  0  0  0  0  0
  148.2901  138.6890  153.6490 C   0  0  0  0  0  0  0  0  0  0  0  0
  146.2600  135.1549  151.2632 N   0  0  0  0  0  0  0  0  0  0  0  0
  145.5912  133.9358  150.9855 C   0  0  0  0  0  0  0  0  0  0  0  0
  146.2163  132.6596  150.9504 C   0  0  0  0  0  0  0  0  0  0  0  0
  145.3456  131.7023  150.6647 N   0  0  0  0  0  0  0  0  0  0  0  0
  144.1708  132.3549  150.5159 N   0  0  0  0  0  0  0  0  0  0  0  0
  144.2723  133.7160  150.7017 C   0  0  0  0  0  0  0  0  0  0  0  0
  143.3179  131.8631  150.2897 H   0  0  0  0  0  0  0  0  0  0  0  0
  147.6067  137.0127  151.6892 H   0  0  0  0  0  0  0  0  0  0  0  0
  146.8316  139.2795  151.1140 H   0  0  0  0  0  0  0  0  0  0  0  0
  145.2926  138.8969  151.8452 H   0  0  0  0  0  0  0  0  0  0  0  0
  146.2029  138.8905  154.0707 H   0  0  0  0  0  0  0  0  0  0  0  0
  147.4689  141.1011  152.4417 H   0  0  0  0  0  0  0  0  0  0  0  0
  146.1311  141.2289  153.5796 H   0  0  0  0  0  0  0  0  0  0  0  0
  148.8147  141.6891  154.2165 H   0  0  0  0  0  0  0  0  0  0  0  0
  147.6225  141.2181  155.4244 H   0  0  0  0  0  0  0  0  0  0  0  0
  150.6083  138.6152  154.8655 H   0  0  0  0  0  0  0  0  0  0  0  0
  150.6895  140.1349  154.0066 H   0  0  0  0  0  0  0  0  0  0  0  0
  148.2842  137.6516  153.9852 H   0  0  0  0  0  0  0  0  0  0  0  0
  148.9516  138.7611  152.7836 H   0  0  0  0  0  0  0  0  0  0  0  0
  147.2666  135.1005  151.3158 H   0  0  0  0  0  0  0  0  0  0  0  0
  147.2515  132.4015  151.1194 H   0  0  0  0  0  0  0  0  0  0  0  0
  143.4220  134.3761  150.6157 H   0  0  0  0  0  0  0  0  0  0  0  0
  148.3825  139.2308  155.5748 H   0  0  0  0  0  0  0  0  0  0  0  0
  1  2  2  0  0  0  0
  2  3  1  0  0  0  0
  2 15  1  0  0  0  0
  3  4  1  0  0  0  0
  3 22  1  0  0  0  0
  4  5  1  0  0  0  0
  4 23  1  0  0  0  0
  4 24  1  0  0  0  0
  5 14  1  0  0  0  0
  5  6  1  0  0  0  0
  5 25  1  0  0  0  0
  6  7  1  0  0  0  0
  6 26  1  0  0  0  0
  6 27  1  0  0  0  0
  7  8  1  0  0  0  0
  7 28  1  0  0  0  0
  7 29  1  0  0  0  0
  8  9  1  0  0  0  0
  8 14  1  0  0  0  0
  8 37  1  0  0  0  0
  9 10  1  0  0  0  0
  9 30  1  0  0  0  0
  9 31  1  0  0  0  0
 10 11  1  0  0  0  0
 10 12  1  0  0  0  0
 10 13  1  0  0  0  0
 14 32  1  0  0  0  0
 14 33  1  0  0  0  0
 15 16  1  0  0  0  0
 15 34  1  0  0  0  0
 16 20  2  0  0  0  0
 16 17  1  0  0  0  0
 17 18  2  0  0  0  0
 17 35  1  0  0  0  0
 18 19  1  0  0  0  0
 19 21  1  0  0  0  0
 19 20  1  0  0  0  0
 20 36  1  0  0  0  0
M  CHG  1   8   1
M  END
> <s_m_source_file>
AV-unprocessed.smi

> <i_m_source_file_index>
1683

> <i_lp_mmshare_version>
43012

> <i_f3d_flags>
0

> <s_epik_input>
W2NIXTFbbkhdbltjSF1jMVtOSF1DKD1PKVtOSF1bQ0gyXVtDQEBIXTJbQ0gyXVtDSDJdTihbQ0gyXTIpW0NIMl1DKEYpKEYpRg==

> <s_epik_cmdline>
J2VwaWtfcHl0aG9uJywgJy1waCcsICc3LjAnLCAnLXRuJywgJzgnLCAnLW1hJywgJzIwMCcsICctbWV0YWxfYmluZGluZycsICctaW1hZScsICc8aW5maWxlLm1hZT4nLCAnLW9tYWUnLCAnPG91dGZpbGUubWFlPic=

> <r_lp_tautomer_probability>
0.5

> <r_epik_Ionization_Penalty>
0.641865

> <r_epik_Ionization_Penalty_Charging>
0.64182

> <r_epik_Ionization_Penalty_Neutral>
4.50685e-05

> <r_epik_State_Penalty>
0.65957

> <r_epik_Charging_Adjusted_Penalty>
1.30139

> <i_epik_Tot_Q>
1

> <i_epik_Tot_abs_Q>
1

> <r_epik_Metal_State_Penalty>
0.659571

> <b_epik_Metal_Only>
0

> <s_lp_Force_Field>
OPLS_2005

> <r_lp_Energy>
30.3314

> <b_lp_Chiralities_Consistent>
1

> <s_lp_Variant>
AV-unprocessed.smi:1683-3

> <Gold.Version>
5.8.1

> <Gold.Id.Protein>
6NUR|6NUR_protein|mol2

> <Gold.PLP.Fitness>
41.6587

> <Gold.PLP.PLP>
-31.4917

> <Gold.PLP.part.hbond>
-1.9556

> <Gold.PLP.part.metal>
0.0000

> <Gold.PLP.part.buried>
-2.4243

> <Gold.PLP.part.nonpolar>
-31.2017

> <Gold.PLP.part.repulsive>
3.8468

> <Gold.PLP.ligand.clash>
0.0000

> <Gold.PLP.ligand.torsion>
0.4115

> <Gold.PLP.Chemscore.Hbond>
1.7905

> <Gold.PLP.Chemscore.CHOScore>
1.7164

> <Gold.PLP.Chemscore.Metal>
0.0000

> <Gold.Chemscore.Hbonds>
donor molecule, donor type, donor heavy atom, donor atom, acceptor molecule, acceptor atom, score
      L1  H     3    22       P1  7948  1.00
      L1  H    15    34       P1  7948  0.83
      L1  C    17    35       P1 10747  1.00
      L1  C    20    36       P1 10186  0.74

> <Gold.PLP.Chemscore.Internal.Correction>
0.4691

> <Gold.Rescore>
     Score         DG    S(hbond)    S(metal)    S(lipo)     H(rot)  DE(clash)    DE(int)     intcor
     11.38     -14.69       1.78        0.00      67.69       1.81       1.60       1.71       ----

> <Gold.Chemscore.Fitness>
11.3765

> <Gold.Chemscore.DG>
-14.6922

> <Gold.Chemscore.ZeroCoef>
-5.4800

> <Gold.Chemscore.Hbond>
1.7757

> <Gold.Chemscore.Metal>
0.0000

> <Gold.Chemscore.Lipo>
67.6861

> <Gold.Chemscore.Internal_Hbond>
0.0000

> <Gold.Chemscore.DEClash>
1.6039

> <Gold.Chemscore.DEInternal>
1.7118

> <Gold.Chemscore.Rot>
1.8116

> <Gold.Chemscore.Internal.Correction>
   9.000000E+99

> <Gold.Chemscore.Hbonds>
donor molecule, donor type, donor heavy atom, donor atom, acceptor molecule, acceptor atom, score
      L1  H     3    22       P1  7948  0.93
      L1  H    15    34       P1  7948  0.54

> <Gold.Chemscore.Hbond.Weighted>
-5.9307

> <Gold.Chemscore.Metal.Weighted>
-0.0000

> <Gold.Chemscore.Lipo.Weighted>
-7.9193

> <Gold.Chemscore.Internal_Hbond.Weighted>
0.0000

> <Gold.Chemscore.DEClash.Weighted>
1.6039

> <Gold.Chemscore.DEInternal.Weighted>
1.7118

> <Gold.Chemscore.Rot.Weighted>
4.6378

> <Gold.Chemscore.Internal.Correction.Weighted>
   9.000000E+99

> <Gold.Protein.RotatedTorsions>
[ 6907 6896 6895 6894 ] final  -51.50 input  -60.11 | X-H torsion
[ 7974 7965 7964 7962 ] final  104.97 input  175.53 | X-H torsion
[ 8008 7997 7996 7995 ] final -139.90 input   59.86 | X-H torsion
[ 10167 10162 10161 10158 ] final  117.02 input  -65.29 | X-H torsion
[ 10718 10713 10712 10709 ] final  144.46 input   66.30 | X-H torsion
[ 10763 10752 10751 10750 ] final  129.72 input  -60.55 | X-H torsion
[ 11005 11000 10999 10996 ] final  -60.94 input  -57.11 | X-H torsion

> <Gold.Protein.ActiveResidues>
 VAL166  LYS551  ARG553  GLY616  TRP617  ASP618  TYR619  PRO620  LYS621  CYS622 
 ASP623  PHE694  ASN695  SER759  ASP760  ASP761  ALA762  ILE779  LEU786  VAL792 
 PHE793  MET794  SER795  GLU796  ALA797  LYS798  CYS799  TRP800  GLU811  SER814 

> <Gold.Protein.RotatedAtoms>
  150.8606  134.7956  159.7079 H   0  0  0  0  0  0  0  0  0  0  0  0  # atno 6907 bound_to 6896
  152.4644  134.5107  159.9762 H   0  0  0  0  0  0  0  0  0  0  0  0  # atno 6908 bound_to 6896
  151.5211  133.3428  159.2937 H   0  0  0  0  0  0  0  0  0  0  0  0  # atno 6909 bound_to 6896
  145.3258  139.2500  143.3687 H   0  0  0  0  0  0  0  0  0  0  0  0  # atno 7974 bound_to 7965
  155.4525  140.0540  157.2999 H   0  0  0  0  0  0  0  0  0  0  0  0  # atno 8008 bound_to 7997
  154.4771  140.2065  155.9808 H   0  0  0  0  0  0  0  0  0  0  0  0  # atno 8009 bound_to 7997
  156.1149  140.3198  155.8129 H   0  0  0  0  0  0  0  0  0  0  0  0  # atno 8010 bound_to 7997
  139.6207  144.7100  151.2641 H   0  0  0  0  0  0  0  0  0  0  0  0  # atno 10167 bound_to 10162
  157.3570  131.0959  151.0950 H   0  0  0  0  0  0  0  0  0  0  0  0  # atno 10718 bound_to 10713
  153.7463  135.3216  155.3313 H   0  0  0  0  0  0  0  0  0  0  0  0  # atno 10763 bound_to 10752
  154.8278  135.4556  154.0976 H   0  0  0  0  0  0  0  0  0  0  0  0  # atno 10764 bound_to 10752
  153.2166  135.6942  153.8132 H   0  0  0  0  0  0  0  0  0  0  0  0  # atno 10765 bound_to 10752
  141.1306  133.6626  156.5299 H   0  0  0  0  0  0  0  0  0  0  0  0  # atno 11005 bound_to 11000
  146.3065  140.3825  142.8685 LP  0  0  0  0  0  0  0  0  0  0  0  0  # atno 17320 bound_to 7965
  144.8903  140.7515  143.5931 LP  0  0  0  0  0  0  0  0  0  0  0  0  # atno 17321 bound_to 7965
  140.7380  143.6662  150.8121 LP  0  0  0  0  0  0  0  0  0  0  0  0  # atno 17342 bound_to 10162
  140.0272  143.5481  152.2775 LP  0  0  0  0  0  0  0  0  0  0  0  0  # atno 17343 bound_to 10162
  157.2104  130.6435  149.5772 LP  0  0  0  0  0  0  0  0  0  0  0  0  # atno 17370 bound_to 10713
  155.9731  130.4662  150.6280 LP  0  0  0  0  0  0  0  0  0  0  0  0  # atno 17371 bound_to 10713
  140.4224  134.7175  157.4897 LP  0  0  0  0  0  0  0  0  0  0  0  0  # atno 17394 bound_to 11000
  140.0350  134.6350  155.9055 LP  0  0  0  0  0  0  0  0  0  0  0  0  # atno 17395 bound_to 11000

$$$$
