AV-unprocessed.smi:8|AV-procd|sdf|48|dock4
  -GOLD-   2262015163D 1   1.00000     0.00000
 Structure written by MMmdl.
 34 35  0  0  0  0  0  0  0  0  3 V2000
  148.1478  136.9008  155.4875 C   0  0  0  0  0  0  0  0  0  0  0  0
  149.5026  136.4766  154.9036 C   0  0  0  0  0  0  0  0  0  0  0  0
  149.6349  135.0143  154.8611 N   0  0  0  0  0  0  0  0  0  0  0  0
  148.6795  134.2976  154.1213 C   0  0  0  0  0  0  0  0  0  0  0  0
  148.7102  132.9538  154.0061 C   0  0  0  0  0  0  0  0  0  0  0  0
  147.6601  132.1812  153.2225 C   0  0  0  0  0  0  0  0  0  0  0  0
  147.5108  132.6566  151.8525 N   0  0  0  0  0  0  0  0  0  0  0  0
  146.2234  132.9002  151.3528 C   0  0  0  0  0  0  0  0  0  0  0  0
  145.9091  134.1428  150.9210 N   0  0  0  0  0  0  0  0  0  0  0  0
  144.6852  134.3837  150.4364 C   0  0  0  0  0  0  0  0  0  0  0  0
  143.7355  133.4408  150.3509 N   0  3  0  0  0  0  0  0  0  0  0  0
  144.0063  132.1807  150.7690 C   0  0  0  0  0  0  0  0  0  0  0  0
  145.2748  131.8572  151.2907 C   0  0  0  0  0  0  0  0  0  0  0  0
  145.5853  130.4487  151.7640 C   0  0  0  0  0  0  0  0  0  0  0  0
  149.7850  132.2442  154.7094 C   0  0  0  0  0  0  0  0  0  0  0  0
  149.8440  131.0159  154.6537 O   0  0  0  0  0  0  0  0  0  0  0  0
  150.6935  132.9868  155.4061 N   0  5  0  0  0  0  0  0  0  0  0  0
  150.6470  134.3512  155.4937 C   0  0  0  0  0  0  0  0  0  0  0  0
  151.4851  134.9997  156.1210 O   0  0  0  0  0  0  0  0  0  0  0  0
  148.0669  137.9872  155.5276 H   0  0  0  0  0  0  0  0  0  0  0  0
  148.0182  136.5197  156.5008 H   0  0  0  0  0  0  0  0  0  0  0  0
  147.3213  136.5292  154.8810 H   0  0  0  0  0  0  0  0  0  0  0  0
  149.6290  136.9054  153.9083 H   0  0  0  0  0  0  0  0  0  0  0  0
  150.3064  136.9078  155.5018 H   0  0  0  0  0  0  0  0  0  0  0  0
  147.9233  134.9081  153.6496 H   0  0  0  0  0  0  0  0  0  0  0  0
  147.9313  131.1245  153.2160 H   0  0  0  0  0  0  0  0  0  0  0  0
  146.7018  132.2631  153.7371 H   0  0  0  0  0  0  0  0  0  0  0  0
  148.1934  132.3181  151.1890 H   0  0  0  0  0  0  0  0  0  0  0  0
  144.4220  135.3722  150.0899 H   0  0  0  0  0  0  0  0  0  0  0  0
  143.1966  131.4723  150.6719 H   0  0  0  0  0  0  0  0  0  0  0  0
  144.7227  129.7926  151.6442 H   0  0  0  0  0  0  0  0  0  0  0  0
  145.8629  130.4546  152.8187 H   0  0  0  0  0  0  0  0  0  0  0  0
  146.4127  130.0283  151.1919 H   0  0  0  0  0  0  0  0  0  0  0  0
  142.8129  133.6617  149.9754 H   0  0  0  0  0  0  0  0  0  0  0  0
  1  2  1  0  0  0  0
  1 20  1  0  0  0  0
  1 21  1  0  0  0  0
  1 22  1  0  0  0  0
  2  3  1  0  0  0  0
  2 23  1  0  0  0  0
  2 24  1  0  0  0  0
  3 18  1  0  0  0  0
  3  4  1  0  0  0  0
  4  5  2  0  0  0  0
  4 25  1  0  0  0  0
  5  6  1  0  0  0  0
  5 15  1  0  0  0  0
  6  7  1  0  0  0  0
  6 26  1  0  0  0  0
  6 27  1  0  0  0  0
  7  8  1  0  0  0  0
  7 28  1  0  0  0  0
  8 13  1  0  0  0  0
  8  9  2  0  0  0  0
  9 10  1  0  0  0  0
 10 11  2  0  0  0  0
 10 29  1  0  0  0  0
 11 12  1  0  0  0  0
 11 34  1  0  0  0  0
 12 13  2  0  0  0  0
 12 30  1  0  0  0  0
 13 14  1  0  0  0  0
 14 31  1  0  0  0  0
 14 32  1  0  0  0  0
 14 33  1  0  0  0  0
 15 16  2  0  0  0  0
 15 17  1  0  0  0  0
 17 18  1  0  0  0  0
 18 19  2  0  0  0  0
M  CHG  1  11   1
M  CHG  1  17  -1
M  END
> <s_m_source_file>
AV-unprocessed.smi

> <i_m_source_file_index>
8

> <i_lp_mmshare_version>
43012

> <i_f3d_flags>
0

> <s_epik_input>
W0NIM11bQ0gyXW4xW2NIXWMoYyg9TylbbkhdYzE9TylbQ0gyXVtOSF1jMm5bY0hdbltjSF1jMltDSDNd

> <s_epik_cmdline>
J2VwaWtfcHl0aG9uJywgJy1waCcsICc3LjAnLCAnLXRuJywgJzgnLCAnLW1hJywgJzIwMCcsICctbWV0YWxfYmluZGluZycsICctaW1hZScsICc8aW5maWxlLm1hZT4nLCAnLW9tYWUnLCAnPG91dGZpbGUubWFlPic=

> <r_lp_tautomer_probability>
0.998874

> <r_epik_Ionization_Penalty>
7.33654

> <r_epik_Ionization_Penalty_Charging>
3.33717

> <r_epik_Ionization_Penalty_Neutral>
3.99937

> <r_epik_State_Penalty>
6.31594

> <r_epik_Charging_Adjusted_Penalty>
9.65311

> <i_epik_Tot_Q>
0

> <i_epik_Tot_abs_Q>
2

> <r_epik_Metal_State_Penalty>
2.94778

> <b_epik_Metal_Only>
1

> <s_lp_Force_Field>
OPLS_2005

> <r_lp_Energy>
21.5879

> <b_lp_Chiralities_Consistent>
1

> <s_lp_Variant>
AV-unprocessed.smi:8-4

> <Gold.Version>
5.8.1

> <Gold.Id.Protein>
6NUR|6NUR_protein|mol2

> <Gold.PLP.Fitness>
43.8580

> <Gold.PLP.PLP>
-31.9476

> <Gold.PLP.part.hbond>
-3.0000

> <Gold.PLP.part.metal>
0.0000

> <Gold.PLP.part.buried>
-2.5509

> <Gold.PLP.part.nonpolar>
-24.6744

> <Gold.PLP.part.repulsive>
0.2599

> <Gold.PLP.ligand.clash>
0.0000

> <Gold.PLP.ligand.torsion>
0.6761

> <Gold.PLP.Chemscore.Hbond>
3.7855

> <Gold.PLP.Chemscore.CHOScore>
0.6312

> <Gold.PLP.Chemscore.Metal>
0.0000

> <Gold.Chemscore.Hbonds>
donor molecule, donor type, donor heavy atom, donor atom, acceptor molecule, acceptor atom, score
      L1  H     7    28       P1 10747  0.99
      L1  H    11    34       P1 10186  2.00
      P1  H 10752 10763       L1    19  0.99
      L1  C     4    25       P1  7948  0.57

> <Gold.PLP.Chemscore.Internal.Correction>
0.0128

> <Gold.Rescore>
     Score         DG    S(hbond)    S(metal)    S(lipo)     H(rot)  DE(clash)    DE(int)     intcor
     15.16     -16.17       2.80        0.00      49.32       1.73       0.28       0.73       ----

> <Gold.Chemscore.Fitness>
15.1570

> <Gold.Chemscore.DG>
-16.1696

> <Gold.Chemscore.ZeroCoef>
-5.4800

> <Gold.Chemscore.Hbond>
2.7981

> <Gold.Chemscore.Metal>
0.0000

> <Gold.Chemscore.Lipo>
49.3179

> <Gold.Chemscore.Internal_Hbond>
0.0000

> <Gold.Chemscore.DEClash>
0.2815

> <Gold.Chemscore.DEInternal>
0.7311

> <Gold.Chemscore.Rot>
1.7290

> <Gold.Chemscore.Internal.Correction>
   9.000000E+99

> <Gold.Chemscore.Hbonds>
donor molecule, donor type, donor heavy atom, donor atom, acceptor molecule, acceptor atom, score
      L1  H     7    28       P1 10747  0.94
      L1  H    11    34       P1 10186  0.96
      P1  H 10752 10763       L1    19  0.78

> <Gold.Chemscore.Hbond.Weighted>
-9.3457

> <Gold.Chemscore.Metal.Weighted>
-0.0000

> <Gold.Chemscore.Lipo.Weighted>
-5.7702

> <Gold.Chemscore.Internal_Hbond.Weighted>
0.0000

> <Gold.Chemscore.DEClash.Weighted>
0.2815

> <Gold.Chemscore.DEInternal.Weighted>
0.7311

> <Gold.Chemscore.Rot.Weighted>
4.4263

> <Gold.Chemscore.Internal.Correction.Weighted>
   9.000000E+99

> <Gold.Protein.RotatedTorsions>
[ 6907 6896 6895 6894 ] final  129.82 input  -60.11 | X-H torsion
[ 7974 7965 7964 7962 ] final -117.29 input  175.53 | X-H torsion
[ 8008 7997 7996 7995 ] final  -17.65 input   59.86 | X-H torsion
[ 10167 10162 10161 10158 ] final   68.47 input  -65.29 | X-H torsion
[ 10718 10713 10712 10709 ] final -123.75 input   66.30 | X-H torsion
[ 10763 10752 10751 10750 ] final   90.10 input  -60.55 | X-H torsion
[ 11005 11000 10999 10996 ] final  -47.74 input  -57.11 | X-H torsion

> <Gold.Protein.ActiveResidues>
 VAL166  LYS551  ARG553  GLY616  TRP617  ASP618  TYR619  PRO620  LYS621  CYS622 
 ASP623  PHE694  ASN695  SER759  ASP760  ASP761  ALA762  ILE779  LEU786  VAL792 
 PHE793  MET794  SER795  GLU796  ALA797  LYS798  CYS799  TRP800  GLU811  SER814 

> <Gold.Protein.RotatedAtoms>
  152.3586  133.6269  159.5997 H   0  0  0  0  0  0  0  0  0  0  0  0  # atno 6907 bound_to 6896
  150.7586  133.9459  159.3479 H   0  0  0  0  0  0  0  0  0  0  0  0  # atno 6908 bound_to 6896
  151.7301  135.0877  160.0350 H   0  0  0  0  0  0  0  0  0  0  0  0  # atno 6909 bound_to 6896
  145.0869  140.8464  143.4006 H   0  0  0  0  0  0  0  0  0  0  0  0  # atno 7974 bound_to 7965
  154.4963  140.2137  155.9441 H   0  0  0  0  0  0  0  0  0  0  0  0  # atno 8008 bound_to 7997
  156.1374  140.3186  155.8410 H   0  0  0  0  0  0  0  0  0  0  0  0  # atno 8009 bound_to 7997
  155.4184  140.0495  157.3018 H   0  0  0  0  0  0  0  0  0  0  0  0  # atno 8010 bound_to 7997
  140.0783  144.5093  150.7180 H   0  0  0  0  0  0  0  0  0  0  0  0  # atno 10167 bound_to 10162
  156.1529  130.6547  150.9939 H   0  0  0  0  0  0  0  0  0  0  0  0  # atno 10718 bound_to 10713
  153.1940  135.4446  155.0185 H   0  0  0  0  0  0  0  0  0  0  0  0  # atno 10763 bound_to 10752
  154.8107  135.3293  154.7314 H   0  0  0  0  0  0  0  0  0  0  0  0  # atno 10764 bound_to 10752
  153.7765  135.6980  153.4952 H   0  0  0  0  0  0  0  0  0  0  0  0  # atno 10765 bound_to 10752
  141.0659  133.6694  156.3341 H   0  0  0  0  0  0  0  0  0  0  0  0  # atno 11005 bound_to 11000
  145.1112  139.2756  143.5636 LP  0  0  0  0  0  0  0  0  0  0  0  0  # atno 17320 bound_to 7965
  146.3531  140.0708  142.8623 LP  0  0  0  0  0  0  0  0  0  0  0  0  # atno 17321 bound_to 7965
  140.7091  143.2491  151.4637 LP  0  0  0  0  0  0  0  0  0  0  0  0  # atno 17342 bound_to 10162
  139.5795  144.1742  152.1949 LP  0  0  0  0  0  0  0  0  0  0  0  0  # atno 17343 bound_to 10162
  157.6671  131.0869  150.7701 LP  0  0  0  0  0  0  0  0  0  0  0  0  # atno 17370 bound_to 10713
  156.7768  130.4846  149.5408 LP  0  0  0  0  0  0  0  0  0  0  0  0  # atno 17371 bound_to 10713
  140.5774  134.5780  157.5472 LP  0  0  0  0  0  0  0  0  0  0  0  0  # atno 17394 bound_to 11000
  139.9476  134.7674  156.0525 LP  0  0  0  0  0  0  0  0  0  0  0  0  # atno 17395 bound_to 11000

$$$$
