AV-unprocessed.smi:276|AV-procd|sdf|2078|dock7
  -GOLD-   2262021343D 1   1.00000     0.00000
 Structure written by MMmdl.
 57 61  0  0  0  0  0  0  0  0  1 V2000
  151.8673  142.2980  158.7649 C   0  0  0  0  0  0  0  0  0  0  0  0
  152.0115  141.1115  158.0033 O   0  0  0  0  0  0  0  0  0  0  0  0
  151.0758  141.0261  156.9398 C   0  0  2  0  0  0  0  0  0  0  0  0
  149.6134  141.0803  157.4105 C   0  0  0  0  0  0  0  0  0  0  0  0
  149.3468  139.7354  156.7186 C   0  0  1  0  0  0  0  0  0  0  0  0
  148.4861  139.8375  155.5282 N   0  0  0  0  0  0  0  0  0  0  0  0
  148.8325  140.6828  154.3855 C   0  0  0  0  0  0  0  0  0  0  0  0
  147.5926  138.8366  155.2925 C   0  0  0  0  0  0  0  0  0  0  0  0
  147.1658  138.0682  156.3314 N   0  0  0  0  0  0  0  0  0  0  0  0
  146.3017  137.0696  156.1330 C   0  0  0  0  0  0  0  0  0  0  0  0
  145.7372  136.6705  154.9931 N   0  0  0  0  0  0  0  0  0  0  0  0
  146.1471  137.4405  153.9453 C   0  0  0  0  0  0  0  0  0  0  0  0
  147.0620  138.5314  154.0030 C   0  0  0  0  0  0  0  0  0  0  0  0
  147.2188  139.0745  152.7312 N   0  0  0  0  0  0  0  0  0  0  0  0
  146.4494  138.3458  151.9700 C   0  0  0  0  0  0  0  0  0  0  0  0
  145.7684  137.3425  152.6185 N   0  0  0  0  0  0  0  0  0  0  0  0
  144.8453  136.3934  152.0212 C   0  0  0  0  0  0  0  0  0  0  0  0
  145.5138  135.5153  150.9444 C   0  0  2  0  0  0  0  0  0  0  0  0
  144.9543  135.8143  149.6795 O   0  0  0  0  0  0  0  0  0  0  0  0
  145.3337  134.0120  151.2267 C   0  0  1  0  0  0  0  0  0  0  0  0
  143.9013  133.5025  151.0574 C   0  0  0  0  0  0  0  0  0  0  0  0
  144.1285  132.0298  150.8070 C   0  0  0  0  0  0  0  0  0  0  0  0
  145.3862  132.0506  149.9436 C   0  0  0  0  0  0  0  0  0  0  0  0
  146.0925  133.2365  150.3010 O   0  0  0  0  0  0  0  0  0  0  0  0
  150.8542  139.5858  156.4308 C   0  0  0  0  0  0  0  0  0  0  0  0
  151.6309  138.4058  157.0430 C   0  0  0  0  0  0  0  0  0  0  0  0
  152.5447  138.4306  155.8161 C   0  0  0  0  0  0  0  0  0  0  0  0
  151.4168  139.1431  155.0666 C   0  0  0  0  0  0  0  0  0  0  0  0
  152.6055  142.3100  159.5667 H   0  0  0  0  0  0  0  0  0  0  0  0
  150.8776  142.3631  159.2184 H   0  0  0  0  0  0  0  0  0  0  0  0
  152.0274  143.1827  158.1472 H   0  0  0  0  0  0  0  0  0  0  0  0
  151.2884  141.7192  156.1244 H   0  0  0  0  0  0  0  0  0  0  0  0
  149.5138  141.0102  158.4944 H   0  0  0  0  0  0  0  0  0  0  0  0
  149.0512  141.9304  157.0229 H   0  0  0  0  0  0  0  0  0  0  0  0
  148.9958  139.0068  157.4509 H   0  0  0  0  0  0  0  0  0  0  0  0
  148.7573  140.1316  153.4471 H   0  0  0  0  0  0  0  0  0  0  0  0
  149.8500  141.0628  154.4489 H   0  0  0  0  0  0  0  0  0  0  0  0
  148.1612  141.5402  154.3368 H   0  0  0  0  0  0  0  0  0  0  0  0
  146.0234  136.5104  157.0140 H   0  0  0  0  0  0  0  0  0  0  0  0
  146.3541  138.5233  150.9084 H   0  0  0  0  0  0  0  0  0  0  0  0
  144.4389  135.7700  152.8185 H   0  0  0  0  0  0  0  0  0  0  0  0
  144.0030  136.9425  151.5986 H   0  0  0  0  0  0  0  0  0  0  0  0
  146.5787  135.7480  150.9018 H   0  0  0  0  0  0  0  0  0  0  0  0
  145.4237  135.3259  149.0204 H   0  0  0  0  0  0  0  0  0  0  0  0
  145.6844  133.7690  152.2314 H   0  0  0  0  0  0  0  0  0  0  0  0
  143.2748  133.6943  151.9290 H   0  0  0  0  0  0  0  0  0  0  0  0
  143.4281  133.9608  150.1877 H   0  0  0  0  0  0  0  0  0  0  0  0
  144.3273  131.5175  151.7494 H   0  0  0  0  0  0  0  0  0  0  0  0
  143.2844  131.5395  150.3215 H   0  0  0  0  0  0  0  0  0  0  0  0
  146.0012  131.1623  150.0893 H   0  0  0  0  0  0  0  0  0  0  0  0
  145.1235  132.1112  148.8869 H   0  0  0  0  0  0  0  0  0  0  0  0
  152.1320  138.6030  157.9906 H   0  0  0  0  0  0  0  0  0  0  0  0
  151.0326  137.4944  157.0952 H   0  0  0  0  0  0  0  0  0  0  0  0
  153.4235  139.0620  155.9570 H   0  0  0  0  0  0  0  0  0  0  0  0
  152.8076  137.4486  155.4220 H   0  0  0  0  0  0  0  0  0  0  0  0
  150.7685  138.4442  154.5366 H   0  0  0  0  0  0  0  0  0  0  0  0
  151.7456  139.9549  154.4174 H   0  0  0  0  0  0  0  0  0  0  0  0
  1  2  1  0  0  0  0
  1 29  1  0  0  0  0
  1 30  1  0  0  0  0
  1 31  1  0  0  0  0
  2  3  1  0  0  0  0
  3 25  1  0  0  0  0
  3  4  1  0  0  0  0
  3 32  1  0  0  0  0
  4  5  1  0  0  0  0
  4 33  1  0  0  0  0
  4 34  1  0  0  0  0
  5  6  1  0  0  0  0
  5 25  1  0  0  0  0
  5 35  1  0  0  0  0
  6  7  1  0  0  0  0
  6  8  1  0  0  0  0
  7 36  1  0  0  0  0
  7 37  1  0  0  0  0
  7 38  1  0  0  0  0
  8 13  1  0  0  0  0
  8  9  2  0  0  0  0
  9 10  1  0  0  0  0
 10 11  2  0  0  0  0
 10 39  1  0  0  0  0
 11 12  1  0  0  0  0
 12 16  1  0  0  0  0
 12 13  2  0  0  0  0
 13 14  1  0  0  0  0
 14 15  2  0  0  0  0
 15 16  1  0  0  0  0
 15 40  1  0  0  0  0
 16 17  1  0  0  0  0
 17 18  1  0  0  0  0
 17 41  1  0  0  0  0
 17 42  1  0  0  0  0
 18 19  1  0  0  0  0
 18 20  1  0  0  0  0
 18 43  1  0  0  0  0
 19 44  1  0  0  0  0
 20 24  1  0  0  0  0
 20 21  1  0  0  0  0
 20 45  1  0  0  0  0
 21 22  1  0  0  0  0
 21 46  1  0  0  0  0
 21 47  1  0  0  0  0
 22 23  1  0  0  0  0
 22 48  1  0  0  0  0
 22 49  1  0  0  0  0
 23 24  1  0  0  0  0
 23 50  1  0  0  0  0
 23 51  1  0  0  0  0
 25 28  1  0  0  0  0
 25 26  1  0  0  0  0
 26 27  1  0  0  0  0
 26 52  1  0  0  0  0
 26 53  1  0  0  0  0
 27 28  1  0  0  0  0
 27 54  1  0  0  0  0
 27 55  1  0  0  0  0
 28 56  1  0  0  0  0
 28 57  1  0  0  0  0
M  END
> <s_m_source_file>
AV-unprocessed.smi

> <i_m_source_file_index>
276

> <i_lp_mmshare_version>
43012

> <i_f3d_flags>
0

> <s_epik_input>
W0NIMl0xW0NIMl1bQ0gyXUMxMltDQEhdKE9bQ0gzXSlbQ0gyXVtDQEhdMk4oW0NIM10pYyhuW2NIXW4zKWMoYzM0KW5bY0hdbjRbQ0gyXVtDQEhdKFtPSF0pW0NAQEhdNVtDSDJdW0NIMl1bQ0gyXU81

> <s_epik_cmdline>
J2VwaWtfcHl0aG9uJywgJy1waCcsICc3LjAnLCAnLXRuJywgJzgnLCAnLW1hJywgJzIwMCcsICctbWV0YWxfYmluZGluZycsICctaW1hZScsICc8aW5maWxlLm1hZT4nLCAnLW9tYWUnLCAnPG91dGZpbGUubWFlPic=

> <r_lp_tautomer_probability>
1

> <r_epik_Ionization_Penalty>
0.00204117

> <r_epik_Ionization_Penalty_Charging>
0

> <r_epik_Ionization_Penalty_Neutral>
0.00204117

> <r_epik_State_Penalty>
0.00127401

> <r_epik_Charging_Adjusted_Penalty>
0.00127401

> <i_epik_Tot_Q>
0

> <i_epik_Tot_abs_Q>
0

> <r_epik_Metal_State_Penalty>
-0

> <b_epik_Metal_Only>
0

> <s_lp_Force_Field>
OPLS_2005

> <r_lp_Energy>
56.66

> <b_lp_Chiralities_Consistent>
1

> <s_lp_Variant>
AV-unprocessed.smi:276-9

> <Gold.Version>
5.8.1

> <Gold.Id.Protein>
6NUR|6NUR_protein|mol2

> <Gold.PLP.Fitness>
45.9922

> <Gold.PLP.PLP>
-42.0319

> <Gold.PLP.part.hbond>
-2.0000

> <Gold.PLP.part.metal>
0.0000

> <Gold.PLP.part.buried>
-5.3357

> <Gold.PLP.part.nonpolar>
-36.4463

> <Gold.PLP.part.repulsive>
2.1974

> <Gold.PLP.ligand.clash>
0.0000

> <Gold.PLP.ligand.torsion>
1.3036

> <Gold.PLP.Chemscore.Hbond>
1.0000

> <Gold.PLP.Chemscore.CHOScore>
0.8730

> <Gold.PLP.Chemscore.Metal>
0.0000

> <Gold.Chemscore.Hbonds>
donor molecule, donor type, donor heavy atom, donor atom, acceptor molecule, acceptor atom, score
      L1  H    19    44       P1  7921  1.00
      L1  C    15    40       P1 10171  0.46

> <Gold.PLP.Chemscore.Internal.Correction>
0.9485

> <Gold.Rescore>
     Score         DG    S(hbond)    S(metal)    S(lipo)     H(rot)  DE(clash)    DE(int)     intcor
     11.73     -14.54       0.99        0.00     102.94       2.46       0.18       2.64       ----

> <Gold.Chemscore.Fitness>
11.7260

> <Gold.Chemscore.DG>
-14.5428

> <Gold.Chemscore.ZeroCoef>
-5.4800

> <Gold.Chemscore.Hbond>
0.9915

> <Gold.Chemscore.Metal>
0.0000

> <Gold.Chemscore.Lipo>
102.9395

> <Gold.Chemscore.Internal_Hbond>
0.0000

> <Gold.Chemscore.DEClash>
0.1811

> <Gold.Chemscore.DEInternal>
2.6357

> <Gold.Chemscore.Rot>
2.4581

> <Gold.Chemscore.Internal.Correction>
   9.000000E+99

> <Gold.Chemscore.Hbonds>
donor molecule, donor type, donor heavy atom, donor atom, acceptor molecule, acceptor atom, score
      L1  H    19    44       P1  7921  0.99

> <Gold.Chemscore.Hbond.Weighted>
-3.3115

> <Gold.Chemscore.Metal.Weighted>
-0.0000

> <Gold.Chemscore.Lipo.Weighted>
-12.0439

> <Gold.Chemscore.Internal_Hbond.Weighted>
0.0000

> <Gold.Chemscore.DEClash.Weighted>
0.1811

> <Gold.Chemscore.DEInternal.Weighted>
2.6357

> <Gold.Chemscore.Rot.Weighted>
6.2927

> <Gold.Chemscore.Internal.Correction.Weighted>
   9.000000E+99

> <Gold.Protein.RotatedTorsions>
[ 6907 6896 6895 6894 ] final   69.46 input  -60.11 | X-H torsion
[ 7974 7965 7964 7962 ] final  130.50 input  175.53 | X-H torsion
[ 8008 7997 7996 7995 ] final   24.24 input   59.86 | X-H torsion
[ 10167 10162 10161 10158 ] final   52.19 input  -65.29 | X-H torsion
[ 10718 10713 10712 10709 ] final  -28.86 input   66.30 | X-H torsion
[ 10763 10752 10751 10750 ] final -153.38 input  -60.55 | X-H torsion
[ 11005 11000 10999 10996 ] final  -65.70 input  -57.11 | X-H torsion

> <Gold.Protein.ActiveResidues>
 VAL166  LYS551  ARG553  GLY616  TRP617  ASP618  TYR619  PRO620  LYS621  CYS622 
 ASP623  PHE694  ASN695  SER759  ASP760  ASP761  ALA762  ILE779  LEU786  VAL792 
 PHE793  MET794  SER795  GLU796  ALA797  LYS798  CYS799  TRP800  GLU811  SER814 

> <Gold.Protein.RotatedAtoms>
  152.4687  134.5012  159.9725 H   0  0  0  0  0  0  0  0  0  0  0  0  # atno 6907 bound_to 6896
  151.5044  133.3492  159.2882 H   0  0  0  0  0  0  0  0  0  0  0  0  # atno 6908 bound_to 6896
  150.8685  134.8082  159.7199 H   0  0  0  0  0  0  0  0  0  0  0  0  # atno 6909 bound_to 6896
  145.0173  139.4164  143.5215 H   0  0  0  0  0  0  0  0  0  0  0  0  # atno 7974 bound_to 7965
  154.9933  140.3116  155.4897 H   0  0  0  0  0  0  0  0  0  0  0  0  # atno 8008 bound_to 7997
  156.2936  140.2245  156.4979 H   0  0  0  0  0  0  0  0  0  0  0  0  # atno 8009 bound_to 7997
  154.7684  140.0454  157.1019 H   0  0  0  0  0  0  0  0  0  0  0  0  # atno 8010 bound_to 7997
  140.2540  144.3447  150.6339 H   0  0  0  0  0  0  0  0  0  0  0  0  # atno 10167 bound_to 10162
  156.4198  130.4424  149.7192 H   0  0  0  0  0  0  0  0  0  0  0  0  # atno 10718 bound_to 10713
  154.7931  135.3214  154.7730 H   0  0  0  0  0  0  0  0  0  0  0  0  # atno 10763 bound_to 10752
  153.8415  135.6870  153.4807 H   0  0  0  0  0  0  0  0  0  0  0  0  # atno 10764 bound_to 10752
  153.1610  135.4661  154.9713 H   0  0  0  0  0  0  0  0  0  0  0  0  # atno 10765 bound_to 10752
  141.1462  133.6686  156.6026 H   0  0  0  0  0  0  0  0  0  0  0  0  # atno 11005 bound_to 11000
  146.3480  139.9651  142.8713 LP  0  0  0  0  0  0  0  0  0  0  0  0  # atno 17320 bound_to 7965
  145.1943  140.9826  143.4193 LP  0  0  0  0  0  0  0  0  0  0  0  0  # atno 17321 bound_to 7965
  140.6018  143.2167  151.7057 LP  0  0  0  0  0  0  0  0  0  0  0  0  # atno 17342 bound_to 10162
  139.5037  144.3780  152.0404 LP  0  0  0  0  0  0  0  0  0  0  0  0  # atno 17343 bound_to 10162
  156.4137  130.7735  151.2749 LP  0  0  0  0  0  0  0  0  0  0  0  0  # atno 17370 bound_to 10713
  157.7508  131.0203  150.3705 LP  0  0  0  0  0  0  0  0  0  0  0  0  # atno 17371 bound_to 10713
  140.3676  134.7633  157.4577 LP  0  0  0  0  0  0  0  0  0  0  0  0  # atno 17394 bound_to 11000
  140.0735  134.5829  155.8616 LP  0  0  0  0  0  0  0  0  0  0  0  0  # atno 17395 bound_to 11000

$$$$
