AV-unprocessed.smi:265|AV-procd|sdf|2028|dock3
  -GOLD-   2262021233D 1   1.00000     0.00000
 Structure written by MMmdl.
 52 56  0  0  0  0  0  0  0  0  1 V2000
  148.1588  133.0676  153.2392 C   0  0  0  0  0  0  0  0  0  0  0  0
  148.7680  132.9397  154.6439 C   0  0  1  0  0  0  0  0  0  0  0  0
  149.7367  131.8932  154.6941 O   0  0  0  0  0  0  0  0  0  0  0  0
  150.9048  132.3288  155.3799 C   0  0  0  0  0  0  0  0  0  0  0  0
  150.4797  133.5751  156.1489 C   0  0  0  0  0  0  0  0  0  0  0  0
  149.4508  134.2023  155.2184 C   0  0  1  0  0  0  0  0  0  0  0  0
  150.1384  134.9015  154.1940 O   0  0  0  0  0  0  0  0  0  0  0  0
  148.5071  135.2376  155.8841 C   0  0  0  0  0  0  0  0  0  0  0  0
  149.1676  136.4191  156.4173 N   0  0  0  0  0  0  0  0  0  0  0  0
  149.3845  136.7179  157.7435 C   0  0  0  0  0  0  0  0  0  0  0  0
  150.0099  137.8414  157.9664 N   0  0  0  0  0  0  0  0  0  0  0  0
  150.2538  138.3527  156.6970 C   0  0  0  0  0  0  0  0  0  0  0  0
  150.8938  139.5262  156.2063 C   0  0  0  0  0  0  0  0  0  0  0  0
  151.4186  140.4736  157.0245 N   0  0  0  0  0  0  0  0  0  0  0  0
  151.9973  139.9556  158.2676 C   0  0  0  0  0  0  0  0  0  0  0  0
  152.8890  141.0082  158.9524 C   0  0  0  0  0  0  0  0  0  0  0  0
  152.1054  142.3128  159.1457 C   0  0  1  0  0  0  0  0  0  0  0  0
  152.9170  143.3472  159.6808 O   0  0  0  0  0  0  0  0  0  0  0  0
  152.1818  144.5283  160.0196 C   0  0  0  0  0  0  0  0  0  0  0  0
  151.2091  144.9694  158.9049 C   0  0  0  0  0  0  0  0  0  0  0  0
  150.6929  146.0837  158.9488 O   0  0  0  0  0  0  0  0  0  0  0  0
  150.9216  144.0917  157.9296 N   0  0  0  0  0  0  0  0  0  0  0  0
  151.6004  142.8110  157.7828 C   0  0  2  0  0  0  0  0  0  0  0  0
  150.6994  141.7467  157.1368 C   0  0  0  0  0  0  0  0  0  0  0  0
  150.9675  139.6791  154.8566 N   0  0  0  0  0  0  0  0  0  0  0  0
  150.4459  138.7569  154.0424 C   0  0  0  0  0  0  0  0  0  0  0  0
  149.8182  137.6233  154.3596 N   0  0  0  0  0  0  0  0  0  0  0  0
  149.7444  137.4607  155.7115 C   0  0  0  0  0  0  0  0  0  0  0  0
  151.2684  142.1228  159.8215 H   0  0  0  0  0  0  0  0  0  0  0  0
  152.4565  142.9837  157.1279 H   0  0  0  0  0  0  0  0  0  0  0  0
  147.4240  133.8722  153.2035 H   0  0  0  0  0  0  0  0  0  0  0  0
  147.6538  132.1449  152.9532 H   0  0  0  0  0  0  0  0  0  0  0  0
  148.9203  133.2705  152.4859 H   0  0  0  0  0  0  0  0  0  0  0  0
  147.9832  132.6138  155.3248 H   0  0  0  0  0  0  0  0  0  0  0  0
  151.2995  131.5488  156.0311 H   0  0  0  0  0  0  0  0  0  0  0  0
  151.6715  132.5757  154.6445 H   0  0  0  0  0  0  0  0  0  0  0  0
  150.0194  133.2609  157.0850 H   0  0  0  0  0  0  0  0  0  0  0  0
  151.3135  134.2351  156.3915 H   0  0  0  0  0  0  0  0  0  0  0  0
  149.5044  135.3565  153.6615 H   0  0  0  0  0  0  0  0  0  0  0  0
  147.7551  135.5698  155.1671 H   0  0  0  0  0  0  0  0  0  0  0  0
  147.9568  134.7654  156.6992 H   0  0  0  0  0  0  0  0  0  0  0  0
  149.0578  136.0741  158.5473 H   0  0  0  0  0  0  0  0  0  0  0  0
  151.1831  139.6719  158.9358 H   0  0  0  0  0  0  0  0  0  0  0  0
  152.5811  139.0532  158.0912 H   0  0  0  0  0  0  0  0  0  0  0  0
  153.2409  140.6329  159.9136 H   0  0  0  0  0  0  0  0  0  0  0  0
  153.7750  141.1922  158.3432 H   0  0  0  0  0  0  0  0  0  0  0  0
  151.6100  144.3455  160.9302 H   0  0  0  0  0  0  0  0  0  0  0  0
  152.8839  145.3339  160.2359 H   0  0  0  0  0  0  0  0  0  0  0  0
  150.2607  144.3588  157.2143 H   0  0  0  0  0  0  0  0  0  0  0  0
  150.3871  142.0852  156.1477 H   0  0  0  0  0  0  0  0  0  0  0  0
  149.7968  141.6030  157.7330 H   0  0  0  0  0  0  0  0  0  0  0  0
  150.5445  138.9565  152.9856 H   0  0  0  0  0  0  0  0  0  0  0  0
  1  2  1  0  0  0  0
  1 31  1  0  0  0  0
  1 32  1  0  0  0  0
  1 33  1  0  0  0  0
  2  6  1  0  0  0  0
  2  3  1  0  0  0  0
  2 34  1  0  0  0  0
  3  4  1  0  0  0  0
  4  5  1  0  0  0  0
  4 35  1  0  0  0  0
  4 36  1  0  0  0  0
  5  6  1  0  0  0  0
  5 37  1  0  0  0  0
  5 38  1  0  0  0  0
  6  7  1  0  0  0  0
  6  8  1  0  0  0  0
  7 39  1  0  0  0  0
  8  9  1  0  0  0  0
  8 40  1  0  0  0  0
  8 41  1  0  0  0  0
  9 28  1  0  0  0  0
  9 10  1  0  0  0  0
 10 11  2  0  0  0  0
 10 42  1  0  0  0  0
 11 12  1  0  0  0  0
 12 28  2  0  0  0  0
 12 13  1  0  0  0  0
 13 14  1  0  0  0  0
 13 25  2  0  0  0  0
 14 24  1  0  0  0  0
 14 15  1  0  0  0  0
 15 16  1  0  0  0  0
 15 43  1  0  0  0  0
 15 44  1  0  0  0  0
 16 17  1  0  0  0  0
 16 45  1  0  0  0  0
 16 46  1  0  0  0  0
 17 29  1  0  0  0  0
 17 23  1  0  0  0  0
 17 18  1  0  0  0  0
 18 19  1  0  0  0  0
 19 20  1  0  0  0  0
 19 47  1  0  0  0  0
 19 48  1  0  0  0  0
 20 21  2  0  0  0  0
 20 22  1  0  0  0  0
 22 23  1  0  0  0  0
 22 49  1  0  0  0  0
 23 30  1  0  0  0  0
 23 24  1  0  0  0  0
 24 50  1  0  0  0  0
 24 51  1  0  0  0  0
 25 26  1  0  0  0  0
 26 27  2  0  0  0  0
 26 52  1  0  0  0  0
 27 28  1  0  0  0  0
M  END
> <s_m_source_file>
AV-unprocessed.smi

> <i_m_source_file_index>
265

> <i_lp_mmshare_version>
43012

> <i_f3d_flags>
0

> <s_epik_input>
W0NIMl0xW0NIMl1PW0NAQEhdKFtDSDNdKVtDQEBdMShbT0hdKVtDSDJdbihbY0hdbjIpYyhjMjMpbltjSF1uYzNOKFtDSDJdW0NIMl00KVtDSDJdW0NAQEhdKFtDQEhdNDUpW05IXUMoPU8pW0NIMl1PNQ==

> <s_epik_cmdline>
J2VwaWtfcHl0aG9uJywgJy1waCcsICc3LjAnLCAnLXRuJywgJzgnLCAnLW1hJywgJzIwMCcsICctbWV0YWxfYmluZGluZycsICctaW1hZScsICc8aW5maWxlLm1hZT4nLCAnLW9tYWUnLCAnPG91dGZpbGUubWFlPic=

> <r_lp_tautomer_probability>
1

> <r_epik_Ionization_Penalty>
0.00221504

> <r_epik_Ionization_Penalty_Charging>
0

> <r_epik_Ionization_Penalty_Neutral>
0.00221504

> <r_epik_State_Penalty>
-0

> <r_epik_Charging_Adjusted_Penalty>
0

> <i_epik_Tot_Q>
0

> <i_epik_Tot_abs_Q>
0

> <r_epik_Metal_State_Penalty>
-0

> <b_epik_Metal_Only>
0

> <s_lp_Force_Field>
OPLS_2005

> <r_lp_Energy>
47.2889

> <b_lp_Chiralities_Consistent>
1

> <s_lp_Variant>
AV-unprocessed.smi:265-14

> <Gold.Version>
5.8.1

> <Gold.Id.Protein>
6NUR|6NUR_protein|mol2

> <Gold.PLP.Fitness>
46.3230

> <Gold.PLP.PLP>
-36.1834

> <Gold.PLP.part.hbond>
-5.5186

> <Gold.PLP.part.metal>
0.0000

> <Gold.PLP.part.buried>
-2.1227

> <Gold.PLP.part.nonpolar>
-29.1131

> <Gold.PLP.part.repulsive>
1.6293

> <Gold.PLP.ligand.clash>
0.0000

> <Gold.PLP.ligand.torsion>
0.6439

> <Gold.PLP.Chemscore.Hbond>
2.6645

> <Gold.PLP.Chemscore.CHOScore>
1.0000

> <Gold.PLP.Chemscore.Metal>
0.0000

> <Gold.Chemscore.Hbonds>
donor molecule, donor type, donor heavy atom, donor atom, acceptor molecule, acceptor atom, score
      L1  H     7    39       P1  7948  0.82
      L1  H    22    49       P1  8028  0.89
      P1  H  7989  7998       L1    25  0.85
      L1  C    26    52       P1  7957  1.00

> <Gold.PLP.Chemscore.Internal.Correction>
0.4339

> <Gold.Rescore>
     Score         DG    S(hbond)    S(metal)    S(lipo)     H(rot)  DE(clash)    DE(int)     intcor
      7.26     -14.58       1.75        0.00      77.02       2.25       3.14       4.19       ----

> <Gold.Chemscore.Fitness>
7.2563

> <Gold.Chemscore.DG>
-14.5790

> <Gold.Chemscore.ZeroCoef>
-5.4800

> <Gold.Chemscore.Hbond>
1.7471

> <Gold.Chemscore.Metal>
0.0000

> <Gold.Chemscore.Lipo>
77.0207

> <Gold.Chemscore.Internal_Hbond>
0.0000

> <Gold.Chemscore.DEClash>
3.1367

> <Gold.Chemscore.DEInternal>
4.1859

> <Gold.Chemscore.Rot>
2.2453

> <Gold.Chemscore.Internal.Correction>
   9.000000E+99

> <Gold.Chemscore.Hbonds>
donor molecule, donor type, donor heavy atom, donor atom, acceptor molecule, acceptor atom, score
      L1  H     7    39       P1  7948  0.13
      L1  H    22    49       P1  8028  0.60
      P1  H  7989  7998       L1    25  0.15

> <Gold.Chemscore.Hbond.Weighted>
-5.8355

> <Gold.Chemscore.Metal.Weighted>
-0.0000

> <Gold.Chemscore.Lipo.Weighted>
-9.0114

> <Gold.Chemscore.Internal_Hbond.Weighted>
0.0000

> <Gold.Chemscore.DEClash.Weighted>
3.1367

> <Gold.Chemscore.DEInternal.Weighted>
4.1859

> <Gold.Chemscore.Rot.Weighted>
5.7479

> <Gold.Chemscore.Internal.Correction.Weighted>
   9.000000E+99

> <Gold.Protein.RotatedTorsions>
[ 6907 6896 6895 6894 ] final   34.82 input  -60.11 | X-H torsion
[ 7974 7965 7964 7962 ] final  -27.62 input  175.53 | X-H torsion
[ 8008 7997 7996 7995 ] final  -67.06 input   59.86 | X-H torsion
[ 10167 10162 10161 10158 ] final  -69.65 input  -65.29 | X-H torsion
[ 10718 10713 10712 10709 ] final  -16.84 input   66.30 | X-H torsion
[ 10763 10752 10751 10750 ] final  156.27 input  -60.55 | X-H torsion
[ 11005 11000 10999 10996 ] final  142.82 input  -57.11 | X-H torsion

> <Gold.Protein.ActiveResidues>
 VAL166  LYS551  ARG553  GLY616  TRP617  ASP618  TYR619  PRO620  LYS621  CYS622 
 ASP623  PHE694  ASN695  SER759  ASP760  ASP761  ALA762  ILE779  LEU786  VAL792 
 PHE793  MET794  SER795  GLU796  ALA797  LYS798  CYS799  TRP800  GLU811  SER814 

> <Gold.Protein.RotatedAtoms>
  152.1076  134.9297  160.0567 H   0  0  0  0  0  0  0  0  0  0  0  0  # atno 6907 bound_to 6896
  152.0487  133.4004  159.4376 H   0  0  0  0  0  0  0  0  0  0  0  0  # atno 6908 bound_to 6896
  150.6842  134.3253  159.4847 H   0  0  0  0  0  0  0  0  0  0  0  0  # atno 6909 bound_to 6896
  146.1345  140.5176  142.8679 H   0  0  0  0  0  0  0  0  0  0  0  0  # atno 7974 bound_to 7965
  154.4775  140.0900  156.7297 H   0  0  0  0  0  0  0  0  0  0  0  0  # atno 8008 bound_to 7997
  155.4558  140.3459  155.4288 H   0  0  0  0  0  0  0  0  0  0  0  0  # atno 8009 bound_to 7997
  156.1139  140.1455  156.9288 H   0  0  0  0  0  0  0  0  0  0  0  0  # atno 8010 bound_to 7997
  140.5414  143.2315  151.7082 H   0  0  0  0  0  0  0  0  0  0  0  0  # atno 10167 bound_to 10162
  156.5819  130.4776  149.6317 H   0  0  0  0  0  0  0  0  0  0  0  0  # atno 10718 bound_to 10713
  154.1816  135.2799  155.3050 H   0  0  0  0  0  0  0  0  0  0  0  0  # atno 10763 bound_to 10752
  154.5998  135.5533  153.7366 H   0  0  0  0  0  0  0  0  0  0  0  0  # atno 10764 bound_to 10752
  153.0136  135.6389  154.1955 H   0  0  0  0  0  0  0  0  0  0  0  0  # atno 10765 bound_to 10752
  140.0506  134.9257  157.1010 H   0  0  0  0  0  0  0  0  0  0  0  0  # atno 11005 bound_to 11000
  144.7725  140.5668  143.6660 LP  0  0  0  0  0  0  0  0  0  0  0  0  # atno 17320 bound_to 7965
  145.5187  139.1477  143.3564 LP  0  0  0  0  0  0  0  0  0  0  0  0  # atno 17321 bound_to 7965
  139.4990  144.3963  152.0228 LP  0  0  0  0  0  0  0  0  0  0  0  0  # atno 17342 bound_to 10162
  140.3072  144.3579  150.6044 LP  0  0  0  0  0  0  0  0  0  0  0  0  # atno 17343 bound_to 10162
  156.2624  130.6970  151.1743 LP  0  0  0  0  0  0  0  0  0  0  0  0  # atno 17370 bound_to 10713
  157.7324  131.0599  150.5628 LP  0  0  0  0  0  0  0  0  0  0  0  0  # atno 17371 bound_to 10713
  140.3923  134.2171  155.7166 LP  0  0  0  0  0  0  0  0  0  0  0  0  # atno 17394 bound_to 11000
  141.1928  133.8164  157.0823 LP  0  0  0  0  0  0  0  0  0  0  0  0  # atno 17395 bound_to 11000

$$$$
