AV-unprocessed.smi:109|AV-procd|sdf|1037|dock5
  -GOLD-   2262018 53D 1   1.00000     0.00000
 Structure written by MMmdl.
 58 61  0  0  0  0  0  0  0  0  1 V2000
  139.2504  136.6559  157.3477 O   0  0  0  0  0  0  0  0  0  0  0  0
  139.0244  136.9033  158.7187 C   0  0  0  0  0  0  0  0  0  0  0  0
  140.1452  137.7943  159.2808 C   0  0  0  0  0  0  0  0  0  0  0  0
  141.5557  137.1589  159.2114 C   0  0  2  0  0  0  0  0  0  0  0  0
  141.7384  136.5193  157.9063 N   0  0  0  0  0  0  0  0  0  0  0  0
  142.6682  136.9417  157.0203 C   0  0  0  0  0  0  0  0  0  0  0  0
  143.1276  138.2205  157.0253 N   0  0  0  0  0  0  0  0  0  0  0  0
  144.0461  138.6068  156.1347 C   0  0  0  0  0  0  0  0  0  0  0  0
  144.6286  137.8891  155.1715 N   0  0  0  0  0  0  0  0  0  0  0  0
  144.1679  136.6049  155.1626 C   0  0  0  0  0  0  0  0  0  0  0  0
  143.1977  136.0571  156.0458 C   0  0  0  0  0  0  0  0  0  0  0  0
  142.9866  134.7191  155.7392 N   0  0  0  0  0  0  0  0  0  0  0  0
  143.7906  134.4939  154.7340 C   0  0  0  0  0  0  0  0  0  0  0  0
  144.5296  135.5807  154.3163 N   0  0  0  0  0  0  0  0  0  0  0  0
  145.5411  135.6794  153.2173 C   0  0  1  0  0  0  0  0  0  0  0  0
  145.7385  134.4058  152.6665 O   0  0  0  0  0  0  0  0  0  0  0  0
  145.4101  134.3763  151.2763 C   0  0  1  0  0  0  0  0  0  0  0  0
  143.9818  133.8149  151.1010 C   0  0  0  0  0  0  0  0  0  0  0  0
  143.7305  133.5636  149.7350 O   0  0  0  0  0  0  0  0  0  0  0  0
  145.5963  135.8432  150.8659 C   0  0  1  0  0  0  0  0  0  0  0  0
  144.9821  136.2172  149.6462 O   0  0  0  0  0  0  0  0  0  0  0  0
  145.1025  136.6200  152.0756 C   0  0  1  0  0  0  0  0  0  0  0  0
  143.7046  136.8632  152.0320 O   0  0  0  0  0  0  0  0  0  0  0  0
  141.8263  136.1204  160.3384 C   0  0  0  0  0  0  0  0  0  0  0  0
  141.3552  136.6019  161.7342 C   0  0  0  0  0  0  0  0  0  0  0  0
  141.6715  135.5884  162.8466 C   0  0  0  0  0  0  0  0  0  0  0  0
  143.1654  135.2462  162.8871 C   0  0  0  0  0  0  0  0  0  0  0  0
  143.6368  134.7344  161.5213 C   0  0  0  0  0  0  0  0  0  0  0  0
  143.3314  135.7531  160.4125 C   0  0  0  0  0  0  0  0  0  0  0  0
  146.4563  136.0048  153.7140 H   0  0  0  0  0  0  0  0  0  0  0  0
  146.1194  133.7500  150.7333 H   0  0  0  0  0  0  0  0  0  0  0  0
  146.6667  136.0277  150.7598 H   0  0  0  0  0  0  0  0  0  0  0  0
  145.6128  137.5787  152.1747 H   0  0  0  0  0  0  0  0  0  0  0  0
  139.3779  135.7273  157.2268 H   0  0  0  0  0  0  0  0  0  0  0  0
  138.0485  137.3764  158.8282 H   0  0  0  0  0  0  0  0  0  0  0  0
  138.9890  135.9510  159.2483 H   0  0  0  0  0  0  0  0  0  0  0  0
  140.1262  138.7189  158.7069 H   0  0  0  0  0  0  0  0  0  0  0  0
  139.9165  138.0677  160.3120 H   0  0  0  0  0  0  0  0  0  0  0  0
  142.2842  137.9573  159.3505 H   0  0  0  0  0  0  0  0  0  0  0  0
  141.1880  135.6862  157.7542 H   0  0  0  0  0  0  0  0  0  0  0  0
  144.3589  139.6383  156.2040 H   0  0  0  0  0  0  0  0  0  0  0  0
  143.8638  133.5201  154.2724 H   0  0  0  0  0  0  0  0  0  0  0  0
  143.8182  132.9086  151.6824 H   0  0  0  0  0  0  0  0  0  0  0  0
  143.2388  134.5416  151.4285 H   0  0  0  0  0  0  0  0  0  0  0  0
  142.8901  133.9337  149.5114 H   0  0  0  0  0  0  0  0  0  0  0  0
  144.6399  137.0934  149.7387 H   0  0  0  0  0  0  0  0  0  0  0  0
  143.5284  137.4495  151.3120 H   0  0  0  0  0  0  0  0  0  0  0  0
  141.2721  135.2113  160.0984 H   0  0  0  0  0  0  0  0  0  0  0  0
  141.8223  137.5591  161.9696 H   0  0  0  0  0  0  0  0  0  0  0  0
  140.2797  136.7697  161.7451 H   0  0  0  0  0  0  0  0  0  0  0  0
  141.3571  135.9872  163.8114 H   0  0  0  0  0  0  0  0  0  0  0  0
  141.0928  134.6779  162.6861 H   0  0  0  0  0  0  0  0  0  0  0  0
  143.7390  136.1306  163.1671 H   0  0  0  0  0  0  0  0  0  0  0  0
  143.3566  134.4951  163.6541 H   0  0  0  0  0  0  0  0  0  0  0  0
  144.7071  134.5288  161.5513 H   0  0  0  0  0  0  0  0  0  0  0  0
  143.1456  133.7876  161.2938 H   0  0  0  0  0  0  0  0  0  0  0  0
  143.6755  135.3357  159.4660 H   0  0  0  0  0  0  0  0  0  0  0  0
  143.9204  136.6564  160.5781 H   0  0  0  0  0  0  0  0  0  0  0  0
  1  2  1  0  0  0  0
  1 34  1  0  0  0  0
  2  3  1  0  0  0  0
  2 35  1  0  0  0  0
  2 36  1  0  0  0  0
  3  4  1  0  0  0  0
  3 37  1  0  0  0  0
  3 38  1  0  0  0  0
  4  5  1  0  0  0  0
  4 24  1  0  0  0  0
  4 39  1  0  0  0  0
  5  6  1  0  0  0  0
  5 40  1  0  0  0  0
  6 11  1  0  0  0  0
  6  7  2  0  0  0  0
  7  8  1  0  0  0  0
  8  9  2  0  0  0  0
  8 41  1  0  0  0  0
  9 10  1  0  0  0  0
 10 14  1  0  0  0  0
 10 11  2  0  0  0  0
 11 12  1  0  0  0  0
 12 13  2  0  0  0  0
 13 14  1  0  0  0  0
 13 42  1  0  0  0  0
 14 15  1  0  0  0  0
 15 30  1  0  0  0  0
 15 22  1  0  0  0  0
 15 16  1  0  0  0  0
 16 17  1  0  0  0  0
 17 31  1  0  0  0  0
 17 18  1  0  0  0  0
 17 20  1  0  0  0  0
 18 19  1  0  0  0  0
 18 43  1  0  0  0  0
 18 44  1  0  0  0  0
 19 45  1  0  0  0  0
 20 32  1  0  0  0  0
 20 21  1  0  0  0  0
 20 22  1  0  0  0  0
 21 46  1  0  0  0  0
 22 33  1  0  0  0  0
 22 23  1  0  0  0  0
 23 47  1  0  0  0  0
 24 29  1  0  0  0  0
 24 25  1  0  0  0  0
 24 48  1  0  0  0  0
 25 26  1  0  0  0  0
 25 49  1  0  0  0  0
 25 50  1  0  0  0  0
 26 27  1  0  0  0  0
 26 51  1  0  0  0  0
 26 52  1  0  0  0  0
 27 28  1  0  0  0  0
 27 53  1  0  0  0  0
 27 54  1  0  0  0  0
 28 29  1  0  0  0  0
 28 55  1  0  0  0  0
 28 56  1  0  0  0  0
 29 57  1  0  0  0  0
 29 58  1  0  0  0  0
M  END
> <s_m_source_file>
AV-unprocessed.smi

> <i_m_source_file_index>
109

> <i_lp_mmshare_version>
43012

> <i_f3d_flags>
0

> <s_epik_input>
W0NIMl0xW0NIMl1bQ0gyXVtDSDJdW0NIMl1bQ0hdMVtDQEhdKFtDSDJdW0NIMl1bT0hdKVtOSF1jKG5bY0hdbjIpYyhjMjMpbltjSF1uM1tDQEBIXTRPW0NASF0oW0NIMl1bT0hdKVtDQEBIXShbT0hdKVtDQEhdNFtPSF0=

> <s_epik_cmdline>
J2VwaWtfcHl0aG9uJywgJy1waCcsICc3LjAnLCAnLXRuJywgJzgnLCAnLW1hJywgJzIwMCcsICctbWV0YWxfYmluZGluZycsICctaW1hZScsICc8aW5maWxlLm1hZT4nLCAnLW9tYWUnLCAnPG91dGZpbGUubWFlPic=

> <r_lp_tautomer_probability>
1

> <r_epik_Ionization_Penalty>
0.000793976

> <r_epik_Ionization_Penalty_Charging>
0

> <r_epik_Ionization_Penalty_Neutral>
0.000793976

> <r_epik_State_Penalty>
-0

> <r_epik_Charging_Adjusted_Penalty>
0

> <i_epik_Tot_Q>
0

> <i_epik_Tot_abs_Q>
0

> <r_epik_Metal_State_Penalty>
-0

> <b_epik_Metal_Only>
0

> <s_epik_Chemistry_Notes>
This compound contains an acetal/aminal-like group ( X-CH(R)-Y where X, Y are N, S, or O) that may be acid/base labile, releasing an aldehyde.

> <s_lp_Force_Field>
OPLS_2005

> <r_lp_Energy>
61.3844

> <b_lp_Chiralities_Consistent>
1

> <s_lp_Variant>
AV-unprocessed.smi:109-7

> <Gold.Version>
5.8.1

> <Gold.Id.Protein>
6NUR|6NUR_protein|mol2

> <Gold.PLP.Fitness>
42.9662

> <Gold.PLP.PLP>
-25.3434

> <Gold.PLP.part.hbond>
-7.0000

> <Gold.PLP.part.metal>
0.0000

> <Gold.PLP.part.buried>
-4.9719

> <Gold.PLP.part.nonpolar>
-15.4293

> <Gold.PLP.part.repulsive>
0.4059

> <Gold.PLP.ligand.clash>
0.0000

> <Gold.PLP.ligand.torsion>
0.5982

> <Gold.PLP.Chemscore.Hbond>
5.2982

> <Gold.PLP.Chemscore.CHOScore>
0.9229

> <Gold.PLP.Chemscore.Metal>
0.0000

> <Gold.Chemscore.Hbonds>
donor molecule, donor type, donor heavy atom, donor atom, acceptor molecule, acceptor atom, score
      L1  H     1    34       P1 11000  1.00
      L1  H     5    40       P1 11000  1.00
      L1  H    19    45       P1 10186  1.00
      L1  H    21    46       P1 10171  1.00
      L1  H    23    47       P1 10171  1.00
      P1  H 11000 11005       L1    12  0.29
      L1  C    13    42       P1 10957  0.92

> <Gold.PLP.Chemscore.Internal.Correction>
0.1560

> <Gold.Rescore>
     Score         DG    S(hbond)    S(metal)    S(lipo)     H(rot)  DE(clash)    DE(int)     intcor
     11.14     -12.22       4.44        0.00      50.38       5.47       0.38       0.70       ----

> <Gold.Chemscore.Fitness>
11.1438

> <Gold.Chemscore.DG>
-12.2201

> <Gold.Chemscore.ZeroCoef>
-5.4800

> <Gold.Chemscore.Hbond>
4.4427

> <Gold.Chemscore.Metal>
0.0000

> <Gold.Chemscore.Lipo>
50.3843

> <Gold.Chemscore.Internal_Hbond>
0.0000

> <Gold.Chemscore.DEClash>
0.3806

> <Gold.Chemscore.DEInternal>
0.6957

> <Gold.Chemscore.Rot>
5.4662

> <Gold.Chemscore.Internal.Correction>
   9.000000E+99

> <Gold.Chemscore.Hbonds>
donor molecule, donor type, donor heavy atom, donor atom, acceptor molecule, acceptor atom, score
      L1  H     1    34       P1 11000  0.30
      L1  H     5    40       P1 11000  0.24
      L1  H    19    45       P1 10186  0.99
      L1  H    21    46       P1 10171  1.00
      L1  H    23    47       P1 10171  0.97
      P1  H 11000 11005       L1    12  0.28

> <Gold.Chemscore.Hbond.Weighted>
-14.8386

> <Gold.Chemscore.Metal.Weighted>
-0.0000

> <Gold.Chemscore.Lipo.Weighted>
-5.8950

> <Gold.Chemscore.Internal_Hbond.Weighted>
0.0000

> <Gold.Chemscore.DEClash.Weighted>
0.3806

> <Gold.Chemscore.DEInternal.Weighted>
0.6957

> <Gold.Chemscore.Rot.Weighted>
13.9935

> <Gold.Chemscore.Internal.Correction.Weighted>
   9.000000E+99

> <Gold.Protein.RotatedTorsions>
[ 6907 6896 6895 6894 ] final -161.19 input  -60.11 | X-H torsion
[ 7974 7965 7964 7962 ] final  170.24 input  175.53 | X-H torsion
[ 8008 7997 7996 7995 ] final  145.72 input   59.86 | X-H torsion
[ 10167 10162 10161 10158 ] final  -89.21 input  -65.29 | X-H torsion
[ 10718 10713 10712 10709 ] final   63.06 input   66.30 | X-H torsion
[ 10763 10752 10751 10750 ] final  -46.51 input  -60.55 | X-H torsion
[ 11005 11000 10999 10996 ] final  -51.48 input  -57.11 | X-H torsion

> <Gold.Protein.ActiveResidues>
 VAL166  LYS551  ARG553  GLY616  TRP617  ASP618  TYR619  PRO620  LYS621  CYS622 
 ASP623  PHE694  ASN695  SER759  ASP760  ASP761  ALA762  ILE779  LEU786  VAL792 
 PHE793  MET794  SER795  GLU796  ALA797  LYS798  CYS799  TRP800  GLU811  SER814 

> <Gold.Protein.RotatedAtoms>
  151.3607  133.3890  159.2689 H   0  0  0  0  0  0  0  0  0  0  0  0  # atno 6907 bound_to 6896
  150.9728  134.9098  159.7808 H   0  0  0  0  0  0  0  0  0  0  0  0  # atno 6908 bound_to 6896
  152.5190  134.3569  159.9323 H   0  0  0  0  0  0  0  0  0  0  0  0  # atno 6909 bound_to 6896
  144.7330  139.9173  143.6418 H   0  0  0  0  0  0  0  0  0  0  0  0  # atno 7974 bound_to 7965
  156.2875  140.2201  156.5261 H   0  0  0  0  0  0  0  0  0  0  0  0  # atno 8008 bound_to 7997
  154.7488  140.0482  157.0897 H   0  0  0  0  0  0  0  0  0  0  0  0  # atno 8009 bound_to 7997
  155.0137  140.3116  155.4823 H   0  0  0  0  0  0  0  0  0  0  0  0  # atno 8010 bound_to 7997
  140.3671  143.2813  151.9546 H   0  0  0  0  0  0  0  0  0  0  0  0  # atno 10167 bound_to 10162
  157.5944  130.9084  149.9667 H   0  0  0  0  0  0  0  0  0  0  0  0  # atno 10718 bound_to 10713
  154.0461  135.6637  153.4795 H   0  0  0  0  0  0  0  0  0  0  0  0  # atno 10763 bound_to 10752
  153.0482  135.5101  154.7796 H   0  0  0  0  0  0  0  0  0  0  0  0  # atno 10764 bound_to 10752
  154.6787  135.3041  154.9609 H   0  0  0  0  0  0  0  0  0  0  0  0  # atno 10765 bound_to 10752
  141.0873  133.6640  156.3883 H   0  0  0  0  0  0  0  0  0  0  0  0  # atno 11005 bound_to 11000
  146.0956  139.3948  143.0378 LP  0  0  0  0  0  0  0  0  0  0  0  0  # atno 17320 bound_to 7965
  145.7650  140.9920  143.1180 LP  0  0  0  0  0  0  0  0  0  0  0  0  # atno 17321 bound_to 7965
  139.4807  144.5941  151.7721 LP  0  0  0  0  0  0  0  0  0  0  0  0  # atno 17342 bound_to 10162
  140.5070  144.1082  150.5985 LP  0  0  0  0  0  0  0  0  0  0  0  0  # atno 17343 bound_to 10162
  156.1004  130.3656  150.0228 LP  0  0  0  0  0  0  0  0  0  0  0  0  # atno 17370 bound_to 10713
  156.8344  130.9404  151.3635 LP  0  0  0  0  0  0  0  0  0  0  0  0  # atno 17371 bound_to 10713
  140.5334  134.6191  157.5357 LP  0  0  0  0  0  0  0  0  0  0  0  0  # atno 17394 bound_to 11000
  139.9693  134.7320  156.0074 LP  0  0  0  0  0  0  0  0  0  0  0  0  # atno 17395 bound_to 11000

$$$$
