AV-unprocessed.smi:35|AV-procd|sdf|262|dock4
  -GOLD-   2262016 23D 1   1.00000     0.00000
 Structure written by MMmdl.
 29 30  0  0  0  0  0  0  0  0  1 V2000
  155.0863  138.5999  159.3552 O   0  0  0  0  0  0  0  0  0  0  0  0
  154.0635  138.5767  158.6741 C   0  0  0  0  0  0  0  0  0  0  0  0
  153.7223  137.4300  157.9523 N   0  0  0  0  0  0  0  0  0  0  0  0
  152.5939  137.2877  157.1430 C   0  0  0  0  0  0  0  0  0  0  0  0
  152.3836  136.2222  156.5645 O   0  0  0  0  0  0  0  0  0  0  0  0
  151.7310  138.4014  157.0270 N   0  0  0  0  0  0  0  0  0  0  0  0
  150.4895  138.2568  156.1632 C   0  0  1  0  0  0  0  0  0  0  0  0
  149.7380  139.4333  156.2243 O   0  0  0  0  0  0  0  0  0  0  0  0
  150.0465  140.2571  155.1043 C   0  0  2  0  0  0  0  0  0  0  0  0
  148.9866  141.3542  154.9071 C   0  0  0  0  0  0  0  0  0  0  0  0
  148.9689  141.7669  153.5572 O   0  0  0  0  0  0  0  0  0  0  0  0
  150.1559  139.2230  153.9802 C   0  0  2  0  0  0  0  0  0  0  0  0
  148.8672  138.8681  153.5044 O   0  0  0  0  0  0  0  0  0  0  0  0
  150.8691  138.0635  154.6762 C   0  0  2  0  0  0  0  0  0  0  0  0
  150.4936  136.8017  154.1550 O   0  0  0  0  0  0  0  0  0  0  0  0
  152.0174  139.5551  157.7510 C   0  0  0  0  0  0  0  0  0  0  0  0
  153.1143  139.6749  158.5356 C   0  0  0  0  0  0  0  0  0  0  0  0
  153.3447  141.4022  159.4783 Br  0  0  0  0  0  0  0  0  0  0  0  0
  154.3418  136.6363  158.0270 H   0  0  0  0  0  0  0  0  0  0  0  0
  149.9223  137.4348  156.6043 H   0  0  0  0  0  0  0  0  0  0  0  0
  151.0299  140.7103  155.2436 H   0  0  0  0  0  0  0  0  0  0  0  0
  147.9956  140.9661  155.1435 H   0  0  0  0  0  0  0  0  0  0  0  0
  149.1681  142.2078  155.5610 H   0  0  0  0  0  0  0  0  0  0  0  0
  148.8859  141.0007  153.0103 H   0  0  0  0  0  0  0  0  0  0  0  0
  150.7353  139.6027  153.1379 H   0  0  0  0  0  0  0  0  0  0  0  0
  148.6302  139.4692  152.8141 H   0  0  0  0  0  0  0  0  0  0  0  0
  151.9464  138.1902  154.5577 H   0  0  0  0  0  0  0  0  0  0  0  0
  150.3048  136.9050  153.2343 H   0  0  0  0  0  0  0  0  0  0  0  0
  151.3550  140.4063  157.7091 H   0  0  0  0  0  0  0  0  0  0  0  0
  1  2  2  0  0  0  0
  2 17  1  0  0  0  0
  2  3  1  0  0  0  0
  3 19  1  0  0  0  0
  3  4  1  0  0  0  0
  4  5  2  0  0  0  0
  4  6  1  0  0  0  0
  6  7  1  0  0  0  0
  6 16  1  0  0  0  0
  7 14  1  0  0  0  0
  7  8  1  0  0  0  0
  7 20  1  0  0  0  0
  8  9  1  0  0  0  0
  9 10  1  0  0  0  0
  9 12  1  0  0  0  0
  9 21  1  0  0  0  0
 10 11  1  0  0  0  0
 10 22  1  0  0  0  0
 10 23  1  0  0  0  0
 11 24  1  0  0  0  0
 12 13  1  0  0  0  0
 12 14  1  0  0  0  0
 12 25  1  0  0  0  0
 13 26  1  0  0  0  0
 14 15  1  0  0  0  0
 14 27  1  0  0  0  0
 15 28  1  0  0  0  0
 16 17  2  0  0  0  0
 16 29  1  0  0  0  0
 17 18  1  0  0  0  0
M  END
> <s_m_source_file>
AV-unprocessed.smi

> <i_m_source_file_index>
35

> <i_lp_mmshare_version>
43012

> <i_f3d_flags>
0

> <s_epik_input>
Tz1jMVtuSF1jKD1PKW4oW2NIXWMxQnIpW0NAQEhdMk9bQ0BASF0oW0NIMl1bT0hdKVtDQEBIXShbT0hdKVtDQEhdMltPSF0=

> <s_epik_cmdline>
J2VwaWtfcHl0aG9uJywgJy1waCcsICc3LjAnLCAnLXRuJywgJzgnLCAnLW1hJywgJzIwMCcsICctbWV0YWxfYmluZGluZycsICctaW1hZScsICc8aW5maWxlLm1hZT4nLCAnLW9tYWUnLCAnPG91dGZpbGUubWFlPic=

> <r_lp_tautomer_probability>
0.999537

> <r_epik_Ionization_Penalty>
0.10812

> <r_epik_Ionization_Penalty_Charging>
0.108119

> <r_epik_Ionization_Penalty_Neutral>
4.93006e-07

> <r_epik_State_Penalty>
0.0979238

> <r_epik_Charging_Adjusted_Penalty>
0.206043

> <i_epik_Tot_Q>
0

> <i_epik_Tot_abs_Q>
0

> <r_epik_Metal_State_Penalty>
3.07911

> <b_epik_Metal_Only>
0

> <s_epik_Chemistry_Notes>
This compound contains an acetal/aminal-like group ( X-CH(R)-Y where X, Y are N, S, or O) that may be acid/base labile, releasing an aldehyde.

> <s_lp_Force_Field>
OPLS_2005

> <r_lp_Energy>
32.933

> <b_lp_Chiralities_Consistent>
1

> <s_lp_Variant>
AV-unprocessed.smi:35-16

> <Gold.Version>
5.8.1

> <Gold.Id.Protein>
6NUR|6NUR_protein|mol2

> <Gold.PLP.Fitness>
42.2865

> <Gold.PLP.PLP>
-28.5997

> <Gold.PLP.part.hbond>
-7.9978

> <Gold.PLP.part.metal>
0.0000

> <Gold.PLP.part.buried>
-4.5731

> <Gold.PLP.part.nonpolar>
-16.5370

> <Gold.PLP.part.repulsive>
0.0960

> <Gold.PLP.ligand.clash>
0.0000

> <Gold.PLP.ligand.torsion>
0.2587

> <Gold.PLP.Chemscore.Hbond>
4.7268

> <Gold.PLP.Chemscore.CHOScore>
0.0000

> <Gold.PLP.Chemscore.Metal>
0.0000

> <Gold.Chemscore.Hbonds>
donor molecule, donor type, donor heavy atom, donor atom, acceptor molecule, acceptor atom, score
      L1  H    11    24       P1  7957  0.51
      L1  H    13    26       P1  7957  0.62
      L1  H    15    28       P1  7948  0.36
      P1  H  8011  8017       L1    11  0.23
      P1  H 10752 10764       L1     5  0.57

> <Gold.PLP.Chemscore.Internal.Correction>
0.0239

> <Gold.Rescore>
     Score         DG    S(hbond)    S(metal)    S(lipo)     H(rot)  DE(clash)    DE(int)     intcor
     14.30     -15.10       3.89        0.00      51.51       3.67       0.39       0.41       ----

> <Gold.Chemscore.Fitness>
14.2997

> <Gold.Chemscore.DG>
-15.1003

> <Gold.Chemscore.ZeroCoef>
-5.4800

> <Gold.Chemscore.Hbond>
3.8888

> <Gold.Chemscore.Metal>
0.0000

> <Gold.Chemscore.Lipo>
51.5142

> <Gold.Chemscore.Internal_Hbond>
0.0000

> <Gold.Chemscore.DEClash>
0.3863

> <Gold.Chemscore.DEInternal>
0.4142

> <Gold.Chemscore.Rot>
3.6701

> <Gold.Chemscore.Internal.Correction>
   9.000000E+99

> <Gold.Chemscore.Hbonds>
donor molecule, donor type, donor heavy atom, donor atom, acceptor molecule, acceptor atom, score
      L1  H    11    24       P1  7957  0.50
      L1  H    13    26       P1  7957  0.61
      L1  H    15    28       P1  7948  0.01
      P1  H 10752 10764       L1     5  0.54

> <Gold.Chemscore.Hbond.Weighted>
-12.9886

> <Gold.Chemscore.Metal.Weighted>
-0.0000

> <Gold.Chemscore.Lipo.Weighted>
-6.0272

> <Gold.Chemscore.Internal_Hbond.Weighted>
0.0000

> <Gold.Chemscore.DEClash.Weighted>
0.3863

> <Gold.Chemscore.DEInternal.Weighted>
0.4142

> <Gold.Chemscore.Rot.Weighted>
9.3955

> <Gold.Chemscore.Internal.Correction.Weighted>
   9.000000E+99

> <Gold.Protein.RotatedTorsions>
[ 6907 6896 6895 6894 ] final  152.10 input  -60.11 | X-H torsion
[ 7974 7965 7964 7962 ] final   90.12 input  175.53 | X-H torsion
[ 8008 7997 7996 7995 ] final   87.15 input   59.86 | X-H torsion
[ 10167 10162 10161 10158 ] final   98.31 input  -65.29 | X-H torsion
[ 10718 10713 10712 10709 ] final  155.90 input   66.30 | X-H torsion
[ 10763 10752 10751 10750 ] final  -54.91 input  -60.55 | X-H torsion
[ 11005 11000 10999 10996 ] final   98.62 input  -57.11 | X-H torsion

> <Gold.Protein.ActiveResidues>
 VAL166  LYS551  ARG553  GLY616  TRP617  ASP618  TYR619  PRO620  LYS621  CYS622 
 ASP623  PHE694  ASN695  SER759  ASP760  ASP761  ALA762  ILE779  LEU786  VAL792 
 PHE793  MET794  SER795  GLU796  ALA797  LYS798  CYS799  TRP800  GLU811  SER814 

> <Gold.Protein.RotatedAtoms>
  152.0914  133.4202  159.4545 H   0  0  0  0  0  0  0  0  0  0  0  0  # atno 6907 bound_to 6896
  150.6862  134.2867  159.4659 H   0  0  0  0  0  0  0  0  0  0  0  0  # atno 6908 bound_to 6896
  152.0719  134.9527  160.0625 H   0  0  0  0  0  0  0  0  0  0  0  0  # atno 6909 bound_to 6896
  145.5232  139.2280  143.2660 H   0  0  0  0  0  0  0  0  0  0  0  0  # atno 7974 bound_to 7965
  155.9717  140.3385  155.6582 H   0  0  0  0  0  0  0  0  0  0  0  0  # atno 8008 bound_to 7997
  155.6665  140.0722  157.2553 H   0  0  0  0  0  0  0  0  0  0  0  0  # atno 8009 bound_to 7997
  154.4168  140.1699  156.1820 H   0  0  0  0  0  0  0  0  0  0  0  0  # atno 8010 bound_to 7997
  139.7720  144.6919  151.0142 H   0  0  0  0  0  0  0  0  0  0  0  0  # atno 10167 bound_to 10162
  157.2121  131.0700  151.1963 H   0  0  0  0  0  0  0  0  0  0  0  0  # atno 10718 bound_to 10713
  154.1824  135.6441  153.5038 H   0  0  0  0  0  0  0  0  0  0  0  0  # atno 10763 bound_to 10752
  153.0056  135.5409  154.6500 H   0  0  0  0  0  0  0  0  0  0  0  0  # atno 10764 bound_to 10752
  154.5868  135.2930  155.0649 H   0  0  0  0  0  0  0  0  0  0  0  0  # atno 10765 bound_to 10752
  139.8772  134.9058  156.4484 H   0  0  0  0  0  0  0  0  0  0  0  0  # atno 11005 bound_to 11000
  146.2092  140.6045  142.9067 LP  0  0  0  0  0  0  0  0  0  0  0  0  # atno 17320 bound_to 7965
  144.7665  140.5541  143.6700 LP  0  0  0  0  0  0  0  0  0  0  0  0  # atno 17321 bound_to 7965
  140.7814  143.4577  151.0322 LP  0  0  0  0  0  0  0  0  0  0  0  0  # atno 17342 bound_to 10162
  139.8261  143.7754  152.3178 LP  0  0  0  0  0  0  0  0  0  0  0  0  # atno 17343 bound_to 10162
  157.3662  130.7157  149.6534 LP  0  0  0  0  0  0  0  0  0  0  0  0  # atno 17370 bound_to 10713
  155.9689  130.4212  150.4457 LP  0  0  0  0  0  0  0  0  0  0  0  0  # atno 17371 bound_to 10713
  140.8950  133.7821  155.9614 LP  0  0  0  0  0  0  0  0  0  0  0  0  # atno 17394 bound_to 11000
  140.8713  134.2723  157.5189 LP  0  0  0  0  0  0  0  0  0  0  0  0  # atno 17395 bound_to 11000

$$$$
