AV-unprocessed.smi:129|AV-procd|sdf|1157|dock6
  -GOLD-   2262018293D 1   1.00000     0.00000
 Structure written by MMmdl.
 58 61  0  0  0  0  0  0  0  0  1 V2000
  151.3122  142.8019  156.7497 C   0  0  0  0  0  0  0  0  0  0  0  0
  152.0648  142.2906  157.8401 O   0  0  0  0  0  0  0  0  0  0  0  0
  152.0807  143.0080  159.0200 C   0  0  0  0  0  0  0  0  0  0  0  0
  151.6294  144.3488  159.1251 C   0  0  0  0  0  0  0  0  0  0  0  0
  151.6674  145.0234  160.3592 C   0  0  0  0  0  0  0  0  0  0  0  0
  152.1481  144.3675  161.5050 C   0  0  0  0  0  0  0  0  0  0  0  0
  152.5987  143.0384  161.4159 C   0  0  0  0  0  0  0  0  0  0  0  0
  152.5825  142.3581  160.1738 C   0  0  0  0  0  0  0  0  0  0  0  0
  153.0112  141.0084  160.0344 N   0  0  0  0  0  0  0  0  0  0  0  0
  153.9543  140.3486  160.7340 C   0  0  0  0  0  0  0  0  0  0  0  0
  154.5806  140.8157  161.6854 O   0  0  0  0  0  0  0  0  0  0  0  0
  154.1818  138.9257  160.3072 C   0  0  0  0  0  0  0  0  0  0  0  0
  155.0828  138.1111  161.0271 C   0  0  0  0  0  0  0  0  0  0  0  0
  155.3298  136.7862  160.6208 C   0  0  0  0  0  0  0  0  0  0  0  0
  154.6820  136.2501  159.4897 C   0  0  0  0  0  0  0  0  0  0  0  0
  155.0077  134.9142  159.1293 N   0  0  0  0  0  0  0  0  0  0  0  0
  154.6202  134.2100  158.0504 C   0  0  0  0  0  0  0  0  0  0  0  0
  153.8479  134.6250  157.1853 O   0  0  0  0  0  0  0  0  0  0  0  0
  155.1960  132.7869  157.9670 C   0  0  0  0  0  0  0  0  0  0  0  0
  154.6476  131.9879  156.8491 N   0  0  0  0  0  0  0  0  0  0  0  0
  155.5500  131.3393  155.9699 C   0  0  0  0  0  0  0  0  0  0  0  0
  156.7688  131.4360  156.1200 O   0  0  0  0  0  0  0  0  0  0  0  0
  154.9365  130.5615  154.8997 C   0  0  0  0  0  0  0  0  0  0  0  0
  155.7162  129.9261  154.0084 F   0  0  0  0  0  0  0  0  0  0  0  0
  153.5955  130.4696  154.7871 C   0  0  0  0  0  0  0  0  0  0  0  0
  152.7258  131.0917  155.6653 N   0  0  0  0  0  0  0  0  0  0  0  0
  151.2220  130.9717  155.5309 C   0  0  2  0  0  0  0  0  0  0  0  0
  150.8540  130.0811  154.3286 C   0  0  0  0  0  0  0  0  0  0  0  0
  149.8791  130.9464  153.5546 C   0  0  0  0  0  0  0  0  0  0  0  0
  150.3500  132.3485  153.9095 C   0  0  0  0  0  0  0  0  0  0  0  0
  150.6632  132.2322  155.2911 O   0  0  0  0  0  0  0  0  0  0  0  0
  153.2428  131.8758  156.7194 C   0  0  0  0  0  0  0  0  0  0  0  0
  152.4848  132.4417  157.5104 O   0  0  0  0  0  0  0  0  0  0  0  0
  153.7947  137.0702  158.7524 C   0  0  0  0  0  0  0  0  0  0  0  0
  153.5473  138.3957  159.1599 C   0  0  0  0  0  0  0  0  0  0  0  0
  151.4011  142.1224  155.9024 H   0  0  0  0  0  0  0  0  0  0  0  0
  151.6839  143.7764  156.4307 H   0  0  0  0  0  0  0  0  0  0  0  0
  150.2530  142.8813  156.9979 H   0  0  0  0  0  0  0  0  0  0  0  0
  151.2459  144.8856  158.2709 H   0  0  0  0  0  0  0  0  0  0  0  0
  151.3198  146.0437  160.4278 H   0  0  0  0  0  0  0  0  0  0  0  0
  152.1663  144.8813  162.4548 H   0  0  0  0  0  0  0  0  0  0  0  0
  152.9397  142.5548  162.3181 H   0  0  0  0  0  0  0  0  0  0  0  0
  152.6260  140.5142  159.2426 H   0  0  0  0  0  0  0  0  0  0  0  0
  155.5930  138.4971  161.8980 H   0  0  0  0  0  0  0  0  0  0  0  0
  156.0237  136.1807  161.1857 H   0  0  0  0  0  0  0  0  0  0  0  0
  155.5664  134.4112  159.8032 H   0  0  0  0  0  0  0  0  0  0  0  0
  156.2826  132.8575  157.8953 H   0  0  0  0  0  0  0  0  0  0  0  0
  155.0277  132.2896  158.9235 H   0  0  0  0  0  0  0  0  0  0  0  0
  153.2074  129.8810  153.9702 H   0  0  0  0  0  0  0  0  0  0  0  0
  150.8690  130.5944  156.4923 H   0  0  0  0  0  0  0  0  0  0  0  0
  151.7397  129.8725  153.7262 H   0  0  0  0  0  0  0  0  0  0  0  0
  150.4204  129.1371  154.6599 H   0  0  0  0  0  0  0  0  0  0  0  0
  149.8917  130.7501  152.4824 H   0  0  0  0  0  0  0  0  0  0  0  0
  148.8638  130.7898  153.9212 H   0  0  0  0  0  0  0  0  0  0  0  0
  151.2417  132.6141  153.3403 H   0  0  0  0  0  0  0  0  0  0  0  0
  149.5887  133.1083  153.7323 H   0  0  0  0  0  0  0  0  0  0  0  0
  153.3070  136.7132  157.8587 H   0  0  0  0  0  0  0  0  0  0  0  0
  152.8749  139.0030  158.5712 H   0  0  0  0  0  0  0  0  0  0  0  0
  1  2  1  0  0  0  0
  1 36  1  0  0  0  0
  1 37  1  0  0  0  0
  1 38  1  0  0  0  0
  2  3  1  0  0  0  0
  3  8  1  0  0  0  0
  3  4  2  0  0  0  0
  4  5  1  0  0  0  0
  4 39  1  0  0  0  0
  5  6  2  0  0  0  0
  5 40  1  0  0  0  0
  6  7  1  0  0  0  0
  6 41  1  0  0  0  0
  7  8  2  0  0  0  0
  7 42  1  0  0  0  0
  8  9  1  0  0  0  0
  9 10  1  0  0  0  0
  9 43  1  0  0  0  0
 10 11  2  0  0  0  0
 10 12  1  0  0  0  0
 12 35  1  0  0  0  0
 12 13  2  0  0  0  0
 13 14  1  0  0  0  0
 13 44  1  0  0  0  0
 14 15  2  0  0  0  0
 14 45  1  0  0  0  0
 15 16  1  0  0  0  0
 15 34  1  0  0  0  0
 16 17  1  0  0  0  0
 16 46  1  0  0  0  0
 17 18  2  0  0  0  0
 17 19  1  0  0  0  0
 19 20  1  0  0  0  0
 19 47  1  0  0  0  0
 19 48  1  0  0  0  0
 20 32  1  0  0  0  0
 20 21  1  0  0  0  0
 21 22  2  0  0  0  0
 21 23  1  0  0  0  0
 23 24  1  0  0  0  0
 23 25  2  0  0  0  0
 25 26  1  0  0  0  0
 25 49  1  0  0  0  0
 26 27  1  0  0  0  0
 26 32  1  0  0  0  0
 27 31  1  0  0  0  0
 27 28  1  0  0  0  0
 27 50  1  0  0  0  0
 28 29  1  0  0  0  0
 28 51  1  0  0  0  0
 28 52  1  0  0  0  0
 29 30  1  0  0  0  0
 29 53  1  0  0  0  0
 29 54  1  0  0  0  0
 30 31  1  0  0  0  0
 30 55  1  0  0  0  0
 30 56  1  0  0  0  0
 32 33  2  0  0  0  0
 34 35  2  0  0  0  0
 34 57  1  0  0  0  0
 35 58  1  0  0  0  0
M  END
> <s_m_source_file>
AV-unprocessed.smi

> <i_m_source_file_index>
129

> <i_lp_mmshare_version>
43012

> <i_f3d_flags>
0

> <s_epik_input>
W0NIM11PYzFbY0hdW2NIXVtjSF1bY0hdYzFbTkhdQyg9TyljMltjSF1bY0hdYyhbY0hdW2NIXTIpW05IXUMoPU8pW0NIMl1uM2MoPU8pYyhGKVtjSF1uKGMzPU8pW0NAQEhdNFtDSDJdW0NIMl1bQ0gyXU80

> <s_epik_cmdline>
J2VwaWtfcHl0aG9uJywgJy1waCcsICc3LjAnLCAnLXRuJywgJzgnLCAnLW1hJywgJzIwMCcsICctbWV0YWxfYmluZGluZycsICctaW1hZScsICc8aW5maWxlLm1hZT4nLCAnLW9tYWUnLCAnPG91dGZpbGUubWFlPic=

> <r_lp_tautomer_probability>
1

> <r_epik_Ionization_Penalty>
2.57954e-06

> <r_epik_Ionization_Penalty_Charging>
3.88729e-08

> <r_epik_Ionization_Penalty_Neutral>
2.54066e-06

> <r_epik_State_Penalty>
-0

> <r_epik_Charging_Adjusted_Penalty>
3.88729e-08

> <i_epik_Tot_Q>
0

> <i_epik_Tot_abs_Q>
0

> <r_epik_Metal_State_Penalty>
-0

> <b_epik_Metal_Only>
0

> <s_epik_Chemistry_Notes>
This compound contains an acetal/aminal-like group ( X-CH(R)-Y where X, Y are N, S, or O) that may be acid/base labile, releasing an aldehyde.

> <s_lp_Force_Field>
OPLS_2005

> <r_lp_Energy>
50.6218

> <b_lp_Chiralities_Consistent>
1

> <s_lp_Variant>
AV-unprocessed.smi:129-1

> <Gold.Version>
5.8.1

> <Gold.Id.Protein>
6NUR|6NUR_protein|mol2

> <Gold.PLP.Fitness>
61.6455

> <Gold.PLP.PLP>
-56.6686

> <Gold.PLP.part.hbond>
-2.8363

> <Gold.PLP.part.metal>
0.0000

> <Gold.PLP.part.buried>
-6.8628

> <Gold.PLP.part.nonpolar>
-46.5235

> <Gold.PLP.part.repulsive>
0.2139

> <Gold.PLP.ligand.clash>
0.0000

> <Gold.PLP.ligand.torsion>
0.4565

> <Gold.PLP.Chemscore.Hbond>
1.9350

> <Gold.PLP.Chemscore.CHOScore>
0.0000

> <Gold.PLP.Chemscore.Metal>
0.0000

> <Gold.Chemscore.Hbonds>
donor molecule, donor type, donor heavy atom, donor atom, acceptor molecule, acceptor atom, score
      P1  H  6896  6907       L1    33  0.72
      P1  H 10752 10765       L1    18  1.00

> <Gold.PLP.Chemscore.Internal.Correction>
0.0851

> <Gold.Rescore>
     Score         DG    S(hbond)    S(metal)    S(lipo)     H(rot)  DE(clash)    DE(int)     intcor
     13.83     -22.11       1.88        0.00     130.99       1.94       0.13       8.15       ----

> <Gold.Chemscore.Fitness>
13.8261

> <Gold.Chemscore.DG>
-22.1054

> <Gold.Chemscore.ZeroCoef>
-5.4800

> <Gold.Chemscore.Hbond>
1.8784

> <Gold.Chemscore.Metal>
0.0000

> <Gold.Chemscore.Lipo>
130.9870

> <Gold.Chemscore.Internal_Hbond>
0.0000

> <Gold.Chemscore.DEClash>
0.1270

> <Gold.Chemscore.DEInternal>
8.1523

> <Gold.Chemscore.Rot>
1.9430

> <Gold.Chemscore.Internal.Correction>
   9.000000E+99

> <Gold.Chemscore.Hbonds>
donor molecule, donor type, donor heavy atom, donor atom, acceptor molecule, acceptor atom, score
      P1  H  6896  6907       L1    33  0.67
      P1  H 10752 10765       L1    18  0.95

> <Gold.Chemscore.Hbond.Weighted>
-6.2740

> <Gold.Chemscore.Metal.Weighted>
-0.0000

> <Gold.Chemscore.Lipo.Weighted>
-15.3255

> <Gold.Chemscore.Internal_Hbond.Weighted>
0.0000

> <Gold.Chemscore.DEClash.Weighted>
0.1270

> <Gold.Chemscore.DEInternal.Weighted>
8.1523

> <Gold.Chemscore.Rot.Weighted>
4.9741

> <Gold.Chemscore.Internal.Correction.Weighted>
   9.000000E+99

> <Gold.Protein.RotatedTorsions>
[ 6907 6896 6895 6894 ] final  153.72 input  -60.11 | X-H torsion
[ 7974 7965 7964 7962 ] final -112.19 input  175.53 | X-H torsion
[ 8008 7997 7996 7995 ] final  -20.19 input   59.86 | X-H torsion
[ 10167 10162 10161 10158 ] final   88.21 input  -65.29 | X-H torsion
[ 10718 10713 10712 10709 ] final -126.15 input   66.30 | X-H torsion
[ 10763 10752 10751 10750 ] final -103.72 input  -60.55 | X-H torsion
[ 11005 11000 10999 10996 ] final  163.26 input  -57.11 | X-H torsion

> <Gold.Protein.ActiveResidues>
 VAL166  LYS551  ARG553  GLY616  TRP617  ASP618  TYR619  PRO620  LYS621  CYS622 
 ASP623  PHE694  ASN695  SER759  ASP760  ASP761  ALA762  ILE779  LEU786  VAL792 
 PHE793  MET794  SER795  GLU796  ALA797  LYS798  CYS799  TRP800  GLU811  SER814 

> <Gold.Protein.RotatedAtoms>
  152.0687  133.4096  159.4449 H   0  0  0  0  0  0  0  0  0  0  0  0  # atno 6907 bound_to 6896
  150.6864  134.3116  159.4758 H   0  0  0  0  0  0  0  0  0  0  0  0  # atno 6908 bound_to 6896
  152.0946  134.9383  160.0621 H   0  0  0  0  0  0  0  0  0  0  0  0  # atno 6909 bound_to 6896
  145.1470  140.8809  143.3669 H   0  0  0  0  0  0  0  0  0  0  0  0  # atno 7974 bound_to 7965
  154.4786  140.2068  155.9818 H   0  0  0  0  0  0  0  0  0  0  0  0  # atno 8008 bound_to 7997
  156.1129  140.3226  155.8067 H   0  0  0  0  0  0  0  0  0  0  0  0  # atno 8009 bound_to 7997
  155.4604  140.0523  157.2982 H   0  0  0  0  0  0  0  0  0  0  0  0  # atno 8010 bound_to 7997
  139.8696  144.6500  150.8965 H   0  0  0  0  0  0  0  0  0  0  0  0  # atno 10167 bound_to 10162
  156.1739  130.6686  151.0216 H   0  0  0  0  0  0  0  0  0  0  0  0  # atno 10718 bound_to 10713
  154.7827  135.4813  153.9879 H   0  0  0  0  0  0  0  0  0  0  0  0  # atno 10763 bound_to 10752
  153.1516  135.6792  153.8880 H   0  0  0  0  0  0  0  0  0  0  0  0  # atno 10764 bound_to 10752
  153.8523  135.3165  155.3411 H   0  0  0  0  0  0  0  0  0  0  0  0  # atno 10765 bound_to 10752
  140.2340  134.8102  157.3345 H   0  0  0  0  0  0  0  0  0  0  0  0  # atno 11005 bound_to 11000
  145.0471  139.3212  143.5947 LP  0  0  0  0  0  0  0  0  0  0  0  0  # atno 17320 bound_to 7965
  146.3499  139.9866  142.8690 LP  0  0  0  0  0  0  0  0  0  0  0  0  # atno 17321 bound_to 7965
  140.7763  143.3675  151.1711 LP  0  0  0  0  0  0  0  0  0  0  0  0  # atno 17342 bound_to 10162
  139.7297  143.9092  152.3015 LP  0  0  0  0  0  0  0  0  0  0  0  0  # atno 17343 bound_to 10162
  157.6822  131.0835  150.7340 LP  0  0  0  0  0  0  0  0  0  0  0  0  # atno 17370 bound_to 10713
  156.7398  130.4735  149.5480 LP  0  0  0  0  0  0  0  0  0  0  0  0  # atno 17371 bound_to 10713
  140.1721  134.4596  155.7825 LP  0  0  0  0  0  0  0  0  0  0  0  0  # atno 17394 bound_to 11000
  141.2216  133.6946  156.7725 LP  0  0  0  0  0  0  0  0  0  0  0  0  # atno 17395 bound_to 11000

$$$$
