AV-unprocessed.smi:783|AV-procd|sdf|3716|dock3
  -GOLD-   22720 1143D 1   1.00000     0.00000
 Structure written by MMmdl.
 45 46  0  0  0  0  0  0  0  0  1 V2000
  147.5901  132.7291  153.7074 C   0  0  0  0  0  0  0  0  0  0  0  0
  147.0868  133.8983  152.8363 C   0  0  2  0  0  0  0  0  0  0  0  0
  146.6173  135.0972  153.6745 C   0  0  0  0  0  0  0  0  0  0  0  0
  145.5995  135.0205  154.3629 O   0  0  0  0  0  0  0  0  0  0  0  0
  147.3811  136.1997  153.6103 N   0  0  0  0  0  0  0  0  0  0  0  0
  147.1583  137.4453  154.3451 C   0  0  0  0  0  0  0  0  0  0  0  0
  148.2378  137.7008  155.4421 C   0  0  0  0  0  0  0  0  0  0  0  0
  149.6891  137.7329  154.8540 C   0  0  0  0  0  0  0  0  0  0  0  0
  150.4723  136.8435  155.1971 O   0  0  0  0  0  0  0  0  0  0  0  0
  150.1099  138.7115  154.0067 N   0  0  0  0  0  0  0  0  0  0  0  0
  149.3313  139.8245  153.4540 C   0  0  0  0  0  0  0  0  0  0  0  0
  151.5076  138.7279  153.5630 C   0  0  0  0  0  0  0  0  0  0  0  0
  147.8893  139.0392  156.1531 C   0  0  0  0  0  0  0  0  0  0  0  0
  148.5179  138.9911  157.5495 C   0  0  0  0  0  0  0  0  0  0  0  0
  148.6611  137.5042  157.8803 C   0  0  0  0  0  0  0  0  0  0  0  0
  148.1437  136.7397  156.6539 C   0  0  0  0  0  0  0  0  0  0  0  0
  146.0398  133.4891  151.9068 N   0  0  0  0  0  0  0  0  0  0  0  0
  146.0979  132.4958  150.9499 C   0  0  0  0  0  0  0  0  0  0  0  0
  144.9036  132.4919  150.2876 C   0  0  0  0  0  0  0  0  0  0  0  0
  144.1710  133.5420  150.9071 C   0  0  0  0  0  0  0  0  0  0  0  0
  144.8544  134.1416  151.8678 N   0  0  0  0  0  0  0  0  0  0  0  0
  148.4092  133.0470  154.3534 H   0  0  0  0  0  0  0  0  0  0  0  0
  147.9626  131.9143  153.0859 H   0  0  0  0  0  0  0  0  0  0  0  0
  146.8051  132.3231  154.3470 H   0  0  0  0  0  0  0  0  0  0  0  0
  147.9338  134.2333  152.2350 H   0  0  0  0  0  0  0  0  0  0  0  0
  148.1975  136.1685  153.0171 H   0  0  0  0  0  0  0  0  0  0  0  0
  147.1916  138.2496  153.6098 H   0  0  0  0  0  0  0  0  0  0  0  0
  146.1426  137.4837  154.7314 H   0  0  0  0  0  0  0  0  0  0  0  0
  148.2564  139.7546  153.5781 H   0  0  0  0  0  0  0  0  0  0  0  0
  149.5055  139.9055  152.3804 H   0  0  0  0  0  0  0  0  0  0  0  0
  149.6517  140.7615  153.9099 H   0  0  0  0  0  0  0  0  0  0  0  0
  151.7282  137.8477  152.9575 H   0  0  0  0  0  0  0  0  0  0  0  0
  152.1856  138.7352  154.4181 H   0  0  0  0  0  0  0  0  0  0  0  0
  151.7437  139.6073  152.9625 H   0  0  0  0  0  0  0  0  0  0  0  0
  148.1922  139.9285  155.5983 H   0  0  0  0  0  0  0  0  0  0  0  0
  146.8081  139.1210  156.2749 H   0  0  0  0  0  0  0  0  0  0  0  0
  149.4992  139.4671  157.5428 H   0  0  0  0  0  0  0  0  0  0  0  0
  147.9052  139.5174  158.2821 H   0  0  0  0  0  0  0  0  0  0  0  0
  149.7106  137.2671  158.0587 H   0  0  0  0  0  0  0  0  0  0  0  0
  148.1081  137.2306  158.7795 H   0  0  0  0  0  0  0  0  0  0  0  0
  147.1019  136.4620  156.8197 H   0  0  0  0  0  0  0  0  0  0  0  0
  148.6989  135.8104  156.5479 H   0  0  0  0  0  0  0  0  0  0  0  0
  146.9757  131.8798  150.8211 H   0  0  0  0  0  0  0  0  0  0  0  0
  144.6014  131.8417  149.4800 H   0  0  0  0  0  0  0  0  0  0  0  0
  143.1715  133.8871  150.6860 H   0  0  0  0  0  0  0  0  0  0  0  0
  1  2  1  0  0  0  0
  1 22  1  0  0  0  0
  1 23  1  0  0  0  0
  1 24  1  0  0  0  0
  2  3  1  0  0  0  0
  2 17  1  0  0  0  0
  2 25  1  0  0  0  0
  3  4  2  0  0  0  0
  3  5  1  0  0  0  0
  5  6  1  0  0  0  0
  5 26  1  0  0  0  0
  6  7  1  0  0  0  0
  6 27  1  0  0  0  0
  6 28  1  0  0  0  0
  7 16  1  0  0  0  0
  7  8  1  0  0  0  0
  7 13  1  0  0  0  0
  8  9  2  0  0  0  0
  8 10  1  0  0  0  0
 10 11  1  0  0  0  0
 10 12  1  0  0  0  0
 11 29  1  0  0  0  0
 11 30  1  0  0  0  0
 11 31  1  0  0  0  0
 12 32  1  0  0  0  0
 12 33  1  0  0  0  0
 12 34  1  0  0  0  0
 13 14  1  0  0  0  0
 13 35  1  0  0  0  0
 13 36  1  0  0  0  0
 14 15  1  0  0  0  0
 14 37  1  0  0  0  0
 14 38  1  0  0  0  0
 15 16  1  0  0  0  0
 15 39  1  0  0  0  0
 15 40  1  0  0  0  0
 16 41  1  0  0  0  0
 16 42  1  0  0  0  0
 17 21  1  0  0  0  0
 17 18  1  0  0  0  0
 18 19  2  0  0  0  0
 18 43  1  0  0  0  0
 19 20  1  0  0  0  0
 19 44  1  0  0  0  0
 20 21  2  0  0  0  0
 20 45  1  0  0  0  0
M  END
> <s_m_source_file>
AV-unprocessed.smi

> <i_m_source_file_index>
783

> <i_lp_mmshare_version>
43012

> <i_f3d_flags>
0

> <s_epik_input>
bjFbY0hdW2NIXVtjSF1uMVtDQEhdKFtDSDNdKUMoPU8pW05IXVtDSDJdQzIoQyg9TylOKFtDSDNdKVtDSDNdKVtDSDJdW0NIMl1bQ0gyXVtDSDJdMg==

> <s_epik_cmdline>
J2VwaWtfcHl0aG9uJywgJy1waCcsICc3LjAnLCAnLXRuJywgJzgnLCAnLW1hJywgJzIwMCcsICctbWV0YWxfYmluZGluZycsICctaW1hZScsICc8aW5maWxlLm1hZT4nLCAnLW9tYWUnLCAnPG91dGZpbGUubWFlPic=

> <r_lp_tautomer_probability>
1

> <r_epik_Ionization_Penalty>
3.31274e-05

> <r_epik_Ionization_Penalty_Charging>
0

> <r_epik_Ionization_Penalty_Neutral>
3.31274e-05

> <r_epik_State_Penalty>
-0

> <r_epik_Charging_Adjusted_Penalty>
0

> <i_epik_Tot_Q>
0

> <i_epik_Tot_abs_Q>
0

> <r_epik_Metal_State_Penalty>
-0

> <b_epik_Metal_Only>
0

> <s_lp_Force_Field>
OPLS_2005

> <r_lp_Energy>
39.8422

> <b_lp_Chiralities_Consistent>
1

> <s_lp_Variant>
AV-unprocessed.smi:783-1

> <Gold.Version>
5.8.1

> <Gold.Id.Protein>
6NUR|6NUR_protein|mol2

> <Gold.PLP.Fitness>
37.9844

> <Gold.PLP.PLP>
-27.6138

> <Gold.PLP.part.hbond>
-1.4459

> <Gold.PLP.part.metal>
0.0000

> <Gold.PLP.part.buried>
-4.4101

> <Gold.PLP.part.nonpolar>
-22.2446

> <Gold.PLP.part.repulsive>
0.2816

> <Gold.PLP.ligand.clash>
0.0000

> <Gold.PLP.ligand.torsion>
0.4372

> <Gold.PLP.Chemscore.Hbond>
1.6500

> <Gold.PLP.Chemscore.CHOScore>
1.9959

> <Gold.PLP.Chemscore.Metal>
0.0000

> <Gold.Chemscore.Hbonds>
donor molecule, donor type, donor heavy atom, donor atom, acceptor molecule, acceptor atom, score
      L1  H     5    26       P1  7948  0.62
      L1  C    18    43       P1 10747  1.00
      L1  C    20    45       P1 10186  1.00

> <Gold.PLP.Chemscore.Internal.Correction>
0.3071

> <Gold.Rescore>
     Score         DG    S(hbond)    S(metal)    S(lipo)     H(rot)  DE(clash)    DE(int)     intcor
     13.01     -14.54       1.91        0.00      63.18       1.84       0.54       0.99       ----

> <Gold.Chemscore.Fitness>
13.0144

> <Gold.Chemscore.DG>
-14.5364

> <Gold.Chemscore.ZeroCoef>
-5.4800

> <Gold.Chemscore.Hbond>
1.9123

> <Gold.Chemscore.Metal>
0.0000

> <Gold.Chemscore.Lipo>
63.1821

> <Gold.Chemscore.Internal_Hbond>
0.0000

> <Gold.Chemscore.DEClash>
0.5360

> <Gold.Chemscore.DEInternal>
0.9860

> <Gold.Chemscore.Rot>
1.8449

> <Gold.Chemscore.Internal.Correction>
   9.000000E+99

> <Gold.Chemscore.Hbonds>
donor molecule, donor type, donor heavy atom, donor atom, acceptor molecule, acceptor atom, score
      L1  H     5    26       P1  7948  0.62

> <Gold.Chemscore.Hbond.Weighted>
-6.3870

> <Gold.Chemscore.Metal.Weighted>
-0.0000

> <Gold.Chemscore.Lipo.Weighted>
-7.3923

> <Gold.Chemscore.Internal_Hbond.Weighted>
0.0000

> <Gold.Chemscore.DEClash.Weighted>
0.5360

> <Gold.Chemscore.DEInternal.Weighted>
0.9860

> <Gold.Chemscore.Rot.Weighted>
4.7229

> <Gold.Chemscore.Internal.Correction.Weighted>
   9.000000E+99

> <Gold.Protein.RotatedTorsions>
[ 6907 6896 6895 6894 ] final  143.45 input  -60.11 | X-H torsion
[ 7974 7965 7964 7962 ] final -176.15 input  175.53 | X-H torsion
[ 8008 7997 7996 7995 ] final  -19.03 input   59.86 | X-H torsion
[ 10167 10162 10161 10158 ] final  -23.42 input  -65.29 | X-H torsion
[ 10718 10713 10712 10709 ] final   95.99 input   66.30 | X-H torsion
[ 10763 10752 10751 10750 ] final -173.40 input  -60.55 | X-H torsion
[ 11005 11000 10999 10996 ] final   59.74 input  -57.11 | X-H torsion

> <Gold.Protein.ActiveResidues>
 VAL166  LYS551  ARG553  GLY616  TRP617  ASP618  TYR619  PRO620  LYS621  CYS622 
 ASP623  PHE694  ASN695  SER759  ASP760  ASP761  ALA762  ILE779  LEU786  VAL792 
 PHE793  MET794  SER795  GLU796  ALA797  LYS798  CYS799  TRP800  GLU811  SER814 

> <Gold.Protein.RotatedAtoms>
  152.2062  133.4877  159.5084 H   0  0  0  0  0  0  0  0  0  0  0  0  # atno 6907 bound_to 6896
  150.6980  134.1527  159.4155 H   0  0  0  0  0  0  0  0  0  0  0  0  # atno 6908 bound_to 6896
  151.9445  135.0198  160.0588 H   0  0  0  0  0  0  0  0  0  0  0  0  # atno 6909 bound_to 6896
  144.7127  140.1213  143.6405 H   0  0  0  0  0  0  0  0  0  0  0  0  # atno 7974 bound_to 7965
  154.4865  140.2100  155.9644 H   0  0  0  0  0  0  0  0  0  0  0  0  # atno 8008 bound_to 7997
  156.1243  140.3208  155.8223 H   0  0  0  0  0  0  0  0  0  0  0  0  # atno 8009 bound_to 7997
  155.4411  140.0510  157.3001 H   0  0  0  0  0  0  0  0  0  0  0  0  # atno 8010 bound_to 7997
  140.7288  143.4444  151.0608 H   0  0  0  0  0  0  0  0  0  0  0  0  # atno 10167 bound_to 10162
  157.6932  131.0563  150.4423 H   0  0  0  0  0  0  0  0  0  0  0  0  # atno 10718 bound_to 10713
  154.6083  135.2862  155.0461 H   0  0  0  0  0  0  0  0  0  0  0  0  # atno 10763 bound_to 10752
  154.1700  135.6474  153.5011 H   0  0  0  0  0  0  0  0  0  0  0  0  # atno 10764 bound_to 10752
  153.0184  135.5398  154.6827 H   0  0  0  0  0  0  0  0  0  0  0  0  # atno 10765 bound_to 10752
  140.0282  134.6051  155.9543 H   0  0  0  0  0  0  0  0  0  0  0  0  # atno 11005 bound_to 11000
  145.9368  139.2642  143.1292 LP  0  0  0  0  0  0  0  0  0  0  0  0  # atno 17320 bound_to 7965
  145.9465  140.8940  143.0281 LP  0  0  0  0  0  0  0  0  0  0  0  0  # atno 17321 bound_to 7965
  139.8115  143.7945  152.3171 LP  0  0  0  0  0  0  0  0  0  0  0  0  # atno 17342 bound_to 10162
  139.7996  144.7379  150.9843 LP  0  0  0  0  0  0  0  0  0  0  0  0  # atno 17343 bound_to 10162
  156.4780  130.4067  149.6478 LP  0  0  0  0  0  0  0  0  0  0  0  0  # atno 17370 bound_to 10713
  156.3534  130.7444  151.2406 LP  0  0  0  0  0  0  0  0  0  0  0  0  # atno 17371 bound_to 10713
  141.1815  133.6547  156.5041 LP  0  0  0  0  0  0  0  0  0  0  0  0  # atno 17394 bound_to 11000
  140.4270  134.7136  157.4921 LP  0  0  0  0  0  0  0  0  0  0  0  0  # atno 17395 bound_to 11000

$$$$
