AV-unprocessed.smi:2908|AV-procd|sdf|11168|dock7
  -GOLD-   2272016 53D 1   1.00000     0.00000
 Structure written by MMmdl.
 43 44  0  0  0  0  0  0  0  0  1 V2000
  150.8199  140.1453  154.7707 O   0  0  0  0  0  0  0  0  0  0  0  0
  151.5337  139.5835  155.6026 C   0  0  0  0  0  0  0  0  0  0  0  0
  151.8643  140.1617  156.7677 N   0  0  0  0  0  0  0  0  0  0  0  0
  151.3230  141.4168  157.2750 C   0  0  0  0  0  0  0  0  0  0  0  0
  151.5051  141.5332  158.7998 C   0  0  0  0  0  0  0  0  0  0  0  0
  151.4065  142.9610  159.3142 C   0  0  0  0  0  0  0  0  0  0  0  0
  152.4065  143.4898  160.1572 C   0  0  0  0  0  0  0  0  0  0  0  0
  152.2915  144.8292  160.5772 C   0  0  0  0  0  0  0  0  0  0  0  0
  151.1861  145.5847  160.1410 C   0  0  0  0  0  0  0  0  0  0  0  0
  150.2398  144.9640  159.3021 C   0  0  0  0  0  0  0  0  0  0  0  0
  150.3428  143.6821  158.8903 N   0  0  0  0  0  0  0  0  0  0  0  0
  152.0435  138.3377  155.4286 N   0  0  0  0  0  0  0  0  0  0  0  0
  152.7187  137.5268  156.4542 C   0  0  0  0  0  0  0  0  0  0  0  0
  151.7072  136.5063  157.0034 C   0  0  0  0  0  0  0  0  0  0  0  0
  151.1261  135.6187  155.8744 C   0  0  0  0  0  0  0  0  0  0  0  0
  150.0643  134.6310  156.4252 C   0  0  1  0  0  0  0  0  0  0  0  0
  148.8586  135.3165  156.7086 O   0  0  0  0  0  0  0  0  0  0  0  0
  149.7616  133.4104  155.5279 C   0  0  0  0  0  0  0  0  0  0  0  0
  148.7872  132.6848  156.0770 F   0  0  0  0  0  0  0  0  0  0  0  0
  149.3939  133.7697  154.2981 F   0  0  0  0  0  0  0  0  0  0  0  0
  150.8448  132.6383  155.4416 F   0  0  0  0  0  0  0  0  0  0  0  0
  150.6437  136.4813  154.6785 C   0  0  0  0  0  0  0  0  0  0  0  0
  151.7036  137.5187  154.2609 C   0  0  0  0  0  0  0  0  0  0  0  0
  152.4658  139.6443  157.3924 H   0  0  0  0  0  0  0  0  0  0  0  0
  151.8060  142.2531  156.7692 H   0  0  0  0  0  0  0  0  0  0  0  0
  150.2581  141.4770  157.0432 H   0  0  0  0  0  0  0  0  0  0  0  0
  150.7518  140.9250  159.3031 H   0  0  0  0  0  0  0  0  0  0  0  0
  152.4703  141.1154  159.0882 H   0  0  0  0  0  0  0  0  0  0  0  0
  153.2471  142.8866  160.4677 H   0  0  0  0  0  0  0  0  0  0  0  0
  153.0390  145.2700  161.2199 H   0  0  0  0  0  0  0  0  0  0  0  0
  151.0655  146.6146  160.4420 H   0  0  0  0  0  0  0  0  0  0  0  0
  149.3804  145.5129  158.9467 H   0  0  0  0  0  0  0  0  0  0  0  0
  153.5663  137.0065  156.0057 H   0  0  0  0  0  0  0  0  0  0  0  0
  153.1432  138.1111  157.2706 H   0  0  0  0  0  0  0  0  0  0  0  0
  152.1870  135.8846  157.7600 H   0  0  0  0  0  0  0  0  0  0  0  0
  150.9035  137.0423  157.5099 H   0  0  0  0  0  0  0  0  0  0  0  0
  151.9594  135.0185  155.5069 H   0  0  0  0  0  0  0  0  0  0  0  0
  150.4357  134.2452  157.3757 H   0  0  0  0  0  0  0  0  0  0  0  0
  148.5362  135.0219  157.5465 H   0  0  0  0  0  0  0  0  0  0  0  0
  150.4171  135.8511  153.8194 H   0  0  0  0  0  0  0  0  0  0  0  0
  149.7193  136.9997  154.9366 H   0  0  0  0  0  0  0  0  0  0  0  0
  151.3371  138.1148  153.4239 H   0  0  0  0  0  0  0  0  0  0  0  0
  152.5987  137.0150  153.8932 H   0  0  0  0  0  0  0  0  0  0  0  0
  1  2  2  0  0  0  0
  2  3  1  0  0  0  0
  2 12  1  0  0  0  0
  3  4  1  0  0  0  0
  3 24  1  0  0  0  0
  4  5  1  0  0  0  0
  4 25  1  0  0  0  0
  4 26  1  0  0  0  0
  5  6  1  0  0  0  0
  5 27  1  0  0  0  0
  5 28  1  0  0  0  0
  6 11  1  0  0  0  0
  6  7  2  0  0  0  0
  7  8  1  0  0  0  0
  7 29  1  0  0  0  0
  8  9  2  0  0  0  0
  8 30  1  0  0  0  0
  9 10  1  0  0  0  0
  9 31  1  0  0  0  0
 10 11  2  0  0  0  0
 10 32  1  0  0  0  0
 12 23  1  0  0  0  0
 12 13  1  0  0  0  0
 13 14  1  0  0  0  0
 13 33  1  0  0  0  0
 13 34  1  0  0  0  0
 14 15  1  0  0  0  0
 14 35  1  0  0  0  0
 14 36  1  0  0  0  0
 15 16  1  0  0  0  0
 15 22  1  0  0  0  0
 15 37  1  0  0  0  0
 16 17  1  0  0  0  0
 16 18  1  0  0  0  0
 16 38  1  0  0  0  0
 17 39  1  0  0  0  0
 18 19  1  0  0  0  0
 18 20  1  0  0  0  0
 18 21  1  0  0  0  0
 22 23  1  0  0  0  0
 22 40  1  0  0  0  0
 22 41  1  0  0  0  0
 23 42  1  0  0  0  0
 23 43  1  0  0  0  0
M  END
> <s_m_source_file>
AV-unprocessed.smi

> <i_m_source_file_index>
2908

> <i_lp_mmshare_version>
43012

> <i_f3d_flags>
0

> <s_epik_input>
RkMoRikoRilbQ0BASF0oW09IXSlbQ0hdKFtDSDJdW0NIMl0xKVtDSDJdW0NIMl1OMUMoPU8pW05IXVtDSDJdW0NIMl1jMltjSF1bY0hdW2NIXVtjSF1uMg==

> <s_epik_cmdline>
J2VwaWtfcHl0aG9uJywgJy1waCcsICc3LjAnLCAnLXRuJywgJzgnLCAnLW1hJywgJzIwMCcsICctbWV0YWxfYmluZGluZycsICctaW1hZScsICc8aW5maWxlLm1hZT4nLCAnLW9tYWUnLCAnPG91dGZpbGUubWFlPic=

> <r_epik_Ionization_Penalty>
0.0451198

> <r_epik_Ionization_Penalty_Charging>
0

> <r_epik_Ionization_Penalty_Neutral>
0.0451198

> <r_epik_State_Penalty>
0.0381178

> <r_epik_Charging_Adjusted_Penalty>
0.0381178

> <i_epik_Tot_Q>
0

> <i_epik_Tot_abs_Q>
0

> <r_epik_Metal_State_Penalty>
0.0354176

> <b_epik_Metal_Only>
0

> <s_lp_Force_Field>
OPLS_2005

> <r_lp_Energy>
37.4058

> <b_lp_Chiralities_Consistent>
1

> <s_lp_Variant>
AV-unprocessed.smi:2908-2

> <Gold.Version>
5.8.1

> <Gold.Id.Protein>
6NUR|6NUR_protein|mol2

> <Gold.PLP.Fitness>
43.9087

> <Gold.PLP.PLP>
-38.8981

> <Gold.PLP.part.hbond>
-1.0000

> <Gold.PLP.part.metal>
0.0000

> <Gold.PLP.part.buried>
-4.2720

> <Gold.PLP.part.nonpolar>
-34.4450

> <Gold.PLP.part.repulsive>
0.3324

> <Gold.PLP.ligand.clash>
0.0000

> <Gold.PLP.ligand.torsion>
0.6405

> <Gold.PLP.Chemscore.Hbond>
1.0000

> <Gold.PLP.Chemscore.CHOScore>
1.0000

> <Gold.PLP.Chemscore.Metal>
0.0000

> <Gold.Chemscore.Hbonds>
donor molecule, donor type, donor heavy atom, donor atom, acceptor molecule, acceptor atom, score
      P1  H  7989  7998       L1     1  1.00
      L1  C    10    32       P1  8029  1.00

> <Gold.PLP.Chemscore.Internal.Correction>
0.2916

> <Gold.Rescore>
     Score         DG    S(hbond)    S(metal)    S(lipo)     H(rot)  DE(clash)    DE(int)     intcor
     13.26     -14.79       1.00        0.00     101.55       2.30       0.12       1.41       ----

> <Gold.Chemscore.Fitness>
13.2581

> <Gold.Chemscore.DG>
-14.7897

> <Gold.Chemscore.ZeroCoef>
-5.4800

> <Gold.Chemscore.Hbond>
0.9965

> <Gold.Chemscore.Metal>
0.0000

> <Gold.Chemscore.Lipo>
101.5548

> <Gold.Chemscore.Internal_Hbond>
0.0000

> <Gold.Chemscore.DEClash>
0.1230

> <Gold.Chemscore.DEInternal>
1.4085

> <Gold.Chemscore.Rot>
2.3048

> <Gold.Chemscore.Internal.Correction>
   9.000000E+99

> <Gold.Chemscore.Hbonds>
donor molecule, donor type, donor heavy atom, donor atom, acceptor molecule, acceptor atom, score
      P1  H  7989  7998       L1     1  0.93

> <Gold.Chemscore.Hbond.Weighted>
-3.3282

> <Gold.Chemscore.Metal.Weighted>
-0.0000

> <Gold.Chemscore.Lipo.Weighted>
-11.8819

> <Gold.Chemscore.Internal_Hbond.Weighted>
0.0000

> <Gold.Chemscore.DEClash.Weighted>
0.1230

> <Gold.Chemscore.DEInternal.Weighted>
1.4085

> <Gold.Chemscore.Rot.Weighted>
5.9004

> <Gold.Chemscore.Internal.Correction.Weighted>
   9.000000E+99

> <Gold.Protein.RotatedTorsions>
[ 6907 6896 6895 6894 ] final  105.64 input  -60.11 | X-H torsion
[ 7974 7965 7964 7962 ] final -142.34 input  175.53 | X-H torsion
[ 8008 7997 7996 7995 ] final -133.00 input   59.86 | X-H torsion
[ 10167 10162 10161 10158 ] final  166.09 input  -65.29 | X-H torsion
[ 10718 10713 10712 10709 ] final -141.31 input   66.30 | X-H torsion
[ 10763 10752 10751 10750 ] final  -95.27 input  -60.55 | X-H torsion
[ 11005 11000 10999 10996 ] final -162.25 input  -57.11 | X-H torsion

> <Gold.Protein.ActiveResidues>
 VAL166  LYS551  ARG553  GLY616  TRP617  ASP618  TYR619  PRO620  LYS621  CYS622 
 ASP623  PHE694  ASN695  SER759  ASP760  ASP761  ALA762  ILE779  LEU786  VAL792 
 PHE793  MET794  SER795  GLU796  ALA797  LYS798  CYS799  TRP800  GLU811  SER814 

> <Gold.Protein.RotatedAtoms>
  152.5223  133.9499  159.7666 H   0  0  0  0  0  0  0  0  0  0  0  0  # atno 6907 bound_to 6896
  150.9811  133.6236  159.2729 H   0  0  0  0  0  0  0  0  0  0  0  0  # atno 6908 bound_to 6896
  151.3413  135.0870  159.9425 H   0  0  0  0  0  0  0  0  0  0  0  0  # atno 6909 bound_to 6896
  144.8451  140.5970  143.5427 H   0  0  0  0  0  0  0  0  0  0  0  0  # atno 7974 bound_to 7965
  155.3382  140.0470  157.3044 H   0  0  0  0  0  0  0  0  0  0  0  0  # atno 8008 bound_to 7997
  154.5291  140.2251  155.8801 H   0  0  0  0  0  0  0  0  0  0  0  0  # atno 8009 bound_to 7997
  156.1770  140.3083  155.9084 H   0  0  0  0  0  0  0  0  0  0  0  0  # atno 8010 bound_to 7997
  139.4918  144.4064  151.9350 H   0  0  0  0  0  0  0  0  0  0  0  0  # atno 10167 bound_to 10162
  156.3325  130.7594  151.1714 H   0  0  0  0  0  0  0  0  0  0  0  0  # atno 10718 bound_to 10713
  154.7133  135.5127  153.8699 H   0  0  0  0  0  0  0  0  0  0  0  0  # atno 10763 bound_to 10752
  153.0799  135.6628  154.0076 H   0  0  0  0  0  0  0  0  0  0  0  0  # atno 10764 bound_to 10752
  153.9914  135.3019  155.3391 H   0  0  0  0  0  0  0  0  0  0  0  0  # atno 10765 bound_to 10752
  140.6114  134.4845  157.5216 H   0  0  0  0  0  0  0  0  0  0  0  0  # atno 11005 bound_to 11000
  145.4614  139.1512  143.3864 LP  0  0  0  0  0  0  0  0  0  0  0  0  # atno 17320 bound_to 7965
  146.2737  140.4744  142.8804 LP  0  0  0  0  0  0  0  0  0  0  0  0  # atno 17321 bound_to 7965
  140.3504  144.3095  150.5950 LP  0  0  0  0  0  0  0  0  0  0  0  0  # atno 17342 bound_to 10162
  140.5490  143.2210  151.7959 LP  0  0  0  0  0  0  0  0  0  0  0  0  # atno 17343 bound_to 10162
  157.7433  131.0477  150.4958 LP  0  0  0  0  0  0  0  0  0  0  0  0  # atno 17370 bound_to 10713
  156.5127  130.4143  149.6293 LP  0  0  0  0  0  0  0  0  0  0  0  0  # atno 17371 bound_to 10713
  139.9191  134.8186  156.1270 LP  0  0  0  0  0  0  0  0  0  0  0  0  # atno 17394 bound_to 11000
  141.0805  133.6756  156.2327 LP  0  0  0  0  0  0  0  0  0  0  0  0  # atno 17395 bound_to 11000

$$$$
