AV-unprocessed.smi:283|AV-procd|sdf|2140|dock1
  -GOLD-   2262021463D 1   1.00000     0.00000
 Structure written by MMmdl.
 48 51  0  0  0  0  0  0  0  0  1 V2000
  144.3692  132.8789  150.2435 C   0  0  0  0  0  0  0  0  0  0  0  0
  145.4852  133.1615  151.2583 C   0  0  1  0  0  0  0  0  0  0  0  0
  145.0283  134.1524  152.2307 N   0  0  0  0  0  0  0  0  0  0  0  0
  145.4676  135.4297  152.1834 C   0  0  0  0  0  0  0  0  0  0  0  0
  145.5714  135.9666  150.9444 N   0  0  0  0  0  0  0  0  0  0  0  0
  145.9655  137.2337  150.7935 C   0  0  0  0  0  0  0  0  0  0  0  0
  146.2987  138.1200  151.7326 N   0  0  0  0  0  0  0  0  0  0  0  0
  146.2160  137.5825  152.9845 C   0  0  0  0  0  0  0  0  0  0  0  0
  145.8171  136.2510  153.2961 C   0  0  0  0  0  0  0  0  0  0  0  0
  145.8694  136.0684  154.6735 N   0  0  0  0  0  0  0  0  0  0  0  0
  146.2506  137.2246  155.1419 C   0  0  0  0  0  0  0  0  0  0  0  0
  146.4744  138.1962  154.1947 N   0  0  0  0  0  0  0  0  0  0  0  0
  146.8983  139.6122  154.4291 C   0  0  1  0  0  0  0  0  0  0  0  0
  147.2193  139.7825  155.7710 O   0  0  0  0  0  0  0  0  0  0  0  0
  148.1955  140.8114  155.8973 C   0  0  1  0  0  0  0  0  0  0  0  0
  149.2408  140.3818  156.9433 C   0  0  0  0  0  0  0  0  0  0  0  0
  148.6385  139.9214  158.1352 O   0  0  0  0  0  0  0  0  0  0  0  0
  148.7400  141.1086  154.4836 C   0  0  2  0  0  0  0  0  0  0  0  0
  148.2670  142.3716  154.0547 O   0  0  0  0  0  0  0  0  0  0  0  0
  148.1367  140.0124  153.6144 C   0  0  1  0  0  0  0  0  0  0  0  0
  149.0540  138.9512  153.4213 O   0  0  0  0  0  0  0  0  0  0  0  0
  145.9951  131.8510  151.8660 C   0  0  0  0  0  0  0  0  0  0  0  0
  145.3876  130.6236  151.5110 C   0  0  0  0  0  0  0  0  0  0  0  0
  145.8383  129.4115  152.0662 C   0  0  0  0  0  0  0  0  0  0  0  0
  146.9105  129.4111  152.9760 C   0  0  0  0  0  0  0  0  0  0  0  0
  147.5340  130.6234  153.3237 C   0  0  0  0  0  0  0  0  0  0  0  0
  147.0857  131.8403  152.7721 C   0  0  0  0  0  0  0  0  0  0  0  0
  147.8988  133.2971  153.2269 Cl  0  0  0  0  0  0  0  0  0  0  0  0
  146.0238  140.2181  154.1874 H   0  0  0  0  0  0  0  0  0  0  0  0
  147.6744  141.6865  156.2899 H   0  0  0  0  0  0  0  0  0  0  0  0
  149.8298  141.1259  154.4370 H   0  0  0  0  0  0  0  0  0  0  0  0
  147.8274  140.3701  152.6313 H   0  0  0  0  0  0  0  0  0  0  0  0
  144.7152  132.2076  149.4569 H   0  0  0  0  0  0  0  0  0  0  0  0
  144.0306  133.7979  149.7639 H   0  0  0  0  0  0  0  0  0  0  0  0
  143.5063  132.4135  150.7212 H   0  0  0  0  0  0  0  0  0  0  0  0
  146.2956  133.6360  150.7078 H   0  0  0  0  0  0  0  0  0  0  0  0
  144.6250  133.7618  153.0698 H   0  0  0  0  0  0  0  0  0  0  0  0
  146.0170  137.5905  149.7755 H   0  0  0  0  0  0  0  0  0  0  0  0
  146.3729  137.4032  156.2004 H   0  0  0  0  0  0  0  0  0  0  0  0
  149.8490  139.5700  156.5436 H   0  0  0  0  0  0  0  0  0  0  0  0
  149.9172  141.2060  157.1711 H   0  0  0  0  0  0  0  0  0  0  0  0
  148.9799  140.4278  158.8576 H   0  0  0  0  0  0  0  0  0  0  0  0
  148.7077  143.0419  154.5544 H   0  0  0  0  0  0  0  0  0  0  0  0
  149.4779  139.0713  152.5852 H   0  0  0  0  0  0  0  0  0  0  0  0
  144.5652  130.6040  150.8111 H   0  0  0  0  0  0  0  0  0  0  0  0
  145.3608  128.4821  151.7926 H   0  0  0  0  0  0  0  0  0  0  0  0
  147.2582  128.4819  153.4027 H   0  0  0  0  0  0  0  0  0  0  0  0
  148.3625  130.6185  154.0165 H   0  0  0  0  0  0  0  0  0  0  0  0
  1  2  1  0  0  0  0
  1 33  1  0  0  0  0
  1 34  1  0  0  0  0
  1 35  1  0  0  0  0
  2  3  1  0  0  0  0
  2 22  1  0  0  0  0
  2 36  1  0  0  0  0
  3  4  1  0  0  0  0
  3 37  1  0  0  0  0
  4  9  1  0  0  0  0
  4  5  2  0  0  0  0
  5  6  1  0  0  0  0
  6  7  2  0  0  0  0
  6 38  1  0  0  0  0
  7  8  1  0  0  0  0
  8 12  1  0  0  0  0
  8  9  2  0  0  0  0
  9 10  1  0  0  0  0
 10 11  2  0  0  0  0
 11 12  1  0  0  0  0
 11 39  1  0  0  0  0
 12 13  1  0  0  0  0
 13 29  1  0  0  0  0
 13 20  1  0  0  0  0
 13 14  1  0  0  0  0
 14 15  1  0  0  0  0
 15 30  1  0  0  0  0
 15 16  1  0  0  0  0
 15 18  1  0  0  0  0
 16 17  1  0  0  0  0
 16 40  1  0  0  0  0
 16 41  1  0  0  0  0
 17 42  1  0  0  0  0
 18 31  1  0  0  0  0
 18 19  1  0  0  0  0
 18 20  1  0  0  0  0
 19 43  1  0  0  0  0
 20 32  1  0  0  0  0
 20 21  1  0  0  0  0
 21 44  1  0  0  0  0
 22 27  1  0  0  0  0
 22 23  2  0  0  0  0
 23 24  1  0  0  0  0
 23 45  1  0  0  0  0
 24 25  2  0  0  0  0
 24 46  1  0  0  0  0
 25 26  1  0  0  0  0
 25 47  1  0  0  0  0
 26 27  2  0  0  0  0
 26 48  1  0  0  0  0
 27 28  1  0  0  0  0
M  END
> <s_m_source_file>
AV-unprocessed.smi

> <i_m_source_file_index>
283

> <i_lp_mmshare_version>
43012

> <i_f3d_flags>
0

> <s_epik_input>
Q2xjMVtjSF1bY0hdW2NIXVtjSF1jMVtDQEhdKFtDSDNdKVtOSF1jKG5bY0hdbjIpYyhjMjMpbltjSF1uM1tDQEBIXTRPW0NASF0oW0NIMl1bT0hdKVtDQEBIXShbT0hdKVtDQEhdNFtPSF0=

> <s_epik_cmdline>
J2VwaWtfcHl0aG9uJywgJy1waCcsICc3LjAnLCAnLXRuJywgJzgnLCAnLW1hJywgJzIwMCcsICctbWV0YWxfYmluZGluZycsICctaW1hZScsICc8aW5maWxlLm1hZT4nLCAnLW9tYWUnLCAnPG91dGZpbGUubWFlPic=

> <r_lp_tautomer_probability>
1

> <r_epik_Ionization_Penalty>
0.000266407

> <r_epik_Ionization_Penalty_Charging>
0

> <r_epik_Ionization_Penalty_Neutral>
0.000266407

> <r_epik_State_Penalty>
-0

> <r_epik_Charging_Adjusted_Penalty>
0

> <i_epik_Tot_Q>
0

> <i_epik_Tot_abs_Q>
0

> <r_epik_Metal_State_Penalty>
-0

> <b_epik_Metal_Only>
0

> <s_epik_Chemistry_Notes>
This compound contains an acetal/aminal-like group ( X-CH(R)-Y where X, Y are N, S, or O) that may be acid/base labile, releasing an aldehyde.

> <s_lp_Force_Field>
OPLS_2005

> <r_lp_Energy>
47.3301

> <b_lp_Chiralities_Consistent>
1

> <s_lp_Variant>
AV-unprocessed.smi:283-16

> <Gold.Version>
5.8.1

> <Gold.Id.Protein>
6NUR|6NUR_protein|mol2

> <Gold.PLP.Fitness>
43.7305

> <Gold.PLP.PLP>
-37.7161

> <Gold.PLP.part.hbond>
-4.4600

> <Gold.PLP.part.metal>
0.0000

> <Gold.PLP.part.buried>
-1.7202

> <Gold.PLP.part.nonpolar>
-32.8743

> <Gold.PLP.part.repulsive>
0.7493

> <Gold.PLP.ligand.clash>
0.0000

> <Gold.PLP.ligand.torsion>
0.6270

> <Gold.PLP.Chemscore.Hbond>
2.0204

> <Gold.PLP.Chemscore.CHOScore>
0.3793

> <Gold.PLP.Chemscore.Metal>
0.0000

> <Gold.Chemscore.Hbonds>
donor molecule, donor type, donor heavy atom, donor atom, acceptor molecule, acceptor atom, score
      L1  H    19    43       P1  8028  1.00
      L1  H    21    44       P1  7957  0.96
      P1  H  8011  8017       L1    19  0.03
      L1  C     6    38       P1 10171  0.32

> <Gold.PLP.Chemscore.Internal.Correction>
0.0694

> <Gold.Rescore>
     Score         DG    S(hbond)    S(metal)    S(lipo)     H(rot)  DE(clash)    DE(int)     intcor
      9.62     -11.58       1.98        0.00      85.24       4.10       1.32       0.64       ----

> <Gold.Chemscore.Fitness>
9.6203

> <Gold.Chemscore.DG>
-11.5811

> <Gold.Chemscore.ZeroCoef>
-5.4800

> <Gold.Chemscore.Hbond>
1.9807

> <Gold.Chemscore.Metal>
0.0000

> <Gold.Chemscore.Lipo>
85.2442

> <Gold.Chemscore.Internal_Hbond>
0.0000

> <Gold.Chemscore.DEClash>
1.3178

> <Gold.Chemscore.DEInternal>
0.6430

> <Gold.Chemscore.Rot>
4.0968

> <Gold.Chemscore.Internal.Correction>
   9.000000E+99

> <Gold.Chemscore.Hbonds>
donor molecule, donor type, donor heavy atom, donor atom, acceptor molecule, acceptor atom, score
      L1  H    19    43       P1  8028  0.95
      L1  H    21    44       P1  7957  0.88

> <Gold.Chemscore.Hbond.Weighted>
-6.6154

> <Gold.Chemscore.Metal.Weighted>
-0.0000

> <Gold.Chemscore.Lipo.Weighted>
-9.9736

> <Gold.Chemscore.Internal_Hbond.Weighted>
0.0000

> <Gold.Chemscore.DEClash.Weighted>
1.3178

> <Gold.Chemscore.DEInternal.Weighted>
0.6430

> <Gold.Chemscore.Rot.Weighted>
10.4879

> <Gold.Chemscore.Internal.Correction.Weighted>
   9.000000E+99

> <Gold.Protein.RotatedTorsions>
[ 6907 6896 6895 6894 ] final  152.15 input  -60.11 | X-H torsion
[ 7974 7965 7964 7962 ] final  -60.51 input  175.53 | X-H torsion
[ 8008 7997 7996 7995 ] final   87.23 input   59.86 | X-H torsion
[ 10167 10162 10161 10158 ] final   81.49 input  -65.29 | X-H torsion
[ 10718 10713 10712 10709 ] final  -28.97 input   66.30 | X-H torsion
[ 10763 10752 10751 10750 ] final   -7.20 input  -60.55 | X-H torsion
[ 11005 11000 10999 10996 ] final    8.59 input  -57.11 | X-H torsion

> <Gold.Protein.ActiveResidues>
 VAL166  LYS551  ARG553  GLY616  TRP617  ASP618  TYR619  PRO620  LYS621  CYS622 
 ASP623  PHE694  ASN695  SER759  ASP760  ASP761  ALA762  ILE779  LEU786  VAL792 
 PHE793  MET794  SER795  GLU796  ALA797  LYS798  CYS799  TRP800  GLU811  SER814 

> <Gold.Protein.RotatedAtoms>
  152.0908  133.4199  159.4542 H   0  0  0  0  0  0  0  0  0  0  0  0  # atno 6907 bound_to 6896
  150.6862  134.2874  159.4661 H   0  0  0  0  0  0  0  0  0  0  0  0  # atno 6908 bound_to 6896
  152.0725  134.9524  160.0625 H   0  0  0  0  0  0  0  0  0  0  0  0  # atno 6909 bound_to 6896
  145.8147  140.8577  143.0164 H   0  0  0  0  0  0  0  0  0  0  0  0  # atno 7974 bound_to 7965
  155.9728  140.3384  155.6591 H   0  0  0  0  0  0  0  0  0  0  0  0  # atno 8008 bound_to 7997
  155.6652  140.0720  157.2558 H   0  0  0  0  0  0  0  0  0  0  0  0  # atno 8009 bound_to 7997
  154.4171  140.1701  156.1807 H   0  0  0  0  0  0  0  0  0  0  0  0  # atno 8010 bound_to 7997
  139.9387  144.6104  150.8273 H   0  0  0  0  0  0  0  0  0  0  0  0  # atno 10167 bound_to 10162
  156.4184  130.4421  149.7201 H   0  0  0  0  0  0  0  0  0  0  0  0  # atno 10718 bound_to 10713
  153.4230  135.7010  153.6281 H   0  0  0  0  0  0  0  0  0  0  0  0  # atno 10763 bound_to 10752
  153.4728  135.3711  155.2400 H   0  0  0  0  0  0  0  0  0  0  0  0  # atno 10764 bound_to 10752
  154.8723  135.4047  154.3601 H   0  0  0  0  0  0  0  0  0  0  0  0  # atno 10765 bound_to 10752
  140.5353  134.0427  155.7886 H   0  0  0  0  0  0  0  0  0  0  0  0  # atno 11005 bound_to 11000
  144.6753  140.0446  143.7480 LP  0  0  0  0  0  0  0  0  0  0  0  0  # atno 17320 bound_to 7965
  145.9740  139.2891  143.1082 LP  0  0  0  0  0  0  0  0  0  0  0  0  # atno 17321 bound_to 7965
  140.7617  143.3180  151.2687 LP  0  0  0  0  0  0  0  0  0  0  0  0  # atno 17342 bound_to 10162
  139.6722  144.0000  152.2760 LP  0  0  0  0  0  0  0  0  0  0  0  0  # atno 17343 bound_to 10162
  156.4152  130.7742  151.2756 LP  0  0  0  0  0  0  0  0  0  0  0  0  # atno 17370 bound_to 10713
  157.7508  131.0199  150.3687 LP  0  0  0  0  0  0  0  0  0  0  0  0  # atno 17371 bound_to 10713
  141.1258  133.9385  157.2638 LP  0  0  0  0  0  0  0  0  0  0  0  0  # atno 17394 bound_to 11000
  139.9532  135.0171  156.9055 LP  0  0  0  0  0  0  0  0  0  0  0  0  # atno 17395 bound_to 11000

$$$$
