AV-unprocessed.smi:2091|AV-procd|sdf|8539|dock4
  -GOLD-   2272011263D 1   1.00000     0.00000
 Structure written by MMmdl.
 36 37  0  0  0  0  0  0  0  0  1 V2000
  150.7762  140.5134  155.2102 O   0  0  0  0  0  0  0  0  0  0  0  0
  150.0301  141.4897  155.2958 C   0  0  0  0  0  0  0  0  0  0  0  0
  148.8953  141.6989  154.2836 C   0  0  0  0  0  0  0  0  0  0  0  0
  147.5678  141.4265  154.8533 N   0  0  0  0  0  0  0  0  0  0  0  0
  147.1818  142.0187  156.0473 C   0  0  0  0  0  0  0  0  0  0  0  0
  145.9710  141.8207  156.6200 C   0  0  0  0  0  0  0  0  0  0  0  0
  144.9877  140.9486  155.9866 C   0  0  0  0  0  0  0  0  0  0  0  0
  143.8669  140.7056  156.4279 O   0  0  0  0  0  0  0  0  0  0  0  0
  145.4125  140.3737  154.7860 N   0  0  0  0  0  0  0  0  0  0  0  0
  146.6581  140.5747  154.1894 C   0  0  0  0  0  0  0  0  0  0  0  0
  146.9306  140.0208  153.1251 O   0  0  0  0  0  0  0  0  0  0  0  0
  150.1581  142.4312  156.2445 N   0  0  0  0  0  0  0  0  0  0  0  0
  151.1478  142.4203  157.3240 C   0  0  1  0  0  0  0  0  0  0  0  0
  151.0975  143.8003  158.0188 C   0  0  0  0  0  0  0  0  0  0  0  0
  152.3828  144.1559  158.7866 C   0  0  0  0  0  0  0  0  0  0  0  0
  152.6941  143.2509  159.9886 C   0  0  0  0  0  0  0  0  0  0  0  0
  152.9367  141.7801  159.6090 C   0  0  0  0  0  0  0  0  0  0  0  0
  151.6919  141.0705  159.3452 N   0  0  0  0  0  0  0  0  0  0  0  0
  150.8174  141.3179  158.3581 C   0  0  0  0  0  0  0  0  0  0  0  0
  149.7679  140.6791  158.2836 O   0  0  0  0  0  0  0  0  0  0  0  0
  144.7641  139.7647  154.3088 H   0  0  0  0  0  0  0  0  0  0  0  0
  148.9301  142.7161  153.8876 H   0  0  0  0  0  0  0  0  0  0  0  0
  149.0826  141.0500  153.4270 H   0  0  0  0  0  0  0  0  0  0  0  0
  147.8766  142.6765  156.5499 H   0  0  0  0  0  0  0  0  0  0  0  0
  145.7279  142.3113  157.5514 H   0  0  0  0  0  0  0  0  0  0  0  0
  149.5003  143.1969  156.2408 H   0  0  0  0  0  0  0  0  0  0  0  0
  152.1379  142.2502  156.8972 H   0  0  0  0  0  0  0  0  0  0  0  0
  150.9551  144.5737  157.2622 H   0  0  0  0  0  0  0  0  0  0  0  0
  150.2304  143.8757  158.6777 H   0  0  0  0  0  0  0  0  0  0  0  0
  153.2288  144.1469  158.0984 H   0  0  0  0  0  0  0  0  0  0  0  0
  152.3014  145.1840  159.1409 H   0  0  0  0  0  0  0  0  0  0  0  0
  153.5912  143.6335  160.4761 H   0  0  0  0  0  0  0  0  0  0  0  0
  151.8981  143.3220  160.7314 H   0  0  0  0  0  0  0  0  0  0  0  0
  153.6139  141.6968  158.7579 H   0  0  0  0  0  0  0  0  0  0  0  0
  153.4256  141.2712  160.4400 H   0  0  0  0  0  0  0  0  0  0  0  0
  151.4508  140.3376  159.9967 H   0  0  0  0  0  0  0  0  0  0  0  0
  1  2  2  0  0  0  0
  2  3  1  0  0  0  0
  2 12  1  0  0  0  0
  3  4  1  0  0  0  0
  3 22  1  0  0  0  0
  3 23  1  0  0  0  0
  4 10  1  0  0  0  0
  4  5  1  0  0  0  0
  5  6  2  0  0  0  0
  5 24  1  0  0  0  0
  6  7  1  0  0  0  0
  6 25  1  0  0  0  0
  7  8  2  0  0  0  0
  7  9  1  0  0  0  0
  9 21  1  0  0  0  0
  9 10  1  0  0  0  0
 10 11  2  0  0  0  0
 12 13  1  0  0  0  0
 12 26  1  0  0  0  0
 13 19  1  0  0  0  0
 13 14  1  0  0  0  0
 13 27  1  0  0  0  0
 14 15  1  0  0  0  0
 14 28  1  0  0  0  0
 14 29  1  0  0  0  0
 15 16  1  0  0  0  0
 15 30  1  0  0  0  0
 15 31  1  0  0  0  0
 16 17  1  0  0  0  0
 16 32  1  0  0  0  0
 16 33  1  0  0  0  0
 17 18  1  0  0  0  0
 17 34  1  0  0  0  0
 17 35  1  0  0  0  0
 18 19  1  0  0  0  0
 18 36  1  0  0  0  0
 19 20  2  0  0  0  0
M  END
> <s_m_source_file>
AV-unprocessed.smi

> <i_m_source_file_index>
2091

> <i_lp_mmshare_version>
43012

> <i_f3d_flags>
0

> <s_epik_input>
Tz1jMVtuSF1jKD1PKVtjSF1bY0hdbjFbQ0gyXUMoPU8pW05IXVtDQEBIXTJbQ0gyXVtDSDJdW0NIMl1bQ0gyXVtOSF1DMj1P

> <s_epik_cmdline>
J2VwaWtfcHl0aG9uJywgJy1waCcsICc3LjAnLCAnLXRuJywgJzgnLCAnLW1hJywgJzIwMCcsICctbWV0YWxfYmluZGluZycsICctaW1hZScsICc8aW5maWxlLm1hZT4nLCAnLW9tYWUnLCAnPG91dGZpbGUubWFlPic=

> <r_lp_tautomer_probability>
0.999537

> <r_epik_Ionization_Penalty>
0.00356328

> <r_epik_Ionization_Penalty_Charging>
0.00356323

> <r_epik_Ionization_Penalty_Neutral>
5.33217e-08

> <r_epik_State_Penalty>
0.00253125

> <r_epik_Charging_Adjusted_Penalty>
0.00609448

> <i_epik_Tot_Q>
0

> <i_epik_Tot_abs_Q>
0

> <r_epik_Metal_State_Penalty>
0.368636

> <b_epik_Metal_Only>
0

> <s_lp_Force_Field>
OPLS_2005

> <r_lp_Energy>
10.1396

> <b_lp_Chiralities_Consistent>
1

> <s_lp_Variant>
AV-unprocessed.smi:2091-2

> <Gold.Version>
5.8.1

> <Gold.Id.Protein>
6NUR|6NUR_protein|mol2

> <Gold.PLP.Fitness>
42.2491

> <Gold.PLP.PLP>
-33.5145

> <Gold.PLP.part.hbond>
-3.0000

> <Gold.PLP.part.metal>
0.0000

> <Gold.PLP.part.buried>
-2.8911

> <Gold.PLP.part.nonpolar>
-28.2552

> <Gold.PLP.part.repulsive>
0.6130

> <Gold.PLP.ligand.clash>
0.0000

> <Gold.PLP.ligand.torsion>
0.3408

> <Gold.PLP.Chemscore.Hbond>
2.2016

> <Gold.PLP.Chemscore.CHOScore>
0.9365

> <Gold.PLP.Chemscore.Metal>
0.0000

> <Gold.Chemscore.Hbonds>
donor molecule, donor type, donor heavy atom, donor atom, acceptor molecule, acceptor atom, score
      L1  H     9    21       P1 10175  0.20
      L1  H    12    26       P1  8028  1.00
      P1  H  7989  7998       L1     1  0.99
      L1  C     5    24       P1  8028  0.94

> <Gold.PLP.Chemscore.Internal.Correction>
0.0018

> <Gold.Rescore>
     Score         DG    S(hbond)    S(metal)    S(lipo)     H(rot)  DE(clash)    DE(int)     intcor
     14.10     -16.56       2.40        0.00      67.40       1.88       2.03       0.44       ----

> <Gold.Chemscore.Fitness>
14.0996

> <Gold.Chemscore.DG>
-16.5640

> <Gold.Chemscore.ZeroCoef>
-5.4800

> <Gold.Chemscore.Hbond>
2.4020

> <Gold.Chemscore.Metal>
0.0000

> <Gold.Chemscore.Lipo>
67.3975

> <Gold.Chemscore.Internal_Hbond>
0.0000

> <Gold.Chemscore.DEClash>
2.0252

> <Gold.Chemscore.DEInternal>
0.4392

> <Gold.Chemscore.Rot>
1.8844

> <Gold.Chemscore.Internal.Correction>
   9.000000E+99

> <Gold.Chemscore.Hbonds>
donor molecule, donor type, donor heavy atom, donor atom, acceptor molecule, acceptor atom, score
      L1  H     9    21       P1 10175  0.19
      L1  H    12    26       P1  8028  0.97
      P1  H  7989  7998       L1     1  0.24

> <Gold.Chemscore.Hbond.Weighted>
-8.0227

> <Gold.Chemscore.Metal.Weighted>
-0.0000

> <Gold.Chemscore.Lipo.Weighted>
-7.8855

> <Gold.Chemscore.Internal_Hbond.Weighted>
0.0000

> <Gold.Chemscore.DEClash.Weighted>
2.0252

> <Gold.Chemscore.DEInternal.Weighted>
0.4392

> <Gold.Chemscore.Rot.Weighted>
4.8242

> <Gold.Chemscore.Internal.Correction.Weighted>
   9.000000E+99

> <Gold.Protein.RotatedTorsions>
[ 6907 6896 6895 6894 ] final  106.60 input  -60.11 | X-H torsion
[ 7974 7965 7964 7962 ] final -116.92 input  175.53 | X-H torsion
[ 8008 7997 7996 7995 ] final -157.70 input   59.86 | X-H torsion
[ 10167 10162 10161 10158 ] final   66.34 input  -65.29 | X-H torsion
[ 10718 10713 10712 10709 ] final  -14.95 input   66.30 | X-H torsion
[ 10763 10752 10751 10750 ] final  143.57 input  -60.55 | X-H torsion
[ 11005 11000 10999 10996 ] final   15.71 input  -57.11 | X-H torsion

> <Gold.Protein.ActiveResidues>
 VAL166  LYS551  ARG553  GLY616  TRP617  ASP618  TYR619  PRO620  LYS621  CYS622 
 ASP623  PHE694  ASN695  SER759  ASP760  ASP761  ALA762  ILE779  LEU786  VAL792 
 PHE793  MET794  SER795  GLU796  ALA797  LYS798  CYS799  TRP800  GLU811  SER814 

> <Gold.Protein.RotatedAtoms>
  152.5187  133.9357  159.7601 H   0  0  0  0  0  0  0  0  0  0  0  0  # atno 6907 bound_to 6896
  150.9698  133.6348  159.2747 H   0  0  0  0  0  0  0  0  0  0  0  0  # atno 6908 bound_to 6896
  151.3563  135.0900  159.9473 H   0  0  0  0  0  0  0  0  0  0  0  0  # atno 6909 bound_to 6896
  145.0912  140.8491  143.3981 H   0  0  0  0  0  0  0  0  0  0  0  0  # atno 7974 bound_to 7965
  155.7364  140.0808  157.2266 H   0  0  0  0  0  0  0  0  0  0  0  0  # atno 8008 bound_to 7997
  154.4027  140.1586  156.2621 H   0  0  0  0  0  0  0  0  0  0  0  0  # atno 8009 bound_to 7997
  155.9061  140.3407  155.6066 H   0  0  0  0  0  0  0  0  0  0  0  0  # atno 8010 bound_to 7997
  140.1015  144.4899  150.7034 H   0  0  0  0  0  0  0  0  0  0  0  0  # atno 10167 bound_to 10162
  156.6086  130.4843  149.6210 H   0  0  0  0  0  0  0  0  0  0  0  0  # atno 10718 bound_to 10713
  153.9746  135.2947  155.3425 H   0  0  0  0  0  0  0  0  0  0  0  0  # atno 10763 bound_to 10752
  154.7303  135.5070  153.8956 H   0  0  0  0  0  0  0  0  0  0  0  0  # atno 10764 bound_to 10752
  153.0883  135.6700  154.0017 H   0  0  0  0  0  0  0  0  0  0  0  0  # atno 10765 bound_to 10752
  140.4552  134.1183  155.7708 H   0  0  0  0  0  0  0  0  0  0  0  0  # atno 11005 bound_to 11000
  145.1064  139.2787  143.5660 LP  0  0  0  0  0  0  0  0  0  0  0  0  # atno 17320 bound_to 7965
  146.3531  140.0646  142.8627 LP  0  0  0  0  0  0  0  0  0  0  0  0  # atno 17321 bound_to 7965
  140.6975  143.2413  151.4959 LP  0  0  0  0  0  0  0  0  0  0  0  0  # atno 17342 bound_to 10162
  139.5669  144.2022  152.1778 LP  0  0  0  0  0  0  0  0  0  0  0  0  # atno 17343 bound_to 10162
  156.2408  130.6850  151.1554 LP  0  0  0  0  0  0  0  0  0  0  0  0  # atno 17370 bound_to 10713
  157.7260  131.0649  150.5928 LP  0  0  0  0  0  0  0  0  0  0  0  0  # atno 17371 bound_to 10713
  141.1646  133.8727  157.1751 LP  0  0  0  0  0  0  0  0  0  0  0  0  # atno 17394 bound_to 11000
  139.9981  135.0039  157.0128 LP  0  0  0  0  0  0  0  0  0  0  0  0  # atno 17395 bound_to 11000

$$$$
