AV-unprocessed.smi:2216|AV-procd|sdf|8966|dock5
  -GOLD-   2272012183D 1   1.00000     0.00000
 Structure written by MMmdl.
 40 41  0  0  0  0  0  0  0  0  2 V2000
  143.7938  143.6801  162.8237 C   0  0  0  0  0  0  0  0  0  0  0  0
  144.1742  144.0603  161.4027 C   0  0  0  0  0  0  0  0  0  0  0  0
  145.4635  144.0408  160.9807 C   0  0  0  0  0  0  0  0  0  0  0  0
  145.8378  144.4065  159.6146 C   0  0  0  0  0  0  0  0  0  0  0  0
  147.1269  144.4270  159.0663 N   0  0  0  0  0  0  0  0  0  0  0  0
  148.0705  143.4692  159.0981 C   0  0  0  0  0  0  0  0  0  0  0  0
  147.9621  142.3646  159.6299 O   0  0  0  0  0  0  0  0  0  0  0  0
  149.1804  143.8719  158.4632 N   0  0  0  0  0  0  0  0  0  0  0  0
  150.3960  143.0803  158.3131 C   0  0  0  0  0  0  0  0  0  0  0  0
  151.5211  143.5901  159.2303 C   0  0  0  0  0  0  0  0  0  0  0  0
  152.1806  142.4677  160.0471 C   0  0  2  0  0  0  0  0  0  0  0  0
  152.9399  143.0163  161.2713 C   0  0  0  0  0  0  0  0  0  0  0  0
  153.6499  141.8821  162.0193 C   0  0  0  0  0  0  0  0  0  0  0  0
  154.5228  141.0865  161.0429 C   0  0  0  0  0  0  0  0  0  0  0  0
  153.6939  140.6389  159.8284 C   0  0  0  0  0  0  0  0  0  0  0  0
  153.0974  141.7717  159.2042 O   0  0  0  0  0  0  0  0  0  0  0  0
  144.7487  144.7596  158.8438 C   0  0  0  0  0  0  0  0  0  0  0  0
  143.4438  144.8028  159.1893 N   0  5  0  0  0  0  0  0  0  0  0  0
  143.1052  144.4609  160.4656 C   0  0  0  0  0  0  0  0  0  0  0  0
  141.9373  144.4788  160.8525 O   0  0  0  0  0  0  0  0  0  0  0  0
  144.6710  143.4094  163.4119 H   0  0  0  0  0  0  0  0  0  0  0  0
  143.1139  142.8275  162.8211 H   0  0  0  0  0  0  0  0  0  0  0  0
  143.2988  144.5142  163.3218 H   0  0  0  0  0  0  0  0  0  0  0  0
  146.2159  143.7453  161.6932 H   0  0  0  0  0  0  0  0  0  0  0  0
  147.3684  145.2817  158.5863 H   0  0  0  0  0  0  0  0  0  0  0  0
  149.1847  144.7952  158.0551 H   0  0  0  0  0  0  0  0  0  0  0  0
  150.1853  142.0283  158.5128 H   0  0  0  0  0  0  0  0  0  0  0  0
  150.7075  143.1405  157.2701 H   0  0  0  0  0  0  0  0  0  0  0  0
  152.2779  144.1046  158.6364 H   0  0  0  0  0  0  0  0  0  0  0  0
  151.1127  144.3334  159.9165 H   0  0  0  0  0  0  0  0  0  0  0  0
  151.4056  141.7764  160.3836 H   0  0  0  0  0  0  0  0  0  0  0  0
  153.6746  143.7552  160.9483 H   0  0  0  0  0  0  0  0  0  0  0  0
  152.2534  143.5315  161.9440 H   0  0  0  0  0  0  0  0  0  0  0  0
  154.2554  142.2827  162.8326 H   0  0  0  0  0  0  0  0  0  0  0  0
  152.9101  141.2220  162.4740 H   0  0  0  0  0  0  0  0  0  0  0  0
  155.3549  141.7064  160.7067 H   0  0  0  0  0  0  0  0  0  0  0  0
  154.9582  140.2216  161.5438 H   0  0  0  0  0  0  0  0  0  0  0  0
  154.3332  140.1339  159.1040 H   0  0  0  0  0  0  0  0  0  0  0  0
  152.9232  139.9254  160.1236 H   0  0  0  0  0  0  0  0  0  0  0  0
  144.9573  145.0523  157.7920 H   0  0  0  0  0  0  0  0  0  0  0  0
  1  2  1  0  0  0  0
  1 21  1  0  0  0  0
  1 22  1  0  0  0  0
  1 23  1  0  0  0  0
  2 19  1  0  0  0  0
  2  3  2  0  0  0  0
  3  4  1  0  0  0  0
  3 24  1  0  0  0  0
  4  5  1  0  0  0  0
  4 17  2  0  0  0  0
  5  6  1  0  0  0  0
  5 25  1  0  0  0  0
  6  7  2  0  0  0  0
  6  8  1  0  0  0  0
  8  9  1  0  0  0  0
  8 26  1  0  0  0  0
  9 10  1  0  0  0  0
  9 27  1  0  0  0  0
  9 28  1  0  0  0  0
 10 11  1  0  0  0  0
 10 29  1  0  0  0  0
 10 30  1  0  0  0  0
 11 16  1  0  0  0  0
 11 12  1  0  0  0  0
 11 31  1  0  0  0  0
 12 13  1  0  0  0  0
 12 32  1  0  0  0  0
 12 33  1  0  0  0  0
 13 14  1  0  0  0  0
 13 34  1  0  0  0  0
 13 35  1  0  0  0  0
 14 15  1  0  0  0  0
 14 36  1  0  0  0  0
 14 37  1  0  0  0  0
 15 16  1  0  0  0  0
 15 38  1  0  0  0  0
 15 39  1  0  0  0  0
 17 18  1  0  0  0  0
 17 40  1  0  0  0  0
 18 19  1  0  0  0  0
 19 20  2  0  0  0  0
M  CHG  1  18  -1
M  END
> <s_m_source_file>
AV-unprocessed.smi

> <i_m_source_file_index>
2216

> <i_lp_mmshare_version>
43012

> <i_f3d_flags>
0

> <s_epik_input>
Tz1jMVtuSF1bY0hdYyhbY0hdYzFbQ0gzXSlbTkhdQyg9TylbTkhdW0NIMl1bQ0gyXVtDQEBIXTJbQ0gyXVtDSDJdW0NIMl1bQ0gyXU8y

> <s_epik_cmdline>
J2VwaWtfcHl0aG9uJywgJy1waCcsICc3LjAnLCAnLXRuJywgJzgnLCAnLW1hJywgJzIwMCcsICctbWV0YWxfYmluZGluZycsICctaW1hZScsICc8aW5maWxlLm1hZT4nLCAnLW9tYWUnLCAnPG91dGZpbGUubWFlPic=

> <r_lp_tautomer_probability>
1

> <r_epik_Ionization_Penalty>
7.55627

> <r_epik_Ionization_Penalty_Charging>
1.50531

> <r_epik_Ionization_Penalty_Neutral>
6.05097

> <r_epik_State_Penalty>
6.05091

> <r_epik_Charging_Adjusted_Penalty>
7.55622

> <i_epik_Tot_Q>
-1

> <i_epik_Tot_abs_Q>
1

> <r_epik_Metal_State_Penalty>
2.00009

> <b_epik_Metal_Only>
1

> <s_lp_Force_Field>
OPLS_2005

> <r_lp_Energy>
21.198

> <b_lp_Chiralities_Consistent>
1

> <s_lp_Variant>
AV-unprocessed.smi:2216-3

> <Gold.Version>
5.8.1

> <Gold.Id.Protein>
6NUR|6NUR_protein|mol2

> <Gold.PLP.Fitness>
38.5708

> <Gold.PLP.PLP>
-33.6254

> <Gold.PLP.part.hbond>
-4.6739

> <Gold.PLP.part.metal>
0.0000

> <Gold.PLP.part.buried>
0.0716

> <Gold.PLP.part.nonpolar>
-29.9440

> <Gold.PLP.part.repulsive>
0.2701

> <Gold.PLP.ligand.clash>
0.0000

> <Gold.PLP.ligand.torsion>
1.0426

> <Gold.PLP.Chemscore.Hbond>
2.3377

> <Gold.PLP.Chemscore.CHOScore>
0.0000

> <Gold.PLP.Chemscore.Metal>
0.0000

> <Gold.Chemscore.Hbonds>
donor molecule, donor type, donor heavy atom, donor atom, acceptor molecule, acceptor atom, score
      L1  H     5    25       P1  8029  0.96
      L1  H     8    26       P1  8029  0.66
      P1  H  6933  6944       L1     7  0.38
      P1  H  6934  6946       L1     7  0.26

> <Gold.PLP.Chemscore.Internal.Correction>
0.0176

> <Gold.Rescore>
     Score         DG    S(hbond)    S(metal)    S(lipo)     H(rot)  DE(clash)    DE(int)     intcor
     19.45     -21.11       2.32        0.00      99.46       1.47       0.73       0.92       ----

> <Gold.Chemscore.Fitness>
19.4529

> <Gold.Chemscore.DG>
-21.1070

> <Gold.Chemscore.ZeroCoef>
-5.4800

> <Gold.Chemscore.Hbond>
2.3221

> <Gold.Chemscore.Metal>
0.0000

> <Gold.Chemscore.Lipo>
99.4591

> <Gold.Chemscore.Internal_Hbond>
0.0000

> <Gold.Chemscore.DEClash>
0.7302

> <Gold.Chemscore.DEInternal>
0.9239

> <Gold.Chemscore.Rot>
1.4709

> <Gold.Chemscore.Internal.Correction>
   9.000000E+99

> <Gold.Chemscore.Hbonds>
donor molecule, donor type, donor heavy atom, donor atom, acceptor molecule, acceptor atom, score
      L1  H     5    25       P1  8029  0.87
      L1  H     8    26       P1  8029  0.13
      P1  H  6933  6944       L1     7  0.34
      P1  H  6934  6946       L1     7  0.26

> <Gold.Chemscore.Hbond.Weighted>
-7.7557

> <Gold.Chemscore.Metal.Weighted>
-0.0000

> <Gold.Chemscore.Lipo.Weighted>
-11.6367

> <Gold.Chemscore.Internal_Hbond.Weighted>
0.0000

> <Gold.Chemscore.DEClash.Weighted>
0.7302

> <Gold.Chemscore.DEInternal.Weighted>
0.9239

> <Gold.Chemscore.Rot.Weighted>
3.7654

> <Gold.Chemscore.Internal.Correction.Weighted>
   9.000000E+99

> <Gold.Protein.RotatedTorsions>
[ 6907 6896 6895 6894 ] final   84.59 input  -60.11 | X-H torsion
[ 7974 7965 7964 7962 ] final  -42.97 input  175.53 | X-H torsion
[ 8008 7997 7996 7995 ] final -176.37 input   59.86 | X-H torsion
[ 10167 10162 10161 10158 ] final  -53.14 input  -65.29 | X-H torsion
[ 10718 10713 10712 10709 ] final -110.06 input   66.30 | X-H torsion
[ 10763 10752 10751 10750 ] final  152.52 input  -60.55 | X-H torsion
[ 11005 11000 10999 10996 ] final -101.62 input  -57.11 | X-H torsion

> <Gold.Protein.ActiveResidues>
 VAL166  LYS551  ARG553  GLY616  TRP617  ASP618  TYR619  PRO620  LYS621  CYS622 
 ASP623  PHE694  ASN695  SER759  ASP760  ASP761  ALA762  ILE779  LEU786  VAL792 
 PHE793  MET794  SER795  GLU796  ALA797  LYS798  CYS799  TRP800  GLU811  SER814 

> <Gold.Protein.RotatedAtoms>
  152.5356  134.2717  159.8973 H   0  0  0  0  0  0  0  0  0  0  0  0  # atno 6907 bound_to 6896
  151.2673  133.4265  159.2627 H   0  0  0  0  0  0  0  0  0  0  0  0  # atno 6908 bound_to 6896
  151.0399  134.9614  159.8212 H   0  0  0  0  0  0  0  0  0  0  0  0  # atno 6909 bound_to 6896
  146.0064  140.7015  142.9245 H   0  0  0  0  0  0  0  0  0  0  0  0  # atno 7974 bound_to 7965
  155.9940  140.1207  157.0611 H   0  0  0  0  0  0  0  0  0  0  0  0  # atno 8008 bound_to 7997
  154.4220  140.1120  156.5673 H   0  0  0  0  0  0  0  0  0  0  0  0  # atno 8009 bound_to 7997
  155.6303  140.3473  155.4683 H   0  0  0  0  0  0  0  0  0  0  0  0  # atno 8010 bound_to 7997
  140.6500  143.2560  151.4750 H   0  0  0  0  0  0  0  0  0  0  0  0  # atno 10167 bound_to 10162
  156.0570  130.5796  150.8186 H   0  0  0  0  0  0  0  0  0  0  0  0  # atno 10718 bound_to 10713
  154.1213  135.2832  155.3208 H   0  0  0  0  0  0  0  0  0  0  0  0  # atno 10763 bound_to 10752
  154.6421  135.5399  153.7805 H   0  0  0  0  0  0  0  0  0  0  0  0  # atno 10764 bound_to 10752
  153.0312  135.6489  154.1367 H   0  0  0  0  0  0  0  0  0  0  0  0  # atno 10765 bound_to 10752
  141.1223  133.8492  157.1254 H   0  0  0  0  0  0  0  0  0  0  0  0  # atno 11005 bound_to 11000
  144.6937  140.3322  143.7214 LP  0  0  0  0  0  0  0  0  0  0  0  0  # atno 17320 bound_to 7965
  145.7409  139.1764  143.2376 LP  0  0  0  0  0  0  0  0  0  0  0  0  # atno 17321 bound_to 7965
  139.5714  144.1919  152.1842 LP  0  0  0  0  0  0  0  0  0  0  0  0  # atno 17342 bound_to 10162
  140.1216  144.5368  150.6859 LP  0  0  0  0  0  0  0  0  0  0  0  0  # atno 17343 bound_to 10162
  157.5549  131.0945  150.9643 LP  0  0  0  0  0  0  0  0  0  0  0  0  # atno 17370 bound_to 10713
  156.9894  130.5557  149.5302 LP  0  0  0  0  0  0  0  0  0  0  0  0  # atno 17371 bound_to 10713
  140.0191  134.9954  157.0555 LP  0  0  0  0  0  0  0  0  0  0  0  0  # atno 17394 bound_to 11000
  140.4469  134.1622  155.7178 LP  0  0  0  0  0  0  0  0  0  0  0  0  # atno 17395 bound_to 11000

$$$$
