AV-unprocessed.smi:1802|AV-procd|sdf|7275|dock5
  -GOLD-   22720 8533D 1   1.00000     0.00000
 Structure written by MMmdl.
 40 41  0  0  0  0  0  0  0  0  3 V2000
  143.9740  136.8545  152.1111 C   0  0  0  0  0  0  0  0  0  0  0  0
  145.1885  135.9350  151.9199 C   0  0  2  0  0  0  0  0  0  0  0  0
  144.8606  134.7588  150.9849 C   0  0  0  0  0  0  0  0  0  0  0  0
  146.0821  133.8441  150.8337 C   0  0  0  0  0  0  0  0  0  0  0  0
  146.5908  133.3746  152.2059 C   0  0  0  0  0  0  0  0  0  0  0  0
  146.9033  134.5303  153.0857 N   0  3  2  0  0  0  0  0  0  0  0  0
  147.5253  134.1076  154.3662 C   0  0  0  0  0  0  0  0  0  0  0  0
  148.5399  132.9675  154.1772 C   0  0  0  0  0  0  0  0  0  0  0  0
  149.5900  132.9320  155.2948 C   0  0  0  0  0  0  0  0  0  0  0  0
  150.3804  134.1552  155.2893 N   0  0  0  0  0  0  0  0  0  0  0  0
  150.9127  134.7357  156.3727 C   0  0  0  0  0  0  0  0  0  0  0  0
  150.7389  134.2341  157.4855 O   0  0  0  0  0  0  0  0  0  0  0  0
  151.6152  135.8576  156.0977 N   0  5  0  0  0  0  0  0  0  0  0  0
  151.0747  136.8167  155.3279 C   0  0  0  0  0  0  0  0  0  0  0  0
  149.7473  136.9687  155.1939 N   0  0  0  0  0  0  0  0  0  0  0  0
  149.4001  138.0144  154.3492 N   0  0  0  0  0  0  0  0  0  0  0  0
  150.4803  138.6218  153.8588 C   0  0  0  0  0  0  0  0  0  0  0  0
  152.0192  137.9710  154.3824 S   0  0  0  0  0  0  0  0  0  0  0  0
  145.7194  135.4123  153.2702 C   0  0  0  0  0  0  0  0  0  0  0  0
  143.1436  136.3235  152.5776 H   0  0  0  0  0  0  0  0  0  0  0  0
  143.6234  137.2458  151.1556 H   0  0  0  0  0  0  0  0  0  0  0  0
  144.2215  137.7072  152.7440 H   0  0  0  0  0  0  0  0  0  0  0  0
  145.9779  136.5274  151.4542 H   0  0  0  0  0  0  0  0  0  0  0  0
  144.0216  134.1868  151.3841 H   0  0  0  0  0  0  0  0  0  0  0  0
  144.5500  135.1269  150.0063 H   0  0  0  0  0  0  0  0  0  0  0  0
  145.8278  132.9826  150.2155 H   0  0  0  0  0  0  0  0  0  0  0  0
  146.8769  134.3768  150.3101 H   0  0  0  0  0  0  0  0  0  0  0  0
  145.8462  132.7391  152.6880 H   0  0  0  0  0  0  0  0  0  0  0  0
  147.4844  132.7657  152.0637 H   0  0  0  0  0  0  0  0  0  0  0  0
  147.9888  134.9640  154.8582 H   0  0  0  0  0  0  0  0  0  0  0  0
  146.7449  133.7514  155.0401 H   0  0  0  0  0  0  0  0  0  0  0  0
  148.0113  132.0134  154.1506 H   0  0  0  0  0  0  0  0  0  0  0  0
  149.0504  133.0661  153.2193 H   0  0  0  0  0  0  0  0  0  0  0  0
  149.1061  132.8234  156.2665 H   0  0  0  0  0  0  0  0  0  0  0  0
  150.2477  132.0716  155.1615 H   0  0  0  0  0  0  0  0  0  0  0  0
  150.5420  134.5983  154.3968 H   0  0  0  0  0  0  0  0  0  0  0  0
  150.3705  139.4562  153.1825 H   0  0  0  0  0  0  0  0  0  0  0  0
  145.9816  136.2632  153.8979 H   0  0  0  0  0  0  0  0  0  0  0  0
  144.9371  134.8632  153.7969 H   0  0  0  0  0  0  0  0  0  0  0  0
  147.6016  135.0723  152.5969 H   0  0  0  0  0  0  0  0  0  0  0  0
  1  2  1  0  0  0  0
  1 20  1  0  0  0  0
  1 21  1  0  0  0  0
  1 22  1  0  0  0  0
  2 19  1  0  0  0  0
  2  3  1  0  0  0  0
  2 23  1  0  0  0  0
  3  4  1  0  0  0  0
  3 24  1  0  0  0  0
  3 25  1  0  0  0  0
  4  5  1  0  0  0  0
  4 26  1  0  0  0  0
  4 27  1  0  0  0  0
  5  6  1  0  0  0  0
  5 28  1  0  0  0  0
  5 29  1  0  0  0  0
  6  7  1  0  0  0  0
  6 19  1  0  0  0  0
  6 40  1  0  0  0  0
  7  8  1  0  0  0  0
  7 30  1  0  0  0  0
  7 31  1  0  0  0  0
  8  9  1  0  0  0  0
  8 32  1  0  0  0  0
  8 33  1  0  0  0  0
  9 10  1  0  0  0  0
  9 34  1  0  0  0  0
  9 35  1  0  0  0  0
 10 11  1  0  0  0  0
 10 36  1  0  0  0  0
 11 12  2  0  0  0  0
 11 13  1  0  0  0  0
 13 14  1  0  0  0  0
 14 18  1  0  0  0  0
 14 15  2  0  0  0  0
 15 16  1  0  0  0  0
 16 17  2  0  0  0  0
 17 18  1  0  0  0  0
 17 37  1  0  0  0  0
 19 38  1  0  0  0  0
 19 39  1  0  0  0  0
M  CHG  1   6   1
M  CHG  1  13  -1
M  END
> <s_m_source_file>
AV-unprocessed.smi

> <i_m_source_file_index>
1802

> <i_lp_mmshare_version>
43012

> <i_f3d_flags>
0

> <s_epik_input>
W0NIM11bQ0BASF0xW0NIMl1bQ0gyXVtDSDJdTihbQ0gyXTEpW0NIMl1bQ0gyXVtDSDJdW05IXUMoPU8pW05IXWMybm5bY0hdczI=

> <s_epik_cmdline>
J2VwaWtfcHl0aG9uJywgJy1waCcsICc3LjAnLCAnLXRuJywgJzgnLCAnLW1hJywgJzIwMCcsICctbWV0YWxfYmluZGluZycsICctaW1hZScsICc8aW5maWxlLm1hZT4nLCAnLW9tYWUnLCAnPG91dGZpbGUubWFlPic=

> <r_lp_tautomer_probability>
1

> <r_epik_Ionization_Penalty>
3.29702

> <r_epik_Ionization_Penalty_Charging>
3.26059

> <r_epik_Ionization_Penalty_Neutral>
0.0364294

> <r_epik_State_Penalty>
3.25788

> <r_epik_Charging_Adjusted_Penalty>
6.51847

> <i_epik_Tot_Q>
0

> <i_epik_Tot_abs_Q>
2

> <r_epik_Metal_State_Penalty>
0.477639

> <b_epik_Metal_Only>
1

> <s_lp_Force_Field>
OPLS_2005

> <r_lp_Energy>
10.8961

> <b_lp_Chiralities_Consistent>
1

> <s_lp_Variant>
AV-unprocessed.smi:1802-5

> <Gold.Version>
5.8.1

> <Gold.Id.Protein>
6NUR|6NUR_protein|mol2

> <Gold.PLP.Fitness>
43.9441

> <Gold.PLP.PLP>
-29.6648

> <Gold.PLP.part.hbond>
-3.0000

> <Gold.PLP.part.metal>
0.0000

> <Gold.PLP.part.buried>
-3.8206

> <Gold.PLP.part.nonpolar>
-23.9925

> <Gold.PLP.part.repulsive>
0.3968

> <Gold.PLP.ligand.clash>
0.0000

> <Gold.PLP.ligand.torsion>
1.0162

> <Gold.PLP.Chemscore.Hbond>
4.4160

> <Gold.PLP.Chemscore.CHOScore>
1.0000

> <Gold.PLP.Chemscore.Metal>
0.0000

> <Gold.Chemscore.Hbonds>
donor molecule, donor type, donor heavy atom, donor atom, acceptor molecule, acceptor atom, score
      L1  H     6    40       P1  7948  2.00
      P1  H  6896  6908       L1    12  0.29
      P1  H 10752 10765       L1    13  2.00
      L1  C    17    37       P1  7957  1.00

> <Gold.PLP.Chemscore.Internal.Correction>
0.0636

> <Gold.Rescore>
     Score         DG    S(hbond)    S(metal)    S(lipo)     H(rot)  DE(clash)    DE(int)     intcor
     12.06     -14.38       2.13        0.00      57.61       1.94       0.09       2.23       ----

> <Gold.Chemscore.Fitness>
12.0634

> <Gold.Chemscore.DG>
-14.3835

> <Gold.Chemscore.ZeroCoef>
-5.4800

> <Gold.Chemscore.Hbond>
2.1334

> <Gold.Chemscore.Metal>
0.0000

> <Gold.Chemscore.Lipo>
57.6077

> <Gold.Chemscore.Internal_Hbond>
0.0000

> <Gold.Chemscore.DEClash>
0.0918

> <Gold.Chemscore.DEInternal>
2.2283

> <Gold.Chemscore.Rot>
1.9383

> <Gold.Chemscore.Internal.Correction>
   9.000000E+99

> <Gold.Chemscore.Hbonds>
donor molecule, donor type, donor heavy atom, donor atom, acceptor molecule, acceptor atom, score
      L1  H     6    40       P1  7948  0.99
      P1  H  6896  6908       L1    12  0.28
      P1  H 10752 10765       L1    13  0.30

> <Gold.Chemscore.Hbond.Weighted>
-7.1254

> <Gold.Chemscore.Metal.Weighted>
-0.0000

> <Gold.Chemscore.Lipo.Weighted>
-6.7401

> <Gold.Chemscore.Internal_Hbond.Weighted>
0.0000

> <Gold.Chemscore.DEClash.Weighted>
0.0918

> <Gold.Chemscore.DEInternal.Weighted>
2.2283

> <Gold.Chemscore.Rot.Weighted>
4.9620

> <Gold.Chemscore.Internal.Correction.Weighted>
   9.000000E+99

> <Gold.Protein.RotatedTorsions>
[ 6907 6896 6895 6894 ] final   83.41 input  -60.11 | X-H torsion
[ 7974 7965 7964 7962 ] final   27.50 input  175.53 | X-H torsion
[ 8008 7997 7996 7995 ] final  119.82 input   59.86 | X-H torsion
[ 10167 10162 10161 10158 ] final -165.70 input  -65.29 | X-H torsion
[ 10718 10713 10712 10709 ] final   55.31 input   66.30 | X-H torsion
[ 10763 10752 10751 10750 ] final -138.83 input  -60.55 | X-H torsion
[ 11005 11000 10999 10996 ] final  174.94 input  -57.11 | X-H torsion

> <Gold.Protein.ActiveResidues>
 VAL166  LYS551  ARG553  GLY616  TRP617  ASP618  TYR619  PRO620  LYS621  CYS622 
 ASP623  PHE694  ASN695  SER759  ASP760  ASP761  ALA762  ILE779  LEU786  VAL792 
 PHE793  MET794  SER795  GLU796  ALA797  LYS798  CYS799  TRP800  GLU811  SER814 

> <Gold.Protein.RotatedAtoms>
  152.5326  134.2899  159.9038 H   0  0  0  0  0  0  0  0  0  0  0  0  # atno 6907 bound_to 6896
  151.2852  133.4184  159.2637 H   0  0  0  0  0  0  0  0  0  0  0  0  # atno 6908 bound_to 6896
  151.0249  134.9512  159.8136 H   0  0  0  0  0  0  0  0  0  0  0  0  # atno 6909 bound_to 6896
  146.1781  139.7184  142.8920 H   0  0  0  0  0  0  0  0  0  0  0  0  # atno 7974 bound_to 7965
  156.2614  140.2844  156.1052 H   0  0  0  0  0  0  0  0  0  0  0  0  # atno 8008 bound_to 7997
  155.1316  140.0394  157.2794 H   0  0  0  0  0  0  0  0  0  0  0  0  # atno 8009 bound_to 7997
  154.6595  140.2563  155.7131 H   0  0  0  0  0  0  0  0  0  0  0  0  # atno 8010 bound_to 7997
  139.6164  144.0711  152.1892 H   0  0  0  0  0  0  0  0  0  0  0  0  # atno 10167 bound_to 10162
  157.5334  130.8646  149.8719 H   0  0  0  0  0  0  0  0  0  0  0  0  # atno 10718 bound_to 10713
  154.8626  135.3600  154.5447 H   0  0  0  0  0  0  0  0  0  0  0  0  # atno 10763 bound_to 10752
  153.6068  135.7011  153.5367 H   0  0  0  0  0  0  0  0  0  0  0  0  # atno 10764 bound_to 10752
  153.3244  135.4142  155.1404 H   0  0  0  0  0  0  0  0  0  0  0  0  # atno 10765 bound_to 10752
  140.3568  134.7148  157.4304 H   0  0  0  0  0  0  0  0  0  0  0  0  # atno 11005 bound_to 11000
  145.4155  141.0401  143.2993 LP  0  0  0  0  0  0  0  0  0  0  0  0  # atno 17320 bound_to 7965
  144.8269  139.5694  143.6961 LP  0  0  0  0  0  0  0  0  0  0  0  0  # atno 17321 bound_to 7965
  140.0342  144.6057  150.7463 LP  0  0  0  0  0  0  0  0  0  0  0  0  # atno 17342 bound_to 10162
  140.7354  143.2740  151.3799 LP  0  0  0  0  0  0  0  0  0  0  0  0  # atno 17343 bound_to 10162
  156.0440  130.3732  150.1365 LP  0  0  0  0  0  0  0  0  0  0  0  0  # atno 17370 bound_to 10713
  156.9548  130.9786  151.3491 LP  0  0  0  0  0  0  0  0  0  0  0  0  # atno 17371 bound_to 10713
  140.0659  134.5930  155.8696 LP  0  0  0  0  0  0  0  0  0  0  0  0  # atno 17394 bound_to 11000
  141.1996  133.6608  156.5852 LP  0  0  0  0  0  0  0  0  0  0  0  0  # atno 17395 bound_to 11000

$$$$
