AV-unprocessed.smi:2999|AV-procd|sdf|11424|dock1
  -GOLD-   2272016343D 1   1.00000     0.00000
 Structure written by MMmdl.
 36 38  0  0  0  0  0  0  0  0  2 V2000
  149.3017  135.8141  159.1515 O   0  0  0  0  0  0  0  0  0  0  0  0
  148.9288  136.9073  159.5842 C   0  0  0  0  0  0  0  0  0  0  0  0
  149.3264  138.0337  158.9782 N   0  0  0  0  0  0  0  0  0  0  0  0
  150.1923  138.0933  157.8078 C   0  0  0  0  0  0  0  0  0  0  0  0
  151.4079  138.9933  158.0707 C   0  0  1  0  0  0  0  0  0  0  0  0
  150.9911  140.4514  158.3470 C   0  0  0  0  0  0  0  0  0  0  0  0
  152.1378  141.2970  158.6562 N   0  0  0  0  0  0  0  0  0  0  0  0
  151.7191  142.6636  158.9301 C   0  0  0  0  0  0  0  0  0  0  0  0
  151.6083  143.6465  157.7933 C   0  0  0  0  0  0  0  0  0  0  0  0
  152.7223  143.7821  158.8153 C   0  0  0  0  0  0  0  0  0  0  0  0
  152.8456  140.7271  159.7957 C   0  0  0  0  0  0  0  0  0  0  0  0
  153.2626  139.2698  159.5353 C   0  0  0  0  0  0  0  0  0  0  0  0
  152.1105  138.4984  159.2097 O   0  0  0  0  0  0  0  0  0  0  0  0
  148.1264  137.1150  160.6532 N   0  5  0  0  0  0  0  0  0  0  0  0
  147.5831  136.0688  161.2968 C   0  0  0  0  0  0  0  0  0  0  0  0
  146.4937  136.1711  162.0671 N   0  0  0  0  0  0  0  0  0  0  0  0
  146.1041  134.9596  162.6412 C   0  0  0  0  0  0  0  0  0  0  0  0
  146.9224  133.9124  162.3091 C   0  0  0  0  0  0  0  0  0  0  0  0
  148.2136  134.4197  161.2576 S   0  0  0  0  0  0  0  0  0  0  0  0
  148.9999  138.9115  159.3553 H   0  0  0  0  0  0  0  0  0  0  0  0
  150.5293  137.0845  157.5637 H   0  0  0  0  0  0  0  0  0  0  0  0
  149.6243  138.4601  156.9516 H   0  0  0  0  0  0  0  0  0  0  0  0
  152.0682  138.9657  157.2015 H   0  0  0  0  0  0  0  0  0  0  0  0
  150.4683  140.8489  157.4764 H   0  0  0  0  0  0  0  0  0  0  0  0
  150.2795  140.4749  159.1743 H   0  0  0  0  0  0  0  0  0  0  0  0
  150.9783  142.7189  159.7264 H   0  0  0  0  0  0  0  0  0  0  0  0
  151.8809  143.3053  156.7965 H   0  0  0  0  0  0  0  0  0  0  0  0
  150.7974  144.3708  157.8341 H   0  0  0  0  0  0  0  0  0  0  0  0
  152.6502  144.5971  159.5326 H   0  0  0  0  0  0  0  0  0  0  0  0
  153.7311  143.5308  158.4928 H   0  0  0  0  0  0  0  0  0  0  0  0
  153.7307  141.3246  160.0173 H   0  0  0  0  0  0  0  0  0  0  0  0
  152.2129  140.7663  160.6840 H   0  0  0  0  0  0  0  0  0  0  0  0
  153.9884  139.2134  158.7228 H   0  0  0  0  0  0  0  0  0  0  0  0
  153.7376  138.8463  160.4203 H   0  0  0  0  0  0  0  0  0  0  0  0
  145.2305  134.9350  163.2756 H   0  0  0  0  0  0  0  0  0  0  0  0
  146.8460  132.8803  162.6164 H   0  0  0  0  0  0  0  0  0  0  0  0
  1  2  2  0  0  0  0
  2  3  1  0  0  0  0
  2 14  1  0  0  0  0
  3  4  1  0  0  0  0
  3 20  1  0  0  0  0
  4  5  1  0  0  0  0
  4 21  1  0  0  0  0
  4 22  1  0  0  0  0
  5 13  1  0  0  0  0
  5  6  1  0  0  0  0
  5 23  1  0  0  0  0
  6  7  1  0  0  0  0
  6 24  1  0  0  0  0
  6 25  1  0  0  0  0
  7  8  1  0  0  0  0
  7 11  1  0  0  0  0
  8 10  1  0  0  0  0
  8  9  1  0  0  0  0
  8 26  1  0  0  0  0
  9 10  1  0  0  0  0
  9 27  1  0  0  0  0
  9 28  1  0  0  0  0
 10 29  1  0  0  0  0
 10 30  1  0  0  0  0
 11 12  1  0  0  0  0
 11 31  1  0  0  0  0
 11 32  1  0  0  0  0
 12 13  1  0  0  0  0
 12 33  1  0  0  0  0
 12 34  1  0  0  0  0
 14 15  1  0  0  0  0
 15 19  1  0  0  0  0
 15 16  2  0  0  0  0
 16 17  1  0  0  0  0
 17 18  2  0  0  0  0
 17 35  1  0  0  0  0
 18 19  1  0  0  0  0
 18 36  1  0  0  0  0
M  CHG  1  14  -1
M  END
> <s_m_source_file>
AV-unprocessed.smi

> <i_m_source_file_index>
2999

> <i_lp_mmshare_version>
43012

> <i_f3d_flags>
0

> <s_epik_input>
czFbY0hdW2NIXW5jMVtOSF1DKD1PKVtOSF1bQ0gyXVtDQEBIXTJbQ0gyXU4oW0NIMl1bQ0gyXU8yKVtDSF0zW0NIMl1bQ0gyXTM=

> <s_epik_cmdline>
J2VwaWtfcHl0aG9uJywgJy1waCcsICc3LjAnLCAnLXRuJywgJzgnLCAnLW1hJywgJzIwMCcsICctbWV0YWxfYmluZGluZycsICctaW1hZScsICc8aW5maWxlLm1hZT4nLCAnLW9tYWUnLCAnPG91dGZpbGUubWFlPic=

> <r_lp_tautomer_probability>
0.999

> <r_epik_Ionization_Penalty>
6.67591

> <r_epik_Ionization_Penalty_Charging>
5.6519

> <r_epik_Ionization_Penalty_Neutral>
1.024

> <r_epik_State_Penalty>
5.68985

> <r_epik_Charging_Adjusted_Penalty>
11.3418

> <i_epik_Tot_Q>
-1

> <i_epik_Tot_abs_Q>
1

> <r_epik_Metal_State_Penalty>
1.67789

> <b_epik_Metal_Only>
1

> <s_lp_Force_Field>
OPLS_2005

> <r_lp_Energy>
26.9989

> <b_lp_Chiralities_Consistent>
1

> <s_lp_Variant>
AV-unprocessed.smi:2999-8

> <Gold.Version>
5.8.1

> <Gold.Id.Protein>
6NUR|6NUR_protein|mol2

> <Gold.PLP.Fitness>
45.5218

> <Gold.PLP.PLP>
-33.3200

> <Gold.PLP.part.hbond>
-3.0000

> <Gold.PLP.part.metal>
0.0000

> <Gold.PLP.part.buried>
-5.2779

> <Gold.PLP.part.nonpolar>
-25.0522

> <Gold.PLP.part.repulsive>
0.2236

> <Gold.PLP.ligand.clash>
0.0000

> <Gold.PLP.ligand.torsion>
0.6755

> <Gold.PLP.Chemscore.Hbond>
4.1360

> <Gold.PLP.Chemscore.CHOScore>
0.0000

> <Gold.PLP.Chemscore.Metal>
0.0000

> <Gold.Chemscore.Hbonds>
donor molecule, donor type, donor heavy atom, donor atom, acceptor molecule, acceptor atom, score
      P1  H  6896  6909       L1     1  1.00
      P1  H  6931  6943       L1    14  1.70
      P1  H  6934  6947       L1    14  1.05

> <Gold.PLP.Chemscore.Internal.Correction>
1.1448

> <Gold.Rescore>
     Score         DG    S(hbond)    S(metal)    S(lipo)     H(rot)  DE(clash)    DE(int)     intcor
     15.93     -18.07       1.95        0.00      85.21       1.52       0.03       2.12       ----

> <Gold.Chemscore.Fitness>
15.9315

> <Gold.Chemscore.DG>
-18.0745

> <Gold.Chemscore.ZeroCoef>
-5.4800

> <Gold.Chemscore.Hbond>
1.9485

> <Gold.Chemscore.Metal>
0.0000

> <Gold.Chemscore.Lipo>
85.2062

> <Gold.Chemscore.Internal_Hbond>
0.0000

> <Gold.Chemscore.DEClash>
0.0257

> <Gold.Chemscore.DEInternal>
2.1174

> <Gold.Chemscore.Rot>
1.5167

> <Gold.Chemscore.Internal.Correction>
   9.000000E+99

> <Gold.Chemscore.Hbonds>
donor molecule, donor type, donor heavy atom, donor atom, acceptor molecule, acceptor atom, score
      P1  H  6896  6909       L1     1  1.00
      P1  H  6931  6943       L1    14  0.42
      P1  H  6934  6947       L1    14  0.49

> <Gold.Chemscore.Hbond.Weighted>
-6.5081

> <Gold.Chemscore.Metal.Weighted>
-0.0000

> <Gold.Chemscore.Lipo.Weighted>
-9.9691

> <Gold.Chemscore.Internal_Hbond.Weighted>
0.0000

> <Gold.Chemscore.DEClash.Weighted>
0.0257

> <Gold.Chemscore.DEInternal.Weighted>
2.1174

> <Gold.Chemscore.Rot.Weighted>
3.8827

> <Gold.Chemscore.Internal.Correction.Weighted>
   9.000000E+99

> <Gold.Protein.RotatedTorsions>
[ 6907 6896 6895 6894 ] final   50.89 input  -60.11 | X-H torsion
[ 7974 7965 7964 7962 ] final  132.96 input  175.53 | X-H torsion
[ 8008 7997 7996 7995 ] final    2.86 input   59.86 | X-H torsion
[ 10167 10162 10161 10158 ] final   28.13 input  -65.29 | X-H torsion
[ 10718 10713 10712 10709 ] final   38.88 input   66.30 | X-H torsion
[ 10763 10752 10751 10750 ] final   75.88 input  -60.55 | X-H torsion
[ 11005 11000 10999 10996 ] final   48.99 input  -57.11 | X-H torsion

> <Gold.Protein.ActiveResidues>
 VAL166  LYS551  ARG553  GLY616  TRP617  ASP618  TYR619  PRO620  LYS621  CYS622 
 ASP623  PHE694  ASN695  SER759  ASP760  ASP761  ALA762  ILE779  LEU786  VAL792 
 PHE793  MET794  SER795  GLU796  ALA797  LYS798  CYS799  TRP800  GLU811  SER814 

> <Gold.Protein.RotatedAtoms>
  152.3067  134.7547  160.0345 H   0  0  0  0  0  0  0  0  0  0  0  0  # atno 6907 bound_to 6896
  151.8041  133.3368  159.3544 H   0  0  0  0  0  0  0  0  0  0  0  0  # atno 6908 bound_to 6896
  150.7300  134.5656  159.5908 H   0  0  0  0  0  0  0  0  0  0  0  0  # atno 6909 bound_to 6896
  144.9914  139.4403  143.5337 H   0  0  0  0  0  0  0  0  0  0  0  0  # atno 7974 bound_to 7965
  154.6966  140.2664  155.6760 H   0  0  0  0  0  0  0  0  0  0  0  0  # atno 8008 bound_to 7997
  156.2751  140.2780  156.1486 H   0  0  0  0  0  0  0  0  0  0  0  0  # atno 8009 bound_to 7997
  155.0822  140.0372  157.2633 H   0  0  0  0  0  0  0  0  0  0  0  0  # atno 8010 bound_to 7997
  140.4879  144.0513  150.6287 H   0  0  0  0  0  0  0  0  0  0  0  0  # atno 10167 bound_to 10162
  157.3641  130.7665  149.7069 H   0  0  0  0  0  0  0  0  0  0  0  0  # atno 10718 bound_to 10713
  153.0686  135.4972  154.8254 H   0  0  0  0  0  0  0  0  0  0  0  0  # atno 10763 bound_to 10752
  154.6989  135.2998  154.9372 H   0  0  0  0  0  0  0  0  0  0  0  0  # atno 10764 bound_to 10752
  154.0102  135.6755  153.4817 H   0  0  0  0  0  0  0  0  0  0  0  0  # atno 10765 bound_to 10752
  140.1142  134.4914  155.8652 H   0  0  0  0  0  0  0  0  0  0  0  0  # atno 11005 bound_to 11000
  146.3432  139.9248  142.8761 LP  0  0  0  0  0  0  0  0  0  0  0  0  # atno 17320 bound_to 7965
  145.2280  140.9962  143.4007 LP  0  0  0  0  0  0  0  0  0  0  0  0  # atno 17321 bound_to 7965
  140.3774  143.2821  152.0210 LP  0  0  0  0  0  0  0  0  0  0  0  0  # atno 17342 bound_to 10162
  139.4845  144.6182  151.7305 LP  0  0  0  0  0  0  0  0  0  0  0  0  # atno 17343 bound_to 10162
  155.9743  130.4105  150.3936 LP  0  0  0  0  0  0  0  0  0  0  0  0  # atno 17370 bound_to 10713
  157.2018  131.0440  151.2646 LP  0  0  0  0  0  0  0  0  0  0  0  0  # atno 17371 bound_to 10713
  141.2137  133.6738  156.6764 LP  0  0  0  0  0  0  0  0  0  0  0  0  # atno 17394 bound_to 11000
  140.3050  134.8132  157.4130 LP  0  0  0  0  0  0  0  0  0  0  0  0  # atno 17395 bound_to 11000

$$$$
