AV-unprocessed.smi:2749|AV-procd|sdf|10588|dock4
  -GOLD-   2272015 33D 1   1.00000     0.00000
 Structure written by MMmdl.
 32 34  0  0  0  0  0  0  0  0  1 V2000
  150.4584  142.5508  157.5052 O   0  0  0  0  0  0  0  0  0  0  0  0
  151.2604  141.6198  157.4548 C   0  0  0  0  0  0  0  0  0  0  0  0
  151.0597  140.5770  156.6201 N   0  0  0  0  0  0  0  0  0  0  0  0
  150.0130  140.2914  155.6939 C   0  0  0  0  0  0  0  0  0  0  0  0
  149.2888  141.4267  155.2627 C   0  0  0  0  0  0  0  0  0  0  0  0
  148.2270  141.2712  154.3502 C   0  0  0  0  0  0  0  0  0  0  0  0
  147.9143  139.9795  153.8916 C   0  0  0  0  0  0  0  0  0  0  0  0
  146.9024  139.7795  153.0146 F   0  0  0  0  0  0  0  0  0  0  0  0
  148.6799  138.9006  154.3690 C   0  0  0  0  0  0  0  0  0  0  0  0
  149.6977  139.0498  155.2433 N   0  0  0  0  0  0  0  0  0  0  0  0
  152.3722  141.5738  158.2062 N   0  0  0  0  0  0  0  0  0  0  0  0
  152.8005  142.5764  159.1773 C   0  0  1  0  0  0  0  0  0  0  0  0
  152.6133  144.0011  158.6458 C   0  0  0  0  0  0  0  0  0  0  0  0
  151.6594  144.6032  159.6864 C   0  0  2  0  0  0  0  0  0  0  0  0
  152.3435  144.8143  161.0451 C   0  0  0  0  0  0  0  0  0  0  0  0
  152.4693  143.3802  161.5604 C   0  0  0  0  0  0  0  0  0  0  0  0
  151.8661  142.5793  160.3990 C   0  0  1  0  0  0  0  0  0  0  0  0
  150.8525  143.4754  159.9730 O   0  0  0  0  0  0  0  0  0  0  0  0
  151.7914  139.8818  156.6443 H   0  0  0  0  0  0  0  0  0  0  0  0
  149.5415  142.4126  155.6256 H   0  0  0  0  0  0  0  0  0  0  0  0
  147.6637  142.1274  154.0099 H   0  0  0  0  0  0  0  0  0  0  0  0
  148.4712  137.8922  154.0427 H   0  0  0  0  0  0  0  0  0  0  0  0
  152.9738  140.7692  158.0964 H   0  0  0  0  0  0  0  0  0  0  0  0
  153.8320  142.4075  159.4914 H   0  0  0  0  0  0  0  0  0  0  0  0
  153.5522  144.5514  158.5765 H   0  0  0  0  0  0  0  0  0  0  0  0
  152.1480  144.0045  157.6588 H   0  0  0  0  0  0  0  0  0  0  0  0
  151.1064  145.4724  159.3291 H   0  0  0  0  0  0  0  0  0  0  0  0
  153.3066  145.3169  160.9501 H   0  0  0  0  0  0  0  0  0  0  0  0
  151.7133  145.4052  161.7106 H   0  0  0  0  0  0  0  0  0  0  0  0
  153.4992  143.0942  161.7771 H   0  0  0  0  0  0  0  0  0  0  0  0
  151.8799  143.2480  162.4685 H   0  0  0  0  0  0  0  0  0  0  0  0
  151.5035  141.5931  160.6916 H   0  0  0  0  0  0  0  0  0  0  0  0
  1  2  2  0  0  0  0
  2  3  1  0  0  0  0
  2 11  1  0  0  0  0
  3  4  1  0  0  0  0
  3 19  1  0  0  0  0
  4 10  1  0  0  0  0
  4  5  2  0  0  0  0
  5  6  1  0  0  0  0
  5 20  1  0  0  0  0
  6  7  2  0  0  0  0
  6 21  1  0  0  0  0
  7  8  1  0  0  0  0
  7  9  1  0  0  0  0
  9 10  2  0  0  0  0
  9 22  1  0  0  0  0
 11 12  1  0  0  0  0
 11 23  1  0  0  0  0
 12 17  1  0  0  0  0
 12 13  1  0  0  0  0
 12 24  1  0  0  0  0
 13 14  1  0  0  0  0
 13 25  1  0  0  0  0
 13 26  1  0  0  0  0
 14 18  1  0  0  0  0
 14 15  1  0  0  0  0
 14 27  1  0  0  0  0
 15 16  1  0  0  0  0
 15 28  1  0  0  0  0
 15 29  1  0  0  0  0
 16 17  1  0  0  0  0
 16 30  1  0  0  0  0
 16 31  1  0  0  0  0
 17 18  1  0  0  0  0
 17 32  1  0  0  0  0
M  END
> <s_m_source_file>
AV-unprocessed.smi

> <i_m_source_file_index>
2749

> <i_lp_mmshare_version>
43012

> <i_f3d_flags>
0

> <s_epik_input>
W0NIMl0xW0NIMl1bQ0BIXShPMilbQ0BASF0oW0NIMl1bQ0BASF0xMilbTkhdQyg9TylbTkhdYzNbY0hdW2NIXWMoRilbY0hdbjM=

> <s_epik_cmdline>
J2VwaWtfcHl0aG9uJywgJy1waCcsICc3LjAnLCAnLXRuJywgJzgnLCAnLW1hJywgJzIwMCcsICctbWV0YWxfYmluZGluZycsICctaW1hZScsICc8aW5maWxlLm1hZT4nLCAnLW9tYWUnLCAnPG91dGZpbGUubWFlPic=

> <r_lp_tautomer_probability>
1

> <r_epik_Ionization_Penalty>
3.37159e-05

> <r_epik_Ionization_Penalty_Charging>
0

> <r_epik_Ionization_Penalty_Neutral>
3.37159e-05

> <r_epik_State_Penalty>
-0

> <r_epik_Charging_Adjusted_Penalty>
0

> <i_epik_Tot_Q>
0

> <i_epik_Tot_abs_Q>
0

> <r_epik_Metal_State_Penalty>
-0

> <b_epik_Metal_Only>
0

> <s_lp_Force_Field>
OPLS_2005

> <r_lp_Energy>
42.1361

> <b_lp_Chiralities_Consistent>
1

> <s_lp_Variant>
AV-unprocessed.smi:2749-4

> <Gold.Version>
5.8.1

> <Gold.Id.Protein>
6NUR|6NUR_protein|mol2

> <Gold.PLP.Fitness>
38.1128

> <Gold.PLP.PLP>
-35.6070

> <Gold.PLP.part.hbond>
-1.0000

> <Gold.PLP.part.metal>
0.0000

> <Gold.PLP.part.buried>
1.7215

> <Gold.PLP.part.nonpolar>
-36.0576

> <Gold.PLP.part.repulsive>
0.4642

> <Gold.PLP.ligand.clash>
0.0000

> <Gold.PLP.ligand.torsion>
0.2621

> <Gold.PLP.Chemscore.Hbond>
0.0000

> <Gold.PLP.Chemscore.CHOScore>
1.0000

> <Gold.PLP.Chemscore.Metal>
0.0000

> <Gold.Chemscore.Hbonds>
donor molecule, donor type, donor heavy atom, donor atom, acceptor molecule, acceptor atom, score
      L1  C     9    22       P1  7948  0.40

> <Gold.PLP.Chemscore.Internal.Correction>
0.0299

> <Gold.Rescore>
     Score         DG    S(hbond)    S(metal)    S(lipo)     H(rot)  DE(clash)    DE(int)     intcor
      9.37     -14.37       0.00        0.00      97.90       1.00       0.51       4.50       ----

> <Gold.Chemscore.Fitness>
9.3658

> <Gold.Chemscore.DG>
-14.3745

> <Gold.Chemscore.ZeroCoef>
-5.4800

> <Gold.Chemscore.Hbond>
0.0000

> <Gold.Chemscore.Metal>
0.0000

> <Gold.Chemscore.Lipo>
97.9015

> <Gold.Chemscore.Internal_Hbond>
0.0000

> <Gold.Chemscore.DEClash>
0.5105

> <Gold.Chemscore.DEInternal>
4.4982

> <Gold.Chemscore.Rot>
1.0000

> <Gold.Chemscore.Internal.Correction>
   9.000000E+99

> <Gold.Chemscore.Hbond.Weighted>
-0.0000

> <Gold.Chemscore.Metal.Weighted>
-0.0000

> <Gold.Chemscore.Lipo.Weighted>
-11.4545

> <Gold.Chemscore.Internal_Hbond.Weighted>
0.0000

> <Gold.Chemscore.DEClash.Weighted>
0.5105

> <Gold.Chemscore.DEInternal.Weighted>
4.4982

> <Gold.Chemscore.Rot.Weighted>
2.5600

> <Gold.Chemscore.Internal.Correction.Weighted>
   9.000000E+99

> <Gold.Protein.RotatedTorsions>
[ 6907 6896 6895 6894 ] final   44.48 input  -60.11 | X-H torsion
[ 7974 7965 7964 7962 ] final  -73.38 input  175.53 | X-H torsion
[ 8008 7997 7996 7995 ] final  -71.50 input   59.86 | X-H torsion
[ 10167 10162 10161 10158 ] final   -3.96 input  -65.29 | X-H torsion
[ 10718 10713 10712 10709 ] final -146.92 input   66.30 | X-H torsion
[ 10763 10752 10751 10750 ] final -168.30 input  -60.55 | X-H torsion
[ 11005 11000 10999 10996 ] final  -61.15 input  -57.11 | X-H torsion

> <Gold.Protein.ActiveResidues>
 VAL166  LYS551  ARG553  GLY616  TRP617  ASP618  TYR619  PRO620  LYS621  CYS622 
 ASP623  PHE694  ASN695  SER759  ASP760  ASP761  ALA762  ILE779  LEU786  VAL792 
 PHE793  MET794  SER795  GLU796  ALA797  LYS798  CYS799  TRP800  GLU811  SER814 

> <Gold.Protein.RotatedAtoms>
  152.2331  134.8303  160.0470 H   0  0  0  0  0  0  0  0  0  0  0  0  # atno 6907 bound_to 6896
  151.9045  133.3541  159.3850 H   0  0  0  0  0  0  0  0  0  0  0  0  # atno 6908 bound_to 6896
  150.7031  134.4721  159.5474 H   0  0  0  0  0  0  0  0  0  0  0  0  # atno 6909 bound_to 6896
  145.6529  140.9277  143.0975 H   0  0  0  0  0  0  0  0  0  0  0  0  # atno 7974 bound_to 7965
  154.5092  140.0814  156.7956 H   0  0  0  0  0  0  0  0  0  0  0  0  # atno 8008 bound_to 7997
  155.3823  140.3428  155.4229 H   0  0  0  0  0  0  0  0  0  0  0  0  # atno 8009 bound_to 7997
  156.1553  140.1571  156.8690 H   0  0  0  0  0  0  0  0  0  0  0  0  # atno 8010 bound_to 7997
  140.6910  143.6479  150.8376 H   0  0  0  0  0  0  0  0  0  0  0  0  # atno 10167 bound_to 10162
  156.4010  130.7934  151.2144 H   0  0  0  0  0  0  0  0  0  0  0  0  # atno 10718 bound_to 10713
  154.6642  135.2929  154.9826 H   0  0  0  0  0  0  0  0  0  0  0  0  # atno 10763 bound_to 10752
  154.0875  135.6595  153.4851 H   0  0  0  0  0  0  0  0  0  0  0  0  # atno 10764 bound_to 10752
  153.0448  135.5212  154.7608 H   0  0  0  0  0  0  0  0  0  0  0  0  # atno 10765 bound_to 10752
  141.1314  133.6628  156.5331 H   0  0  0  0  0  0  0  0  0  0  0  0  # atno 11005 bound_to 11000
  144.7116  139.8350  143.7412 LP  0  0  0  0  0  0  0  0  0  0  0  0  # atno 17320 bound_to 7965
  146.1188  139.4203  143.0241 LP  0  0  0  0  0  0  0  0  0  0  0  0  # atno 17321 bound_to 7965
  140.0192  143.5560  152.2807 LP  0  0  0  0  0  0  0  0  0  0  0  0  # atno 17342 bound_to 10162
  139.6312  144.7644  151.2532 LP  0  0  0  0  0  0  0  0  0  0  0  0  # atno 17343 bound_to 10162
  157.7504  131.0287  150.4059 LP  0  0  0  0  0  0  0  0  0  0  0  0  # atno 17370 bound_to 10713
  156.4339  130.3977  149.6742 LP  0  0  0  0  0  0  0  0  0  0  0  0  # atno 17371 bound_to 10713
  140.4199  134.7196  157.4884 LP  0  0  0  0  0  0  0  0  0  0  0  0  # atno 17394 bound_to 11000
  140.0367  134.6327  155.9034 LP  0  0  0  0  0  0  0  0  0  0  0  0  # atno 17395 bound_to 11000

$$$$
