AV-unprocessed.smi:2167|AV-procd|sdf|8817|dock7
  -GOLD-   2272012 03D 1   1.00000     0.00000
 Structure written by MMmdl.
 41 42  0  0  0  0  0  0  0  0  1 V2000
  152.5223  144.9356  157.8547 C   0  0  0  0  0  0  0  0  0  0  0  0
  151.7202  144.4320  159.0634 C   0  0  0  0  0  0  0  0  0  0  0  0
  151.3522  145.5499  160.0496 C   0  0  0  0  0  0  0  0  0  0  0  0
  152.3906  143.2801  159.7442 C   0  0  0  0  0  0  0  0  0  0  0  0
  152.7725  142.1657  159.1132 N   0  0  0  0  0  0  0  0  0  0  0  0
  153.3879  141.2433  159.9660 C   0  0  0  0  0  0  0  0  0  0  0  0
  153.8979  139.9370  159.4244 C   0  0  0  0  0  0  0  0  0  0  0  0
  154.6700  139.1541  160.4917 C   0  0  0  0  0  0  0  0  0  0  0  0
  155.6356  139.6718  161.0522 O   0  0  0  0  0  0  0  0  0  0  0  0
  154.2496  137.9045  160.7531 N   0  0  0  0  0  0  0  0  0  0  0  0
  154.8525  136.9873  161.7218 C   0  0  1  0  0  0  0  0  0  0  0  0
  153.9200  136.9353  162.9537 C   0  0  0  0  0  0  0  0  0  0  0  0
  154.6200  136.4715  164.2428 C   0  0  0  0  0  0  0  0  0  0  0  0
  155.1282  135.0218  164.2210 C   0  0  0  0  0  0  0  0  0  0  0  0
  156.2020  134.7590  163.1514 C   0  0  0  0  0  0  0  0  0  0  0  0
  155.6267  134.6225  161.8197 N   0  0  0  0  0  0  0  0  0  0  0  0
  154.9796  135.5677  161.1211 C   0  0  0  0  0  0  0  0  0  0  0  0
  154.4914  135.3029  160.0224 O   0  0  0  0  0  0  0  0  0  0  0  0
  153.4521  141.6734  161.2684 C   0  0  0  0  0  0  0  0  0  0  0  0
  152.7591  143.2591  161.4652 S   0  0  0  0  0  0  0  0  0  0  0  0
  152.6933  144.1337  157.1360 H   0  0  0  0  0  0  0  0  0  0  0  0
  153.4947  145.3246  158.1586 H   0  0  0  0  0  0  0  0  0  0  0  0
  151.9918  145.7352  157.3372 H   0  0  0  0  0  0  0  0  0  0  0  0
  150.7784  144.0488  158.6684 H   0  0  0  0  0  0  0  0  0  0  0  0
  150.7151  145.1727  160.8502 H   0  0  0  0  0  0  0  0  0  0  0  0
  150.8121  146.3536  159.5486 H   0  0  0  0  0  0  0  0  0  0  0  0
  152.2420  145.9831  160.5080 H   0  0  0  0  0  0  0  0  0  0  0  0
  153.0735  139.3174  159.0698 H   0  0  0  0  0  0  0  0  0  0  0  0
  154.5457  140.1094  158.5639 H   0  0  0  0  0  0  0  0  0  0  0  0
  153.4538  137.5583  160.2375 H   0  0  0  0  0  0  0  0  0  0  0  0
  155.8357  137.3642  162.0096 H   0  0  0  0  0  0  0  0  0  0  0  0
  153.5308  137.9366  163.1468 H   0  0  0  0  0  0  0  0  0  0  0  0
  153.0430  136.3161  162.7557 H   0  0  0  0  0  0  0  0  0  0  0  0
  155.4506  137.1430  164.4643 H   0  0  0  0  0  0  0  0  0  0  0  0
  153.9226  136.5801  165.0741 H   0  0  0  0  0  0  0  0  0  0  0  0
  155.5544  134.7993  165.1998 H   0  0  0  0  0  0  0  0  0  0  0  0
  154.2938  134.3305  164.0950 H   0  0  0  0  0  0  0  0  0  0  0  0
  156.9678  135.5358  163.1609 H   0  0  0  0  0  0  0  0  0  0  0  0
  156.7120  133.8226  163.3780 H   0  0  0  0  0  0  0  0  0  0  0  0
  155.6991  133.7092  161.3951 H   0  0  0  0  0  0  0  0  0  0  0  0
  153.8691  141.1569  162.1204 H   0  0  0  0  0  0  0  0  0  0  0  0
  1  2  1  0  0  0  0
  1 21  1  0  0  0  0
  1 22  1  0  0  0  0
  1 23  1  0  0  0  0
  2  3  1  0  0  0  0
  2  4  1  0  0  0  0
  2 24  1  0  0  0  0
  3 25  1  0  0  0  0
  3 26  1  0  0  0  0
  3 27  1  0  0  0  0
  4 20  1  0  0  0  0
  4  5  2  0  0  0  0
  5  6  1  0  0  0  0
  6  7  1  0  0  0  0
  6 19  2  0  0  0  0
  7  8  1  0  0  0  0
  7 28  1  0  0  0  0
  7 29  1  0  0  0  0
  8  9  2  0  0  0  0
  8 10  1  0  0  0  0
 10 11  1  0  0  0  0
 10 30  1  0  0  0  0
 11 17  1  0  0  0  0
 11 12  1  0  0  0  0
 11 31  1  0  0  0  0
 12 13  1  0  0  0  0
 12 32  1  0  0  0  0
 12 33  1  0  0  0  0
 13 14  1  0  0  0  0
 13 34  1  0  0  0  0
 13 35  1  0  0  0  0
 14 15  1  0  0  0  0
 14 36  1  0  0  0  0
 14 37  1  0  0  0  0
 15 16  1  0  0  0  0
 15 38  1  0  0  0  0
 15 39  1  0  0  0  0
 16 17  1  0  0  0  0
 16 40  1  0  0  0  0
 17 18  2  0  0  0  0
 19 20  1  0  0  0  0
 19 41  1  0  0  0  0
M  END
> <s_m_source_file>
AV-unprocessed.smi

> <i_m_source_file_index>
2167

> <i_lp_mmshare_version>
43012

> <i_f3d_flags>
0

> <s_epik_input>
W0NIM11bQ0hdKFtDSDNdKWMxbmMoW2NIXXMxKVtDSDJdQyg9TylbTkhdW0NAQEhdMltDSDJdW0NIMl1bQ0gyXVtDSDJdW05IXUMyPU8=

> <s_epik_cmdline>
J2VwaWtfcHl0aG9uJywgJy1waCcsICc3LjAnLCAnLXRuJywgJzgnLCAnLW1hJywgJzIwMCcsICctbWV0YWxfYmluZGluZycsICctaW1hZScsICc8aW5maWxlLm1hZT4nLCAnLW9tYWUnLCAnPG91dGZpbGUubWFlPic=

> <r_lp_tautomer_probability>
1

> <r_epik_Ionization_Penalty>
3.1619e-05

> <r_epik_Ionization_Penalty_Charging>
0

> <r_epik_Ionization_Penalty_Neutral>
3.1619e-05

> <r_epik_State_Penalty>
-0

> <r_epik_Charging_Adjusted_Penalty>
0

> <i_epik_Tot_Q>
0

> <i_epik_Tot_abs_Q>
0

> <r_epik_Metal_State_Penalty>
-0

> <b_epik_Metal_Only>
0

> <s_lp_Force_Field>
OPLS_2005

> <r_lp_Energy>
3.21442

> <b_lp_Chiralities_Consistent>
1

> <s_lp_Variant>
AV-unprocessed.smi:2167-2

> <Gold.Version>
5.8.1

> <Gold.Id.Protein>
6NUR|6NUR_protein|mol2

> <Gold.PLP.Fitness>
49.7127

> <Gold.PLP.PLP>
-47.2331

> <Gold.PLP.part.hbond>
-1.0000

> <Gold.PLP.part.metal>
0.0000

> <Gold.PLP.part.buried>
-6.2173

> <Gold.PLP.part.nonpolar>
-39.9434

> <Gold.PLP.part.repulsive>
0.0620

> <Gold.PLP.ligand.clash>
0.0000

> <Gold.PLP.ligand.torsion>
0.2966

> <Gold.PLP.Chemscore.Hbond>
1.0000

> <Gold.PLP.Chemscore.CHOScore>
0.0000

> <Gold.PLP.Chemscore.Metal>
0.0000

> <Gold.Chemscore.Hbonds>
donor molecule, donor type, donor heavy atom, donor atom, acceptor molecule, acceptor atom, score
      P1  H  6896  6907       L1    18  0.70

> <Gold.PLP.Chemscore.Internal.Correction>
0.0729

> <Gold.Rescore>
     Score         DG    S(hbond)    S(metal)    S(lipo)     H(rot)  DE(clash)    DE(int)     intcor
     17.71     -19.26       0.99        0.00     123.96       1.57       0.05       1.50       ----

> <Gold.Chemscore.Fitness>
17.7098

> <Gold.Chemscore.DG>
-19.2584

> <Gold.Chemscore.ZeroCoef>
-5.4800

> <Gold.Chemscore.Hbond>
0.9889

> <Gold.Chemscore.Metal>
0.0000

> <Gold.Chemscore.Lipo>
123.9580

> <Gold.Chemscore.Internal_Hbond>
0.0000

> <Gold.Chemscore.DEClash>
0.0525

> <Gold.Chemscore.DEInternal>
1.4961

> <Gold.Chemscore.Rot>
1.5733

> <Gold.Chemscore.Internal.Correction>
   9.000000E+99

> <Gold.Chemscore.Hbonds>
donor molecule, donor type, donor heavy atom, donor atom, acceptor molecule, acceptor atom, score
      P1  H  6896  6907       L1    18  0.65

> <Gold.Chemscore.Hbond.Weighted>
-3.3028

> <Gold.Chemscore.Metal.Weighted>
-0.0000

> <Gold.Chemscore.Lipo.Weighted>
-14.5031

> <Gold.Chemscore.Internal_Hbond.Weighted>
0.0000

> <Gold.Chemscore.DEClash.Weighted>
0.0525

> <Gold.Chemscore.DEInternal.Weighted>
1.4961

> <Gold.Chemscore.Rot.Weighted>
4.0276

> <Gold.Chemscore.Internal.Correction.Weighted>
   9.000000E+99

> <Gold.Protein.RotatedTorsions>
[ 6907 6896 6895 6894 ] final   55.92 input  -60.11 | X-H torsion
[ 7974 7965 7964 7962 ] final   99.94 input  175.53 | X-H torsion
[ 8008 7997 7996 7995 ] final  -44.31 input   59.86 | X-H torsion
[ 10167 10162 10161 10158 ] final   51.50 input  -65.29 | X-H torsion
[ 10718 10713 10712 10709 ] final -170.56 input   66.30 | X-H torsion
[ 10763 10752 10751 10750 ] final  -42.86 input  -60.55 | X-H torsion
[ 11005 11000 10999 10996 ] final -155.68 input  -57.11 | X-H torsion

> <Gold.Protein.ActiveResidues>
 VAL166  LYS551  ARG553  GLY616  TRP617  ASP618  TYR619  PRO620  LYS621  CYS622 
 ASP623  PHE694  ASN695  SER759  ASP760  ASP761  ALA762  ILE779  LEU786  VAL792 
 PHE793  MET794  SER795  GLU796  ALA797  LYS798  CYS799  TRP800  GLU811  SER814 

> <Gold.Protein.RotatedAtoms>
  152.3586  134.6904  160.0214 H   0  0  0  0  0  0  0  0  0  0  0  0  # atno 6907 bound_to 6896
  151.7235  133.3310  159.3329 H   0  0  0  0  0  0  0  0  0  0  0  0  # atno 6908 bound_to 6896
  150.7589  134.6361  159.6256 H   0  0  0  0  0  0  0  0  0  0  0  0  # atno 6909 bound_to 6896
  145.3922  139.2361  143.3345 H   0  0  0  0  0  0  0  0  0  0  0  0  # atno 7974 bound_to 7965
  154.3997  140.1425  156.3662 H   0  0  0  0  0  0  0  0  0  0  0  0  # atno 8008 bound_to 7997
  155.8135  140.3472  155.5451 H   0  0  0  0  0  0  0  0  0  0  0  0  # atno 8009 bound_to 7997
  155.8361  140.0919  157.1753 H   0  0  0  0  0  0  0  0  0  0  0  0  # atno 8010 bound_to 7997
  140.2612  144.3370  150.6317 H   0  0  0  0  0  0  0  0  0  0  0  0  # atno 10167 bound_to 10162
  156.7280  130.9295  151.3102 H   0  0  0  0  0  0  0  0  0  0  0  0  # atno 10718 bound_to 10713
  153.9861  135.6711  153.4752 H   0  0  0  0  0  0  0  0  0  0  0  0  # atno 10763 bound_to 10752
  153.0726  135.4966  154.8334 H   0  0  0  0  0  0  0  0  0  0  0  0  # atno 10764 bound_to 10752
  154.7136  135.3102  154.9120 H   0  0  0  0  0  0  0  0  0  0  0  0  # atno 10765 bound_to 10752
  140.6838  134.4116  157.5224 H   0  0  0  0  0  0  0  0  0  0  0  0  # atno 11005 bound_to 11000
  146.2792  140.4607  142.8783 LP  0  0  0  0  0  0  0  0  0  0  0  0  # atno 17320 bound_to 7965
  144.8432  140.6889  143.6216 LP  0  0  0  0  0  0  0  0  0  0  0  0  # atno 17321 bound_to 7965
  140.5964  143.2167  151.7156 LP  0  0  0  0  0  0  0  0  0  0  0  0  # atno 17342 bound_to 10162
  139.5016  144.3861  152.0327 LP  0  0  0  0  0  0  0  0  0  0  0  0  # atno 17343 bound_to 10162
  157.6870  130.9196  150.0413 LP  0  0  0  0  0  0  0  0  0  0  0  0  # atno 17370 bound_to 10713
  156.1548  130.3643  149.9385 LP  0  0  0  0  0  0  0  0  0  0  0  0  # atno 17371 bound_to 10713
  139.8944  134.8708  156.2180 LP  0  0  0  0  0  0  0  0  0  0  0  0  # atno 17394 bound_to 11000
  141.0296  133.6996  156.1407 LP  0  0  0  0  0  0  0  0  0  0  0  0  # atno 17395 bound_to 11000

$$$$
