AV-unprocessed.smi:236|AV-procd|sdf|1813|dock1
  -GOLD-   2262020403D 1   1.00000     0.00000
 Structure written by MMmdl.
 58 62  0  0  0  0  0  0  0  0  1 V2000
  143.2553  132.3383  150.8418 C   0  0  0  0  0  0  0  0  0  0  0  0
  144.7635  132.5506  150.6428 C   0  0  2  0  0  0  0  0  0  0  0  0
  145.5124  131.5980  151.3933 O   0  0  0  0  0  0  0  0  0  0  0  0
  146.7210  132.1855  151.8679 C   0  0  0  0  0  0  0  0  0  0  0  0
  146.7973  133.5604  151.2110 C   0  0  0  0  0  0  0  0  0  0  0  0
  145.3278  133.9274  151.0426 C   0  0  1  0  0  0  0  0  0  0  0  0
  145.2018  134.8405  149.9685 O   0  0  0  0  0  0  0  0  0  0  0  0
  144.6793  134.5334  152.3172 C   0  0  0  0  0  0  0  0  0  0  0  0
  145.3163  135.7586  152.7738 N   0  0  0  0  0  0  0  0  0  0  0  0
  145.1569  137.0193  152.2452 C   0  0  0  0  0  0  0  0  0  0  0  0
  145.8469  137.9591  152.8314 N   0  0  0  0  0  0  0  0  0  0  0  0
  146.5230  137.3015  153.8532 C   0  0  0  0  0  0  0  0  0  0  0  0
  147.4415  137.7110  154.8625 C   0  0  0  0  0  0  0  0  0  0  0  0
  147.8493  138.9983  155.0144 N   0  0  0  0  0  0  0  0  0  0  0  0
  147.3334  139.9989  154.0826 C   0  0  0  0  0  0  0  0  0  0  0  0
  147.6625  141.4120  154.5884 C   0  0  0  0  0  0  0  0  0  0  0  0
  149.0646  141.5230  154.8081 O   0  0  0  0  0  0  0  0  0  0  0  0
  149.5276  140.6173  155.8071 C   0  0  2  0  0  0  0  0  0  0  0  0
  151.0211  140.8772  156.0396 C   0  0  0  0  0  0  0  0  0  0  0  0
  151.1782  142.1383  156.6688 O   0  0  0  0  0  0  0  0  0  0  0  0
  151.4520  142.0268  158.0545 C   0  0  0  0  0  0  0  0  0  0  0  0
  152.3794  143.1498  158.4670 C   0  0  0  0  0  0  0  0  0  0  0  0
  152.3786  143.6592  159.8906 C   0  0  0  0  0  0  0  0  0  0  0  0
  151.8340  144.5242  158.7824 C   0  0  0  0  0  0  0  0  0  0  0  0
  149.2655  139.1785  155.3202 C   0  0  0  0  0  0  0  0  0  0  0  0
  147.9229  136.7465  155.6928 N   0  0  0  0  0  0  0  0  0  0  0  0
  147.5303  135.4766  155.5574 C   0  0  0  0  0  0  0  0  0  0  0  0
  146.6806  134.9568  154.6705 N   0  0  0  0  0  0  0  0  0  0  0  0
  146.1996  135.9147  153.8279 C   0  0  0  0  0  0  0  0  0  0  0  0
  142.6788  133.0883  150.3001 H   0  0  0  0  0  0  0  0  0  0  0  0
  142.9749  132.3895  151.8939 H   0  0  0  0  0  0  0  0  0  0  0  0
  142.9533  131.3581  150.4727 H   0  0  0  0  0  0  0  0  0  0  0  0
  145.0037  132.3645  149.5940 H   0  0  0  0  0  0  0  0  0  0  0  0
  146.6613  132.2806  152.9525 H   0  0  0  0  0  0  0  0  0  0  0  0
  147.5852  131.5651  151.6305 H   0  0  0  0  0  0  0  0  0  0  0  0
  147.3874  134.2769  151.7813 H   0  0  0  0  0  0  0  0  0  0  0  0
  147.2739  133.4575  150.2344 H   0  0  0  0  0  0  0  0  0  0  0  0
  145.7335  134.5334  149.2502 H   0  0  0  0  0  0  0  0  0  0  0  0
  143.6249  134.7497  152.1420 H   0  0  0  0  0  0  0  0  0  0  0  0
  144.7071  133.8126  153.1351 H   0  0  0  0  0  0  0  0  0  0  0  0
  144.5142  137.2201  151.4003 H   0  0  0  0  0  0  0  0  0  0  0  0
  147.7795  139.8435  153.0993 H   0  0  0  0  0  0  0  0  0  0  0  0
  146.2534  139.8928  153.9730 H   0  0  0  0  0  0  0  0  0  0  0  0
  147.3575  142.1562  153.8527 H   0  0  0  0  0  0  0  0  0  0  0  0
  147.1199  141.6321  155.5092 H   0  0  0  0  0  0  0  0  0  0  0  0
  148.9883  140.7877  156.7410 H   0  0  0  0  0  0  0  0  0  0  0  0
  151.4323  140.1016  156.6876 H   0  0  0  0  0  0  0  0  0  0  0  0
  151.5686  140.8425  155.0964 H   0  0  0  0  0  0  0  0  0  0  0  0
  150.5269  142.0802  158.6309 H   0  0  0  0  0  0  0  0  0  0  0  0
  151.9320  141.0722  158.2748 H   0  0  0  0  0  0  0  0  0  0  0  0
  153.3482  143.1234  157.9714 H   0  0  0  0  0  0  0  0  0  0  0  0
  151.6621  143.2247  160.5852 H   0  0  0  0  0  0  0  0  0  0  0  0
  153.3363  143.9405  160.3237 H   0  0  0  0  0  0  0  0  0  0  0  0
  152.4286  145.3821  158.4750 H   0  0  0  0  0  0  0  0  0  0  0  0
  150.7558  144.6641  158.7365 H   0  0  0  0  0  0  0  0  0  0  0  0
  149.6056  138.4743  156.0778 H   0  0  0  0  0  0  0  0  0  0  0  0
  149.8476  138.9764  154.4200 H   0  0  0  0  0  0  0  0  0  0  0  0
  147.9590  134.7769  156.2597 H   0  0  0  0  0  0  0  0  0  0  0  0
  1  2  1  0  0  0  0
  1 30  1  0  0  0  0
  1 31  1  0  0  0  0
  1 32  1  0  0  0  0
  2  6  1  0  0  0  0
  2  3  1  0  0  0  0
  2 33  1  0  0  0  0
  3  4  1  0  0  0  0
  4  5  1  0  0  0  0
  4 34  1  0  0  0  0
  4 35  1  0  0  0  0
  5  6  1  0  0  0  0
  5 36  1  0  0  0  0
  5 37  1  0  0  0  0
  6  7  1  0  0  0  0
  6  8  1  0  0  0  0
  7 38  1  0  0  0  0
  8  9  1  0  0  0  0
  8 39  1  0  0  0  0
  8 40  1  0  0  0  0
  9 29  1  0  0  0  0
  9 10  1  0  0  0  0
 10 11  2  0  0  0  0
 10 41  1  0  0  0  0
 11 12  1  0  0  0  0
 12 29  2  0  0  0  0
 12 13  1  0  0  0  0
 13 14  1  0  0  0  0
 13 26  2  0  0  0  0
 14 25  1  0  0  0  0
 14 15  1  0  0  0  0
 15 16  1  0  0  0  0
 15 42  1  0  0  0  0
 15 43  1  0  0  0  0
 16 17  1  0  0  0  0
 16 44  1  0  0  0  0
 16 45  1  0  0  0  0
 17 18  1  0  0  0  0
 18 19  1  0  0  0  0
 18 25  1  0  0  0  0
 18 46  1  0  0  0  0
 19 20  1  0  0  0  0
 19 47  1  0  0  0  0
 19 48  1  0  0  0  0
 20 21  1  0  0  0  0
 21 22  1  0  0  0  0
 21 49  1  0  0  0  0
 21 50  1  0  0  0  0
 22 24  1  0  0  0  0
 22 23  1  0  0  0  0
 22 51  1  0  0  0  0
 23 24  1  0  0  0  0
 23 52  1  0  0  0  0
 23 53  1  0  0  0  0
 24 54  1  0  0  0  0
 24 55  1  0  0  0  0
 25 56  1  0  0  0  0
 25 57  1  0  0  0  0
 26 27  1  0  0  0  0
 27 28  2  0  0  0  0
 27 58  1  0  0  0  0
 28 29  1  0  0  0  0
M  END
> <s_m_source_file>
AV-unprocessed.smi

> <i_m_source_file_index>
236

> <i_lp_mmshare_version>
43012

> <i_f3d_flags>
0

> <s_epik_input>
W0NIMl0xW0NIMl1PW0NAQEhdKFtDSDNdKVtDQEBdMShbT0hdKVtDSDJdbihbY0hdbjIpYyhjMjMpbltjSF1uYzNONFtDSDJdW0NIMl1PW0NASF0oW0NIMl00KVtDSDJdT1tDSDJdW0NIXTVbQ0gyXVtDSDJdNQ==

> <s_epik_cmdline>
J2VwaWtfcHl0aG9uJywgJy1waCcsICc3LjAnLCAnLXRuJywgJzgnLCAnLW1hJywgJzIwMCcsICctbWV0YWxfYmluZGluZycsICctaW1hZScsICc8aW5maWxlLm1hZT4nLCAnLW9tYWUnLCAnPG91dGZpbGUubWFlPic=

> <r_lp_tautomer_probability>
1

> <r_epik_Ionization_Penalty>
7.21838e-05

> <r_epik_Ionization_Penalty_Charging>
0

> <r_epik_Ionization_Penalty_Neutral>
7.21838e-05

> <r_epik_State_Penalty>
-0

> <r_epik_Charging_Adjusted_Penalty>
0

> <i_epik_Tot_Q>
0

> <i_epik_Tot_abs_Q>
0

> <r_epik_Metal_State_Penalty>
-0

> <b_epik_Metal_Only>
0

> <s_lp_Force_Field>
OPLS_2005

> <r_lp_Energy>
47.7421

> <b_lp_Chiralities_Consistent>
1

> <s_lp_Variant>
AV-unprocessed.smi:236-5

> <Gold.Version>
5.8.1

> <Gold.Id.Protein>
6NUR|6NUR_protein|mol2

> <Gold.PLP.Fitness>
46.5917

> <Gold.PLP.PLP>
-42.1044

> <Gold.PLP.part.hbond>
-1.0922

> <Gold.PLP.part.metal>
0.0000

> <Gold.PLP.part.buried>
-6.1712

> <Gold.PLP.part.nonpolar>
-36.2637

> <Gold.PLP.part.repulsive>
0.8197

> <Gold.PLP.ligand.clash>
0.0000

> <Gold.PLP.ligand.torsion>
1.3763

> <Gold.PLP.Chemscore.Hbond>
1.0000

> <Gold.PLP.Chemscore.CHOScore>
1.0000

> <Gold.PLP.Chemscore.Metal>
0.0000

> <Gold.Chemscore.Hbonds>
donor molecule, donor type, donor heavy atom, donor atom, acceptor molecule, acceptor atom, score
      L1  H     7    38       P1  7921  0.88
      L1  C    10    41       P1 10171  1.00

> <Gold.PLP.Chemscore.Internal.Correction>
1.2399

> <Gold.Rescore>
     Score         DG    S(hbond)    S(metal)    S(lipo)     H(rot)  DE(clash)    DE(int)     intcor
     11.52     -14.58       0.96        0.00     112.98       2.87       0.16       2.89       ----

> <Gold.Chemscore.Fitness>
11.5233

> <Gold.Chemscore.DG>
-14.5774

> <Gold.Chemscore.ZeroCoef>
-5.4800

> <Gold.Chemscore.Hbond>
0.9623

> <Gold.Chemscore.Metal>
0.0000

> <Gold.Chemscore.Lipo>
112.9842

> <Gold.Chemscore.Internal_Hbond>
0.0000

> <Gold.Chemscore.DEClash>
0.1591

> <Gold.Chemscore.DEInternal>
2.8950

> <Gold.Chemscore.Rot>
2.8655

> <Gold.Chemscore.Internal.Correction>
   9.000000E+99

> <Gold.Chemscore.Hbonds>
donor molecule, donor type, donor heavy atom, donor atom, acceptor molecule, acceptor atom, score
      L1  H     7    38       P1  7921  0.74

> <Gold.Chemscore.Hbond.Weighted>
-3.2140

> <Gold.Chemscore.Metal.Weighted>
-0.0000

> <Gold.Chemscore.Lipo.Weighted>
-13.2191

> <Gold.Chemscore.Internal_Hbond.Weighted>
0.0000

> <Gold.Chemscore.DEClash.Weighted>
0.1591

> <Gold.Chemscore.DEInternal.Weighted>
2.8950

> <Gold.Chemscore.Rot.Weighted>
7.3358

> <Gold.Chemscore.Internal.Correction.Weighted>
   9.000000E+99

> <Gold.Protein.RotatedTorsions>
[ 6907 6896 6895 6894 ] final  -52.68 input  -60.11 | X-H torsion
[ 7974 7965 7964 7962 ] final  -40.58 input  175.53 | X-H torsion
[ 8008 7997 7996 7995 ] final -134.63 input   59.86 | X-H torsion
[ 10167 10162 10161 10158 ] final   49.78 input  -65.29 | X-H torsion
[ 10718 10713 10712 10709 ] final  108.12 input   66.30 | X-H torsion
[ 10763 10752 10751 10750 ] final   19.87 input  -60.55 | X-H torsion
[ 11005 11000 10999 10996 ] final   33.98 input  -57.11 | X-H torsion

> <Gold.Protein.ActiveResidues>
 VAL166  LYS551  ARG553  GLY616  TRP617  ASP618  TYR619  PRO620  LYS621  CYS622 
 ASP623  PHE694  ASN695  SER759  ASP760  ASP761  ALA762  ILE779  LEU786  VAL792 
 PHE793  MET794  SER795  GLU796  ALA797  LYS798  CYS799  TRP800  GLU811  SER814 

> <Gold.Protein.RotatedAtoms>
  150.8495  134.7815  159.6997 H   0  0  0  0  0  0  0  0  0  0  0  0  # atno 6907 bound_to 6896
  152.4563  134.5280  159.9812 H   0  0  0  0  0  0  0  0  0  0  0  0  # atno 6908 bound_to 6896
  151.5403  133.3396  159.2970 H   0  0  0  0  0  0  0  0  0  0  0  0  # atno 6909 bound_to 6896
  146.0291  140.6754  142.9141 H   0  0  0  0  0  0  0  0  0  0  0  0  # atno 7974 bound_to 7965
  155.3653  140.0485  157.3046 H   0  0  0  0  0  0  0  0  0  0  0  0  # atno 8008 bound_to 7997
  154.5157  140.2207  155.9033 H   0  0  0  0  0  0  0  0  0  0  0  0  # atno 8009 bound_to 7997
  156.1634  140.3111  155.8852 H   0  0  0  0  0  0  0  0  0  0  0  0  # atno 8010 bound_to 7997
  140.2793  144.3175  150.6268 H   0  0  0  0  0  0  0  0  0  0  0  0  # atno 10167 bound_to 10162
  157.6600  131.0887  150.6258 H   0  0  0  0  0  0  0  0  0  0  0  0  # atno 10718 bound_to 10713
  153.1125  135.6700  153.9475 H   0  0  0  0  0  0  0  0  0  0  0  0  # atno 10763 bound_to 10752
  153.9015  135.3035  155.3450 H   0  0  0  0  0  0  0  0  0  0  0  0  # atno 10764 bound_to 10752
  154.7544  135.5019  153.9424 H   0  0  0  0  0  0  0  0  0  0  0  0  # atno 10765 bound_to 10752
  140.2576  134.3230  155.7868 H   0  0  0  0  0  0  0  0  0  0  0  0  # atno 11005 bound_to 11000
  144.7022  140.3704  143.7146 LP  0  0  0  0  0  0  0  0  0  0  0  0  # atno 17320 bound_to 7965
  145.7069  139.1675  143.2561 LP  0  0  0  0  0  0  0  0  0  0  0  0  # atno 17321 bound_to 7965
  140.5825  143.2172  151.7402 LP  0  0  0  0  0  0  0  0  0  0  0  0  # atno 17342 bound_to 10162
  139.4967  144.4059  152.0132 LP  0  0  0  0  0  0  0  0  0  0  0  0  # atno 17343 bound_to 10162
  156.6561  130.4499  149.5703 LP  0  0  0  0  0  0  0  0  0  0  0  0  # atno 17370 bound_to 10713
  156.2101  130.6674  151.1261 LP  0  0  0  0  0  0  0  0  0  0  0  0  # atno 17371 bound_to 10713
  141.2194  133.7390  156.9136 LP  0  0  0  0  0  0  0  0  0  0  0  0  # atno 17394 bound_to 11000
  140.1496  134.9239  157.2575 LP  0  0  0  0  0  0  0  0  0  0  0  0  # atno 17395 bound_to 11000

$$$$
