AV-unprocessed.smi:887|AV-procd|sdf|4052|dock1
  -GOLD-   22720 1543D 1   1.00000     0.00000
 Structure written by MMmdl.
 31 32  0  0  0  0  0  0  0  0  1 V2000
  149.7596  134.5058  154.7109 C   0  0  0  0  0  0  0  0  0  0  0  0
  150.0442  135.9084  154.4490 N   0  0  0  0  0  0  0  0  0  0  0  0
  150.8798  136.6589  155.1820 C   0  0  0  0  0  0  0  0  0  0  0  0
  151.4931  136.2286  156.1590 O   0  0  0  0  0  0  0  0  0  0  0  0
  151.0536  138.1162  154.7477 C   0  0  0  0  0  0  0  0  0  0  0  0
  151.6660  138.9280  155.8441 C   0  0  0  0  0  0  0  0  0  0  0  0
  152.8533  138.6182  156.3525 N   0  0  0  0  0  0  0  0  0  0  0  0
  153.0455  139.5923  157.3424 O   0  0  0  0  0  0  0  0  0  0  0  0
  151.9559  140.3965  157.2909 C   0  0  0  0  0  0  0  0  0  0  0  0
  151.8233  141.4929  158.3016 C   0  0  2  0  0  0  0  0  0  0  0  0
  151.6031  142.8667  157.6319 C   0  0  0  0  0  0  0  0  0  0  0  0
  151.7628  144.0243  158.6023 C   0  0  0  0  0  0  0  0  0  0  0  0
  152.2928  143.8981  159.8308 C   0  0  0  0  0  0  0  0  0  0  0  0
  152.8051  142.5834  160.3890 C   0  0  0  0  0  0  0  0  0  0  0  0
  153.0058  141.5245  159.2895 C   0  0  0  0  0  0  0  0  0  0  0  0
  151.0438  140.0019  156.4041 N   0  0  0  0  0  0  0  0  0  0  0  0
  149.0312  134.1337  153.9905 H   0  0  0  0  0  0  0  0  0  0  0  0
  149.3478  134.3721  155.7121 H   0  0  0  0  0  0  0  0  0  0  0  0
  150.6647  133.9036  154.6232 H   0  0  0  0  0  0  0  0  0  0  0  0
  149.5770  136.3356  153.6620 H   0  0  0  0  0  0  0  0  0  0  0  0
  151.6913  138.1531  153.8637 H   0  0  0  0  0  0  0  0  0  0  0  0
  150.0936  138.5496  154.4627 H   0  0  0  0  0  0  0  0  0  0  0  0
  150.9308  141.2712  158.8889 H   0  0  0  0  0  0  0  0  0  0  0  0
  152.3284  143.0172  156.8317 H   0  0  0  0  0  0  0  0  0  0  0  0
  150.6140  142.9068  157.1749 H   0  0  0  0  0  0  0  0  0  0  0  0
  151.4292  144.9931  158.2603 H   0  0  0  0  0  0  0  0  0  0  0  0
  152.3586  144.7604  160.4780 H   0  0  0  0  0  0  0  0  0  0  0  0
  153.7456  142.7562  160.9128 H   0  0  0  0  0  0  0  0  0  0  0  0
  152.0886  142.2281  161.1303 H   0  0  0  0  0  0  0  0  0  0  0  0
  153.1445  140.5450  159.7488 H   0  0  0  0  0  0  0  0  0  0  0  0
  153.9257  141.7419  158.7446 H   0  0  0  0  0  0  0  0  0  0  0  0
  1  2  1  0  0  0  0
  1 17  1  0  0  0  0
  1 18  1  0  0  0  0
  1 19  1  0  0  0  0
  2  3  1  0  0  0  0
  2 20  1  0  0  0  0
  3  4  2  0  0  0  0
  3  5  1  0  0  0  0
  5  6  1  0  0  0  0
  5 21  1  0  0  0  0
  5 22  1  0  0  0  0
  6 16  1  0  0  0  0
  6  7  2  0  0  0  0
  7  8  1  0  0  0  0
  8  9  1  0  0  0  0
  9 10  1  0  0  0  0
  9 16  2  0  0  0  0
 10 15  1  0  0  0  0
 10 11  1  0  0  0  0
 10 23  1  0  0  0  0
 11 12  1  0  0  0  0
 11 24  1  0  0  0  0
 11 25  1  0  0  0  0
 12 13  2  0  0  0  0
 12 26  1  0  0  0  0
 13 14  1  0  0  0  0
 13 27  1  0  0  0  0
 14 15  1  0  0  0  0
 14 28  1  0  0  0  0
 14 29  1  0  0  0  0
 15 30  1  0  0  0  0
 15 31  1  0  0  0  0
M  END
> <s_m_source_file>
AV-unprocessed.smi

> <i_m_source_file_index>
887

> <i_lp_mmshare_version>
43012

> <i_f3d_flags>
0

> <s_epik_input>
W0NIM11bTkhdQyg9TylbQ0gyXWMxbm9jKG4xKVtDQEBIXTJbQ0gyXVtDSF09W0NIXVtDSDJdW0NIMl0y

> <s_epik_cmdline>
J2VwaWtfcHl0aG9uJywgJy1waCcsICc3LjAnLCAnLXRuJywgJzgnLCAnLW1hJywgJzIwMCcsICctbWV0YWxfYmluZGluZycsICctaW1hZScsICc8aW5maWxlLm1hZT4nLCAnLW9tYWUnLCAnPG91dGZpbGUubWFlPic=

> <r_lp_tautomer_probability>
1

> <r_epik_Ionization_Penalty>
1.02915e-07

> <r_epik_Ionization_Penalty_Charging>
0

> <r_epik_Ionization_Penalty_Neutral>
1.02915e-07

> <r_epik_State_Penalty>
-0

> <r_epik_Charging_Adjusted_Penalty>
0

> <i_epik_Tot_Q>
0

> <i_epik_Tot_abs_Q>
0

> <r_epik_Metal_State_Penalty>
-0

> <b_epik_Metal_Only>
0

> <s_lp_Force_Field>
OPLS_2005

> <r_lp_Energy>
6.3781

> <b_lp_Chiralities_Consistent>
1

> <s_lp_Variant>
AV-unprocessed.smi:887-1

> <Gold.Version>
5.8.1

> <Gold.Id.Protein>
6NUR|6NUR_protein|mol2

> <Gold.PLP.Fitness>
42.2067

> <Gold.PLP.PLP>
-33.6744

> <Gold.PLP.part.hbond>
-4.6452

> <Gold.PLP.part.metal>
0.0000

> <Gold.PLP.part.buried>
-2.8971

> <Gold.PLP.part.nonpolar>
-26.4035

> <Gold.PLP.part.repulsive>
0.0847

> <Gold.PLP.ligand.clash>
0.0000

> <Gold.PLP.ligand.torsion>
0.2759

> <Gold.PLP.Chemscore.Hbond>
2.9920

> <Gold.PLP.Chemscore.CHOScore>
0.0000

> <Gold.PLP.Chemscore.Metal>
0.0000

> <Gold.Chemscore.Hbonds>
donor molecule, donor type, donor heavy atom, donor atom, acceptor molecule, acceptor atom, score
      L1  H     2    20       P1  7948  0.98
      P1  H  7997  8009       L1     8  1.00
      P1  H 10752 10764       L1     4  0.62

> <Gold.PLP.Chemscore.Internal.Correction>
0.1081

> <Gold.Rescore>
     Score         DG    S(hbond)    S(metal)    S(lipo)     H(rot)  DE(clash)    DE(int)     intcor
     16.08     -17.92       2.43        0.00      72.61       1.63       0.01       1.82       ----

> <Gold.Chemscore.Fitness>
16.0832

> <Gold.Chemscore.DG>
-17.9205

> <Gold.Chemscore.ZeroCoef>
-5.4800

> <Gold.Chemscore.Hbond>
2.4313

> <Gold.Chemscore.Metal>
0.0000

> <Gold.Chemscore.Lipo>
72.6119

> <Gold.Chemscore.Internal_Hbond>
0.0000

> <Gold.Chemscore.DEClash>
0.0149

> <Gold.Chemscore.DEInternal>
1.8224

> <Gold.Chemscore.Rot>
1.6312

> <Gold.Chemscore.Internal.Correction>
   9.000000E+99

> <Gold.Chemscore.Hbonds>
donor molecule, donor type, donor heavy atom, donor atom, acceptor molecule, acceptor atom, score
      L1  H     2    20       P1  7948  0.56
      P1  H  7997  8009       L1     8  0.25
      P1  H 10752 10764       L1     4  0.14

> <Gold.Chemscore.Hbond.Weighted>
-8.1207

> <Gold.Chemscore.Metal.Weighted>
-0.0000

> <Gold.Chemscore.Lipo.Weighted>
-8.4956

> <Gold.Chemscore.Internal_Hbond.Weighted>
0.0000

> <Gold.Chemscore.DEClash.Weighted>
0.0149

> <Gold.Chemscore.DEInternal.Weighted>
1.8224

> <Gold.Chemscore.Rot.Weighted>
4.1758

> <Gold.Chemscore.Internal.Correction.Weighted>
   9.000000E+99

> <Gold.Protein.RotatedTorsions>
[ 6907 6896 6895 6894 ] final  132.35 input  -60.11 | X-H torsion
[ 7974 7965 7964 7962 ] final  152.56 input  175.53 | X-H torsion
[ 8008 7997 7996 7995 ] final  155.75 input   59.86 | X-H torsion
[ 10167 10162 10161 10158 ] final  153.69 input  -65.29 | X-H torsion
[ 10718 10713 10712 10709 ] final  169.00 input   66.30 | X-H torsion
[ 10763 10752 10751 10750 ] final  -19.88 input  -60.55 | X-H torsion
[ 11005 11000 10999 10996 ] final -152.54 input  -57.11 | X-H torsion

> <Gold.Protein.ActiveResidues>
 VAL166  LYS551  ARG553  GLY616  TRP617  ASP618  TYR619  PRO620  LYS621  CYS622 
 ASP623  PHE694  ASN695  SER759  ASP760  ASP761  ALA762  ILE779  LEU786  VAL792 
 PHE793  MET794  SER795  GLU796  ALA797  LYS798  CYS799  TRP800  GLU811  SER814 

> <Gold.Protein.RotatedAtoms>
  152.3333  133.5983  159.5824 H   0  0  0  0  0  0  0  0  0  0  0  0  # atno 6907 bound_to 6896
  150.7435  133.9835  159.3593 H   0  0  0  0  0  0  0  0  0  0  0  0  # atno 6908 bound_to 6896
  151.7707  135.0787  160.0410 H   0  0  0  0  0  0  0  0  0  0  0  0  # atno 6909 bound_to 6896
  144.8214  139.6684  143.6099 H   0  0  0  0  0  0  0  0  0  0  0  0  # atno 7974 bound_to 7965
  156.2461  140.1931  156.6850 H   0  0  0  0  0  0  0  0  0  0  0  0  # atno 8008 bound_to 7997
  154.6294  140.0598  156.9739 H   0  0  0  0  0  0  0  0  0  0  0  0  # atno 8009 bound_to 7997
  155.1735  140.3270  155.4391 H   0  0  0  0  0  0  0  0  0  0  0  0  # atno 8010 bound_to 7997
  139.4826  144.5251  151.7813 H   0  0  0  0  0  0  0  0  0  0  0  0  # atno 10167 bound_to 10162
  157.0289  131.0253  151.2751 H   0  0  0  0  0  0  0  0  0  0  0  0  # atno 10718 bound_to 10713
  153.6117  135.6996  153.5344 H   0  0  0  0  0  0  0  0  0  0  0  0  # atno 10763 bound_to 10752
  153.3011  135.4128  155.1253 H   0  0  0  0  0  0  0  0  0  0  0  0  # atno 10764 bound_to 10752
  154.8562  135.3649  154.5656 H   0  0  0  0  0  0  0  0  0  0  0  0  # atno 10765 bound_to 10752
  140.7177  134.3762  157.5188 H   0  0  0  0  0  0  0  0  0  0  0  0  # atno 11005 bound_to 11000
  146.2520  139.6219  142.9421 LP  0  0  0  0  0  0  0  0  0  0  0  0  # atno 17320 bound_to 7965
  145.5096  141.0436  143.2495 LP  0  0  0  0  0  0  0  0  0  0  0  0  # atno 17321 bound_to 7965
  140.4770  144.1504  150.5926 LP  0  0  0  0  0  0  0  0  0  0  0  0  # atno 17342 bound_to 10162
  140.4319  143.2564  151.9584 LP  0  0  0  0  0  0  0  0  0  0  0  0  # atno 17343 bound_to 10162
  157.5193  130.7988  149.7791 LP  0  0  0  0  0  0  0  0  0  0  0  0  # atno 17370 bound_to 10713
  156.0076  130.3848  150.2375 LP  0  0  0  0  0  0  0  0  0  0  0  0  # atno 17371 bound_to 10713
  139.8856  134.8934  156.2636 LP  0  0  0  0  0  0  0  0  0  0  0  0  # atno 17394 bound_to 11000
  141.0030  133.7140  156.0990 LP  0  0  0  0  0  0  0  0  0  0  0  0  # atno 17395 bound_to 11000

$$$$
