AV-unprocessed.smi:1686|AV-procd|sdf|6762|dock9
  -GOLD-   22720 7523D 1   1.00000     0.00000
 Structure written by MMmdl.
 41 43  0  0  0  0  0  0  0  0  1 V2000
  151.3393  131.3171  156.0646 C   0  0  0  0  0  0  0  0  0  0  0  0
  150.6245  132.6353  156.1477 C   0  0  0  0  0  0  0  0  0  0  0  0
  150.7260  133.3612  157.2533 N   0  0  0  0  0  0  0  0  0  0  0  0
  149.9727  134.5202  157.0345 O   0  0  0  0  0  0  0  0  0  0  0  0
  149.4507  134.4245  155.7905 C   0  0  0  0  0  0  0  0  0  0  0  0
  148.4629  135.6559  155.1104 Cl  0  0  0  0  0  0  0  0  0  0  0  0
  149.8105  133.2670  155.1619 C   0  0  0  0  0  0  0  0  0  0  0  0
  149.4631  132.7802  153.7754 C   0  0  0  0  0  0  0  0  0  0  0  0
  148.0082  132.3088  153.7403 C   0  0  0  0  0  0  0  0  0  0  0  0
  147.2743  132.5012  154.7089 O   0  0  0  0  0  0  0  0  0  0  0  0
  147.6054  131.7103  152.6083 N   0  0  0  0  0  0  0  0  0  0  0  0
  146.2390  131.3118  152.2828 C   0  0  2  0  0  0  0  0  0  0  0  0
  146.1976  129.7833  152.1178 C   0  0  0  0  0  0  0  0  0  0  0  0
  145.7850  132.0736  151.0130 C   0  0  2  0  0  0  0  0  0  0  0  0
  145.9672  133.6107  151.1118 C   0  0  0  0  0  0  0  0  0  0  0  0
  144.5731  134.1566  150.7590 C   0  0  1  0  0  0  0  0  0  0  0  0
  144.2836  133.9059  149.2681 C   0  0  0  0  0  0  0  0  0  0  0  0
  144.0474  132.3848  149.2215 C   0  0  0  0  0  0  0  0  0  0  0  0
  144.2747  131.9593  150.6852 C   0  0  2  0  0  0  0  0  0  0  0  0
  143.6671  133.1386  151.4381 C   0  0  0  0  0  0  0  0  0  0  0  0
  151.6853  131.1195  155.0501 H   0  0  0  0  0  0  0  0  0  0  0  0
  150.6814  130.4988  156.3572 H   0  0  0  0  0  0  0  0  0  0  0  0
  152.2122  131.2927  156.7180 H   0  0  0  0  0  0  0  0  0  0  0  0
  149.5946  133.5639  153.0290 H   0  0  0  0  0  0  0  0  0  0  0  0
  150.1144  131.9596  153.4717 H   0  0  0  0  0  0  0  0  0  0  0  0
  148.2913  131.5912  151.8771 H   0  0  0  0  0  0  0  0  0  0  0  0
  145.5732  131.5834  153.1035 H   0  0  0  0  0  0  0  0  0  0  0  0
  145.1841  129.4216  151.9489 H   0  0  0  0  0  0  0  0  0  0  0  0
  146.5681  129.2841  153.0139 H   0  0  0  0  0  0  0  0  0  0  0  0
  146.8126  129.4570  151.2788 H   0  0  0  0  0  0  0  0  0  0  0  0
  146.3676  131.6955  150.1714 H   0  0  0  0  0  0  0  0  0  0  0  0
  146.2348  133.9215  152.1227 H   0  0  0  0  0  0  0  0  0  0  0  0
  146.7429  133.9811  150.4404 H   0  0  0  0  0  0  0  0  0  0  0  0
  144.4175  135.1905  151.0682 H   0  0  0  0  0  0  0  0  0  0  0  0
  143.3900  134.4431  148.9476 H   0  0  0  0  0  0  0  0  0  0  0  0
  145.1111  134.2190  148.6302 H   0  0  0  0  0  0  0  0  0  0  0  0
  143.0248  132.1673  148.9107 H   0  0  0  0  0  0  0  0  0  0  0  0
  144.7198  131.8784  148.5281 H   0  0  0  0  0  0  0  0  0  0  0  0
  143.8278  130.9934  150.9165 H   0  0  0  0  0  0  0  0  0  0  0  0
  143.8067  133.0862  152.5190 H   0  0  0  0  0  0  0  0  0  0  0  0
  142.6079  133.2898  151.2224 H   0  0  0  0  0  0  0  0  0  0  0  0
  1  2  1  0  0  0  0
  1 21  1  0  0  0  0
  1 22  1  0  0  0  0
  1 23  1  0  0  0  0
  2  7  1  0  0  0  0
  2  3  2  0  0  0  0
  3  4  1  0  0  0  0
  4  5  1  0  0  0  0
  5  6  1  0  0  0  0
  5  7  2  0  0  0  0
  7  8  1  0  0  0  0
  8  9  1  0  0  0  0
  8 24  1  0  0  0  0
  8 25  1  0  0  0  0
  9 10  2  0  0  0  0
  9 11  1  0  0  0  0
 11 12  1  0  0  0  0
 11 26  1  0  0  0  0
 12 13  1  0  0  0  0
 12 14  1  0  0  0  0
 12 27  1  0  0  0  0
 13 28  1  0  0  0  0
 13 29  1  0  0  0  0
 13 30  1  0  0  0  0
 14 19  1  0  0  0  0
 14 15  1  0  0  0  0
 14 31  1  0  0  0  0
 15 16  1  0  0  0  0
 15 32  1  0  0  0  0
 15 33  1  0  0  0  0
 16 20  1  0  0  0  0
 16 17  1  0  0  0  0
 16 34  1  0  0  0  0
 17 18  1  0  0  0  0
 17 35  1  0  0  0  0
 17 36  1  0  0  0  0
 18 19  1  0  0  0  0
 18 37  1  0  0  0  0
 18 38  1  0  0  0  0
 19 20  1  0  0  0  0
 19 39  1  0  0  0  0
 20 40  1  0  0  0  0
 20 41  1  0  0  0  0
M  END
> <s_m_source_file>
AV-unprocessed.smi

> <i_m_source_file_index>
1686

> <i_lp_mmshare_version>
43012

> <i_f3d_flags>
0

> <s_epik_input>
W0NIM11jMW5vYyhDbCljMVtDSDJdQyg9TylbTkhdW0NASF0oW0NIM10pW0NASF0oW0NIMl1bQ0BIXTIzKVtDQEhdKFtDSDJdMylbQ0gyXVtDSDJdMg==

> <s_epik_cmdline>
J2VwaWtfcHl0aG9uJywgJy1waCcsICc3LjAnLCAnLXRuJywgJzgnLCAnLW1hJywgJzIwMCcsICctbWV0YWxfYmluZGluZycsICctaW1hZScsICc8aW5maWxlLm1hZT4nLCAnLW9tYWUnLCAnPG91dGZpbGUubWFlPic=

> <r_lp_tautomer_probability>
1

> <r_epik_Ionization_Penalty>
2.01576e-08

> <r_epik_Ionization_Penalty_Charging>
0

> <r_epik_Ionization_Penalty_Neutral>
2.01576e-08

> <r_epik_State_Penalty>
-0

> <r_epik_Charging_Adjusted_Penalty>
0

> <i_epik_Tot_Q>
0

> <i_epik_Tot_abs_Q>
0

> <r_epik_Metal_State_Penalty>
-0

> <b_epik_Metal_Only>
0

> <s_lp_Force_Field>
OPLS_2005

> <r_lp_Energy>
45.7389

> <b_lp_Chiralities_Consistent>
1

> <s_lp_Variant>
AV-unprocessed.smi:1686-5

> <Gold.Version>
5.8.1

> <Gold.Id.Protein>
6NUR|6NUR_protein|mol2

> <Gold.PLP.Fitness>
42.2547

> <Gold.PLP.PLP>
-37.2406

> <Gold.PLP.part.hbond>
-2.1586

> <Gold.PLP.part.metal>
0.0000

> <Gold.PLP.part.buried>
-2.2601

> <Gold.PLP.part.nonpolar>
-32.6068

> <Gold.PLP.part.repulsive>
0.0142

> <Gold.PLP.ligand.clash>
0.0000

> <Gold.PLP.ligand.torsion>
0.3020

> <Gold.PLP.Chemscore.Hbond>
1.8640

> <Gold.PLP.Chemscore.CHOScore>
0.0000

> <Gold.PLP.Chemscore.Metal>
0.0000

> <Gold.Chemscore.Hbonds>
donor molecule, donor type, donor heavy atom, donor atom, acceptor molecule, acceptor atom, score
      L1  H    11    26       P1 10747  1.00
      P1  H  6896  6909       L1     3  0.86

> <Gold.PLP.Chemscore.Internal.Correction>
0.0261

> <Gold.Rescore>
     Score         DG    S(hbond)    S(metal)    S(lipo)     H(rot)  DE(clash)    DE(int)     intcor
     18.10     -20.23       1.75        0.00     108.19       1.46       1.85       0.28       ----

> <Gold.Chemscore.Fitness>
18.1031

> <Gold.Chemscore.DG>
-20.2344

> <Gold.Chemscore.ZeroCoef>
-5.4800

> <Gold.Chemscore.Hbond>
1.7504

> <Gold.Chemscore.Metal>
0.0000

> <Gold.Chemscore.Lipo>
108.1890

> <Gold.Chemscore.Internal_Hbond>
0.0000

> <Gold.Chemscore.DEClash>
1.8501

> <Gold.Chemscore.DEInternal>
0.2812

> <Gold.Chemscore.Rot>
1.4648

> <Gold.Chemscore.Internal.Correction>
   9.000000E+99

> <Gold.Chemscore.Hbonds>
donor molecule, donor type, donor heavy atom, donor atom, acceptor molecule, acceptor atom, score
      L1  H    11    26       P1 10747  0.98
      P1  H  6896  6909       L1     3  0.25

> <Gold.Chemscore.Hbond.Weighted>
-5.8462

> <Gold.Chemscore.Metal.Weighted>
-0.0000

> <Gold.Chemscore.Lipo.Weighted>
-12.6581

> <Gold.Chemscore.Internal_Hbond.Weighted>
0.0000

> <Gold.Chemscore.DEClash.Weighted>
1.8501

> <Gold.Chemscore.DEInternal.Weighted>
0.2812

> <Gold.Chemscore.Rot.Weighted>
3.7500

> <Gold.Chemscore.Internal.Correction.Weighted>
   9.000000E+99

> <Gold.Protein.RotatedTorsions>
[ 6907 6896 6895 6894 ] final  -25.15 input  -60.11 | X-H torsion
[ 7974 7965 7964 7962 ] final   16.11 input  175.53 | X-H torsion
[ 8008 7997 7996 7995 ] final  -14.49 input   59.86 | X-H torsion
[ 10167 10162 10161 10158 ] final   91.33 input  -65.29 | X-H torsion
[ 10718 10713 10712 10709 ] final  -38.25 input   66.30 | X-H torsion
[ 10763 10752 10751 10750 ] final   -5.08 input  -60.55 | X-H torsion
[ 11005 11000 10999 10996 ] final   85.68 input  -57.11 | X-H torsion

> <Gold.Protein.ActiveResidues>
 VAL166  LYS551  ARG553  GLY616  TRP617  ASP618  TYR619  PRO620  LYS621  CYS622 
 ASP623  PHE694  ASN695  SER759  ASP760  ASP761  ALA762  ILE779  LEU786  VAL792 
 PHE793  MET794  SER795  GLU796  ALA797  LYS798  CYS799  TRP800  GLU811  SER814 

> <Gold.Protein.RotatedAtoms>
  151.1794  135.0354  159.8785 H   0  0  0  0  0  0  0  0  0  0  0  0  # atno 6907 bound_to 6896
  152.5445  134.1080  159.8356 H   0  0  0  0  0  0  0  0  0  0  0  0  # atno 6908 bound_to 6896
  151.1196  133.5067  159.2635 H   0  0  0  0  0  0  0  0  0  0  0  0  # atno 6909 bound_to 6896
  146.2259  139.8796  142.8573 H   0  0  0  0  0  0  0  0  0  0  0  0  # atno 7974 bound_to 7965
  154.5206  140.2221  155.8984 H   0  0  0  0  0  0  0  0  0  0  0  0  # atno 8008 bound_to 7997
  156.1657  140.3132  155.8850 H   0  0  0  0  0  0  0  0  0  0  0  0  # atno 8009 bound_to 7997
  155.3661  140.0464  157.3036 H   0  0  0  0  0  0  0  0  0  0  0  0  # atno 8010 bound_to 7997
  139.8385  144.6653  150.9312 H   0  0  0  0  0  0  0  0  0  0  0  0  # atno 10167 bound_to 10162
  156.3059  130.4246  149.8097 H   0  0  0  0  0  0  0  0  0  0  0  0  # atno 10718 bound_to 10713
  153.3936  135.7002  153.6477 H   0  0  0  0  0  0  0  0  0  0  0  0  # atno 10763 bound_to 10752
  153.5039  135.3646  155.2554 H   0  0  0  0  0  0  0  0  0  0  0  0  # atno 10764 bound_to 10752
  154.8704  135.4118  154.3257 H   0  0  0  0  0  0  0  0  0  0  0  0  # atno 10765 bound_to 10752
  139.8965  134.8303  156.2615 H   0  0  0  0  0  0  0  0  0  0  0  0  # atno 11005 bound_to 11000
  145.2526  141.0049  143.3872 LP  0  0  0  0  0  0  0  0  0  0  0  0  # atno 17320 bound_to 7965
  144.9363  139.4241  143.6471 LP  0  0  0  0  0  0  0  0  0  0  0  0  # atno 17321 bound_to 7965
  140.7800  143.3935  151.1270 LP  0  0  0  0  0  0  0  0  0  0  0  0  # atno 17342 bound_to 10162
  139.7583  143.8674  152.3094 LP  0  0  0  0  0  0  0  0  0  0  0  0  # atno 17343 bound_to 10162
  156.5458  130.8320  151.3284 LP  0  0  0  0  0  0  0  0  0  0  0  0  # atno 17370 bound_to 10713
  157.7379  130.9804  150.2222 LP  0  0  0  0  0  0  0  0  0  0  0  0  # atno 17371 bound_to 10713
  141.0159  133.7069  156.1188 LP  0  0  0  0  0  0  0  0  0  0  0  0  # atno 17394 bound_to 11000
  140.7302  134.4263  157.5566 LP  0  0  0  0  0  0  0  0  0  0  0  0  # atno 17395 bound_to 11000

$$$$
