AV-unprocessed.smi:1762|AV-procd|sdf|7106|dock4
  -GOLD-   22720 8333D 1   1.00000     0.00000
 Structure written by MMmdl.
 53 54  0  0  0  0  0  0  0  0  2 V2000
  149.1736  135.3537  155.1377 C   0  0  0  0  0  0  0  0  0  0  0  0
  147.9754  136.3083  155.0835 C   0  0  1  0  0  0  0  0  0  0  0  0
  148.3891  137.7481  154.7215 C   0  0  0  0  0  0  0  0  0  0  0  0
  147.2368  138.6553  154.5802 N   0  0  0  0  0  0  0  0  0  0  0  0
  147.5996  140.0592  154.2373 C   0  0  2  0  0  0  0  0  0  0  0  0
  148.9722  140.4943  154.8046 C   0  0  0  0  0  0  0  0  0  0  0  0
  149.8458  140.9353  154.0569 O   0  0  0  0  0  0  0  0  0  0  0  0
  149.1407  140.3746  156.1312 N   0  0  0  0  0  0  0  0  0  0  0  0
  150.3582  140.7214  156.8539 C   0  0  0  0  0  0  0  0  0  0  0  0
  150.8391  142.1395  156.5027 C   0  0  0  0  0  0  0  0  0  0  0  0
  151.3377  142.8942  157.7199 C   0  0  0  0  0  0  0  0  0  0  0  0
  152.1633  142.2886  158.6921 C   0  0  0  0  0  0  0  0  0  0  0  0
  152.5987  143.0495  159.7971 C   0  0  0  0  0  0  0  0  0  0  0  0
  152.2016  144.3985  159.9057 C   0  0  0  0  0  0  0  0  0  0  0  0
  151.3774  144.9530  158.9052 C   0  0  0  0  0  0  0  0  0  0  0  0
  150.9804  144.1913  157.8620 N   0  3  0  0  0  0  0  0  0  0  0  0
  146.5030  141.1264  154.5704 C   0  0  0  0  0  0  0  0  0  0  0  0
  146.8659  142.5507  154.1028 C   0  0  0  0  0  0  0  0  0  0  0  0
  146.0791  141.1419  156.0524 C   0  0  0  0  0  0  0  0  0  0  0  0
  146.2915  138.0600  153.6275 C   0  0  0  0  0  0  0  0  0  0  0  0
  145.8930  136.6197  154.0022 C   0  0  1  0  0  0  0  0  0  0  0  0
  144.9683  135.9815  152.9594 C   0  0  0  0  0  0  0  0  0  0  0  0
  147.0655  135.8222  154.1048 O   0  0  0  0  0  0  0  0  0  0  0  0
  149.8975  135.6741  155.8873 H   0  0  0  0  0  0  0  0  0  0  0  0
  149.6849  135.3067  154.1759 H   0  0  0  0  0  0  0  0  0  0  0  0
  148.8550  134.3433  155.3951 H   0  0  0  0  0  0  0  0  0  0  0  0
  147.4834  136.3048  156.0579 H   0  0  0  0  0  0  0  0  0  0  0  0
  149.0659  138.0854  155.5054 H   0  0  0  0  0  0  0  0  0  0  0  0
  148.9650  137.7398  153.7943 H   0  0  0  0  0  0  0  0  0  0  0  0
  147.7134  140.0899  153.1514 H   0  0  0  0  0  0  0  0  0  0  0  0
  148.3706  140.0131  156.6755 H   0  0  0  0  0  0  0  0  0  0  0  0
  150.1930  140.6283  157.9289 H   0  0  0  0  0  0  0  0  0  0  0  0
  151.1243  139.9906  156.5933 H   0  0  0  0  0  0  0  0  0  0  0  0
  151.6398  142.0908  155.7631 H   0  0  0  0  0  0  0  0  0  0  0  0
  150.0315  142.7098  156.0413 H   0  0  0  0  0  0  0  0  0  0  0  0
  152.4614  141.2546  158.5935 H   0  0  0  0  0  0  0  0  0  0  0  0
  153.2306  142.6040  160.5518 H   0  0  0  0  0  0  0  0  0  0  0  0
  152.5250  144.9983  160.7440 H   0  0  0  0  0  0  0  0  0  0  0  0
  151.0263  145.9747  158.9078 H   0  0  0  0  0  0  0  0  0  0  0  0
  145.6153  140.8806  153.9900 H   0  0  0  0  0  0  0  0  0  0  0  0
  147.6797  142.9811  154.6874 H   0  0  0  0  0  0  0  0  0  0  0  0
  146.0109  143.2202  154.2007 H   0  0  0  0  0  0  0  0  0  0  0  0
  147.1653  142.5567  153.0544 H   0  0  0  0  0  0  0  0  0  0  0  0
  146.8882  141.4699  156.7045 H   0  0  0  0  0  0  0  0  0  0  0  0
  145.7592  140.1555  156.3887 H   0  0  0  0  0  0  0  0  0  0  0  0
  145.2415  141.8223  156.2082 H   0  0  0  0  0  0  0  0  0  0  0  0
  145.3710  138.6384  153.5845 H   0  0  0  0  0  0  0  0  0  0  0  0
  146.7194  138.0722  152.6235 H   0  0  0  0  0  0  0  0  0  0  0  0
  145.3806  136.6225  154.9660 H   0  0  0  0  0  0  0  0  0  0  0  0
  144.0441  136.5503  152.8536 H   0  0  0  0  0  0  0  0  0  0  0  0
  144.7009  134.9645  153.2466 H   0  0  0  0  0  0  0  0  0  0  0  0
  145.4478  135.9365  151.9811 H   0  0  0  0  0  0  0  0  0  0  0  0
  150.3838  144.6134  157.1500 H   0  0  0  0  0  0  0  0  0  0  0  0
  1  2  1  0  0  0  0
  1 24  1  0  0  0  0
  1 25  1  0  0  0  0
  1 26  1  0  0  0  0
  2 23  1  0  0  0  0
  2  3  1  0  0  0  0
  2 27  1  0  0  0  0
  3  4  1  0  0  0  0
  3 28  1  0  0  0  0
  3 29  1  0  0  0  0
  4  5  1  0  0  0  0
  4 20  1  0  0  0  0
  5  6  1  0  0  0  0
  5 17  1  0  0  0  0
  5 30  1  0  0  0  0
  6  7  2  0  0  0  0
  6  8  1  0  0  0  0
  8  9  1  0  0  0  0
  8 31  1  0  0  0  0
  9 10  1  0  0  0  0
  9 32  1  0  0  0  0
  9 33  1  0  0  0  0
 10 11  1  0  0  0  0
 10 34  1  0  0  0  0
 10 35  1  0  0  0  0
 11 16  1  0  0  0  0
 11 12  2  0  0  0  0
 12 13  1  0  0  0  0
 12 36  1  0  0  0  0
 13 14  2  0  0  0  0
 13 37  1  0  0  0  0
 14 15  1  0  0  0  0
 14 38  1  0  0  0  0
 15 16  2  0  0  0  0
 15 39  1  0  0  0  0
 16 53  1  0  0  0  0
 17 18  1  0  0  0  0
 17 19  1  0  0  0  0
 17 40  1  0  0  0  0
 18 41  1  0  0  0  0
 18 42  1  0  0  0  0
 18 43  1  0  0  0  0
 19 44  1  0  0  0  0
 19 45  1  0  0  0  0
 19 46  1  0  0  0  0
 20 21  1  0  0  0  0
 20 47  1  0  0  0  0
 20 48  1  0  0  0  0
 21 22  1  0  0  0  0
 21 23  1  0  0  0  0
 21 49  1  0  0  0  0
 22 50  1  0  0  0  0
 22 51  1  0  0  0  0
 22 52  1  0  0  0  0
M  CHG  1  16   1
M  END
> <s_m_source_file>
AV-unprocessed.smi

> <i_m_source_file_index>
1762

> <i_lp_mmshare_version>
43012

> <i_f3d_flags>
0

> <s_epik_input>
W0NIM11bQ0BASF0xW0NIMl1OKFtDSDJdW0NASF0oTzEpW0NIM10pW0NAQEhdKFtDSF0oW0NIM10pW0NIM10pQyg9TylbTkhdW0NIMl1bQ0gyXWMyW2NIXVtjSF1bY0hdW2NIXW4y

> <s_epik_cmdline>
J2VwaWtfcHl0aG9uJywgJy1waCcsICc3LjAnLCAnLXRuJywgJzgnLCAnLW1hJywgJzIwMCcsICctbWV0YWxfYmluZGluZycsICctaW1hZScsICc8aW5maWxlLm1hZT4nLCAnLW9tYWUnLCAnPG91dGZpbGUubWFlPic=

> <r_epik_Ionization_Penalty>
1.86475

> <r_epik_Ionization_Penalty_Charging>
1.85347

> <r_epik_Ionization_Penalty_Neutral>
0.0112771

> <r_epik_State_Penalty>
1.99714

> <r_epik_Charging_Adjusted_Penalty>
3.85061

> <i_epik_Tot_Q>
1

> <i_epik_Tot_abs_Q>
1

> <r_epik_Metal_State_Penalty>
2.02271

> <b_epik_Metal_Only>
0

> <s_lp_Force_Field>
OPLS_2005

> <r_lp_Energy>
32.9979

> <b_lp_Chiralities_Consistent>
1

> <s_lp_Variant>
AV-unprocessed.smi:1762-8

> <Gold.Version>
5.8.1

> <Gold.Id.Protein>
6NUR|6NUR_protein|mol2

> <Gold.PLP.Fitness>
43.0308

> <Gold.PLP.PLP>
-36.3921

> <Gold.PLP.part.hbond>
-2.9104

> <Gold.PLP.part.metal>
0.0000

> <Gold.PLP.part.buried>
-5.8696

> <Gold.PLP.part.nonpolar>
-30.0768

> <Gold.PLP.part.repulsive>
2.4860

> <Gold.PLP.ligand.clash>
0.0000

> <Gold.PLP.ligand.torsion>
1.2986

> <Gold.PLP.Chemscore.Hbond>
2.9739

> <Gold.PLP.Chemscore.CHOScore>
0.0000

> <Gold.PLP.Chemscore.Metal>
0.0000

> <Gold.Chemscore.Hbonds>
donor molecule, donor type, donor heavy atom, donor atom, acceptor molecule, acceptor atom, score
      L1  H    16    53       P1  8028  1.76
      P1  H  7989  7998       L1     7  0.51
      P1  H  8011  8017       L1     7  0.34

> <Gold.PLP.Chemscore.Internal.Correction>
0.3144

> <Gold.Rescore>
     Score         DG    S(hbond)    S(metal)    S(lipo)     H(rot)  DE(clash)    DE(int)     intcor
     16.57     -20.40       1.94        0.00     109.81       1.72       1.43       2.40       ----

> <Gold.Chemscore.Fitness>
16.5696

> <Gold.Chemscore.DG>
-20.4029

> <Gold.Chemscore.ZeroCoef>
-5.4800

> <Gold.Chemscore.Hbond>
1.9376

> <Gold.Chemscore.Metal>
0.0000

> <Gold.Chemscore.Lipo>
109.8112

> <Gold.Chemscore.Internal_Hbond>
0.0000

> <Gold.Chemscore.DEClash>
1.4312

> <Gold.Chemscore.DEInternal>
2.4021

> <Gold.Chemscore.Rot>
1.7174

> <Gold.Chemscore.Internal.Correction>
   9.000000E+99

> <Gold.Chemscore.Hbonds>
donor molecule, donor type, donor heavy atom, donor atom, acceptor molecule, acceptor atom, score
      L1  H    16    53       P1  8028  0.51
      P1  H  7989  7998       L1     7  0.50
      P1  H  8011  8017       L1     7  0.34

> <Gold.Chemscore.Hbond.Weighted>
-6.4715

> <Gold.Chemscore.Metal.Weighted>
-0.0000

> <Gold.Chemscore.Lipo.Weighted>
-12.8479

> <Gold.Chemscore.Internal_Hbond.Weighted>
0.0000

> <Gold.Chemscore.DEClash.Weighted>
1.4312

> <Gold.Chemscore.DEInternal.Weighted>
2.4021

> <Gold.Chemscore.Rot.Weighted>
4.3966

> <Gold.Chemscore.Internal.Correction.Weighted>
   9.000000E+99

> <Gold.Protein.RotatedTorsions>
[ 6907 6896 6895 6894 ] final    5.29 input  -60.11 | X-H torsion
[ 7974 7965 7964 7962 ] final  -96.88 input  175.53 | X-H torsion
[ 8008 7997 7996 7995 ] final   34.61 input   59.86 | X-H torsion
[ 10167 10162 10161 10158 ] final   56.36 input  -65.29 | X-H torsion
[ 10718 10713 10712 10709 ] final  -32.39 input   66.30 | X-H torsion
[ 10763 10752 10751 10750 ] final  134.07 input  -60.55 | X-H torsion
[ 11005 11000 10999 10996 ] final -128.33 input  -57.11 | X-H torsion

> <Gold.Protein.ActiveResidues>
 VAL166  LYS551  ARG553  GLY616  TRP617  ASP618  TYR619  PRO620  LYS621  CYS622 
 ASP623  PHE694  ASN695  SER759  ASP760  ASP761  ALA762  ILE779  LEU786  VAL792 
 PHE793  MET794  SER795  GLU796  ALA797  LYS798  CYS799  TRP800  GLU811  SER814 

> <Gold.Protein.RotatedAtoms>
  151.6551  135.0996  160.0168 H   0  0  0  0  0  0  0  0  0  0  0  0  # atno 6907 bound_to 6896
  152.3978  133.6769  159.6300 H   0  0  0  0  0  0  0  0  0  0  0  0  # atno 6908 bound_to 6896
  150.7883  133.8760  159.3313 H   0  0  0  0  0  0  0  0  0  0  0  0  # atno 6909 bound_to 6896
  145.3411  140.9460  143.2607 H   0  0  0  0  0  0  0  0  0  0  0  0  # atno 7974 bound_to 7965
  155.1577  140.3280  155.4418 H   0  0  0  0  0  0  0  0  0  0  0  0  # atno 8008 bound_to 7997
  156.2553  140.1965  156.6636 H   0  0  0  0  0  0  0  0  0  0  0  0  # atno 8009 bound_to 7997
  154.6427  140.0568  156.9851 H   0  0  0  0  0  0  0  0  0  0  0  0  # atno 8010 bound_to 7997
  140.2096  144.3903  150.6494 H   0  0  0  0  0  0  0  0  0  0  0  0  # atno 10167 bound_to 10162
  156.3755  130.4347  149.7511 H   0  0  0  0  0  0  0  0  0  0  0  0  # atno 10718 bound_to 10713
  153.8175  135.3120  155.3407 H   0  0  0  0  0  0  0  0  0  0  0  0  # atno 10763 bound_to 10752
  154.8026  135.4717  154.0316 H   0  0  0  0  0  0  0  0  0  0  0  0  # atno 10764 bound_to 10752
  153.1714  135.6878  153.8692 H   0  0  0  0  0  0  0  0  0  0  0  0  # atno 10765 bound_to 10752
  140.9525  134.1046  157.4048 H   0  0  0  0  0  0  0  0  0  0  0  0  # atno 11005 bound_to 11000
  144.8790  139.4931  143.6732 LP  0  0  0  0  0  0  0  0  0  0  0  0  # atno 17320 bound_to 7965
  146.3007  139.7417  142.9093 LP  0  0  0  0  0  0  0  0  0  0  0  0  # atno 17321 bound_to 7965
  140.6333  143.2191  151.6449 LP  0  0  0  0  0  0  0  0  0  0  0  0  # atno 17342 bound_to 10162
  139.5185  144.3282  152.0850 LP  0  0  0  0  0  0  0  0  0  0  0  0  # atno 17343 bound_to 10162
  156.4622  130.7957  151.2977 LP  0  0  0  0  0  0  0  0  0  0  0  0  # atno 17370 bound_to 10713
  157.7488  131.0062  150.3143 LP  0  0  0  0  0  0  0  0  0  0  0  0  # atno 17371 bound_to 10713
  139.8852  135.0070  156.6418 LP  0  0  0  0  0  0  0  0  0  0  0  0  # atno 17394 bound_to 11000
  140.7582  133.8839  155.8398 LP  0  0  0  0  0  0  0  0  0  0  0  0  # atno 17395 bound_to 11000

$$$$
