AV-unprocessed.smi:835|AV-procd|sdf|3887|dock2
  -GOLD-   22720 1343D 1   1.00000     0.00000
 Structure written by MMmdl.
 41 43  0  0  0  0  0  0  0  0  2 V2000
  150.6899  142.0996  156.2601 C   0  0  0  0  0  0  0  0  0  0  0  0
  150.3927  140.8725  155.4500 C   0  0  0  0  0  0  0  0  0  0  0  0
  149.1733  140.5249  154.7988 C   0  0  0  0  0  0  0  0  0  0  0  0
  149.4739  139.3223  154.2198 C   0  0  0  0  0  0  0  0  0  0  0  0
  148.6807  138.5137  153.4678 N   0  0  0  0  0  0  0  0  0  0  0  0
  147.3435  138.5411  153.3318 C   0  0  0  0  0  0  0  0  0  0  0  0
  146.5835  139.3354  153.8859 O   0  0  0  0  0  0  0  0  0  0  0  0
  146.9211  137.5839  152.4938 N   0  0  0  0  0  0  0  0  0  0  0  0
  145.5277  137.3660  152.1197 C   0  0  1  0  0  0  0  0  0  0  0  0
  145.2843  136.0882  151.3140 C   0  0  0  0  0  0  0  0  0  0  0  0
  143.8399  135.6883  151.6585 C   0  0  0  0  0  0  0  0  0  0  0  0
  143.4175  136.5375  152.7976 N   0  3  1  0  0  0  0  0  0  0  0  0
  142.5981  135.8356  153.8079 C   0  0  0  0  0  0  0  0  0  0  0  0
  141.6552  134.8145  153.2182 C   0  0  0  0  0  0  0  0  0  0  0  0
  141.1231  136.1433  153.7098 C   0  0  0  0  0  0  0  0  0  0  0  0
  144.6382  137.1592  153.3415 C   0  0  0  0  0  0  0  0  0  0  0  0
  150.7770  138.9957  154.5226 N   0  0  0  0  0  0  0  0  0  0  0  0
  151.5468  137.8281  154.1401 C   0  0  0  0  0  0  0  0  0  0  0  0
  151.3427  139.9594  155.2810 N   0  0  0  0  0  0  0  0  0  0  0  0
  149.7875  142.6873  156.4300 H   0  0  0  0  0  0  0  0  0  0  0  0
  151.4112  142.7390  155.7512 H   0  0  0  0  0  0  0  0  0  0  0  0
  151.1035  141.8384  157.2345 H   0  0  0  0  0  0  0  0  0  0  0  0
  148.2469  141.0787  154.7751 H   0  0  0  0  0  0  0  0  0  0  0  0
  149.1701  137.8138  152.9298 H   0  0  0  0  0  0  0  0  0  0  0  0
  147.6103  136.9718  152.0816 H   0  0  0  0  0  0  0  0  0  0  0  0
  145.1568  138.2257  151.5575 H   0  0  0  0  0  0  0  0  0  0  0  0
  145.4346  136.2360  150.2439 H   0  0  0  0  0  0  0  0  0  0  0  0
  145.9660  135.3001  151.6380 H   0  0  0  0  0  0  0  0  0  0  0  0
  143.1675  135.8617  150.8178 H   0  0  0  0  0  0  0  0  0  0  0  0
  143.7909  134.6271  151.9078 H   0  0  0  0  0  0  0  0  0  0  0  0
  143.0640  135.6619  154.7765 H   0  0  0  0  0  0  0  0  0  0  0  0
  141.6807  134.6495  152.1424 H   0  0  0  0  0  0  0  0  0  0  0  0
  141.4291  133.9350  153.8180 H   0  0  0  0  0  0  0  0  0  0  0  0
  140.5469  136.1385  154.6328 H   0  0  0  0  0  0  0  0  0  0  0  0
  140.7941  136.8608  152.9603 H   0  0  0  0  0  0  0  0  0  0  0  0
  145.1139  136.4788  154.0507 H   0  0  0  0  0  0  0  0  0  0  0  0
  144.4148  138.0918  153.8607 H   0  0  0  0  0  0  0  0  0  0  0  0
  151.7284  137.8471  153.0654 H   0  0  0  0  0  0  0  0  0  0  0  0
  150.9930  136.9238  154.3929 H   0  0  0  0  0  0  0  0  0  0  0  0
  152.5051  137.8116  154.6611 H   0  0  0  0  0  0  0  0  0  0  0  0
  142.8603  137.2854  152.4095 H   0  0  0  0  0  0  0  0  0  0  0  0
  1  2  1  0  0  0  0
  1 20  1  0  0  0  0
  1 21  1  0  0  0  0
  1 22  1  0  0  0  0
  2 19  2  0  0  0  0
  2  3  1  0  0  0  0
  3  4  2  0  0  0  0
  3 23  1  0  0  0  0
  4  5  1  0  0  0  0
  4 17  1  0  0  0  0
  5  6  1  0  0  0  0
  5 24  1  0  0  0  0
  6  7  2  0  0  0  0
  6  8  1  0  0  0  0
  8  9  1  0  0  0  0
  8 25  1  0  0  0  0
  9 16  1  0  0  0  0
  9 10  1  0  0  0  0
  9 26  1  0  0  0  0
 10 11  1  0  0  0  0
 10 27  1  0  0  0  0
 10 28  1  0  0  0  0
 11 12  1  0  0  0  0
 11 29  1  0  0  0  0
 11 30  1  0  0  0  0
 12 13  1  0  0  0  0
 12 16  1  0  0  0  0
 12 41  1  0  0  0  0
 13 15  1  0  0  0  0
 13 14  1  0  0  0  0
 13 31  1  0  0  0  0
 14 15  1  0  0  0  0
 14 32  1  0  0  0  0
 14 33  1  0  0  0  0
 15 34  1  0  0  0  0
 15 35  1  0  0  0  0
 16 36  1  0  0  0  0
 16 37  1  0  0  0  0
 17 18  1  0  0  0  0
 17 19  1  0  0  0  0
 18 38  1  0  0  0  0
 18 39  1  0  0  0  0
 18 40  1  0  0  0  0
M  CHG  1  12   1
M  END
> <s_m_source_file>
AV-unprocessed.smi

> <i_m_source_file_index>
835

> <i_lp_mmshare_version>
43012

> <i_f3d_flags>
0

> <s_epik_input>
W0NIM11jMVtjSF1jKG4objEpW0NIM10pW05IXUMoPU8pW05IXVtDQEBIXTJbQ0gyXVtDSDJdTihbQ0gyXTIpW0NIXTNbQ0gyXVtDSDJdMw==

> <s_epik_cmdline>
J2VwaWtfcHl0aG9uJywgJy1waCcsICc3LjAnLCAnLXRuJywgJzgnLCAnLW1hJywgJzIwMCcsICctbWV0YWxfYmluZGluZycsICctaW1hZScsICc8aW5maWxlLm1hZT4nLCAnLW9tYWUnLCAnPG91dGZpbGUubWFlPic=

> <r_lp_tautomer_probability>
1

> <r_epik_Ionization_Penalty>
0.000700689

> <r_epik_Ionization_Penalty_Charging>
0.000627528

> <r_epik_Ionization_Penalty_Neutral>
7.31611e-05

> <r_epik_State_Penalty>
0.00039643

> <r_epik_Charging_Adjusted_Penalty>
0.00102396

> <i_epik_Tot_Q>
1

> <i_epik_Tot_abs_Q>
1

> <r_epik_Metal_State_Penalty>
-0

> <b_epik_Metal_Only>
0

> <s_lp_Force_Field>
OPLS_2005

> <r_lp_Energy>
38.0069

> <b_lp_Chiralities_Consistent>
1

> <s_lp_Variant>
AV-unprocessed.smi:835-2

> <Gold.Version>
5.8.1

> <Gold.Id.Protein>
6NUR|6NUR_protein|mol2

> <Gold.PLP.Fitness>
41.7615

> <Gold.PLP.PLP>
-36.4644

> <Gold.PLP.part.hbond>
-3.9478

> <Gold.PLP.part.metal>
0.0000

> <Gold.PLP.part.buried>
-2.6291

> <Gold.PLP.part.nonpolar>
-30.2043

> <Gold.PLP.part.repulsive>
0.2982

> <Gold.PLP.ligand.clash>
0.0000

> <Gold.PLP.ligand.torsion>
0.9506

> <Gold.PLP.Chemscore.Hbond>
1.9780

> <Gold.PLP.Chemscore.CHOScore>
0.0000

> <Gold.PLP.Chemscore.Metal>
0.0000

> <Gold.Chemscore.Hbonds>
donor molecule, donor type, donor heavy atom, donor atom, acceptor molecule, acceptor atom, score
      L1  H     5    24       P1  7948  0.91
      L1  H     8    25       P1  7948  1.00
      P1  H  7989  7998       L1    19  0.05

> <Gold.PLP.Chemscore.Internal.Correction>
1.2642

> <Gold.Rescore>
     Score         DG    S(hbond)    S(metal)    S(lipo)     H(rot)  DE(clash)    DE(int)     intcor
     14.46     -16.84       1.94        0.00      68.25       1.22       0.44       1.94       ----

> <Gold.Chemscore.Fitness>
14.4617

> <Gold.Chemscore.DG>
-16.8354

> <Gold.Chemscore.ZeroCoef>
-5.4800

> <Gold.Chemscore.Hbond>
1.9439

> <Gold.Chemscore.Metal>
0.0000

> <Gold.Chemscore.Lipo>
68.2476

> <Gold.Chemscore.Internal_Hbond>
0.0000

> <Gold.Chemscore.DEClash>
0.4377

> <Gold.Chemscore.DEInternal>
1.9360

> <Gold.Chemscore.Rot>
1.2196

> <Gold.Chemscore.Internal.Correction>
   9.000000E+99

> <Gold.Chemscore.Hbonds>
donor molecule, donor type, donor heavy atom, donor atom, acceptor molecule, acceptor atom, score
      L1  H     5    24       P1  7948  0.88
      L1  H     8    25       P1  7948  0.93

> <Gold.Chemscore.Hbond.Weighted>
-6.4927

> <Gold.Chemscore.Metal.Weighted>
-0.0000

> <Gold.Chemscore.Lipo.Weighted>
-7.9850

> <Gold.Chemscore.Internal_Hbond.Weighted>
0.0000

> <Gold.Chemscore.DEClash.Weighted>
0.4377

> <Gold.Chemscore.DEInternal.Weighted>
1.9360

> <Gold.Chemscore.Rot.Weighted>
3.1223

> <Gold.Chemscore.Internal.Correction.Weighted>
   9.000000E+99

> <Gold.Protein.RotatedTorsions>
[ 6907 6896 6895 6894 ] final  104.62 input  -60.11 | X-H torsion
[ 7974 7965 7964 7962 ] final -120.83 input  175.53 | X-H torsion
[ 8008 7997 7996 7995 ] final  101.84 input   59.86 | X-H torsion
[ 10167 10162 10161 10158 ] final  -44.74 input  -65.29 | X-H torsion
[ 10718 10713 10712 10709 ] final -121.98 input   66.30 | X-H torsion
[ 10763 10752 10751 10750 ] final  131.76 input  -60.55 | X-H torsion
[ 11005 11000 10999 10996 ] final  -26.90 input  -57.11 | X-H torsion

> <Gold.Protein.ActiveResidues>
 VAL166  LYS551  ARG553  GLY616  TRP617  ASP618  TYR619  PRO620  LYS621  CYS622 
 ASP623  PHE694  ASN695  SER759  ASP760  ASP761  ALA762  ILE779  LEU786  VAL792 
 PHE793  MET794  SER795  GLU796  ALA797  LYS798  CYS799  TRP800  GLU811  SER814 

> <Gold.Protein.RotatedAtoms>
  152.5258  133.9649  159.7734 H   0  0  0  0  0  0  0  0  0  0  0  0  # atno 6907 bound_to 6896
  150.9932  133.6120  159.2712 H   0  0  0  0  0  0  0  0  0  0  0  0  # atno 6908 bound_to 6896
  151.3256  135.0835  159.9374 H   0  0  0  0  0  0  0  0  0  0  0  0  # atno 6909 bound_to 6896
  145.0470  140.8189  143.4232 H   0  0  0  0  0  0  0  0  0  0  0  0  # atno 7974 bound_to 7965
  156.1337  140.3191  155.8389 H   0  0  0  0  0  0  0  0  0  0  0  0  # atno 8008 bound_to 7997
  155.4283  140.0517  157.3037 H   0  0  0  0  0  0  0  0  0  0  0  0  # atno 8009 bound_to 7997
  154.4920  140.2096  155.9541 H   0  0  0  0  0  0  0  0  0  0  0  0  # atno 8010 bound_to 7997
  140.6885  143.2915  151.3539 H   0  0  0  0  0  0  0  0  0  0  0  0  # atno 10167 bound_to 10162
  156.1381  130.6446  150.9728 H   0  0  0  0  0  0  0  0  0  0  0  0  # atno 10718 bound_to 10713
  153.7796  135.3170  155.3364 H   0  0  0  0  0  0  0  0  0  0  0  0  # atno 10763 bound_to 10752
  154.8166  135.4632  154.0664 H   0  0  0  0  0  0  0  0  0  0  0  0  # atno 10764 bound_to 10752
  153.1948  135.6914  153.8391 H   0  0  0  0  0  0  0  0  0  0  0  0  # atno 10765 bound_to 10752
  140.9071  133.7485  156.0621 H   0  0  0  0  0  0  0  0  0  0  0  0  # atno 11005 bound_to 11000
  145.1575  139.2478  143.5409 LP  0  0  0  0  0  0  0  0  0  0  0  0  # atno 17320 bound_to 7965
  146.3515  140.1293  142.8597 LP  0  0  0  0  0  0  0  0  0  0  0  0  # atno 17321 bound_to 7965
  139.6265  144.0804  152.2439 LP  0  0  0  0  0  0  0  0  0  0  0  0  # atno 17342 bound_to 10162
  140.0265  144.6114  150.7523 LP  0  0  0  0  0  0  0  0  0  0  0  0  # atno 17343 bound_to 10162
  157.6551  131.0890  150.7965 LP  0  0  0  0  0  0  0  0  0  0  0  0  # atno 17370 bound_to 10713
  156.8043  130.4931  149.5365 LP  0  0  0  0  0  0  0  0  0  0  0  0  # atno 17371 bound_to 10713
  140.8157  134.3348  157.5398 LP  0  0  0  0  0  0  0  0  0  0  0  0  # atno 17394 bound_to 11000
  139.8751  134.9280  156.3439 LP  0  0  0  0  0  0  0  0  0  0  0  0  # atno 17395 bound_to 11000

$$$$
