AV-unprocessed.smi:1712|AV-procd|sdf|6901|dock9
  -GOLD-   22720 8103D 1   1.00000     0.00000
 Structure written by MMmdl.
 37 38  0  0  0  0  0  0  0  0  1 V2000
  147.7824  141.4879  154.1348 C   0  0  0  0  0  0  0  0  0  0  0  0
  148.1672  140.0253  153.8166 C   0  0  2  0  0  0  0  0  0  0  0  0
  146.8856  139.1547  153.8889 C   0  0  0  0  0  0  0  0  0  0  0  0
  146.9467  138.0034  152.9902 N   0  0  0  0  0  0  0  0  0  0  0  0
  145.8981  137.2783  152.5762 C   0  0  0  0  0  0  0  0  0  0  0  0
  144.7333  137.5150  152.8974 O   0  0  0  0  0  0  0  0  0  0  0  0
  146.2885  136.2684  151.7818 N   0  0  0  0  0  0  0  0  0  0  0  0
  145.4652  135.3048  151.1466 C   0  0  0  0  0  0  0  0  0  0  0  0
  145.8542  133.9668  150.8667 C   0  0  0  0  0  0  0  0  0  0  0  0
  144.8833  133.2968  150.2623 N   0  0  0  0  0  0  0  0  0  0  0  0
  143.8783  134.1950  150.1529 N   0  0  0  0  0  0  0  0  0  0  0  0
  144.1874  135.4306  150.6779 C   0  0  0  0  0  0  0  0  0  0  0  0
  149.2877  139.5185  154.6393 N   0  0  0  0  0  0  0  0  0  0  0  0
  150.0447  138.4567  153.9695 C   0  0  0  0  0  0  0  0  0  0  0  0
  151.2178  137.9409  154.8207 C   0  0  0  0  0  0  0  0  0  0  0  0
  152.0789  139.0217  155.1537 O   0  0  0  0  0  0  0  0  0  0  0  0
  151.4007  140.0490  155.8649 C   0  0  0  0  0  0  0  0  0  0  0  0
  150.2278  140.5767  155.0207 C   0  0  0  0  0  0  0  0  0  0  0  0
  142.9974  133.9530  149.7217 H   0  0  0  0  0  0  0  0  0  0  0  0
  146.8809  141.7847  153.5982 H   0  0  0  0  0  0  0  0  0  0  0  0
  148.5590  142.1906  153.8343 H   0  0  0  0  0  0  0  0  0  0  0  0
  147.5933  141.6305  155.1993 H   0  0  0  0  0  0  0  0  0  0  0  0
  148.4855  140.0120  152.7732 H   0  0  0  0  0  0  0  0  0  0  0  0
  146.7108  138.8363  154.9180 H   0  0  0  0  0  0  0  0  0  0  0  0
  146.0015  139.7387  153.6359 H   0  0  0  0  0  0  0  0  0  0  0  0
  147.8661  137.7256  152.6793 H   0  0  0  0  0  0  0  0  0  0  0  0
  147.2799  136.1782  151.6141 H   0  0  0  0  0  0  0  0  0  0  0  0
  146.7899  133.4700  151.0776 H   0  0  0  0  0  0  0  0  0  0  0  0
  143.4904  136.2551  150.6660 H   0  0  0  0  0  0  0  0  0  0  0  0
  149.4014  137.6057  153.7515 H   0  0  0  0  0  0  0  0  0  0  0  0
  150.4238  138.8195  153.0130 H   0  0  0  0  0  0  0  0  0  0  0  0
  150.8532  137.4618  155.7309 H   0  0  0  0  0  0  0  0  0  0  0  0
  151.7853  137.1910  154.2696 H   0  0  0  0  0  0  0  0  0  0  0  0
  151.0455  139.6655  156.8229 H   0  0  0  0  0  0  0  0  0  0  0  0
  152.1026  140.8542  156.0826 H   0  0  0  0  0  0  0  0  0  0  0  0
  150.6170  141.0653  154.1260 H   0  0  0  0  0  0  0  0  0  0  0  0
  149.7234  141.3443  155.6056 H   0  0  0  0  0  0  0  0  0  0  0  0
  1  2  1  0  0  0  0
  1 20  1  0  0  0  0
  1 21  1  0  0  0  0
  1 22  1  0  0  0  0
  2  3  1  0  0  0  0
  2 13  1  0  0  0  0
  2 23  1  0  0  0  0
  3  4  1  0  0  0  0
  3 24  1  0  0  0  0
  3 25  1  0  0  0  0
  4  5  1  0  0  0  0
  4 26  1  0  0  0  0
  5  6  2  0  0  0  0
  5  7  1  0  0  0  0
  7  8  1  0  0  0  0
  7 27  1  0  0  0  0
  8 12  2  0  0  0  0
  8  9  1  0  0  0  0
  9 10  2  0  0  0  0
  9 28  1  0  0  0  0
 10 11  1  0  0  0  0
 11 19  1  0  0  0  0
 11 12  1  0  0  0  0
 12 29  1  0  0  0  0
 13 18  1  0  0  0  0
 13 14  1  0  0  0  0
 14 15  1  0  0  0  0
 14 30  1  0  0  0  0
 14 31  1  0  0  0  0
 15 16  1  0  0  0  0
 15 32  1  0  0  0  0
 15 33  1  0  0  0  0
 16 17  1  0  0  0  0
 17 18  1  0  0  0  0
 17 34  1  0  0  0  0
 17 35  1  0  0  0  0
 18 36  1  0  0  0  0
 18 37  1  0  0  0  0
M  END
> <s_m_source_file>
AV-unprocessed.smi

> <i_m_source_file_index>
1712

> <i_lp_mmshare_version>
43012

> <i_f3d_flags>
0

> <s_epik_input>
W0NIMl0xW0NIMl1PW0NIMl1bQ0gyXU4xW0NASF0oW0NIM10pW0NIMl1bTkhdQyg9TylbTkhdYzJbY0hdbltuSF1bY0hdMg==

> <s_epik_cmdline>
J2VwaWtfcHl0aG9uJywgJy1waCcsICc3LjAnLCAnLXRuJywgJzgnLCAnLW1hJywgJzIwMCcsICctbWV0YWxfYmluZGluZycsICctaW1hZScsICc8aW5maWxlLm1hZT4nLCAnLW9tYWUnLCAnPG91dGZpbGUubWFlPic=

> <r_lp_tautomer_probability>
0.5

> <r_epik_Ionization_Penalty>
0.242772

> <r_epik_Ionization_Penalty_Charging>
0

> <r_epik_Ionization_Penalty_Neutral>
0.242772

> <r_epik_State_Penalty>
0.233765

> <r_epik_Charging_Adjusted_Penalty>
0.233765

> <i_epik_Tot_Q>
0

> <i_epik_Tot_abs_Q>
0

> <r_epik_Metal_State_Penalty>
0.233764

> <b_epik_Metal_Only>
0

> <s_lp_Force_Field>
OPLS_2005

> <r_lp_Energy>
36.7302

> <b_lp_Chiralities_Consistent>
1

> <s_lp_Variant>
AV-unprocessed.smi:1712-1

> <Gold.Version>
5.8.1

> <Gold.Id.Protein>
6NUR|6NUR_protein|mol2

> <Gold.PLP.Fitness>
38.0337

> <Gold.PLP.PLP>
-29.0243

> <Gold.PLP.part.hbond>
-3.0000

> <Gold.PLP.part.metal>
0.0000

> <Gold.PLP.part.buried>
-1.9411

> <Gold.PLP.part.nonpolar>
-25.6720

> <Gold.PLP.part.repulsive>
0.6116

> <Gold.PLP.ligand.clash>
0.0000

> <Gold.PLP.ligand.torsion>
1.2095

> <Gold.PLP.Chemscore.Hbond>
2.8400

> <Gold.PLP.Chemscore.CHOScore>
0.9572

> <Gold.PLP.Chemscore.Metal>
0.0000

> <Gold.Chemscore.Hbonds>
donor molecule, donor type, donor heavy atom, donor atom, acceptor molecule, acceptor atom, score
      L1  H     4    26       P1  7948  0.91
      L1  H     7    27       P1  7948  1.00
      L1  H    11    19       P1 10186  0.87
      L1  C    12    29       P1 10171  0.97

> <Gold.PLP.Chemscore.Internal.Correction>
0.0370

> <Gold.Rescore>
     Score         DG    S(hbond)    S(metal)    S(lipo)     H(rot)  DE(clash)    DE(int)     intcor
     16.34     -17.64       2.73        0.00      61.80       1.63       0.20       1.10       ----

> <Gold.Chemscore.Fitness>
16.3372

> <Gold.Chemscore.DG>
-17.6363

> <Gold.Chemscore.ZeroCoef>
-5.4800

> <Gold.Chemscore.Hbond>
2.7251

> <Gold.Chemscore.Metal>
0.0000

> <Gold.Chemscore.Lipo>
61.7956

> <Gold.Chemscore.Internal_Hbond>
0.0000

> <Gold.Chemscore.DEClash>
0.2011

> <Gold.Chemscore.DEInternal>
1.0980

> <Gold.Chemscore.Rot>
1.6311

> <Gold.Chemscore.Internal.Correction>
   9.000000E+99

> <Gold.Chemscore.Hbonds>
donor molecule, donor type, donor heavy atom, donor atom, acceptor molecule, acceptor atom, score
      L1  H     4    26       P1  7948  0.85
      L1  H     7    27       P1  7948  1.00
      L1  H    11    19       P1 10186  0.81

> <Gold.Chemscore.Hbond.Weighted>
-9.1019

> <Gold.Chemscore.Metal.Weighted>
-0.0000

> <Gold.Chemscore.Lipo.Weighted>
-7.2301

> <Gold.Chemscore.Internal_Hbond.Weighted>
0.0000

> <Gold.Chemscore.DEClash.Weighted>
0.2011

> <Gold.Chemscore.DEInternal.Weighted>
1.0980

> <Gold.Chemscore.Rot.Weighted>
4.1757

> <Gold.Chemscore.Internal.Correction.Weighted>
   9.000000E+99

> <Gold.Protein.RotatedTorsions>
[ 6907 6896 6895 6894 ] final -119.78 input  -60.11 | X-H torsion
[ 7974 7965 7964 7962 ] final   13.37 input  175.53 | X-H torsion
[ 8008 7997 7996 7995 ] final   65.03 input   59.86 | X-H torsion
[ 10167 10162 10161 10158 ] final   41.31 input  -65.29 | X-H torsion
[ 10718 10713 10712 10709 ] final   84.34 input   66.30 | X-H torsion
[ 10763 10752 10751 10750 ] final    8.48 input  -60.55 | X-H torsion
[ 11005 11000 10999 10996 ] final   98.90 input  -57.11 | X-H torsion

> <Gold.Protein.ActiveResidues>
 VAL166  LYS551  ARG553  GLY616  TRP617  ASP618  TYR619  PRO620  LYS621  CYS622 
 ASP623  PHE694  ASN695  SER759  ASP760  ASP761  ALA762  ILE779  LEU786  VAL792 
 PHE793  MET794  SER795  GLU796  ALA797  LYS798  CYS799  TRP800  GLU811  SER814 

> <Gold.Protein.RotatedAtoms>
  150.8335  133.8052  159.3088 H   0  0  0  0  0  0  0  0  0  0  0  0  # atno 6907 bound_to 6896
  151.5775  135.1058  160.0019 H   0  0  0  0  0  0  0  0  0  0  0  0  # atno 6908 bound_to 6896
  152.4411  133.7408  159.6696 H   0  0  0  0  0  0  0  0  0  0  0  0  # atno 6909 bound_to 6896
  146.2331  139.9198  142.8512 H   0  0  0  0  0  0  0  0  0  0  0  0  # atno 7974 bound_to 7965
  155.6554  140.3497  155.4763 H   0  0  0  0  0  0  0  0  0  0  0  0  # atno 8008 bound_to 7997
  155.9813  140.1175  157.0747 H   0  0  0  0  0  0  0  0  0  0  0  0  # atno 8009 bound_to 7997
  154.4192  140.1137  156.5426 H   0  0  0  0  0  0  0  0  0  0  0  0  # atno 8010 bound_to 7997
  140.3655  144.2172  150.6135 H   0  0  0  0  0  0  0  0  0  0  0  0  # atno 10167 bound_to 10162
  157.6896  131.0129  150.2658 H   0  0  0  0  0  0  0  0  0  0  0  0  # atno 10718 bound_to 10713
  153.2246  135.6885  153.7960 H   0  0  0  0  0  0  0  0  0  0  0  0  # atno 10763 bound_to 10752
  153.7147  135.3277  155.3254 H   0  0  0  0  0  0  0  0  0  0  0  0  # atno 10764 bound_to 10752
  154.8286  135.4599  154.1107 H   0  0  0  0  0  0  0  0  0  0  0  0  # atno 10765 bound_to 10752
  139.8771  134.9071  156.4525 H   0  0  0  0  0  0  0  0  0  0  0  0  # atno 11005 bound_to 11000
  145.2147  140.9910  143.4080 LP  0  0  0  0  0  0  0  0  0  0  0  0  # atno 17320 bound_to 7965
  144.9661  139.3929  143.6332 LP  0  0  0  0  0  0  0  0  0  0  0  0  # atno 17321 bound_to 7965
  140.5085  143.2297  151.8572 LP  0  0  0  0  0  0  0  0  0  0  0  0  # atno 17342 bound_to 10162
  139.4809  144.4978  151.9101 LP  0  0  0  0  0  0  0  0  0  0  0  0  # atno 17343 bound_to 10162
  156.3229  130.3788  149.7559 LP  0  0  0  0  0  0  0  0  0  0  0  0  # atno 17370 bound_to 10713
  156.5123  130.8177  151.3173 LP  0  0  0  0  0  0  0  0  0  0  0  0  # atno 17371 bound_to 10713
  140.8921  133.7840  155.9584 LP  0  0  0  0  0  0  0  0  0  0  0  0  # atno 17394 bound_to 11000
  140.8742  134.2690  157.5176 LP  0  0  0  0  0  0  0  0  0  0  0  0  # atno 17395 bound_to 11000

$$$$
