AV-unprocessed.smi:2159|AV-procd|sdf|8793|dock3
  -GOLD-   2272011573D 1   1.00000     0.00000
 Structure written by MMmdl.
 47 49  0  0  0  0  0  0  0  0  1 V2000
  154.0017  135.9822  160.0982 O   0  0  0  0  0  0  0  0  0  0  0  0
  154.0166  136.6467  161.1344 C   0  0  0  0  0  0  0  0  0  0  0  0
  153.4905  138.0828  161.1322 C   0  0  0  0  0  0  0  0  0  0  0  0
  154.2833  138.9828  160.1639 C   0  0  0  0  0  0  0  0  0  0  0  0
  153.7003  140.3234  160.0815 N   0  0  0  0  0  0  0  0  0  0  0  0
  152.9706  140.7713  159.0422 C   0  0  0  0  0  0  0  0  0  0  0  0
  152.7669  140.1975  157.9728 O   0  0  0  0  0  0  0  0  0  0  0  0
  152.3297  142.0968  159.4259 C   0  0  2  0  0  0  0  0  0  0  0  0
  152.1129  143.2287  158.4205 C   0  0  0  0  0  0  0  0  0  0  0  0
  151.4279  144.3886  159.1913 C   0  0  0  0  0  0  0  0  0  0  0  0
  152.1462  144.7815  160.5163 C   0  0  0  0  0  0  0  0  0  0  0  0
  152.5180  143.5724  161.4157 C   0  0  0  0  0  0  0  0  0  0  0  0
  153.2581  142.5723  160.5263 C   0  0  1  0  0  0  0  0  0  0  0  0
  153.8011  141.2519  161.0516 C   0  0  0  0  0  0  0  0  0  0  0  0
  154.3006  141.1116  162.1676 O   0  0  0  0  0  0  0  0  0  0  0  0
  154.5063  136.1918  162.2991 N   0  0  0  0  0  0  0  0  0  0  0  0
  155.1833  134.9109  162.4899 C   0  0  0  0  0  0  0  0  0  0  0  0
  155.0417  134.3779  163.9309 C   0  0  0  0  0  0  0  0  0  0  0  0
  154.2616  133.0769  164.0341 C   0  0  0  0  0  0  0  0  0  0  0  0
  153.6270  132.7155  165.2412 C   0  0  0  0  0  0  0  0  0  0  0  0
  152.8725  131.5268  165.2723 C   0  0  0  0  0  0  0  0  0  0  0  0
  152.7827  130.7486  164.1020 C   0  0  0  0  0  0  0  0  0  0  0  0
  153.4566  131.1942  162.9476 C   0  0  0  0  0  0  0  0  0  0  0  0
  154.1820  132.3322  162.9071 N   0  0  0  0  0  0  0  0  0  0  0  0
  152.4339  138.0752  160.8625 H   0  0  0  0  0  0  0  0  0  0  0  0
  153.5526  138.4859  162.1445 H   0  0  0  0  0  0  0  0  0  0  0  0
  155.3235  139.0607  160.4861 H   0  0  0  0  0  0  0  0  0  0  0  0
  154.3182  138.5291  159.1715 H   0  0  0  0  0  0  0  0  0  0  0  0
  151.3568  141.8300  159.8455 H   0  0  0  0  0  0  0  0  0  0  0  0
  153.0616  143.5562  157.9930 H   0  0  0  0  0  0  0  0  0  0  0  0
  151.4847  142.8979  157.5927 H   0  0  0  0  0  0  0  0  0  0  0  0
  151.3426  145.2622  158.5443 H   0  0  0  0  0  0  0  0  0  0  0  0
  150.4054  144.0921  159.4287 H   0  0  0  0  0  0  0  0  0  0  0  0
  153.0599  145.3226  160.2664 H   0  0  0  0  0  0  0  0  0  0  0  0
  151.5283  145.4832  161.0772 H   0  0  0  0  0  0  0  0  0  0  0  0
  153.1463  143.8939  162.2470 H   0  0  0  0  0  0  0  0  0  0  0  0
  151.6227  143.1216  161.8459 H   0  0  0  0  0  0  0  0  0  0  0  0
  154.1220  143.0824  160.0939 H   0  0  0  0  0  0  0  0  0  0  0  0
  154.4745  136.8108  163.0963 H   0  0  0  0  0  0  0  0  0  0  0  0
  154.7602  134.1901  161.7902 H   0  0  0  0  0  0  0  0  0  0  0  0
  156.2405  134.9946  162.2329 H   0  0  0  0  0  0  0  0  0  0  0  0
  156.0331  134.2276  164.3610 H   0  0  0  0  0  0  0  0  0  0  0  0
  154.5575  135.1307  164.5540 H   0  0  0  0  0  0  0  0  0  0  0  0
  153.7036  133.3413  166.1185 H   0  0  0  0  0  0  0  0  0  0  0  0
  152.3673  131.2204  166.1763 H   0  0  0  0  0  0  0  0  0  0  0  0
  152.2101  129.8333  164.0886 H   0  0  0  0  0  0  0  0  0  0  0  0
  153.4076  130.6252  162.0311 H   0  0  0  0  0  0  0  0  0  0  0  0
  1  2  2  0  0  0  0
  2  3  1  0  0  0  0
  2 16  1  0  0  0  0
  3  4  1  0  0  0  0
  3 25  1  0  0  0  0
  3 26  1  0  0  0  0
  4  5  1  0  0  0  0
  4 27  1  0  0  0  0
  4 28  1  0  0  0  0
  5 14  1  0  0  0  0
  5  6  1  0  0  0  0
  6  7  2  0  0  0  0
  6  8  1  0  0  0  0
  8 13  1  0  0  0  0
  8  9  1  0  0  0  0
  8 29  1  0  0  0  0
  9 10  1  0  0  0  0
  9 30  1  0  0  0  0
  9 31  1  0  0  0  0
 10 11  1  0  0  0  0
 10 32  1  0  0  0  0
 10 33  1  0  0  0  0
 11 12  1  0  0  0  0
 11 34  1  0  0  0  0
 11 35  1  0  0  0  0
 12 13  1  0  0  0  0
 12 36  1  0  0  0  0
 12 37  1  0  0  0  0
 13 14  1  0  0  0  0
 13 38  1  0  0  0  0
 14 15  2  0  0  0  0
 16 17  1  0  0  0  0
 16 39  1  0  0  0  0
 17 18  1  0  0  0  0
 17 40  1  0  0  0  0
 17 41  1  0  0  0  0
 18 19  1  0  0  0  0
 18 42  1  0  0  0  0
 18 43  1  0  0  0  0
 19 24  1  0  0  0  0
 19 20  2  0  0  0  0
 20 21  1  0  0  0  0
 20 44  1  0  0  0  0
 21 22  2  0  0  0  0
 21 45  1  0  0  0  0
 22 23  1  0  0  0  0
 22 46  1  0  0  0  0
 23 24  2  0  0  0  0
 23 47  1  0  0  0  0
M  END
> <s_m_source_file>
AV-unprocessed.smi

> <i_m_source_file_index>
2159

> <i_lp_mmshare_version>
43012

> <i_f3d_flags>
0

> <s_epik_input>
bjFbY0hdW2NIXVtjSF1bY0hdYzFbQ0gyXVtDSDJdW05IXUMoPU8pW0NIMl1bQ0gyXU4oQzI9TylDKD1PKVtDQEhdKFtDQEBIXTIzKVtDSDJdW0NIMl1bQ0gyXVtDSDJdMw==

> <s_epik_cmdline>
J2VwaWtfcHl0aG9uJywgJy1waCcsICc3LjAnLCAnLXRuJywgJzgnLCAnLW1hJywgJzIwMCcsICctbWV0YWxfYmluZGluZycsICctaW1hZScsICc8aW5maWxlLm1hZT4nLCAnLW9tYWUnLCAnPG91dGZpbGUubWFlPic=

> <r_lp_tautomer_probability>
1

> <r_epik_Ionization_Penalty>
0.026624

> <r_epik_Ionization_Penalty_Charging>
0

> <r_epik_Ionization_Penalty_Neutral>
0.026624

> <r_epik_State_Penalty>
0.0217444

> <r_epik_Charging_Adjusted_Penalty>
0.0217444

> <i_epik_Tot_Q>
0

> <i_epik_Tot_abs_Q>
0

> <r_epik_Metal_State_Penalty>
0.0208054

> <b_epik_Metal_Only>
0

> <s_lp_Force_Field>
OPLS_2005

> <r_lp_Energy>
32.1072

> <b_lp_Chiralities_Consistent>
1

> <s_lp_Variant>
AV-unprocessed.smi:2159-3

> <Gold.Version>
5.8.1

> <Gold.Id.Protein>
6NUR|6NUR_protein|mol2

> <Gold.PLP.Fitness>
55.4210

> <Gold.PLP.PLP>
-51.4965

> <Gold.PLP.part.hbond>
-2.4323

> <Gold.PLP.part.metal>
0.0000

> <Gold.PLP.part.buried>
-6.3038

> <Gold.PLP.part.nonpolar>
-43.1575

> <Gold.PLP.part.repulsive>
0.0401

> <Gold.PLP.ligand.clash>
0.0000

> <Gold.PLP.ligand.torsion>
1.0546

> <Gold.PLP.Chemscore.Hbond>
1.9920

> <Gold.PLP.Chemscore.CHOScore>
0.0000

> <Gold.PLP.Chemscore.Metal>
0.0000

> <Gold.Chemscore.Hbonds>
donor molecule, donor type, donor heavy atom, donor atom, acceptor molecule, acceptor atom, score
      P1  H  6896  6907       L1     1  1.00
      P1  H  7997  8009       L1     7  0.98

> <Gold.PLP.Chemscore.Internal.Correction>
0.0578

> <Gold.Rescore>
     Score         DG    S(hbond)    S(metal)    S(lipo)     H(rot)  DE(clash)    DE(int)     intcor
     21.18     -22.22       1.90        0.00     131.96       1.97       0.06       0.97       ----

> <Gold.Chemscore.Fitness>
21.1831

> <Gold.Chemscore.DG>
-22.2165

> <Gold.Chemscore.ZeroCoef>
-5.4800

> <Gold.Chemscore.Hbond>
1.8987

> <Gold.Chemscore.Metal>
0.0000

> <Gold.Chemscore.Lipo>
131.9578

> <Gold.Chemscore.Internal_Hbond>
0.0000

> <Gold.Chemscore.DEClash>
0.0600

> <Gold.Chemscore.DEInternal>
0.9734

> <Gold.Chemscore.Rot>
1.9704

> <Gold.Chemscore.Internal.Correction>
   9.000000E+99

> <Gold.Chemscore.Hbonds>
donor molecule, donor type, donor heavy atom, donor atom, acceptor molecule, acceptor atom, score
      P1  H  6896  6907       L1     1  0.70
      P1  H  7997  8009       L1     7  0.65

> <Gold.Chemscore.Hbond.Weighted>
-6.3418

> <Gold.Chemscore.Metal.Weighted>
-0.0000

> <Gold.Chemscore.Lipo.Weighted>
-15.4391

> <Gold.Chemscore.Internal_Hbond.Weighted>
0.0000

> <Gold.Chemscore.DEClash.Weighted>
0.0600

> <Gold.Chemscore.DEInternal.Weighted>
0.9734

> <Gold.Chemscore.Rot.Weighted>
5.0443

> <Gold.Chemscore.Internal.Correction.Weighted>
   9.000000E+99

> <Gold.Protein.RotatedTorsions>
[ 6907 6896 6895 6894 ] final   50.12 input  -60.11 | X-H torsion
[ 7974 7965 7964 7962 ] final -149.39 input  175.53 | X-H torsion
[ 8008 7997 7996 7995 ] final  162.10 input   59.86 | X-H torsion
[ 10167 10162 10161 10158 ] final  -92.64 input  -65.29 | X-H torsion
[ 10718 10713 10712 10709 ] final   -7.74 input   66.30 | X-H torsion
[ 10763 10752 10751 10750 ] final  -33.63 input  -60.55 | X-H torsion
[ 11005 11000 10999 10996 ] final -139.86 input  -57.11 | X-H torsion

> <Gold.Protein.ActiveResidues>
 VAL166  LYS551  ARG553  GLY616  TRP617  ASP618  TYR619  PRO620  LYS621  CYS622 
 ASP623  PHE694  ASN695  SER759  ASP760  ASP761  ALA762  ILE779  LEU786  VAL792 
 PHE793  MET794  SER795  GLU796  ALA797  LYS798  CYS799  TRP800  GLU811  SER814 

> <Gold.Protein.RotatedAtoms>
  152.2983  134.7641  160.0363 H   0  0  0  0  0  0  0  0  0  0  0  0  # atno 6907 bound_to 6896
  151.8163  133.3383  159.3579 H   0  0  0  0  0  0  0  0  0  0  0  0  # atno 6908 bound_to 6896
  150.7262  134.5545  159.5856 H   0  0  0  0  0  0  0  0  0  0  0  0  # atno 6909 bound_to 6896
  144.7970  140.5070  143.5733 H   0  0  0  0  0  0  0  0  0  0  0  0  # atno 7974 bound_to 7965
  156.2055  140.1759  156.7808 H   0  0  0  0  0  0  0  0  0  0  0  0  # atno 8008 bound_to 7997
  154.5650  140.0693  156.8907 H   0  0  0  0  0  0  0  0  0  0  0  0  # atno 8009 bound_to 7997
  155.2778  140.3347  155.4263 H   0  0  0  0  0  0  0  0  0  0  0  0  # atno 8010 bound_to 7997
  140.3327  143.2986  151.9924 H   0  0  0  0  0  0  0  0  0  0  0  0  # atno 10167 bound_to 10162
  156.7128  130.5127  149.5887 H   0  0  0  0  0  0  0  0  0  0  0  0  # atno 10718 bound_to 10713
  153.8334  135.6864  153.4811 H   0  0  0  0  0  0  0  0  0  0  0  0  # atno 10763 bound_to 10752
  153.1497  135.4623  154.9616 H   0  0  0  0  0  0  0  0  0  0  0  0  # atno 10764 bound_to 10752
  154.7876  135.3290  154.7795 H   0  0  0  0  0  0  0  0  0  0  0  0  # atno 10765 bound_to 10752
  140.8478  134.2322  157.4776 H   0  0  0  0  0  0  0  0  0  0  0  0  # atno 11005 bound_to 11000
  145.5648  139.1481  143.3321 LP  0  0  0  0  0  0  0  0  0  0  0  0  # atno 17320 bound_to 7965
  146.2241  140.5783  142.9004 LP  0  0  0  0  0  0  0  0  0  0  0  0  # atno 17321 bound_to 7965
  139.4853  144.6222  151.7234 LP  0  0  0  0  0  0  0  0  0  0  0  0  # atno 17342 bound_to 10162
  140.5382  144.0622  150.6078 LP  0  0  0  0  0  0  0  0  0  0  0  0  # atno 17343 bound_to 10162
  156.1649  130.6398  151.0765 LP  0  0  0  0  0  0  0  0  0  0  0  0  # atno 17370 bound_to 10713
  157.6929  131.0804  150.7055 LP  0  0  0  0  0  0  0  0  0  0  0  0  # atno 17371 bound_to 10713
  139.8703  134.9668  156.4575 LP  0  0  0  0  0  0  0  0  0  0  0  0  # atno 17394 bound_to 11000
  140.8823  133.7908  155.9480 LP  0  0  0  0  0  0  0  0  0  0  0  0  # atno 17395 bound_to 11000

$$$$
