AV-unprocessed.smi:170|AV-procd|sdf|1406|dock5
  -GOLD-   2262019163D 1   1.00000     0.00000
 Structure written by MMmdl.
 57 61  0  0  0  0  0  0  0  0  1 V2000
  153.8666  141.0290  161.0416 O   0  0  0  0  0  0  0  0  0  0  0  0
  152.7813  141.5170  160.2754 C   0  0  2  0  0  0  0  0  0  0  0  0
  152.7773  140.8225  158.8993 C   0  0  0  0  0  0  0  0  0  0  0  0
  152.1825  139.4980  158.9427 N   0  0  0  0  0  0  0  0  0  0  0  0
  152.5998  138.4301  159.7037 C   0  0  0  0  0  0  0  0  0  0  0  0
  151.8990  137.3385  159.5598 N   0  0  0  0  0  0  0  0  0  0  0  0
  150.9270  137.6787  158.6262 C   0  0  0  0  0  0  0  0  0  0  0  0
  149.8503  136.9820  158.0057 C   0  0  0  0  0  0  0  0  0  0  0  0
  149.5345  135.6847  158.2223 N   0  0  0  0  0  0  0  0  0  0  0  0
  149.7107  134.8983  157.0074 C   0  0  0  0  0  0  0  0  0  0  0  0
  149.5446  133.4039  157.3145 C   0  0  0  0  0  0  0  0  0  0  0  0
  148.2706  133.1923  157.9079 O   0  0  0  0  0  0  0  0  0  0  0  0
  148.1365  133.8878  159.1426 C   0  0  0  0  0  0  0  0  0  0  0  0
  148.2727  135.4129  158.9231 C   0  0  1  0  0  0  0  0  0  0  0  0
  148.1613  136.1929  160.2600 C   0  0  0  0  0  0  0  0  0  0  0  0
  146.9372  135.8348  161.1062 C   0  0  0  0  0  0  0  0  0  0  0  0
  146.7455  136.5121  162.4745 C   0  0  0  0  0  0  0  0  0  0  0  0
  147.3310  135.2600  163.1297 C   0  0  0  0  0  0  0  0  0  0  0  0
  146.9428  134.4964  161.8619 C   0  0  0  0  0  0  0  0  0  0  0  0
  149.0748  137.6633  157.1270 N   0  0  0  0  0  0  0  0  0  0  0  0
  149.3422  138.9437  156.8524 C   0  0  0  0  0  0  0  0  0  0  0  0
  150.3160  139.7170  157.3382 N   0  0  0  0  0  0  0  0  0  0  0  0
  151.0893  139.0367  158.2323 C   0  0  0  0  0  0  0  0  0  0  0  0
  152.8606  143.0524  160.1458 C   0  0  2  0  0  0  0  0  0  0  0  0
  151.9167  143.8810  161.0236 C   0  0  0  0  0  0  0  0  0  0  0  0
  151.8479  145.1723  160.2399 C   0  0  0  0  0  0  0  0  0  0  0  0
  151.8451  144.6639  158.8001 C   0  0  0  0  0  0  0  0  0  0  0  0
  152.6229  143.4691  158.8038 O   0  0  0  0  0  0  0  0  0  0  0  0
  153.5307  140.7237  161.8707 H   0  0  0  0  0  0  0  0  0  0  0  0
  151.8591  141.2599  160.7980 H   0  0  0  0  0  0  0  0  0  0  0  0
  152.2199  141.4193  158.1764 H   0  0  0  0  0  0  0  0  0  0  0  0
  153.7934  140.7345  158.5125 H   0  0  0  0  0  0  0  0  0  0  0  0
  153.4446  138.4870  160.3748 H   0  0  0  0  0  0  0  0  0  0  0  0
  148.9770  135.2085  156.2617 H   0  0  0  0  0  0  0  0  0  0  0  0
  150.6990  135.0788  156.5821 H   0  0  0  0  0  0  0  0  0  0  0  0
  149.6116  132.8203  156.3963 H   0  0  0  0  0  0  0  0  0  0  0  0
  150.3350  133.0503  157.9785 H   0  0  0  0  0  0  0  0  0  0  0  0
  147.1578  133.6414  159.5526 H   0  0  0  0  0  0  0  0  0  0  0  0
  148.8807  133.5269  159.8547 H   0  0  0  0  0  0  0  0  0  0  0  0
  147.4564  135.7177  158.2692 H   0  0  0  0  0  0  0  0  0  0  0  0
  149.0680  136.0300  160.8437 H   0  0  0  0  0  0  0  0  0  0  0  0
  148.1342  137.2646  160.0648 H   0  0  0  0  0  0  0  0  0  0  0  0
  146.0194  135.9092  160.5226 H   0  0  0  0  0  0  0  0  0  0  0  0
  147.3320  137.4166  162.6366 H   0  0  0  0  0  0  0  0  0  0  0  0
  145.6948  136.6665  162.7261 H   0  0  0  0  0  0  0  0  0  0  0  0
  148.4109  135.3242  163.2727 H   0  0  0  0  0  0  0  0  0  0  0  0
  146.8190  134.9350  164.0358 H   0  0  0  0  0  0  0  0  0  0  0  0
  145.9520  134.0438  161.9301 H   0  0  0  0  0  0  0  0  0  0  0  0
  147.6890  133.7783  161.5201 H   0  0  0  0  0  0  0  0  0  0  0  0
  148.6832  139.4152  156.1383 H   0  0  0  0  0  0  0  0  0  0  0  0
  153.8834  143.3644  160.3641 H   0  0  0  0  0  0  0  0  0  0  0  0
  150.9222  143.4381  161.0822 H   0  0  0  0  0  0  0  0  0  0  0  0
  152.2899  144.0170  162.0389 H   0  0  0  0  0  0  0  0  0  0  0  0
  150.9726  145.7764  160.4803 H   0  0  0  0  0  0  0  0  0  0  0  0
  152.7402  145.7715  160.4261 H   0  0  0  0  0  0  0  0  0  0  0  0
  150.8304  144.4128  158.4897 H   0  0  0  0  0  0  0  0  0  0  0  0
  152.2414  145.3978  158.0981 H   0  0  0  0  0  0  0  0  0  0  0  0
  1  2  1  0  0  0  0
  1 29  1  0  0  0  0
  2  3  1  0  0  0  0
  2 24  1  0  0  0  0
  2 30  1  0  0  0  0
  3  4  1  0  0  0  0
  3 31  1  0  0  0  0
  3 32  1  0  0  0  0
  4 23  1  0  0  0  0
  4  5  1  0  0  0  0
  5  6  2  0  0  0  0
  5 33  1  0  0  0  0
  6  7  1  0  0  0  0
  7 23  2  0  0  0  0
  7  8  1  0  0  0  0
  8  9  1  0  0  0  0
  8 20  2  0  0  0  0
  9 14  1  0  0  0  0
  9 10  1  0  0  0  0
 10 11  1  0  0  0  0
 10 34  1  0  0  0  0
 10 35  1  0  0  0  0
 11 12  1  0  0  0  0
 11 36  1  0  0  0  0
 11 37  1  0  0  0  0
 12 13  1  0  0  0  0
 13 14  1  0  0  0  0
 13 38  1  0  0  0  0
 13 39  1  0  0  0  0
 14 15  1  0  0  0  0
 14 40  1  0  0  0  0
 15 16  1  0  0  0  0
 15 41  1  0  0  0  0
 15 42  1  0  0  0  0
 16 19  1  0  0  0  0
 16 17  1  0  0  0  0
 16 43  1  0  0  0  0
 17 18  1  0  0  0  0
 17 44  1  0  0  0  0
 17 45  1  0  0  0  0
 18 19  1  0  0  0  0
 18 46  1  0  0  0  0
 18 47  1  0  0  0  0
 19 48  1  0  0  0  0
 19 49  1  0  0  0  0
 20 21  1  0  0  0  0
 21 22  2  0  0  0  0
 21 50  1  0  0  0  0
 22 23  1  0  0  0  0
 24 28  1  0  0  0  0
 24 25  1  0  0  0  0
 24 51  1  0  0  0  0
 25 26  1  0  0  0  0
 25 52  1  0  0  0  0
 25 53  1  0  0  0  0
 26 27  1  0  0  0  0
 26 54  1  0  0  0  0
 26 55  1  0  0  0  0
 27 28  1  0  0  0  0
 27 56  1  0  0  0  0
 27 57  1  0  0  0  0
M  END
> <s_m_source_file>
AV-unprocessed.smi

> <i_m_source_file_index>
170

> <i_lp_mmshare_version>
43012

> <i_f3d_flags>
0

> <s_epik_input>
TzFbQ0gyXVtDSDJdW0NIMl1bQ0BIXTFbQ0BIXShbT0hdKVtDSDJdbihbY0hdbjIpYyhjMjMpbltjSF1uYzNONFtDSDJdW0NIMl1PW0NIMl1bQ0BIXTRbQ0gyXVtDSF01W0NIMl1bQ0gyXVtDSDJdNQ==

> <s_epik_cmdline>
J2VwaWtfcHl0aG9uJywgJy1waCcsICc3LjAnLCAnLXRuJywgJzgnLCAnLW1hJywgJzIwMCcsICctbWV0YWxfYmluZGluZycsICctaW1hZScsICc8aW5maWxlLm1hZT4nLCAnLW9tYWUnLCAnPG91dGZpbGUubWFlPic=

> <r_lp_tautomer_probability>
1

> <r_epik_Ionization_Penalty>
4.98275e-05

> <r_epik_Ionization_Penalty_Charging>
0

> <r_epik_Ionization_Penalty_Neutral>
4.98275e-05

> <r_epik_State_Penalty>
-0

> <r_epik_Charging_Adjusted_Penalty>
0

> <i_epik_Tot_Q>
0

> <i_epik_Tot_abs_Q>
0

> <r_epik_Metal_State_Penalty>
-0

> <b_epik_Metal_Only>
0

> <s_lp_Force_Field>
OPLS_2005

> <r_lp_Energy>
54.7181

> <b_lp_Chiralities_Consistent>
1

> <s_lp_Variant>
AV-unprocessed.smi:170-1

> <Gold.Version>
5.8.1

> <Gold.Id.Protein>
6NUR|6NUR_protein|mol2

> <Gold.PLP.Fitness>
50.7377

> <Gold.PLP.PLP>
-51.3858

> <Gold.PLP.part.hbond>
-1.3467

> <Gold.PLP.part.metal>
0.0000

> <Gold.PLP.part.buried>
-8.3368

> <Gold.PLP.part.nonpolar>
-42.8524

> <Gold.PLP.part.repulsive>
0.0000

> <Gold.PLP.ligand.clash>
0.0000

> <Gold.PLP.ligand.torsion>
1.6770

> <Gold.PLP.Chemscore.Hbond>
0.7670

> <Gold.PLP.Chemscore.CHOScore>
0.0000

> <Gold.PLP.Chemscore.Metal>
0.0000

> <Gold.Chemscore.Hbonds>
donor molecule, donor type, donor heavy atom, donor atom, acceptor molecule, acceptor atom, score
      P1  H  6896  6909       L1     9  0.70

> <Gold.PLP.Chemscore.Internal.Correction>
0.4049

> <Gold.Rescore>
     Score         DG    S(hbond)    S(metal)    S(lipo)     H(rot)  DE(clash)    DE(int)     intcor
     12.71     -14.11       0.04        0.00     129.74       2.61       0.11       1.29       ----

> <Gold.Chemscore.Fitness>
12.7091

> <Gold.Chemscore.DG>
-14.1068

> <Gold.Chemscore.ZeroCoef>
-5.4800

> <Gold.Chemscore.Hbond>
0.0419

> <Gold.Chemscore.Metal>
0.0000

> <Gold.Chemscore.Lipo>
129.7431

> <Gold.Chemscore.Internal_Hbond>
0.0000

> <Gold.Chemscore.DEClash>
0.1116

> <Gold.Chemscore.DEInternal>
1.2861

> <Gold.Chemscore.Rot>
2.6144

> <Gold.Chemscore.Internal.Correction>
   9.000000E+99

> <Gold.Chemscore.Hbonds>
donor molecule, donor type, donor heavy atom, donor atom, acceptor molecule, acceptor atom, score
      P1  H  6896  6909       L1     9  0.05

> <Gold.Chemscore.Hbond.Weighted>
-0.1398

> <Gold.Chemscore.Metal.Weighted>
-0.0000

> <Gold.Chemscore.Lipo.Weighted>
-15.1799

> <Gold.Chemscore.Internal_Hbond.Weighted>
0.0000

> <Gold.Chemscore.DEClash.Weighted>
0.1116

> <Gold.Chemscore.DEInternal.Weighted>
1.2861

> <Gold.Chemscore.Rot.Weighted>
6.6929

> <Gold.Chemscore.Internal.Correction.Weighted>
   9.000000E+99

> <Gold.Protein.RotatedTorsions>
[ 6907 6896 6895 6894 ] final   66.12 input  -60.11 | X-H torsion
[ 7974 7965 7964 7962 ] final   91.07 input  175.53 | X-H torsion
[ 8008 7997 7996 7995 ] final -131.13 input   59.86 | X-H torsion
[ 10167 10162 10161 10158 ] final   30.34 input  -65.29 | X-H torsion
[ 10718 10713 10712 10709 ] final  168.68 input   66.30 | X-H torsion
[ 10763 10752 10751 10750 ] final -144.67 input  -60.55 | X-H torsion
[ 11005 11000 10999 10996 ] final  -42.70 input  -57.11 | X-H torsion

> <Gold.Protein.ActiveResidues>
 VAL166  LYS551  ARG553  GLY616  TRP617  ASP618  TYR619  PRO620  LYS621  CYS622 
 ASP623  PHE694  ASN695  SER759  ASP760  ASP761  ALA762  ILE779  LEU786  VAL792 
 PHE793  MET794  SER795  GLU796  ALA797  LYS798  CYS799  TRP800  GLU811  SER814 

> <Gold.Protein.RotatedAtoms>
  152.4458  134.5497  159.9862 H   0  0  0  0  0  0  0  0  0  0  0  0  # atno 6907 bound_to 6896
  151.5583  133.3401  159.2974 H   0  0  0  0  0  0  0  0  0  0  0  0  # atno 6908 bound_to 6896
  150.8374  134.7685  159.6968 H   0  0  0  0  0  0  0  0  0  0  0  0  # atno 6909 bound_to 6896
  145.5106  139.2277  143.2727 H   0  0  0  0  0  0  0  0  0  0  0  0  # atno 7974 bound_to 7965
  155.3072  140.0455  157.3033 H   0  0  0  0  0  0  0  0  0  0  0  0  # atno 8008 bound_to 7997
  154.5453  140.2300  155.8540 H   0  0  0  0  0  0  0  0  0  0  0  0  # atno 8009 bound_to 7997
  156.1918  140.3048  155.9355 H   0  0  0  0  0  0  0  0  0  0  0  0  # atno 8010 bound_to 7997
  140.4687  144.0796  150.6231 H   0  0  0  0  0  0  0  0  0  0  0  0  # atno 10167 bound_to 10162
  157.0335  131.0266  151.2737 H   0  0  0  0  0  0  0  0  0  0  0  0  # atno 10718 bound_to 10713
  154.8417  135.3434  154.6384 H   0  0  0  0  0  0  0  0  0  0  0  0  # atno 10763 bound_to 10752
  153.6994  135.6970  153.5072 H   0  0  0  0  0  0  0  0  0  0  0  0  # atno 10764 bound_to 10752
  153.2534  135.4346  155.0775 H   0  0  0  0  0  0  0  0  0  0  0  0  # atno 10765 bound_to 10752
  141.0333  133.6810  156.2631 H   0  0  0  0  0  0  0  0  0  0  0  0  # atno 11005 bound_to 11000
  146.2169  140.5912  142.9034 LP  0  0  0  0  0  0  0  0  0  0  0  0  # atno 17320 bound_to 7965
  144.7729  140.5678  143.6657 LP  0  0  0  0  0  0  0  0  0  0  0  0  # atno 17321 bound_to 7965
  140.4004  143.2706  151.9954 LP  0  0  0  0  0  0  0  0  0  0  0  0  # atno 17342 bound_to 10162
  139.4815  144.6002  151.7619 LP  0  0  0  0  0  0  0  0  0  0  0  0  # atno 17343 bound_to 10162
  157.5159  130.7967  149.7755 LP  0  0  0  0  0  0  0  0  0  0  0  0  # atno 17370 bound_to 10713
  156.0061  130.3855  150.2425 LP  0  0  0  0  0  0  0  0  0  0  0  0  # atno 17371 bound_to 10713
  140.6367  134.5208  157.5565 LP  0  0  0  0  0  0  0  0  0  0  0  0  # atno 17394 bound_to 11000
  139.9223  134.8124  156.1173 LP  0  0  0  0  0  0  0  0  0  0  0  0  # atno 17395 bound_to 11000

$$$$
