AV-unprocessed.smi:1123|AV-procd|sdf|4830|dock3
  -GOLD-   22720 3393D 1   1.00000     0.00000
 Structure written by MMmdl.
 37 38  0  0  0  0  0  0  0  0  1 V2000
  145.8704  135.9487  150.4492 C   0  0  0  0  0  0  0  0  0  0  0  0
  146.0731  134.6924  151.3205 C   0  0  1  0  0  0  0  0  0  0  0  0
  145.7721  134.9407  152.8078 C   0  0  0  0  0  0  0  0  0  0  0  0
  144.8015  134.4121  153.3512 O   0  0  0  0  0  0  0  0  0  0  0  0
  146.6196  135.7550  153.4572 N   0  0  0  0  0  0  0  0  0  0  0  0
  146.5242  136.1122  154.8670 C   0  0  0  0  0  0  0  0  0  0  0  0
  147.6930  137.0189  155.2967 C   0  0  0  0  0  0  0  0  0  0  0  0
  148.6560  136.3951  156.2021 N   0  0  0  0  0  0  0  0  0  0  0  0
  149.7757  137.2757  156.5289 C   0  0  0  0  0  0  0  0  0  0  0  0
  150.7929  136.5906  157.4587 C   0  0  0  0  0  0  0  0  0  0  0  0
  151.2527  135.3827  156.8616 O   0  0  0  0  0  0  0  0  0  0  0  0
  150.1931  134.4771  156.5714 C   0  0  0  0  0  0  0  0  0  0  0  0
  149.1786  135.1562  155.6353 C   0  0  0  0  0  0  0  0  0  0  0  0
  145.3030  133.5560  150.8294 N   0  0  0  0  0  0  0  0  0  0  0  0
  145.7117  132.3452  150.4439 C   0  0  0  0  0  0  0  0  0  0  0  0
  144.7271  131.5313  150.0900 N   0  0  0  0  0  0  0  0  0  0  0  0
  143.6606  132.3574  150.3045 C   0  0  0  0  0  0  0  0  0  0  0  0
  143.9485  133.5776  150.7567 N   0  0  0  0  0  0  0  0  0  0  0  0
  146.4966  136.7718  150.7950 H   0  0  0  0  0  0  0  0  0  0  0  0
  144.8356  136.2937  150.4610 H   0  0  0  0  0  0  0  0  0  0  0  0
  146.1390  135.7484  149.4117 H   0  0  0  0  0  0  0  0  0  0  0  0
  147.1271  134.4193  151.2486 H   0  0  0  0  0  0  0  0  0  0  0  0
  147.3904  136.1500  152.9384 H   0  0  0  0  0  0  0  0  0  0  0  0
  145.5700  136.6188  155.0072 H   0  0  0  0  0  0  0  0  0  0  0  0
  146.4931  135.2106  155.4811 H   0  0  0  0  0  0  0  0  0  0  0  0
  148.2201  137.3339  154.3951 H   0  0  0  0  0  0  0  0  0  0  0  0
  147.3012  137.9322  155.7470 H   0  0  0  0  0  0  0  0  0  0  0  0
  150.2789  137.5902  155.6134 H   0  0  0  0  0  0  0  0  0  0  0  0
  149.4168  138.1810  157.0165 H   0  0  0  0  0  0  0  0  0  0  0  0
  151.6446  137.2466  157.6385 H   0  0  0  0  0  0  0  0  0  0  0  0
  150.3437  136.3758  158.4295 H   0  0  0  0  0  0  0  0  0  0  0  0
  150.6053  133.5844  156.1013 H   0  0  0  0  0  0  0  0  0  0  0  0
  149.7122  134.1593  157.4979 H   0  0  0  0  0  0  0  0  0  0  0  0
  148.3585  134.4661  155.4343 H   0  0  0  0  0  0  0  0  0  0  0  0
  149.6557  135.3606  154.6756 H   0  0  0  0  0  0  0  0  0  0  0  0
  146.7508  132.0517  150.4250 H   0  0  0  0  0  0  0  0  0  0  0  0
  142.6410  132.0483  150.1277 H   0  0  0  0  0  0  0  0  0  0  0  0
  1  2  1  0  0  0  0
  1 19  1  0  0  0  0
  1 20  1  0  0  0  0
  1 21  1  0  0  0  0
  2  3  1  0  0  0  0
  2 14  1  0  0  0  0
  2 22  1  0  0  0  0
  3  4  2  0  0  0  0
  3  5  1  0  0  0  0
  5  6  1  0  0  0  0
  5 23  1  0  0  0  0
  6  7  1  0  0  0  0
  6 24  1  0  0  0  0
  6 25  1  0  0  0  0
  7  8  1  0  0  0  0
  7 26  1  0  0  0  0
  7 27  1  0  0  0  0
  8 13  1  0  0  0  0
  8  9  1  0  0  0  0
  9 10  1  0  0  0  0
  9 28  1  0  0  0  0
  9 29  1  0  0  0  0
 10 11  1  0  0  0  0
 10 30  1  0  0  0  0
 10 31  1  0  0  0  0
 11 12  1  0  0  0  0
 12 13  1  0  0  0  0
 12 32  1  0  0  0  0
 12 33  1  0  0  0  0
 13 34  1  0  0  0  0
 13 35  1  0  0  0  0
 14 18  1  0  0  0  0
 14 15  1  0  0  0  0
 15 16  2  0  0  0  0
 15 36  1  0  0  0  0
 16 17  1  0  0  0  0
 17 18  2  0  0  0  0
 17 37  1  0  0  0  0
M  END
> <s_m_source_file>
AV-unprocessed.smi

> <i_m_source_file_index>
1123

> <i_lp_mmshare_version>
43012

> <i_f3d_flags>
0

> <s_epik_input>
bjFbY0hdbltjSF1uMVtDQEhdKFtDSDNdKUMoPU8pW05IXVtDSDJdW0NIMl1OMltDSDJdW0NIMl1PW0NIMl1bQ0gyXTI=

> <s_epik_cmdline>
J2VwaWtfcHl0aG9uJywgJy1waCcsICc3LjAnLCAnLXRuJywgJzgnLCAnLW1hJywgJzIwMCcsICctbWV0YWxfYmluZGluZycsICctaW1hZScsICc8aW5maWxlLm1hZT4nLCAnLW9tYWUnLCAnPG91dGZpbGUubWFlPic=

> <r_lp_tautomer_probability>
1

> <r_epik_Ionization_Penalty>
0.211373

> <r_epik_Ionization_Penalty_Charging>
0

> <r_epik_Ionization_Penalty_Neutral>
0.211373

> <r_epik_State_Penalty>
0.201459

> <r_epik_Charging_Adjusted_Penalty>
0.201459

> <i_epik_Tot_Q>
0

> <i_epik_Tot_abs_Q>
0

> <r_epik_Metal_State_Penalty>
0.201458

> <b_epik_Metal_Only>
0

> <s_lp_Force_Field>
OPLS_2005

> <r_lp_Energy>
26.9465

> <b_lp_Chiralities_Consistent>
1

> <s_lp_Variant>
AV-unprocessed.smi:1123-2

> <Gold.Version>
5.8.1

> <Gold.Id.Protein>
6NUR|6NUR_protein|mol2

> <Gold.PLP.Fitness>
33.1008

> <Gold.PLP.PLP>
-22.2662

> <Gold.PLP.part.hbond>
-2.9094

> <Gold.PLP.part.metal>
0.0000

> <Gold.PLP.part.buried>
-3.2475

> <Gold.PLP.part.nonpolar>
-16.8154

> <Gold.PLP.part.repulsive>
0.4374

> <Gold.PLP.ligand.clash>
0.0000

> <Gold.PLP.ligand.torsion>
0.6493

> <Gold.PLP.Chemscore.Hbond>
2.0000

> <Gold.PLP.Chemscore.CHOScore>
1.9999

> <Gold.PLP.Chemscore.Metal>
0.0000

> <Gold.Chemscore.Hbonds>
donor molecule, donor type, donor heavy atom, donor atom, acceptor molecule, acceptor atom, score
      L1  H     5    23       P1  7948  1.00
      L1  C    15    36       P1 10747  1.00
      L1  C    17    37       P1 10952  0.96

> <Gold.PLP.Chemscore.Internal.Correction>
0.1332

> <Gold.Rescore>
     Score         DG    S(hbond)    S(metal)    S(lipo)     H(rot)  DE(clash)    DE(int)     intcor
      7.34      -9.25       2.01        0.00      32.04       2.61       0.06       1.86       ----

> <Gold.Chemscore.Fitness>
7.3404

> <Gold.Chemscore.DG>
-9.2534

> <Gold.Chemscore.ZeroCoef>
-5.4800

> <Gold.Chemscore.Hbond>
2.0075

> <Gold.Chemscore.Metal>
0.0000

> <Gold.Chemscore.Lipo>
32.0441

> <Gold.Chemscore.Internal_Hbond>
0.0000

> <Gold.Chemscore.DEClash>
0.0573

> <Gold.Chemscore.DEInternal>
1.8558

> <Gold.Chemscore.Rot>
2.6097

> <Gold.Chemscore.Internal.Correction>
   9.000000E+99

> <Gold.Chemscore.Hbonds>
donor molecule, donor type, donor heavy atom, donor atom, acceptor molecule, acceptor atom, score
      L1  H     5    23       P1  7948  0.99

> <Gold.Chemscore.Hbond.Weighted>
-6.7051

> <Gold.Chemscore.Metal.Weighted>
-0.0000

> <Gold.Chemscore.Lipo.Weighted>
-3.7492

> <Gold.Chemscore.Internal_Hbond.Weighted>
0.0000

> <Gold.Chemscore.DEClash.Weighted>
0.0573

> <Gold.Chemscore.DEInternal.Weighted>
1.8558

> <Gold.Chemscore.Rot.Weighted>
6.6809

> <Gold.Chemscore.Internal.Correction.Weighted>
   9.000000E+99

> <Gold.Protein.RotatedTorsions>
[ 6907 6896 6895 6894 ] final -124.06 input  -60.11 | X-H torsion
[ 7974 7965 7964 7962 ] final  -27.65 input  175.53 | X-H torsion
[ 8008 7997 7996 7995 ] final  171.42 input   59.86 | X-H torsion
[ 10167 10162 10161 10158 ] final  161.66 input  -65.29 | X-H torsion
[ 10718 10713 10712 10709 ] final  -58.45 input   66.30 | X-H torsion
[ 10763 10752 10751 10750 ] final -143.37 input  -60.55 | X-H torsion
[ 11005 11000 10999 10996 ] final  133.03 input  -57.11 | X-H torsion

> <Gold.Protein.ActiveResidues>
 VAL166  LYS551  ARG553  GLY616  TRP617  ASP618  TYR619  PRO620  LYS621  CYS622 
 ASP623  PHE694  ASN695  SER759  ASP760  ASP761  ALA762  ILE779  LEU786  VAL792 
 PHE793  MET794  SER795  GLU796  ALA797  LYS798  CYS799  TRP800  GLU811  SER814 

> <Gold.Protein.RotatedAtoms>
  150.8731  133.7477  159.2954 H   0  0  0  0  0  0  0  0  0  0  0  0  # atno 6907 bound_to 6896
  151.5083  135.1062  159.9857 H   0  0  0  0  0  0  0  0  0  0  0  0  # atno 6908 bound_to 6896
  152.4709  133.7982  159.6994 H   0  0  0  0  0  0  0  0  0  0  0  0  # atno 6909 bound_to 6896
  146.1343  140.5180  142.8680 H   0  0  0  0  0  0  0  0  0  0  0  0  # atno 7974 bound_to 7965
  156.1272  140.1512  156.9118 H   0  0  0  0  0  0  0  0  0  0  0  0  # atno 8008 bound_to 7997
  154.4881  140.0859  156.7572 H   0  0  0  0  0  0  0  0  0  0  0  0  # atno 8009 bound_to 7997
  155.4322  140.3427  155.4283 H   0  0  0  0  0  0  0  0  0  0  0  0  # atno 8010 bound_to 7997
  139.4852  144.4515  151.8824 H   0  0  0  0  0  0  0  0  0  0  0  0  # atno 10167 bound_to 10162
  156.1134  130.4173  150.0579 H   0  0  0  0  0  0  0  0  0  0  0  0  # atno 10718 bound_to 10713
  154.8472  135.3470  154.6177 H   0  0  0  0  0  0  0  0  0  0  0  0  # atno 10763 bound_to 10752
  153.6786  135.6981  153.5129 H   0  0  0  0  0  0  0  0  0  0  0  0  # atno 10764 bound_to 10752
  153.2686  135.4300  155.0922 H   0  0  0  0  0  0  0  0  0  0  0  0  # atno 10765 bound_to 10752
  139.9826  134.9543  156.9666 H   0  0  0  0  0  0  0  0  0  0  0  0  # atno 11005 bound_to 11000
  144.7723  140.5664  143.6662 LP  0  0  0  0  0  0  0  0  0  0  0  0  # atno 17320 bound_to 7965
  145.5191  139.1477  143.3562 LP  0  0  0  0  0  0  0  0  0  0  0  0  # atno 17321 bound_to 7965
  140.3972  144.2540  150.5895 LP  0  0  0  0  0  0  0  0  0  0  0  0  # atno 17342 bound_to 10162
  140.5091  143.2295  151.8562 LP  0  0  0  0  0  0  0  0  0  0  0  0  # atno 17343 bound_to 10162
  156.8536  130.9467  151.3623 LP  0  0  0  0  0  0  0  0  0  0  0  0  # atno 17370 bound_to 10713
  157.6317  130.8734  149.9285 LP  0  0  0  0  0  0  0  0  0  0  0  0  # atno 17371 bound_to 10713
  140.5066  134.1044  155.7261 LP  0  0  0  0  0  0  0  0  0  0  0  0  # atno 17394 bound_to 11000
  141.1496  133.8993  157.2131 LP  0  0  0  0  0  0  0  0  0  0  0  0  # atno 17395 bound_to 11000

$$$$
