AV-unprocessed.smi:1456|AV-procd|sdf|5918|dock10
  -GOLD-   22720 6 03D 1   1.00000     0.00000
 Structure written by MMmdl.
 41 42  0  0  0  0  0  0  0  0  3 V2000
  147.1172  137.2517  154.6792 C   0  0  0  0  0  0  0  0  0  0  0  0
  148.0104  138.5005  154.5068 C   0  0  0  0  0  0  0  0  0  0  0  0
  147.3370  139.3744  153.4303 C   0  0  0  0  0  0  0  0  0  0  0  0
  148.1138  139.3412  155.8061 C   0  0  0  0  0  0  0  0  0  0  0  0
  149.0983  138.8011  156.8552 C   0  0  0  0  0  0  0  0  0  0  0  0
  148.5495  137.6512  157.5692 N   0  0  0  0  0  0  0  0  0  0  0  0
  148.8710  137.2482  158.8060 C   0  0  0  0  0  0  0  0  0  0  0  0
  149.6858  137.8897  159.4723 O   0  0  0  0  0  0  0  0  0  0  0  0
  148.2333  136.1181  159.1845 N   0  5  0  0  0  0  0  0  0  0  0  0
  147.8453  135.9611  160.4603 C   0  0  0  0  0  0  0  0  0  0  0  0
  147.5756  136.9892  161.2727 N   0  0  0  0  0  0  0  0  0  0  0  0
  147.1830  136.5960  162.5535 C   0  0  0  0  0  0  0  0  0  0  0  0
  147.1436  135.2365  162.7169 C   0  0  0  0  0  0  0  0  0  0  0  0
  147.6009  134.4045  161.2582 S   0  0  0  0  0  0  0  0  0  0  0  0
  150.4663  138.5248  156.2021 C   0  0  0  0  0  0  0  0  0  0  0  0
  150.4188  137.6617  154.9161 C   0  0  0  0  0  0  0  0  0  0  0  0
  151.7632  137.8321  154.1821 C   0  0  0  0  0  0  0  0  0  0  0  0
  150.2733  136.1541  155.2216 C   0  0  0  0  0  0  0  0  0  0  0  0
  149.3586  138.1391  153.9839 N   0  3  0  0  0  0  0  0  0  0  0  0
  146.0927  137.5381  154.9202 H   0  0  0  0  0  0  0  0  0  0  0  0
  147.4383  136.5870  155.4741 H   0  0  0  0  0  0  0  0  0  0  0  0
  147.0797  136.6626  153.7622 H   0  0  0  0  0  0  0  0  0  0  0  0
  146.3438  139.6987  153.7441 H   0  0  0  0  0  0  0  0  0  0  0  0
  147.2224  138.8333  152.4900 H   0  0  0  0  0  0  0  0  0  0  0  0
  147.9202  140.2715  153.2183 H   0  0  0  0  0  0  0  0  0  0  0  0
  148.4506  140.3458  155.5446 H   0  0  0  0  0  0  0  0  0  0  0  0
  147.1267  139.4759  156.2509 H   0  0  0  0  0  0  0  0  0  0  0  0
  149.2354  139.5868  157.6006 H   0  0  0  0  0  0  0  0  0  0  0  0
  147.8673  137.0947  157.0754 H   0  0  0  0  0  0  0  0  0  0  0  0
  146.9484  137.3526  163.2873 H   0  0  0  0  0  0  0  0  0  0  0  0
  146.8745  134.6764  163.5995 H   0  0  0  0  0  0  0  0  0  0  0  0
  150.8956  139.4961  155.9513 H   0  0  0  0  0  0  0  0  0  0  0  0
  151.1583  138.0884  156.9234 H   0  0  0  0  0  0  0  0  0  0  0  0
  152.6014  137.5303  154.8115 H   0  0  0  0  0  0  0  0  0  0  0  0
  151.9328  138.8694  153.8905 H   0  0  0  0  0  0  0  0  0  0  0  0
  151.8025  137.2291  153.2738 H   0  0  0  0  0  0  0  0  0  0  0  0
  151.1413  135.7847  155.7691 H   0  0  0  0  0  0  0  0  0  0  0  0
  150.1973  135.5694  154.3040 H   0  0  0  0  0  0  0  0  0  0  0  0
  149.4104  135.9102  155.8320 H   0  0  0  0  0  0  0  0  0  0  0  0
  149.2518  137.4671  153.2376 H   0  0  0  0  0  0  0  0  0  0  0  0
  149.7239  138.9898  153.5808 H   0  0  0  0  0  0  0  0  0  0  0  0
  1  2  1  0  0  0  0
  1 20  1  0  0  0  0
  1 21  1  0  0  0  0
  1 22  1  0  0  0  0
  2 19  1  0  0  0  0
  2  3  1  0  0  0  0
  2  4  1  0  0  0  0
  3 23  1  0  0  0  0
  3 24  1  0  0  0  0
  3 25  1  0  0  0  0
  4  5  1  0  0  0  0
  4 26  1  0  0  0  0
  4 27  1  0  0  0  0
  5  6  1  0  0  0  0
  5 15  1  0  0  0  0
  5 28  1  0  0  0  0
  6  7  1  0  0  0  0
  6 29  1  0  0  0  0
  7  8  2  0  0  0  0
  7  9  1  0  0  0  0
  9 10  1  0  0  0  0
 10 14  1  0  0  0  0
 10 11  2  0  0  0  0
 11 12  1  0  0  0  0
 12 13  2  0  0  0  0
 12 30  1  0  0  0  0
 13 14  1  0  0  0  0
 13 31  1  0  0  0  0
 15 16  1  0  0  0  0
 15 32  1  0  0  0  0
 15 33  1  0  0  0  0
 16 17  1  0  0  0  0
 16 18  1  0  0  0  0
 16 19  1  0  0  0  0
 17 34  1  0  0  0  0
 17 35  1  0  0  0  0
 17 36  1  0  0  0  0
 18 37  1  0  0  0  0
 18 38  1  0  0  0  0
 18 39  1  0  0  0  0
 19 40  1  0  0  0  0
 19 41  1  0  0  0  0
M  CHG  1   9  -1
M  CHG  1  19   1
M  END
> <s_m_source_file>
AV-unprocessed.smi

> <i_m_source_file_index>
1456

> <i_lp_mmshare_version>
43012

> <i_f3d_flags>
0

> <s_epik_input>
W0NIM11DMShbQ0gzXSlbQ0gyXVtDSF0oW0NIMl1DKFtDSDNdKShbQ0gzXSlbTkhdMSlbTkhdQyg9TylbTkhdYzJuW2NIXVtjSF1zMg==

> <s_epik_cmdline>
J2VwaWtfcHl0aG9uJywgJy1waCcsICc3LjAnLCAnLXRuJywgJzgnLCAnLW1hJywgJzIwMCcsICctbWV0YWxfYmluZGluZycsICctaW1hZScsICc8aW5maWxlLm1hZT4nLCAnLW9tYWUnLCAnPG91dGZpbGUubWFlPic=

> <r_lp_tautomer_probability>
1

> <r_epik_Ionization_Penalty>
7.98581

> <r_epik_Ionization_Penalty_Charging>
6.48842

> <r_epik_Ionization_Penalty_Neutral>
1.49739

> <r_epik_State_Penalty>
6.48831

> <r_epik_Charging_Adjusted_Penalty>
12.9767

> <i_epik_Tot_Q>
0

> <i_epik_Tot_abs_Q>
2

> <r_epik_Metal_State_Penalty>
2.41622

> <b_epik_Metal_Only>
1

> <s_lp_Force_Field>
OPLS_2005

> <r_lp_Energy>
15.6093

> <b_lp_Chiralities_Consistent>
1

> <s_lp_Variant>
AV-unprocessed.smi:1456-2

> <Gold.Version>
5.8.1

> <Gold.Id.Protein>
6NUR|6NUR_protein|mol2

> <Gold.PLP.Fitness>
38.7627

> <Gold.PLP.PLP>
-29.4837

> <Gold.PLP.part.hbond>
-4.0000

> <Gold.PLP.part.metal>
0.0000

> <Gold.PLP.part.buried>
-4.1045

> <Gold.PLP.part.nonpolar>
-21.6939

> <Gold.PLP.part.repulsive>
0.0810

> <Gold.PLP.ligand.clash>
0.0000

> <Gold.PLP.ligand.torsion>
0.7297

> <Gold.PLP.Chemscore.Hbond>
3.5747

> <Gold.PLP.Chemscore.CHOScore>
0.0000

> <Gold.PLP.Chemscore.Metal>
0.0000

> <Gold.Chemscore.Hbonds>
donor molecule, donor type, donor heavy atom, donor atom, acceptor molecule, acceptor atom, score
      L1  H    19    40       P1  7948  2.00
      P1  H  6931  6943       L1    11  0.75
      P1  H  6934  6947       L1    11  0.77

> <Gold.PLP.Chemscore.Internal.Correction>
0.0142

> <Gold.Rescore>
     Score         DG    S(hbond)    S(metal)    S(lipo)     H(rot)  DE(clash)    DE(int)     intcor
     14.77     -16.76       1.99        0.00      61.65       1.00       0.01       1.98       ----

> <Gold.Chemscore.Fitness>
14.7722

> <Gold.Chemscore.DG>
-16.7634

> <Gold.Chemscore.ZeroCoef>
-5.4800

> <Gold.Chemscore.Hbond>
1.9852

> <Gold.Chemscore.Metal>
0.0000

> <Gold.Chemscore.Lipo>
61.6473

> <Gold.Chemscore.Internal_Hbond>
0.0000

> <Gold.Chemscore.DEClash>
0.0126

> <Gold.Chemscore.DEInternal>
1.9786

> <Gold.Chemscore.Rot>
1.0000

> <Gold.Chemscore.Internal.Correction>
   9.000000E+99

> <Gold.Chemscore.Hbonds>
donor molecule, donor type, donor heavy atom, donor atom, acceptor molecule, acceptor atom, score
      L1  H    19    40       P1  7948  0.98
      P1  H  6931  6943       L1    11  0.08
      P1  H  6934  6947       L1    11  0.58

> <Gold.Chemscore.Hbond.Weighted>
-6.6307

> <Gold.Chemscore.Metal.Weighted>
-0.0000

> <Gold.Chemscore.Lipo.Weighted>
-7.2127

> <Gold.Chemscore.Internal_Hbond.Weighted>
0.0000

> <Gold.Chemscore.DEClash.Weighted>
0.0126

> <Gold.Chemscore.DEInternal.Weighted>
1.9786

> <Gold.Chemscore.Rot.Weighted>
2.5600

> <Gold.Chemscore.Internal.Correction.Weighted>
   9.000000E+99

> <Gold.Protein.RotatedTorsions>
[ 6907 6896 6895 6894 ] final   95.01 input  -60.11 | X-H torsion
[ 7974 7965 7964 7962 ] final   84.06 input  175.53 | X-H torsion
[ 8008 7997 7996 7995 ] final -135.71 input   59.86 | X-H torsion
[ 10167 10162 10161 10158 ] final    4.71 input  -65.29 | X-H torsion
[ 10718 10713 10712 10709 ] final  -56.61 input   66.30 | X-H torsion
[ 10763 10752 10751 10750 ] final  -44.67 input  -60.55 | X-H torsion
[ 11005 11000 10999 10996 ] final  -43.82 input  -57.11 | X-H torsion

> <Gold.Protein.ActiveResidues>
 VAL166  LYS551  ARG553  GLY616  TRP617  ASP618  TYR619  PRO620  LYS621  CYS622 
 ASP623  PHE694  ASN695  SER759  ASP760  ASP761  ALA762  ILE779  LEU786  VAL792 
 PHE793  MET794  SER795  GLU796  ALA797  LYS798  CYS799  TRP800  GLU811  SER814 

> <Gold.Protein.RotatedAtoms>
  152.5446  134.1105  159.8356 H   0  0  0  0  0  0  0  0  0  0  0  0  # atno 6907 bound_to 6896
  151.1172  133.5123  159.2611 H   0  0  0  0  0  0  0  0  0  0  0  0  # atno 6908 bound_to 6896
  151.1819  135.0374  159.8850 H   0  0  0  0  0  0  0  0  0  0  0  0  # atno 6909 bound_to 6896
  145.6038  139.2357  143.2231 H   0  0  0  0  0  0  0  0  0  0  0  0  # atno 7974 bound_to 7965
  155.3832  140.0495  157.3043 H   0  0  0  0  0  0  0  0  0  0  0  0  # atno 8008 bound_to 7997
  154.5072  140.2178  155.9189 H   0  0  0  0  0  0  0  0  0  0  0  0  # atno 8009 bound_to 7997
  156.1540  140.3130  155.8700 H   0  0  0  0  0  0  0  0  0  0  0  0  # atno 8010 bound_to 7997
  140.6520  143.7520  150.7591 H   0  0  0  0  0  0  0  0  0  0  0  0  # atno 10167 bound_to 10162
  156.1275  130.4161  150.0329 H   0  0  0  0  0  0  0  0  0  0  0  0  # atno 10718 bound_to 10713
  154.0159  135.6675  153.4769 H   0  0  0  0  0  0  0  0  0  0  0  0  # atno 10763 bound_to 10752
  153.0601  135.5033  154.8069 H   0  0  0  0  0  0  0  0  0  0  0  0  # atno 10764 bound_to 10752
  154.6967  135.3071  154.9365 H   0  0  0  0  0  0  0  0  0  0  0  0  # atno 10765 bound_to 10752
  141.0409  133.6780  156.2786 H   0  0  0  0  0  0  0  0  0  0  0  0  # atno 11005 bound_to 11000
  146.1556  140.6862  142.9301 LP  0  0  0  0  0  0  0  0  0  0  0  0  # atno 17320 bound_to 7965
  144.7299  140.4639  143.6946 LP  0  0  0  0  0  0  0  0  0  0  0  0  # atno 17321 bound_to 7965
  140.1173  143.4644  152.2334 LP  0  0  0  0  0  0  0  0  0  0  0  0  # atno 17342 bound_to 10162
  139.5737  144.7476  151.3822 LP  0  0  0  0  0  0  0  0  0  0  0  0  # atno 17343 bound_to 10162
  156.8250  130.9372  151.3639 LP  0  0  0  0  0  0  0  0  0  0  0  0  # atno 17370 bound_to 10713
  157.6455  130.8841  149.9531 LP  0  0  0  0  0  0  0  0  0  0  0  0  # atno 17371 bound_to 10713
  140.6235  134.5337  157.5550 LP  0  0  0  0  0  0  0  0  0  0  0  0  # atno 17394 bound_to 11000
  139.9275  134.8027  156.1025 LP  0  0  0  0  0  0  0  0  0  0  0  0  # atno 17395 bound_to 11000

$$$$
