AV-unprocessed.smi:2074|AV-procd|sdf|8453|dock9
  -GOLD-   2272011153D 1   1.00000     0.00000
 Structure written by MMmdl.
 43 44  0  0  0  0  0  0  0  0  1 V2000
  145.1022  135.5382  150.6020 C   0  0  0  0  0  0  0  0  0  0  0  0
  144.9652  134.0481  150.7263 C   0  0  0  0  0  0  0  0  0  0  0  0
  143.8615  133.4530  150.3053 N   0  0  0  0  0  0  0  0  0  0  0  0
  144.0400  132.0901  150.5623 O   0  0  0  0  0  0  0  0  0  0  0  0
  145.2583  131.9167  151.1347 C   0  0  0  0  0  0  0  0  0  0  0  0
  145.6348  130.5195  151.4939 C   0  0  0  0  0  0  0  0  0  0  0  0
  145.9001  133.1177  151.2635 C   0  0  0  0  0  0  0  0  0  0  0  0
  147.2663  133.4028  151.8382 C   0  0  0  0  0  0  0  0  0  0  0  0
  147.2001  133.7402  153.3331 C   0  0  0  0  0  0  0  0  0  0  0  0
  146.6986  132.9611  154.1452 O   0  0  0  0  0  0  0  0  0  0  0  0
  147.7243  134.9240  153.6839 N   0  0  0  0  0  0  0  0  0  0  0  0
  147.7912  135.4439  155.0472 C   0  0  0  0  0  0  0  0  0  0  0  0
  149.2376  135.7830  155.5135 C   0  0  1  0  0  0  0  0  0  0  0  0
  150.1099  134.5056  155.4123 C   0  0  0  0  0  0  0  0  0  0  0  0
  149.8271  136.9376  154.7960 N   0  0  0  0  0  0  0  0  0  0  0  0
  151.1923  137.2403  155.2421 C   0  0  0  0  0  0  0  0  0  0  0  0
  151.8021  138.4553  154.5219 C   0  0  0  0  0  0  0  0  0  0  0  0
  150.9677  139.5897  154.7087 O   0  0  0  0  0  0  0  0  0  0  0  0
  149.6527  139.3696  154.2181 C   0  0  0  0  0  0  0  0  0  0  0  0
  149.0262  138.1600  154.9333 C   0  0  0  0  0  0  0  0  0  0  0  0
  145.2709  135.9947  151.5777 H   0  0  0  0  0  0  0  0  0  0  0  0
  144.2089  135.9937  150.1732 H   0  0  0  0  0  0  0  0  0  0  0  0
  145.9460  135.7991  149.9635 H   0  0  0  0  0  0  0  0  0  0  0  0
  146.4038  130.5094  152.2666 H   0  0  0  0  0  0  0  0  0  0  0  0
  146.0207  129.9884  150.6239 H   0  0  0  0  0  0  0  0  0  0  0  0
  144.7725  129.9703  151.8722 H   0  0  0  0  0  0  0  0  0  0  0  0
  147.9283  132.5461  151.7076 H   0  0  0  0  0  0  0  0  0  0  0  0
  147.7427  134.2346  151.3184 H   0  0  0  0  0  0  0  0  0  0  0  0
  148.1143  135.5045  152.9557 H   0  0  0  0  0  0  0  0  0  0  0  0
  147.1671  136.3366  155.0992 H   0  0  0  0  0  0  0  0  0  0  0  0
  147.3180  134.7012  155.6881 H   0  0  0  0  0  0  0  0  0  0  0  0
  149.1809  136.0437  156.5714 H   0  0  0  0  0  0  0  0  0  0  0  0
  149.6494  133.6460  155.8983 H   0  0  0  0  0  0  0  0  0  0  0  0
  151.0737  134.6240  155.9056 H   0  0  0  0  0  0  0  0  0  0  0  0
  150.2930  134.2346  154.3721 H   0  0  0  0  0  0  0  0  0  0  0  0
  151.1990  137.4169  156.3187 H   0  0  0  0  0  0  0  0  0  0  0  0
  151.8537  136.3961  155.0556 H   0  0  0  0  0  0  0  0  0  0  0  0
  152.7928  138.6733  154.9209 H   0  0  0  0  0  0  0  0  0  0  0  0
  151.9236  138.2533  153.4566 H   0  0  0  0  0  0  0  0  0  0  0  0
  149.0542  140.2637  154.3928 H   0  0  0  0  0  0  0  0  0  0  0  0
  149.6800  139.2092  153.1391 H   0  0  0  0  0  0  0  0  0  0  0  0
  148.0351  138.0227  154.5063 H   0  0  0  0  0  0  0  0  0  0  0  0
  148.8878  138.3954  155.9895 H   0  0  0  0  0  0  0  0  0  0  0  0
  1  2  1  0  0  0  0
  1 21  1  0  0  0  0
  1 22  1  0  0  0  0
  1 23  1  0  0  0  0
  2  7  1  0  0  0  0
  2  3  2  0  0  0  0
  3  4  1  0  0  0  0
  4  5  1  0  0  0  0
  5  6  1  0  0  0  0
  5  7  2  0  0  0  0
  6 24  1  0  0  0  0
  6 25  1  0  0  0  0
  6 26  1  0  0  0  0
  7  8  1  0  0  0  0
  8  9  1  0  0  0  0
  8 27  1  0  0  0  0
  8 28  1  0  0  0  0
  9 10  2  0  0  0  0
  9 11  1  0  0  0  0
 11 12  1  0  0  0  0
 11 29  1  0  0  0  0
 12 13  1  0  0  0  0
 12 30  1  0  0  0  0
 12 31  1  0  0  0  0
 13 14  1  0  0  0  0
 13 15  1  0  0  0  0
 13 32  1  0  0  0  0
 14 33  1  0  0  0  0
 14 34  1  0  0  0  0
 14 35  1  0  0  0  0
 15 20  1  0  0  0  0
 15 16  1  0  0  0  0
 16 17  1  0  0  0  0
 16 36  1  0  0  0  0
 16 37  1  0  0  0  0
 17 18  1  0  0  0  0
 17 38  1  0  0  0  0
 17 39  1  0  0  0  0
 18 19  1  0  0  0  0
 19 20  1  0  0  0  0
 19 40  1  0  0  0  0
 19 41  1  0  0  0  0
 20 42  1  0  0  0  0
 20 43  1  0  0  0  0
M  END
> <s_m_source_file>
AV-unprocessed.smi

> <i_m_source_file_index>
2074

> <i_lp_mmshare_version>
43012

> <i_f3d_flags>
0

> <s_epik_input>
W0NIM11jMW5vYyhbQ0gzXSljMVtDSDJdQyg9TylbTkhdW0NIMl1bQ0BIXShbQ0gzXSlOMltDSDJdW0NIMl1PW0NIMl1bQ0gyXTI=

> <s_epik_cmdline>
J2VwaWtfcHl0aG9uJywgJy1waCcsICc3LjAnLCAnLXRuJywgJzgnLCAnLW1hJywgJzIwMCcsICctbWV0YWxfYmluZGluZycsICctaW1hZScsICc8aW5maWxlLm1hZT4nLCAnLW9tYWUnLCAnPG91dGZpbGUubWFlPic=

> <r_epik_Ionization_Penalty>
0.234179

> <r_epik_Ionization_Penalty_Charging>
0

> <r_epik_Ionization_Penalty_Neutral>
0.234179

> <r_epik_State_Penalty>
0.224936

> <r_epik_Charging_Adjusted_Penalty>
0.224936

> <i_epik_Tot_Q>
0

> <i_epik_Tot_abs_Q>
0

> <r_epik_Metal_State_Penalty>
0.224936

> <b_epik_Metal_Only>
0

> <s_lp_Force_Field>
OPLS_2005

> <r_lp_Energy>
23.5804

> <b_lp_Chiralities_Consistent>
1

> <s_lp_Variant>
AV-unprocessed.smi:2074-2

> <Gold.Version>
5.8.1

> <Gold.Id.Protein>
6NUR|6NUR_protein|mol2

> <Gold.PLP.Fitness>
38.0632

> <Gold.PLP.PLP>
-32.8146

> <Gold.PLP.part.hbond>
-2.0000

> <Gold.PLP.part.metal>
0.0000

> <Gold.PLP.part.buried>
-6.4314

> <Gold.PLP.part.nonpolar>
-24.9558

> <Gold.PLP.part.repulsive>
0.9770

> <Gold.PLP.ligand.clash>
0.0000

> <Gold.PLP.ligand.torsion>
0.4063

> <Gold.PLP.Chemscore.Hbond>
2.0000

> <Gold.PLP.Chemscore.CHOScore>
0.0000

> <Gold.PLP.Chemscore.Metal>
0.0000

> <Gold.Chemscore.Hbonds>
donor molecule, donor type, donor heavy atom, donor atom, acceptor molecule, acceptor atom, score
      L1  H    11    29       P1  7948  1.00
      P1  H  7989  7998       L1    18  1.00

> <Gold.PLP.Chemscore.Internal.Correction>
0.0612

> <Gold.Rescore>
     Score         DG    S(hbond)    S(metal)    S(lipo)     H(rot)  DE(clash)    DE(int)     intcor
     14.35     -14.64       1.40        0.00      75.90       1.72       0.07       0.23       ----

> <Gold.Chemscore.Fitness>
14.3451

> <Gold.Chemscore.DG>
-14.6448

> <Gold.Chemscore.ZeroCoef>
-5.4800

> <Gold.Chemscore.Hbond>
1.4030

> <Gold.Chemscore.Metal>
0.0000

> <Gold.Chemscore.Lipo>
75.9026

> <Gold.Chemscore.Internal_Hbond>
0.0000

> <Gold.Chemscore.DEClash>
0.0722

> <Gold.Chemscore.DEInternal>
0.2274

> <Gold.Chemscore.Rot>
1.7195

> <Gold.Chemscore.Internal.Correction>
   9.000000E+99

> <Gold.Chemscore.Hbonds>
donor molecule, donor type, donor heavy atom, donor atom, acceptor molecule, acceptor atom, score
      L1  H    11    29       P1  7948  0.94
      P1  H  7989  7998       L1    18  0.16

> <Gold.Chemscore.Hbond.Weighted>
-4.6860

> <Gold.Chemscore.Metal.Weighted>
-0.0000

> <Gold.Chemscore.Lipo.Weighted>
-8.8806

> <Gold.Chemscore.Internal_Hbond.Weighted>
0.0000

> <Gold.Chemscore.DEClash.Weighted>
0.0722

> <Gold.Chemscore.DEInternal.Weighted>
0.2274

> <Gold.Chemscore.Rot.Weighted>
4.4018

> <Gold.Chemscore.Internal.Correction.Weighted>
   9.000000E+99

> <Gold.Protein.RotatedTorsions>
[ 6907 6896 6895 6894 ] final -116.64 input  -60.11 | X-H torsion
[ 7974 7965 7964 7962 ] final  132.58 input  175.53 | X-H torsion
[ 8008 7997 7996 7995 ] final  167.43 input   59.86 | X-H torsion
[ 10167 10162 10161 10158 ] final  -97.81 input  -65.29 | X-H torsion
[ 10718 10713 10712 10709 ] final  -76.02 input   66.30 | X-H torsion
[ 10763 10752 10751 10750 ] final -130.19 input  -60.55 | X-H torsion
[ 11005 11000 10999 10996 ] final  -78.83 input  -57.11 | X-H torsion

> <Gold.Protein.ActiveResidues>
 VAL166  LYS551  ARG553  GLY616  TRP617  ASP618  TYR619  PRO620  LYS621  CYS622 
 ASP623  PHE694  ASN695  SER759  ASP760  ASP761  ALA762  ILE779  LEU786  VAL792 
 PHE793  MET794  SER795  GLU796  ALA797  LYS798  CYS799  TRP800  GLU811  SER814 

> <Gold.Protein.RotatedAtoms>
  150.8073  133.8488  159.3199 H   0  0  0  0  0  0  0  0  0  0  0  0  # atno 6907 bound_to 6896
  151.6283  135.1023  160.0126 H   0  0  0  0  0  0  0  0  0  0  0  0  # atno 6908 bound_to 6896
  152.4163  133.7004  159.6477 H   0  0  0  0  0  0  0  0  0  0  0  0  # atno 6909 bound_to 6896
  144.9954  139.4365  143.5318 H   0  0  0  0  0  0  0  0  0  0  0  0  # atno 7974 bound_to 7965
  156.1634  140.1617  156.8572 H   0  0  0  0  0  0  0  0  0  0  0  0  # atno 8008 bound_to 7997
  154.5184  140.0784  156.8160 H   0  0  0  0  0  0  0  0  0  0  0  0  # atno 8009 bound_to 7997
  155.3660  140.3398  155.4244 H   0  0  0  0  0  0  0  0  0  0  0  0  # atno 8010 bound_to 7997
  140.2795  143.3291  152.0455 H   0  0  0  0  0  0  0  0  0  0  0  0  # atno 10167 bound_to 10162
  156.0188  130.4455  150.3131 H   0  0  0  0  0  0  0  0  0  0  0  0  # atno 10718 bound_to 10713
  154.8756  135.3871  154.4043 H   0  0  0  0  0  0  0  0  0  0  0  0  # atno 10763 bound_to 10752
  153.4764  135.7030  153.5969 H   0  0  0  0  0  0  0  0  0  0  0  0  # atno 10764 bound_to 10752
  153.4404  135.3857  155.2192 H   0  0  0  0  0  0  0  0  0  0  0  0  # atno 10765 bound_to 10752
  141.1666  133.7080  156.8031 H   0  0  0  0  0  0  0  0  0  0  0  0  # atno 11005 bound_to 11000
  146.3440  139.9310  142.8753 LP  0  0  0  0  0  0  0  0  0  0  0  0  # atno 17320 bound_to 7965
  145.2227  140.9941  143.4036 LP  0  0  0  0  0  0  0  0  0  0  0  0  # atno 17321 bound_to 7965
  139.4966  144.6601  151.6483 LP  0  0  0  0  0  0  0  0  0  0  0  0  # atno 17342 bound_to 10162
  140.5823  143.9924  150.6275 LP  0  0  0  0  0  0  0  0  0  0  0  0  # atno 17343 bound_to 10162
  157.1232  131.0252  151.3000 LP  0  0  0  0  0  0  0  0  0  0  0  0  # atno 17370 bound_to 10713
  157.4611  130.7654  149.7237 LP  0  0  0  0  0  0  0  0  0  0  0  0  # atno 17371 bound_to 10713
  140.2242  134.8734  157.3409 LP  0  0  0  0  0  0  0  0  0  0  0  0  # atno 17394 bound_to 11000
  140.1957  134.4317  155.7691 LP  0  0  0  0  0  0  0  0  0  0  0  0  # atno 17395 bound_to 11000

$$$$
