AV-unprocessed.smi:637|AV-procd|sdf|3142|dock1
  -GOLD-   22720 0 63D 1   1.00000     0.00000
 Structure written by MMmdl.
 38 40  0  0  0  0  0  0  0  0  1 V2000
  142.2253  143.9991  157.2647 C   0  0  0  0  0  0  0  0  0  0  0  0
  143.3972  143.5955  156.4359 C   0  0  0  0  0  0  0  0  0  0  0  0
  143.5720  143.7753  155.0853 C   0  0  0  0  0  0  0  0  0  0  0  0
  144.8169  143.2724  154.6027 C   0  0  0  0  0  0  0  0  0  0  0  0
  145.5670  142.7124  155.6094 C   0  0  0  0  0  0  0  0  0  0  0  0
  146.8832  142.1521  155.3510 C   0  0  0  0  0  0  0  0  0  0  0  0
  147.2586  141.6699  154.0330 C   0  0  0  0  0  0  0  0  0  0  0  0
  148.4779  141.1166  153.8562 C   0  0  0  0  0  0  0  0  0  0  0  0
  149.4319  140.9865  154.9558 C   0  0  0  0  0  0  0  0  0  0  0  0
  150.5354  140.4556  154.8337 O   0  0  0  0  0  0  0  0  0  0  0  0
  148.9792  141.4951  156.1383 N   0  0  0  0  0  0  0  0  0  0  0  0
  149.7837  141.3973  157.3639 C   0  0  0  0  0  0  0  0  0  0  0  0
  151.1082  142.1907  157.2680 C   0  0  1  0  0  0  0  0  0  0  0  0
  150.8302  143.4625  156.7188 O   0  0  0  0  0  0  0  0  0  0  0  0
  151.8338  142.2866  158.6044 C   0  0  0  0  0  0  0  0  0  0  0  0
  151.6789  143.4271  159.4233 C   0  0  0  0  0  0  0  0  0  0  0  0
  152.3100  143.4893  160.6807 C   0  0  0  0  0  0  0  0  0  0  0  0
  153.0996  142.4121  161.1263 C   0  0  0  0  0  0  0  0  0  0  0  0
  153.2591  141.2734  160.3137 C   0  0  0  0  0  0  0  0  0  0  0  0
  154.0140  140.2351  160.7442 F   0  0  0  0  0  0  0  0  0  0  0  0
  152.6291  141.2111  159.0558 C   0  0  0  0  0  0  0  0  0  0  0  0
  147.7353  142.0738  156.3219 N   0  0  0  0  0  0  0  0  0  0  0  0
  144.7718  142.7944  157.1574 S   0  0  0  0  0  0  0  0  0  0  0  0
  141.5014  144.5623  156.6752 H   0  0  0  0  0  0  0  0  0  0  0  0
  142.5396  144.6263  158.0991 H   0  0  0  0  0  0  0  0  0  0  0  0
  141.7201  143.1230  157.6717 H   0  0  0  0  0  0  0  0  0  0  0  0
  142.8554  144.2497  154.4312 H   0  0  0  0  0  0  0  0  0  0  0  0
  145.0947  143.3492  153.5611 H   0  0  0  0  0  0  0  0  0  0  0  0
  146.5721  141.7509  153.2037 H   0  0  0  0  0  0  0  0  0  0  0  0
  148.7568  140.7572  152.8767 H   0  0  0  0  0  0  0  0  0  0  0  0
  149.2045  141.7337  158.2259 H   0  0  0  0  0  0  0  0  0  0  0  0
  150.0044  140.3463  157.5616 H   0  0  0  0  0  0  0  0  0  0  0  0
  151.7658  141.6865  156.5587 H   0  0  0  0  0  0  0  0  0  0  0  0
  149.9156  143.4921  156.4820 H   0  0  0  0  0  0  0  0  0  0  0  0
  151.0633  144.2517  159.0947 H   0  0  0  0  0  0  0  0  0  0  0  0
  152.1840  144.3611  161.3054 H   0  0  0  0  0  0  0  0  0  0  0  0
  153.5807  142.4586  162.0921 H   0  0  0  0  0  0  0  0  0  0  0  0
  152.7457  140.3275  158.4454 H   0  0  0  0  0  0  0  0  0  0  0  0
  1  2  1  0  0  0  0
  1 24  1  0  0  0  0
  1 25  1  0  0  0  0
  1 26  1  0  0  0  0
  2 23  1  0  0  0  0
  2  3  2  0  0  0  0
  3  4  1  0  0  0  0
  3 27  1  0  0  0  0
  4  5  2  0  0  0  0
  4 28  1  0  0  0  0
  5  6  1  0  0  0  0
  5 23  1  0  0  0  0
  6 22  2  0  0  0  0
  6  7  1  0  0  0  0
  7  8  2  0  0  0  0
  7 29  1  0  0  0  0
  8  9  1  0  0  0  0
  8 30  1  0  0  0  0
  9 10  2  0  0  0  0
  9 11  1  0  0  0  0
 11 12  1  0  0  0  0
 11 22  1  0  0  0  0
 12 13  1  0  0  0  0
 12 31  1  0  0  0  0
 12 32  1  0  0  0  0
 13 14  1  0  0  0  0
 13 15  1  0  0  0  0
 13 33  1  0  0  0  0
 14 34  1  0  0  0  0
 15 21  1  0  0  0  0
 15 16  2  0  0  0  0
 16 17  1  0  0  0  0
 16 35  1  0  0  0  0
 17 18  2  0  0  0  0
 17 36  1  0  0  0  0
 18 19  1  0  0  0  0
 18 37  1  0  0  0  0
 19 20  1  0  0  0  0
 19 21  2  0  0  0  0
 21 38  1  0  0  0  0
M  END
> <s_m_source_file>
AV-unprocessed.smi

> <i_m_source_file_index>
637

> <i_lp_mmshare_version>
43012

> <i_f3d_flags>
0

> <s_epik_input>
W0NIM11jMVtjSF1bY0hdYyhzMSktYzJbY0hdW2NIXWMoPU8pbihuMilbQ0gyXVtDQEhdKFtPSF0pYzNbY0hdW2NIXVtjSF1jKEYpW2NIXTM=

> <s_epik_cmdline>
J2VwaWtfcHl0aG9uJywgJy1waCcsICc3LjAnLCAnLXRuJywgJzgnLCAnLW1hJywgJzIwMCcsICctbWV0YWxfYmluZGluZycsICctaW1hZScsICc8aW5maWxlLm1hZT4nLCAnLW9tYWUnLCAnPG91dGZpbGUubWFlPic=

> <r_lp_tautomer_probability>
1

> <r_epik_Ionization_Penalty>
2.26963e-07

> <r_epik_Ionization_Penalty_Charging>
5.89185e-08

> <r_epik_Ionization_Penalty_Neutral>
1.68044e-07

> <r_epik_State_Penalty>
-0

> <r_epik_Charging_Adjusted_Penalty>
5.89185e-08

> <i_epik_Tot_Q>
0

> <i_epik_Tot_abs_Q>
0

> <r_epik_Metal_State_Penalty>
-0

> <b_epik_Metal_Only>
0

> <s_lp_Force_Field>
OPLS_2005

> <r_lp_Energy>
25.403

> <b_lp_Chiralities_Consistent>
1

> <s_lp_Variant>
AV-unprocessed.smi:637-2

> <Gold.Version>
5.8.1

> <Gold.Id.Protein>
6NUR|6NUR_protein|mol2

> <Gold.PLP.Fitness>
48.8527

> <Gold.PLP.PLP>
-45.4567

> <Gold.PLP.part.hbond>
-2.0000

> <Gold.PLP.part.metal>
0.0000

> <Gold.PLP.part.buried>
-4.8364

> <Gold.PLP.part.nonpolar>
-41.2266

> <Gold.PLP.part.repulsive>
2.2052

> <Gold.PLP.ligand.clash>
0.0000

> <Gold.PLP.ligand.torsion>
0.9971

> <Gold.PLP.Chemscore.Hbond>
1.7840

> <Gold.PLP.Chemscore.CHOScore>
0.0000

> <Gold.PLP.Chemscore.Metal>
0.0000

> <Gold.Chemscore.Hbonds>
donor molecule, donor type, donor heavy atom, donor atom, acceptor molecule, acceptor atom, score
      L1  H    14    34       P1  8028  0.66
      P1  H  7989  7998       L1    10  1.00

> <Gold.PLP.Chemscore.Internal.Correction>
0.0381

> <Gold.Rescore>
     Score         DG    S(hbond)    S(metal)    S(lipo)     H(rot)  DE(clash)    DE(int)     intcor
     17.14     -19.43       1.57        0.00     114.34       1.82       1.37       0.92       ----

> <Gold.Chemscore.Fitness>
17.1368

> <Gold.Chemscore.DG>
-19.4286

> <Gold.Chemscore.ZeroCoef>
-5.4800

> <Gold.Chemscore.Hbond>
1.5676

> <Gold.Chemscore.Metal>
0.0000

> <Gold.Chemscore.Lipo>
114.3384

> <Gold.Chemscore.Internal_Hbond>
0.0000

> <Gold.Chemscore.DEClash>
1.3696

> <Gold.Chemscore.DEInternal>
0.9222

> <Gold.Chemscore.Rot>
1.8222

> <Gold.Chemscore.Internal.Correction>
   9.000000E+99

> <Gold.Chemscore.Hbonds>
donor molecule, donor type, donor heavy atom, donor atom, acceptor molecule, acceptor atom, score
      L1  H    14    34       P1  8028  0.66
      P1  H  7989  7998       L1    10  0.95

> <Gold.Chemscore.Hbond.Weighted>
-5.2359

> <Gold.Chemscore.Metal.Weighted>
-0.0000

> <Gold.Chemscore.Lipo.Weighted>
-13.3776

> <Gold.Chemscore.Internal_Hbond.Weighted>
0.0000

> <Gold.Chemscore.DEClash.Weighted>
1.3696

> <Gold.Chemscore.DEInternal.Weighted>
0.9222

> <Gold.Chemscore.Rot.Weighted>
4.6649

> <Gold.Chemscore.Internal.Correction.Weighted>
   9.000000E+99

> <Gold.Protein.RotatedTorsions>
[ 6907 6896 6895 6894 ] final  -85.53 input  -60.11 | X-H torsion
[ 7974 7965 7964 7962 ] final  -79.06 input  175.53 | X-H torsion
[ 8008 7997 7996 7995 ] final  170.24 input   59.86 | X-H torsion
[ 10167 10162 10161 10158 ] final -147.69 input  -65.29 | X-H torsion
[ 10718 10713 10712 10709 ] final  -89.11 input   66.30 | X-H torsion
[ 10763 10752 10751 10750 ] final -139.42 input  -60.55 | X-H torsion
[ 11005 11000 10999 10996 ] final   18.23 input  -57.11 | X-H torsion

> <Gold.Protein.ActiveResidues>
 VAL166  LYS551  ARG553  GLY616  TRP617  ASP618  TYR619  PRO620  LYS621  CYS622 
 ASP623  PHE694  ASN695  SER759  ASP760  ASP761  ALA762  ILE779  LEU786  VAL792 
 PHE793  MET794  SER795  GLU796  ALA797  LYS798  CYS799  TRP800  GLU811  SER814 

> <Gold.Protein.RotatedAtoms>
  150.6870  134.3190  159.4778 H   0  0  0  0  0  0  0  0  0  0  0  0  # atno 6907 bound_to 6896
  152.1068  134.9300  160.0577 H   0  0  0  0  0  0  0  0  0  0  0  0  # atno 6908 bound_to 6896
  152.0558  133.4005  159.4433 H   0  0  0  0  0  0  0  0  0  0  0  0  # atno 6909 bound_to 6896
  145.5782  140.9453  143.1358 H   0  0  0  0  0  0  0  0  0  0  0  0  # atno 7974 bound_to 7965
  156.1384  140.1543  156.8959 H   0  0  0  0  0  0  0  0  0  0  0  0  # atno 8008 bound_to 7997
  154.4966  140.0836  156.7749 H   0  0  0  0  0  0  0  0  0  0  0  0  # atno 8009 bound_to 7997
  155.4126  140.3419  155.4267 H   0  0  0  0  0  0  0  0  0  0  0  0  # atno 8010 bound_to 7997
  139.7599  143.8392  152.2605 H   0  0  0  0  0  0  0  0  0  0  0  0  # atno 10167 bound_to 10162
  155.9984  130.4860  150.5122 H   0  0  0  0  0  0  0  0  0  0  0  0  # atno 10718 bound_to 10713
  154.8609  135.3583  154.5544 H   0  0  0  0  0  0  0  0  0  0  0  0  # atno 10763 bound_to 10752
  153.6161  135.7007  153.5333 H   0  0  0  0  0  0  0  0  0  0  0  0  # atno 10764 bound_to 10752
  153.3168  135.4163  155.1343 H   0  0  0  0  0  0  0  0  0  0  0  0  # atno 10765 bound_to 10752
  140.4271  134.1458  155.7677 H   0  0  0  0  0  0  0  0  0  0  0  0  # atno 11005 bound_to 11000
  144.7406  139.7460  143.7312 LP  0  0  0  0  0  0  0  0  0  0  0  0  # atno 17320 bound_to 7965
  146.1735  139.4896  142.9912 LP  0  0  0  0  0  0  0  0  0  0  0  0  # atno 17321 bound_to 7965
  139.8395  144.7216  150.9349 LP  0  0  0  0  0  0  0  0  0  0  0  0  # atno 17342 bound_to 10162
  140.7806  143.3996  151.1171 LP  0  0  0  0  0  0  0  0  0  0  0  0  # atno 17343 bound_to 10162
  157.3094  131.0660  151.2012 LP  0  0  0  0  0  0  0  0  0  0  0  0  # atno 17370 bound_to 10713
  157.2964  130.6821  149.6140 LP  0  0  0  0  0  0  0  0  0  0  0  0  # atno 17371 bound_to 10713
  141.1761  133.8512  157.1417 LP  0  0  0  0  0  0  0  0  0  0  0  0  # atno 17394 bound_to 11000
  140.0160  134.9967  157.0494 LP  0  0  0  0  0  0  0  0  0  0  0  0  # atno 17395 bound_to 11000

$$$$
