AV-unprocessed.smi:1112|AV-procd|sdf|4796|dock5
  -GOLD-   22720 3343D 1   1.00000     0.00000
 Structure written by MMmdl.
 49 51  0  0  0  0  0  0  0  0  1 V2000
  151.2516  137.0482  159.2941 O   0  0  0  0  0  0  0  0  0  0  0  0
  150.1907  137.3267  158.7357 C   0  0  0  0  0  0  0  0  0  0  0  0
  148.9875  137.1834  159.3098 N   0  0  0  0  0  0  0  0  0  0  0  0
  148.7368  136.7225  160.6749 C   0  0  0  0  0  0  0  0  0  0  0  0
  147.2272  136.7033  161.0374 C   0  0  0  0  0  0  0  0  0  0  0  0
  146.6508  137.8316  160.4064 O   0  0  0  0  0  0  0  0  0  0  0  0
  146.5163  135.4662  160.4367 C   0  0  0  0  0  0  0  0  0  0  0  0
  146.8542  134.1620  161.1846 C   0  0  0  0  0  0  0  0  0  0  0  0
  146.5739  134.2857  162.6904 C   0  0  0  0  0  0  0  0  0  0  0  0
  147.2966  135.4982  163.2960 C   0  0  0  0  0  0  0  0  0  0  0  0
  146.9213  136.7920  162.5537 C   0  0  0  0  0  0  0  0  0  0  0  0
  150.0747  137.7968  157.4825 N   0  0  0  0  0  0  0  0  0  0  0  0
  151.1049  138.1025  156.5464 C   0  0  0  0  0  0  0  0  0  0  0  0
  152.4320  137.6233  156.6747 C   0  0  0  0  0  0  0  0  0  0  0  0
  153.3918  137.9937  155.7150 C   0  0  0  0  0  0  0  0  0  0  0  0
  152.9949  138.8391  154.6639 C   0  0  0  0  0  0  0  0  0  0  0  0
  151.7407  139.3166  154.5350 N   0  0  0  0  0  0  0  0  0  0  0  0
  150.8112  138.9618  155.4561 C   0  0  0  0  0  0  0  0  0  0  0  0
  149.5114  139.4764  155.3007 N   0  0  0  0  0  0  0  0  0  0  0  0
  148.8019  139.0402  154.1095 C   0  0  0  0  0  0  0  0  0  0  0  0
  147.6153  139.9967  153.9705 C   0  0  0  0  0  0  0  0  0  0  0  0
  148.0228  141.2474  154.7591 C   0  0  0  0  0  0  0  0  0  0  0  0
  149.4108  140.9262  155.3198 C   0  0  0  0  0  0  0  0  0  0  0  0
  148.1735  137.4340  158.7679 H   0  0  0  0  0  0  0  0  0  0  0  0
  149.1616  135.7233  160.7798 H   0  0  0  0  0  0  0  0  0  0  0  0
  149.2859  137.3438  161.3820 H   0  0  0  0  0  0  0  0  0  0  0  0
  146.0307  137.5296  159.7603 H   0  0  0  0  0  0  0  0  0  0  0  0
  145.4355  135.6112  160.4783 H   0  0  0  0  0  0  0  0  0  0  0  0
  146.7646  135.3606  159.3798 H   0  0  0  0  0  0  0  0  0  0  0  0
  146.2716  133.3394  160.7697 H   0  0  0  0  0  0  0  0  0  0  0  0
  147.8998  133.8979  161.0282 H   0  0  0  0  0  0  0  0  0  0  0  0
  145.5001  134.3830  162.8550 H   0  0  0  0  0  0  0  0  0  0  0  0
  146.8830  133.3739  163.2023 H   0  0  0  0  0  0  0  0  0  0  0  0
  147.0421  135.5909  164.3520 H   0  0  0  0  0  0  0  0  0  0  0  0
  148.3744  135.3417  163.2537 H   0  0  0  0  0  0  0  0  0  0  0  0
  147.4204  137.6458  163.0121 H   0  0  0  0  0  0  0  0  0  0  0  0
  145.8540  136.9696  162.6960 H   0  0  0  0  0  0  0  0  0  0  0  0
  149.1334  137.8888  157.1287 H   0  0  0  0  0  0  0  0  0  0  0  0
  152.7371  136.9933  157.4956 H   0  0  0  0  0  0  0  0  0  0  0  0
  154.4106  137.6426  155.7865 H   0  0  0  0  0  0  0  0  0  0  0  0
  153.7052  139.1468  153.9107 H   0  0  0  0  0  0  0  0  0  0  0  0
  149.4442  139.1117  153.2307 H   0  0  0  0  0  0  0  0  0  0  0  0
  148.4745  138.0046  154.2046 H   0  0  0  0  0  0  0  0  0  0  0  0
  147.3972  140.2169  152.9250 H   0  0  0  0  0  0  0  0  0  0  0  0
  146.7205  139.5557  154.4112 H   0  0  0  0  0  0  0  0  0  0  0  0
  148.0412  142.1419  154.1359 H   0  0  0  0  0  0  0  0  0  0  0  0
  147.3157  141.4221  155.5707 H   0  0  0  0  0  0  0  0  0  0  0  0
  149.5350  141.3147  156.3312 H   0  0  0  0  0  0  0  0  0  0  0  0
  150.1823  141.3723  154.6905 H   0  0  0  0  0  0  0  0  0  0  0  0
  1  2  2  0  0  0  0
  2  3  1  0  0  0  0
  2 12  1  0  0  0  0
  3  4  1  0  0  0  0
  3 24  1  0  0  0  0
  4  5  1  0  0  0  0
  4 25  1  0  0  0  0
  4 26  1  0  0  0  0
  5 11  1  0  0  0  0
  5  6  1  0  0  0  0
  5  7  1  0  0  0  0
  6 27  1  0  0  0  0
  7  8  1  0  0  0  0
  7 28  1  0  0  0  0
  7 29  1  0  0  0  0
  8  9  1  0  0  0  0
  8 30  1  0  0  0  0
  8 31  1  0  0  0  0
  9 10  1  0  0  0  0
  9 32  1  0  0  0  0
  9 33  1  0  0  0  0
 10 11  1  0  0  0  0
 10 34  1  0  0  0  0
 10 35  1  0  0  0  0
 11 36  1  0  0  0  0
 11 37  1  0  0  0  0
 12 13  1  0  0  0  0
 12 38  1  0  0  0  0
 13 18  1  0  0  0  0
 13 14  2  0  0  0  0
 14 15  1  0  0  0  0
 14 39  1  0  0  0  0
 15 16  2  0  0  0  0
 15 40  1  0  0  0  0
 16 17  1  0  0  0  0
 16 41  1  0  0  0  0
 17 18  2  0  0  0  0
 18 19  1  0  0  0  0
 19 23  1  0  0  0  0
 19 20  1  0  0  0  0
 20 21  1  0  0  0  0
 20 42  1  0  0  0  0
 20 43  1  0  0  0  0
 21 22  1  0  0  0  0
 21 44  1  0  0  0  0
 21 45  1  0  0  0  0
 22 23  1  0  0  0  0
 22 46  1  0  0  0  0
 22 47  1  0  0  0  0
 23 48  1  0  0  0  0
 23 49  1  0  0  0  0
M  END
> <s_m_source_file>
AV-unprocessed.smi

> <i_m_source_file_index>
1112

> <i_lp_mmshare_version>
43012

> <i_f3d_flags>
0

> <s_epik_input>
W0NIMl0xW0NIMl1bQ0gyXVtDSDJdW0NIMl1DMShbT0hdKVtDSDJdW05IXUMoPU8pW05IXWMyW2NIXVtjSF1bY0hdbmMyTjNbQ0gyXVtDSDJdW0NIMl1bQ0gyXTM=

> <s_epik_cmdline>
J2VwaWtfcHl0aG9uJywgJy1waCcsICc3LjAnLCAnLXRuJywgJzgnLCAnLW1hJywgJzIwMCcsICctbWV0YWxfYmluZGluZycsICctaW1hZScsICc8aW5maWxlLm1hZT4nLCAnLW9tYWUnLCAnPG91dGZpbGUubWFlPic=

> <r_lp_tautomer_probability>
1

> <r_epik_Ionization_Penalty>
0.100401

> <r_epik_Ionization_Penalty_Charging>
0

> <r_epik_Ionization_Penalty_Neutral>
0.100401

> <r_epik_State_Penalty>
0.0898606

> <r_epik_Charging_Adjusted_Penalty>
0.0898606

> <i_epik_Tot_Q>
0

> <i_epik_Tot_abs_Q>
0

> <r_epik_Metal_State_Penalty>
0.0767935

> <b_epik_Metal_Only>
0

> <s_lp_Force_Field>
OPLS_2005

> <r_lp_Energy>
45.6108

> <b_lp_Chiralities_Consistent>
1

> <s_lp_Variant>
AV-unprocessed.smi:1112-1

> <Gold.Version>
5.8.1

> <Gold.Id.Protein>
6NUR|6NUR_protein|mol2

> <Gold.PLP.Fitness>
43.8710

> <Gold.PLP.PLP>
-35.7098

> <Gold.PLP.part.hbond>
-3.0000

> <Gold.PLP.part.metal>
0.0000

> <Gold.PLP.part.buried>
-0.7610

> <Gold.PLP.part.nonpolar>
-32.9395

> <Gold.PLP.part.repulsive>
0.3499

> <Gold.PLP.ligand.clash>
0.0000

> <Gold.PLP.ligand.torsion>
0.4232

> <Gold.PLP.Chemscore.Hbond>
2.9920

> <Gold.PLP.Chemscore.CHOScore>
0.0000

> <Gold.PLP.Chemscore.Metal>
0.0000

> <Gold.Chemscore.Hbonds>
donor molecule, donor type, donor heavy atom, donor atom, acceptor molecule, acceptor atom, score
      P1  H  6896  6908       L1     1  0.96
      P1  H  6934  6947       L1     6  0.67
      P1  H  7989  7998       L1    17  1.00

> <Gold.PLP.Chemscore.Internal.Correction>
0.0316

> <Gold.Rescore>
     Score         DG    S(hbond)    S(metal)    S(lipo)     H(rot)  DE(clash)    DE(int)     intcor
     18.85     -20.55       2.79        0.00      90.37       1.89       0.05       1.65       ----

> <Gold.Chemscore.Fitness>
18.8487

> <Gold.Chemscore.DG>
-20.5498

> <Gold.Chemscore.ZeroCoef>
-5.4800

> <Gold.Chemscore.Hbond>
2.7924

> <Gold.Chemscore.Metal>
0.0000

> <Gold.Chemscore.Lipo>
90.3673

> <Gold.Chemscore.Internal_Hbond>
0.0000

> <Gold.Chemscore.DEClash>
0.0505

> <Gold.Chemscore.DEInternal>
1.6506

> <Gold.Chemscore.Rot>
1.8866

> <Gold.Chemscore.Internal.Correction>
   9.000000E+99

> <Gold.Chemscore.Hbonds>
donor molecule, donor type, donor heavy atom, donor atom, acceptor molecule, acceptor atom, score
      P1  H  6896  6908       L1     1  0.52
      P1  H  6934  6947       L1     6  0.55
      P1  H  7989  7998       L1    17  0.82

> <Gold.Chemscore.Hbond.Weighted>
-9.3265

> <Gold.Chemscore.Metal.Weighted>
-0.0000

> <Gold.Chemscore.Lipo.Weighted>
-10.5730

> <Gold.Chemscore.Internal_Hbond.Weighted>
0.0000

> <Gold.Chemscore.DEClash.Weighted>
0.0505

> <Gold.Chemscore.DEInternal.Weighted>
1.6506

> <Gold.Chemscore.Rot.Weighted>
4.8297

> <Gold.Chemscore.Internal.Correction.Weighted>
   9.000000E+99

> <Gold.Protein.RotatedTorsions>
[ 6907 6896 6895 6894 ] final -148.83 input  -60.11 | X-H torsion
[ 7974 7965 7964 7962 ] final  -82.92 input  175.53 | X-H torsion
[ 8008 7997 7996 7995 ] final  142.26 input   59.86 | X-H torsion
[ 10167 10162 10161 10158 ] final  131.12 input  -65.29 | X-H torsion
[ 10718 10713 10712 10709 ] final -139.54 input   66.30 | X-H torsion
[ 10763 10752 10751 10750 ] final   76.01 input  -60.55 | X-H torsion
[ 11005 11000 10999 10996 ] final -164.98 input  -57.11 | X-H torsion

> <Gold.Protein.ActiveResidues>
 VAL166  LYS551  ARG553  GLY616  TRP617  ASP618  TYR619  PRO620  LYS621  CYS622 
 ASP623  PHE694  ASN695  SER759  ASP760  ASP761  ALA762  ILE779  LEU786  VAL792 
 PHE793  MET794  SER795  GLU796  ALA797  LYS798  CYS799  TRP800  GLU811  SER814 

> <Gold.Protein.RotatedAtoms>
  151.1754  133.4758  159.2593 H   0  0  0  0  0  0  0  0  0  0  0  0  # atno 6907 bound_to 6896
  151.1313  135.0132  159.8594 H   0  0  0  0  0  0  0  0  0  0  0  0  # atno 6908 bound_to 6896
  152.5460  134.1656  159.8629 H   0  0  0  0  0  0  0  0  0  0  0  0  # atno 6909 bound_to 6896
  145.5269  140.9525  143.1625 H   0  0  0  0  0  0  0  0  0  0  0  0  # atno 7974 bound_to 7965
  156.2952  140.2293  156.4698 H   0  0  0  0  0  0  0  0  0  0  0  0  # atno 8008 bound_to 7997
  154.7945  140.0452  157.1247 H   0  0  0  0  0  0  0  0  0  0  0  0  # atno 8009 bound_to 7997
  154.9606  140.3054  155.5036 H   0  0  0  0  0  0  0  0  0  0  0  0  # atno 8010 bound_to 7997
  139.5398  144.6720  151.4661 H   0  0  0  0  0  0  0  0  0  0  0  0  # atno 10167 bound_to 10162
  156.3120  130.7487  151.1565 H   0  0  0  0  0  0  0  0  0  0  0  0  # atno 10718 bound_to 10713
  153.0695  135.4967  154.8273 H   0  0  0  0  0  0  0  0  0  0  0  0  # atno 10763 bound_to 10752
  154.7001  135.3000  154.9355 H   0  0  0  0  0  0  0  0  0  0  0  0  # atno 10764 bound_to 10752
  154.0082  135.6757  153.4816 H   0  0  0  0  0  0  0  0  0  0  0  0  # atno 10765 bound_to 10752
  140.5809  134.5143  157.5178 H   0  0  0  0  0  0  0  0  0  0  0  0  # atno 11005 bound_to 11000
  144.7646  139.6874  143.7220 LP  0  0  0  0  0  0  0  0  0  0  0  0  # atno 17320 bound_to 7965
  146.2070  139.5400  142.9706 LP  0  0  0  0  0  0  0  0  0  0  0  0  # atno 17321 bound_to 7965
  140.6623  143.8472  150.6902 LP  0  0  0  0  0  0  0  0  0  0  0  0  # atno 17342 bound_to 10162
  140.1870  143.4067  152.1891 LP  0  0  0  0  0  0  0  0  0  0  0  0  # atno 17343 bound_to 10162
  157.7393  131.0531  150.5240 LP  0  0  0  0  0  0  0  0  0  0  0  0  # atno 17370 bound_to 10713
  156.5381  130.4201  149.6167 LP  0  0  0  0  0  0  0  0  0  0  0  0  # atno 17371 bound_to 10713
  139.9318  134.7950  156.0911 LP  0  0  0  0  0  0  0  0  0  0  0  0  # atno 17394 bound_to 11000
  141.0997  133.6682  156.2725 LP  0  0  0  0  0  0  0  0  0  0  0  0  # atno 17395 bound_to 11000

$$$$
