AV-unprocessed.smi:1173|AV-procd|sdf|4945|dock6
  -GOLD-   22720 3533D 1   1.00000     0.00000
 Structure written by MMmdl.
 37 38  0  0  0  0  0  0  0  0  1 V2000
  148.8425  141.3757  156.5771 C   0  0  0  0  0  0  0  0  0  0  0  0
  149.4715  140.7096  155.4301 N   0  0  0  0  0  0  0  0  0  0  0  0
  148.6384  140.5463  154.2271 C   0  0  0  0  0  0  0  0  0  0  0  0
  148.3903  139.0761  153.8612 C   0  0  0  0  0  0  0  0  0  0  0  0
  148.4938  138.7565  152.5691 N   0  0  0  0  0  0  0  0  0  0  0  0
  148.0935  138.2444  154.7176 O   0  0  0  0  0  0  0  0  0  0  0  0
  150.7582  140.2779  155.4483 C   0  0  0  0  0  0  0  0  0  0  0  0
  151.3231  139.7869  154.4701 O   0  0  0  0  0  0  0  0  0  0  0  0
  151.5215  140.4077  156.7337 C   0  0  0  0  0  0  0  0  0  0  0  0
  151.4694  141.6059  157.3579 N   0  0  0  0  0  0  0  0  0  0  0  0
  152.1470  141.7556  158.5034 C   0  0  0  0  0  0  0  0  0  0  0  0
  152.0785  143.0030  159.1382 N   0  0  0  0  0  0  0  0  0  0  0  0
  151.9006  144.2440  158.3793 C   0  0  0  0  0  0  0  0  0  0  0  0
  151.1625  145.3005  159.2185 C   0  0  0  0  0  0  0  0  0  0  0  0
  151.8513  145.5093  160.4448 O   0  0  0  0  0  0  0  0  0  0  0  0
  151.8977  144.3216  161.2252 C   0  0  0  0  0  0  0  0  0  0  0  0
  152.6628  143.2261  160.4634 C   0  0  0  0  0  0  0  0  0  0  0  0
  152.8844  140.8007  159.0855 N   0  0  0  0  0  0  0  0  0  0  0  0
  152.9598  139.6006  158.4723 C   0  0  0  0  0  0  0  0  0  0  0  0
  152.2868  139.3414  157.2635 C   0  0  0  0  0  0  0  0  0  0  0  0
  152.4278  137.8011  156.4891 Cl  0  0  0  0  0  0  0  0  0  0  0  0
  148.7241  140.6835  157.4106 H   0  0  0  0  0  0  0  0  0  0  0  0
  147.8493  141.7583  156.3416 H   0  0  0  0  0  0  0  0  0  0  0  0
  149.4405  142.2236  156.9142 H   0  0  0  0  0  0  0  0  0  0  0  0
  147.6711  141.0316  154.3600 H   0  0  0  0  0  0  0  0  0  0  0  0
  149.0961  141.0575  153.3778 H   0  0  0  0  0  0  0  0  0  0  0  0
  148.3381  137.8050  152.2696 H   0  0  0  0  0  0  0  0  0  0  0  0
  148.7251  139.4706  151.8934 H   0  0  0  0  0  0  0  0  0  0  0  0
  152.8828  144.6173  158.0875 H   0  0  0  0  0  0  0  0  0  0  0  0
  151.3366  144.0860  157.4604 H   0  0  0  0  0  0  0  0  0  0  0  0
  151.1154  146.2440  158.6745 H   0  0  0  0  0  0  0  0  0  0  0  0
  150.1333  144.9937  159.4125 H   0  0  0  0  0  0  0  0  0  0  0  0
  152.3967  144.5383  162.1698 H   0  0  0  0  0  0  0  0  0  0  0  0
  150.8864  143.9918  161.4689 H   0  0  0  0  0  0  0  0  0  0  0  0
  152.6542  142.3218  161.0715 H   0  0  0  0  0  0  0  0  0  0  0  0
  153.7069  143.5155  160.3393 H   0  0  0  0  0  0  0  0  0  0  0  0
  153.5671  138.8448  158.9481 H   0  0  0  0  0  0  0  0  0  0  0  0
  1  2  1  0  0  0  0
  1 22  1  0  0  0  0
  1 23  1  0  0  0  0
  1 24  1  0  0  0  0
  2  3  1  0  0  0  0
  2  7  1  0  0  0  0
  3  4  1  0  0  0  0
  3 25  1  0  0  0  0
  3 26  1  0  0  0  0
  4  5  1  0  0  0  0
  4  6  2  0  0  0  0
  5 27  1  0  0  0  0
  5 28  1  0  0  0  0
  7  8  2  0  0  0  0
  7  9  1  0  0  0  0
  9 20  1  0  0  0  0
  9 10  2  0  0  0  0
 10 11  1  0  0  0  0
 11 12  1  0  0  0  0
 11 18  2  0  0  0  0
 12 17  1  0  0  0  0
 12 13  1  0  0  0  0
 13 14  1  0  0  0  0
 13 29  1  0  0  0  0
 13 30  1  0  0  0  0
 14 15  1  0  0  0  0
 14 31  1  0  0  0  0
 14 32  1  0  0  0  0
 15 16  1  0  0  0  0
 16 17  1  0  0  0  0
 16 33  1  0  0  0  0
 16 34  1  0  0  0  0
 17 35  1  0  0  0  0
 17 36  1  0  0  0  0
 18 19  1  0  0  0  0
 19 20  2  0  0  0  0
 19 37  1  0  0  0  0
 20 21  1  0  0  0  0
M  END
> <s_m_source_file>
AV-unprocessed.smi

> <i_m_source_file_index>
1173

> <i_lp_mmshare_version>
43012

> <i_f3d_flags>
0

> <s_epik_input>
W05IMl1DKD1PKVtDSDJdTihbQ0gzXSlDKD1PKWMxbmMobltjSF1jMUNsKU4yW0NIMl1bQ0gyXU9bQ0gyXVtDSDJdMg==

> <s_epik_cmdline>
J2VwaWtfcHl0aG9uJywgJy1waCcsICc3LjAnLCAnLXRuJywgJzgnLCAnLW1hJywgJzIwMCcsICctbWV0YWxfYmluZGluZycsICctaW1hZScsICc8aW5maWxlLm1hZT4nLCAnLW9tYWUnLCAnPG91dGZpbGUubWFlPic=

> <r_lp_tautomer_probability>
1

> <r_epik_Ionization_Penalty>
9.52456e-08

> <r_epik_Ionization_Penalty_Charging>
0

> <r_epik_Ionization_Penalty_Neutral>
9.52456e-08

> <r_epik_State_Penalty>
-0

> <r_epik_Charging_Adjusted_Penalty>
0

> <i_epik_Tot_Q>
0

> <i_epik_Tot_abs_Q>
0

> <r_epik_Metal_State_Penalty>
-0

> <b_epik_Metal_Only>
0

> <s_lp_Force_Field>
OPLS_2005

> <r_lp_Energy>
19.8888

> <b_lp_Chiralities_Consistent>
1

> <s_lp_Variant>
AV-unprocessed.smi:1173-1

> <Gold.Version>
5.8.1

> <Gold.Id.Protein>
6NUR|6NUR_protein|mol2

> <Gold.PLP.Fitness>
47.3901

> <Gold.PLP.PLP>
-39.6994

> <Gold.PLP.part.hbond>
-2.7401

> <Gold.PLP.part.metal>
0.0000

> <Gold.PLP.part.buried>
-6.7416

> <Gold.PLP.part.nonpolar>
-32.3193

> <Gold.PLP.part.repulsive>
0.4781

> <Gold.PLP.ligand.clash>
0.0000

> <Gold.PLP.ligand.torsion>
1.2485

> <Gold.PLP.Chemscore.Hbond>
2.8073

> <Gold.PLP.Chemscore.CHOScore>
0.0000

> <Gold.PLP.Chemscore.Metal>
0.0000

> <Gold.Chemscore.Hbonds>
donor molecule, donor type, donor heavy atom, donor atom, acceptor molecule, acceptor atom, score
      L1  H     5    27       P1  7948  0.99
      L1  H     5    28       P1  7957  0.32
      P1  H  7989  7998       L1     8  0.88

> <Gold.PLP.Chemscore.Internal.Correction>
1.7659

> <Gold.Rescore>
     Score         DG    S(hbond)    S(metal)    S(lipo)     H(rot)  DE(clash)    DE(int)     intcor
     17.66     -20.43       2.88        0.00      79.24       1.54       0.01       2.75       ----

> <Gold.Chemscore.Fitness>
17.6642

> <Gold.Chemscore.DG>
-20.4267

> <Gold.Chemscore.ZeroCoef>
-5.4800

> <Gold.Chemscore.Hbond>
2.8780

> <Gold.Chemscore.Metal>
0.0000

> <Gold.Chemscore.Lipo>
79.2360

> <Gold.Chemscore.Internal_Hbond>
0.0000

> <Gold.Chemscore.DEClash>
0.0133

> <Gold.Chemscore.DEInternal>
2.7492

> <Gold.Chemscore.Rot>
1.5377

> <Gold.Chemscore.Internal.Correction>
   9.000000E+99

> <Gold.Chemscore.Hbonds>
donor molecule, donor type, donor heavy atom, donor atom, acceptor molecule, acceptor atom, score
      L1  H     5    27       P1  7948  0.93
      L1  H     5    28       P1  7957  0.31
      P1  H  7989  7998       L1     8  0.64

> <Gold.Chemscore.Hbond.Weighted>
-9.6126

> <Gold.Chemscore.Metal.Weighted>
-0.0000

> <Gold.Chemscore.Lipo.Weighted>
-9.2706

> <Gold.Chemscore.Internal_Hbond.Weighted>
0.0000

> <Gold.Chemscore.DEClash.Weighted>
0.0133

> <Gold.Chemscore.DEInternal.Weighted>
2.7492

> <Gold.Chemscore.Rot.Weighted>
3.9366

> <Gold.Chemscore.Internal.Correction.Weighted>
   9.000000E+99

> <Gold.Protein.RotatedTorsions>
[ 6907 6896 6895 6894 ] final  -19.54 input  -60.11 | X-H torsion
[ 7974 7965 7964 7962 ] final  -18.48 input  175.53 | X-H torsion
[ 8008 7997 7996 7995 ] final  113.03 input   59.86 | X-H torsion
[ 10167 10162 10161 10158 ] final  -22.12 input  -65.29 | X-H torsion
[ 10718 10713 10712 10709 ] final   44.45 input   66.30 | X-H torsion
[ 10763 10752 10751 10750 ] final  -23.84 input  -60.55 | X-H torsion
[ 11005 11000 10999 10996 ] final   44.85 input  -57.11 | X-H torsion

> <Gold.Protein.ActiveResidues>
 VAL166  LYS551  ARG553  GLY616  TRP617  ASP618  TYR619  PRO620  LYS621  CYS622 
 ASP623  PHE694  ASN695  SER759  ASP760  ASP761  ALA762  ILE779  LEU786  VAL792 
 PHE793  MET794  SER795  GLU796  ALA797  LYS798  CYS799  TRP800  GLU811  SER814 

> <Gold.Protein.RotatedAtoms>
  151.2616  135.0656  159.9100 H   0  0  0  0  0  0  0  0  0  0  0  0  # atno 6907 bound_to 6896
  152.5365  134.0225  159.7998 H   0  0  0  0  0  0  0  0  0  0  0  0  # atno 6908 bound_to 6896
  151.0449  133.5624  159.2678 H   0  0  0  0  0  0  0  0  0  0  0  0  # atno 6909 bound_to 6896
  146.1890  140.3926  142.8465 H   0  0  0  0  0  0  0  0  0  0  0  0  # atno 7974 bound_to 7965
  156.2231  140.2987  156.0002 H   0  0  0  0  0  0  0  0  0  0  0  0  # atno 8008 bound_to 7997
  155.2427  140.0423  157.2994 H   0  0  0  0  0  0  0  0  0  0  0  0  # atno 8009 bound_to 7997
  154.5873  140.2391  155.7978 H   0  0  0  0  0  0  0  0  0  0  0  0  # atno 8010 bound_to 7997
  140.7285  143.4564  151.0442 H   0  0  0  0  0  0  0  0  0  0  0  0  # atno 10167 bound_to 10162
  157.4270  130.8002  149.7567 H   0  0  0  0  0  0  0  0  0  0  0  0  # atno 10718 bound_to 10713
  153.6742  135.6970  153.5138 H   0  0  0  0  0  0  0  0  0  0  0  0  # atno 10763 bound_to 10752
  153.2534  135.4267  155.0820 H   0  0  0  0  0  0  0  0  0  0  0  0  # atno 10764 bound_to 10752
  154.8418  135.3537  154.6286 H   0  0  0  0  0  0  0  0  0  0  0  0  # atno 10765 bound_to 10752
  140.1514  134.4457  155.8379 H   0  0  0  0  0  0  0  0  0  0  0  0  # atno 11005 bound_to 11000
  144.8451  140.6916  143.6204 LP  0  0  0  0  0  0  0  0  0  0  0  0  # atno 17320 bound_to 7965
  145.3851  139.1628  143.4260 LP  0  0  0  0  0  0  0  0  0  0  0  0  # atno 17321 bound_to 7965
  139.8245  143.7775  152.3178 LP  0  0  0  0  0  0  0  0  0  0  0  0  # atno 17342 bound_to 10162
  139.7869  144.7424  151.0009 LP  0  0  0  0  0  0  0  0  0  0  0  0  # atno 17343 bound_to 10162
  155.9900  130.3948  150.3048 LP  0  0  0  0  0  0  0  0  0  0  0  0  # atno 17370 bound_to 10713
  157.1202  131.0244  151.3012 LP  0  0  0  0  0  0  0  0  0  0  0  0  # atno 17371 bound_to 10713
  141.2199  133.6874  156.7428 LP  0  0  0  0  0  0  0  0  0  0  0  0  # atno 17394 bound_to 11000
  140.2600  134.8474  157.3750 LP  0  0  0  0  0  0  0  0  0  0  0  0  # atno 17395 bound_to 11000

$$$$
