AV-unprocessed.smi:153|AV-procd|sdf|1252|dock2
  -GOLD-   2262018483D 1   1.00000     0.00000
 Structure written by MMmdl.
 60 63  0  0  0  0  0  0  0  0  2 V2000
  150.0462  140.7978  159.0666 C   0  0  0  0  0  0  0  0  0  0  0  0
  150.8861  141.9286  158.4472 C   0  0  2  0  0  0  0  0  0  0  0  0
  151.6039  142.6203  159.4674 O   0  0  0  0  0  0  0  0  0  0  0  0
  151.1839  143.9749  159.5181 C   0  0  0  0  0  0  0  0  0  0  0  0
  150.7914  144.2896  158.0809 C   0  0  0  0  0  0  0  0  0  0  0  0
  150.1165  143.0012  157.6326 C   0  0  2  0  0  0  0  0  0  0  0  0
  148.7561  143.0575  158.0326 O   0  0  0  0  0  0  0  0  0  0  0  0
  150.1731  142.8050  156.0973 C   0  0  0  0  0  0  0  0  0  0  0  0
  149.5763  141.5550  155.6547 N   0  0  0  0  0  0  0  0  0  0  0  0
  149.9935  140.2838  155.9760 C   0  0  0  0  0  0  0  0  0  0  0  0
  149.2633  139.3203  155.4867 N   0  0  0  0  0  0  0  0  0  0  0  0
  148.2823  139.9723  154.7475 C   0  0  0  0  0  0  0  0  0  0  0  0
  147.1501  139.5464  153.9909 C   0  0  0  0  0  0  0  0  0  0  0  0
  146.7565  138.2557  153.8475 N   0  0  0  0  0  0  0  0  0  0  0  0
  146.9237  137.3392  154.9682 C   0  0  0  0  0  0  0  0  0  0  0  0
  145.7391  137.9582  152.8372 C   0  0  0  0  0  0  0  0  0  0  0  0
  146.1470  136.8222  151.8724 C   0  0  2  0  0  0  0  0  0  0  0  0
  146.6162  137.4337  150.6876 O   0  0  0  0  0  0  0  0  0  0  0  0
  144.9774  135.8810  151.4978 C   0  0  0  0  0  0  0  0  0  0  0  0
  145.4157  134.5973  150.8929 N   0  3  0  0  0  0  0  0  0  0  0  0
  146.4252  133.8724  151.7079 C   0  0  0  0  0  0  0  0  0  0  0  0
  146.8166  132.5439  151.0390 C   0  0  0  0  0  0  0  0  0  0  0  0
  145.6552  131.7537  150.8239 O   0  0  0  0  0  0  0  0  0  0  0  0
  144.7352  132.3969  149.9521 C   0  0  0  0  0  0  0  0  0  0  0  0
  144.2633  133.7146  150.5881 C   0  0  0  0  0  0  0  0  0  0  0  0
  146.3814  140.5101  153.4209 N   0  0  0  0  0  0  0  0  0  0  0  0
  146.6941  141.8004  153.5666 C   0  0  0  0  0  0  0  0  0  0  0  0
  147.7043  142.3406  154.2491 N   0  0  0  0  0  0  0  0  0  0  0  0
  148.4747  141.3809  154.8357 C   0  0  0  0  0  0  0  0  0  0  0  0
  149.4521  140.2895  158.3079 H   0  0  0  0  0  0  0  0  0  0  0  0
  149.3640  141.1765  159.8282 H   0  0  0  0  0  0  0  0  0  0  0  0
  150.6860  140.0540  159.5418 H   0  0  0  0  0  0  0  0  0  0  0  0
  151.6503  141.4792  157.8126 H   0  0  0  0  0  0  0  0  0  0  0  0
  150.3234  144.0605  160.1831 H   0  0  0  0  0  0  0  0  0  0  0  0
  151.9733  144.6263  159.8934 H   0  0  0  0  0  0  0  0  0  0  0  0
  150.1573  145.1729  157.9932 H   0  0  0  0  0  0  0  0  0  0  0  0
  151.6948  144.4691  157.4964 H   0  0  0  0  0  0  0  0  0  0  0  0
  148.4889  143.9635  158.0642 H   0  0  0  0  0  0  0  0  0  0  0  0
  149.6703  143.6286  155.5885 H   0  0  0  0  0  0  0  0  0  0  0  0
  151.2084  142.8217  155.7542 H   0  0  0  0  0  0  0  0  0  0  0  0
  150.8496  140.0920  156.6061 H   0  0  0  0  0  0  0  0  0  0  0  0
  147.8735  137.5110  155.4760 H   0  0  0  0  0  0  0  0  0  0  0  0
  146.9179  136.3071  154.6168 H   0  0  0  0  0  0  0  0  0  0  0  0
  146.1159  137.4542  155.6910 H   0  0  0  0  0  0  0  0  0  0  0  0
  144.7742  137.7380  153.2952 H   0  0  0  0  0  0  0  0  0  0  0  0
  145.5858  138.8743  152.2651 H   0  0  0  0  0  0  0  0  0  0  0  0
  146.9786  136.2737  152.3114 H   0  0  0  0  0  0  0  0  0  0  0  0
  145.9051  137.4906  150.0685 H   0  0  0  0  0  0  0  0  0  0  0  0
  144.3710  135.6340  152.3665 H   0  0  0  0  0  0  0  0  0  0  0  0
  144.3121  136.4073  150.8109 H   0  0  0  0  0  0  0  0  0  0  0  0
  147.3210  134.4773  151.8397 H   0  0  0  0  0  0  0  0  0  0  0  0
  146.0264  133.6803  152.7043 H   0  0  0  0  0  0  0  0  0  0  0  0
  147.3326  132.7204  150.0936 H   0  0  0  0  0  0  0  0  0  0  0  0
  147.5053  131.9910  151.6782 H   0  0  0  0  0  0  0  0  0  0  0  0
  145.1968  132.5746  148.9794 H   0  0  0  0  0  0  0  0  0  0  0  0
  143.8851  131.7353  149.7852 H   0  0  0  0  0  0  0  0  0  0  0  0
  143.7089  133.5064  151.5045 H   0  0  0  0  0  0  0  0  0  0  0  0
  143.5778  134.2235  149.9093 H   0  0  0  0  0  0  0  0  0  0  0  0
  146.0348  142.5001  153.0741 H   0  0  0  0  0  0  0  0  0  0  0  0
  145.8473  134.8198  150.0072 H   0  0  0  0  0  0  0  0  0  0  0  0
  1  2  1  0  0  0  0
  1 30  1  0  0  0  0
  1 31  1  0  0  0  0
  1 32  1  0  0  0  0
  2  6  1  0  0  0  0
  2  3  1  0  0  0  0
  2 33  1  0  0  0  0
  3  4  1  0  0  0  0
  4  5  1  0  0  0  0
  4 34  1  0  0  0  0
  4 35  1  0  0  0  0
  5  6  1  0  0  0  0
  5 36  1  0  0  0  0
  5 37  1  0  0  0  0
  6  7  1  0  0  0  0
  6  8  1  0  0  0  0
  7 38  1  0  0  0  0
  8  9  1  0  0  0  0
  8 39  1  0  0  0  0
  8 40  1  0  0  0  0
  9 29  1  0  0  0  0
  9 10  1  0  0  0  0
 10 11  2  0  0  0  0
 10 41  1  0  0  0  0
 11 12  1  0  0  0  0
 12 29  2  0  0  0  0
 12 13  1  0  0  0  0
 13 14  1  0  0  0  0
 13 26  2  0  0  0  0
 14 15  1  0  0  0  0
 14 16  1  0  0  0  0
 15 42  1  0  0  0  0
 15 43  1  0  0  0  0
 15 44  1  0  0  0  0
 16 17  1  0  0  0  0
 16 45  1  0  0  0  0
 16 46  1  0  0  0  0
 17 18  1  0  0  0  0
 17 19  1  0  0  0  0
 17 47  1  0  0  0  0
 18 48  1  0  0  0  0
 19 20  1  0  0  0  0
 19 49  1  0  0  0  0
 19 50  1  0  0  0  0
 20 25  1  0  0  0  0
 20 21  1  0  0  0  0
 20 60  1  0  0  0  0
 21 22  1  0  0  0  0
 21 51  1  0  0  0  0
 21 52  1  0  0  0  0
 22 23  1  0  0  0  0
 22 53  1  0  0  0  0
 22 54  1  0  0  0  0
 23 24  1  0  0  0  0
 24 25  1  0  0  0  0
 24 55  1  0  0  0  0
 24 56  1  0  0  0  0
 25 57  1  0  0  0  0
 25 58  1  0  0  0  0
 26 27  1  0  0  0  0
 27 28  2  0  0  0  0
 27 59  1  0  0  0  0
 28 29  1  0  0  0  0
M  CHG  1  20   1
M  END
> <s_m_source_file>
AV-unprocessed.smi

> <i_m_source_file_index>
153

> <i_lp_mmshare_version>
43012

> <i_f3d_flags>
0

> <s_epik_input>
W0NIMl0xW0NIMl1PW0NAQEhdKFtDSDNdKVtDQEBdMShbT0hdKVtDSDJdbihbY0hdbjIpYyhjMjMpbltjSF1uYzNOKFtDSDNdKVtDSDJdW0NASF0oW09IXSlbQ0gyXU40W0NIMl1bQ0gyXU9bQ0gyXVtDSDJdNA==

> <s_epik_cmdline>
J2VwaWtfcHl0aG9uJywgJy1waCcsICc3LjAnLCAnLXRuJywgJzgnLCAnLW1hJywgJzIwMCcsICctbWV0YWxfYmluZGluZycsICctaW1hZScsICc8aW5maWxlLm1hZT4nLCAnLW9tYWUnLCAnPG91dGZpbGUubWFlPic=

> <r_lp_tautomer_probability>
1

> <r_epik_Ionization_Penalty>
0.403509

> <r_epik_Ionization_Penalty_Charging>
0.40072

> <r_epik_Ionization_Penalty_Neutral>
0.00278876

> <r_epik_State_Penalty>
0.400058

> <r_epik_Charging_Adjusted_Penalty>
0.800778

> <i_epik_Tot_Q>
1

> <i_epik_Tot_abs_Q>
1

> <r_epik_Metal_State_Penalty>
0.400321

> <b_epik_Metal_Only>
0

> <s_lp_Force_Field>
OPLS_2005

> <r_lp_Energy>
42.6993

> <b_lp_Chiralities_Consistent>
1

> <s_lp_Variant>
AV-unprocessed.smi:153-3

> <Gold.Version>
5.8.1

> <Gold.Id.Protein>
6NUR|6NUR_protein|mol2

> <Gold.PLP.Fitness>
53.3079

> <Gold.PLP.PLP>
-46.1417

> <Gold.PLP.part.hbond>
-4.0433

> <Gold.PLP.part.metal>
0.0000

> <Gold.PLP.part.buried>
-1.9713

> <Gold.PLP.part.nonpolar>
-41.2989

> <Gold.PLP.part.repulsive>
1.4350

> <Gold.PLP.ligand.clash>
0.0000

> <Gold.PLP.ligand.torsion>
1.1429

> <Gold.PLP.Chemscore.Hbond>
2.8865

> <Gold.PLP.Chemscore.CHOScore>
0.0000

> <Gold.PLP.Chemscore.Metal>
0.0000

> <Gold.Chemscore.Hbonds>
donor molecule, donor type, donor heavy atom, donor atom, acceptor molecule, acceptor atom, score
      L1  H     7    38       P1  8029  0.41
      L1  H    18    48       P1 10171  0.25
      L1  H    20    60       P1  7921  0.11
      P1  H  7954  7966       L1    18  1.00

> <Gold.PLP.Chemscore.Internal.Correction>
0.7924

> <Gold.Rescore>
     Score         DG    S(hbond)    S(metal)    S(lipo)     H(rot)  DE(clash)    DE(int)     intcor
      9.52     -14.61       1.89        0.00     103.29       3.62       3.04       2.04       ----

> <Gold.Chemscore.Fitness>
9.5235

> <Gold.Chemscore.DG>
-14.6070

> <Gold.Chemscore.ZeroCoef>
-5.4800

> <Gold.Chemscore.Hbond>
1.8877

> <Gold.Chemscore.Metal>
0.0000

> <Gold.Chemscore.Lipo>
103.2866

> <Gold.Chemscore.Internal_Hbond>
0.0000

> <Gold.Chemscore.DEClash>
3.0410

> <Gold.Chemscore.DEInternal>
2.0426

> <Gold.Chemscore.Rot>
3.6182

> <Gold.Chemscore.Internal.Correction>
   9.000000E+99

> <Gold.Chemscore.Hbonds>
donor molecule, donor type, donor heavy atom, donor atom, acceptor molecule, acceptor atom, score
      L1  H     7    38       P1  8029  0.05
      L1  H    18    48       P1 10171  0.25
      L1  H    20    60       P1  7921  0.12
      P1  H  7954  7966       L1    18  0.72

> <Gold.Chemscore.Hbond.Weighted>
-6.3049

> <Gold.Chemscore.Metal.Weighted>
-0.0000

> <Gold.Chemscore.Lipo.Weighted>
-12.0845

> <Gold.Chemscore.Internal_Hbond.Weighted>
0.0000

> <Gold.Chemscore.DEClash.Weighted>
3.0410

> <Gold.Chemscore.DEInternal.Weighted>
2.0426

> <Gold.Chemscore.Rot.Weighted>
9.2625

> <Gold.Chemscore.Internal.Correction.Weighted>
   9.000000E+99

> <Gold.Protein.RotatedTorsions>
[ 6907 6896 6895 6894 ] final  -97.21 input  -60.11 | X-H torsion
[ 7974 7965 7964 7962 ] final -110.65 input  175.53 | X-H torsion
[ 8008 7997 7996 7995 ] final  -30.17 input   59.86 | X-H torsion
[ 10167 10162 10161 10158 ] final   66.24 input  -65.29 | X-H torsion
[ 10718 10713 10712 10709 ] final  -83.21 input   66.30 | X-H torsion
[ 10763 10752 10751 10750 ] final -113.76 input  -60.55 | X-H torsion
[ 11005 11000 10999 10996 ] final   98.11 input  -57.11 | X-H torsion

> <Gold.Protein.ActiveResidues>
 VAL166  LYS551  ARG553  GLY616  TRP617  ASP618  TYR619  PRO620  LYS621  CYS622 
 ASP623  PHE694  ASN695  SER759  ASP760  ASP761  ALA762  ILE779  LEU786  VAL792 
 PHE793  MET794  SER795  GLU796  ALA797  LYS798  CYS799  TRP800  GLU811  SER814 

> <Gold.Protein.RotatedAtoms>
  150.7010  134.1384  159.4095 H   0  0  0  0  0  0  0  0  0  0  0  0  # atno 6907 bound_to 6896
  151.9369  135.0229  160.0542 H   0  0  0  0  0  0  0  0  0  0  0  0  # atno 6908 bound_to 6896
  152.2127  133.4888  159.5156 H   0  0  0  0  0  0  0  0  0  0  0  0  # atno 6909 bound_to 6896
  145.1657  140.8901  143.3565 H   0  0  0  0  0  0  0  0  0  0  0  0  # atno 7974 bound_to 7965
  154.4261  140.1798  156.1365 H   0  0  0  0  0  0  0  0  0  0  0  0  # atno 8008 bound_to 7997
  156.0026  140.3358  155.6835 H   0  0  0  0  0  0  0  0  0  0  0  0  # atno 8009 bound_to 7997
  155.6222  140.0661  157.2665 H   0  0  0  0  0  0  0  0  0  0  0  0  # atno 8010 bound_to 7997
  140.1026  144.4890  150.7028 H   0  0  0  0  0  0  0  0  0  0  0  0  # atno 10167 bound_to 10162
  156.0021  130.4658  150.4223 H   0  0  0  0  0  0  0  0  0  0  0  0  # atno 10718 bound_to 10713
  154.8411  135.4442  154.1400 H   0  0  0  0  0  0  0  0  0  0  0  0  # atno 10763 bound_to 10752
  153.2588  135.6934  153.7607 H   0  0  0  0  0  0  0  0  0  0  0  0  # atno 10764 bound_to 10752
  153.6891  135.3390  155.3173 H   0  0  0  0  0  0  0  0  0  0  0  0  # atno 10765 bound_to 10752
  139.8773  134.9033  156.4407 H   0  0  0  0  0  0  0  0  0  0  0  0  # atno 11005 bound_to 11000
  145.0285  139.3362  143.6036 LP  0  0  0  0  0  0  0  0  0  0  0  0  # atno 17320 bound_to 7965
  146.3476  139.9613  142.8717 LP  0  0  0  0  0  0  0  0  0  0  0  0  # atno 17321 bound_to 7965
  140.6969  143.2410  151.4974 LP  0  0  0  0  0  0  0  0  0  0  0  0  # atno 17342 bound_to 10162
  139.5663  144.2035  152.1769 LP  0  0  0  0  0  0  0  0  0  0  0  0  # atno 17343 bound_to 10162
  157.2278  131.0497  151.2509 LP  0  0  0  0  0  0  0  0  0  0  0  0  # atno 17370 bound_to 10713
  157.3739  130.7196  149.6584 LP  0  0  0  0  0  0  0  0  0  0  0  0  # atno 17371 bound_to 10713
  140.9001  133.7785  155.9670 LP  0  0  0  0  0  0  0  0  0  0  0  0  # atno 17394 bound_to 11000
  140.8660  134.2784  157.5213 LP  0  0  0  0  0  0  0  0  0  0  0  0  # atno 17395 bound_to 11000

$$$$
