AV-unprocessed.smi:1695|AV-procd|sdf|6798|dock3
  -GOLD-   22720 7563D 1   1.00000     0.00000
 Structure written by MMmdl.
 50 52  0  0  0  0  0  0  0  0  1 V2000
  152.9636  142.7437  161.8714 C   0  0  0  0  0  0  0  0  0  0  0  0
  152.4338  142.4537  160.4782 C   0  0  0  0  0  0  0  0  0  0  0  0
  152.8004  141.2467  159.8412 C   0  0  0  0  0  0  0  0  0  0  0  0
  152.3308  140.9398  158.5453 C   0  0  0  0  0  0  0  0  0  0  0  0
  152.5589  139.8333  157.7451 N   0  0  0  0  0  0  0  0  0  0  0  0
  151.8506  140.1365  156.6608 C   0  0  0  0  0  0  0  0  0  0  0  0
  151.1894  141.3101  156.6649 N   0  0  0  0  0  0  0  0  0  0  0  0
  150.3559  141.8520  155.6068 C   0  0  0  0  0  0  0  0  0  0  0  0
  149.3934  140.8029  155.0190 C   0  0  1  0  0  0  0  0  0  0  0  0
  150.0610  140.0802  154.0028 O   0  0  0  0  0  0  0  0  0  0  0  0
  148.9195  139.8068  156.0963 C   0  0  0  0  0  0  0  0  0  0  0  0
  147.7389  139.0113  155.7507 N   0  0  0  0  0  0  0  0  0  0  0  0
  148.0279  137.9882  154.7400 C   0  0  0  0  0  0  0  0  0  0  0  0
  146.8003  137.1241  154.4043 C   0  0  0  0  0  0  0  0  0  0  0  0
  145.6306  138.0036  153.9200 C   0  0  0  0  0  0  0  0  0  0  0  0
  144.3706  137.1663  153.6620 C   0  0  0  0  0  0  0  0  0  0  0  0
  143.3041  137.8057  153.1751 N   0  0  0  0  0  0  0  0  0  0  0  0
  144.3571  135.9593  153.8973 O   0  0  0  0  0  0  0  0  0  0  0  0
  145.3673  139.1052  154.9653 C   0  0  0  0  0  0  0  0  0  0  0  0
  146.6609  139.8780  155.2731 C   0  0  0  0  0  0  0  0  0  0  0  0
  151.4777  141.8813  157.8991 C   0  0  0  0  0  0  0  0  0  0  0  0
  151.1060  143.0858  158.5220 C   0  0  0  0  0  0  0  0  0  0  0  0
  151.5842  143.3768  159.8169 C   0  0  0  0  0  0  0  0  0  0  0  0
  151.1769  144.6798  160.4817 C   0  0  0  0  0  0  0  0  0  0  0  0
  153.5515  141.9097  162.2556 H   0  0  0  0  0  0  0  0  0  0  0  0
  152.1419  142.9195  162.5658 H   0  0  0  0  0  0  0  0  0  0  0  0
  153.6025  143.6267  161.8591 H   0  0  0  0  0  0  0  0  0  0  0  0
  153.4483  140.5441  160.3442 H   0  0  0  0  0  0  0  0  0  0  0  0
  151.8105  139.4681  155.8131 H   0  0  0  0  0  0  0  0  0  0  0  0
  149.8003  142.7051  155.9992 H   0  0  0  0  0  0  0  0  0  0  0  0
  151.0121  142.2397  154.8265 H   0  0  0  0  0  0  0  0  0  0  0  0
  148.5494  141.3257  154.5721 H   0  0  0  0  0  0  0  0  0  0  0  0
  149.5667  140.1698  153.2020 H   0  0  0  0  0  0  0  0  0  0  0  0
  149.7527  139.1394  156.3223 H   0  0  0  0  0  0  0  0  0  0  0  0
  148.7202  140.3485  157.0225 H   0  0  0  0  0  0  0  0  0  0  0  0
  148.3991  138.4618  153.8297 H   0  0  0  0  0  0  0  0  0  0  0  0
  148.8184  137.3241  155.0848 H   0  0  0  0  0  0  0  0  0  0  0  0
  147.0639  136.3929  153.6389 H   0  0  0  0  0  0  0  0  0  0  0  0
  146.5098  136.5556  155.2895 H   0  0  0  0  0  0  0  0  0  0  0  0
  145.9281  138.4837  152.9857 H   0  0  0  0  0  0  0  0  0  0  0  0
  142.4513  137.2979  152.9903 H   0  0  0  0  0  0  0  0  0  0  0  0
  143.3547  138.7980  152.9944 H   0  0  0  0  0  0  0  0  0  0  0  0
  144.6058  139.7958  154.6012 H   0  0  0  0  0  0  0  0  0  0  0  0
  144.9784  138.6721  155.8884 H   0  0  0  0  0  0  0  0  0  0  0  0
  146.4415  140.6374  156.0246 H   0  0  0  0  0  0  0  0  0  0  0  0
  146.9854  140.4141  154.3800 H   0  0  0  0  0  0  0  0  0  0  0  0
  150.4586  143.7793  158.0059 H   0  0  0  0  0  0  0  0  0  0  0  0
  150.5580  145.2871  159.8207 H   0  0  0  0  0  0  0  0  0  0  0  0
  152.0564  145.2663  160.7479 H   0  0  0  0  0  0  0  0  0  0  0  0
  150.6041  144.4819  161.3881 H   0  0  0  0  0  0  0  0  0  0  0  0
  1  2  1  0  0  0  0
  1 25  1  0  0  0  0
  1 26  1  0  0  0  0
  1 27  1  0  0  0  0
  2 23  1  0  0  0  0
  2  3  2  0  0  0  0
  3  4  1  0  0  0  0
  3 28  1  0  0  0  0
  4 21  2  0  0  0  0
  4  5  1  0  0  0  0
  5  6  2  0  0  0  0
  6  7  1  0  0  0  0
  6 29  1  0  0  0  0
  7  8  1  0  0  0  0
  7 21  1  0  0  0  0
  8  9  1  0  0  0  0
  8 30  1  0  0  0  0
  8 31  1  0  0  0  0
  9 10  1  0  0  0  0
  9 11  1  0  0  0  0
  9 32  1  0  0  0  0
 10 33  1  0  0  0  0
 11 12  1  0  0  0  0
 11 34  1  0  0  0  0
 11 35  1  0  0  0  0
 12 20  1  0  0  0  0
 12 13  1  0  0  0  0
 13 14  1  0  0  0  0
 13 36  1  0  0  0  0
 13 37  1  0  0  0  0
 14 15  1  0  0  0  0
 14 38  1  0  0  0  0
 14 39  1  0  0  0  0
 15 16  1  0  0  0  0
 15 19  1  0  0  0  0
 15 40  1  0  0  0  0
 16 17  1  0  0  0  0
 16 18  2  0  0  0  0
 17 41  1  0  0  0  0
 17 42  1  0  0  0  0
 19 20  1  0  0  0  0
 19 43  1  0  0  0  0
 19 44  1  0  0  0  0
 20 45  1  0  0  0  0
 20 46  1  0  0  0  0
 21 22  1  0  0  0  0
 22 23  2  0  0  0  0
 22 47  1  0  0  0  0
 23 24  1  0  0  0  0
 24 48  1  0  0  0  0
 24 49  1  0  0  0  0
 24 50  1  0  0  0  0
M  END
> <s_m_source_file>
AV-unprocessed.smi

> <i_m_source_file_index>
1695

> <i_lp_mmshare_version>
43012

> <i_f3d_flags>
0

> <s_epik_input>
W0NIM11jKFtjSF0xKWMoW0NIM10pW2NIXWMoYzEyKW4oW2NIXW4yKVtDSDJdW0NASF0oW09IXSlbQ0gyXU4zW0NIMl1bQ0gyXVtDSF0oQyg9TylbTkgyXSlbQ0gyXVtDSDJdMw==

> <s_epik_cmdline>
J2VwaWtfcHl0aG9uJywgJy1waCcsICc3LjAnLCAnLXRuJywgJzgnLCAnLW1hJywgJzIwMCcsICctbWV0YWxfYmluZGluZycsICctaW1hZScsICc8aW5maWxlLm1hZT4nLCAnLW9tYWUnLCAnPG91dGZpbGUubWFlPic=

> <r_epik_Ionization_Penalty>
1.9508

> <r_epik_Ionization_Penalty_Charging>
0

> <r_epik_Ionization_Penalty_Neutral>
1.9508

> <r_epik_State_Penalty>
2.03746

> <r_epik_Charging_Adjusted_Penalty>
2.03746

> <i_epik_Tot_Q>
0

> <i_epik_Tot_abs_Q>
0

> <r_epik_Metal_State_Penalty>
2.03012

> <b_epik_Metal_Only>
0

> <s_lp_Force_Field>
OPLS_2005

> <r_lp_Energy>
30.7191

> <b_lp_Chiralities_Consistent>
1

> <s_lp_Variant>
AV-unprocessed.smi:1695-10

> <Gold.Version>
5.8.1

> <Gold.Id.Protein>
6NUR|6NUR_protein|mol2

> <Gold.PLP.Fitness>
49.2769

> <Gold.PLP.PLP>
-39.2076

> <Gold.PLP.part.hbond>
-4.0000

> <Gold.PLP.part.metal>
0.0000

> <Gold.PLP.part.buried>
-5.7606

> <Gold.PLP.part.nonpolar>
-29.2612

> <Gold.PLP.part.repulsive>
0.0419

> <Gold.PLP.ligand.clash>
0.0000

> <Gold.PLP.ligand.torsion>
0.6760

> <Gold.PLP.Chemscore.Hbond>
3.7920

> <Gold.PLP.Chemscore.CHOScore>
0.0000

> <Gold.PLP.Chemscore.Metal>
0.0000

> <Gold.Chemscore.Hbonds>
donor molecule, donor type, donor heavy atom, donor atom, acceptor molecule, acceptor atom, score
      L1  H    10    33       P1  7957  0.87
      L1  H    17    42       P1 10175  1.00
      P1  H  7989  7998       L1    10  0.85
      P1  H  7997  8010       L1     5  0.69

> <Gold.PLP.Chemscore.Internal.Correction>
0.0453

> <Gold.Rescore>
     Score         DG    S(hbond)    S(metal)    S(lipo)     H(rot)  DE(clash)    DE(int)     intcor
     17.75     -20.22       2.76        0.00     108.13       2.78       1.10       1.37       ----

> <Gold.Chemscore.Fitness>
17.7509

> <Gold.Chemscore.DG>
-20.2159

> <Gold.Chemscore.ZeroCoef>
-5.4800

> <Gold.Chemscore.Hbond>
2.7589

> <Gold.Chemscore.Metal>
0.0000

> <Gold.Chemscore.Lipo>
108.1256

> <Gold.Chemscore.Internal_Hbond>
0.0000

> <Gold.Chemscore.DEClash>
1.0983

> <Gold.Chemscore.DEInternal>
1.3668

> <Gold.Chemscore.Rot>
2.7849

> <Gold.Chemscore.Internal.Correction>
   9.000000E+99

> <Gold.Chemscore.Hbonds>
donor molecule, donor type, donor heavy atom, donor atom, acceptor molecule, acceptor atom, score
      L1  H    10    33       P1  7957  0.82
      L1  H    17    42       P1 10175  1.00
      P1  H  7989  7998       L1    10  0.16
      P1  H  7997  8010       L1     5  0.08

> <Gold.Chemscore.Hbond.Weighted>
-9.2147

> <Gold.Chemscore.Metal.Weighted>
-0.0000

> <Gold.Chemscore.Lipo.Weighted>
-12.6507

> <Gold.Chemscore.Internal_Hbond.Weighted>
0.0000

> <Gold.Chemscore.DEClash.Weighted>
1.0983

> <Gold.Chemscore.DEInternal.Weighted>
1.3668

> <Gold.Chemscore.Rot.Weighted>
7.1294

> <Gold.Chemscore.Internal.Correction.Weighted>
   9.000000E+99

> <Gold.Protein.RotatedTorsions>
[ 6907 6896 6895 6894 ] final  -52.36 input  -60.11 | X-H torsion
[ 7974 7965 7964 7962 ] final  139.05 input  175.53 | X-H torsion
[ 8008 7997 7996 7995 ] final   42.69 input   59.86 | X-H torsion
[ 10167 10162 10161 10158 ] final  -90.74 input  -65.29 | X-H torsion
[ 10718 10713 10712 10709 ] final   55.20 input   66.30 | X-H torsion
[ 10763 10752 10751 10750 ] final   -7.53 input  -60.55 | X-H torsion
[ 11005 11000 10999 10996 ] final  -86.85 input  -57.11 | X-H torsion

> <Gold.Protein.ActiveResidues>
 VAL166  LYS551  ARG553  GLY616  TRP617  ASP618  TYR619  PRO620  LYS621  CYS622 
 ASP623  PHE694  ASN695  SER759  ASP760  ASP761  ALA762  ILE779  LEU786  VAL792 
 PHE793  MET794  SER795  GLU796  ALA797  LYS798  CYS799  TRP800  GLU811  SER814 

> <Gold.Protein.RotatedAtoms>
  150.8525  134.7854  159.7019 H   0  0  0  0  0  0  0  0  0  0  0  0  # atno 6907 bound_to 6896
  152.4586  134.5233  159.9799 H   0  0  0  0  0  0  0  0  0  0  0  0  # atno 6908 bound_to 6896
  151.5351  133.3404  159.2961 H   0  0  0  0  0  0  0  0  0  0  0  0  # atno 6909 bound_to 6896
  144.9314  139.5042  143.5616 H   0  0  0  0  0  0  0  0  0  0  0  0  # atno 7974 bound_to 7965
  155.2903  140.3378  155.4253 H   0  0  0  0  0  0  0  0  0  0  0  0  # atno 8008 bound_to 7997
  156.2049  140.1747  156.7861 H   0  0  0  0  0  0  0  0  0  0  0  0  # atno 8009 bound_to 7997
  154.5608  140.0688  156.8799 H   0  0  0  0  0  0  0  0  0  0  0  0  # atno 8010 bound_to 7997
  140.3519  143.2887  151.9716 H   0  0  0  0  0  0  0  0  0  0  0  0  # atno 10167 bound_to 10162
  157.5324  130.8640  149.8706 H   0  0  0  0  0  0  0  0  0  0  0  0  # atno 10718 bound_to 10713
  153.4277  135.7011  153.6252 H   0  0  0  0  0  0  0  0  0  0  0  0  # atno 10763 bound_to 10752
  153.4680  135.3721  155.2375 H   0  0  0  0  0  0  0  0  0  0  0  0  # atno 10764 bound_to 10752
  154.8724  135.4036  154.3655 H   0  0  0  0  0  0  0  0  0  0  0  0  # atno 10765 bound_to 10752
  141.1625  133.7478  156.9221 H   0  0  0  0  0  0  0  0  0  0  0  0  # atno 11005 bound_to 11000
  146.3248  139.8268  142.8916 LP  0  0  0  0  0  0  0  0  0  0  0  0  # atno 17320 bound_to 7965
  145.3135  141.0226  143.3541 LP  0  0  0  0  0  0  0  0  0  0  0  0  # atno 17321 bound_to 7965
  139.4825  144.6069  151.7505 LP  0  0  0  0  0  0  0  0  0  0  0  0  # atno 17342 bound_to 10162
  140.5211  144.0877  150.6023 LP  0  0  0  0  0  0  0  0  0  0  0  0  # atno 17343 bound_to 10162
  156.0433  130.3734  150.1381 LP  0  0  0  0  0  0  0  0  0  0  0  0  # atno 17370 bound_to 10713
  156.9565  130.9791  151.3488 LP  0  0  0  0  0  0  0  0  0  0  0  0  # atno 17371 bound_to 10713
  140.1444  134.9272  157.2510 LP  0  0  0  0  0  0  0  0  0  0  0  0  # atno 17394 bound_to 11000
  140.2797  134.3364  155.7347 LP  0  0  0  0  0  0  0  0  0  0  0  0  # atno 17395 bound_to 11000

$$$$
