AV-unprocessed.smi:690|AV-procd|sdf|3363|dock7
  -GOLD-   22720 0343D 1   1.00000     0.00000
 Structure written by MMmdl.
 46 48  0  0  0  0  0  0  0  0  1 V2000
  152.0691  139.5404  155.6048 C   0  0  0  0  0  0  0  0  0  0  0  0
  151.1449  138.6766  154.7444 C   0  0  0  0  0  0  0  0  0  0  0  0
  149.8022  139.0641  154.9814 O   0  0  0  0  0  0  0  0  0  0  0  0
  148.8678  138.2804  154.2560 C   0  0  1  0  0  0  0  0  0  0  0  0
  148.3742  137.0295  154.9901 C   0  0  0  0  0  0  0  0  0  0  0  0
  146.9768  137.3475  154.4458 C   0  0  2  0  0  0  0  0  0  0  0  0
  146.7567  136.6912  153.1581 N   0  0  0  0  0  0  0  0  0  0  0  0
  145.5637  136.3085  152.6750 C   0  0  0  0  0  0  0  0  0  0  0  0
  144.5148  136.4527  153.3014 O   0  0  0  0  0  0  0  0  0  0  0  0
  145.5165  135.6857  151.2689 C   0  0  0  0  0  0  0  0  0  0  0  0
  145.2768  134.2312  151.2465 N   0  0  0  0  0  0  0  0  0  0  0  0
  144.0804  133.7939  150.6437 C   0  0  0  0  0  0  0  0  0  0  0  0
  143.7655  132.4925  150.5519 C   0  0  0  0  0  0  0  0  0  0  0  0
  144.6914  131.5269  151.0948 C   0  0  0  0  0  0  0  0  0  0  0  0
  145.8407  131.9338  151.6696 C   0  0  0  0  0  0  0  0  0  0  0  0
  146.1923  133.3554  151.7653 C   0  0  0  0  0  0  0  0  0  0  0  0
  147.2480  133.7345  152.2722 O   0  0  0  0  0  0  0  0  0  0  0  0
  147.4202  138.8277  154.3067 C   0  0  0  0  0  0  0  0  0  0  0  0
  146.9460  139.6564  153.1145 C   0  0  0  0  0  0  0  0  0  0  0  0
  147.2348  141.1206  153.4503 C   0  0  0  0  0  0  0  0  0  0  0  0
  147.2594  141.1954  154.9801 C   0  0  0  0  0  0  0  0  0  0  0  0
  147.0689  139.7568  155.4716 C   0  0  0  0  0  0  0  0  0  0  0  0
  153.1137  139.2738  155.4433 H   0  0  0  0  0  0  0  0  0  0  0  0
  151.8503  139.4106  156.6651 H   0  0  0  0  0  0  0  0  0  0  0  0
  151.9520  140.5973  155.3648 H   0  0  0  0  0  0  0  0  0  0  0  0
  151.3909  138.8046  153.6891 H   0  0  0  0  0  0  0  0  0  0  0  0
  151.2857  137.6234  154.9916 H   0  0  0  0  0  0  0  0  0  0  0  0
  149.1913  138.0678  153.2344 H   0  0  0  0  0  0  0  0  0  0  0  0
  148.8115  136.0930  154.6422 H   0  0  0  0  0  0  0  0  0  0  0  0
  148.4350  137.1214  156.0758 H   0  0  0  0  0  0  0  0  0  0  0  0
  146.1854  137.1831  155.1790 H   0  0  0  0  0  0  0  0  0  0  0  0
  147.5711  136.5372  152.5818 H   0  0  0  0  0  0  0  0  0  0  0  0
  144.7605  136.2115  150.6834 H   0  0  0  0  0  0  0  0  0  0  0  0
  146.4605  135.9095  150.7700 H   0  0  0  0  0  0  0  0  0  0  0  0
  143.4473  134.5797  150.2572 H   0  0  0  0  0  0  0  0  0  0  0  0
  142.8460  132.1759  150.0817 H   0  0  0  0  0  0  0  0  0  0  0  0
  144.4614  130.4731  151.0396 H   0  0  0  0  0  0  0  0  0  0  0  0
  146.5212  131.1965  152.0697 H   0  0  0  0  0  0  0  0  0  0  0  0
  147.4252  139.3619  152.1801 H   0  0  0  0  0  0  0  0  0  0  0  0
  145.8722  139.5253  152.9743 H   0  0  0  0  0  0  0  0  0  0  0  0
  148.2091  141.4080  153.0534 H   0  0  0  0  0  0  0  0  0  0  0  0
  146.4911  141.7886  153.0148 H   0  0  0  0  0  0  0  0  0  0  0  0
  148.2182  141.5904  155.3179 H   0  0  0  0  0  0  0  0  0  0  0  0
  146.4795  141.8514  155.3683 H   0  0  0  0  0  0  0  0  0  0  0  0
  146.0256  139.6125  155.7556 H   0  0  0  0  0  0  0  0  0  0  0  0
  147.6614  139.5607  156.3658 H   0  0  0  0  0  0  0  0  0  0  0  0
  1  2  1  0  0  0  0
  1 23  1  0  0  0  0
  1 24  1  0  0  0  0
  1 25  1  0  0  0  0
  2  3  1  0  0  0  0
  2 26  1  0  0  0  0
  2 27  1  0  0  0  0
  3  4  1  0  0  0  0
  4 18  1  0  0  0  0
  4  5  1  0  0  0  0
  4 28  1  0  0  0  0
  5  6  1  0  0  0  0
  5 29  1  0  0  0  0
  5 30  1  0  0  0  0
  6  7  1  0  0  0  0
  6 18  1  0  0  0  0
  6 31  1  0  0  0  0
  7  8  1  0  0  0  0
  7 32  1  0  0  0  0
  8  9  2  0  0  0  0
  8 10  1  0  0  0  0
 10 11  1  0  0  0  0
 10 33  1  0  0  0  0
 10 34  1  0  0  0  0
 11 16  1  0  0  0  0
 11 12  1  0  0  0  0
 12 13  2  0  0  0  0
 12 35  1  0  0  0  0
 13 14  1  0  0  0  0
 13 36  1  0  0  0  0
 14 15  2  0  0  0  0
 14 37  1  0  0  0  0
 15 16  1  0  0  0  0
 15 38  1  0  0  0  0
 16 17  2  0  0  0  0
 18 22  1  0  0  0  0
 18 19  1  0  0  0  0
 19 20  1  0  0  0  0
 19 39  1  0  0  0  0
 19 40  1  0  0  0  0
 20 21  1  0  0  0  0
 20 41  1  0  0  0  0
 20 42  1  0  0  0  0
 21 22  1  0  0  0  0
 21 43  1  0  0  0  0
 21 44  1  0  0  0  0
 22 45  1  0  0  0  0
 22 46  1  0  0  0  0
M  END
> <s_m_source_file>
AV-unprocessed.smi

> <i_m_source_file_index>
690

> <i_lp_mmshare_version>
43012

> <i_f3d_flags>
0

> <s_epik_input>
W0NIMl0xW0NIMl1bQ0gyXVtDSDJdQzEyW0NASF0oT1tDSDJdW0NIM10pW0NIMl1bQ0BIXTJbTkhdQyg9TylbQ0gyXW4zW2NIXVtjSF1bY0hdW2NIXWMzPU8=

> <s_epik_cmdline>
J2VwaWtfcHl0aG9uJywgJy1waCcsICc3LjAnLCAnLXRuJywgJzgnLCAnLW1hJywgJzIwMCcsICctbWV0YWxfYmluZGluZycsICctaW1hZScsICc8aW5maWxlLm1hZT4nLCAnLW9tYWUnLCAnPG91dGZpbGUubWFlPic=

> <r_lp_tautomer_probability>
1

> <r_epik_Ionization_Penalty>
4.11691e-07

> <r_epik_Ionization_Penalty_Charging>
3.92797e-07

> <r_epik_Ionization_Penalty_Neutral>
1.88943e-08

> <r_epik_State_Penalty>
-0

> <r_epik_Charging_Adjusted_Penalty>
3.92797e-07

> <i_epik_Tot_Q>
0

> <i_epik_Tot_abs_Q>
0

> <r_epik_Metal_State_Penalty>
-0

> <b_epik_Metal_Only>
0

> <s_lp_Force_Field>
OPLS_2005

> <r_lp_Energy>
47.2811

> <b_lp_Chiralities_Consistent>
1

> <s_lp_Variant>
AV-unprocessed.smi:690-4

> <Gold.Version>
5.8.1

> <Gold.Id.Protein>
6NUR|6NUR_protein|mol2

> <Gold.PLP.Fitness>
39.8193

> <Gold.PLP.PLP>
-34.8158

> <Gold.PLP.part.hbond>
-1.0000

> <Gold.PLP.part.metal>
0.0000

> <Gold.PLP.part.buried>
-6.5272

> <Gold.PLP.part.nonpolar>
-29.9421

> <Gold.PLP.part.repulsive>
1.2375

> <Gold.PLP.ligand.clash>
0.0000

> <Gold.PLP.ligand.torsion>
0.6208

> <Gold.PLP.Chemscore.Hbond>
1.0000

> <Gold.PLP.Chemscore.CHOScore>
0.9656

> <Gold.PLP.Chemscore.Metal>
0.0000

> <Gold.Chemscore.Hbonds>
donor molecule, donor type, donor heavy atom, donor atom, acceptor molecule, acceptor atom, score
      L1  H     7    32       P1  7948  1.00
      L1  C    12    35       P1 10186  0.96

> <Gold.PLP.Chemscore.Internal.Correction>
0.3481

> <Gold.Rescore>
     Score         DG    S(hbond)    S(metal)    S(lipo)     H(rot)  DE(clash)    DE(int)     intcor
     14.02     -14.64       0.94        0.00      88.30       1.69       0.06       0.56       ----

> <Gold.Chemscore.Fitness>
14.0163

> <Gold.Chemscore.DG>
-14.6384

> <Gold.Chemscore.ZeroCoef>
-5.4800

> <Gold.Chemscore.Hbond>
0.9444

> <Gold.Chemscore.Metal>
0.0000

> <Gold.Chemscore.Lipo>
88.2959

> <Gold.Chemscore.Internal_Hbond>
0.0000

> <Gold.Chemscore.DEClash>
0.0579

> <Gold.Chemscore.DEInternal>
0.5642

> <Gold.Chemscore.Rot>
1.6900

> <Gold.Chemscore.Internal.Correction>
   9.000000E+99

> <Gold.Chemscore.Hbonds>
donor molecule, donor type, donor heavy atom, donor atom, acceptor molecule, acceptor atom, score
      L1  H     7    32       P1  7948  0.98

> <Gold.Chemscore.Hbond.Weighted>
-3.1542

> <Gold.Chemscore.Metal.Weighted>
-0.0000

> <Gold.Chemscore.Lipo.Weighted>
-10.3306

> <Gold.Chemscore.Internal_Hbond.Weighted>
0.0000

> <Gold.Chemscore.DEClash.Weighted>
0.0579

> <Gold.Chemscore.DEInternal.Weighted>
0.5642

> <Gold.Chemscore.Rot.Weighted>
4.3265

> <Gold.Chemscore.Internal.Correction.Weighted>
   9.000000E+99

> <Gold.Protein.RotatedTorsions>
[ 6907 6896 6895 6894 ] final    6.08 input  -60.11 | X-H torsion
[ 7974 7965 7964 7962 ] final  151.33 input  175.53 | X-H torsion
[ 8008 7997 7996 7995 ] final  178.03 input   59.86 | X-H torsion
[ 10167 10162 10161 10158 ] final    4.57 input  -65.29 | X-H torsion
[ 10718 10713 10712 10709 ] final -121.40 input   66.30 | X-H torsion
[ 10763 10752 10751 10750 ] final  -10.83 input  -60.55 | X-H torsion
[ 11005 11000 10999 10996 ] final  -35.47 input  -57.11 | X-H torsion

> <Gold.Protein.ActiveResidues>
 VAL166  LYS551  ARG553  GLY616  TRP617  ASP618  TYR619  PRO620  LYS621  CYS622 
 ASP623  PHE694  ASN695  SER759  ASP760  ASP761  ALA762  ILE779  LEU786  VAL792 
 PHE793  MET794  SER795  GLU796  ALA797  LYS798  CYS799  TRP800  GLU811  SER814 

> <Gold.Protein.RotatedAtoms>
  151.6680  135.0980  160.0192 H   0  0  0  0  0  0  0  0  0  0  0  0  # atno 6907 bound_to 6896
  152.3908  133.6672  159.6245 H   0  0  0  0  0  0  0  0  0  0  0  0  # atno 6908 bound_to 6896
  150.7824  133.8874  159.3344 H   0  0  0  0  0  0  0  0  0  0  0  0  # atno 6909 bound_to 6896
  144.8300  139.6523  143.6063 H   0  0  0  0  0  0  0  0  0  0  0  0  # atno 7974 bound_to 7965
  156.0591  140.1343  156.9962 H   0  0  0  0  0  0  0  0  0  0  0  0  # atno 8008 bound_to 7997
  154.4473  140.0995  156.6561 H   0  0  0  0  0  0  0  0  0  0  0  0  # atno 8009 bound_to 7997
  155.5405  140.3461  155.4448 H   0  0  0  0  0  0  0  0  0  0  0  0  # atno 8010 bound_to 7997
  140.6528  143.7502  150.7603 H   0  0  0  0  0  0  0  0  0  0  0  0  # atno 10167 bound_to 10162
  156.1334  130.6412  150.9658 H   0  0  0  0  0  0  0  0  0  0  0  0  # atno 10718 bound_to 10713
  153.4749  135.7017  153.5972 H   0  0  0  0  0  0  0  0  0  0  0  0  # atno 10763 bound_to 10752
  153.4210  135.3825  155.2111 H   0  0  0  0  0  0  0  0  0  0  0  0  # atno 10764 bound_to 10752
  154.8724  135.3927  154.4191 H   0  0  0  0  0  0  0  0  0  0  0  0  # atno 10765 bound_to 10752
  140.9798  133.7062  156.1665 H   0  0  0  0  0  0  0  0  0  0  0  0  # atno 11005 bound_to 11000
  146.2604  139.6397  142.9366 LP  0  0  0  0  0  0  0  0  0  0  0  0  # atno 17320 bound_to 7965
  145.4916  141.0438  143.2590 LP  0  0  0  0  0  0  0  0  0  0  0  0  # atno 17321 bound_to 7965
  140.1156  143.4659  152.2344 LP  0  0  0  0  0  0  0  0  0  0  0  0  # atno 17342 bound_to 10162
  139.5745  144.7480  151.3800 LP  0  0  0  0  0  0  0  0  0  0  0  0  # atno 17343 bound_to 10162
  157.6510  131.0897  150.8051 LP  0  0  0  0  0  0  0  0  0  0  0  0  # atno 17370 bound_to 10713
  156.8134  130.4960  149.5353 LP  0  0  0  0  0  0  0  0  0  0  0  0  # atno 17371 bound_to 10713
  140.7203  134.4365  157.5575 LP  0  0  0  0  0  0  0  0  0  0  0  0  # atno 17394 bound_to 11000
  139.8945  134.8704  156.2172 LP  0  0  0  0  0  0  0  0  0  0  0  0  # atno 17395 bound_to 11000

$$$$
