AV-unprocessed.smi:2270|AV-procd|sdf|9155|dock2
  -GOLD-   2272012363D 1   1.00000     0.00000
 Structure written by MMmdl.
 53 54  0  0  0  0  0  0  0  0  2 V2000
  153.2225  141.6956  160.8257 C   0  0  0  0  0  0  0  0  0  0  0  0
  152.4392  142.8348  160.2076 C   0  0  0  0  0  0  0  0  0  0  0  0
  152.4018  144.1031  160.8191 C   0  0  0  0  0  0  0  0  0  0  0  0
  151.6624  145.1202  160.1901 C   0  0  0  0  0  0  0  0  0  0  0  0
  150.9893  144.8283  158.9886 C   0  0  0  0  0  0  0  0  0  0  0  0
  151.0653  143.5188  158.4493 C   0  0  0  0  0  0  0  0  0  0  0  0
  150.4223  143.2090  157.2225 N   0  0  0  0  0  0  0  0  0  0  0  0
  150.4922  142.0673  156.5163 C   0  0  0  0  0  0  0  0  0  0  0  0
  151.1530  141.0763  156.8283 O   0  0  0  0  0  0  0  0  0  0  0  0
  149.7560  142.1416  155.4004 N   0  0  0  0  0  0  0  0  0  0  0  0
  149.6155  141.0676  154.4230 C   0  0  0  0  0  0  0  0  0  0  0  0
  148.4113  140.1306  154.7279 C   0  0  1  0  0  0  0  0  0  0  0  0
  147.1043  140.5393  153.9700 C   0  0  0  0  0  0  0  0  0  0  0  0
  147.0161  140.0352  152.5168 C   0  0  0  0  0  0  0  0  0  0  0  0
  146.8252  142.0515  154.0325 C   0  0  0  0  0  0  0  0  0  0  0  0
  148.7708  138.7024  154.5393 N   0  0  0  0  0  0  0  0  0  0  0  0
  150.1479  138.3478  154.9186 C   0  0  0  0  0  0  0  0  0  0  0  0
  150.3632  138.4178  156.4461 C   0  0  0  0  0  0  0  0  0  0  0  0
  149.4250  137.5060  157.1416 N   0  3  0  0  0  0  0  0  0  0  0  0
  149.6061  137.5067  158.6086 C   0  0  0  0  0  0  0  0  0  0  0  0
  148.0265  137.7777  156.7346 C   0  0  0  0  0  0  0  0  0  0  0  0
  147.8987  137.7181  155.1979 C   0  0  0  0  0  0  0  0  0  0  0  0
  151.7972  142.5539  159.0528 N   0  0  0  0  0  0  0  0  0  0  0  0
  153.6508  141.9850  161.7857 H   0  0  0  0  0  0  0  0  0  0  0  0
  154.0370  141.3948  160.1661 H   0  0  0  0  0  0  0  0  0  0  0  0
  152.5752  140.8334  160.9892 H   0  0  0  0  0  0  0  0  0  0  0  0
  152.9290  144.2964  161.7417 H   0  0  0  0  0  0  0  0  0  0  0  0
  151.6162  146.1107  160.6183 H   0  0  0  0  0  0  0  0  0  0  0  0
  150.4378  145.6134  158.4934 H   0  0  0  0  0  0  0  0  0  0  0  0
  149.9326  143.9756  156.7854 H   0  0  0  0  0  0  0  0  0  0  0  0
  149.2468  142.9937  155.2157 H   0  0  0  0  0  0  0  0  0  0  0  0
  149.5145  141.5112  153.4325 H   0  0  0  0  0  0  0  0  0  0  0  0
  150.5414  140.4966  154.3686 H   0  0  0  0  0  0  0  0  0  0  0  0
  148.1871  140.2734  155.7840 H   0  0  0  0  0  0  0  0  0  0  0  0
  146.2615  140.1072  154.5060 H   0  0  0  0  0  0  0  0  0  0  0  0
  147.7251  140.5457  151.8658 H   0  0  0  0  0  0  0  0  0  0  0  0
  146.0216  140.2142  152.1075 H   0  0  0  0  0  0  0  0  0  0  0  0
  147.2060  138.9644  152.4472 H   0  0  0  0  0  0  0  0  0  0  0  0
  147.5115  142.6228  153.4080 H   0  0  0  0  0  0  0  0  0  0  0  0
  146.9036  142.4272  155.0532 H   0  0  0  0  0  0  0  0  0  0  0  0
  145.8170  142.2730  153.6810 H   0  0  0  0  0  0  0  0  0  0  0  0
  150.3503  137.3322  154.5752 H   0  0  0  0  0  0  0  0  0  0  0  0
  150.8777  138.9672  154.4001 H   0  0  0  0  0  0  0  0  0  0  0  0
  151.3859  138.1196  156.6795 H   0  0  0  0  0  0  0  0  0  0  0  0
  150.2465  139.4369  156.8161 H   0  0  0  0  0  0  0  0  0  0  0  0
  149.3821  138.4871  159.0311 H   0  0  0  0  0  0  0  0  0  0  0  0
  150.6332  137.2479  158.8686 H   0  0  0  0  0  0  0  0  0  0  0  0
  148.9489  136.7733  159.0769 H   0  0  0  0  0  0  0  0  0  0  0  0
  147.3736  137.0264  157.1802 H   0  0  0  0  0  0  0  0  0  0  0  0
  147.6986  138.7433  157.1214 H   0  0  0  0  0  0  0  0  0  0  0  0
  146.8616  137.8287  154.8880 H   0  0  0  0  0  0  0  0  0  0  0  0
  148.1819  136.7217  154.8550 H   0  0  0  0  0  0  0  0  0  0  0  0
  149.6412  136.5730  156.8210 H   0  0  0  0  0  0  0  0  0  0  0  0
  1  2  1  0  0  0  0
  1 24  1  0  0  0  0
  1 25  1  0  0  0  0
  1 26  1  0  0  0  0
  2 23  1  0  0  0  0
  2  3  2  0  0  0  0
  3  4  1  0  0  0  0
  3 27  1  0  0  0  0
  4  5  2  0  0  0  0
  4 28  1  0  0  0  0
  5  6  1  0  0  0  0
  5 29  1  0  0  0  0
  6  7  1  0  0  0  0
  6 23  2  0  0  0  0
  7  8  1  0  0  0  0
  7 30  1  0  0  0  0
  8  9  2  0  0  0  0
  8 10  1  0  0  0  0
 10 11  1  0  0  0  0
 10 31  1  0  0  0  0
 11 12  1  0  0  0  0
 11 32  1  0  0  0  0
 11 33  1  0  0  0  0
 12 13  1  0  0  0  0
 12 16  1  0  0  0  0
 12 34  1  0  0  0  0
 13 14  1  0  0  0  0
 13 15  1  0  0  0  0
 13 35  1  0  0  0  0
 14 36  1  0  0  0  0
 14 37  1  0  0  0  0
 14 38  1  0  0  0  0
 15 39  1  0  0  0  0
 15 40  1  0  0  0  0
 15 41  1  0  0  0  0
 16 22  1  0  0  0  0
 16 17  1  0  0  0  0
 17 18  1  0  0  0  0
 17 42  1  0  0  0  0
 17 43  1  0  0  0  0
 18 19  1  0  0  0  0
 18 44  1  0  0  0  0
 18 45  1  0  0  0  0
 19 20  1  0  0  0  0
 19 21  1  0  0  0  0
 19 53  1  0  0  0  0
 20 46  1  0  0  0  0
 20 47  1  0  0  0  0
 20 48  1  0  0  0  0
 21 22  1  0  0  0  0
 21 49  1  0  0  0  0
 21 50  1  0  0  0  0
 22 51  1  0  0  0  0
 22 52  1  0  0  0  0
M  CHG  1  19   1
M  END
> <s_m_source_file>
AV-unprocessed.smi

> <i_m_source_file_index>
2270

> <i_lp_mmshare_version>
43012

> <i_f3d_flags>
0

> <s_epik_input>
W0NIM11jMVtjSF1bY0hdW2NIXWMobjEpW05IXUMoPU8pW05IXVtDSDJdW0NASF0oW0NIXShbQ0gzXSlbQ0gzXSlOMltDSDJdW0NIMl1OKFtDSDNdKVtDSDJdW0NIMl0y

> <s_epik_cmdline>
J2VwaWtfcHl0aG9uJywgJy1waCcsICc3LjAnLCAnLXRuJywgJzgnLCAnLW1hJywgJzIwMCcsICctbWV0YWxfYmluZGluZycsICctaW1hZScsICc8aW5maWxlLm1hZT4nLCAnLW9tYWUnLCAnPG91dGZpbGUubWFlPic=

> <r_epik_Ionization_Penalty>
0.0278292

> <r_epik_Ionization_Penalty_Charging>
0.0272987

> <r_epik_Ionization_Penalty_Neutral>
0.000530468

> <r_epik_State_Penalty>
0.0776825

> <r_epik_Charging_Adjusted_Penalty>
0.104981

> <i_epik_Tot_Q>
1

> <i_epik_Tot_abs_Q>
1

> <r_epik_Metal_State_Penalty>
0.0776809

> <b_epik_Metal_Only>
0

> <s_lp_Force_Field>
OPLS_2005

> <r_lp_Energy>
35.6144

> <b_lp_Chiralities_Consistent>
1

> <s_lp_Variant>
AV-unprocessed.smi:2270-2

> <Gold.Version>
5.8.1

> <Gold.Id.Protein>
6NUR|6NUR_protein|mol2

> <Gold.PLP.Fitness>
44.9316

> <Gold.PLP.PLP>
-41.2448

> <Gold.PLP.part.hbond>
-2.0000

> <Gold.PLP.part.metal>
0.0000

> <Gold.PLP.part.buried>
-2.7664

> <Gold.PLP.part.nonpolar>
-36.1445

> <Gold.PLP.part.repulsive>
0.3861

> <Gold.PLP.ligand.clash>
0.0000

> <Gold.PLP.ligand.torsion>
1.2656

> <Gold.PLP.Chemscore.Hbond>
2.0000

> <Gold.PLP.Chemscore.CHOScore>
0.0000

> <Gold.PLP.Chemscore.Metal>
0.0000

> <Gold.Chemscore.Hbonds>
donor molecule, donor type, donor heavy atom, donor atom, acceptor molecule, acceptor atom, score
      L1  H     7    30       P1  8028  1.00
      L1  H    10    31       P1  8028  0.99

> <Gold.PLP.Chemscore.Internal.Correction>
0.2180

> <Gold.Rescore>
     Score         DG    S(hbond)    S(metal)    S(lipo)     H(rot)  DE(clash)    DE(int)     intcor
     15.80     -20.09       1.93        0.00     105.00       1.61       0.31       3.97       ----

> <Gold.Chemscore.Fitness>
15.8033

> <Gold.Chemscore.DG>
-20.0861

> <Gold.Chemscore.ZeroCoef>
-5.4800

> <Gold.Chemscore.Hbond>
1.9266

> <Gold.Chemscore.Metal>
0.0000

> <Gold.Chemscore.Lipo>
105.0022

> <Gold.Chemscore.Internal_Hbond>
0.0000

> <Gold.Chemscore.DEClash>
0.3139

> <Gold.Chemscore.DEInternal>
3.9689

> <Gold.Chemscore.Rot>
1.6070

> <Gold.Chemscore.Internal.Correction>
   9.000000E+99

> <Gold.Chemscore.Hbonds>
donor molecule, donor type, donor heavy atom, donor atom, acceptor molecule, acceptor atom, score
      L1  H     7    30       P1  8028  0.98
      L1  H    10    31       P1  8028  0.94

> <Gold.Chemscore.Hbond.Weighted>
-6.4348

> <Gold.Chemscore.Metal.Weighted>
-0.0000

> <Gold.Chemscore.Lipo.Weighted>
-12.2853

> <Gold.Chemscore.Internal_Hbond.Weighted>
0.0000

> <Gold.Chemscore.DEClash.Weighted>
0.3139

> <Gold.Chemscore.DEInternal.Weighted>
3.9689

> <Gold.Chemscore.Rot.Weighted>
4.1140

> <Gold.Chemscore.Internal.Correction.Weighted>
   9.000000E+99

> <Gold.Protein.RotatedTorsions>
[ 6907 6896 6895 6894 ] final -101.18 input  -60.11 | X-H torsion
[ 7974 7965 7964 7962 ] final  105.58 input  175.53 | X-H torsion
[ 8008 7997 7996 7995 ] final  160.18 input   59.86 | X-H torsion
[ 10167 10162 10161 10158 ] final -179.03 input  -65.29 | X-H torsion
[ 10718 10713 10712 10709 ] final  101.67 input   66.30 | X-H torsion
[ 10763 10752 10751 10750 ] final  -51.31 input  -60.55 | X-H torsion
[ 11005 11000 10999 10996 ] final -169.59 input  -57.11 | X-H torsion

> <Gold.Protein.ActiveResidues>
 VAL166  LYS551  ARG553  GLY616  TRP617  ASP618  TYR619  PRO620  LYS621  CYS622 
 ASP623  PHE694  ASN695  SER759  ASP760  ASP761  ALA762  ILE779  LEU786  VAL792 
 PHE793  MET794  SER795  GLU796  ALA797  LYS798  CYS799  TRP800  GLU811  SER814 

> <Gold.Protein.RotatedAtoms>
  150.7144  134.0773  159.3885 H   0  0  0  0  0  0  0  0  0  0  0  0  # atno 6907 bound_to 6896
  151.8757  135.0470  160.0493 H   0  0  0  0  0  0  0  0  0  0  0  0  # atno 6908 bound_to 6896
  152.2608  133.5260  159.5417 H   0  0  0  0  0  0  0  0  0  0  0  0  # atno 6909 bound_to 6896
  145.3178  139.2521  143.3728 H   0  0  0  0  0  0  0  0  0  0  0  0  # atno 7974 bound_to 7965
  156.2189  140.1811  156.7523 H   0  0  0  0  0  0  0  0  0  0  0  0  # atno 8008 bound_to 7997
  154.5834  140.0662  156.9166 H   0  0  0  0  0  0  0  0  0  0  0  0  # atno 8009 bound_to 7997
  155.2462  140.3325  155.4289 H   0  0  0  0  0  0  0  0  0  0  0  0  # atno 8010 bound_to 7997
  139.5405  144.2377  152.0884 H   0  0  0  0  0  0  0  0  0  0  0  0  # atno 10167 bound_to 10162
  157.6823  131.0732  150.5288 H   0  0  0  0  0  0  0  0  0  0  0  0  # atno 10718 bound_to 10713
  154.1245  135.6529  153.4909 H   0  0  0  0  0  0  0  0  0  0  0  0  # atno 10763 bound_to 10752
  153.0214  135.5278  154.7063 H   0  0  0  0  0  0  0  0  0  0  0  0  # atno 10764 bound_to 10752
  154.6280  135.2972  155.0219 H   0  0  0  0  0  0  0  0  0  0  0  0  # atno 10765 bound_to 10752
  140.5291  134.5634  157.5069 H   0  0  0  0  0  0  0  0  0  0  0  0  # atno 11005 bound_to 11000
  146.3094  140.3728  142.8676 LP  0  0  0  0  0  0  0  0  0  0  0  0  # atno 17320 bound_to 7965
  144.8964  140.7588  143.5894 LP  0  0  0  0  0  0  0  0  0  0  0  0  # atno 17321 bound_to 7965
  140.1855  144.4803  150.6506 LP  0  0  0  0  0  0  0  0  0  0  0  0  # atno 17342 bound_to 10162
  140.6632  143.2259  151.5806 LP  0  0  0  0  0  0  0  0  0  0  0  0  # atno 17343 bound_to 10162
  156.5599  130.4253  149.6068 LP  0  0  0  0  0  0  0  0  0  0  0  0  # atno 17370 bound_to 10713
  156.2830  130.7081  151.1911 LP  0  0  0  0  0  0  0  0  0  0  0  0  # atno 17371 bound_to 10713
  139.9564  134.7527  156.0332 LP  0  0  0  0  0  0  0  0  0  0  0  0  # atno 17394 bound_to 11000
  141.1292  133.6591  156.3417 LP  0  0  0  0  0  0  0  0  0  0  0  0  # atno 17395 bound_to 11000

$$$$
