AV-unprocessed.smi:525|AV-procd|sdf|2807|dock8
  -GOLD-   2262023283D 1   1.00000     0.00000
 Structure written by MMmdl.
 43 45  0  0  0  0  0  0  0  0  1 V2000
  147.8237  141.6856  154.0642 C   0  0  0  0  0  0  0  0  0  0  0  0
  149.2268  141.6968  153.8667 O   0  0  0  0  0  0  0  0  0  0  0  0
  149.9104  140.8914  154.8108 C   0  0  0  0  0  0  0  0  0  0  0  0
  149.5536  141.3612  156.2261 C   0  0  0  0  0  0  0  0  0  0  0  0
  150.7211  141.3796  157.0932 N   0  0  0  0  0  0  0  0  0  0  0  0
  151.6756  140.4267  157.2251 C   0  0  0  0  0  0  0  0  0  0  0  0
  151.6375  138.9317  156.2937 S   0  0  0  0  0  0  0  0  0  0  0  0
  150.7284  137.8838  157.4795 C   0  0  2  0  0  0  0  0  0  0  0  0
  151.5086  137.6651  158.7862 C   0  0  0  0  0  0  0  0  0  0  0  0
  152.7616  138.1271  158.8176 N   0  0  0  0  0  0  0  0  0  0  0  0
  151.0004  137.1105  159.7600 O   0  0  0  0  0  0  0  0  0  0  0  0
  150.3330  136.5705  156.8063 C   0  0  0  0  0  0  0  0  0  0  0  0
  149.5235  135.6225  157.4742 C   0  0  0  0  0  0  0  0  0  0  0  0
  149.1854  134.4073  156.8484 C   0  0  0  0  0  0  0  0  0  0  0  0
  149.6517  134.1300  155.5495 C   0  0  0  0  0  0  0  0  0  0  0  0
  150.4564  135.0691  154.8771 C   0  0  0  0  0  0  0  0  0  0  0  0
  150.7951  136.2846  155.5026 C   0  0  0  0  0  0  0  0  0  0  0  0
  152.6455  140.6953  158.0996 N   0  0  0  0  0  0  0  0  0  0  0  0
  152.2807  141.9353  158.5867 C   0  0  0  0  0  0  0  0  0  0  0  0
  152.9013  142.7626  159.5500 C   0  0  0  0  0  0  0  0  0  0  0  0
  152.3332  144.0069  159.8940 C   0  0  0  0  0  0  0  0  0  0  0  0
  151.1391  144.4402  159.2822 C   0  0  0  0  0  0  0  0  0  0  0  0
  150.5050  143.6315  158.3196 C   0  0  0  0  0  0  0  0  0  0  0  0
  151.0771  142.3915  157.9782 C   0  0  0  0  0  0  0  0  0  0  0  0
  147.3433  142.3232  153.3222 H   0  0  0  0  0  0  0  0  0  0  0  0
  147.5614  142.0632  155.0534 H   0  0  0  0  0  0  0  0  0  0  0  0
  147.4182  140.6792  153.9551 H   0  0  0  0  0  0  0  0  0  0  0  0
  149.6341  139.8438  154.6793 H   0  0  0  0  0  0  0  0  0  0  0  0
  150.9850  140.9704  154.6512 H   0  0  0  0  0  0  0  0  0  0  0  0
  149.1099  142.3567  156.1998 H   0  0  0  0  0  0  0  0  0  0  0  0
  148.8023  140.7021  156.6622 H   0  0  0  0  0  0  0  0  0  0  0  0
  149.8090  138.3990  157.7595 H   0  0  0  0  0  0  0  0  0  0  0  0
  153.3191  138.0140  159.6524 H   0  0  0  0  0  0  0  0  0  0  0  0
  153.1455  138.5912  158.0074 H   0  0  0  0  0  0  0  0  0  0  0  0
  149.1586  135.8246  158.4707 H   0  0  0  0  0  0  0  0  0  0  0  0
  148.5676  133.6882  157.3656 H   0  0  0  0  0  0  0  0  0  0  0  0
  149.3922  133.1977  155.0701 H   0  0  0  0  0  0  0  0  0  0  0  0
  150.8154  134.8568  153.8808 H   0  0  0  0  0  0  0  0  0  0  0  0
  151.4159  136.9951  154.9766 H   0  0  0  0  0  0  0  0  0  0  0  0
  153.8157  142.4395  160.0253 H   0  0  0  0  0  0  0  0  0  0  0  0
  152.8159  144.6318  160.6312 H   0  0  0  0  0  0  0  0  0  0  0  0
  150.7100  145.3941  159.5520 H   0  0  0  0  0  0  0  0  0  0  0  0
  149.5902  143.9609  157.8498 H   0  0  0  0  0  0  0  0  0  0  0  0
  1  2  1  0  0  0  0
  1 25  1  0  0  0  0
  1 26  1  0  0  0  0
  1 27  1  0  0  0  0
  2  3  1  0  0  0  0
  3  4  1  0  0  0  0
  3 28  1  0  0  0  0
  3 29  1  0  0  0  0
  4  5  1  0  0  0  0
  4 30  1  0  0  0  0
  4 31  1  0  0  0  0
  5 24  1  0  0  0  0
  5  6  1  0  0  0  0
  6  7  1  0  0  0  0
  6 18  2  0  0  0  0
  7  8  1  0  0  0  0
  8  9  1  0  0  0  0
  8 12  1  0  0  0  0
  8 32  1  0  0  0  0
  9 10  1  0  0  0  0
  9 11  2  0  0  0  0
 10 33  1  0  0  0  0
 10 34  1  0  0  0  0
 12 17  1  0  0  0  0
 12 13  2  0  0  0  0
 13 14  1  0  0  0  0
 13 35  1  0  0  0  0
 14 15  2  0  0  0  0
 14 36  1  0  0  0  0
 15 16  1  0  0  0  0
 15 37  1  0  0  0  0
 16 17  2  0  0  0  0
 16 38  1  0  0  0  0
 17 39  1  0  0  0  0
 18 19  1  0  0  0  0
 19 24  2  0  0  0  0
 19 20  1  0  0  0  0
 20 21  2  0  0  0  0
 20 40  1  0  0  0  0
 21 22  1  0  0  0  0
 21 41  1  0  0  0  0
 22 23  2  0  0  0  0
 22 42  1  0  0  0  0
 23 24  1  0  0  0  0
 23 43  1  0  0  0  0
M  END
> <s_m_source_file>
AV-unprocessed.smi

> <i_m_source_file_index>
525

> <i_lp_mmshare_version>
43012

> <i_f3d_flags>
0

> <s_epik_input>
W2NIXTFbY0hdW2NIXVtjSF1jKGMxMiluKFtDSDJdW0NIMl1PW0NIM10pYyhuMilTW0NASF0oQyg9TylbTkgyXSljM1tjSF1bY0hdW2NIXVtjSF1bY0hdMw==

> <s_epik_cmdline>
J2VwaWtfcHl0aG9uJywgJy1waCcsICc3LjAnLCAnLXRuJywgJzgnLCAnLW1hJywgJzIwMCcsICctbWV0YWxfYmluZGluZycsICctaW1hZScsICc8aW5maWxlLm1hZT4nLCAnLW9tYWUnLCAnPG91dGZpbGUubWFlPic=

> <r_epik_Ionization_Penalty>
0.0706634

> <r_epik_Ionization_Penalty_Charging>
0

> <r_epik_Ionization_Penalty_Neutral>
0.0706634

> <r_epik_State_Penalty>
0.0619781

> <r_epik_Charging_Adjusted_Penalty>
0.0619781

> <i_epik_Tot_Q>
0

> <i_epik_Tot_abs_Q>
0

> <r_epik_Metal_State_Penalty>
0.0552401

> <b_epik_Metal_Only>
0

> <s_lp_Force_Field>
OPLS_2005

> <r_lp_Energy>
11.715

> <b_lp_Chiralities_Consistent>
1

> <s_lp_Variant>
AV-unprocessed.smi:525-1

> <Gold.Version>
5.8.1

> <Gold.Id.Protein>
6NUR|6NUR_protein|mol2

> <Gold.PLP.Fitness>
44.9957

> <Gold.PLP.PLP>
-41.7718

> <Gold.PLP.part.hbond>
-3.6648

> <Gold.PLP.part.metal>
0.0000

> <Gold.PLP.part.buried>
-3.3398

> <Gold.PLP.part.nonpolar>
-34.4703

> <Gold.PLP.part.repulsive>
0.3036

> <Gold.PLP.ligand.clash>
0.0000

> <Gold.PLP.ligand.torsion>
0.9865

> <Gold.PLP.Chemscore.Hbond>
1.6730

> <Gold.PLP.Chemscore.CHOScore>
0.0000

> <Gold.PLP.Chemscore.Metal>
0.0000

> <Gold.Chemscore.Hbonds>
donor molecule, donor type, donor heavy atom, donor atom, acceptor molecule, acceptor atom, score
      P1  H  6896  6907       L1    11  1.00
      P1  H  7997  8010       L1    18  0.10
      P1  H  8011  8017       L1     2  0.62

> <Gold.PLP.Chemscore.Internal.Correction>
0.1779

> <Gold.Rescore>
     Score         DG    S(hbond)    S(metal)    S(lipo)     H(rot)  DE(clash)    DE(int)     intcor
     16.84     -19.46       2.10        0.00     112.92       2.44       0.28       2.35       ----

> <Gold.Chemscore.Fitness>
16.8373

> <Gold.Chemscore.DG>
-19.4620

> <Gold.Chemscore.ZeroCoef>
-5.4800

> <Gold.Chemscore.Hbond>
2.1005

> <Gold.Chemscore.Metal>
0.0000

> <Gold.Chemscore.Lipo>
112.9219

> <Gold.Chemscore.Internal_Hbond>
0.0000

> <Gold.Chemscore.DEClash>
0.2788

> <Gold.Chemscore.DEInternal>
2.3458

> <Gold.Chemscore.Rot>
2.4396

> <Gold.Chemscore.Internal.Correction>
   9.000000E+99

> <Gold.Chemscore.Hbonds>
donor molecule, donor type, donor heavy atom, donor atom, acceptor molecule, acceptor atom, score
      P1  H  6896  6907       L1    11  0.91
      P1  H  7997  8010       L1    18  0.07
      P1  H  8011  8017       L1     2  0.57

> <Gold.Chemscore.Hbond.Weighted>
-7.0156

> <Gold.Chemscore.Metal.Weighted>
-0.0000

> <Gold.Chemscore.Lipo.Weighted>
-13.2119

> <Gold.Chemscore.Internal_Hbond.Weighted>
0.0000

> <Gold.Chemscore.DEClash.Weighted>
0.2788

> <Gold.Chemscore.DEInternal.Weighted>
2.3458

> <Gold.Chemscore.Rot.Weighted>
6.2454

> <Gold.Chemscore.Internal.Correction.Weighted>
   9.000000E+99

> <Gold.Protein.RotatedTorsions>
[ 6907 6896 6895 6894 ] final  -16.64 input  -60.11 | X-H torsion
[ 7974 7965 7964 7962 ] final  -53.52 input  175.53 | X-H torsion
[ 8008 7997 7996 7995 ] final   24.10 input   59.86 | X-H torsion
[ 10167 10162 10161 10158 ] final   38.47 input  -65.29 | X-H torsion
[ 10718 10713 10712 10709 ] final -144.98 input   66.30 | X-H torsion
[ 10763 10752 10751 10750 ] final   72.09 input  -60.55 | X-H torsion
[ 11005 11000 10999 10996 ] final  -71.94 input  -57.11 | X-H torsion

> <Gold.Protein.ActiveResidues>
 VAL166  LYS551  ARG553  GLY616  TRP617  ASP618  TYR619  PRO620  LYS621  CYS622 
 ASP623  PHE694  ASN695  SER759  ASP760  ASP761  ALA762  ILE779  LEU786  VAL792 
 PHE793  MET794  SER795  GLU796  ALA797  LYS798  CYS799  TRP800  GLU811  SER814 

> <Gold.Protein.RotatedAtoms>
  151.3055  135.0780  159.9253 H   0  0  0  0  0  0  0  0  0  0  0  0  # atno 6907 bound_to 6896
  152.5289  133.9789  159.7807 H   0  0  0  0  0  0  0  0  0  0  0  0  # atno 6908 bound_to 6896
  151.0083  133.5938  159.2716 H   0  0  0  0  0  0  0  0  0  0  0  0  # atno 6909 bound_to 6896
  145.8959  140.8033  142.9768 H   0  0  0  0  0  0  0  0  0  0  0  0  # atno 7974 bound_to 7965
  154.9910  140.3114  155.4906 H   0  0  0  0  0  0  0  0  0  0  0  0  # atno 8008 bound_to 7997
  156.2940  140.2249  156.4955 H   0  0  0  0  0  0  0  0  0  0  0  0  # atno 8009 bound_to 7997
  154.7703  140.0453  157.1034 H   0  0  0  0  0  0  0  0  0  0  0  0  # atno 8010 bound_to 7997
  140.3933  144.1823  150.6131 H   0  0  0  0  0  0  0  0  0  0  0  0  # atno 10167 bound_to 10162
  156.3767  130.7816  151.2003 H   0  0  0  0  0  0  0  0  0  0  0  0  # atno 10718 bound_to 10713
  153.0438  135.5113  154.7692 H   0  0  0  0  0  0  0  0  0  0  0  0  # atno 10763 bound_to 10752
  154.6608  135.2938  154.9871 H   0  0  0  0  0  0  0  0  0  0  0  0  # atno 10764 bound_to 10752
  154.0723  135.6676  153.4878 H   0  0  0  0  0  0  0  0  0  0  0  0  # atno 10765 bound_to 10752
  141.1600  133.6832  156.6982 H   0  0  0  0  0  0  0  0  0  0  0  0  # atno 11005 bound_to 11000
  144.6733  140.1601  143.7423 LP  0  0  0  0  0  0  0  0  0  0  0  0  # atno 17320 bound_to 7965
  145.8851  139.2344  143.1582 LP  0  0  0  0  0  0  0  0  0  0  0  0  # atno 17321 bound_to 7965
  140.4817  143.2377  151.8946 LP  0  0  0  0  0  0  0  0  0  0  0  0  # atno 17342 bound_to 10162
  139.4788  144.5262  151.8731 LP  0  0  0  0  0  0  0  0  0  0  0  0  # atno 17343 bound_to 10162
  157.7489  131.0356  150.4371 LP  0  0  0  0  0  0  0  0  0  0  0  0  # atno 17370 bound_to 10713
  156.4607  130.4031  149.6578 LP  0  0  0  0  0  0  0  0  0  0  0  0  # atno 17371 bound_to 10713
  140.2978  134.8188  157.4072 LP  0  0  0  0  0  0  0  0  0  0  0  0  # atno 17394 bound_to 11000
  140.1288  134.5122  155.8122 LP  0  0  0  0  0  0  0  0  0  0  0  0  # atno 17395 bound_to 11000

$$$$
