AV-unprocessed.smi:1920|AV-procd|sdf|7778|dock6
  -GOLD-   22720 9523D 1   1.00000     0.00000
 Structure written by MMmdl.
 37 38  0  0  0  0  0  0  0  0  2 V2000
  151.4351  140.7483  155.5524 C   0  0  0  0  0  0  0  0  0  0  0  0
  150.4221  141.8966  155.4486 C   0  0  1  0  0  0  0  0  0  0  0  0
  149.0272  141.4578  155.9431 C   0  0  0  0  0  0  0  0  0  0  0  0
  148.0788  141.2270  154.8481 N   0  0  0  0  0  0  0  0  0  0  0  0
  148.3382  141.2734  153.5021 C   0  0  0  0  0  0  0  0  0  0  0  0
  147.1538  141.0037  152.8664 C   0  0  0  0  0  0  0  0  0  0  0  0
  146.2241  140.7976  153.8500 N   0  3  0  0  0  0  0  0  0  0  0  0
  146.7893  140.9291  155.0545 C   0  0  0  0  0  0  0  0  0  0  0  0
  150.9224  143.0365  156.2162 N   0  0  0  0  0  0  0  0  0  0  0  0
  151.1238  143.0623  157.5435 C   0  0  0  0  0  0  0  0  0  0  0  0
  150.9417  142.0888  158.2747 O   0  0  0  0  0  0  0  0  0  0  0  0
  151.6187  144.3873  158.1331 C   0  0  0  0  0  0  0  0  0  0  0  0
  152.6971  144.2154  159.2252 C   0  0  2  0  0  0  0  0  0  0  0  0
  153.5145  142.9542  159.0793 C   0  0  0  0  0  0  0  0  0  0  0  0
  153.5396  142.2262  160.1932 C   0  0  0  0  0  0  0  0  0  0  0  0
  152.7458  142.8507  161.3068 C   0  0  0  0  0  0  0  0  0  0  0  0
  152.1057  144.0959  160.6533 C   0  0  0  0  0  0  0  0  0  0  0  0
  151.1168  139.8891  154.9614 H   0  0  0  0  0  0  0  0  0  0  0  0
  151.5558  140.4157  156.5840 H   0  0  0  0  0  0  0  0  0  0  0  0
  152.4148  141.0540  155.1838 H   0  0  0  0  0  0  0  0  0  0  0  0
  150.3533  142.1670  154.3931 H   0  0  0  0  0  0  0  0  0  0  0  0
  149.1016  140.5224  156.4992 H   0  0  0  0  0  0  0  0  0  0  0  0
  148.6044  142.1970  156.6258 H   0  0  0  0  0  0  0  0  0  0  0  0
  149.3187  141.4975  153.1074 H   0  0  0  0  0  0  0  0  0  0  0  0
  146.9096  140.9455  151.8156 H   0  0  0  0  0  0  0  0  0  0  0  0
  146.2977  140.8249  156.0052 H   0  0  0  0  0  0  0  0  0  0  0  0
  151.1010  143.8857  155.6994 H   0  0  0  0  0  0  0  0  0  0  0  0
  152.0189  144.9884  157.3161 H   0  0  0  0  0  0  0  0  0  0  0  0
  150.7720  144.9440  158.5386 H   0  0  0  0  0  0  0  0  0  0  0  0
  153.3906  145.0573  159.1952 H   0  0  0  0  0  0  0  0  0  0  0  0
  154.0301  142.7010  158.1643 H   0  0  0  0  0  0  0  0  0  0  0  0
  154.0737  141.2958  160.3175 H   0  0  0  0  0  0  0  0  0  0  0  0
  151.9931  142.1564  161.6815 H   0  0  0  0  0  0  0  0  0  0  0  0
  153.4105  143.1225  162.1271 H   0  0  0  0  0  0  0  0  0  0  0  0
  152.2997  144.9952  161.2385 H   0  0  0  0  0  0  0  0  0  0  0  0
  151.0229  143.9699  160.6158 H   0  0  0  0  0  0  0  0  0  0  0  0
  145.2484  140.5787  153.6914 H   0  0  0  0  0  0  0  0  0  0  0  0
  1  2  1  0  0  0  0
  1 18  1  0  0  0  0
  1 19  1  0  0  0  0
  1 20  1  0  0  0  0
  2  3  1  0  0  0  0
  2  9  1  0  0  0  0
  2 21  1  0  0  0  0
  3  4  1  0  0  0  0
  3 22  1  0  0  0  0
  3 23  1  0  0  0  0
  4  8  1  0  0  0  0
  4  5  1  0  0  0  0
  5  6  2  0  0  0  0
  5 24  1  0  0  0  0
  6  7  1  0  0  0  0
  6 25  1  0  0  0  0
  7  8  2  0  0  0  0
  7 37  1  0  0  0  0
  8 26  1  0  0  0  0
  9 10  1  0  0  0  0
  9 27  1  0  0  0  0
 10 11  2  0  0  0  0
 10 12  1  0  0  0  0
 12 13  1  0  0  0  0
 12 28  1  0  0  0  0
 12 29  1  0  0  0  0
 13 17  1  0  0  0  0
 13 14  1  0  0  0  0
 13 30  1  0  0  0  0
 14 15  2  0  0  0  0
 14 31  1  0  0  0  0
 15 16  1  0  0  0  0
 15 32  1  0  0  0  0
 16 17  1  0  0  0  0
 16 33  1  0  0  0  0
 16 34  1  0  0  0  0
 17 35  1  0  0  0  0
 17 36  1  0  0  0  0
M  CHG  1   7   1
M  END
> <s_m_source_file>
AV-unprocessed.smi

> <i_m_source_file_index>
1920

> <i_lp_mmshare_version>
43012

> <i_f3d_flags>
0

> <s_epik_input>
W2NIXTFuW2NIXVtjSF1uMVtDSDJdW0NAQEhdKFtDSDNdKVtOSF1DKD1PKVtDSDJdW0NAQEhdMltDSF09W0NIXVtDSDJdW0NIMl0y

> <s_epik_cmdline>
J2VwaWtfcHl0aG9uJywgJy1waCcsICc3LjAnLCAnLXRuJywgJzgnLCAnLW1hJywgJzIwMCcsICctbWV0YWxfYmluZGluZycsICctaW1hZScsICc8aW5maWxlLm1hZT4nLCAnLW9tYWUnLCAnPG91dGZpbGUubWFlPic=

> <r_lp_tautomer_probability>
1

> <r_epik_Ionization_Penalty>
0.24816

> <r_epik_Ionization_Penalty_Charging>
0

> <r_epik_Ionization_Penalty_Neutral>
0.24816

> <r_epik_State_Penalty>
0.2394

> <r_epik_Charging_Adjusted_Penalty>
0.2394

> <i_epik_Tot_Q>
1

> <i_epik_Tot_abs_Q>
1

> <r_epik_Metal_State_Penalty>
0.531457

> <b_epik_Metal_Only>
0

> <s_lp_Force_Field>
OPLS_2005

> <r_lp_Energy>
20.1539

> <b_lp_Chiralities_Consistent>
1

> <s_lp_Variant>
AV-unprocessed.smi:1920-2

> <Gold.Version>
5.8.1

> <Gold.Id.Protein>
6NUR|6NUR_protein|mol2

> <Gold.PLP.Fitness>
49.4284

> <Gold.PLP.PLP>
-44.1807

> <Gold.PLP.part.hbond>
-2.0000

> <Gold.PLP.part.metal>
0.0000

> <Gold.PLP.part.buried>
-3.8235

> <Gold.PLP.part.nonpolar>
-39.0083

> <Gold.PLP.part.repulsive>
0.1407

> <Gold.PLP.ligand.clash>
0.0000

> <Gold.PLP.ligand.torsion>
1.3610

> <Gold.PLP.Chemscore.Hbond>
1.9840

> <Gold.PLP.Chemscore.CHOScore>
0.6657

> <Gold.PLP.Chemscore.Metal>
0.0000

> <Gold.Chemscore.Hbonds>
donor molecule, donor type, donor heavy atom, donor atom, acceptor molecule, acceptor atom, score
      L1  H     7    37       P1 10175  2.00
      L1  C     5    24       P1  7957  0.53

> <Gold.PLP.Chemscore.Internal.Correction>
0.0206

> <Gold.Rescore>
     Score         DG    S(hbond)    S(metal)    S(lipo)     H(rot)  DE(clash)    DE(int)     intcor
     13.71     -16.11       1.00        0.00     106.23       2.01       0.05       2.34       ----

> <Gold.Chemscore.Fitness>
13.7145

> <Gold.Chemscore.DG>
-16.1075

> <Gold.Chemscore.ZeroCoef>
-5.4800

> <Gold.Chemscore.Hbond>
1.0035

> <Gold.Chemscore.Metal>
0.0000

> <Gold.Chemscore.Lipo>
106.2320

> <Gold.Chemscore.Internal_Hbond>
0.0000

> <Gold.Chemscore.DEClash>
0.0533

> <Gold.Chemscore.DEInternal>
2.3397

> <Gold.Chemscore.Rot>
2.0130

> <Gold.Chemscore.Internal.Correction>
   9.000000E+99

> <Gold.Chemscore.Hbonds>
donor molecule, donor type, donor heavy atom, donor atom, acceptor molecule, acceptor atom, score
      L1  H     7    37       P1 10175  0.90
      L1  H     9    27       P1  8028  0.01

> <Gold.Chemscore.Hbond.Weighted>
-3.3516

> <Gold.Chemscore.Metal.Weighted>
-0.0000

> <Gold.Chemscore.Lipo.Weighted>
-12.4291

> <Gold.Chemscore.Internal_Hbond.Weighted>
0.0000

> <Gold.Chemscore.DEClash.Weighted>
0.0533

> <Gold.Chemscore.DEInternal.Weighted>
2.3397

> <Gold.Chemscore.Rot.Weighted>
5.1533

> <Gold.Chemscore.Internal.Correction.Weighted>
   9.000000E+99

> <Gold.Protein.RotatedTorsions>
[ 6907 6896 6895 6894 ] final -179.99 input  -60.11 | X-H torsion
[ 7974 7965 7964 7962 ] final  -76.64 input  175.53 | X-H torsion
[ 8008 7997 7996 7995 ] final -154.19 input   59.86 | X-H torsion
[ 10167 10162 10161 10158 ] final -126.25 input  -65.29 | X-H torsion
[ 10718 10713 10712 10709 ] final  103.57 input   66.30 | X-H torsion
[ 10763 10752 10751 10750 ] final -134.71 input  -60.55 | X-H torsion
[ 11005 11000 10999 10996 ] final   33.66 input  -57.11 | X-H torsion

> <Gold.Protein.ActiveResidues>
 VAL166  LYS551  ARG553  GLY616  TRP617  ASP618  TYR619  PRO620  LYS621  CYS622 
 ASP623  PHE694  ASN695  SER759  ASP760  ASP761  ALA762  ILE779  LEU786  VAL792 
 PHE793  MET794  SER795  GLU796  ALA797  LYS798  CYS799  TRP800  GLU811  SER814 

> <Gold.Protein.RotatedAtoms>
  151.6623  133.3316  159.3176 H   0  0  0  0  0  0  0  0  0  0  0  0  # atno 6907 bound_to 6896
  150.7907  134.6933  159.6518 H   0  0  0  0  0  0  0  0  0  0  0  0  # atno 6908 bound_to 6896
  152.3986  134.6327  160.0131 H   0  0  0  0  0  0  0  0  0  0  0  0  # atno 6909 bound_to 6896
  145.6102  140.9388  143.1193 H   0  0  0  0  0  0  0  0  0  0  0  0  # atno 7974 bound_to 7965
  155.6826  140.0746  157.2479 H   0  0  0  0  0  0  0  0  0  0  0  0  # atno 8008 bound_to 7997
  154.4103  140.1679  156.2051 H   0  0  0  0  0  0  0  0  0  0  0  0  # atno 8009 bound_to 7997
  155.9522  140.3376  155.6420 H   0  0  0  0  0  0  0  0  0  0  0  0  # atno 8010 bound_to 7997
  139.9734  143.5820  152.2404 H   0  0  0  0  0  0  0  0  0  0  0  0  # atno 10167 bound_to 10162
  157.6768  131.0782  150.5575 H   0  0  0  0  0  0  0  0  0  0  0  0  # atno 10718 bound_to 10713
  154.8715  135.3726  154.4779 H   0  0  0  0  0  0  0  0  0  0  0  0  # atno 10763 bound_to 10752
  153.5435  135.7026  153.5630 H   0  0  0  0  0  0  0  0  0  0  0  0  # atno 10764 bound_to 10752
  153.3781  135.4004  155.1801 H   0  0  0  0  0  0  0  0  0  0  0  0  # atno 10765 bound_to 10752
  140.2608  134.3194  155.7858 H   0  0  0  0  0  0  0  0  0  0  0  0  # atno 11005 bound_to 11000
  144.7273  139.7835  143.7360 LP  0  0  0  0  0  0  0  0  0  0  0  0  # atno 17320 bound_to 7965
  146.1510  139.4593  143.0048 LP  0  0  0  0  0  0  0  0  0  0  0  0  # atno 17321 bound_to 7965
  139.6464  144.7658  151.2236 LP  0  0  0  0  0  0  0  0  0  0  0  0  # atno 17342 bound_to 10162
  140.7514  143.6232  150.8493 LP  0  0  0  0  0  0  0  0  0  0  0  0  # atno 17343 bound_to 10162
  156.5878  130.4321  149.5949 LP  0  0  0  0  0  0  0  0  0  0  0  0  # atno 17370 bound_to 10713
  156.2608  130.6961  151.1729 LP  0  0  0  0  0  0  0  0  0  0  0  0  # atno 17371 bound_to 10713
  141.2190  133.7408  156.9184 LP  0  0  0  0  0  0  0  0  0  0  0  0  # atno 17394 bound_to 11000
  140.1466  134.9258  157.2538 LP  0  0  0  0  0  0  0  0  0  0  0  0  # atno 17395 bound_to 11000

$$$$
