AV-unprocessed.smi:317|AV-procd|sdf|2327|dock5
  -GOLD-   2262022233D 1   1.00000     0.00000
 Structure written by MMmdl.
 39 40  0  0  0  0  0  0  0  0  1 V2000
  151.1102  137.9937  155.2194 C   0  0  0  0  0  0  0  0  0  0  0  0
  150.8373  139.4983  155.0783 C   0  0  1  0  0  0  0  0  0  0  0  0
  149.4318  139.7633  154.4972 C   0  0  0  0  0  0  0  0  0  0  0  0
  149.3950  141.0101  153.8364 O   0  0  0  0  0  0  0  0  0  0  0  0
  150.9621  140.1091  156.3990 N   0  0  0  0  0  0  0  0  0  0  0  0
  151.9903  139.9338  157.2409 C   0  0  0  0  0  0  0  0  0  0  0  0
  152.9609  139.2176  156.9958 O   0  0  0  0  0  0  0  0  0  0  0  0
  151.8245  140.6545  158.3621 N   0  0  0  0  0  0  0  0  0  0  0  0
  152.7105  140.7649  159.4703 C   0  0  0  0  0  0  0  0  0  0  0  0
  153.4690  139.6571  159.9212 C   0  0  0  0  0  0  0  0  0  0  0  0
  154.2748  139.7920  161.0647 C   0  0  0  0  0  0  0  0  0  0  0  0
  154.2823  141.0293  161.7295 C   0  0  0  0  0  0  0  0  0  0  0  0
  153.5567  142.0894  161.3208 N   0  0  0  0  0  0  0  0  0  0  0  0
  152.7857  141.9797  160.2107 C   0  0  0  0  0  0  0  0  0  0  0  0
  152.0615  143.1295  159.8195 N   0  0  0  0  0  0  0  0  0  0  0  0
  151.8963  144.2483  160.7414 C   0  0  0  0  0  0  0  0  0  0  0  0
  151.4291  145.4113  159.8711 C   0  0  0  0  0  0  0  0  0  0  0  0
  152.1932  145.1736  158.5722 C   0  0  0  0  0  0  0  0  0  0  0  0
  152.2739  143.6467  158.4704 C   0  0  0  0  0  0  0  0  0  0  0  0
  151.0615  137.4934  154.2518 H   0  0  0  0  0  0  0  0  0  0  0  0
  150.3832  137.5166  155.8778 H   0  0  0  0  0  0  0  0  0  0  0  0
  152.1036  137.8116  155.6306 H   0  0  0  0  0  0  0  0  0  0  0  0
  151.6003  139.8970  154.4061 H   0  0  0  0  0  0  0  0  0  0  0  0
  149.1771  139.0070  153.7542 H   0  0  0  0  0  0  0  0  0  0  0  0
  148.6588  139.7205  155.2655 H   0  0  0  0  0  0  0  0  0  0  0  0
  149.1890  140.8629  152.9262 H   0  0  0  0  0  0  0  0  0  0  0  0
  150.2113  140.7182  156.6889 H   0  0  0  0  0  0  0  0  0  0  0  0
  151.0286  141.2752  158.3806 H   0  0  0  0  0  0  0  0  0  0  0  0
  153.4267  138.7005  159.4228 H   0  0  0  0  0  0  0  0  0  0  0  0
  154.8615  138.9624  161.4302 H   0  0  0  0  0  0  0  0  0  0  0  0
  154.8814  141.1709  162.6167 H   0  0  0  0  0  0  0  0  0  0  0  0
  151.1765  144.0142  161.5262 H   0  0  0  0  0  0  0  0  0  0  0  0
  152.8459  144.5069  161.2122 H   0  0  0  0  0  0  0  0  0  0  0  0
  150.3557  145.3369  159.6917 H   0  0  0  0  0  0  0  0  0  0  0  0
  151.6340  146.3851  160.3167 H   0  0  0  0  0  0  0  0  0  0  0  0
  151.7140  145.6305  157.7059 H   0  0  0  0  0  0  0  0  0  0  0  0
  153.1981  145.5891  158.6585 H   0  0  0  0  0  0  0  0  0  0  0  0
  153.2297  143.3264  158.0528 H   0  0  0  0  0  0  0  0  0  0  0  0
  151.4800  143.2760  157.8214 H   0  0  0  0  0  0  0  0  0  0  0  0
  1  2  1  0  0  0  0
  1 20  1  0  0  0  0
  1 21  1  0  0  0  0
  1 22  1  0  0  0  0
  2  3  1  0  0  0  0
  2  5  1  0  0  0  0
  2 23  1  0  0  0  0
  3  4  1  0  0  0  0
  3 24  1  0  0  0  0
  3 25  1  0  0  0  0
  4 26  1  0  0  0  0
  5  6  1  0  0  0  0
  5 27  1  0  0  0  0
  6  7  2  0  0  0  0
  6  8  1  0  0  0  0
  8  9  1  0  0  0  0
  8 28  1  0  0  0  0
  9 14  1  0  0  0  0
  9 10  2  0  0  0  0
 10 11  1  0  0  0  0
 10 29  1  0  0  0  0
 11 12  2  0  0  0  0
 11 30  1  0  0  0  0
 12 13  1  0  0  0  0
 12 31  1  0  0  0  0
 13 14  2  0  0  0  0
 14 15  1  0  0  0  0
 15 19  1  0  0  0  0
 15 16  1  0  0  0  0
 16 17  1  0  0  0  0
 16 32  1  0  0  0  0
 16 33  1  0  0  0  0
 17 18  1  0  0  0  0
 17 34  1  0  0  0  0
 17 35  1  0  0  0  0
 18 19  1  0  0  0  0
 18 36  1  0  0  0  0
 18 37  1  0  0  0  0
 19 38  1  0  0  0  0
 19 39  1  0  0  0  0
M  END
> <s_m_source_file>
AV-unprocessed.smi

> <i_m_source_file_index>
317

> <i_lp_mmshare_version>
43012

> <i_f3d_flags>
0

> <s_epik_input>
W09IXVtDSDJdW0NAQEhdKFtDSDNdKVtOSF1DKD1PKVtOSF1jMVtjSF1bY0hdW2NIXW5jMU4yW0NIMl1bQ0gyXVtDSDJdW0NIMl0y

> <s_epik_cmdline>
J2VwaWtfcHl0aG9uJywgJy1waCcsICc3LjAnLCAnLXRuJywgJzgnLCAnLW1hJywgJzIwMCcsICctbWV0YWxfYmluZGluZycsICctaW1hZScsICc8aW5maWxlLm1hZT4nLCAnLW9tYWUnLCAnPG91dGZpbGUubWFlPic=

> <r_lp_tautomer_probability>
1

> <r_epik_Ionization_Penalty>
0.098371

> <r_epik_Ionization_Penalty_Charging>
0

> <r_epik_Ionization_Penalty_Neutral>
0.098371

> <r_epik_State_Penalty>
0.0879016

> <r_epik_Charging_Adjusted_Penalty>
0.0879016

> <i_epik_Tot_Q>
0

> <i_epik_Tot_abs_Q>
0

> <r_epik_Metal_State_Penalty>
0.0753294

> <b_epik_Metal_Only>
0

> <s_lp_Force_Field>
OPLS_2005

> <r_lp_Energy>
32.3253

> <b_lp_Chiralities_Consistent>
1

> <s_lp_Variant>
AV-unprocessed.smi:317-2

> <Gold.Version>
5.8.1

> <Gold.Id.Protein>
6NUR|6NUR_protein|mol2

> <Gold.PLP.Fitness>
50.5221

> <Gold.PLP.PLP>
-45.6307

> <Gold.PLP.part.hbond>
-4.0000

> <Gold.PLP.part.metal>
0.0000

> <Gold.PLP.part.buried>
-5.2763

> <Gold.PLP.part.nonpolar>
-35.3600

> <Gold.PLP.part.repulsive>
0.2082

> <Gold.PLP.ligand.clash>
0.0000

> <Gold.PLP.ligand.torsion>
0.8098

> <Gold.PLP.Chemscore.Hbond>
2.0622

> <Gold.PLP.Chemscore.CHOScore>
0.0000

> <Gold.PLP.Chemscore.Metal>
0.0000

> <Gold.Chemscore.Hbonds>
donor molecule, donor type, donor heavy atom, donor atom, acceptor molecule, acceptor atom, score
      L1  H     4    26       P1  7957  1.00
      P1  H  7989  7998       L1     4  0.06
      P1  H  7997  8010       L1     7  1.00

> <Gold.PLP.Chemscore.Internal.Correction>
0.3244

> <Gold.Rescore>
     Score         DG    S(hbond)    S(metal)    S(lipo)     H(rot)  DE(clash)    DE(int)     intcor
     15.46     -18.68       1.92        0.00     103.30       2.08       0.02       3.19       ----

> <Gold.Chemscore.Fitness>
15.4625

> <Gold.Chemscore.DG>
-18.6762

> <Gold.Chemscore.ZeroCoef>
-5.4800

> <Gold.Chemscore.Hbond>
1.9244

> <Gold.Chemscore.Metal>
0.0000

> <Gold.Chemscore.Lipo>
103.3024

> <Gold.Chemscore.Internal_Hbond>
0.0000

> <Gold.Chemscore.DEClash>
0.0208

> <Gold.Chemscore.DEInternal>
3.1929

> <Gold.Chemscore.Rot>
2.0773

> <Gold.Chemscore.Internal.Correction>
   9.000000E+99

> <Gold.Chemscore.Hbonds>
donor molecule, donor type, donor heavy atom, donor atom, acceptor molecule, acceptor atom, score
      L1  H     4    26       P1  7957  0.93
      P1  H  7997  8010       L1     7  0.88

> <Gold.Chemscore.Hbond.Weighted>
-6.4276

> <Gold.Chemscore.Metal.Weighted>
-0.0000

> <Gold.Chemscore.Lipo.Weighted>
-12.0864

> <Gold.Chemscore.Internal_Hbond.Weighted>
0.0000

> <Gold.Chemscore.DEClash.Weighted>
0.0208

> <Gold.Chemscore.DEInternal.Weighted>
3.1929

> <Gold.Chemscore.Rot.Weighted>
5.3178

> <Gold.Chemscore.Internal.Correction.Weighted>
   9.000000E+99

> <Gold.Protein.RotatedTorsions>
[ 6907 6896 6895 6894 ] final   25.77 input  -60.11 | X-H torsion
[ 7974 7965 7964 7962 ] final   26.56 input  175.53 | X-H torsion
[ 8008 7997 7996 7995 ] final   60.78 input   59.86 | X-H torsion
[ 10167 10162 10161 10158 ] final  -15.34 input  -65.29 | X-H torsion
[ 10718 10713 10712 10709 ] final   23.26 input   66.30 | X-H torsion
[ 10763 10752 10751 10750 ] final  118.80 input  -60.55 | X-H torsion
[ 11005 11000 10999 10996 ] final  -68.01 input  -57.11 | X-H torsion

> <Gold.Protein.ActiveResidues>
 VAL166  LYS551  ARG553  GLY616  TRP617  ASP618  TYR619  PRO620  LYS621  CYS622 
 ASP623  PHE694  ASN695  SER759  ASP760  ASP761  ALA762  ILE779  LEU786  VAL792 
 PHE793  MET794  SER795  GLU796  ALA797  LYS798  CYS799  TRP800  GLU811  SER814 

> <Gold.Protein.RotatedAtoms>
  151.9776  135.0045  160.0555 H   0  0  0  0  0  0  0  0  0  0  0  0  # atno 6907 bound_to 6896
  152.1726  133.4649  159.4925 H   0  0  0  0  0  0  0  0  0  0  0  0  # atno 6908 bound_to 6896
  150.6904  134.1851  159.4306 H   0  0  0  0  0  0  0  0  0  0  0  0  # atno 6909 bound_to 6896
  146.1831  139.7312  142.8886 H   0  0  0  0  0  0  0  0  0  0  0  0  # atno 7974 bound_to 7965
  155.5879  140.3492  155.4558 H   0  0  0  0  0  0  0  0  0  0  0  0  # atno 8008 bound_to 7997
  156.0324  140.1277  157.0269 H   0  0  0  0  0  0  0  0  0  0  0  0  # atno 8009 bound_to 7997
  154.4357  140.1040  156.6104 H   0  0  0  0  0  0  0  0  0  0  0  0  # atno 8010 bound_to 7997
  140.7216  143.5229  150.9612 H   0  0  0  0  0  0  0  0  0  0  0  0  # atno 10167 bound_to 10162
  157.1636  130.6728  149.6053 H   0  0  0  0  0  0  0  0  0  0  0  0  # atno 10718 bound_to 10713
  153.5733  135.3498  155.2846 H   0  0  0  0  0  0  0  0  0  0  0  0  # atno 10763 bound_to 10752
  154.8679  135.4164  154.2701 H   0  0  0  0  0  0  0  0  0  0  0  0  # atno 10764 bound_to 10752
  153.3472  135.7053  153.6888 H   0  0  0  0  0  0  0  0  0  0  0  0  # atno 10765 bound_to 10752
  141.1522  133.6731  156.6381 H   0  0  0  0  0  0  0  0  0  0  0  0  # atno 11005 bound_to 11000
  145.4018  141.0386  143.3066 LP  0  0  0  0  0  0  0  0  0  0  0  0  # atno 17320 bound_to 7965
  144.8349  139.5566  143.6926 LP  0  0  0  0  0  0  0  0  0  0  0  0  # atno 17321 bound_to 7965
  139.8946  143.6910  152.3140 LP  0  0  0  0  0  0  0  0  0  0  0  0  # atno 17342 bound_to 10162
  139.7238  144.7597  151.0912 LP  0  0  0  0  0  0  0  0  0  0  0  0  # atno 17343 bound_to 10162
  155.9749  130.4703  150.6425 LP  0  0  0  0  0  0  0  0  0  0  0  0  # atno 17370 bound_to 10713
  157.4109  131.0823  151.1222 LP  0  0  0  0  0  0  0  0  0  0  0  0  # atno 17371 bound_to 10713
  140.3415  134.7845  157.4401 LP  0  0  0  0  0  0  0  0  0  0  0  0  # atno 17394 bound_to 11000
  140.0934  134.5570  155.8422 LP  0  0  0  0  0  0  0  0  0  0  0  0  # atno 17395 bound_to 11000

$$$$
