AV-unprocessed.smi:269|AV-procd|sdf|2042|dock5
  -GOLD-   2262021263D 1   1.00000     0.00000
 Structure written by MMmdl.
 62 65  0  0  0  0  0  0  0  0  2 V2000
  151.2756  145.4881  159.8859 C   0  0  0  0  0  0  0  0  0  0  0  0
  152.3724  144.7277  159.1288 C   0  0  0  0  0  0  0  0  0  0  0  0
  151.8438  144.0519  157.9493 N   0  0  0  0  0  0  0  0  0  0  0  0
  151.4782  142.7620  157.8998 C   0  0  0  0  0  0  0  0  0  0  0  0
  151.5370  142.0040  158.8686 O   0  0  0  0  0  0  0  0  0  0  0  0
  150.9526  142.2573  156.5518 C   0  0  0  0  0  0  0  0  0  0  0  0
  149.4774  142.0841  156.5320 N   0  3  0  0  0  0  0  0  0  0  0  0
  148.9263  141.5967  157.8254 C   0  0  0  0  0  0  0  0  0  0  0  0
  147.3905  141.5193  157.7779 C   0  0  0  0  0  0  0  0  0  0  0  0
  146.9488  140.7046  156.6490 N   0  0  0  0  0  0  0  0  0  0  0  0
  146.7924  139.3748  156.8896 C   0  0  0  0  0  0  0  0  0  0  0  0
  147.2926  138.4655  156.0109 N   0  0  0  0  0  0  0  0  0  0  0  0
  147.1607  137.1563  156.2411 C   0  0  0  0  0  0  0  0  0  0  0  0
  146.5701  136.5470  157.2695 N   0  0  0  0  0  0  0  0  0  0  0  0
  146.0493  137.4490  158.1489 C   0  0  0  0  0  0  0  0  0  0  0  0
  146.1182  138.8673  158.0379 C   0  0  0  0  0  0  0  0  0  0  0  0
  145.4756  139.4543  159.1210 N   0  0  0  0  0  0  0  0  0  0  0  0
  145.0668  138.4439  159.8377 C   0  0  0  0  0  0  0  0  0  0  0  0
  145.3519  137.2000  159.3197 N   0  0  0  0  0  0  0  0  0  0  0  0
  145.0167  135.9102  159.9101 C   0  0  0  0  0  0  0  0  0  0  0  0
  145.5308  135.6943  161.3698 C   0  0  0  0  0  0  0  0  0  0  0  0
  147.0759  135.8221  161.4417 C   0  0  0  0  0  0  0  0  0  0  0  0
  147.5322  137.0746  160.9704 O   0  0  0  0  0  0  0  0  0  0  0  0
  144.9269  136.7310  162.3508 C   0  0  0  0  0  0  0  0  0  0  0  0
  143.4267  136.5026  162.6132 C   0  0  0  0  0  0  0  0  0  0  0  0
  143.2174  135.1860  163.1061 O   0  0  0  0  0  0  0  0  0  0  0  0
  143.6058  134.1839  162.1756 C   0  0  0  0  0  0  0  0  0  0  0  0
  145.1135  134.2928  161.8829 C   0  0  0  0  0  0  0  0  0  0  0  0
  147.4816  141.1417  155.3582 C   0  0  0  0  0  0  0  0  0  0  0  0
  149.0192  141.2540  155.3884 C   0  0  0  0  0  0  0  0  0  0  0  0
  151.6927  146.0110  160.7468 H   0  0  0  0  0  0  0  0  0  0  0  0
  150.5034  144.8116  160.2538 H   0  0  0  0  0  0  0  0  0  0  0  0
  150.7962  146.2304  159.2467 H   0  0  0  0  0  0  0  0  0  0  0  0
  153.1448  145.4251  158.8034 H   0  0  0  0  0  0  0  0  0  0  0  0
  152.8615  144.0095  159.7890 H   0  0  0  0  0  0  0  0  0  0  0  0
  151.7560  144.6061  157.1095 H   0  0  0  0  0  0  0  0  0  0  0  0
  151.2434  142.9976  155.8053 H   0  0  0  0  0  0  0  0  0  0  0  0
  151.4414  141.3219  156.2733 H   0  0  0  0  0  0  0  0  0  0  0  0
  149.3417  140.6124  158.0483 H   0  0  0  0  0  0  0  0  0  0  0  0
  149.2261  142.2572  158.6391 H   0  0  0  0  0  0  0  0  0  0  0  0
  147.0166  141.1433  158.7288 H   0  0  0  0  0  0  0  0  0  0  0  0
  146.9729  142.5202  157.6621 H   0  0  0  0  0  0  0  0  0  0  0  0
  147.5900  136.5034  155.4952 H   0  0  0  0  0  0  0  0  0  0  0  0
  144.5352  138.5822  160.7679 H   0  0  0  0  0  0  0  0  0  0  0  0
  143.9352  135.7942  159.8544 H   0  0  0  0  0  0  0  0  0  0  0  0
  145.4182  135.1352  159.2562 H   0  0  0  0  0  0  0  0  0  0  0  0
  147.4375  135.6741  162.4591 H   0  0  0  0  0  0  0  0  0  0  0  0
  147.5527  135.0484  160.8384 H   0  0  0  0  0  0  0  0  0  0  0  0
  147.8917  136.9581  160.1046 H   0  0  0  0  0  0  0  0  0  0  0  0
  145.4431  136.6646  163.3096 H   0  0  0  0  0  0  0  0  0  0  0  0
  145.0970  137.7484  162.0000 H   0  0  0  0  0  0  0  0  0  0  0  0
  143.0696  137.2133  163.3585 H   0  0  0  0  0  0  0  0  0  0  0  0
  142.8286  136.6652  161.7168 H   0  0  0  0  0  0  0  0  0  0  0  0
  143.3834  133.2072  162.6060 H   0  0  0  0  0  0  0  0  0  0  0  0
  143.0121  134.2637  161.2645 H   0  0  0  0  0  0  0  0  0  0  0  0
  145.4031  133.5213  161.1684 H   0  0  0  0  0  0  0  0  0  0  0  0
  145.6523  134.0664  162.8041 H   0  0  0  0  0  0  0  0  0  0  0  0
  147.1576  140.4801  154.5538 H   0  0  0  0  0  0  0  0  0  0  0  0
  147.0515  142.1183  155.1332 H   0  0  0  0  0  0  0  0  0  0  0  0
  149.3674  141.6908  154.4518 H   0  0  0  0  0  0  0  0  0  0  0  0
  149.4711  140.2638  155.4612 H   0  0  0  0  0  0  0  0  0  0  0  0
  149.0894  143.0049  156.3823 H   0  0  0  0  0  0  0  0  0  0  0  0
  1  2  1  0  0  0  0
  1 31  1  0  0  0  0
  1 32  1  0  0  0  0
  1 33  1  0  0  0  0
  2  3  1  0  0  0  0
  2 34  1  0  0  0  0
  2 35  1  0  0  0  0
  3  4  1  0  0  0  0
  3 36  1  0  0  0  0
  4  5  2  0  0  0  0
  4  6  1  0  0  0  0
  6  7  1  0  0  0  0
  6 37  1  0  0  0  0
  6 38  1  0  0  0  0
  7 30  1  0  0  0  0
  7  8  1  0  0  0  0
  7 62  1  0  0  0  0
  8  9  1  0  0  0  0
  8 39  1  0  0  0  0
  8 40  1  0  0  0  0
  9 10  1  0  0  0  0
  9 41  1  0  0  0  0
  9 42  1  0  0  0  0
 10 11  1  0  0  0  0
 10 29  1  0  0  0  0
 11 16  1  0  0  0  0
 11 12  2  0  0  0  0
 12 13  1  0  0  0  0
 13 14  2  0  0  0  0
 13 43  1  0  0  0  0
 14 15  1  0  0  0  0
 15 19  1  0  0  0  0
 15 16  2  0  0  0  0
 16 17  1  0  0  0  0
 17 18  2  0  0  0  0
 18 19  1  0  0  0  0
 18 44  1  0  0  0  0
 19 20  1  0  0  0  0
 20 21  1  0  0  0  0
 20 45  1  0  0  0  0
 20 46  1  0  0  0  0
 21 28  1  0  0  0  0
 21 22  1  0  0  0  0
 21 24  1  0  0  0  0
 22 23  1  0  0  0  0
 22 47  1  0  0  0  0
 22 48  1  0  0  0  0
 23 49  1  0  0  0  0
 24 25  1  0  0  0  0
 24 50  1  0  0  0  0
 24 51  1  0  0  0  0
 25 26  1  0  0  0  0
 25 52  1  0  0  0  0
 25 53  1  0  0  0  0
 26 27  1  0  0  0  0
 27 28  1  0  0  0  0
 27 54  1  0  0  0  0
 27 55  1  0  0  0  0
 28 56  1  0  0  0  0
 28 57  1  0  0  0  0
 29 30  1  0  0  0  0
 29 58  1  0  0  0  0
 29 59  1  0  0  0  0
 30 60  1  0  0  0  0
 30 61  1  0  0  0  0
M  CHG  1   7   1
M  END
> <s_m_source_file>
AV-unprocessed.smi

> <i_m_source_file_index>
269

> <i_lp_mmshare_version>
43012

> <i_f3d_flags>
0

> <s_epik_input>
W0NIM11bQ0gyXVtOSF1DKD1PKVtDSDJdTjFbQ0gyXVtDSDJdTihbQ0gyXVtDSDJdMSljKG5bY0hdbjIpYyhjMjMpbltjSF1uM1tDSDJdQzQoW0NIMl1bT0hdKVtDSDJdW0NIMl1PW0NIMl1bQ0gyXTQ=

> <s_epik_cmdline>
J2VwaWtfcHl0aG9uJywgJy1waCcsICc3LjAnLCAnLXRuJywgJzgnLCAnLW1hJywgJzIwMCcsICctbWV0YWxfYmluZGluZycsICctaW1hZScsICc8aW5maWxlLm1hZT4nLCAnLW9tYWUnLCAnPG91dGZpbGUubWFlPic=

> <r_lp_tautomer_probability>
1

> <r_epik_Ionization_Penalty>
0.146524

> <r_epik_Ionization_Penalty_Charging>
0.146459

> <r_epik_Ionization_Penalty_Neutral>
6.45448e-05

> <r_epik_State_Penalty>
0.136576

> <r_epik_Charging_Adjusted_Penalty>
0.283035

> <i_epik_Tot_Q>
1

> <i_epik_Tot_abs_Q>
1

> <r_epik_Metal_State_Penalty>
0.148847

> <b_epik_Metal_Only>
0

> <s_lp_Force_Field>
OPLS_2005

> <r_lp_Energy>
42.6281

> <b_lp_Chiralities_Consistent>
1

> <s_lp_Variant>
AV-unprocessed.smi:269-1

> <Gold.Version>
5.8.1

> <Gold.Id.Protein>
6NUR|6NUR_protein|mol2

> <Gold.PLP.Fitness>
48.6424

> <Gold.PLP.PLP>
-38.1287

> <Gold.PLP.part.hbond>
-4.0000

> <Gold.PLP.part.metal>
0.0000

> <Gold.PLP.part.buried>
-6.2249

> <Gold.PLP.part.nonpolar>
-26.9620

> <Gold.PLP.part.repulsive>
0.2011

> <Gold.PLP.ligand.clash>
0.0000

> <Gold.PLP.ligand.torsion>
0.8111

> <Gold.PLP.Chemscore.Hbond>
3.8400

> <Gold.PLP.Chemscore.CHOScore>
0.0000

> <Gold.PLP.Chemscore.Metal>
0.0000

> <Gold.Chemscore.Hbonds>
donor molecule, donor type, donor heavy atom, donor atom, acceptor molecule, acceptor atom, score
      L1  H     7    62       P1  8028  2.00
      P1  H  6931  6943       L1    23  0.71
      P1  H  6934  6947       L1    23  0.99

> <Gold.PLP.Chemscore.Internal.Correction>
0.6160

> <Gold.Rescore>
     Score         DG    S(hbond)    S(metal)    S(lipo)     H(rot)  DE(clash)    DE(int)     intcor
      9.59     -14.22       2.24        0.00      84.52       3.37       0.26       4.37       ----

> <Gold.Chemscore.Fitness>
9.5941

> <Gold.Chemscore.DG>
-14.2203

> <Gold.Chemscore.ZeroCoef>
-5.4800

> <Gold.Chemscore.Hbond>
2.2421

> <Gold.Chemscore.Metal>
0.0000

> <Gold.Chemscore.Lipo>
84.5172

> <Gold.Chemscore.Internal_Hbond>
0.0000

> <Gold.Chemscore.DEClash>
0.2607

> <Gold.Chemscore.DEInternal>
4.3655

> <Gold.Chemscore.Rot>
3.3738

> <Gold.Chemscore.Internal.Correction>
   9.000000E+99

> <Gold.Chemscore.Hbonds>
donor molecule, donor type, donor heavy atom, donor atom, acceptor molecule, acceptor atom, score
      L1  H     7    62       P1  8028  0.99
      P1  H  6931  6943       L1    23  0.23
      P1  H  6934  6947       L1    23  0.24

> <Gold.Chemscore.Hbond.Weighted>
-7.4887

> <Gold.Chemscore.Metal.Weighted>
-0.0000

> <Gold.Chemscore.Lipo.Weighted>
-9.8885

> <Gold.Chemscore.Internal_Hbond.Weighted>
0.0000

> <Gold.Chemscore.DEClash.Weighted>
0.2607

> <Gold.Chemscore.DEInternal.Weighted>
4.3655

> <Gold.Chemscore.Rot.Weighted>
8.6369

> <Gold.Chemscore.Internal.Correction.Weighted>
   9.000000E+99

> <Gold.Protein.RotatedTorsions>
[ 6907 6896 6895 6894 ] final -151.73 input  -60.11 | X-H torsion
[ 7974 7965 7964 7962 ] final  -78.76 input  175.53 | X-H torsion
[ 8008 7997 7996 7995 ] final   47.95 input   59.86 | X-H torsion
[ 10167 10162 10161 10158 ] final  -69.18 input  -65.29 | X-H torsion
[ 10718 10713 10712 10709 ] final   61.79 input   66.30 | X-H torsion
[ 10763 10752 10751 10750 ] final  127.67 input  -60.55 | X-H torsion
[ 11005 11000 10999 10996 ] final -177.63 input  -57.11 | X-H torsion

> <Gold.Protein.ActiveResidues>
 VAL166  LYS551  ARG553  GLY616  TRP617  ASP618  TYR619  PRO620  LYS621  CYS622 
 ASP623  PHE694  ASN695  SER759  ASP760  ASP761  ALA762  ILE779  LEU786  VAL792 
 PHE793  MET794  SER795  GLU796  ALA797  LYS798  CYS799  TRP800  GLU811  SER814 

> <Gold.Protein.RotatedAtoms>
  151.2173  133.4522  159.2599 H   0  0  0  0  0  0  0  0  0  0  0  0  # atno 6907 bound_to 6896
  151.0918  134.9921  159.8417 H   0  0  0  0  0  0  0  0  0  0  0  0  # atno 6908 bound_to 6896
  152.5435  134.2106  159.8801 H   0  0  0  0  0  0  0  0  0  0  0  0  # atno 6909 bound_to 6896
  145.5822  140.9446  143.1338 H   0  0  0  0  0  0  0  0  0  0  0  0  # atno 7974 bound_to 7965
  155.3776  140.3427  155.4245 H   0  0  0  0  0  0  0  0  0  0  0  0  # atno 8008 bound_to 7997
  156.1628  140.1606  156.8616 H   0  0  0  0  0  0  0  0  0  0  0  0  # atno 8009 bound_to 7997
  154.5156  140.0779  156.8057 H   0  0  0  0  0  0  0  0  0  0  0  0  # atno 8010 bound_to 7997
  140.5451  143.2313  151.7017 H   0  0  0  0  0  0  0  0  0  0  0  0  # atno 10167 bound_to 10162
  157.5853  130.9014  149.9505 H   0  0  0  0  0  0  0  0  0  0  0  0  # atno 10718 bound_to 10713
  153.7132  135.3265  155.3251 H   0  0  0  0  0  0  0  0  0  0  0  0  # atno 10763 bound_to 10752
  154.8378  135.4482  154.1293 H   0  0  0  0  0  0  0  0  0  0  0  0  # atno 10764 bound_to 10752
  153.2392  135.6969  153.7881 H   0  0  0  0  0  0  0  0  0  0  0  0  # atno 10765 bound_to 10752
  140.4388  134.6451  157.4747 H   0  0  0  0  0  0  0  0  0  0  0  0  # atno 11005 bound_to 11000
  144.7389  139.7506  143.7318 LP  0  0  0  0  0  0  0  0  0  0  0  0  # atno 17320 bound_to 7965
  146.1708  139.4857  142.9929 LP  0  0  0  0  0  0  0  0  0  0  0  0  # atno 17321 bound_to 7965
  139.5004  144.3908  152.0282 LP  0  0  0  0  0  0  0  0  0  0  0  0  # atno 17342 bound_to 10162
  140.3020  144.3636  150.6057 LP  0  0  0  0  0  0  0  0  0  0  0  0  # atno 17343 bound_to 10162
  156.0902  130.3664  150.0410 LP  0  0  0  0  0  0  0  0  0  0  0  0  # atno 17370 bound_to 10713
  156.8542  130.9469  151.3623 LP  0  0  0  0  0  0  0  0  0  0  0  0  # atno 17371 bound_to 10713
  140.0084  134.6728  155.9419 LP  0  0  0  0  0  0  0  0  0  0  0  0  # atno 17394 bound_to 11000
  141.1714  133.6537  156.4667 LP  0  0  0  0  0  0  0  0  0  0  0  0  # atno 17395 bound_to 11000

$$$$
