AV-unprocessed.smi:811|AV-procd|sdf|3813|dock4
  -GOLD-   22720 1253D 1   1.00000     0.00000
 Structure written by MMmdl.
 46 48  0  0  0  0  0  0  0  0  2 V2000
  141.8377  134.6992  153.4879 C   0  0  0  0  0  0  0  0  0  0  0  0
  143.2034  134.2350  153.1605 N   0  3  1  0  0  0  0  0  0  0  0  0
  143.4597  134.1042  151.7035 C   0  0  0  0  0  0  0  0  0  0  0  0
  144.8060  134.7860  151.4306 C   0  0  0  0  0  0  0  0  0  0  0  0
  144.8766  135.8298  152.5376 C   0  0  2  0  0  0  0  0  0  0  0  0
  146.2294  136.3061  152.8123 N   0  0  0  0  0  0  0  0  0  0  0  0
  146.5804  137.1179  153.8202 C   0  0  0  0  0  0  0  0  0  0  0  0
  145.7854  137.5484  154.6550 O   0  0  0  0  0  0  0  0  0  0  0  0
  147.8930  137.4036  153.7761 N   0  0  0  0  0  0  0  0  0  0  0  0
  148.6493  138.2358  154.6456 C   0  0  0  0  0  0  0  0  0  0  0  0
  148.3294  138.4740  156.0036 C   0  0  0  0  0  0  0  0  0  0  0  0
  149.1698  139.3088  156.7646 C   0  0  0  0  0  0  0  0  0  0  0  0
  150.3060  139.8736  156.1505 C   0  0  0  0  0  0  0  0  0  0  0  0
  151.1437  140.7070  156.9049 N   0  0  0  0  0  0  0  0  0  0  0  0
  151.7871  140.0251  158.0211 C   0  0  0  0  0  0  0  0  0  0  0  0
  152.7799  140.9741  158.7143 C   0  0  0  0  0  0  0  0  0  0  0  0
  152.1035  142.1609  159.1205 O   0  0  0  0  0  0  0  0  0  0  0  0
  151.5378  142.8597  158.0151 C   0  0  0  0  0  0  0  0  0  0  0  0
  150.5131  141.9589  157.3045 C   0  0  0  0  0  0  0  0  0  0  0  0
  150.6258  139.6402  154.8556 N   0  0  0  0  0  0  0  0  0  0  0  0
  149.8165  138.8384  154.1322 C   0  0  0  0  0  0  0  0  0  0  0  0
  144.2770  135.0814  153.7276 C   0  0  0  0  0  0  0  0  0  0  0  0
  141.6597  135.7020  153.0970 H   0  0  0  0  0  0  0  0  0  0  0  0
  141.6896  134.7210  154.5680 H   0  0  0  0  0  0  0  0  0  0  0  0
  141.0929  134.0269  153.0610 H   0  0  0  0  0  0  0  0  0  0  0  0
  143.4620  133.0580  151.3970 H   0  0  0  0  0  0  0  0  0  0  0  0
  142.6778  134.6106  151.1349 H   0  0  0  0  0  0  0  0  0  0  0  0
  145.6175  134.0640  151.5362 H   0  0  0  0  0  0  0  0  0  0  0  0
  144.8665  135.2203  150.4322 H   0  0  0  0  0  0  0  0  0  0  0  0
  144.2107  136.6549  152.2761 H   0  0  0  0  0  0  0  0  0  0  0  0
  146.9537  136.0074  152.1755 H   0  0  0  0  0  0  0  0  0  0  0  0
  148.4012  137.0333  152.9865 H   0  0  0  0  0  0  0  0  0  0  0  0
  147.4713  138.0271  156.4804 H   0  0  0  0  0  0  0  0  0  0  0  0
  148.9463  139.5067  157.8028 H   0  0  0  0  0  0  0  0  0  0  0  0
  151.0332  139.6931  158.7362 H   0  0  0  0  0  0  0  0  0  0  0  0
  152.3066  139.1359  157.6617 H   0  0  0  0  0  0  0  0  0  0  0  0
  153.2107  140.4916  159.5915 H   0  0  0  0  0  0  0  0  0  0  0  0
  153.6077  141.2247  158.0488 H   0  0  0  0  0  0  0  0  0  0  0  0
  151.0533  143.7665  158.3772 H   0  0  0  0  0  0  0  0  0  0  0  0
  152.3251  143.1713  157.3270 H   0  0  0  0  0  0  0  0  0  0  0  0
  150.1113  142.4673  156.4269 H   0  0  0  0  0  0  0  0  0  0  0  0
  149.6750  141.7553  157.9728 H   0  0  0  0  0  0  0  0  0  0  0  0
  150.1108  138.6777  153.1051 H   0  0  0  0  0  0  0  0  0  0  0  0
  143.9231  135.7560  154.5086 H   0  0  0  0  0  0  0  0  0  0  0  0
  145.0217  134.4223  154.1770 H   0  0  0  0  0  0  0  0  0  0  0  0
  143.3069  133.3184  153.5723 H   0  0  0  0  0  0  0  0  0  0  0  0
  1  2  1  0  0  0  0
  1 23  1  0  0  0  0
  1 24  1  0  0  0  0
  1 25  1  0  0  0  0
  2 22  1  0  0  0  0
  2  3  1  0  0  0  0
  2 46  1  0  0  0  0
  3  4  1  0  0  0  0
  3 26  1  0  0  0  0
  3 27  1  0  0  0  0
  4  5  1  0  0  0  0
  4 28  1  0  0  0  0
  4 29  1  0  0  0  0
  5  6  1  0  0  0  0
  5 22  1  0  0  0  0
  5 30  1  0  0  0  0
  6  7  1  0  0  0  0
  6 31  1  0  0  0  0
  7  8  2  0  0  0  0
  7  9  1  0  0  0  0
  9 10  1  0  0  0  0
  9 32  1  0  0  0  0
 10 21  1  0  0  0  0
 10 11  2  0  0  0  0
 11 12  1  0  0  0  0
 11 33  1  0  0  0  0
 12 13  2  0  0  0  0
 12 34  1  0  0  0  0
 13 14  1  0  0  0  0
 13 20  1  0  0  0  0
 14 19  1  0  0  0  0
 14 15  1  0  0  0  0
 15 16  1  0  0  0  0
 15 35  1  0  0  0  0
 15 36  1  0  0  0  0
 16 17  1  0  0  0  0
 16 37  1  0  0  0  0
 16 38  1  0  0  0  0
 17 18  1  0  0  0  0
 18 19  1  0  0  0  0
 18 39  1  0  0  0  0
 18 40  1  0  0  0  0
 19 41  1  0  0  0  0
 19 42  1  0  0  0  0
 20 21  2  0  0  0  0
 21 43  1  0  0  0  0
 22 44  1  0  0  0  0
 22 45  1  0  0  0  0
M  CHG  1   2   1
M  END
> <s_m_source_file>
AV-unprocessed.smi

> <i_m_source_file_index>
811

> <i_lp_mmshare_version>
43012

> <i_f3d_flags>
0

> <s_epik_input>
W0NIM11OMVtDSDJdW0NIMl1bQ0BIXShbQ0gyXTEpW05IXUMoPU8pW05IXWMyW2NIXVtjSF1jKG5bY0hdMilOM1tDSDJdW0NIMl1PW0NIMl1bQ0gyXTM=

> <s_epik_cmdline>
J2VwaWtfcHl0aG9uJywgJy1waCcsICc3LjAnLCAnLXRuJywgJzgnLCAnLW1hJywgJzIwMCcsICctbWV0YWxfYmluZGluZycsICctaW1hZScsICc8aW5maWxlLm1hZT4nLCAnLW9tYWUnLCAnPG91dGZpbGUubWFlPic=

> <r_lp_tautomer_probability>
1

> <r_epik_Ionization_Penalty>
0.00503422

> <r_epik_Ionization_Penalty_Charging>
0.00366104

> <r_epik_Ionization_Penalty_Neutral>
0.00137318

> <r_epik_State_Penalty>
-0

> <r_epik_Charging_Adjusted_Penalty>
0.00366104

> <i_epik_Tot_Q>
1

> <i_epik_Tot_abs_Q>
1

> <r_epik_Metal_State_Penalty>
-0

> <b_epik_Metal_Only>
0

> <s_lp_Force_Field>
OPLS_2005

> <r_lp_Energy>
46.7377

> <b_lp_Chiralities_Consistent>
1

> <s_lp_Variant>
AV-unprocessed.smi:811-3

> <Gold.Version>
5.8.1

> <Gold.Id.Protein>
6NUR|6NUR_protein|mol2

> <Gold.PLP.Fitness>
44.7453

> <Gold.PLP.PLP>
-27.8668

> <Gold.PLP.part.hbond>
-3.9869

> <Gold.PLP.part.metal>
0.0000

> <Gold.PLP.part.buried>
-5.0038

> <Gold.PLP.part.nonpolar>
-19.4874

> <Gold.PLP.part.repulsive>
0.1885

> <Gold.PLP.ligand.clash>
0.0000

> <Gold.PLP.ligand.torsion>
0.2414

> <Gold.PLP.Chemscore.Hbond>
4.8320

> <Gold.PLP.Chemscore.CHOScore>
0.9170

> <Gold.PLP.Chemscore.Metal>
0.0000

> <Gold.Chemscore.Hbonds>
donor molecule, donor type, donor heavy atom, donor atom, acceptor molecule, acceptor atom, score
      L1  H     2    46       P1 10957  1.82
      L1  H     6    31       P1  7948  0.83
      L1  H     9    32       P1  7948  0.88
      P1  H  7989  7998       L1    20  0.86
      L1  C    21    43       P1  7948  0.01
      L1  C    21    43       P1  7957  0.99

> <Gold.PLP.Chemscore.Internal.Correction>
0.1141

> <Gold.Rescore>
     Score         DG    S(hbond)    S(metal)    S(lipo)     H(rot)  DE(clash)    DE(int)     intcor
     20.78     -21.95       3.44        0.00      69.49       1.23       0.02       1.16       ----

> <Gold.Chemscore.Fitness>
20.7751

> <Gold.Chemscore.DG>
-21.9538

> <Gold.Chemscore.ZeroCoef>
-5.4800

> <Gold.Chemscore.Hbond>
3.4404

> <Gold.Chemscore.Metal>
0.0000

> <Gold.Chemscore.Lipo>
69.4899

> <Gold.Chemscore.Internal_Hbond>
0.0000

> <Gold.Chemscore.DEClash>
0.0186

> <Gold.Chemscore.DEInternal>
1.1600

> <Gold.Chemscore.Rot>
1.2295

> <Gold.Chemscore.Internal.Correction>
   9.000000E+99

> <Gold.Chemscore.Hbonds>
donor molecule, donor type, donor heavy atom, donor atom, acceptor molecule, acceptor atom, score
      L1  H     2    46       P1 10957  0.84
      L1  H     6    31       P1  7948  0.79
      L1  H     9    32       P1  7948  0.86
      P1  H  7989  7998       L1    20  0.51

> <Gold.Chemscore.Hbond.Weighted>
-11.4909

> <Gold.Chemscore.Metal.Weighted>
-0.0000

> <Gold.Chemscore.Lipo.Weighted>
-8.1303

> <Gold.Chemscore.Internal_Hbond.Weighted>
0.0000

> <Gold.Chemscore.DEClash.Weighted>
0.0186

> <Gold.Chemscore.DEInternal.Weighted>
1.1600

> <Gold.Chemscore.Rot.Weighted>
3.1474

> <Gold.Chemscore.Internal.Correction.Weighted>
   9.000000E+99

> <Gold.Protein.RotatedTorsions>
[ 6907 6896 6895 6894 ] final   -2.53 input  -60.11 | X-H torsion
[ 7974 7965 7964 7962 ] final   49.71 input  175.53 | X-H torsion
[ 8008 7997 7996 7995 ] final   71.77 input   59.86 | X-H torsion
[ 10167 10162 10161 10158 ] final -173.97 input  -65.29 | X-H torsion
[ 10718 10713 10712 10709 ] final  171.88 input   66.30 | X-H torsion
[ 10763 10752 10751 10750 ] final   82.56 input  -60.55 | X-H torsion
[ 11005 11000 10999 10996 ] final -154.02 input  -57.11 | X-H torsion

> <Gold.Protein.ActiveResidues>
 VAL166  LYS551  ARG553  GLY616  TRP617  ASP618  TYR619  PRO620  LYS621  CYS622 
 ASP623  PHE694  ASN695  SER759  ASP760  ASP761  ALA762  ILE779  LEU786  VAL792 
 PHE793  MET794  SER795  GLU796  ALA797  LYS798  CYS799  TRP800  GLU811  SER814 

> <Gold.Protein.RotatedAtoms>
  151.5283  135.1068  159.9895 H   0  0  0  0  0  0  0  0  0  0  0  0  # atno 6907 bound_to 6896
  152.4589  133.7778  159.6844 H   0  0  0  0  0  0  0  0  0  0  0  0  # atno 6908 bound_to 6896
  150.8544  133.7673  159.3039 H   0  0  0  0  0  0  0  0  0  0  0  0  # atno 6909 bound_to 6896
  146.0082  139.4514  142.9972 H   0  0  0  0  0  0  0  0  0  0  0  0  # atno 7974 bound_to 7965
  155.7589  140.3487  155.5188 H   0  0  0  0  0  0  0  0  0  0  0  0  # atno 8008 bound_to 7997
  155.8933  140.1021  157.1424 H   0  0  0  0  0  0  0  0  0  0  0  0  # atno 8009 bound_to 7997
  154.4036  140.1300  156.4330 H   0  0  0  0  0  0  0  0  0  0  0  0  # atno 8010 bound_to 7997
  139.5659  144.1757  152.1311 H   0  0  0  0  0  0  0  0  0  0  0  0  # atno 10167 bound_to 10162
  156.9871  131.0136  151.2866 H   0  0  0  0  0  0  0  0  0  0  0  0  # atno 10718 bound_to 10713
  153.1213  135.4724  154.9200 H   0  0  0  0  0  0  0  0  0  0  0  0  # atno 10763 bound_to 10752
  154.7578  135.3123  154.8439 H   0  0  0  0  0  0  0  0  0  0  0  0  # atno 10764 bound_to 10752
  153.9002  135.6876  153.4809 H   0  0  0  0  0  0  0  0  0  0  0  0  # atno 10765 bound_to 10752
  140.7018  134.3929  157.5208 H   0  0  0  0  0  0  0  0  0  0  0  0  # atno 11005 bound_to 11000
  145.7383  141.0017  143.1315 LP  0  0  0  0  0  0  0  0  0  0  0  0  # atno 17320 bound_to 7965
  144.6943  139.9068  143.7461 LP  0  0  0  0  0  0  0  0  0  0  0  0  # atno 17321 bound_to 7965
  140.1280  144.5314  150.6820 LP  0  0  0  0  0  0  0  0  0  0  0  0  # atno 17342 bound_to 10162
  140.6942  143.2394  151.5047 LP  0  0  0  0  0  0  0  0  0  0  0  0  # atno 17343 bound_to 10162
  157.5485  130.8167  149.8116 LP  0  0  0  0  0  0  0  0  0  0  0  0  # atno 17370 bound_to 10713
  156.0222  130.3792  150.1929 LP  0  0  0  0  0  0  0  0  0  0  0  0  # atno 17371 bound_to 10713
  139.8895  134.8830  156.2420 LP  0  0  0  0  0  0  0  0  0  0  0  0  # atno 17394 bound_to 11000
  141.0157  133.7070  156.1185 LP  0  0  0  0  0  0  0  0  0  0  0  0  # atno 17395 bound_to 11000

$$$$
