AV-unprocessed.smi:101|AV-procd|sdf|925|dock8
  -GOLD-   2262017433D 1   1.00000     0.00000
 Structure written by MMmdl.
 44 46  0  0  0  0  0  0  0  0  1 V2000
  147.7250  136.1227  159.5703 C   0  0  0  0  0  0  0  0  0  0  0  0
  148.8545  136.0354  158.5571 C   0  0  0  0  0  0  0  0  0  0  0  0
  149.5978  137.1151  158.2031 C   0  0  0  0  0  0  0  0  0  0  0  0
  150.6386  137.0663  157.2832 N   0  0  0  0  0  0  0  0  0  0  0  0
  151.4598  138.2887  156.9133 C   0  0  2  0  0  0  0  0  0  0  0  0
  151.0369  139.3827  157.6744 O   0  0  0  0  0  0  0  0  0  0  0  0
  150.3213  140.2971  156.8506 C   0  0  1  0  0  0  0  0  0  0  0  0
  150.3368  141.6866  157.4948 C   0  0  0  0  0  0  0  0  0  0  0  0
  151.4597  141.7611  158.3573 O   0  0  0  0  0  0  0  0  0  0  0  0
  151.7988  142.9286  158.9340 C   0  0  0  0  0  0  0  0  0  0  0  0
  151.5870  144.0299  158.4227 O   0  0  0  0  0  0  0  0  0  0  0  0
  152.4618  142.7461  160.2577 C   0  0  0  0  0  0  0  0  0  0  0  0
  153.3457  141.6582  160.4466 C   0  0  0  0  0  0  0  0  0  0  0  0
  153.9830  141.4592  161.6869 C   0  0  0  0  0  0  0  0  0  0  0  0
  153.7452  142.3462  162.7528 C   0  0  0  0  0  0  0  0  0  0  0  0
  152.8689  143.4330  162.5772 C   0  0  0  0  0  0  0  0  0  0  0  0
  152.2300  143.6334  161.3382 C   0  0  0  0  0  0  0  0  0  0  0  0
  151.0929  140.1969  155.5387 C   0  0  2  0  0  0  0  0  0  0  0  0
  150.4014  140.7529  154.4353 O   0  0  0  0  0  0  0  0  0  0  0  0
  151.3246  138.6924  155.4231 C   0  0  2  0  0  0  0  0  0  0  0  0
  150.2536  138.0408  154.7551 O   0  0  0  0  0  0  0  0  0  0  0  0
  150.9573  135.8382  156.6687 C   0  0  0  0  0  0  0  0  0  0  0  0
  151.8585  135.7248  155.8386 O   0  0  0  0  0  0  0  0  0  0  0  0
  150.1953  134.7298  157.0322 N   0  0  0  0  0  0  0  0  0  0  0  0
  149.1433  134.7329  157.9508 C   0  0  0  0  0  0  0  0  0  0  0  0
  148.5425  133.6866  158.1895 O   0  0  0  0  0  0  0  0  0  0  0  0
  150.4219  133.8490  156.5940 H   0  0  0  0  0  0  0  0  0  0  0  0
  147.6021  137.1360  159.9542 H   0  0  0  0  0  0  0  0  0  0  0  0
  147.9233  135.4666  160.4185 H   0  0  0  0  0  0  0  0  0  0  0  0
  146.7806  135.8209  159.1163 H   0  0  0  0  0  0  0  0  0  0  0  0
  149.3535  138.0551  158.6729 H   0  0  0  0  0  0  0  0  0  0  0  0
  152.4852  138.0613  157.2109 H   0  0  0  0  0  0  0  0  0  0  0  0
  149.2967  139.9504  156.7036 H   0  0  0  0  0  0  0  0  0  0  0  0
  150.3763  142.4646  156.7311 H   0  0  0  0  0  0  0  0  0  0  0  0
  149.4296  141.8402  158.0803 H   0  0  0  0  0  0  0  0  0  0  0  0
  153.5434  140.9636  159.6430 H   0  0  0  0  0  0  0  0  0  0  0  0
  154.6547  140.6238  161.8199 H   0  0  0  0  0  0  0  0  0  0  0  0
  154.2336  142.1931  163.7038 H   0  0  0  0  0  0  0  0  0  0  0  0
  152.6851  144.1149  163.3945 H   0  0  0  0  0  0  0  0  0  0  0  0
  151.5632  144.4775  161.2383 H   0  0  0  0  0  0  0  0  0  0  0  0
  152.0544  140.7020  155.6436 H   0  0  0  0  0  0  0  0  0  0  0  0
  149.6076  140.2598  154.2963 H   0  0  0  0  0  0  0  0  0  0  0  0
  152.2515  138.4676  154.8946 H   0  0  0  0  0  0  0  0  0  0  0  0
  149.4995  138.0465  155.3247 H   0  0  0  0  0  0  0  0  0  0  0  0
  1  2  1  0  0  0  0
  1 28  1  0  0  0  0
  1 29  1  0  0  0  0
  1 30  1  0  0  0  0
  2 25  1  0  0  0  0
  2  3  2  0  0  0  0
  3  4  1  0  0  0  0
  3 31  1  0  0  0  0
  4  5  1  0  0  0  0
  4 22  1  0  0  0  0
  5 20  1  0  0  0  0
  5  6  1  0  0  0  0
  5 32  1  0  0  0  0
  6  7  1  0  0  0  0
  7  8  1  0  0  0  0
  7 18  1  0  0  0  0
  7 33  1  0  0  0  0
  8  9  1  0  0  0  0
  8 34  1  0  0  0  0
  8 35  1  0  0  0  0
  9 10  1  0  0  0  0
 10 11  2  0  0  0  0
 10 12  1  0  0  0  0
 12 17  1  0  0  0  0
 12 13  2  0  0  0  0
 13 14  1  0  0  0  0
 13 36  1  0  0  0  0
 14 15  2  0  0  0  0
 14 37  1  0  0  0  0
 15 16  1  0  0  0  0
 15 38  1  0  0  0  0
 16 17  2  0  0  0  0
 16 39  1  0  0  0  0
 17 40  1  0  0  0  0
 18 19  1  0  0  0  0
 18 20  1  0  0  0  0
 18 41  1  0  0  0  0
 19 42  1  0  0  0  0
 20 21  1  0  0  0  0
 20 43  1  0  0  0  0
 21 44  1  0  0  0  0
 22 23  2  0  0  0  0
 22 24  1  0  0  0  0
 24 27  1  0  0  0  0
 24 25  1  0  0  0  0
 25 26  2  0  0  0  0
M  END
> <s_m_source_file>
AV-unprocessed.smi

> <i_m_source_file_index>
101

> <i_lp_mmshare_version>
43012

> <i_f3d_flags>
0

> <s_epik_input>
Tz1jMVtuSF1jKD1PKW4oW2NIXWMxW0NIM10pW0NAQEhdMk9bQ0BIXShbQ0BASF0oW09IXSlbQ0BIXTJbT0hdKVtDSDJdT0MoPU8pYzNbY0hdW2NIXVtjSF1bY0hdW2NIXTM=

> <s_epik_cmdline>
J2VwaWtfcHl0aG9uJywgJy1waCcsICc3LjAnLCAnLXRuJywgJzgnLCAnLW1hJywgJzIwMCcsICctbWV0YWxfYmluZGluZycsICctaW1hZScsICc8aW5maWxlLm1hZT4nLCAnLW9tYWUnLCAnPG91dGZpbGUubWFlPic=

> <r_lp_tautomer_probability>
0.999537

> <r_epik_Ionization_Penalty>
0.00263537

> <r_epik_Ionization_Penalty_Charging>
0.00263428

> <r_epik_Ionization_Penalty_Neutral>
1.09111e-06

> <r_epik_State_Penalty>
0.00183335

> <r_epik_Charging_Adjusted_Penalty>
0.00446763

> <i_epik_Tot_Q>
0

> <i_epik_Tot_abs_Q>
0

> <r_epik_Metal_State_Penalty>
1.00528

> <b_epik_Metal_Only>
0

> <s_epik_Chemistry_Notes>
This compound has an ester and may undergo hydrolysis at high or low pH. This compound contains an acetal/aminal-like group ( X-CH(R)-Y where X, Y are N, S, or O) that may be acid/base labile, releasing an aldehyde.

> <s_lp_Force_Field>
OPLS_2005

> <r_lp_Energy>
40.9352

> <b_lp_Chiralities_Consistent>
1

> <s_lp_Variant>
AV-unprocessed.smi:101-13

> <Gold.Version>
5.8.1

> <Gold.Id.Protein>
6NUR|6NUR_protein|mol2

> <Gold.PLP.Fitness>
44.7806

> <Gold.PLP.PLP>
-41.9478

> <Gold.PLP.part.hbond>
-1.6505

> <Gold.PLP.part.metal>
0.0000

> <Gold.PLP.part.buried>
-4.9580

> <Gold.PLP.part.nonpolar>
-34.9806

> <Gold.PLP.part.repulsive>
0.2280

> <Gold.PLP.ligand.clash>
0.0000

> <Gold.PLP.ligand.torsion>
1.3902

> <Gold.PLP.Chemscore.Hbond>
1.8320

> <Gold.PLP.Chemscore.CHOScore>
0.0000

> <Gold.PLP.Chemscore.Metal>
0.0000

> <Gold.Chemscore.Hbonds>
donor molecule, donor type, donor heavy atom, donor atom, acceptor molecule, acceptor atom, score
      P1  H  7989  7998       L1    19  0.72
      P1  H 10752 10763       L1    23  1.00

> <Gold.PLP.Chemscore.Internal.Correction>
0.1172

> <Gold.Rescore>
     Score         DG    S(hbond)    S(metal)    S(lipo)     H(rot)  DE(clash)    DE(int)     intcor
     10.97     -12.89       1.33        0.00      97.95       3.32       0.30       1.62       ----

> <Gold.Chemscore.Fitness>
10.9695

> <Gold.Chemscore.DG>
-12.8934

> <Gold.Chemscore.ZeroCoef>
-5.4800

> <Gold.Chemscore.Hbond>
1.3309

> <Gold.Chemscore.Metal>
0.0000

> <Gold.Chemscore.Lipo>
97.9506

> <Gold.Chemscore.Internal_Hbond>
0.0000

> <Gold.Chemscore.DEClash>
0.2994

> <Gold.Chemscore.DEInternal>
1.6244

> <Gold.Chemscore.Rot>
3.3172

> <Gold.Chemscore.Internal.Correction>
   9.000000E+99

> <Gold.Chemscore.Hbonds>
donor molecule, donor type, donor heavy atom, donor atom, acceptor molecule, acceptor atom, score
      P1  H  7989  7998       L1    19  0.13
      P1  H 10752 10763       L1    23  0.94

> <Gold.Chemscore.Hbond.Weighted>
-4.4452

> <Gold.Chemscore.Metal.Weighted>
-0.0000

> <Gold.Chemscore.Lipo.Weighted>
-11.4602

> <Gold.Chemscore.Internal_Hbond.Weighted>
0.0000

> <Gold.Chemscore.DEClash.Weighted>
0.2994

> <Gold.Chemscore.DEInternal.Weighted>
1.6244

> <Gold.Chemscore.Rot.Weighted>
8.4920

> <Gold.Chemscore.Internal.Correction.Weighted>
   9.000000E+99

> <Gold.Protein.RotatedTorsions>
[ 6907 6896 6895 6894 ] final    4.54 input  -60.11 | X-H torsion
[ 7974 7965 7964 7962 ] final -162.24 input  175.53 | X-H torsion
[ 8008 7997 7996 7995 ] final   85.79 input   59.86 | X-H torsion
[ 10167 10162 10161 10158 ] final  160.02 input  -65.29 | X-H torsion
[ 10718 10713 10712 10709 ] final   13.74 input   66.30 | X-H torsion
[ 10763 10752 10751 10750 ] final   94.69 input  -60.55 | X-H torsion
[ 11005 11000 10999 10996 ] final  157.96 input  -57.11 | X-H torsion

> <Gold.Protein.ActiveResidues>
 VAL166  LYS551  ARG553  GLY616  TRP617  ASP618  TYR619  PRO620  LYS621  CYS622 
 ASP623  PHE694  ASN695  SER759  ASP760  ASP761  ALA762  ILE779  LEU786  VAL792 
 PHE793  MET794  SER795  GLU796  ALA797  LYS798  CYS799  TRP800  GLU811  SER814 

> <Gold.Protein.RotatedAtoms>
  151.6429  135.1010  160.0144 H   0  0  0  0  0  0  0  0  0  0  0  0  # atno 6907 bound_to 6896
  152.4044  133.6862  159.6352 H   0  0  0  0  0  0  0  0  0  0  0  0  # atno 6908 bound_to 6896
  150.7940  133.8652  159.3284 H   0  0  0  0  0  0  0  0  0  0  0  0  # atno 6909 bound_to 6896
  144.7364  140.3281  143.6158 H   0  0  0  0  0  0  0  0  0  0  0  0  # atno 7974 bound_to 7965
  155.9546  140.3398  155.6437 H   0  0  0  0  0  0  0  0  0  0  0  0  # atno 8008 bound_to 7997
  155.6877  140.0745  157.2479 H   0  0  0  0  0  0  0  0  0  0  0  0  # atno 8009 bound_to 7997
  154.4129  140.1663  156.2039 H   0  0  0  0  0  0  0  0  0  0  0  0  # atno 8010 bound_to 7997
  139.4836  144.4674  151.8622 H   0  0  0  0  0  0  0  0  0  0  0  0  # atno 10167 bound_to 10162
  157.0291  130.6185  149.5732 H   0  0  0  0  0  0  0  0  0  0  0  0  # atno 10718 bound_to 10713
  153.2446  135.4280  155.0733 H   0  0  0  0  0  0  0  0  0  0  0  0  # atno 10763 bound_to 10752
  154.8355  135.3411  154.6600 H   0  0  0  0  0  0  0  0  0  0  0  0  # atno 10764 bound_to 10752
  153.7023  135.7027  153.5116 H   0  0  0  0  0  0  0  0  0  0  0  0  # atno 10765 bound_to 10752
  140.1819  134.8469  157.2813 H   0  0  0  0  0  0  0  0  0  0  0  0  # atno 11005 bound_to 11000
  145.7499  139.1790  143.2327 LP  0  0  0  0  0  0  0  0  0  0  0  0  # atno 17320 bound_to 7965
  146.1068  140.7477  142.9522 LP  0  0  0  0  0  0  0  0  0  0  0  0  # atno 17321 bound_to 7965
  140.4141  144.2330  150.5888 LP  0  0  0  0  0  0  0  0  0  0  0  0  # atno 17342 bound_to 10162
  140.4938  143.2339  151.8780 LP  0  0  0  0  0  0  0  0  0  0  0  0  # atno 17343 bound_to 10162
  156.0076  130.5164  150.7881 LP  0  0  0  0  0  0  0  0  0  0  0  0  # atno 17370 bound_to 10713
  157.5191  131.0930  151.0101 LP  0  0  0  0  0  0  0  0  0  0  0  0  # atno 17371 bound_to 10713
  140.2257  134.3969  155.7545 LP  0  0  0  0  0  0  0  0  0  0  0  0  # atno 17394 bound_to 11000
  141.2223  133.7189  156.8561 LP  0  0  0  0  0  0  0  0  0  0  0  0  # atno 17395 bound_to 11000

$$$$
