AV-unprocessed.smi:369|AV-procd|sdf|2435|dock4
  -GOLD-   2262022373D 1   1.00000     0.00000
 Structure written by MMmdl.
 50 51  0  0  0  0  0  0  0  0  1 V2000
  148.0155  133.3681  152.0515 C   0  0  0  0  0  0  0  0  0  0  0  0
  146.5917  133.9527  152.2085 C   0  0  0  0  0  0  0  0  0  0  0  0
  146.2126  134.7083  150.9185 C   0  0  0  0  0  0  0  0  0  0  0  0
  145.5994  132.7906  152.4219 C   0  0  0  0  0  0  0  0  0  0  0  0
  146.4796  134.9303  153.4038 C   0  0  0  0  0  0  0  0  0  0  0  0
  145.6774  134.6958  154.3093 O   0  0  0  0  0  0  0  0  0  0  0  0
  147.2682  136.0190  153.4126 N   0  0  0  0  0  0  0  0  0  0  0  0
  147.3022  137.0300  154.4655 C   0  0  0  0  0  0  0  0  0  0  0  0
  148.7279  137.3587  154.9224 C   0  0  0  0  0  0  0  0  0  0  0  0
  149.0354  137.3021  156.1139 O   0  0  0  0  0  0  0  0  0  0  0  0
  149.5992  137.6696  153.9507 N   0  0  0  0  0  0  0  0  0  0  0  0
  151.0125  137.9774  154.1508 C   0  0  0  0  0  0  0  0  0  0  0  0
  151.3043  139.0368  155.2078 C   0  0  0  0  0  0  0  0  0  0  0  0
  150.5817  140.2459  155.1938 C   0  0  0  0  0  0  0  0  0  0  0  0
  150.8650  141.2291  156.1609 C   0  0  0  0  0  0  0  0  0  0  0  0
  151.8698  140.9793  157.1250 C   0  0  0  0  0  0  0  0  0  0  0  0
  152.1787  141.9551  158.0973 N   0  0  0  0  0  0  0  0  0  0  0  0
  151.5342  143.2623  157.9821 C   0  0  0  0  0  0  0  0  0  0  0  0
  152.1842  144.2683  158.9469 C   0  0  0  0  0  0  0  0  0  0  0  0
  152.1481  143.7529  160.2734 O   0  0  0  0  0  0  0  0  0  0  0  0
  152.8764  142.5351  160.3879 C   0  0  0  0  0  0  0  0  0  0  0  0
  152.2544  141.4669  159.4722 C   0  0  0  0  0  0  0  0  0  0  0  0
  152.5577  139.8113  157.1440 N   0  0  0  0  0  0  0  0  0  0  0  0
  152.2841  138.8735  156.2129 C   0  0  0  0  0  0  0  0  0  0  0  0
  148.0618  132.6711  151.2140 H   0  0  0  0  0  0  0  0  0  0  0  0
  148.3278  132.8202  152.9418 H   0  0  0  0  0  0  0  0  0  0  0  0
  148.7555  134.1464  151.8588 H   0  0  0  0  0  0  0  0  0  0  0  0
  146.8888  135.5439  150.7326 H   0  0  0  0  0  0  0  0  0  0  0  0
  145.1991  135.1092  150.9648 H   0  0  0  0  0  0  0  0  0  0  0  0
  146.2601  134.0521  150.0488 H   0  0  0  0  0  0  0  0  0  0  0  0
  145.6490  132.0742  151.6011 H   0  0  0  0  0  0  0  0  0  0  0  0
  144.5677  133.1407  152.4797 H   0  0  0  0  0  0  0  0  0  0  0  0
  145.8145  132.2463  153.3424 H   0  0  0  0  0  0  0  0  0  0  0  0
  147.9072  136.1449  152.6410 H   0  0  0  0  0  0  0  0  0  0  0  0
  146.8476  137.9419  154.0782 H   0  0  0  0  0  0  0  0  0  0  0  0
  146.6937  136.7147  155.3153 H   0  0  0  0  0  0  0  0  0  0  0  0
  149.2596  137.6899  152.9999 H   0  0  0  0  0  0  0  0  0  0  0  0
  151.5121  137.0558  154.4500 H   0  0  0  0  0  0  0  0  0  0  0  0
  151.4713  138.2789  153.2076 H   0  0  0  0  0  0  0  0  0  0  0  0
  149.8189  140.4210  154.4495 H   0  0  0  0  0  0  0  0  0  0  0  0
  150.3052  142.1524  156.1588 H   0  0  0  0  0  0  0  0  0  0  0  0
  151.6185  143.6352  156.9606 H   0  0  0  0  0  0  0  0  0  0  0  0
  150.4714  143.1638  158.2076 H   0  0  0  0  0  0  0  0  0  0  0  0
  153.2143  144.4786  158.6542 H   0  0  0  0  0  0  0  0  0  0  0  0
  151.6457  145.2157  158.9192 H   0  0  0  0  0  0  0  0  0  0  0  0
  153.9253  142.7002  160.1358 H   0  0  0  0  0  0  0  0  0  0  0  0
  152.8479  142.2020  161.4254 H   0  0  0  0  0  0  0  0  0  0  0  0
  151.2476  141.2237  159.8143 H   0  0  0  0  0  0  0  0  0  0  0  0
  152.8426  140.5532  159.5439 H   0  0  0  0  0  0  0  0  0  0  0  0
  152.8774  137.9741  156.2815 H   0  0  0  0  0  0  0  0  0  0  0  0
  1  2  1  0  0  0  0
  1 25  1  0  0  0  0
  1 26  1  0  0  0  0
  1 27  1  0  0  0  0
  2  3  1  0  0  0  0
  2  4  1  0  0  0  0
  2  5  1  0  0  0  0
  3 28  1  0  0  0  0
  3 29  1  0  0  0  0
  3 30  1  0  0  0  0
  4 31  1  0  0  0  0
  4 32  1  0  0  0  0
  4 33  1  0  0  0  0
  5  6  2  0  0  0  0
  5  7  1  0  0  0  0
  7  8  1  0  0  0  0
  7 34  1  0  0  0  0
  8  9  1  0  0  0  0
  8 35  1  0  0  0  0
  8 36  1  0  0  0  0
  9 10  2  0  0  0  0
  9 11  1  0  0  0  0
 11 12  1  0  0  0  0
 11 37  1  0  0  0  0
 12 13  1  0  0  0  0
 12 38  1  0  0  0  0
 12 39  1  0  0  0  0
 13 24  1  0  0  0  0
 13 14  2  0  0  0  0
 14 15  1  0  0  0  0
 14 40  1  0  0  0  0
 15 16  2  0  0  0  0
 15 41  1  0  0  0  0
 16 17  1  0  0  0  0
 16 23  1  0  0  0  0
 17 22  1  0  0  0  0
 17 18  1  0  0  0  0
 18 19  1  0  0  0  0
 18 42  1  0  0  0  0
 18 43  1  0  0  0  0
 19 20  1  0  0  0  0
 19 44  1  0  0  0  0
 19 45  1  0  0  0  0
 20 21  1  0  0  0  0
 21 22  1  0  0  0  0
 21 46  1  0  0  0  0
 21 47  1  0  0  0  0
 22 48  1  0  0  0  0
 22 49  1  0  0  0  0
 23 24  2  0  0  0  0
 24 50  1  0  0  0  0
M  END
> <s_m_source_file>
AV-unprocessed.smi

> <i_m_source_file_index>
369

> <i_lp_mmshare_version>
43012

> <i_f3d_flags>
0

> <s_epik_input>
W0NIM11DKFtDSDNdKShbQ0gzXSlDKD1PKVtOSF1bQ0gyXUMoPU8pW05IXVtDSDJdYzFbY0hdW2NIXWMobltjSF0xKU4yW0NIMl1bQ0gyXU9bQ0gyXVtDSDJdMg==

> <s_epik_cmdline>
J2VwaWtfcHl0aG9uJywgJy1waCcsICc3LjAnLCAnLXRuJywgJzgnLCAnLW1hJywgJzIwMCcsICctbWV0YWxfYmluZGluZycsICctaW1hZScsICc8aW5maWxlLm1hZT4nLCAnLW9tYWUnLCAnPG91dGZpbGUubWFlPic=

> <r_lp_tautomer_probability>
1

> <r_epik_Ionization_Penalty>
0.00465227

> <r_epik_Ionization_Penalty_Charging>
0

> <r_epik_Ionization_Penalty_Neutral>
0.00465227

> <r_epik_State_Penalty>
0.0033653

> <r_epik_Charging_Adjusted_Penalty>
0.0033653

> <i_epik_Tot_Q>
0

> <i_epik_Tot_abs_Q>
0

> <r_epik_Metal_State_Penalty>
-0

> <b_epik_Metal_Only>
0

> <s_lp_Force_Field>
OPLS_2005

> <r_lp_Energy>
18.739

> <b_lp_Chiralities_Consistent>
1

> <s_lp_Variant>
AV-unprocessed.smi:369-1

> <Gold.Version>
5.8.1

> <Gold.Id.Protein>
6NUR|6NUR_protein|mol2

> <Gold.PLP.Fitness>
48.5286

> <Gold.PLP.PLP>
-40.4340

> <Gold.PLP.part.hbond>
-3.0000

> <Gold.PLP.part.metal>
0.0000

> <Gold.PLP.part.buried>
-4.0599

> <Gold.PLP.part.nonpolar>
-33.6401

> <Gold.PLP.part.repulsive>
0.1324

> <Gold.PLP.ligand.clash>
0.0000

> <Gold.PLP.ligand.torsion>
0.4566

> <Gold.PLP.Chemscore.Hbond>
2.8800

> <Gold.PLP.Chemscore.CHOScore>
0.0000

> <Gold.PLP.Chemscore.Metal>
0.0000

> <Gold.Chemscore.Hbonds>
donor molecule, donor type, donor heavy atom, donor atom, acceptor molecule, acceptor atom, score
      L1  H     7    34       P1  7948  0.42
      L1  H    11    37       P1  7948  0.56
      P1  H  7997  8008       L1    23  0.96

> <Gold.PLP.Chemscore.Internal.Correction>
0.3677

> <Gold.Rescore>
     Score         DG    S(hbond)    S(metal)    S(lipo)     H(rot)  DE(clash)    DE(int)     intcor
     18.97     -20.42       2.63        0.00      98.50       2.10       0.39       1.05       ----

> <Gold.Chemscore.Fitness>
18.9724

> <Gold.Chemscore.DG>
-20.4171

> <Gold.Chemscore.ZeroCoef>
-5.4800

> <Gold.Chemscore.Hbond>
2.6336

> <Gold.Chemscore.Metal>
0.0000

> <Gold.Chemscore.Lipo>
98.4967

> <Gold.Chemscore.Internal_Hbond>
0.0000

> <Gold.Chemscore.DEClash>
0.3939

> <Gold.Chemscore.DEInternal>
1.0507

> <Gold.Chemscore.Rot>
2.1028

> <Gold.Chemscore.Internal.Correction>
   9.000000E+99

> <Gold.Chemscore.Hbonds>
donor molecule, donor type, donor heavy atom, donor atom, acceptor molecule, acceptor atom, score
      L1  H     7    34       P1  7948  0.44
      L1  H    11    37       P1  7948  0.55
      P1  H  7997  8008       L1    23  0.27

> <Gold.Chemscore.Hbond.Weighted>
-8.7961

> <Gold.Chemscore.Metal.Weighted>
-0.0000

> <Gold.Chemscore.Lipo.Weighted>
-11.5241

> <Gold.Chemscore.Internal_Hbond.Weighted>
0.0000

> <Gold.Chemscore.DEClash.Weighted>
0.3939

> <Gold.Chemscore.DEInternal.Weighted>
1.0507

> <Gold.Chemscore.Rot.Weighted>
5.3832

> <Gold.Chemscore.Internal.Correction.Weighted>
   9.000000E+99

> <Gold.Protein.RotatedTorsions>
[ 6907 6896 6895 6894 ] final -137.45 input  -60.11 | X-H torsion
[ 7974 7965 7964 7962 ] final  -35.91 input  175.53 | X-H torsion
[ 8008 7997 7996 7995 ] final  -79.48 input   59.86 | X-H torsion
[ 10167 10162 10161 10158 ] final  -46.86 input  -65.29 | X-H torsion
[ 10718 10713 10712 10709 ] final   20.47 input   66.30 | X-H torsion
[ 10763 10752 10751 10750 ] final  173.36 input  -60.55 | X-H torsion
[ 11005 11000 10999 10996 ] final -179.49 input  -57.11 | X-H torsion

> <Gold.Protein.ActiveResidues>
 VAL166  LYS551  ARG553  GLY616  TRP617  ASP618  TYR619  PRO620  LYS621  CYS622 
 ASP623  PHE694  ASN695  SER759  ASP760  ASP761  ALA762  ILE779  LEU786  VAL792 
 PHE793  MET794  SER795  GLU796  ALA797  LYS798  CYS799  TRP800  GLU811  SER814 

> <Gold.Protein.RotatedAtoms>
  151.0226  133.5862  159.2669 H   0  0  0  0  0  0  0  0  0  0  0  0  # atno 6907 bound_to 6896
  151.2973  135.0758  159.9236 H   0  0  0  0  0  0  0  0  0  0  0  0  # atno 6908 bound_to 6896
  152.5327  133.9914  159.7907 H   0  0  0  0  0  0  0  0  0  0  0  0  # atno 6909 bound_to 6896
  146.0706  140.6216  142.8954 H   0  0  0  0  0  0  0  0  0  0  0  0  # atno 7974 bound_to 7965
  154.5789  140.0678  156.9075 H   0  0  0  0  0  0  0  0  0  0  0  0  # atno 8008 bound_to 7997
  155.2498  140.3351  155.4265 H   0  0  0  0  0  0  0  0  0  0  0  0  # atno 8009 bound_to 7997
  156.2174  140.1784  156.7541 H   0  0  0  0  0  0  0  0  0  0  0  0  # atno 8010 bound_to 7997
  140.6800  143.2811  151.3843 H   0  0  0  0  0  0  0  0  0  0  0  0  # atno 10167 bound_to 10162
  157.1250  130.6566  149.5935 H   0  0  0  0  0  0  0  0  0  0  0  0  # atno 10718 bound_to 10713
  154.4390  135.2761  155.1861 H   0  0  0  0  0  0  0  0  0  0  0  0  # atno 10763 bound_to 10752
  154.3735  135.6103  153.5756 H   0  0  0  0  0  0  0  0  0  0  0  0  # atno 10764 bound_to 10752
  152.9840  135.5863  154.4714 H   0  0  0  0  0  0  0  0  0  0  0  0  # atno 10765 bound_to 10752
  140.4180  134.6631  157.4649 H   0  0  0  0  0  0  0  0  0  0  0  0  # atno 11005 bound_to 11000
  144.7229  140.4433  143.6994 LP  0  0  0  0  0  0  0  0  0  0  0  0  # atno 17320 bound_to 7965
  145.6397  139.1548  143.2922 LP  0  0  0  0  0  0  0  0  0  0  0  0  # atno 17321 bound_to 7965
  139.6116  144.1087  152.2304 LP  0  0  0  0  0  0  0  0  0  0  0  0  # atno 17342 bound_to 10162
  140.0503  144.5938  150.7341 LP  0  0  0  0  0  0  0  0  0  0  0  0  # atno 17343 bound_to 10162
  155.9820  130.4831  150.6859 LP  0  0  0  0  0  0  0  0  0  0  0  0  # atno 17370 bound_to 10713
  157.4443  131.0865  151.0912 LP  0  0  0  0  0  0  0  0  0  0  0  0  # atno 17371 bound_to 10713
  140.0220  134.6533  155.9226 LP  0  0  0  0  0  0  0  0  0  0  0  0  # atno 17394 bound_to 11000
  141.1795  133.6544  156.4963 LP  0  0  0  0  0  0  0  0  0  0  0  0  # atno 17395 bound_to 11000

$$$$
