AV-unprocessed.smi:55|AV-procd|sdf|568|dock4
  -GOLD-   2262016473D 1   1.00000     0.00000
 Structure written by MMmdl.
 31 32  0  0  0  0  0  0  0  0  1 V2000
  150.9399  143.1317  157.9763 C   0  0  0  0  0  0  0  0  0  0  0  0
  150.9831  141.8636  157.1399 C   0  0  0  0  0  0  0  0  0  0  0  0
  150.2407  141.7092  156.0140 C   0  0  0  0  0  0  0  0  0  0  0  0
  150.2554  140.5636  155.2308 N   0  0  0  0  0  0  0  0  0  0  0  0
  149.4002  140.4651  153.9874 C   0  0  1  0  0  0  0  0  0  0  0  0
  148.3835  139.3257  154.1126 C   0  0  0  0  0  0  0  0  0  0  0  0
  147.0861  140.0732  154.3571 C   0  0  2  0  0  0  0  0  0  0  0  0
  145.9814  139.3497  153.8543 O   0  0  0  0  0  0  0  0  0  0  0  0
  147.3160  141.3862  153.6047 C   0  0  1  0  0  0  0  0  0  0  0  0
  146.4581  142.5503  154.1228 C   0  0  0  0  0  0  0  0  0  0  0  0
  146.7275  142.7766  155.4899 O   0  0  0  0  0  0  0  0  0  0  0  0
  148.6942  141.6604  153.8393 O   0  0  0  0  0  0  0  0  0  0  0  0
  151.0740  139.4786  155.6098 C   0  0  0  0  0  0  0  0  0  0  0  0
  151.1273  138.4226  154.9808 O   0  0  0  0  0  0  0  0  0  0  0  0
  151.8401  139.6383  156.7634 N   0  0  0  0  0  0  0  0  0  0  0  0
  151.8599  140.7740  157.5768 C   0  0  0  0  0  0  0  0  0  0  0  0
  152.5806  140.7947  158.5732 O   0  0  0  0  0  0  0  0  0  0  0  0
  150.0656  140.3495  153.1309 H   0  0  0  0  0  0  0  0  0  0  0  0
  146.9539  140.2559  155.4242 H   0  0  0  0  0  0  0  0  0  0  0  0
  147.1641  141.2259  152.5352 H   0  0  0  0  0  0  0  0  0  0  0  0
  152.4292  138.8654  157.0364 H   0  0  0  0  0  0  0  0  0  0  0  0
  150.2663  143.8751  157.5494 H   0  0  0  0  0  0  0  0  0  0  0  0
  151.9321  143.5789  158.0427 H   0  0  0  0  0  0  0  0  0  0  0  0
  150.5956  142.9097  158.9869 H   0  0  0  0  0  0  0  0  0  0  0  0
  149.6026  142.5268  155.7135 H   0  0  0  0  0  0  0  0  0  0  0  0
  148.3574  138.7886  153.1632 H   0  0  0  0  0  0  0  0  0  0  0  0
  148.6425  138.6233  154.9063 H   0  0  0  0  0  0  0  0  0  0  0  0
  145.2879  139.9594  153.6524 H   0  0  0  0  0  0  0  0  0  0  0  0
  146.7043  143.4667  153.5857 H   0  0  0  0  0  0  0  0  0  0  0  0
  145.3954  142.3598  153.9692 H   0  0  0  0  0  0  0  0  0  0  0  0
  147.5971  143.1377  155.5695 H   0  0  0  0  0  0  0  0  0  0  0  0
  1  2  1  0  0  0  0
  1 22  1  0  0  0  0
  1 23  1  0  0  0  0
  1 24  1  0  0  0  0
  2 16  1  0  0  0  0
  2  3  2  0  0  0  0
  3  4  1  0  0  0  0
  3 25  1  0  0  0  0
  4  5  1  0  0  0  0
  4 13  1  0  0  0  0
  5 18  1  0  0  0  0
  5 12  1  0  0  0  0
  5  6  1  0  0  0  0
  6  7  1  0  0  0  0
  6 26  1  0  0  0  0
  6 27  1  0  0  0  0
  7 19  1  0  0  0  0
  7  8  1  0  0  0  0
  7  9  1  0  0  0  0
  8 28  1  0  0  0  0
  9 20  1  0  0  0  0
  9 10  1  0  0  0  0
  9 12  1  0  0  0  0
 10 11  1  0  0  0  0
 10 29  1  0  0  0  0
 10 30  1  0  0  0  0
 11 31  1  0  0  0  0
 13 14  2  0  0  0  0
 13 15  1  0  0  0  0
 15 21  1  0  0  0  0
 15 16  1  0  0  0  0
 16 17  2  0  0  0  0
M  END
> <s_m_source_file>
AV-unprocessed.smi

> <i_m_source_file_index>
55

> <i_lp_mmshare_version>
43012

> <i_f3d_flags>
0

> <s_epik_input>
Tz1jMVtuSF1jKD1PKW4oW2NIXWMxW0NIM10pW0NAQEhdMltDSDJdW0NAQEhdKFtPSF0pW0NAQEhdKE8yKVtDSDJdW09IXQ==

> <s_epik_cmdline>
J2VwaWtfcHl0aG9uJywgJy1waCcsICc3LjAnLCAnLXRuJywgJzgnLCAnLW1hJywgJzIwMCcsICctbWV0YWxfYmluZGluZycsICctaW1hZScsICc8aW5maWxlLm1hZT4nLCAnLW9tYWUnLCAnPG91dGZpbGUubWFlPic=

> <r_lp_tautomer_probability>
0.999537

> <r_epik_Ionization_Penalty>
0.00121888

> <r_epik_Ionization_Penalty_Charging>
0.00121876

> <r_epik_Ionization_Penalty_Neutral>
1.19946e-07

> <r_epik_State_Penalty>
0.000805124

> <r_epik_Charging_Adjusted_Penalty>
0.00202389

> <i_epik_Tot_Q>
0

> <i_epik_Tot_abs_Q>
0

> <r_epik_Metal_State_Penalty>
0.662472

> <b_epik_Metal_Only>
0

> <s_epik_Chemistry_Notes>
This compound contains an acetal/aminal-like group ( X-CH(R)-Y where X, Y are N, S, or O) that may be acid/base labile, releasing an aldehyde.

> <s_lp_Force_Field>
OPLS_2005

> <r_lp_Energy>
24.9253

> <b_lp_Chiralities_Consistent>
1

> <s_lp_Variant>
AV-unprocessed.smi:55-8

> <Gold.Version>
5.8.1

> <Gold.Id.Protein>
6NUR|6NUR_protein|mol2

> <Gold.PLP.Fitness>
38.6252

> <Gold.PLP.PLP>
-27.7349

> <Gold.PLP.part.hbond>
-3.0000

> <Gold.PLP.part.metal>
0.0000

> <Gold.PLP.part.buried>
-0.1215

> <Gold.PLP.part.nonpolar>
-24.2918

> <Gold.PLP.part.repulsive>
0.3815

> <Gold.PLP.ligand.clash>
0.0000

> <Gold.PLP.ligand.torsion>
0.0072

> <Gold.PLP.Chemscore.Hbond>
2.6320

> <Gold.PLP.Chemscore.CHOScore>
1.0000

> <Gold.PLP.Chemscore.Metal>
0.0000

> <Gold.Chemscore.Hbonds>
donor molecule, donor type, donor heavy atom, donor atom, acceptor molecule, acceptor atom, score
      L1  H     8    28       P1 10175  0.92
      L1  H    11    31       P1  8028  1.00
      P1  H  8011  8017       L1    12  0.56
      L1  C     3    25       P1  8028  1.00

> <Gold.PLP.Chemscore.Internal.Correction>
0.0087

> <Gold.Rescore>
     Score         DG    S(hbond)    S(metal)    S(lipo)     H(rot)  DE(clash)    DE(int)     intcor
      7.36      -8.80       1.43        0.00      47.25       2.73       0.45       0.99       ----

> <Gold.Chemscore.Fitness>
7.3583

> <Gold.Chemscore.DG>
-8.8046

> <Gold.Chemscore.ZeroCoef>
-5.4800

> <Gold.Chemscore.Hbond>
1.4292

> <Gold.Chemscore.Metal>
0.0000

> <Gold.Chemscore.Lipo>
47.2476

> <Gold.Chemscore.Internal_Hbond>
0.0000

> <Gold.Chemscore.DEClash>
0.4529

> <Gold.Chemscore.DEInternal>
0.9935

> <Gold.Chemscore.Rot>
2.7253

> <Gold.Chemscore.Internal.Correction>
   9.000000E+99

> <Gold.Chemscore.Hbonds>
donor molecule, donor type, donor heavy atom, donor atom, acceptor molecule, acceptor atom, score
      L1  H     8    28       P1 10175  0.83
      L1  H    11    31       P1  8028  0.23
      P1  H  8011  8017       L1    12  0.10

> <Gold.Chemscore.Hbond.Weighted>
-4.7735

> <Gold.Chemscore.Metal.Weighted>
-0.0000

> <Gold.Chemscore.Lipo.Weighted>
-5.5280

> <Gold.Chemscore.Internal_Hbond.Weighted>
0.0000

> <Gold.Chemscore.DEClash.Weighted>
0.4529

> <Gold.Chemscore.DEInternal.Weighted>
0.9935

> <Gold.Chemscore.Rot.Weighted>
6.9769

> <Gold.Chemscore.Internal.Correction.Weighted>
   9.000000E+99

> <Gold.Protein.RotatedTorsions>
[ 6907 6896 6895 6894 ] final   66.47 input  -60.11 | X-H torsion
[ 7974 7965 7964 7962 ] final   -1.94 input  175.53 | X-H torsion
[ 8008 7997 7996 7995 ] final  -31.08 input   59.86 | X-H torsion
[ 10167 10162 10161 10158 ] final  -27.37 input  -65.29 | X-H torsion
[ 10718 10713 10712 10709 ] final  -60.25 input   66.30 | X-H torsion
[ 10763 10752 10751 10750 ] final   51.01 input  -60.55 | X-H torsion
[ 11005 11000 10999 10996 ] final -145.83 input  -57.11 | X-H torsion

> <Gold.Protein.ActiveResidues>
 VAL166  LYS551  ARG553  GLY616  TRP617  ASP618  TYR619  PRO620  LYS621  CYS622 
 ASP623  PHE694  ASN695  SER759  ASP760  ASP761  ALA762  ILE779  LEU786  VAL792 
 PHE793  MET794  SER795  GLU796  ALA797  LYS798  CYS799  TRP800  GLU811  SER814 

> <Gold.Protein.RotatedAtoms>
  152.4483  134.5448  159.9849 H   0  0  0  0  0  0  0  0  0  0  0  0  # atno 6907 bound_to 6896
  151.5527  133.3409  159.2964 H   0  0  0  0  0  0  0  0  0  0  0  0  # atno 6908 bound_to 6896
  150.8405  134.7727  159.6991 H   0  0  0  0  0  0  0  0  0  0  0  0  # atno 6909 bound_to 6896
  146.2411  140.1496  142.8334 H   0  0  0  0  0  0  0  0  0  0  0  0  # atno 7974 bound_to 7965
  154.4226  140.1774  156.1510 H   0  0  0  0  0  0  0  0  0  0  0  0  # atno 8008 bound_to 7997
  155.9915  140.3368  155.6733 H   0  0  0  0  0  0  0  0  0  0  0  0  # atno 8009 bound_to 7997
  155.6366  140.0675  157.2623 H   0  0  0  0  0  0  0  0  0  0  0  0  # atno 8010 bound_to 7997
  140.7277  143.4099  151.1122 H   0  0  0  0  0  0  0  0  0  0  0  0  # atno 10167 bound_to 10162
  156.1003  130.4187  150.0828 H   0  0  0  0  0  0  0  0  0  0  0  0  # atno 10718 bound_to 10713
  152.9785  135.5860  154.4346 H   0  0  0  0  0  0  0  0  0  0  0  0  # atno 10763 bound_to 10752
  154.3955  135.2768  155.2130 H   0  0  0  0  0  0  0  0  0  0  0  0  # atno 10764 bound_to 10752
  154.3984  135.6109  153.5937 H   0  0  0  0  0  0  0  0  0  0  0  0  # atno 10765 bound_to 10752
  140.7882  134.2999  157.5022 H   0  0  0  0  0  0  0  0  0  0  0  0  # atno 11005 bound_to 11000
  145.0178  140.8769  143.5185 LP  0  0  0  0  0  0  0  0  0  0  0  0  # atno 17320 bound_to 7965
  145.1540  139.2497  143.5426 LP  0  0  0  0  0  0  0  0  0  0  0  0  # atno 17321 bound_to 7965
  139.7731  143.8465  152.3124 LP  0  0  0  0  0  0  0  0  0  0  0  0  # atno 17342 bound_to 10162
  139.8390  144.7219  150.9355 LP  0  0  0  0  0  0  0  0  0  0  0  0  # atno 17343 bound_to 10162
  156.8817  130.9559  151.3598 LP  0  0  0  0  0  0  0  0  0  0  0  0  # atno 17370 bound_to 10713
  157.6172  130.8628  149.9049 LP  0  0  0  0  0  0  0  0  0  0  0  0  # atno 17371 bound_to 10713
  139.8734  134.9359  156.3645 LP  0  0  0  0  0  0  0  0  0  0  0  0  # atno 17394 bound_to 11000
  140.9416  133.7511  156.0153 LP  0  0  0  0  0  0  0  0  0  0  0  0  # atno 17395 bound_to 11000

$$$$
