AV-unprocessed.smi:1770|AV-procd|sdf|7156|dock1
  -GOLD-   22720 8393D 1   1.00000     0.00000
 Structure written by MMmdl.
 38 39  0  0  0  0  0  0  0  0  2 V2000
  151.3219  137.6775  154.7309 C   0  0  0  0  0  0  0  0  0  0  0  0
  152.2284  137.1973  155.7074 O   0  0  0  0  0  0  0  0  0  0  0  0
  151.7778  137.4370  157.0332 C   0  0  0  0  0  0  0  0  0  0  0  0
  152.2255  138.8317  157.4693 C   0  0  0  0  0  0  0  0  0  0  0  0
  153.3458  138.9881  157.9531 O   0  0  0  0  0  0  0  0  0  0  0  0
  151.3306  139.8181  157.2838 N   0  0  0  0  0  0  0  0  0  0  0  0
  151.4328  141.1829  157.6710 C   0  0  0  0  0  0  0  0  0  0  0  0
  152.4894  141.6572  158.4885 C   0  0  0  0  0  0  0  0  0  0  0  0
  152.5697  143.0286  158.7997 C   0  0  0  0  0  0  0  0  0  0  0  0
  151.6005  143.9056  158.2793 C   0  0  0  0  0  0  0  0  0  0  0  0
  150.6145  143.4244  157.4933 N   0  3  0  0  0  0  0  0  0  0  0  0
  150.4858  142.1147  157.1664 C   0  0  0  0  0  0  0  0  0  0  0  0
  149.4049  141.7245  156.3507 N   0  0  0  0  0  0  0  0  0  0  0  0
  148.2979  141.0222  156.9988 C   0  0  0  0  0  0  0  0  0  0  0  0
  147.0634  140.9921  156.0808 C   0  0  0  0  0  0  0  0  0  0  0  0
  147.4129  140.4047  154.7036 C   0  0  0  0  0  0  0  0  0  0  0  0
  148.6026  141.1581  154.0863 C   0  0  0  0  0  0  0  0  0  0  0  0
  149.7995  141.1808  155.0518 C   0  0  0  0  0  0  0  0  0  0  0  0
  151.7124  137.4679  153.7350 H   0  0  0  0  0  0  0  0  0  0  0  0
  151.1828  138.7560  154.8187 H   0  0  0  0  0  0  0  0  0  0  0  0
  150.3501  137.1902  154.8216 H   0  0  0  0  0  0  0  0  0  0  0  0
  150.6896  137.3669  157.0822 H   0  0  0  0  0  0  0  0  0  0  0  0
  152.1935  136.6977  157.7198 H   0  0  0  0  0  0  0  0  0  0  0  0
  150.4236  139.5253  156.9496 H   0  0  0  0  0  0  0  0  0  0  0  0
  153.2509  140.9923  158.8671 H   0  0  0  0  0  0  0  0  0  0  0  0
  153.3695  143.4028  159.4219 H   0  0  0  0  0  0  0  0  0  0  0  0
  151.5858  144.9702  158.4631 H   0  0  0  0  0  0  0  0  0  0  0  0
  148.6064  140.0034  157.2380 H   0  0  0  0  0  0  0  0  0  0  0  0
  148.0447  141.5131  157.9393 H   0  0  0  0  0  0  0  0  0  0  0  0
  146.2660  140.4112  156.5451 H   0  0  0  0  0  0  0  0  0  0  0  0
  146.6773  142.0048  155.9569 H   0  0  0  0  0  0  0  0  0  0  0  0
  147.6627  139.3480  154.8088 H   0  0  0  0  0  0  0  0  0  0  0  0
  146.5484  140.4566  154.0411 H   0  0  0  0  0  0  0  0  0  0  0  0
  148.8925  140.6932  153.1436 H   0  0  0  0  0  0  0  0  0  0  0  0
  148.3069  142.1811  153.8488 H   0  0  0  0  0  0  0  0  0  0  0  0
  150.6134  141.7568  154.6119 H   0  0  0  0  0  0  0  0  0  0  0  0
  150.1786  140.1682  155.1969 H   0  0  0  0  0  0  0  0  0  0  0  0
  149.9250  144.0827  157.1300 H   0  0  0  0  0  0  0  0  0  0  0  0
  1  2  1  0  0  0  0
  1 19  1  0  0  0  0
  1 20  1  0  0  0  0
  1 21  1  0  0  0  0
  2  3  1  0  0  0  0
  3  4  1  0  0  0  0
  3 22  1  0  0  0  0
  3 23  1  0  0  0  0
  4  5  2  0  0  0  0
  4  6  1  0  0  0  0
  6  7  1  0  0  0  0
  6 24  1  0  0  0  0
  7 12  1  0  0  0  0
  7  8  2  0  0  0  0
  8  9  1  0  0  0  0
  8 25  1  0  0  0  0
  9 10  2  0  0  0  0
  9 26  1  0  0  0  0
 10 11  1  0  0  0  0
 10 27  1  0  0  0  0
 11 12  2  0  0  0  0
 11 38  1  0  0  0  0
 12 13  1  0  0  0  0
 13 18  1  0  0  0  0
 13 14  1  0  0  0  0
 14 15  1  0  0  0  0
 14 28  1  0  0  0  0
 14 29  1  0  0  0  0
 15 16  1  0  0  0  0
 15 30  1  0  0  0  0
 15 31  1  0  0  0  0
 16 17  1  0  0  0  0
 16 32  1  0  0  0  0
 16 33  1  0  0  0  0
 17 18  1  0  0  0  0
 17 34  1  0  0  0  0
 17 35  1  0  0  0  0
 18 36  1  0  0  0  0
 18 37  1  0  0  0  0
M  CHG  1  11   1
M  END
> <s_m_source_file>
AV-unprocessed.smi

> <i_m_source_file_index>
1770

> <i_lp_mmshare_version>
43012

> <i_f3d_flags>
0

> <s_epik_input>
W0NIM11PW0NIMl1DKD1PKVtOSF1jMVtjSF1bY0hdW2NIXW5jMU4yW0NIMl1bQ0gyXVtDSDJdW0NIMl1bQ0gyXTI=

> <s_epik_cmdline>
J2VwaWtfcHl0aG9uJywgJy1waCcsICc3LjAnLCAnLXRuJywgJzgnLCAnLW1hJywgJzIwMCcsICctbWV0YWxfYmluZGluZycsICctaW1hZScsICc8aW5maWxlLm1hZT4nLCAnLW9tYWUnLCAnPG91dGZpbGUubWFlPic=

> <r_lp_tautomer_probability>
0.999994

> <r_epik_Ionization_Penalty>
1.86196

> <r_epik_Ionization_Penalty_Charging>
1.86195

> <r_epik_Ionization_Penalty_Neutral>
2.94331e-06

> <r_epik_State_Penalty>
1.98028

> <r_epik_Charging_Adjusted_Penalty>
3.84223

> <i_epik_Tot_Q>
1

> <i_epik_Tot_abs_Q>
1

> <r_epik_Metal_State_Penalty>
2.00833

> <b_epik_Metal_Only>
0

> <s_lp_Force_Field>
OPLS_2005

> <r_lp_Energy>
28.9806

> <b_lp_Chiralities_Consistent>
1

> <s_lp_Variant>
AV-unprocessed.smi:1770-2

> <Gold.Version>
5.8.1

> <Gold.Id.Protein>
6NUR|6NUR_protein|mol2

> <Gold.PLP.Fitness>
39.5838

> <Gold.PLP.PLP>
-29.1052

> <Gold.PLP.part.hbond>
-3.0000

> <Gold.PLP.part.metal>
0.0000

> <Gold.PLP.part.buried>
-4.3884

> <Gold.PLP.part.nonpolar>
-22.0383

> <Gold.PLP.part.repulsive>
0.2984

> <Gold.PLP.ligand.clash>
0.0000

> <Gold.PLP.ligand.torsion>
0.7205

> <Gold.PLP.Chemscore.Hbond>
3.8640

> <Gold.PLP.Chemscore.CHOScore>
0.0000

> <Gold.PLP.Chemscore.Metal>
0.0000

> <Gold.Chemscore.Hbonds>
donor molecule, donor type, donor heavy atom, donor atom, acceptor molecule, acceptor atom, score
      L1  H    11    38       P1  8028  2.00
      P1  H  7997  8010       L1     5  1.00
      P1  H 10752 10765       L1     2  0.86

> <Gold.PLP.Chemscore.Internal.Correction>
0.3276

> <Gold.Rescore>
     Score         DG    S(hbond)    S(metal)    S(lipo)     H(rot)  DE(clash)    DE(int)     intcor
     17.48     -19.64       2.75        0.00      73.67       1.42       0.11       2.04       ----

> <Gold.Chemscore.Fitness>
17.4833

> <Gold.Chemscore.DG>
-19.6365

> <Gold.Chemscore.ZeroCoef>
-5.4800

> <Gold.Chemscore.Hbond>
2.7464

> <Gold.Chemscore.Metal>
0.0000

> <Gold.Chemscore.Lipo>
73.6652

> <Gold.Chemscore.Internal_Hbond>
0.0000

> <Gold.Chemscore.DEClash>
0.1119

> <Gold.Chemscore.DEInternal>
2.0413

> <Gold.Chemscore.Rot>
1.4201

> <Gold.Chemscore.Internal.Correction>
   9.000000E+99

> <Gold.Chemscore.Hbonds>
donor molecule, donor type, donor heavy atom, donor atom, acceptor molecule, acceptor atom, score
      L1  H    11    38       P1  8028  0.74
      P1  H  7997  8010       L1     5  0.95
      P1  H 10752 10765       L1     2  0.32

> <Gold.Chemscore.Hbond.Weighted>
-9.1731

> <Gold.Chemscore.Metal.Weighted>
-0.0000

> <Gold.Chemscore.Lipo.Weighted>
-8.6188

> <Gold.Chemscore.Internal_Hbond.Weighted>
0.0000

> <Gold.Chemscore.DEClash.Weighted>
0.1119

> <Gold.Chemscore.DEInternal.Weighted>
2.0413

> <Gold.Chemscore.Rot.Weighted>
3.6354

> <Gold.Chemscore.Internal.Correction.Weighted>
   9.000000E+99

> <Gold.Protein.RotatedTorsions>
[ 6907 6896 6895 6894 ] final   78.95 input  -60.11 | X-H torsion
[ 7974 7965 7964 7962 ] final  160.85 input  175.53 | X-H torsion
[ 8008 7997 7996 7995 ] final   15.84 input   59.86 | X-H torsion
[ 10167 10162 10161 10158 ] final   41.85 input  -65.29 | X-H torsion
[ 10718 10713 10712 10709 ] final  153.68 input   66.30 | X-H torsion
[ 10763 10752 10751 10750 ] final -165.89 input  -60.55 | X-H torsion
[ 11005 11000 10999 10996 ] final  -26.67 input  -57.11 | X-H torsion

> <Gold.Protein.ActiveResidues>
 VAL166  LYS551  ARG553  GLY616  TRP617  ASP618  TYR619  PRO620  LYS621  CYS622 
 ASP623  PHE694  ASN695  SER759  ASP760  ASP761  ALA762  ILE779  LEU786  VAL792 
 PHE793  MET794  SER795  GLU796  ALA797  LYS798  CYS799  TRP800  GLU811  SER814 

> <Gold.Protein.RotatedAtoms>
  152.5180  134.3585  159.9276 H   0  0  0  0  0  0  0  0  0  0  0  0  # atno 6907 bound_to 6896
  151.3537  133.3909  159.2690 H   0  0  0  0  0  0  0  0  0  0  0  0  # atno 6908 bound_to 6896
  150.9707  134.9099  159.7844 H   0  0  0  0  0  0  0  0  0  0  0  0  # atno 6909 bound_to 6896
  144.7715  139.7816  143.6295 H   0  0  0  0  0  0  0  0  0  0  0  0  # atno 7974 bound_to 7965
  154.8684  140.2955  155.5496 H   0  0  0  0  0  0  0  0  0  0  0  0  # atno 8008 bound_to 7997
  156.3021  140.2465  156.3603 H   0  0  0  0  0  0  0  0  0  0  0  0  # atno 8009 bound_to 7997
  154.8843  140.0397  157.1790 H   0  0  0  0  0  0  0  0  0  0  0  0  # atno 8010 bound_to 7997
  140.3603  144.2237  150.6138 H   0  0  0  0  0  0  0  0  0  0  0  0  # atno 10167 bound_to 10162
  157.2416  131.0760  151.1788 H   0  0  0  0  0  0  0  0  0  0  0  0  # atno 10718 bound_to 10713
  154.6887  135.2967  154.9511 H   0  0  0  0  0  0  0  0  0  0  0  0  # atno 10763 bound_to 10752
  154.0481  135.6648  153.4801 H   0  0  0  0  0  0  0  0  0  0  0  0  # atno 10764 bound_to 10752
  153.0597  135.5123  154.7968 H   0  0  0  0  0  0  0  0  0  0  0  0  # atno 10765 bound_to 10752
  140.9050  133.7498  156.0594 H   0  0  0  0  0  0  0  0  0  0  0  0  # atno 11005 bound_to 11000
  146.1865  139.5083  142.9832 LP  0  0  0  0  0  0  0  0  0  0  0  0  # atno 17320 bound_to 7965
  145.6309  141.0304  143.1864 LP  0  0  0  0  0  0  0  0  0  0  0  0  # atno 17321 bound_to 7965
  140.5134  143.2284  151.8501 LP  0  0  0  0  0  0  0  0  0  0  0  0  # atno 17342 bound_to 10162
  139.4815  144.4923  151.9169 LP  0  0  0  0  0  0  0  0  0  0  0  0  # atno 17343 bound_to 10162
  157.3373  130.7015  149.6360 LP  0  0  0  0  0  0  0  0  0  0  0  0  # atno 17370 bound_to 10713
  155.9670  130.4290  150.4814 LP  0  0  0  0  0  0  0  0  0  0  0  0  # atno 17371 bound_to 10713
  140.8182  134.3320  157.5390 LP  0  0  0  0  0  0  0  0  0  0  0  0  # atno 17394 bound_to 11000
  139.8748  134.9294  156.3475 LP  0  0  0  0  0  0  0  0  0  0  0  0  # atno 17395 bound_to 11000

$$$$
