AV-unprocessed.smi:576|AV-procd|sdf|2979|dock10
  -GOLD-   2262023493D 1   1.00000     0.00000
 Structure written by MMmdl.
 35 36  0  0  0  0  0  0  0  0  1 V2000
  146.5038  142.0368  153.9940 C   0  0  0  0  0  0  0  0  0  0  0  0
  147.0581  141.5992  155.3570 C   0  0  1  0  0  0  0  0  0  0  0  0
  148.4509  142.0236  155.4525 N   0  0  0  0  0  0  0  0  0  0  0  0
  149.4894  141.2264  155.7464 C   0  0  0  0  0  0  0  0  0  0  0  0
  149.3786  140.0154  155.9429 O   0  0  0  0  0  0  0  0  0  0  0  0
  150.8638  141.9075  155.8075 C   0  0  0  0  0  0  0  0  0  0  0  0
  151.4318  141.9421  157.1657 N   0  0  0  0  0  0  0  0  0  0  0  0
  151.2176  143.1106  157.9231 C   0  0  0  0  0  0  0  0  0  0  0  0
  151.7000  143.2747  159.1699 C   0  0  0  0  0  0  0  0  0  0  0  0
  151.4088  144.5282  159.9804 C   0  0  0  0  0  0  0  0  0  0  0  0
  151.9265  144.4400  161.2059 F   0  0  0  0  0  0  0  0  0  0  0  0
  151.9425  145.5905  159.3793 F   0  0  0  0  0  0  0  0  0  0  0  0
  150.0960  144.7322  160.0944 F   0  0  0  0  0  0  0  0  0  0  0  0
  152.4379  142.1585  159.7284 C   0  0  0  0  0  0  0  0  0  0  0  0
  152.6465  141.0314  159.0199 C   0  0  0  0  0  0  0  0  0  0  0  0
  152.1371  140.8783  157.6552 C   0  0  0  0  0  0  0  0  0  0  0  0
  152.3303  139.8575  156.9943 O   0  0  0  0  0  0  0  0  0  0  0  0
  146.1893  142.1234  156.4884 C   0  0  0  0  0  0  0  0  0  0  0  0
  144.7380  141.7243  156.6183 C   0  0  0  0  0  0  0  0  0  0  0  0
  145.1016  143.1380  156.2262 C   0  0  0  0  0  0  0  0  0  0  0  0
  145.4782  141.6922  153.8585 H   0  0  0  0  0  0  0  0  0  0  0  0
  147.0973  141.6263  153.1763 H   0  0  0  0  0  0  0  0  0  0  0  0
  146.5044  143.1230  153.8951 H   0  0  0  0  0  0  0  0  0  0  0  0
  147.0257  140.5081  155.3840 H   0  0  0  0  0  0  0  0  0  0  0  0
  148.6373  143.0041  155.2992 H   0  0  0  0  0  0  0  0  0  0  0  0
  151.5318  141.3828  155.1233 H   0  0  0  0  0  0  0  0  0  0  0  0
  150.7875  142.9213  155.4094 H   0  0  0  0  0  0  0  0  0  0  0  0
  150.6379  143.8718  157.4214 H   0  0  0  0  0  0  0  0  0  0  0  0
  152.8349  142.2282  160.7304 H   0  0  0  0  0  0  0  0  0  0  0  0
  153.2032  140.2206  159.4666 H   0  0  0  0  0  0  0  0  0  0  0  0
  146.7298  142.2524  157.4247 H   0  0  0  0  0  0  0  0  0  0  0  0
  144.3133  141.0854  155.8466 H   0  0  0  0  0  0  0  0  0  0  0  0
  144.3515  141.5620  157.6225 H   0  0  0  0  0  0  0  0  0  0  0  0
  144.9557  143.9203  156.9684 H   0  0  0  0  0  0  0  0  0  0  0  0
  144.9206  143.4336  155.1946 H   0  0  0  0  0  0  0  0  0  0  0  0
  1  2  1  0  0  0  0
  1 21  1  0  0  0  0
  1 22  1  0  0  0  0
  1 23  1  0  0  0  0
  2  3  1  0  0  0  0
  2 18  1  0  0  0  0
  2 24  1  0  0  0  0
  3  4  1  0  0  0  0
  3 25  1  0  0  0  0
  4  5  2  0  0  0  0
  4  6  1  0  0  0  0
  6  7  1  0  0  0  0
  6 26  1  0  0  0  0
  6 27  1  0  0  0  0
  7 16  1  0  0  0  0
  7  8  1  0  0  0  0
  8  9  2  0  0  0  0
  8 28  1  0  0  0  0
  9 10  1  0  0  0  0
  9 14  1  0  0  0  0
 10 11  1  0  0  0  0
 10 12  1  0  0  0  0
 10 13  1  0  0  0  0
 14 15  2  0  0  0  0
 14 29  1  0  0  0  0
 15 16  1  0  0  0  0
 15 30  1  0  0  0  0
 16 17  2  0  0  0  0
 18 20  1  0  0  0  0
 18 19  1  0  0  0  0
 18 31  1  0  0  0  0
 19 20  1  0  0  0  0
 19 32  1  0  0  0  0
 19 33  1  0  0  0  0
 20 34  1  0  0  0  0
 20 35  1  0  0  0  0
M  END
> <s_m_source_file>
AV-unprocessed.smi

> <i_m_source_file_index>
576

> <i_lp_mmshare_version>
43012

> <i_f3d_flags>
0

> <s_epik_input>
W0NIMl0xW0NIMl1bQ0hdMVtDQEhdKFtDSDNdKVtOSF1DKD1PKVtDSDJdbjJbY0hdYyhDKEYpKEYpRilbY0hdW2NIXWMyPU8=

> <s_epik_cmdline>
J2VwaWtfcHl0aG9uJywgJy1waCcsICc3LjAnLCAnLXRuJywgJzgnLCAnLW1hJywgJzIwMCcsICctbWV0YWxfYmluZGluZycsICctaW1hZScsICc8aW5maWxlLm1hZT4nLCAnLW9tYWUnLCAnPG91dGZpbGUubWFlPic=

> <r_lp_tautomer_probability>
1

> <r_epik_Ionization_Penalty>
3.84201e-08

> <r_epik_Ionization_Penalty_Charging>
1.91184e-08

> <r_epik_Ionization_Penalty_Neutral>
1.93017e-08

> <r_epik_State_Penalty>
-0

> <r_epik_Charging_Adjusted_Penalty>
1.91184e-08

> <i_epik_Tot_Q>
0

> <i_epik_Tot_abs_Q>
0

> <r_epik_Metal_State_Penalty>
-0

> <b_epik_Metal_Only>
0

> <s_lp_Force_Field>
OPLS_2005

> <r_lp_Energy>
24.3329

> <b_lp_Chiralities_Consistent>
1

> <s_lp_Variant>
AV-unprocessed.smi:576-2

> <Gold.Version>
5.8.1

> <Gold.Id.Protein>
6NUR|6NUR_protein|mol2

> <Gold.PLP.Fitness>
46.5336

> <Gold.PLP.PLP>
-39.4490

> <Gold.PLP.part.hbond>
-2.0000

> <Gold.PLP.part.metal>
0.0000

> <Gold.PLP.part.buried>
-5.2545

> <Gold.PLP.part.nonpolar>
-31.4753

> <Gold.PLP.part.repulsive>
0.1401

> <Gold.PLP.ligand.clash>
0.0000

> <Gold.PLP.ligand.torsion>
1.2138

> <Gold.PLP.Chemscore.Hbond>
1.9913

> <Gold.PLP.Chemscore.CHOScore>
0.8049

> <Gold.PLP.Chemscore.Metal>
0.0000

> <Gold.Chemscore.Hbonds>
donor molecule, donor type, donor heavy atom, donor atom, acceptor molecule, acceptor atom, score
      L1  H     3    25       P1  8028  1.00
      P1  H  7997  8010       L1    17  0.86
      L1  C     8    28       P1  8028  0.82

> <Gold.PLP.Chemscore.Internal.Correction>
1.1237

> <Gold.Rescore>
     Score         DG    S(hbond)    S(metal)    S(lipo)     H(rot)  DE(clash)    DE(int)     intcor
     13.96     -15.94       1.90        0.00      73.82       1.77       0.79       1.19       ----

> <Gold.Chemscore.Fitness>
13.9577

> <Gold.Chemscore.DG>
-15.9353

> <Gold.Chemscore.ZeroCoef>
-5.4800

> <Gold.Chemscore.Hbond>
1.8974

> <Gold.Chemscore.Metal>
0.0000

> <Gold.Chemscore.Lipo>
73.8226

> <Gold.Chemscore.Internal_Hbond>
0.0000

> <Gold.Chemscore.DEClash>
0.7869

> <Gold.Chemscore.DEInternal>
1.1907

> <Gold.Chemscore.Rot>
1.7653

> <Gold.Chemscore.Internal.Correction>
   9.000000E+99

> <Gold.Chemscore.Hbonds>
donor molecule, donor type, donor heavy atom, donor atom, acceptor molecule, acceptor atom, score
      L1  H     3    25       P1  8028  1.00
      P1  H  7997  8010       L1    17  0.21

> <Gold.Chemscore.Hbond.Weighted>
-6.3372

> <Gold.Chemscore.Metal.Weighted>
-0.0000

> <Gold.Chemscore.Lipo.Weighted>
-8.6372

> <Gold.Chemscore.Internal_Hbond.Weighted>
0.0000

> <Gold.Chemscore.DEClash.Weighted>
0.7869

> <Gold.Chemscore.DEInternal.Weighted>
1.1907

> <Gold.Chemscore.Rot.Weighted>
4.5191

> <Gold.Chemscore.Internal.Correction.Weighted>
   9.000000E+99

> <Gold.Protein.RotatedTorsions>
[ 6907 6896 6895 6894 ] final    3.65 input  -60.11 | X-H torsion
[ 7974 7965 7964 7962 ] final   72.72 input  175.53 | X-H torsion
[ 8008 7997 7996 7995 ] final   69.47 input   59.86 | X-H torsion
[ 10167 10162 10161 10158 ] final -154.22 input  -65.29 | X-H torsion
[ 10718 10713 10712 10709 ] final  -25.24 input   66.30 | X-H torsion
[ 10763 10752 10751 10750 ] final  -84.01 input  -60.55 | X-H torsion
[ 11005 11000 10999 10996 ] final  178.40 input  -57.11 | X-H torsion

> <Gold.Protein.ActiveResidues>
 VAL166  LYS551  ARG553  GLY616  TRP617  ASP618  TYR619  PRO620  LYS621  CYS622 
 ASP623  PHE694  ASN695  SER759  ASP760  ASP761  ALA762  ILE779  LEU786  VAL792 
 PHE793  MET794  SER795  GLU796  ALA797  LYS798  CYS799  TRP800  GLU811  SER814 

> <Gold.Protein.RotatedAtoms>
  151.6285  135.1025  160.0116 H   0  0  0  0  0  0  0  0  0  0  0  0  # atno 6907 bound_to 6896
  152.4119  133.6973  159.6414 H   0  0  0  0  0  0  0  0  0  0  0  0  # atno 6908 bound_to 6896
  150.8009  133.8525  159.3250 H   0  0  0  0  0  0  0  0  0  0  0  0  # atno 6909 bound_to 6896
  145.7499  139.2755  143.1437 H   0  0  0  0  0  0  0  0  0  0  0  0  # atno 7974 bound_to 7965
  155.7241  140.3493  155.5029 H   0  0  0  0  0  0  0  0  0  0  0  0  # atno 8008 bound_to 7997
  155.9242  140.1072  157.1204 H   0  0  0  0  0  0  0  0  0  0  0  0  # atno 8009 bound_to 7997
  154.4074  140.1243  156.4706 H   0  0  0  0  0  0  0  0  0  0  0  0  # atno 8010 bound_to 7997
  139.7031  143.9230  152.2437 H   0  0  0  0  0  0  0  0  0  0  0  0  # atno 10167 bound_to 10162
  156.4670  130.4516  149.6892 H   0  0  0  0  0  0  0  0  0  0  0  0  # atno 10718 bound_to 10713
  154.5945  135.5536  153.7311 H   0  0  0  0  0  0  0  0  0  0  0  0  # atno 10763 bound_to 10752
  153.0130  135.6351  154.1802 H   0  0  0  0  0  0  0  0  0  0  0  0  # atno 10764 bound_to 10752
  154.1743  135.2890  155.3051 H   0  0  0  0  0  0  0  0  0  0  0  0  # atno 10765 bound_to 10752
  140.3947  134.6830  157.4528 H   0  0  0  0  0  0  0  0  0  0  0  0  # atno 11005 bound_to 11000
  146.0367  140.8205  142.9849 LP  0  0  0  0  0  0  0  0  0  0  0  0  # atno 17320 bound_to 7965
  144.6852  140.2849  143.7287 LP  0  0  0  0  0  0  0  0  0  0  0  0  # atno 17321 bound_to 7965
  139.9078  144.6874  150.8595 LP  0  0  0  0  0  0  0  0  0  0  0  0  # atno 17342 bound_to 10162
  140.7715  143.3465  151.2100 LP  0  0  0  0  0  0  0  0  0  0  0  0  # atno 17343 bound_to 10162
  156.3657  130.7504  151.2482 LP  0  0  0  0  0  0  0  0  0  0  0  0  # atno 17370 bound_to 10713
  157.7494  131.0337  150.4286 LP  0  0  0  0  0  0  0  0  0  0  0  0  # atno 17371 bound_to 10713
  140.0380  134.6309  155.9018 LP  0  0  0  0  0  0  0  0  0  0  0  0  # atno 17394 bound_to 11000
  141.1878  133.6561  156.5298 LP  0  0  0  0  0  0  0  0  0  0  0  0  # atno 17395 bound_to 11000

$$$$
