AV-unprocessed.smi:2708|AV-procd|sdf|10459|dock8
  -GOLD-   2272014503D 1   1.00000     0.00000
 Structure written by MMmdl.
 35 35  0  0  0  0  0  0  0  0  2 V2000
  146.7435  134.2751  161.9901 C   0  0  0  0  0  0  0  0  0  0  0  0
  147.6970  134.9456  160.9860 C   0  0  1  0  0  0  0  0  0  0  0  0
  147.1727  134.7215  159.6406 N   0  0  0  0  0  0  0  0  0  0  0  0
  147.8431  134.1618  158.6204 C   0  0  0  0  0  0  0  0  0  0  0  0
  149.0000  133.7496  158.7076 O   0  0  0  0  0  0  0  0  0  0  0  0
  147.0866  134.0427  157.2969 C   0  0  0  0  0  0  0  0  0  0  0  0
  147.9872  133.4760  156.2383 C   0  0  0  0  0  0  0  0  0  0  0  0
  148.4403  134.1176  155.1134 C   0  0  0  0  0  0  0  0  0  0  0  0
  149.4778  133.0968  154.1581 S   0  0  0  0  0  0  0  0  0  0  0  0
  149.2555  131.7995  155.3379 C   0  0  0  0  0  0  0  0  0  0  0  0
  149.8994  130.4362  155.2597 C   0  0  0  0  0  0  0  0  0  0  0  0
  149.4637  129.5851  156.4682 C   0  0  0  0  0  0  0  0  0  0  0  0
  151.4398  130.5407  155.2896 C   0  0  0  0  0  0  0  0  0  0  0  0
  149.5063  129.7458  153.9392 C   0  0  0  0  0  0  0  0  0  0  0  0
  148.4516  132.1610  156.3442 N   0  0  0  0  0  0  0  0  0  0  0  0
  147.7514  136.4501  161.2958 C   0  0  0  0  0  0  0  0  0  0  0  0
  148.2279  136.7824  162.4032 O   0  0  0  0  0  0  0  0  0  0  0  0
  147.3142  137.2413  160.4297 O   0  5  0  0  0  0  0  0  0  0  0  0
  148.6930  134.5086  161.0811 H   0  0  0  0  0  0  0  0  0  0  0  0
  147.0803  134.4260  163.0165 H   0  0  0  0  0  0  0  0  0  0  0  0
  146.6957  133.1991  161.8191 H   0  0  0  0  0  0  0  0  0  0  0  0
  145.7273  134.6652  161.9119 H   0  0  0  0  0  0  0  0  0  0  0  0
  146.2299  135.0380  159.4676 H   0  0  0  0  0  0  0  0  0  0  0  0
  146.2047  133.4156  157.4350 H   0  0  0  0  0  0  0  0  0  0  0  0
  146.7200  135.0274  157.0042 H   0  0  0  0  0  0  0  0  0  0  0  0
  148.2325  135.1282  154.7949 H   0  0  0  0  0  0  0  0  0  0  0  0
  149.9264  128.5979  156.4482 H   0  0  0  0  0  0  0  0  0  0  0  0
  148.3831  129.4369  156.4845 H   0  0  0  0  0  0  0  0  0  0  0  0
  149.7431  130.0612  157.4088 H   0  0  0  0  0  0  0  0  0  0  0  0
  151.7947  131.0032  156.2114 H   0  0  0  0  0  0  0  0  0  0  0  0
  151.8192  131.1294  154.4533 H   0  0  0  0  0  0  0  0  0  0  0  0
  151.9051  129.5563  155.2263 H   0  0  0  0  0  0  0  0  0  0  0  0
  149.9722  128.7639  153.8490 H   0  0  0  0  0  0  0  0  0  0  0  0
  149.8130  130.3375  153.0757 H   0  0  0  0  0  0  0  0  0  0  0  0
  148.4277  129.5990  153.8704 H   0  0  0  0  0  0  0  0  0  0  0  0
  1  2  1  0  0  0  0
  1 20  1  0  0  0  0
  1 21  1  0  0  0  0
  1 22  1  0  0  0  0
  2 19  1  0  0  0  0
  2  3  1  0  0  0  0
  2 16  1  0  0  0  0
  3  4  1  0  0  0  0
  3 23  1  0  0  0  0
  4  5  2  0  0  0  0
  4  6  1  0  0  0  0
  6  7  1  0  0  0  0
  6 24  1  0  0  0  0
  6 25  1  0  0  0  0
  7 15  1  0  0  0  0
  7  8  2  0  0  0  0
  8  9  1  0  0  0  0
  8 26  1  0  0  0  0
  9 10  1  0  0  0  0
 10 11  1  0  0  0  0
 10 15  2  0  0  0  0
 11 12  1  0  0  0  0
 11 13  1  0  0  0  0
 11 14  1  0  0  0  0
 12 27  1  0  0  0  0
 12 28  1  0  0  0  0
 12 29  1  0  0  0  0
 13 30  1  0  0  0  0
 13 31  1  0  0  0  0
 13 32  1  0  0  0  0
 14 33  1  0  0  0  0
 14 34  1  0  0  0  0
 14 35  1  0  0  0  0
 16 17  2  0  0  0  0
 16 18  1  0  0  0  0
M  CHG  1  18  -1
M  END
> <s_m_source_file>
AV-unprocessed.smi

> <i_m_source_file_index>
2708

> <i_lp_mmshare_version>
43012

> <i_f3d_flags>
0

> <s_epik_input>
Tz1DKFtPSF0pW0NASF0oW0NIM10pW05IXUMoPU8pW0NIMl1jMVtjSF1zYyhuMSlDKFtDSDNdKShbQ0gzXSlbQ0gzXQ==

> <s_epik_cmdline>
J2VwaWtfcHl0aG9uJywgJy1waCcsICc3LjAnLCAnLXRuJywgJzgnLCAnLW1hJywgJzIwMCcsICctbWV0YWxfYmluZGluZycsICctaW1hZScsICc8aW5maWxlLm1hZT4nLCAnLW9tYWUnLCAnPG91dGZpbGUubWFlPic=

> <r_lp_tautomer_probability>
1

> <r_epik_Ionization_Penalty>
0.000214174

> <r_epik_Ionization_Penalty_Charging>
0.000167453

> <r_epik_Ionization_Penalty_Neutral>
4.67216e-05

> <r_epik_State_Penalty>
-0

> <r_epik_Charging_Adjusted_Penalty>
0.000167453

> <i_epik_Tot_Q>
-1

> <i_epik_Tot_abs_Q>
1

> <r_epik_Metal_State_Penalty>
-0

> <b_epik_Metal_Only>
0

> <s_lp_Force_Field>
OPLS_2005

> <r_lp_Energy>
-5.21837

> <b_lp_Chiralities_Consistent>
1

> <s_lp_Variant>
AV-unprocessed.smi:2708-2

> <Gold.Version>
5.8.1

> <Gold.Id.Protein>
6NUR|6NUR_protein|mol2

> <Gold.PLP.Fitness>
38.6861

> <Gold.PLP.PLP>
-23.8559

> <Gold.PLP.part.hbond>
-3.1948

> <Gold.PLP.part.metal>
0.0000

> <Gold.PLP.part.buried>
-3.1287

> <Gold.PLP.part.nonpolar>
-17.9315

> <Gold.PLP.part.repulsive>
0.0322

> <Gold.PLP.ligand.clash>
0.0000

> <Gold.PLP.ligand.torsion>
0.0998

> <Gold.PLP.Chemscore.Hbond>
5.0000

> <Gold.PLP.Chemscore.CHOScore>
0.0000

> <Gold.PLP.Chemscore.Metal>
0.0000

> <Gold.Chemscore.Hbonds>
donor molecule, donor type, donor heavy atom, donor atom, acceptor molecule, acceptor atom, score
      P1  H  6896  6908       L1     5  1.00
      P1  H  6931  6943       L1    17  2.00
      P1  H  6934  6947       L1    18  2.00

> <Gold.PLP.Chemscore.Internal.Correction>
0.0299

> <Gold.Rescore>
     Score         DG    S(hbond)    S(metal)    S(lipo)     H(rot)  DE(clash)    DE(int)     intcor
     12.57     -14.20       2.65        0.00      48.13       2.25       0.00       1.63       ----

> <Gold.Chemscore.Fitness>
12.5674

> <Gold.Chemscore.DG>
-14.1996

> <Gold.Chemscore.ZeroCoef>
-5.4800

> <Gold.Chemscore.Hbond>
2.6475

> <Gold.Chemscore.Metal>
0.0000

> <Gold.Chemscore.Lipo>
48.1319

> <Gold.Chemscore.Internal_Hbond>
0.0000

> <Gold.Chemscore.DEClash>
0.0000

> <Gold.Chemscore.DEInternal>
1.6322

> <Gold.Chemscore.Rot>
2.2478

> <Gold.Chemscore.Internal.Correction>
   9.000000E+99

> <Gold.Chemscore.Hbonds>
donor molecule, donor type, donor heavy atom, donor atom, acceptor molecule, acceptor atom, score
      P1  H  6896  6908       L1     5  0.98
      P1  H  6931  6943       L1    17  0.25
      P1  H  6934  6947       L1    18  0.93

> <Gold.Chemscore.Hbond.Weighted>
-8.8426

> <Gold.Chemscore.Metal.Weighted>
-0.0000

> <Gold.Chemscore.Lipo.Weighted>
-5.6314

> <Gold.Chemscore.Internal_Hbond.Weighted>
0.0000

> <Gold.Chemscore.DEClash.Weighted>
0.0000

> <Gold.Chemscore.DEInternal.Weighted>
1.6322

> <Gold.Chemscore.Rot.Weighted>
5.7544

> <Gold.Chemscore.Internal.Correction.Weighted>
   9.000000E+99

> <Gold.Protein.RotatedTorsions>
[ 6907 6896 6895 6894 ] final  121.98 input  -60.11 | X-H torsion
[ 7974 7965 7964 7962 ] final   78.48 input  175.53 | X-H torsion
[ 8008 7997 7996 7995 ] final   16.67 input   59.86 | X-H torsion
[ 10167 10162 10161 10158 ] final  107.81 input  -65.29 | X-H torsion
[ 10718 10713 10712 10709 ] final  -42.40 input   66.30 | X-H torsion
[ 10763 10752 10751 10750 ] final   78.71 input  -60.55 | X-H torsion
[ 11005 11000 10999 10996 ] final  -50.57 input  -57.11 | X-H torsion

> <Gold.Protein.ActiveResidues>
 VAL166  LYS551  ARG553  GLY616  TRP617  ASP618  TYR619  PRO620  LYS621  CYS622 
 ASP623  PHE694  ASN695  SER759  ASP760  ASP761  ALA762  ILE779  LEU786  VAL792 
 PHE793  MET794  SER795  GLU796  ALA797  LYS798  CYS799  TRP800  GLU811  SER814 

> <Gold.Protein.RotatedAtoms>
  152.4279  133.7227  159.6542 H   0  0  0  0  0  0  0  0  0  0  0  0  # atno 6907 bound_to 6896
  150.8157  133.8331  159.3168 H   0  0  0  0  0  0  0  0  0  0  0  0  # atno 6908 bound_to 6896
  151.6028  135.1048  160.0115 H   0  0  0  0  0  0  0  0  0  0  0  0  # atno 6909 bound_to 6896
  145.6766  139.2511  143.1838 H   0  0  0  0  0  0  0  0  0  0  0  0  # atno 7974 bound_to 7965
  154.8803  140.2972  155.5429 H   0  0  0  0  0  0  0  0  0  0  0  0  # atno 8008 bound_to 7997
  156.3022  140.2443  156.3738 H   0  0  0  0  0  0  0  0  0  0  0  0  # atno 8009 bound_to 7997
  154.8724  140.0401  157.1721 H   0  0  0  0  0  0  0  0  0  0  0  0  # atno 8010 bound_to 7997
  139.6897  144.7109  151.1370 H   0  0  0  0  0  0  0  0  0  0  0  0  # atno 10167 bound_to 10162
  156.2600  130.4196  149.8552 H   0  0  0  0  0  0  0  0  0  0  0  0  # atno 10718 bound_to 10713
  153.0896  135.4867  154.8663 H   0  0  0  0  0  0  0  0  0  0  0  0  # atno 10763 bound_to 10752
  154.7252  135.3048  154.8984 H   0  0  0  0  0  0  0  0  0  0  0  0  # atno 10764 bound_to 10752
  153.9636  135.6809  153.4799 H   0  0  0  0  0  0  0  0  0  0  0  0  # atno 10765 bound_to 10752
  141.0823  133.6650  156.3750 H   0  0  0  0  0  0  0  0  0  0  0  0  # atno 11005 bound_to 11000
  146.1000  140.7555  142.9553 LP  0  0  0  0  0  0  0  0  0  0  0  0  # atno 17320 bound_to 7965
  144.7039  140.3773  143.7133 LP  0  0  0  0  0  0  0  0  0  0  0  0  # atno 17321 bound_to 7965
  140.7678  143.5578  150.9133 LP  0  0  0  0  0  0  0  0  0  0  0  0  # atno 17342 bound_to 10162
  139.9254  143.6556  152.3088 LP  0  0  0  0  0  0  0  0  0  0  0  0  # atno 17343 bound_to 10162
  156.6071  130.8571  151.3445 LP  0  0  0  0  0  0  0  0  0  0  0  0  # atno 17370 bound_to 10713
  157.7247  130.9606  150.1584 LP  0  0  0  0  0  0  0  0  0  0  0  0  # atno 17371 bound_to 10713
  140.5440  134.6092  157.5388 LP  0  0  0  0  0  0  0  0  0  0  0  0  # atno 17394 bound_to 11000
  139.9638  134.7407  156.0181 LP  0  0  0  0  0  0  0  0  0  0  0  0  # atno 17395 bound_to 11000

$$$$
