AV-unprocessed.smi:1836|AV-procd|sdf|7477|dock9
  -GOLD-   22720 9173D 1   1.00000     0.00000
 Structure written by MMmdl.
 33 34  0  0  0  0  0  0  0  0  1 V2000
  146.9235  142.3776  153.9299 C   0  0  0  0  0  0  0  0  0  0  0  0
  147.0924  141.0080  154.6026 C   0  0  2  0  0  0  0  0  0  0  0  0
  148.5051  140.4356  154.3518 C   0  0  0  0  0  0  0  0  0  0  0  0
  149.4397  140.7842  155.4209 N   0  0  0  0  0  0  0  0  0  0  0  0
  149.0919  141.7929  156.4076 C   0  0  0  0  0  0  0  0  0  0  0  0
  150.2079  141.7207  157.4591 C   0  0  0  0  0  0  0  0  0  0  0  0
  151.3415  140.9220  156.8070 C   0  0  0  0  0  0  0  0  0  0  0  0
  150.6816  140.3112  155.5826 C   0  0  0  0  0  0  0  0  0  0  0  0
  151.2462  139.4906  154.8608 O   0  0  0  0  0  0  0  0  0  0  0  0
  146.0704  140.1107  154.0671 N   0  0  0  0  0  0  0  0  0  0  0  0
  145.8110  138.8711  154.5090 C   0  0  0  0  0  0  0  0  0  0  0  0
  146.4101  138.3431  155.4460 O   0  0  0  0  0  0  0  0  0  0  0  0
  144.8313  138.2974  153.7925 N   0  0  0  0  0  0  0  0  0  0  0  0
  144.3140  136.9843  153.9191 C   0  0  0  0  0  0  0  0  0  0  0  0
  144.9412  136.1388  154.7453 N   0  0  0  0  0  0  0  0  0  0  0  0
  144.3307  134.8909  154.7750 N   0  0  0  0  0  0  0  0  0  0  0  0
  143.2637  134.8453  153.9715 C   0  0  0  0  0  0  0  0  0  0  0  0
  142.8965  136.3228  153.0989 S   0  0  0  0  0  0  0  0  0  0  0  0
  147.6449  143.0971  154.3185 H   0  0  0  0  0  0  0  0  0  0  0  0
  145.9278  142.7844  154.1103 H   0  0  0  0  0  0  0  0  0  0  0  0
  147.0668  142.3123  152.8507 H   0  0  0  0  0  0  0  0  0  0  0  0
  146.9502  141.1582  155.6744 H   0  0  0  0  0  0  0  0  0  0  0  0
  148.4679  139.3542  154.2068 H   0  0  0  0  0  0  0  0  0  0  0  0
  148.9052  140.8448  153.4230 H   0  0  0  0  0  0  0  0  0  0  0  0
  149.0685  142.7725  155.9282 H   0  0  0  0  0  0  0  0  0  0  0  0
  148.1111  141.6018  156.8447 H   0  0  0  0  0  0  0  0  0  0  0  0
  150.5328  142.7136  157.7718 H   0  0  0  0  0  0  0  0  0  0  0  0
  149.8511  141.1974  158.3472 H   0  0  0  0  0  0  0  0  0  0  0  0
  152.1591  141.5719  156.4939 H   0  0  0  0  0  0  0  0  0  0  0  0
  151.7374  140.1527  157.4708 H   0  0  0  0  0  0  0  0  0  0  0  0
  145.5296  140.4568  153.2881 H   0  0  0  0  0  0  0  0  0  0  0  0
  144.4170  138.8579  153.0626 H   0  0  0  0  0  0  0  0  0  0  0  0
  142.6883  133.9347  153.8934 H   0  0  0  0  0  0  0  0  0  0  0  0
  1  2  1  0  0  0  0
  1 19  1  0  0  0  0
  1 20  1  0  0  0  0
  1 21  1  0  0  0  0
  2  3  1  0  0  0  0
  2 10  1  0  0  0  0
  2 22  1  0  0  0  0
  3  4  1  0  0  0  0
  3 23  1  0  0  0  0
  3 24  1  0  0  0  0
  4  8  1  0  0  0  0
  4  5  1  0  0  0  0
  5  6  1  0  0  0  0
  5 25  1  0  0  0  0
  5 26  1  0  0  0  0
  6  7  1  0  0  0  0
  6 27  1  0  0  0  0
  6 28  1  0  0  0  0
  7  8  1  0  0  0  0
  7 29  1  0  0  0  0
  7 30  1  0  0  0  0
  8  9  2  0  0  0  0
 10 11  1  0  0  0  0
 10 31  1  0  0  0  0
 11 12  2  0  0  0  0
 11 13  1  0  0  0  0
 13 14  1  0  0  0  0
 13 32  1  0  0  0  0
 14 18  1  0  0  0  0
 14 15  2  0  0  0  0
 15 16  1  0  0  0  0
 16 17  2  0  0  0  0
 17 18  1  0  0  0  0
 17 33  1  0  0  0  0
M  END
> <s_m_source_file>
AV-unprocessed.smi

> <i_m_source_file_index>
1836

> <i_lp_mmshare_version>
43012

> <i_f3d_flags>
0

> <s_epik_input>
Tz1DMVtDSDJdW0NIMl1bQ0gyXU4xW0NIMl1bQ0BASF0oW0NIM10pW05IXUMoPU8pW05IXWMybm5bY0hdczI=

> <s_epik_cmdline>
J2VwaWtfcHl0aG9uJywgJy1waCcsICc3LjAnLCAnLXRuJywgJzgnLCAnLW1hJywgJzIwMCcsICctbWV0YWxfYmluZGluZycsICctaW1hZScsICc8aW5maWxlLm1hZT4nLCAnLW9tYWUnLCAnPG91dGZpbGUubWFlPic=

> <r_lp_tautomer_probability>
1

> <r_epik_Ionization_Penalty>
0.00192022

> <r_epik_Ionization_Penalty_Charging>
0

> <r_epik_Ionization_Penalty_Neutral>
0.00192022

> <r_epik_State_Penalty>
-0

> <r_epik_Charging_Adjusted_Penalty>
0

> <i_epik_Tot_Q>
0

> <i_epik_Tot_abs_Q>
0

> <r_epik_Metal_State_Penalty>
0.336618

> <b_epik_Metal_Only>
0

> <s_lp_Force_Field>
OPLS_2005

> <r_lp_Energy>
16.7835

> <b_lp_Chiralities_Consistent>
1

> <s_lp_Variant>
AV-unprocessed.smi:1836-1

> <Gold.Version>
5.8.1

> <Gold.Id.Protein>
6NUR|6NUR_protein|mol2

> <Gold.PLP.Fitness>
34.8685

> <Gold.PLP.PLP>
-24.2176

> <Gold.PLP.part.hbond>
-3.0000

> <Gold.PLP.part.metal>
0.0000

> <Gold.PLP.part.buried>
-3.6570

> <Gold.PLP.part.nonpolar>
-19.3203

> <Gold.PLP.part.repulsive>
0.2134

> <Gold.PLP.ligand.clash>
0.0000

> <Gold.PLP.ligand.torsion>
0.5892

> <Gold.PLP.Chemscore.Hbond>
2.9440

> <Gold.PLP.Chemscore.CHOScore>
0.9939

> <Gold.PLP.Chemscore.Metal>
0.0000

> <Gold.Chemscore.Hbonds>
donor molecule, donor type, donor heavy atom, donor atom, acceptor molecule, acceptor atom, score
      L1  H    10    31       P1 10175  0.88
      L1  H    13    32       P1 10175  1.00
      P1  H  7989  7998       L1     9  0.60
      L1  C    17    33       P1 10957  1.00

> <Gold.PLP.Chemscore.Internal.Correction>
0.0154

> <Gold.Rescore>
     Score         DG    S(hbond)    S(metal)    S(lipo)     H(rot)  DE(clash)    DE(int)     intcor
     12.87     -14.94       2.89        0.00      36.74       1.76       0.00       2.06       ----

> <Gold.Chemscore.Fitness>
12.8711

> <Gold.Chemscore.DG>
-14.9355

> <Gold.Chemscore.ZeroCoef>
-5.4800

> <Gold.Chemscore.Hbond>
2.8909

> <Gold.Chemscore.Metal>
0.0000

> <Gold.Chemscore.Lipo>
36.7365

> <Gold.Chemscore.Internal_Hbond>
0.0000

> <Gold.Chemscore.DEClash>
0.0015

> <Gold.Chemscore.DEInternal>
2.0629

> <Gold.Chemscore.Rot>
1.7571

> <Gold.Chemscore.Internal.Correction>
   9.000000E+99

> <Gold.Chemscore.Hbonds>
donor molecule, donor type, donor heavy atom, donor atom, acceptor molecule, acceptor atom, score
      L1  H    10    31       P1 10175  0.78
      L1  H    13    32       P1 10175  0.95
      P1  H  7989  7998       L1     9  0.04

> <Gold.Chemscore.Hbond.Weighted>
-9.6556

> <Gold.Chemscore.Metal.Weighted>
-0.0000

> <Gold.Chemscore.Lipo.Weighted>
-4.2982

> <Gold.Chemscore.Internal_Hbond.Weighted>
0.0000

> <Gold.Chemscore.DEClash.Weighted>
0.0015

> <Gold.Chemscore.DEInternal.Weighted>
2.0629

> <Gold.Chemscore.Rot.Weighted>
4.4983

> <Gold.Chemscore.Internal.Correction.Weighted>
   9.000000E+99

> <Gold.Protein.RotatedTorsions>
[ 6907 6896 6895 6894 ] final   90.31 input  -60.11 | X-H torsion
[ 7974 7965 7964 7962 ] final -138.46 input  175.53 | X-H torsion
[ 8008 7997 7996 7995 ] final   17.17 input   59.86 | X-H torsion
[ 10167 10162 10161 10158 ] final  148.73 input  -65.29 | X-H torsion
[ 10718 10713 10712 10709 ] final   38.53 input   66.30 | X-H torsion
[ 10763 10752 10751 10750 ] final  -75.03 input  -60.55 | X-H torsion
[ 11005 11000 10999 10996 ] final  175.29 input  -57.11 | X-H torsion

> <Gold.Protein.ActiveResidues>
 VAL166  LYS551  ARG553  GLY616  TRP617  ASP618  TYR619  PRO620  LYS621  CYS622 
 ASP623  PHE694  ASN695  SER759  ASP760  ASP761  ALA762  ILE779  LEU786  VAL792 
 PHE793  MET794  SER795  GLU796  ALA797  LYS798  CYS799  TRP800  GLU811  SER814 

> <Gold.Protein.RotatedAtoms>
  152.5443  134.1832  159.8643 H   0  0  0  0  0  0  0  0  0  0  0  0  # atno 6907 bound_to 6896
  151.1833  133.4705  159.2602 H   0  0  0  0  0  0  0  0  0  0  0  0  # atno 6908 bound_to 6896
  151.1157  135.0063  159.8570 H   0  0  0  0  0  0  0  0  0  0  0  0  # atno 6909 bound_to 6896
  144.8756  140.6432  143.5238 H   0  0  0  0  0  0  0  0  0  0  0  0  # atno 7974 bound_to 7965
  154.8876  140.2982  155.5389 H   0  0  0  0  0  0  0  0  0  0  0  0  # atno 8008 bound_to 7997
  156.3021  140.2430  156.3821 H   0  0  0  0  0  0  0  0  0  0  0  0  # atno 8009 bound_to 7997
  154.8652  140.0403  157.1679 H   0  0  0  0  0  0  0  0  0  0  0  0  # atno 8010 bound_to 7997
  139.4871  144.5657  151.7150 H   0  0  0  0  0  0  0  0  0  0  0  0  # atno 10167 bound_to 10162
  157.3600  130.7644  149.7040 H   0  0  0  0  0  0  0  0  0  0  0  0  # atno 10718 bound_to 10713
  154.4811  135.5844  153.6390 H   0  0  0  0  0  0  0  0  0  0  0  0  # atno 10763 bound_to 10752
  152.9848  135.6090  154.3245 H   0  0  0  0  0  0  0  0  0  0  0  0  # atno 10764 bound_to 10752
  154.3136  135.2844  155.2533 H   0  0  0  0  0  0  0  0  0  0  0  0  # atno 10765 bound_to 10752
  140.3606  134.7116  157.4328 H   0  0  0  0  0  0  0  0  0  0  0  0  # atno 11005 bound_to 11000
  145.4048  139.1591  143.4158 LP  0  0  0  0  0  0  0  0  0  0  0  0  # atno 17320 bound_to 7965
  146.2960  140.4148  142.8721 LP  0  0  0  0  0  0  0  0  0  0  0  0  # atno 17321 bound_to 7965
  140.5234  144.0843  150.6030 LP  0  0  0  0  0  0  0  0  0  0  0  0  # atno 17342 bound_to 10162
  140.3809  143.2803  152.0171 LP  0  0  0  0  0  0  0  0  0  0  0  0  # atno 17343 bound_to 10162
  155.9736  130.4116  150.3992 LP  0  0  0  0  0  0  0  0  0  0  0  0  # atno 17370 bound_to 10713
  157.2068  131.0451  151.2621 LP  0  0  0  0  0  0  0  0  0  0  0  0  # atno 17371 bound_to 10713
  140.0630  134.5969  155.8727 LP  0  0  0  0  0  0  0  0  0  0  0  0  # atno 17394 bound_to 11000
  141.1985  133.6602  156.5796 LP  0  0  0  0  0  0  0  0  0  0  0  0  # atno 17395 bound_to 11000

$$$$
