AV-unprocessed.smi:512|AV-procd|sdf|2771|dock2
  -GOLD-   2262023233D 1   1.00000     0.00000
 Structure written by MMmdl.
 47 49  0  0  0  0  0  0  0  0  2 V2000
  149.1759  141.3252  155.3931 C   0  0  0  0  0  0  0  0  0  0  0  0
  150.3822  141.3125  156.3345 C   0  0  0  0  0  0  0  0  0  0  0  0
  149.9968  140.7265  157.5661 O   0  0  0  0  0  0  0  0  0  0  0  0
  150.9129  140.9992  158.6130 C   0  0  0  0  0  0  0  0  0  0  0  0
  152.2051  140.2077  158.3540 C   0  0  0  0  0  0  0  0  0  0  0  0
  152.9399  139.9235  159.5840 N   0  0  0  0  0  0  0  0  0  0  0  0
  153.4283  140.7939  160.5156 C   0  0  0  0  0  0  0  0  0  0  0  0
  153.3132  142.1873  160.4159 N   0  0  0  0  0  0  0  0  0  0  0  0
  153.1760  143.0770  161.5688 C   0  0  0  0  0  0  0  0  0  0  0  0
  151.9880  144.0422  161.3876 C   0  0  0  0  0  0  0  0  0  0  0  0
  152.2155  144.8796  160.2108 N   0  0  0  0  0  0  0  0  0  0  0  0
  151.0920  145.7872  160.0296 C   0  0  0  0  0  0  0  0  0  0  0  0
  152.3393  144.0102  159.0420 C   0  0  0  0  0  0  0  0  0  0  0  0
  153.5248  143.0473  159.2507 C   0  0  0  0  0  0  0  0  0  0  0  0
  154.0010  140.2025  161.5674 N   0  0  0  0  0  0  0  0  0  0  0  0
  153.8880  138.8531  161.2794 C   0  0  0  0  0  0  0  0  0  0  0  0
  153.2470  138.6572  160.0973 C   0  0  0  0  0  0  0  0  0  0  0  0
  152.9486  137.3181  159.5395 C   0  0  0  0  0  0  0  0  0  0  0  0
  152.3427  137.1913  158.4776 O   0  0  0  0  0  0  0  0  0  0  0  0
  153.4176  136.3076  160.3379 N   0  5  0  0  0  0  0  0  0  0  0  0
  154.0782  136.4629  161.5374 C   0  0  0  0  0  0  0  0  0  0  0  0
  154.4694  135.4972  162.1943 O   0  0  0  0  0  0  0  0  0  0  0  0
  154.3139  137.7208  162.0258 N   0  0  0  0  0  0  0  0  0  0  0  0
  155.0068  137.9169  163.3024 C   0  0  0  0  0  0  0  0  0  0  0  0
  149.4349  141.7739  154.4339 H   0  0  0  0  0  0  0  0  0  0  0  0
  148.3524  141.8980  155.8201 H   0  0  0  0  0  0  0  0  0  0  0  0
  148.8180  140.3130  155.2035 H   0  0  0  0  0  0  0  0  0  0  0  0
  151.1978  140.7440  155.8851 H   0  0  0  0  0  0  0  0  0  0  0  0
  150.7384  142.3308  156.4974 H   0  0  0  0  0  0  0  0  0  0  0  0
  151.1193  142.0688  158.6559 H   0  0  0  0  0  0  0  0  0  0  0  0
  150.4731  140.7259  159.5722 H   0  0  0  0  0  0  0  0  0  0  0  0
  151.9918  139.2783  157.8312 H   0  0  0  0  0  0  0  0  0  0  0  0
  152.8553  140.7602  157.6762 H   0  0  0  0  0  0  0  0  0  0  0  0
  153.0182  142.4885  162.4729 H   0  0  0  0  0  0  0  0  0  0  0  0
  154.1037  143.6311  161.7196 H   0  0  0  0  0  0  0  0  0  0  0  0
  151.0565  143.4824  161.2865 H   0  0  0  0  0  0  0  0  0  0  0  0
  151.8906  144.6753  162.2701 H   0  0  0  0  0  0  0  0  0  0  0  0
  151.2486  146.4173  159.1536 H   0  0  0  0  0  0  0  0  0  0  0  0
  150.9861  146.4416  160.8955 H   0  0  0  0  0  0  0  0  0  0  0  0
  150.1562  145.2423  159.8962 H   0  0  0  0  0  0  0  0  0  0  0  0
  151.4149  143.4544  158.8776 H   0  0  0  0  0  0  0  0  0  0  0  0
  152.5123  144.6191  158.1539 H   0  0  0  0  0  0  0  0  0  0  0  0
  154.4446  143.6166  159.3922 H   0  0  0  0  0  0  0  0  0  0  0  0
  153.6876  142.4578  158.3543 H   0  0  0  0  0  0  0  0  0  0  0  0
  154.4785  137.4055  164.1079 H   0  0  0  0  0  0  0  0  0  0  0  0
  155.0833  138.9670  163.5831 H   0  0  0  0  0  0  0  0  0  0  0  0
  156.0201  137.5172  163.2501 H   0  0  0  0  0  0  0  0  0  0  0  0
  1  2  1  0  0  0  0
  1 25  1  0  0  0  0
  1 26  1  0  0  0  0
  1 27  1  0  0  0  0
  2  3  1  0  0  0  0
  2 28  1  0  0  0  0
  2 29  1  0  0  0  0
  3  4  1  0  0  0  0
  4  5  1  0  0  0  0
  4 30  1  0  0  0  0
  4 31  1  0  0  0  0
  5  6  1  0  0  0  0
  5 32  1  0  0  0  0
  5 33  1  0  0  0  0
  6 17  1  0  0  0  0
  6  7  1  0  0  0  0
  7  8  1  0  0  0  0
  7 15  2  0  0  0  0
  8 14  1  0  0  0  0
  8  9  1  0  0  0  0
  9 10  1  0  0  0  0
  9 34  1  0  0  0  0
  9 35  1  0  0  0  0
 10 11  1  0  0  0  0
 10 36  1  0  0  0  0
 10 37  1  0  0  0  0
 11 12  1  0  0  0  0
 11 13  1  0  0  0  0
 12 38  1  0  0  0  0
 12 39  1  0  0  0  0
 12 40  1  0  0  0  0
 13 14  1  0  0  0  0
 13 41  1  0  0  0  0
 13 42  1  0  0  0  0
 14 43  1  0  0  0  0
 14 44  1  0  0  0  0
 15 16  1  0  0  0  0
 16 23  1  0  0  0  0
 16 17  2  0  0  0  0
 17 18  1  0  0  0  0
 18 19  2  0  0  0  0
 18 20  1  0  0  0  0
 20 21  1  0  0  0  0
 21 22  2  0  0  0  0
 21 23  1  0  0  0  0
 23 24  1  0  0  0  0
 24 45  1  0  0  0  0
 24 46  1  0  0  0  0
 24 47  1  0  0  0  0
M  CHG  1  20  -1
M  END
> <s_m_source_file>
AV-unprocessed.smi

> <i_m_source_file_index>
512

> <i_lp_mmshare_version>
43012

> <i_f3d_flags>
0

> <s_epik_input>
W0NIM11uMWMoPU8pW25IXWMoPU8pYyhjMTIpbihbQ0gyXVtDSDJdT1tDSDJdW0NIM10pYyhuMilOM1tDSDJdW0NIMl1OKFtDSDNdKVtDSDJdW0NIMl0z

> <s_epik_cmdline>
J2VwaWtfcHl0aG9uJywgJy1waCcsICc3LjAnLCAnLXRuJywgJzgnLCAnLW1hJywgJzIwMCcsICctbWV0YWxfYmluZGluZycsICctaW1hZScsICc8aW5maWxlLm1hZT4nLCAnLW9tYWUnLCAnPG91dGZpbGUubWFlPic=

> <r_epik_Ionization_Penalty>
7.67022

> <r_epik_Ionization_Penalty_Charging>
0.0776929

> <r_epik_Ionization_Penalty_Neutral>
7.59253

> <r_epik_State_Penalty>
7.66971

> <r_epik_Charging_Adjusted_Penalty>
7.7474

> <i_epik_Tot_Q>
-1

> <i_epik_Tot_abs_Q>
1

> <r_epik_Metal_State_Penalty>
3.61867

> <b_epik_Metal_Only>
1

> <s_lp_Force_Field>
OPLS_2005

> <r_lp_Energy>
53.7442

> <b_lp_Chiralities_Consistent>
1

> <s_lp_Variant>
AV-unprocessed.smi:512-4

> <Gold.Version>
5.8.1

> <Gold.Id.Protein>
6NUR|6NUR_protein|mol2

> <Gold.PLP.Fitness>
52.5261

> <Gold.PLP.PLP>
-47.9971

> <Gold.PLP.part.hbond>
-1.0000

> <Gold.PLP.part.metal>
0.0000

> <Gold.PLP.part.buried>
-4.0781

> <Gold.PLP.part.nonpolar>
-40.0520

> <Gold.PLP.part.repulsive>
0.0826

> <Gold.PLP.ligand.clash>
0.0000

> <Gold.PLP.ligand.torsion>
0.7998

> <Gold.PLP.Chemscore.Hbond>
2.0000

> <Gold.PLP.Chemscore.CHOScore>
0.0000

> <Gold.PLP.Chemscore.Metal>
0.0000

> <Gold.Chemscore.Hbonds>
donor molecule, donor type, donor heavy atom, donor atom, acceptor molecule, acceptor atom, score
      P1  H  6896  6907       L1    20  2.00

> <Gold.PLP.Chemscore.Internal.Correction>
0.1286

> <Gold.Rescore>
     Score         DG    S(hbond)    S(metal)    S(lipo)     H(rot)  DE(clash)    DE(int)     intcor
     14.37     -15.28       0.67        0.00      99.95       1.61       0.15       0.77       ----

> <Gold.Chemscore.Fitness>
14.3693

> <Gold.Chemscore.DG>
-15.2841

> <Gold.Chemscore.ZeroCoef>
-5.4800

> <Gold.Chemscore.Hbond>
0.6652

> <Gold.Chemscore.Metal>
0.0000

> <Gold.Chemscore.Lipo>
99.9548

> <Gold.Chemscore.Internal_Hbond>
0.0000

> <Gold.Chemscore.DEClash>
0.1461

> <Gold.Chemscore.DEInternal>
0.7688

> <Gold.Chemscore.Rot>
1.6064

> <Gold.Chemscore.Internal.Correction>
   9.000000E+99

> <Gold.Chemscore.Hbonds>
donor molecule, donor type, donor heavy atom, donor atom, acceptor molecule, acceptor atom, score
      P1  H  6896  6907       L1    20  0.49

> <Gold.Chemscore.Hbond.Weighted>
-2.2217

> <Gold.Chemscore.Metal.Weighted>
-0.0000

> <Gold.Chemscore.Lipo.Weighted>
-11.6947

> <Gold.Chemscore.Internal_Hbond.Weighted>
0.0000

> <Gold.Chemscore.DEClash.Weighted>
0.1461

> <Gold.Chemscore.DEInternal.Weighted>
0.7688

> <Gold.Chemscore.Rot.Weighted>
4.1123

> <Gold.Chemscore.Internal.Correction.Weighted>
   9.000000E+99

> <Gold.Protein.RotatedTorsions>
[ 6907 6896 6895 6894 ] final   43.88 input  -60.11 | X-H torsion
[ 7974 7965 7964 7962 ] final  145.28 input  175.53 | X-H torsion
[ 8008 7997 7996 7995 ] final   85.47 input   59.86 | X-H torsion
[ 10167 10162 10161 10158 ] final  179.60 input  -65.29 | X-H torsion
[ 10718 10713 10712 10709 ] final   78.14 input   66.30 | X-H torsion
[ 10763 10752 10751 10750 ] final   -3.77 input  -60.55 | X-H torsion
[ 11005 11000 10999 10996 ] final  -35.72 input  -57.11 | X-H torsion

> <Gold.Protein.ActiveResidues>
 VAL166  LYS551  ARG553  GLY616  TRP617  ASP618  TYR619  PRO620  LYS621  CYS622 
 ASP623  PHE694  ASN695  SER759  ASP760  ASP761  ALA762  ILE779  LEU786  VAL792 
 PHE793  MET794  SER795  GLU796  ALA797  LYS798  CYS799  TRP800  GLU811  SER814 

> <Gold.Protein.RotatedAtoms>
  152.2257  134.8370  160.0479 H   0  0  0  0  0  0  0  0  0  0  0  0  # atno 6907 bound_to 6896
  151.9137  133.3562  159.3880 H   0  0  0  0  0  0  0  0  0  0  0  0  # atno 6908 bound_to 6896
  150.7012  134.4631  159.5434 H   0  0  0  0  0  0  0  0  0  0  0  0  # atno 6909 bound_to 6896
  144.8765  139.5764  143.5862 H   0  0  0  0  0  0  0  0  0  0  0  0  # atno 7974 bound_to 7965
  155.9504  140.3401  155.6403 H   0  0  0  0  0  0  0  0  0  0  0  0  # atno 8008 bound_to 7997
  155.6927  140.0751  157.2460 H   0  0  0  0  0  0  0  0  0  0  0  0  # atno 8009 bound_to 7997
  154.4121  140.1654  156.2091 H   0  0  0  0  0  0  0  0  0  0  0  0  # atno 8010 bound_to 7997
  139.5343  144.2541  152.0760 H   0  0  0  0  0  0  0  0  0  0  0  0  # atno 10167 bound_to 10162
  157.6735  130.9854  150.1743 H   0  0  0  0  0  0  0  0  0  0  0  0  # atno 10718 bound_to 10713
  153.3758  135.6996  153.6602 H   0  0  0  0  0  0  0  0  0  0  0  0  # atno 10763 bound_to 10752
  153.5234  135.3607  155.2643 H   0  0  0  0  0  0  0  0  0  0  0  0  # atno 10764 bound_to 10752
  154.8687  135.4163  154.3046 H   0  0  0  0  0  0  0  0  0  0  0  0  # atno 10765 bound_to 10752
  140.9818  133.7052  156.1698 H   0  0  0  0  0  0  0  0  0  0  0  0  # atno 11005 bound_to 11000
  146.2966  139.7297  142.9122 LP  0  0  0  0  0  0  0  0  0  0  0  0  # atno 17320 bound_to 7965
  145.4032  141.0388  143.3058 LP  0  0  0  0  0  0  0  0  0  0  0  0  # atno 17321 bound_to 7965
  140.2010  144.4658  150.6432 LP  0  0  0  0  0  0  0  0  0  0  0  0  # atno 17342 bound_to 10162
  140.6541  143.2233  151.6009 LP  0  0  0  0  0  0  0  0  0  0  0  0  # atno 17343 bound_to 10162
  156.2490  130.3698  149.8253 LP  0  0  0  0  0  0  0  0  0  0  0  0  # atno 17370 bound_to 10713
  156.6031  130.8555  151.3436 LP  0  0  0  0  0  0  0  0  0  0  0  0  # atno 17371 bound_to 10713
  140.7174  134.4395  157.5577 LP  0  0  0  0  0  0  0  0  0  0  0  0  # atno 17394 bound_to 11000
  139.8953  134.8685  156.2135 LP  0  0  0  0  0  0  0  0  0  0  0  0  # atno 17395 bound_to 11000

$$$$
