AV-unprocessed.smi:1120|AV-procd|sdf|4825|dock9
  -GOLD-   22720 3383D 1   1.00000     0.00000
 Structure written by MMmdl.
 48 49  0  0  0  0  0  0  0  0  3 V2000
  150.1754  142.4203  157.3555 C   0  0  0  0  0  0  0  0  0  0  0  0
  150.4572  141.3049  156.3393 C   0  0  2  0  0  0  0  0  0  0  0  0
  149.2953  140.2882  156.2648 C   0  0  0  0  0  0  0  0  0  0  0  0
  149.5723  139.1198  155.2826 C   0  0  0  0  0  0  0  0  0  0  0  0
  150.8950  138.3608  155.5531 C   0  0  2  0  0  0  0  0  0  0  0  0
  150.7747  137.5787  156.7760 N   0  5  0  0  0  0  0  0  0  0  0  0
  151.0933  135.9880  156.7660 S   0  0  0  0  0  0  0  0  0  0  0  0
  152.5377  135.7144  156.8325 O   0  0  0  0  0  0  0  0  0  0  0  0
  150.2252  135.2186  157.6736 O   0  0  0  0  0  0  0  0  0  0  0  0
  150.5788  135.5468  155.0449 C   0  0  0  0  0  0  0  0  0  0  0  0
  149.5679  134.3991  155.0573 C   0  0  0  0  0  0  0  0  0  0  0  0
  149.6679  133.5015  155.8940 O   0  0  0  0  0  0  0  0  0  0  0  0
  148.5946  134.4427  154.1330 N   0  0  0  0  0  0  0  0  0  0  0  0
  147.5733  133.4197  153.9250 C   0  0  0  0  0  0  0  0  0  0  0  0
  147.3362  133.1010  152.4356 C   0  0  0  0  0  0  0  0  0  0  0  0
  146.1370  133.8163  151.8388 C   0  0  0  0  0  0  0  0  0  0  0  0
  144.9708  133.1281  151.4385 C   0  0  0  0  0  0  0  0  0  0  0  0
  143.9048  133.8541  150.8678 C   0  0  0  0  0  0  0  0  0  0  0  0
  144.0253  135.2507  150.7127 C   0  0  0  0  0  0  0  0  0  0  0  0
  145.2109  135.8869  151.1331 C   0  0  0  0  0  0  0  0  0  0  0  0
  146.2094  135.1572  151.6761 N   0  3  0  0  0  0  0  0  0  0  0  0
  152.0504  139.3879  155.6729 C   0  0  0  0  0  0  0  0  0  0  0  0
  151.7672  140.5495  156.6605 C   0  0  0  0  0  0  0  0  0  0  0  0
  150.0582  142.0187  158.3626 H   0  0  0  0  0  0  0  0  0  0  0  0
  149.2610  142.9578  157.1032 H   0  0  0  0  0  0  0  0  0  0  0  0
  150.9893  143.1454  157.3784 H   0  0  0  0  0  0  0  0  0  0  0  0
  150.5655  141.7677  155.3574 H   0  0  0  0  0  0  0  0  0  0  0  0
  149.0884  139.8954  157.2625 H   0  0  0  0  0  0  0  0  0  0  0  0
  148.3840  140.8018  155.9569 H   0  0  0  0  0  0  0  0  0  0  0  0
  148.7325  138.4238  155.2900 H   0  0  0  0  0  0  0  0  0  0  0  0
  149.6088  139.5250  154.2707 H   0  0  0  0  0  0  0  0  0  0  0  0
  151.0913  137.7137  154.6975 H   0  0  0  0  0  0  0  0  0  0  0  0
  150.1618  136.4324  154.5653 H   0  0  0  0  0  0  0  0  0  0  0  0
  151.4703  135.2557  154.4897 H   0  0  0  0  0  0  0  0  0  0  0  0
  148.5986  135.2172  153.4846 H   0  0  0  0  0  0  0  0  0  0  0  0
  147.9016  132.5160  154.4386 H   0  0  0  0  0  0  0  0  0  0  0  0
  146.6378  133.7141  154.4039 H   0  0  0  0  0  0  0  0  0  0  0  0
  148.2267  133.3570  151.8601 H   0  0  0  0  0  0  0  0  0  0  0  0
  147.1961  132.0266  152.3112 H   0  0  0  0  0  0  0  0  0  0  0  0
  144.8969  132.0567  151.5552 H   0  0  0  0  0  0  0  0  0  0  0  0
  143.0071  133.3449  150.5493 H   0  0  0  0  0  0  0  0  0  0  0  0
  143.2220  135.8245  150.2739 H   0  0  0  0  0  0  0  0  0  0  0  0
  145.3918  136.9484  151.0477 H   0  0  0  0  0  0  0  0  0  0  0  0
  152.9797  138.8894  155.9483 H   0  0  0  0  0  0  0  0  0  0  0  0
  152.2319  139.8157  154.6864 H   0  0  0  0  0  0  0  0  0  0  0  0
  152.6039  141.2481  156.6352 H   0  0  0  0  0  0  0  0  0  0  0  0
  151.7323  140.1694  157.6840 H   0  0  0  0  0  0  0  0  0  0  0  0
  147.0628  135.6371  151.9630 H   0  0  0  0  0  0  0  0  0  0  0  0
  1  2  1  0  0  0  0
  1 24  1  0  0  0  0
  1 25  1  0  0  0  0
  1 26  1  0  0  0  0
  2 23  1  0  0  0  0
  2  3  1  0  0  0  0
  2 27  1  0  0  0  0
  3  4  1  0  0  0  0
  3 28  1  0  0  0  0
  3 29  1  0  0  0  0
  4  5  1  0  0  0  0
  4 30  1  0  0  0  0
  4 31  1  0  0  0  0
  5  6  1  0  0  0  0
  5 22  1  0  0  0  0
  5 32  1  0  0  0  0
  6  7  1  0  0  0  0
  7  8  2  0  0  0  0
  7  9  2  0  0  0  0
  7 10  1  0  0  0  0
 10 11  1  0  0  0  0
 10 33  1  0  0  0  0
 10 34  1  0  0  0  0
 11 12  2  0  0  0  0
 11 13  1  0  0  0  0
 13 14  1  0  0  0  0
 13 35  1  0  0  0  0
 14 15  1  0  0  0  0
 14 36  1  0  0  0  0
 14 37  1  0  0  0  0
 15 16  1  0  0  0  0
 15 38  1  0  0  0  0
 15 39  1  0  0  0  0
 16 21  1  0  0  0  0
 16 17  2  0  0  0  0
 17 18  1  0  0  0  0
 17 40  1  0  0  0  0
 18 19  2  0  0  0  0
 18 41  1  0  0  0  0
 19 20  1  0  0  0  0
 19 42  1  0  0  0  0
 20 21  2  0  0  0  0
 20 43  1  0  0  0  0
 21 48  1  0  0  0  0
 22 23  1  0  0  0  0
 22 44  1  0  0  0  0
 22 45  1  0  0  0  0
 23 46  1  0  0  0  0
 23 47  1  0  0  0  0
M  CHG  1   6  -1
M  CHG  1  21   1
M  END
> <s_m_source_file>
AV-unprocessed.smi

> <i_m_source_file_index>
1120

> <i_lp_mmshare_version>
43012

> <i_f3d_flags>
0

> <s_epik_input>
W0NIM11bQ0BASF0xW0NIMl1bQ0gyXVtDQEhdKFtDSDJdW0NIMl0xKVtOSF1TKD1PKSg9TylbQ0gyXUMoPU8pW05IXVtDSDJdW0NIMl1jMltjSF1bY0hdW2NIXVtjSF1uMg==

> <s_epik_cmdline>
J2VwaWtfcHl0aG9uJywgJy1waCcsICc3LjAnLCAnLXRuJywgJzgnLCAnLW1hJywgJzIwMCcsICctbWV0YWxfYmluZGluZycsICctaW1hZScsICc8aW5maWxlLm1hZT4nLCAnLW9tYWUnLCAnPG91dGZpbGUubWFlPic=

> <r_epik_Ionization_Penalty>
7.48373

> <r_epik_Ionization_Penalty_Charging>
7.48373

> <r_epik_Ionization_Penalty_Neutral>
1.58512e-08

> <r_epik_State_Penalty>
7.71683

> <r_epik_Charging_Adjusted_Penalty>
15.2006

> <i_epik_Tot_Q>
0

> <i_epik_Tot_abs_Q>
2

> <r_epik_Metal_State_Penalty>
3.7254

> <b_epik_Metal_Only>
1

> <s_lp_Force_Field>
OPLS_2005

> <r_lp_Energy>
13.616

> <b_lp_Chiralities_Consistent>
1

> <s_lp_Variant>
AV-unprocessed.smi:1120-8

> <Gold.Version>
5.8.1

> <Gold.Id.Protein>
6NUR|6NUR_protein|mol2

> <Gold.PLP.Fitness>
51.0312

> <Gold.PLP.PLP>
-39.3485

> <Gold.PLP.part.hbond>
-4.0000

> <Gold.PLP.part.metal>
0.0000

> <Gold.PLP.part.buried>
-3.7960

> <Gold.PLP.part.nonpolar>
-31.7796

> <Gold.PLP.part.repulsive>
0.0800

> <Gold.PLP.ligand.clash>
0.0000

> <Gold.PLP.ligand.torsion>
1.4652

> <Gold.PLP.Chemscore.Hbond>
4.5002

> <Gold.PLP.Chemscore.CHOScore>
0.0000

> <Gold.PLP.Chemscore.Metal>
0.0000

> <Gold.Chemscore.Hbonds>
donor molecule, donor type, donor heavy atom, donor atom, acceptor molecule, acceptor atom, score
      L1  H    13    35       P1  7948  1.00
      L1  H    21    48       P1  7948  2.00
      P1  H  6896  6907       L1     9  0.58
      P1  H 10752 10765       L1     8  1.00

> <Gold.PLP.Chemscore.Internal.Correction>
1.1124

> <Gold.Rescore>
     Score         DG    S(hbond)    S(metal)    S(lipo)     H(rot)  DE(clash)    DE(int)     intcor
     19.05     -22.26       3.29        0.00      92.88       1.98       0.03       3.18       ----

> <Gold.Chemscore.Fitness>
19.0518

> <Gold.Chemscore.DG>
-22.2605

> <Gold.Chemscore.ZeroCoef>
-5.4800

> <Gold.Chemscore.Hbond>
3.2904

> <Gold.Chemscore.Metal>
0.0000

> <Gold.Chemscore.Lipo>
92.8847

> <Gold.Chemscore.Internal_Hbond>
0.0000

> <Gold.Chemscore.DEClash>
0.0260

> <Gold.Chemscore.DEInternal>
3.1828

> <Gold.Chemscore.Rot>
1.9832

> <Gold.Chemscore.Internal.Correction>
   9.000000E+99

> <Gold.Chemscore.Hbonds>
donor molecule, donor type, donor heavy atom, donor atom, acceptor molecule, acceptor atom, score
      L1  H    13    35       P1  7948  0.87
      L1  H    21    48       P1  7948  0.97
      P1  H  6896  6907       L1     9  0.54
      P1  H 10752 10765       L1     8  0.88

> <Gold.Chemscore.Hbond.Weighted>
-10.9899

> <Gold.Chemscore.Metal.Weighted>
-0.0000

> <Gold.Chemscore.Lipo.Weighted>
-10.8675

> <Gold.Chemscore.Internal_Hbond.Weighted>
0.0000

> <Gold.Chemscore.DEClash.Weighted>
0.0260

> <Gold.Chemscore.DEInternal.Weighted>
3.1828

> <Gold.Chemscore.Rot.Weighted>
5.0769

> <Gold.Chemscore.Internal.Correction.Weighted>
   9.000000E+99

> <Gold.Protein.RotatedTorsions>
[ 6907 6896 6895 6894 ] final  -61.10 input  -60.11 | X-H torsion
[ 7974 7965 7964 7962 ] final -102.39 input  175.53 | X-H torsion
[ 8008 7997 7996 7995 ] final   12.42 input   59.86 | X-H torsion
[ 10167 10162 10161 10158 ] final   -7.00 input  -65.29 | X-H torsion
[ 10718 10713 10712 10709 ] final   65.85 input   66.30 | X-H torsion
[ 10763 10752 10751 10750 ] final -136.73 input  -60.55 | X-H torsion
[ 11005 11000 10999 10996 ] final  -64.37 input  -57.11 | X-H torsion

> <Gold.Protein.ActiveResidues>
 VAL166  LYS551  ARG553  GLY616  TRP617  ASP618  TYR619  PRO620  LYS621  CYS622 
 ASP623  PHE694  ASN695  SER759  ASP760  ASP761  ALA762  ILE779  LEU786  VAL792 
 PHE793  MET794  SER795  GLU796  ALA797  LYS798  CYS799  TRP800  GLU811  SER814 

> <Gold.Protein.RotatedAtoms>
  150.7809  134.6750  159.6411 H   0  0  0  0  0  0  0  0  0  0  0  0  # atno 6907 bound_to 6896
  152.3892  134.6465  160.0123 H   0  0  0  0  0  0  0  0  0  0  0  0  # atno 6908 bound_to 6896
  151.6770  133.3276  159.3246 H   0  0  0  0  0  0  0  0  0  0  0  0  # atno 6909 bound_to 6896
  145.2694  140.9294  143.2995 H   0  0  0  0  0  0  0  0  0  0  0  0  # atno 7974 bound_to 7965
  154.8204  140.2883  155.5791 H   0  0  0  0  0  0  0  0  0  0  0  0  # atno 8008 bound_to 7997
  156.2997  140.2551  156.3041 H   0  0  0  0  0  0  0  0  0  0  0  0  # atno 8009 bound_to 7997
  154.9345  140.0382  157.2054 H   0  0  0  0  0  0  0  0  0  0  0  0  # atno 8010 bound_to 7997
  140.7015  143.6131  150.8685 H   0  0  0  0  0  0  0  0  0  0  0  0  # atno 10167 bound_to 10162
  157.6132  130.9236  150.0030 H   0  0  0  0  0  0  0  0  0  0  0  0  # atno 10718 bound_to 10713
  154.8677  135.3663  154.5108 H   0  0  0  0  0  0  0  0  0  0  0  0  # atno 10763 bound_to 10752
  153.5744  135.7020  153.5495 H   0  0  0  0  0  0  0  0  0  0  0  0  # atno 10764 bound_to 10752
  153.3513  135.4071  155.1611 H   0  0  0  0  0  0  0  0  0  0  0  0  # atno 10765 bound_to 10752
  141.1422  133.6665  156.5822 H   0  0  0  0  0  0  0  0  0  0  0  0  # atno 11005 bound_to 11000
  144.9348  139.4256  143.6477 LP  0  0  0  0  0  0  0  0  0  0  0  0  # atno 17320 bound_to 7965
  146.3251  139.8278  142.8914 LP  0  0  0  0  0  0  0  0  0  0  0  0  # atno 17321 bound_to 7965
  139.9853  143.5906  152.2929 LP  0  0  0  0  0  0  0  0  0  0  0  0  # atno 17342 bound_to 10162
  139.6542  144.7661  151.2089 LP  0  0  0  0  0  0  0  0  0  0  0  0  # atno 17343 bound_to 10162
  156.1242  130.3645  149.9836 LP  0  0  0  0  0  0  0  0  0  0  0  0  # atno 17370 bound_to 10713
  156.7910  130.9256  151.3646 LP  0  0  0  0  0  0  0  0  0  0  0  0  # atno 17371 bound_to 10713
  140.3829  134.7508  157.4672 LP  0  0  0  0  0  0  0  0  0  0  0  0  # atno 17394 bound_to 11000
  140.0624  134.5977  155.8733 LP  0  0  0  0  0  0  0  0  0  0  0  0  # atno 17395 bound_to 11000

$$$$
