AV-unprocessed.smi:3231|AV-procd|sdf|12334|dock9
  -GOLD-   2272018193D 1   1.00000     0.00000
 Structure written by MMmdl.
 41 42  0  0  0  0  0  0  0  0  2 V2000
  147.7046  138.4343  151.5316 O   0  0  0  0  0  0  0  0  0  0  0  0
  146.6573  139.0050  152.2925 C   0  0  1  0  0  0  0  0  0  0  0  0
  145.6242  137.9071  152.6102 C   0  0  0  0  0  0  0  0  0  0  0  0
  145.3088  137.0897  151.4416 N   0  0  0  0  0  0  0  0  0  0  0  0
  144.4337  135.9593  151.7377 C   0  0  0  0  0  0  0  0  0  0  0  0
  144.0109  135.2209  150.4573 C   0  0  0  0  0  0  0  0  0  0  0  0
  144.4569  133.8387  150.4455 N   0  0  0  0  0  0  0  0  0  0  0  0
  143.7219  132.7054  150.1678 C   0  0  0  0  0  0  0  0  0  0  0  0
  144.5662  131.6373  150.2725 C   0  0  0  0  0  0  0  0  0  0  0  0
  145.8135  132.2257  150.6230 C   0  0  0  0  0  0  0  0  0  0  0  0
  145.7455  133.5433  150.7252 N   0  0  0  0  0  0  0  0  0  0  0  0
  147.2148  139.7155  153.5465 C   0  0  0  0  0  0  0  0  0  0  0  0
  146.2542  140.6784  154.1441 N   0  3  0  0  0  0  0  0  0  0  0  0
  145.8733  140.3526  155.5417 C   0  0  0  0  0  0  0  0  0  0  0  0
  144.8532  141.3736  156.0734 C   0  0  0  0  0  0  0  0  0  0  0  0
  145.3936  142.6855  155.9776 O   0  0  0  0  0  0  0  0  0  0  0  0
  145.6817  143.0445  154.6323 C   0  0  0  0  0  0  0  0  0  0  0  0
  146.7307  142.0795  154.0544 C   0  0  0  0  0  0  0  0  0  0  0  0
  148.0539  137.6911  151.9982 H   0  0  0  0  0  0  0  0  0  0  0  0
  146.1571  139.7262  151.6477 H   0  0  0  0  0  0  0  0  0  0  0  0
  146.0148  137.2683  153.4030 H   0  0  0  0  0  0  0  0  0  0  0  0
  144.7163  138.3648  153.0057 H   0  0  0  0  0  0  0  0  0  0  0  0
  144.8802  137.6697  150.7262 H   0  0  0  0  0  0  0  0  0  0  0  0
  144.9466  135.2633  152.4022 H   0  0  0  0  0  0  0  0  0  0  0  0
  143.5446  136.2992  152.2708 H   0  0  0  0  0  0  0  0  0  0  0  0
  142.9275  135.2527  150.3297 H   0  0  0  0  0  0  0  0  0  0  0  0
  144.4406  135.7201  149.5882 H   0  0  0  0  0  0  0  0  0  0  0  0
  142.6716  132.7530  149.9205 H   0  0  0  0  0  0  0  0  0  0  0  0
  144.3292  130.5946  150.1218 H   0  0  0  0  0  0  0  0  0  0  0  0
  146.7596  131.7379  150.8046 H   0  0  0  0  0  0  0  0  0  0  0  0
  147.5025  138.9830  154.3024 H   0  0  0  0  0  0  0  0  0  0  0  0
  148.1296  140.2438  153.2726 H   0  0  0  0  0  0  0  0  0  0  0  0
  145.4426  139.3541  155.6017 H   0  0  0  0  0  0  0  0  0  0  0  0
  146.7628  140.3545  156.1739 H   0  0  0  0  0  0  0  0  0  0  0  0
  143.9145  141.3114  155.5203 H   0  0  0  0  0  0  0  0  0  0  0  0
  144.6215  141.1634  157.1176 H   0  0  0  0  0  0  0  0  0  0  0  0
  144.7685  143.0316  154.0351 H   0  0  0  0  0  0  0  0  0  0  0  0
  146.0600  144.0667  154.6128 H   0  0  0  0  0  0  0  0  0  0  0  0
  147.6720  142.1821  154.5970 H   0  0  0  0  0  0  0  0  0  0  0  0
  146.9296  142.3385  153.0137 H   0  0  0  0  0  0  0  0  0  0  0  0
  145.4136  140.6316  153.5862 H   0  0  0  0  0  0  0  0  0  0  0  0
  1  2  1  0  0  0  0
  1 19  1  0  0  0  0
  2  3  1  0  0  0  0
  2 12  1  0  0  0  0
  2 20  1  0  0  0  0
  3  4  1  0  0  0  0
  3 21  1  0  0  0  0
  3 22  1  0  0  0  0
  4  5  1  0  0  0  0
  4 23  1  0  0  0  0
  5  6  1  0  0  0  0
  5 24  1  0  0  0  0
  5 25  1  0  0  0  0
  6  7  1  0  0  0  0
  6 26  1  0  0  0  0
  6 27  1  0  0  0  0
  7 11  1  0  0  0  0
  7  8  1  0  0  0  0
  8  9  2  0  0  0  0
  8 28  1  0  0  0  0
  9 10  1  0  0  0  0
  9 29  1  0  0  0  0
 10 11  2  0  0  0  0
 10 30  1  0  0  0  0
 12 13  1  0  0  0  0
 12 31  1  0  0  0  0
 12 32  1  0  0  0  0
 13 18  1  0  0  0  0
 13 14  1  0  0  0  0
 13 41  1  0  0  0  0
 14 15  1  0  0  0  0
 14 33  1  0  0  0  0
 14 34  1  0  0  0  0
 15 16  1  0  0  0  0
 15 35  1  0  0  0  0
 15 36  1  0  0  0  0
 16 17  1  0  0  0  0
 17 18  1  0  0  0  0
 17 37  1  0  0  0  0
 17 38  1  0  0  0  0
 18 39  1  0  0  0  0
 18 40  1  0  0  0  0
M  CHG  1  13   1
M  END
> <s_m_source_file>
AV-unprocessed.smi

> <i_m_source_file_index>
3231

> <i_lp_mmshare_version>
43012

> <i_f3d_flags>
0

> <s_epik_input>
W0NIMl0xW0NIMl1PW0NIMl1bQ0gyXU4xW0NIMl1bQ0BIXShbT0hdKVtDSDJdW05IXVtDSDJdW0NIMl1uMltjSF1bY0hdW2NIXW4y

> <s_epik_cmdline>
J2VwaWtfcHl0aG9uJywgJy1waCcsICc3LjAnLCAnLXRuJywgJzgnLCAnLW1hJywgJzIwMCcsICctbWV0YWxfYmluZGluZycsICctaW1hZScsICc8aW5maWxlLm1hZT4nLCAnLW9tYWUnLCAnPG91dGZpbGUubWFlPic=

> <r_epik_Ionization_Penalty>
0.33973

> <r_epik_Ionization_Penalty_Charging>
0.202493

> <r_epik_Ionization_Penalty_Neutral>
0.137237

> <r_epik_State_Penalty>
0.943915

> <r_epik_Charging_Adjusted_Penalty>
1.14641

> <i_epik_Tot_Q>
1

> <i_epik_Tot_abs_Q>
1

> <r_epik_Metal_State_Penalty>
0.94313

> <b_epik_Metal_Only>
0

> <s_lp_Force_Field>
OPLS_2005

> <r_lp_Energy>
28.856

> <b_lp_Chiralities_Consistent>
1

> <s_lp_Variant>
AV-unprocessed.smi:3231-4

> <Gold.Version>
5.8.1

> <Gold.Id.Protein>
6NUR|6NUR_protein|mol2

> <Gold.PLP.Fitness>
53.3354

> <Gold.PLP.PLP>
-35.7255

> <Gold.PLP.part.hbond>
-4.7120

> <Gold.PLP.part.metal>
0.0000

> <Gold.PLP.part.buried>
-4.3694

> <Gold.PLP.part.nonpolar>
-27.7961

> <Gold.PLP.part.repulsive>
0.3077

> <Gold.PLP.ligand.clash>
0.0000

> <Gold.PLP.ligand.torsion>
1.4556

> <Gold.PLP.Chemscore.Hbond>
4.7840

> <Gold.PLP.Chemscore.CHOScore>
1.9856

> <Gold.PLP.Chemscore.Metal>
0.0000

> <Gold.Chemscore.Hbonds>
donor molecule, donor type, donor heavy atom, donor atom, acceptor molecule, acceptor atom, score
      L1  H     1    19       P1  7948  0.86
      L1  H     4    23       P1 10171  1.00
      L1  H    13    41       P1 10175  1.85
      P1  H  7954  7966       L1     1  0.79
      L1  C     8    28       P1 10186  1.00
      L1  C    10    30       P1 10747  1.00

> <Gold.PLP.Chemscore.Internal.Correction>
0.2123

> <Gold.Rescore>
     Score         DG    S(hbond)    S(metal)    S(lipo)     H(rot)  DE(clash)    DE(int)     intcor
     17.05     -18.49       3.27        0.00      79.97       2.84       0.03       1.42       ----

> <Gold.Chemscore.Fitness>
17.0471

> <Gold.Chemscore.DG>
-18.4933

> <Gold.Chemscore.ZeroCoef>
-5.4800

> <Gold.Chemscore.Hbond>
3.2715

> <Gold.Chemscore.Metal>
0.0000

> <Gold.Chemscore.Lipo>
79.9665

> <Gold.Chemscore.Internal_Hbond>
0.0000

> <Gold.Chemscore.DEClash>
0.0265

> <Gold.Chemscore.DEInternal>
1.4197

> <Gold.Chemscore.Rot>
2.8397

> <Gold.Chemscore.Internal.Correction>
   9.000000E+99

> <Gold.Chemscore.Hbonds>
donor molecule, donor type, donor heavy atom, donor atom, acceptor molecule, acceptor atom, score
      L1  H     1    19       P1  7948  0.86
      L1  H     4    23       P1 10171  1.00
      L1  H    13    41       P1 10175  0.85
      P1  H  7954  7966       L1     1  0.11

> <Gold.Chemscore.Hbond.Weighted>
-10.9268

> <Gold.Chemscore.Metal.Weighted>
-0.0000

> <Gold.Chemscore.Lipo.Weighted>
-9.3561

> <Gold.Chemscore.Internal_Hbond.Weighted>
0.0000

> <Gold.Chemscore.DEClash.Weighted>
0.0265

> <Gold.Chemscore.DEInternal.Weighted>
1.4197

> <Gold.Chemscore.Rot.Weighted>
7.2696

> <Gold.Chemscore.Internal.Correction.Weighted>
   9.000000E+99

> <Gold.Protein.RotatedTorsions>
[ 6907 6896 6895 6894 ] final  137.57 input  -60.11 | X-H torsion
[ 7974 7965 7964 7962 ] final  170.90 input  175.53 | X-H torsion
[ 8008 7997 7996 7995 ] final  124.69 input   59.86 | X-H torsion
[ 10167 10162 10161 10158 ] final   43.16 input  -65.29 | X-H torsion
[ 10718 10713 10712 10709 ] final -112.10 input   66.30 | X-H torsion
[ 10763 10752 10751 10750 ] final -107.11 input  -60.55 | X-H torsion
[ 11005 11000 10999 10996 ] final  152.02 input  -57.11 | X-H torsion

> <Gold.Protein.ActiveResidues>
 VAL166  LYS551  ARG553  GLY616  TRP617  ASP618  TYR619  PRO620  LYS621  CYS622 
 ASP623  PHE694  ASN695  SER759  ASP760  ASP761  ALA762  ILE779  LEU786  VAL792 
 PHE793  MET794  SER795  GLU796  ALA797  LYS798  CYS799  TRP800  GLU811  SER814 

> <Gold.Protein.RotatedAtoms>
  152.2765  133.5430  159.5471 H   0  0  0  0  0  0  0  0  0  0  0  0  # atno 6907 bound_to 6896
  150.7179  134.0624  159.3845 H   0  0  0  0  0  0  0  0  0  0  0  0  # atno 6908 bound_to 6896
  151.8537  135.0549  160.0512 H   0  0  0  0  0  0  0  0  0  0  0  0  # atno 6909 bound_to 6896
  144.7310  139.9270  143.6423 H   0  0  0  0  0  0  0  0  0  0  0  0  # atno 7974 bound_to 7965
  156.2810  140.2734  156.1829 H   0  0  0  0  0  0  0  0  0  0  0  0  # atno 8008 bound_to 7997
  155.0538  140.0386  157.2571 H   0  0  0  0  0  0  0  0  0  0  0  0  # atno 8009 bound_to 7997
  154.7173  140.2681  155.6579 H   0  0  0  0  0  0  0  0  0  0  0  0  # atno 8010 bound_to 7997
  140.3472  144.2396  150.6149 H   0  0  0  0  0  0  0  0  0  0  0  0  # atno 10167 bound_to 10162
  156.0686  130.5902  150.8464 H   0  0  0  0  0  0  0  0  0  0  0  0  # atno 10718 bound_to 10713
  154.8055  135.4687  154.0381 H   0  0  0  0  0  0  0  0  0  0  0  0  # atno 10763 bound_to 10752
  153.1853  135.6847  153.8430 H   0  0  0  0  0  0  0  0  0  0  0  0  # atno 10764 bound_to 10752
  153.7966  135.3235  155.3362 H   0  0  0  0  0  0  0  0  0  0  0  0  # atno 10765 bound_to 10752
  140.1270  134.8826  157.2152 H   0  0  0  0  0  0  0  0  0  0  0  0  # atno 11005 bound_to 11000
  146.0886  139.3875  143.0419 LP  0  0  0  0  0  0  0  0  0  0  0  0  # atno 17320 bound_to 7965
  145.7742  140.9884  143.1133 LP  0  0  0  0  0  0  0  0  0  0  0  0  # atno 17321 bound_to 7965
  140.5253  143.2256  151.8324 LP  0  0  0  0  0  0  0  0  0  0  0  0  # atno 17342 bound_to 10162
  139.4831  144.4786  151.9335 LP  0  0  0  0  0  0  0  0  0  0  0  0  # atno 17343 bound_to 10162
  157.5743  131.0946  150.9370 LP  0  0  0  0  0  0  0  0  0  0  0  0  # atno 17370 bound_to 10713
  156.9579  130.5444  149.5285 LP  0  0  0  0  0  0  0  0  0  0  0  0  # atno 17371 bound_to 10713
  140.2891  134.3261  155.7320 LP  0  0  0  0  0  0  0  0  0  0  0  0  # atno 17394 bound_to 11000
  141.2163  133.7524  156.9476 LP  0  0  0  0  0  0  0  0  0  0  0  0  # atno 17395 bound_to 11000

$$$$
