AV-unprocessed.smi:1057|AV-procd|sdf|4650|dock4
  -GOLD-   22720 3153D 1   1.00000     0.00000
 Structure written by MMmdl.
 44 45  0  0  0  0  0  0  0  0  1 V2000
  143.5855  143.4551  161.9098 C   0  0  0  0  0  0  0  0  0  0  0  0
  144.6871  143.9167  161.6556 C   0  0  0  0  0  0  0  0  0  0  0  0
  146.0248  144.4570  161.3599 C   0  0  0  0  0  0  0  0  0  0  0  0
  146.4773  144.1310  160.0125 N   0  0  0  0  0  0  0  0  0  0  0  0
  146.2886  142.9563  159.3848 C   0  0  0  0  0  0  0  0  0  0  0  0
  145.6964  142.0115  159.9048 O   0  0  0  0  0  0  0  0  0  0  0  0
  146.8479  142.7921  157.9621 C   0  0  0  0  0  0  0  0  0  0  0  0
  148.1000  142.0397  157.8829 N   0  0  0  0  0  0  0  0  0  0  0  0
  149.2147  142.3156  158.5756 C   0  0  0  0  0  0  0  0  0  0  0  0
  149.3212  143.2712  159.3440 O   0  0  0  0  0  0  0  0  0  0  0  0
  150.1683  141.4002  158.3413 N   0  0  0  0  0  0  0  0  0  0  0  0
  151.4537  141.3056  158.9433 C   0  0  0  0  0  0  0  0  0  0  0  0
  151.9363  142.2609  159.8695 C   0  0  0  0  0  0  0  0  0  0  0  0
  153.2306  142.1062  160.3991 C   0  0  0  0  0  0  0  0  0  0  0  0
  153.9998  141.0062  159.9775 C   0  0  0  0  0  0  0  0  0  0  0  0
  153.5594  140.0949  159.0856 N   0  0  0  0  0  0  0  0  0  0  0  0
  152.3137  140.2409  158.5737 C   0  0  0  0  0  0  0  0  0  0  0  0
  151.8794  139.2773  157.6488 N   0  0  0  0  0  0  0  0  0  0  0  0
  152.5020  139.4058  156.3346 C   0  0  0  0  0  0  0  0  0  0  0  0
  151.8019  138.4936  155.3125 C   0  0  0  0  0  0  0  0  0  0  0  0
  151.7652  137.0387  155.8091 C   0  0  0  0  0  0  0  0  0  0  0  0
  151.1338  136.9683  157.2096 C   0  0  0  0  0  0  0  0  0  0  0  0
  151.8517  137.9185  158.1834 C   0  0  0  0  0  0  0  0  0  0  0  0
  142.6259  143.0460  162.1338 H   0  0  0  0  0  0  0  0  0  0  0  0
  146.0113  145.5354  161.5233 H   0  0  0  0  0  0  0  0  0  0  0  0
  146.7254  144.0318  162.0788 H   0  0  0  0  0  0  0  0  0  0  0  0
  146.9710  144.8559  159.5124 H   0  0  0  0  0  0  0  0  0  0  0  0
  146.1037  142.2682  157.3621 H   0  0  0  0  0  0  0  0  0  0  0  0
  146.9679  143.7780  157.5097 H   0  0  0  0  0  0  0  0  0  0  0  0
  148.1051  141.2332  157.2759 H   0  0  0  0  0  0  0  0  0  0  0  0
  149.9041  140.6172  157.7614 H   0  0  0  0  0  0  0  0  0  0  0  0
  151.3431  143.1119  160.1680 H   0  0  0  0  0  0  0  0  0  0  0  0
  153.6266  142.8176  161.1085 H   0  0  0  0  0  0  0  0  0  0  0  0
  154.9974  140.8566  160.3627 H   0  0  0  0  0  0  0  0  0  0  0  0
  152.4525  140.4440  156.0030 H   0  0  0  0  0  0  0  0  0  0  0  0
  153.5581  139.1421  156.4059 H   0  0  0  0  0  0  0  0  0  0  0  0
  150.7837  138.8477  155.1461 H   0  0  0  0  0  0  0  0  0  0  0  0
  152.3114  138.5498  154.3503 H   0  0  0  0  0  0  0  0  0  0  0  0
  151.2061  136.4150  155.1109 H   0  0  0  0  0  0  0  0  0  0  0  0
  152.7790  136.6382  155.8440 H   0  0  0  0  0  0  0  0  0  0  0  0
  150.0787  137.2385  157.1487 H   0  0  0  0  0  0  0  0  0  0  0  0
  151.1713  135.9467  157.5881 H   0  0  0  0  0  0  0  0  0  0  0  0
  152.8725  137.5732  158.3533 H   0  0  0  0  0  0  0  0  0  0  0  0
  151.3461  137.9126  159.1501 H   0  0  0  0  0  0  0  0  0  0  0  0
  1  2  3  0  0  0  0
  1 24  1  0  0  0  0
  2  3  1  0  0  0  0
  3  4  1  0  0  0  0
  3 25  1  0  0  0  0
  3 26  1  0  0  0  0
  4  5  1  0  0  0  0
  4 27  1  0  0  0  0
  5  6  2  0  0  0  0
  5  7  1  0  0  0  0
  7  8  1  0  0  0  0
  7 28  1  0  0  0  0
  7 29  1  0  0  0  0
  8  9  1  0  0  0  0
  8 30  1  0  0  0  0
  9 10  2  0  0  0  0
  9 11  1  0  0  0  0
 11 12  1  0  0  0  0
 11 31  1  0  0  0  0
 12 17  1  0  0  0  0
 12 13  2  0  0  0  0
 13 14  1  0  0  0  0
 13 32  1  0  0  0  0
 14 15  2  0  0  0  0
 14 33  1  0  0  0  0
 15 16  1  0  0  0  0
 15 34  1  0  0  0  0
 16 17  2  0  0  0  0
 17 18  1  0  0  0  0
 18 23  1  0  0  0  0
 18 19  1  0  0  0  0
 19 20  1  0  0  0  0
 19 35  1  0  0  0  0
 19 36  1  0  0  0  0
 20 21  1  0  0  0  0
 20 37  1  0  0  0  0
 20 38  1  0  0  0  0
 21 22  1  0  0  0  0
 21 39  1  0  0  0  0
 21 40  1  0  0  0  0
 22 23  1  0  0  0  0
 22 41  1  0  0  0  0
 22 42  1  0  0  0  0
 23 43  1  0  0  0  0
 23 44  1  0  0  0  0
M  END
> <s_m_source_file>
AV-unprocessed.smi

> <i_m_source_file_index>
1057

> <i_lp_mmshare_version>
43012

> <i_f3d_flags>
0

> <s_epik_input>
W0NIXSNDW0NIMl1bTkhdQyg9TylbQ0gyXVtOSF1DKD1PKVtOSF1jMVtjSF1bY0hdW2NIXW5jMU4yW0NIMl1bQ0gyXVtDSDJdW0NIMl1bQ0gyXTI=

> <s_epik_cmdline>
J2VwaWtfcHl0aG9uJywgJy1waCcsICc3LjAnLCAnLXRuJywgJzgnLCAnLW1hJywgJzIwMCcsICctbWV0YWxfYmluZGluZycsICctaW1hZScsICc8aW5maWxlLm1hZT4nLCAnLW9tYWUnLCAnPG91dGZpbGUubWFlPic=

> <r_lp_tautomer_probability>
1

> <r_epik_Ionization_Penalty>
0.251144

> <r_epik_Ionization_Penalty_Charging>
0

> <r_epik_Ionization_Penalty_Neutral>
0.251144

> <r_epik_State_Penalty>
0.236346

> <r_epik_Charging_Adjusted_Penalty>
0.236346

> <i_epik_Tot_Q>
0

> <i_epik_Tot_abs_Q>
0

> <r_epik_Metal_State_Penalty>
0.166327

> <b_epik_Metal_Only>
0

> <s_lp_Force_Field>
OPLS_2005

> <r_lp_Energy>
16.5817

> <b_lp_Chiralities_Consistent>
1

> <s_lp_Variant>
AV-unprocessed.smi:1057-1

> <Gold.Version>
5.8.1

> <Gold.Id.Protein>
6NUR|6NUR_protein|mol2

> <Gold.PLP.Fitness>
43.3247

> <Gold.PLP.PLP>
-38.2461

> <Gold.PLP.part.hbond>
-3.0000

> <Gold.PLP.part.metal>
0.0000

> <Gold.PLP.part.buried>
-5.4462

> <Gold.PLP.part.nonpolar>
-30.6480

> <Gold.PLP.part.repulsive>
0.4790

> <Gold.PLP.ligand.clash>
0.0000

> <Gold.PLP.ligand.torsion>
0.5813

> <Gold.PLP.Chemscore.Hbond>
2.0094

> <Gold.PLP.Chemscore.CHOScore>
0.0000

> <Gold.PLP.Chemscore.Metal>
0.0000

> <Gold.Chemscore.Hbonds>
donor molecule, donor type, donor heavy atom, donor atom, acceptor molecule, acceptor atom, score
      P1  H  6933  6944       L1    10  0.02
      P1  H  6934  6946       L1     6  1.00
      P1  H  7997  8009       L1    16  0.24

> <Gold.PLP.Chemscore.Internal.Correction>
0.2130

> <Gold.Rescore>
     Score         DG    S(hbond)    S(metal)    S(lipo)     H(rot)  DE(clash)    DE(int)     intcor
     14.38     -17.09       1.99        0.00      81.44       1.79       0.11       2.60       ----

> <Gold.Chemscore.Fitness>
14.3821

> <Gold.Chemscore.DG>
-17.0867

> <Gold.Chemscore.ZeroCoef>
-5.4800

> <Gold.Chemscore.Hbond>
1.9910

> <Gold.Chemscore.Metal>
0.0000

> <Gold.Chemscore.Lipo>
81.4417

> <Gold.Chemscore.Internal_Hbond>
0.0000

> <Gold.Chemscore.DEClash>
0.1061

> <Gold.Chemscore.DEInternal>
2.5985

> <Gold.Chemscore.Rot>
1.7860

> <Gold.Chemscore.Internal.Correction>
   9.000000E+99

> <Gold.Chemscore.Hbonds>
donor molecule, donor type, donor heavy atom, donor atom, acceptor molecule, acceptor atom, score
      P1  H  6933  6944       L1    10  0.01
      P1  H  6934  6946       L1     6  0.78
      P1  H  7997  8009       L1    16  0.03

> <Gold.Chemscore.Hbond.Weighted>
-6.6501

> <Gold.Chemscore.Metal.Weighted>
-0.0000

> <Gold.Chemscore.Lipo.Weighted>
-9.5287

> <Gold.Chemscore.Internal_Hbond.Weighted>
0.0000

> <Gold.Chemscore.DEClash.Weighted>
0.1061

> <Gold.Chemscore.DEInternal.Weighted>
2.5985

> <Gold.Chemscore.Rot.Weighted>
4.5721

> <Gold.Chemscore.Internal.Correction.Weighted>
   9.000000E+99

> <Gold.Protein.RotatedTorsions>
[ 6907 6896 6895 6894 ] final  113.90 input  -60.11 | X-H torsion
[ 7974 7965 7964 7962 ] final  111.82 input  175.53 | X-H torsion
[ 8008 7997 7996 7995 ] final  154.09 input   59.86 | X-H torsion
[ 10167 10162 10161 10158 ] final  170.41 input  -65.29 | X-H torsion
[ 10718 10713 10712 10709 ] final -127.67 input   66.30 | X-H torsion
[ 10763 10752 10751 10750 ] final   45.76 input  -60.55 | X-H torsion
[ 11005 11000 10999 10996 ] final   80.46 input  -57.11 | X-H torsion

> <Gold.Protein.ActiveResidues>
 VAL166  LYS551  ARG553  GLY616  TRP617  ASP618  TYR619  PRO620  LYS621  CYS622 
 ASP623  PHE694  ASN695  SER759  ASP760  ASP761  ALA762  ILE779  LEU786  VAL792 
 PHE793  MET794  SER795  GLU796  ALA797  LYS798  CYS799  TRP800  GLU811  SER814 

> <Gold.Protein.RotatedAtoms>
  152.4834  133.8310  159.7103 H   0  0  0  0  0  0  0  0  0  0  0  0  # atno 6907 bound_to 6896
  150.8901  133.7246  159.2914 H   0  0  0  0  0  0  0  0  0  0  0  0  # atno 6908 bound_to 6896
  151.4722  135.1050  159.9806 H   0  0  0  0  0  0  0  0  0  0  0  0  # atno 6909 bound_to 6896
  145.2374  139.2793  143.4136 H   0  0  0  0  0  0  0  0  0  0  0  0  # atno 7974 bound_to 7965
  156.2549  140.1976  156.6592 H   0  0  0  0  0  0  0  0  0  0  0  0  # atno 8008 bound_to 7997
  154.6477  140.0575  156.9945 H   0  0  0  0  0  0  0  0  0  0  0  0  # atno 8009 bound_to 7997
  155.1465  140.3247  155.4443 H   0  0  0  0  0  0  0  0  0  0  0  0  # atno 8010 bound_to 7997
  139.5018  144.3599  151.9836 H   0  0  0  0  0  0  0  0  0  0  0  0  # atno 10167 bound_to 10162
  156.1879  130.6775  151.0387 H   0  0  0  0  0  0  0  0  0  0  0  0  # atno 10718 bound_to 10713
  152.9820  135.6029  154.3489 H   0  0  0  0  0  0  0  0  0  0  0  0  # atno 10763 bound_to 10752
  154.3180  135.2770  155.2535 H   0  0  0  0  0  0  0  0  0  0  0  0  # atno 10764 bound_to 10752
  154.4714  135.5940  153.6380 H   0  0  0  0  0  0  0  0  0  0  0  0  # atno 10765 bound_to 10752
  139.9133  134.7922  156.1913 H   0  0  0  0  0  0  0  0  0  0  0  0  # atno 11005 bound_to 11000
  146.3337  140.2727  142.8606 LP  0  0  0  0  0  0  0  0  0  0  0  0  # atno 17320 bound_to 7965
  144.9620  140.8284  143.5507 LP  0  0  0  0  0  0  0  0  0  0  0  0  # atno 17321 bound_to 7965
  140.3035  144.3619  150.6053 LP  0  0  0  0  0  0  0  0  0  0  0  0  # atno 17342 bound_to 10162
  140.5855  143.2170  151.7351 LP  0  0  0  0  0  0  0  0  0  0  0  0  # atno 17343 bound_to 10162
  157.6910  131.0810  150.7106 LP  0  0  0  0  0  0  0  0  0  0  0  0  # atno 17370 bound_to 10713
  156.7163  130.4667  149.5534 LP  0  0  0  0  0  0  0  0  0  0  0  0  # atno 17371 bound_to 10713
  141.0582  133.6854  156.1901 LP  0  0  0  0  0  0  0  0  0  0  0  0  # atno 17394 bound_to 11000
  140.6703  134.4875  157.5587 LP  0  0  0  0  0  0  0  0  0  0  0  0  # atno 17395 bound_to 11000

$$$$
