AV-unprocessed.smi:2124|AV-procd|sdf|8656|dock9
  -GOLD-   2272011403D 1   1.00000     0.00000
 Structure written by MMmdl.
 47 49  0  0  0  0  0  0  0  0  1 V2000
  146.7287  139.6567  153.3454 C   0  0  0  0  0  0  0  0  0  0  0  0
  147.6541  139.5509  154.5390 C   0  0  0  0  0  0  0  0  0  0  0  0
  147.2671  139.2059  155.7226 N   0  0  0  0  0  0  0  0  0  0  0  0
  148.2191  139.1345  156.7488 C   0  0  0  0  0  0  0  0  0  0  0  0
  147.6883  138.6966  158.1030 C   0  0  0  0  0  0  0  0  0  0  0  0
  149.5347  139.4257  156.5271 C   0  0  0  0  0  0  0  0  0  0  0  0
  150.6040  139.3140  157.6151 C   0  0  0  0  0  0  0  0  0  0  0  0
  151.4500  140.5733  157.8040 C   0  0  0  0  0  0  0  0  0  0  0  0
  151.3090  141.5350  157.0495 O   0  0  0  0  0  0  0  0  0  0  0  0
  152.2909  140.5617  158.8488 N   0  0  0  0  0  0  0  0  0  0  0  0
  152.9860  141.7204  159.3979 C   0  0  2  0  0  0  0  0  0  0  0  0
  154.0553  141.2561  160.3989 C   0  0  0  0  0  0  0  0  0  0  0  0
  151.9502  142.6728  160.0413 C   0  0  1  0  0  0  0  0  0  0  0  0
  152.5563  143.8038  160.9015 C   0  0  0  0  0  0  0  0  0  0  0  0
  151.8569  145.0643  160.3578 C   0  0  1  0  0  0  0  0  0  0  0  0
  152.4385  145.4078  158.9736 C   0  0  0  0  0  0  0  0  0  0  0  0
  151.8442  144.3088  158.0744 C   0  0  0  0  0  0  0  0  0  0  0  0
  151.0297  143.4584  159.0704 C   0  0  2  0  0  0  0  0  0  0  0  0
  150.4739  144.5358  159.9949 C   0  0  0  0  0  0  0  0  0  0  0  0
  149.9636  139.8252  155.1724 C   0  0  0  0  0  0  0  0  0  0  0  0
  151.1215  140.0979  154.8599 O   0  0  0  0  0  0  0  0  0  0  0  0
  148.9805  139.8617  154.2456 N   0  0  0  0  0  0  0  0  0  0  0  0
  149.2245  140.1248  153.3018 H   0  0  0  0  0  0  0  0  0  0  0  0
  146.2490  138.6960  153.1573 H   0  0  0  0  0  0  0  0  0  0  0  0
  147.2659  139.9523  152.4433 H   0  0  0  0  0  0  0  0  0  0  0  0
  145.9513  140.3964  153.5379 H   0  0  0  0  0  0  0  0  0  0  0  0
  148.1640  137.7690  158.4213 H   0  0  0  0  0  0  0  0  0  0  0  0
  146.6123  138.5224  158.0689 H   0  0  0  0  0  0  0  0  0  0  0  0
  147.8777  139.4616  158.8560 H   0  0  0  0  0  0  0  0  0  0  0  0
  150.1591  139.0482  158.5747 H   0  0  0  0  0  0  0  0  0  0  0  0
  151.2658  138.4815  157.3743 H   0  0  0  0  0  0  0  0  0  0  0  0
  152.3528  139.7082  159.3849 H   0  0  0  0  0  0  0  0  0  0  0  0
  153.4926  142.2544  158.5924 H   0  0  0  0  0  0  0  0  0  0  0  0
  154.6039  142.1025  160.8123 H   0  0  0  0  0  0  0  0  0  0  0  0
  154.7816  140.5990  159.9195 H   0  0  0  0  0  0  0  0  0  0  0  0
  153.6107  140.7094  161.2311 H   0  0  0  0  0  0  0  0  0  0  0  0
  151.3001  142.0720  160.6803 H   0  0  0  0  0  0  0  0  0  0  0  0
  152.3201  143.6493  161.9550 H   0  0  0  0  0  0  0  0  0  0  0  0
  153.6410  143.8742  160.8139 H   0  0  0  0  0  0  0  0  0  0  0  0
  151.8637  145.9027  161.0546 H   0  0  0  0  0  0  0  0  0  0  0  0
  152.1066  146.3930  158.6442 H   0  0  0  0  0  0  0  0  0  0  0  0
  153.5291  145.4031  158.9702 H   0  0  0  0  0  0  0  0  0  0  0  0
  151.1862  144.7477  157.3231 H   0  0  0  0  0  0  0  0  0  0  0  0
  152.6065  143.7413  157.5420 H   0  0  0  0  0  0  0  0  0  0  0  0
  150.2677  142.8418  158.5923 H   0  0  0  0  0  0  0  0  0  0  0  0
  149.9245  144.1359  160.8489 H   0  0  0  0  0  0  0  0  0  0  0  0
  149.8502  145.2696  159.4809 H   0  0  0  0  0  0  0  0  0  0  0  0
  1  2  1  0  0  0  0
  1 24  1  0  0  0  0
  1 25  1  0  0  0  0
  1 26  1  0  0  0  0
  2 22  1  0  0  0  0
  2  3  2  0  0  0  0
  3  4  1  0  0  0  0
  4  5  1  0  0  0  0
  4  6  2  0  0  0  0
  5 27  1  0  0  0  0
  5 28  1  0  0  0  0
  5 29  1  0  0  0  0
  6  7  1  0  0  0  0
  6 20  1  0  0  0  0
  7  8  1  0  0  0  0
  7 30  1  0  0  0  0
  7 31  1  0  0  0  0
  8  9  2  0  0  0  0
  8 10  1  0  0  0  0
 10 11  1  0  0  0  0
 10 32  1  0  0  0  0
 11 12  1  0  0  0  0
 11 13  1  0  0  0  0
 11 33  1  0  0  0  0
 12 34  1  0  0  0  0
 12 35  1  0  0  0  0
 12 36  1  0  0  0  0
 13 18  1  0  0  0  0
 13 14  1  0  0  0  0
 13 37  1  0  0  0  0
 14 15  1  0  0  0  0
 14 38  1  0  0  0  0
 14 39  1  0  0  0  0
 15 19  1  0  0  0  0
 15 16  1  0  0  0  0
 15 40  1  0  0  0  0
 16 17  1  0  0  0  0
 16 41  1  0  0  0  0
 16 42  1  0  0  0  0
 17 18  1  0  0  0  0
 17 43  1  0  0  0  0
 17 44  1  0  0  0  0
 18 19  1  0  0  0  0
 18 45  1  0  0  0  0
 19 46  1  0  0  0  0
 19 47  1  0  0  0  0
 20 21  2  0  0  0  0
 20 22  1  0  0  0  0
 22 23  1  0  0  0  0
M  END
> <s_m_source_file>
AV-unprocessed.smi

> <i_m_source_file_index>
2124

> <i_lp_mmshare_version>
43012

> <i_f3d_flags>
0

> <s_epik_input>
W0NIM11jMW5jKFtDSDNdKWMoYyg9TylbbkhdMSlbQ0gyXUMoPU8pW05IXVtDQEhdKFtDSDNdKVtDQEhdKFtDSDJdW0NASF0yMylbQ0BIXShbQ0gyXTMpW0NIMl1bQ0gyXTI=

> <s_epik_cmdline>
J2VwaWtfcHl0aG9uJywgJy1waCcsICc3LjAnLCAnLXRuJywgJzgnLCAnLW1hJywgJzIwMCcsICctbWV0YWxfYmluZGluZycsICctaW1hZScsICc8aW5maWxlLm1hZT4nLCAnLW9tYWUnLCAnPG91dGZpbGUubWFlPic=

> <r_lp_tautomer_probability>
0.839158

> <r_epik_Ionization_Penalty>
0.000383628

> <r_epik_Ionization_Penalty_Charging>
0.00035045

> <r_epik_Ionization_Penalty_Neutral>
3.31781e-05

> <r_epik_State_Penalty>
0.09125

> <r_epik_Charging_Adjusted_Penalty>
0.0916005

> <i_epik_Tot_Q>
0

> <i_epik_Tot_abs_Q>
0

> <r_epik_Metal_State_Penalty>
0.255229

> <b_epik_Metal_Only>
0

> <s_lp_Force_Field>
OPLS_2005

> <r_lp_Energy>
50.9321

> <b_lp_Chiralities_Consistent>
1

> <s_lp_Variant>
AV-unprocessed.smi:2124-7

> <Gold.Version>
5.8.1

> <Gold.Id.Protein>
6NUR|6NUR_protein|mol2

> <Gold.PLP.Fitness>
47.4169

> <Gold.PLP.PLP>
-42.0342

> <Gold.PLP.part.hbond>
-2.0000

> <Gold.PLP.part.metal>
0.0000

> <Gold.PLP.part.buried>
-5.8044

> <Gold.PLP.part.nonpolar>
-35.3384

> <Gold.PLP.part.repulsive>
0.3357

> <Gold.PLP.ligand.clash>
0.0000

> <Gold.PLP.ligand.torsion>
0.3203

> <Gold.PLP.Chemscore.Hbond>
2.0000

> <Gold.PLP.Chemscore.CHOScore>
0.0000

> <Gold.PLP.Chemscore.Metal>
0.0000

> <Gold.Chemscore.Hbonds>
donor molecule, donor type, donor heavy atom, donor atom, acceptor molecule, acceptor atom, score
      L1  H    22    23       P1  7957  0.63
      P1  H  7989  7998       L1    21  1.00

> <Gold.PLP.Chemscore.Internal.Correction>
0.0233

> <Gold.Rescore>
     Score         DG    S(hbond)    S(metal)    S(lipo)     H(rot)  DE(clash)    DE(int)     intcor
     16.34     -20.69       1.97        0.00     110.03       1.65       0.04       4.31       ----

> <Gold.Chemscore.Fitness>
16.3394

> <Gold.Chemscore.DG>
-20.6884

> <Gold.Chemscore.ZeroCoef>
-5.4800

> <Gold.Chemscore.Hbond>
1.9664

> <Gold.Chemscore.Metal>
0.0000

> <Gold.Chemscore.Lipo>
110.0265

> <Gold.Chemscore.Internal_Hbond>
0.0000

> <Gold.Chemscore.DEClash>
0.0392

> <Gold.Chemscore.DEInternal>
4.3098

> <Gold.Chemscore.Rot>
1.6534

> <Gold.Chemscore.Internal.Correction>
   9.000000E+99

> <Gold.Chemscore.Hbonds>
donor molecule, donor type, donor heavy atom, donor atom, acceptor molecule, acceptor atom, score
      L1  H    22    23       P1  7957  0.62
      P1  H  7989  7998       L1    21  1.00

> <Gold.Chemscore.Hbond.Weighted>
-6.5679

> <Gold.Chemscore.Metal.Weighted>
-0.0000

> <Gold.Chemscore.Lipo.Weighted>
-12.8731

> <Gold.Chemscore.Internal_Hbond.Weighted>
0.0000

> <Gold.Chemscore.DEClash.Weighted>
0.0392

> <Gold.Chemscore.DEInternal.Weighted>
4.3098

> <Gold.Chemscore.Rot.Weighted>
4.2326

> <Gold.Chemscore.Internal.Correction.Weighted>
   9.000000E+99

> <Gold.Protein.RotatedTorsions>
[ 6907 6896 6895 6894 ] final  -93.04 input  -60.11 | X-H torsion
[ 7974 7965 7964 7962 ] final  -84.34 input  175.53 | X-H torsion
[ 8008 7997 7996 7995 ] final   39.80 input   59.86 | X-H torsion
[ 10167 10162 10161 10158 ] final -168.38 input  -65.29 | X-H torsion
[ 10718 10713 10712 10709 ] final  -83.60 input   66.30 | X-H torsion
[ 10763 10752 10751 10750 ] final -114.73 input  -60.55 | X-H torsion
[ 11005 11000 10999 10996 ] final   63.17 input  -57.11 | X-H torsion

> <Gold.Protein.ActiveResidues>
 VAL166  LYS551  ARG553  GLY616  TRP617  ASP618  TYR619  PRO620  LYS621  CYS622 
 ASP623  PHE694  ASN695  SER759  ASP760  ASP761  ALA762  ILE779  LEU786  VAL792 
 PHE793  MET794  SER795  GLU796  ALA797  LYS798  CYS799  TRP800  GLU811  SER814 

> <Gold.Protein.RotatedAtoms>
  150.6916  134.2029  159.4328 H   0  0  0  0  0  0  0  0  0  0  0  0  # atno 6907 bound_to 6896
  151.9994  134.9934  160.0574 H   0  0  0  0  0  0  0  0  0  0  0  0  # atno 6908 bound_to 6896
  152.1592  133.4536  159.4889 H   0  0  0  0  0  0  0  0  0  0  0  0  # atno 6909 bound_to 6896
  145.5079  140.9542  143.1724 H   0  0  0  0  0  0  0  0  0  0  0  0  # atno 7974 bound_to 7965
  155.2426  140.3346  155.4290 H   0  0  0  0  0  0  0  0  0  0  0  0  # atno 8008 bound_to 7997
  156.2249  140.1825  156.7431 H   0  0  0  0  0  0  0  0  0  0  0  0  # atno 8009 bound_to 7997
  154.5883  140.0642  156.9188 H   0  0  0  0  0  0  0  0  0  0  0  0  # atno 8010 bound_to 7997
  139.5989  144.1053  152.1720 H   0  0  0  0  0  0  0  0  0  0  0  0  # atno 10167 bound_to 10162
  156.0016  130.4671  150.4282 H   0  0  0  0  0  0  0  0  0  0  0  0  # atno 10718 bound_to 10713
  154.8452  135.4407  154.1552 H   0  0  0  0  0  0  0  0  0  0  0  0  # atno 10763 bound_to 10752
  153.2702  135.6944  153.7494 H   0  0  0  0  0  0  0  0  0  0  0  0  # atno 10764 bound_to 10752
  153.6737  135.3414  155.3135 H   0  0  0  0  0  0  0  0  0  0  0  0  # atno 10765 bound_to 10752
  140.0043  134.6394  155.9881 H   0  0  0  0  0  0  0  0  0  0  0  0  # atno 11005 bound_to 11000
  144.7744  139.6663  143.7181 LP  0  0  0  0  0  0  0  0  0  0  0  0  # atno 17320 bound_to 7965
  146.2185  139.5593  142.9634 LP  0  0  0  0  0  0  0  0  0  0  0  0  # atno 17321 bound_to 7965
  140.0645  144.5830  150.7238 LP  0  0  0  0  0  0  0  0  0  0  0  0  # atno 17342 bound_to 10162
  140.7234  143.2611  151.4203 LP  0  0  0  0  0  0  0  0  0  0  0  0  # atno 17343 bound_to 10162
  157.2332  131.0509  151.2480 LP  0  0  0  0  0  0  0  0  0  0  0  0  # atno 17370 bound_to 10713
  157.3691  130.7171  149.6552 LP  0  0  0  0  0  0  0  0  0  0  0  0  # atno 17371 bound_to 10713
  141.1665  133.6537  156.4498 LP  0  0  0  0  0  0  0  0  0  0  0  0  # atno 17394 bound_to 11000
  140.4671  134.6788  157.5112 LP  0  0  0  0  0  0  0  0  0  0  0  0  # atno 17395 bound_to 11000

$$$$
