AV-unprocessed.smi:516|AV-procd|sdf|2786|dock5
  -GOLD-   2262023263D 1   1.00000     0.00000
 Structure written by MMmdl.
 43 45  0  0  0  0  0  0  0  0  2 V2000
  148.5323  141.0635  154.7110 C   0  0  0  0  0  0  0  0  0  0  0  0
  148.3931  139.7123  155.1129 O   0  0  0  0  0  0  0  0  0  0  0  0
  148.6857  139.5245  156.4870 C   0  0  0  0  0  0  0  0  0  0  0  0
  148.8438  138.0221  156.7603 C   0  0  0  0  0  0  0  0  0  0  0  0
  149.8637  137.7571  157.7693 N   0  0  0  0  0  0  0  0  0  0  0  0
  149.7244  137.0380  158.9142 C   0  0  0  0  0  0  0  0  0  0  0  0
  148.4375  136.3854  159.3263 C   0  0  0  0  0  0  0  0  0  0  0  0
  148.4900  135.7563  160.6443 N   0  0  0  0  0  0  0  0  0  0  0  0
  148.0005  136.6509  161.6852 C   0  0  0  0  0  0  0  0  0  0  0  0
  148.0796  135.9993  163.0767 C   0  0  0  0  0  0  0  0  0  0  0  0
  147.3508  134.7756  163.0730 O   0  0  0  0  0  0  0  0  0  0  0  0
  147.8243  133.8558  162.0938 C   0  0  0  0  0  0  0  0  0  0  0  0
  147.7473  134.4997  160.6989 C   0  0  0  0  0  0  0  0  0  0  0  0
  150.8339  136.9624  159.6539 N   0  0  0  0  0  0  0  0  0  0  0  0
  151.7506  137.6989  158.9187 C   0  0  0  0  0  0  0  0  0  0  0  0
  151.1920  138.1888  157.7815 C   0  0  0  0  0  0  0  0  0  0  0  0
  151.9192  139.0183  156.7979 C   0  0  0  0  0  0  0  0  0  0  0  0
  151.3609  139.4376  155.7860 O   0  0  0  0  0  0  0  0  0  0  0  0
  153.2217  139.2326  157.1684 N   0  5  0  0  0  0  0  0  0  0  0  0
  153.8299  138.7562  158.3111 C   0  0  0  0  0  0  0  0  0  0  0  0
  155.0093  139.0037  158.5634 O   0  0  0  0  0  0  0  0  0  0  0  0
  153.1130  137.9884  159.1944 N   0  0  0  0  0  0  0  0  0  0  0  0
  153.6851  137.4444  160.4298 C   0  0  0  0  0  0  0  0  0  0  0  0
  148.3016  141.1558  153.6498 H   0  0  0  0  0  0  0  0  0  0  0  0
  149.5521  141.4181  154.8658 H   0  0  0  0  0  0  0  0  0  0  0  0
  147.8485  141.7107  155.2617 H   0  0  0  0  0  0  0  0  0  0  0  0
  149.5993  140.0583  156.7516 H   0  0  0  0  0  0  0  0  0  0  0  0
  147.8804  139.9379  157.0950 H   0  0  0  0  0  0  0  0  0  0  0  0
  147.8930  137.6042  157.0889 H   0  0  0  0  0  0  0  0  0  0  0  0
  149.0979  137.4879  155.8453 H   0  0  0  0  0  0  0  0  0  0  0  0
  147.6561  137.1457  159.3075 H   0  0  0  0  0  0  0  0  0  0  0  0
  148.1588  135.6473  158.5726 H   0  0  0  0  0  0  0  0  0  0  0  0
  148.5834  137.5725  161.6851 H   0  0  0  0  0  0  0  0  0  0  0  0
  146.9677  136.9336  161.4755 H   0  0  0  0  0  0  0  0  0  0  0  0
  149.1177  135.8113  163.3556 H   0  0  0  0  0  0  0  0  0  0  0  0
  147.6595  136.6633  163.8322 H   0  0  0  0  0  0  0  0  0  0  0  0
  148.8495  133.5628  162.3261 H   0  0  0  0  0  0  0  0  0  0  0  0
  147.2163  132.9519  162.1283 H   0  0  0  0  0  0  0  0  0  0  0  0
  146.7026  134.6749  160.4376 H   0  0  0  0  0  0  0  0  0  0  0  0
  148.1393  133.7966  159.9634 H   0  0  0  0  0  0  0  0  0  0  0  0
  154.7420  137.6690  160.5745 H   0  0  0  0  0  0  0  0  0  0  0  0
  153.5816  136.3589  160.4397 H   0  0  0  0  0  0  0  0  0  0  0  0
  153.1472  137.8393  161.2921 H   0  0  0  0  0  0  0  0  0  0  0  0
  1  2  1  0  0  0  0
  1 24  1  0  0  0  0
  1 25  1  0  0  0  0
  1 26  1  0  0  0  0
  2  3  1  0  0  0  0
  3  4  1  0  0  0  0
  3 27  1  0  0  0  0
  3 28  1  0  0  0  0
  4  5  1  0  0  0  0
  4 29  1  0  0  0  0
  4 30  1  0  0  0  0
  5 16  1  0  0  0  0
  5  6  1  0  0  0  0
  6  7  1  0  0  0  0
  6 14  2  0  0  0  0
  7  8  1  0  0  0  0
  7 31  1  0  0  0  0
  7 32  1  0  0  0  0
  8 13  1  0  0  0  0
  8  9  1  0  0  0  0
  9 10  1  0  0  0  0
  9 33  1  0  0  0  0
  9 34  1  0  0  0  0
 10 11  1  0  0  0  0
 10 35  1  0  0  0  0
 10 36  1  0  0  0  0
 11 12  1  0  0  0  0
 12 13  1  0  0  0  0
 12 37  1  0  0  0  0
 12 38  1  0  0  0  0
 13 39  1  0  0  0  0
 13 40  1  0  0  0  0
 14 15  1  0  0  0  0
 15 22  1  0  0  0  0
 15 16  2  0  0  0  0
 16 17  1  0  0  0  0
 17 18  2  0  0  0  0
 17 19  1  0  0  0  0
 19 20  1  0  0  0  0
 20 21  2  0  0  0  0
 20 22  1  0  0  0  0
 22 23  1  0  0  0  0
 23 41  1  0  0  0  0
 23 42  1  0  0  0  0
 23 43  1  0  0  0  0
M  CHG  1  19  -1
M  END
> <s_m_source_file>
AV-unprocessed.smi

> <i_m_source_file_index>
516

> <i_lp_mmshare_version>
43012

> <i_f3d_flags>
0

> <s_epik_input>
W0NIM11uMWMoPU8pW25IXWMoPU8pYyhjMTIpbihbQ0gyXVtDSDJdT1tDSDNdKWMobjIpW0NIMl1OM1tDSDJdW0NIMl1PW0NIMl1bQ0gyXTM=

> <s_epik_cmdline>
J2VwaWtfcHl0aG9uJywgJy1waCcsICc3LjAnLCAnLXRuJywgJzgnLCAnLW1hJywgJzIwMCcsICctbWV0YWxfYmluZGluZycsICctaW1hZScsICc8aW5maWxlLm1hZT4nLCAnLW9tYWUnLCAnPG91dGZpbGUubWFlPic=

> <r_epik_Ionization_Penalty>
4.87269

> <r_epik_Ionization_Penalty_Charging>
0.0382909

> <r_epik_Ionization_Penalty_Neutral>
4.8344

> <r_epik_State_Penalty>
4.82423

> <r_epik_Charging_Adjusted_Penalty>
4.86252

> <i_epik_Tot_Q>
-1

> <i_epik_Tot_abs_Q>
1

> <r_epik_Metal_State_Penalty>
1.05282

> <b_epik_Metal_Only>
1

> <s_lp_Force_Field>
OPLS_2005

> <r_lp_Energy>
45.4303

> <b_lp_Chiralities_Consistent>
1

> <s_lp_Variant>
AV-unprocessed.smi:516-3

> <Gold.Version>
5.8.1

> <Gold.Id.Protein>
6NUR|6NUR_protein|mol2

> <Gold.PLP.Fitness>
40.7345

> <Gold.PLP.PLP>
-32.8839

> <Gold.PLP.part.hbond>
-3.2626

> <Gold.PLP.part.metal>
0.0000

> <Gold.PLP.part.buried>
-4.9889

> <Gold.PLP.part.nonpolar>
-24.2427

> <Gold.PLP.part.repulsive>
0.0597

> <Gold.PLP.ligand.clash>
0.0000

> <Gold.PLP.ligand.torsion>
0.8335

> <Gold.PLP.Chemscore.Hbond>
3.1696

> <Gold.PLP.Chemscore.CHOScore>
0.0000

> <Gold.PLP.Chemscore.Metal>
0.0000

> <Gold.Chemscore.Hbonds>
donor molecule, donor type, donor heavy atom, donor atom, acceptor molecule, acceptor atom, score
      P1  H  6896  6908       L1    14  0.84
      P1  H  7997  8008       L1    19  2.00
      P1  H  7997  8010       L1    21  0.42

> <Gold.PLP.Chemscore.Internal.Correction>
0.0086

> <Gold.Rescore>
     Score         DG    S(hbond)    S(metal)    S(lipo)     H(rot)  DE(clash)    DE(int)     intcor
     10.88     -13.00       2.11        0.00      47.94       2.00       0.26       1.87       ----

> <Gold.Chemscore.Fitness>
10.8798

> <Gold.Chemscore.DG>
-13.0039

> <Gold.Chemscore.ZeroCoef>
-5.4800

> <Gold.Chemscore.Hbond>
2.1100

> <Gold.Chemscore.Metal>
0.0000

> <Gold.Chemscore.Lipo>
47.9412

> <Gold.Chemscore.Internal_Hbond>
0.0000

> <Gold.Chemscore.DEClash>
0.2566

> <Gold.Chemscore.DEInternal>
1.8675

> <Gold.Chemscore.Rot>
2.0050

> <Gold.Chemscore.Internal.Correction>
   9.000000E+99

> <Gold.Chemscore.Hbonds>
donor molecule, donor type, donor heavy atom, donor atom, acceptor molecule, acceptor atom, score
      P1  H  6896  6908       L1    14  0.15
      P1  H  7997  8008       L1    19  0.42
      P1  H  7997  8010       L1    21  0.36

> <Gold.Chemscore.Hbond.Weighted>
-7.0476

> <Gold.Chemscore.Metal.Weighted>
-0.0000

> <Gold.Chemscore.Lipo.Weighted>
-5.6091

> <Gold.Chemscore.Internal_Hbond.Weighted>
0.0000

> <Gold.Chemscore.DEClash.Weighted>
0.2566

> <Gold.Chemscore.DEInternal.Weighted>
1.8675

> <Gold.Chemscore.Rot.Weighted>
5.1327

> <Gold.Chemscore.Internal.Correction.Weighted>
   9.000000E+99

> <Gold.Protein.RotatedTorsions>
[ 6907 6896 6895 6894 ] final -162.40 input  -60.11 | X-H torsion
[ 7974 7965 7964 7962 ] final    7.71 input  175.53 | X-H torsion
[ 8008 7997 7996 7995 ] final  -47.59 input   59.86 | X-H torsion
[ 10167 10162 10161 10158 ] final  160.26 input  -65.29 | X-H torsion
[ 10718 10713 10712 10709 ] final  113.22 input   66.30 | X-H torsion
[ 10763 10752 10751 10750 ] final  167.31 input  -60.55 | X-H torsion
[ 11005 11000 10999 10996 ] final -124.41 input  -57.11 | X-H torsion

> <Gold.Protein.ActiveResidues>
 VAL166  LYS551  ARG553  GLY616  TRP617  ASP618  TYR619  PRO620  LYS621  CYS622 
 ASP623  PHE694  ASN695  SER759  ASP760  ASP761  ALA762  ILE779  LEU786  VAL792 
 PHE793  MET794  SER795  GLU796  ALA797  LYS798  CYS799  TRP800  GLU811  SER814 

> <Gold.Protein.RotatedAtoms>
  151.3797  133.3826  159.2708 H   0  0  0  0  0  0  0  0  0  0  0  0  # atno 6907 bound_to 6896
  150.9587  134.8979  159.7728 H   0  0  0  0  0  0  0  0  0  0  0  0  # atno 6908 bound_to 6896
  152.5141  134.3755  159.9385 H   0  0  0  0  0  0  0  0  0  0  0  0  # atno 6909 bound_to 6896
  146.2424  140.0042  142.8413 H   0  0  0  0  0  0  0  0  0  0  0  0  # atno 7974 bound_to 7965
  154.4018  140.1342  156.4200 H   0  0  0  0  0  0  0  0  0  0  0  0  # atno 8008 bound_to 7997
  155.7652  140.3485  155.5198 H   0  0  0  0  0  0  0  0  0  0  0  0  # atno 8009 bound_to 7997
  155.8820  140.0989  157.1468 H   0  0  0  0  0  0  0  0  0  0  0  0  # atno 8010 bound_to 7997
  139.4838  144.4651  151.8653 H   0  0  0  0  0  0  0  0  0  0  0  0  # atno 10167 bound_to 10162
  157.6350  131.0980  150.7009 H   0  0  0  0  0  0  0  0  0  0  0  0  # atno 10718 bound_to 10713
  154.3520  135.2753  155.2367 H   0  0  0  0  0  0  0  0  0  0  0  0  # atno 10763 bound_to 10752
  154.4592  135.5911  153.6248 H   0  0  0  0  0  0  0  0  0  0  0  0  # atno 10764 bound_to 10752
  152.9849  135.6061  154.3731 H   0  0  0  0  0  0  0  0  0  0  0  0  # atno 10765 bound_to 10752
  140.9843  134.0629  157.3729 H   0  0  0  0  0  0  0  0  0  0  0  0  # atno 11005 bound_to 11000
  145.1387  140.9559  143.4501 LP  0  0  0  0  0  0  0  0  0  0  0  0  # atno 17320 bound_to 7965
  145.0317  139.3335  143.6021 LP  0  0  0  0  0  0  0  0  0  0  0  0  # atno 17321 bound_to 7965
  140.4115  144.2362  150.5889 LP  0  0  0  0  0  0  0  0  0  0  0  0  # atno 17342 bound_to 10162
  140.4961  143.2332  151.8747 LP  0  0  0  0  0  0  0  0  0  0  0  0  # atno 17343 bound_to 10162
  156.7342  130.4719  149.5492 LP  0  0  0  0  0  0  0  0  0  0  0  0  # atno 17370 bound_to 10713
  156.1582  130.6356  151.0685 LP  0  0  0  0  0  0  0  0  0  0  0  0  # atno 17371 bound_to 10713
  139.8964  135.0145  156.7048 LP  0  0  0  0  0  0  0  0  0  0  0  0  # atno 17394 bound_to 11000
  140.7138  133.9200  155.8102 LP  0  0  0  0  0  0  0  0  0  0  0  0  # atno 17395 bound_to 11000

$$$$
