AV-unprocessed.smi:1597|AV-procd|sdf|6420|dock1
  -GOLD-   22720 7 53D 1   1.00000     0.00000
 Structure written by MMmdl.
 53 54  0  0  0  0  0  0  0  0  2 V2000
  146.9206  140.9226  153.6243 C   0  0  0  0  0  0  0  0  0  0  0  0
  145.7657  140.5199  154.4712 N   0  3  0  0  0  0  0  0  0  0  0  0
  146.0047  139.1636  155.0396 C   0  0  0  0  0  0  0  0  0  0  0  0
  145.2592  141.5691  155.4382 C   0  0  0  0  0  0  0  0  0  0  0  0
  146.2063  141.5765  156.6849 C   0  0  0  0  0  0  0  0  0  0  0  0
  147.5788  141.9599  156.3614 N   0  0  0  0  0  0  0  0  0  0  0  0
  148.6757  141.1880  156.4267 C   0  0  0  0  0  0  0  0  0  0  0  0
  148.6427  140.0078  156.7698 O   0  0  0  0  0  0  0  0  0  0  0  0
  150.0284  141.8339  156.0800 C   0  0  0  0  0  0  0  0  0  0  0  0
  150.9435  141.9796  157.2236 N   0  0  0  0  0  0  0  0  0  0  0  0
  151.1217  143.2258  157.7970 C   0  0  0  0  0  0  0  0  0  0  0  0
  151.9615  143.4582  158.8291 C   0  0  0  0  0  0  0  0  0  0  0  0
  152.7480  142.3771  159.4089 C   0  0  0  0  0  0  0  0  0  0  0  0
  153.5245  142.5342  160.3519 O   0  0  0  0  0  0  0  0  0  0  0  0
  152.5516  141.1152  158.8033 N   0  0  0  0  0  0  0  0  0  0  0  0
  153.3123  140.0120  159.3524 C   0  0  0  0  0  0  0  0  0  0  0  0
  151.6650  140.8748  157.7278 C   0  0  0  0  0  0  0  0  0  0  0  0
  151.5187  139.7579  157.2271 O   0  0  0  0  0  0  0  0  0  0  0  0
  145.3118  142.9753  154.7493 C   0  0  0  0  0  0  0  0  0  0  0  0
  144.1972  144.0027  155.0264 C   0  0  0  0  0  0  0  0  0  0  0  0
  143.8497  144.2615  156.4974 C   0  0  0  0  0  0  0  0  0  0  0  0
  142.7732  143.3022  157.0182 C   0  0  0  0  0  0  0  0  0  0  0  0
  143.2346  141.8495  157.1770 C   0  0  0  0  0  0  0  0  0  0  0  0
  143.8061  141.1863  155.9006 C   0  0  0  0  0  0  0  0  0  0  0  0
  147.7755  141.2280  154.2278 H   0  0  0  0  0  0  0  0  0  0  0  0
  146.6715  141.7340  152.9418 H   0  0  0  0  0  0  0  0  0  0  0  0
  147.2419  140.0927  152.9941 H   0  0  0  0  0  0  0  0  0  0  0  0
  146.8992  139.1316  155.6612 H   0  0  0  0  0  0  0  0  0  0  0  0
  146.1520  138.4480  154.2302 H   0  0  0  0  0  0  0  0  0  0  0  0
  145.1742  138.7839  155.6290 H   0  0  0  0  0  0  0  0  0  0  0  0
  145.8282  142.1948  157.4973 H   0  0  0  0  0  0  0  0  0  0  0  0
  146.2562  140.5865  157.1327 H   0  0  0  0  0  0  0  0  0  0  0  0
  147.7110  142.9151  156.0604 H   0  0  0  0  0  0  0  0  0  0  0  0
  150.5068  141.2259  155.3107 H   0  0  0  0  0  0  0  0  0  0  0  0
  149.8455  142.8010  155.6091 H   0  0  0  0  0  0  0  0  0  0  0  0
  150.5639  144.0605  157.3978 H   0  0  0  0  0  0  0  0  0  0  0  0
  152.0536  144.4567  159.2305 H   0  0  0  0  0  0  0  0  0  0  0  0
  153.1968  139.1114  158.7506 H   0  0  0  0  0  0  0  0  0  0  0  0
  152.9425  139.8425  160.3649 H   0  0  0  0  0  0  0  0  0  0  0  0
  154.3635  140.3063  159.3565 H   0  0  0  0  0  0  0  0  0  0  0  0
  146.2739  143.4431  154.9625 H   0  0  0  0  0  0  0  0  0  0  0  0
  145.3028  142.8602  153.6664 H   0  0  0  0  0  0  0  0  0  0  0  0
  144.5135  144.9475  154.5827 H   0  0  0  0  0  0  0  0  0  0  0  0
  143.2958  143.7260  154.4782 H   0  0  0  0  0  0  0  0  0  0  0  0
  144.7385  144.2545  157.1272 H   0  0  0  0  0  0  0  0  0  0  0  0
  143.4476  145.2725  156.5736 H   0  0  0  0  0  0  0  0  0  0  0  0
  142.4234  143.6599  157.9872 H   0  0  0  0  0  0  0  0  0  0  0  0
  141.9035  143.3382  156.3611 H   0  0  0  0  0  0  0  0  0  0  0  0
  143.9167  141.7670  158.0210 H   0  0  0  0  0  0  0  0  0  0  0  0
  142.3621  141.2714  157.4837 H   0  0  0  0  0  0  0  0  0  0  0  0
  143.0952  141.3417  155.0882 H   0  0  0  0  0  0  0  0  0  0  0  0
  143.7865  140.1131  156.0974 H   0  0  0  0  0  0  0  0  0  0  0  0
  145.0036  140.3926  153.8203 H   0  0  0  0  0  0  0  0  0  0  0  0
  1  2  1  0  0  0  0
  1 25  1  0  0  0  0
  1 26  1  0  0  0  0
  1 27  1  0  0  0  0
  2  3  1  0  0  0  0
  2  4  1  0  0  0  0
  2 53  1  0  0  0  0
  3 28  1  0  0  0  0
  3 29  1  0  0  0  0
  3 30  1  0  0  0  0
  4 24  1  0  0  0  0
  4  5  1  0  0  0  0
  4 19  1  0  0  0  0
  5  6  1  0  0  0  0
  5 31  1  0  0  0  0
  5 32  1  0  0  0  0
  6  7  1  0  0  0  0
  6 33  1  0  0  0  0
  7  8  2  0  0  0  0
  7  9  1  0  0  0  0
  9 10  1  0  0  0  0
  9 34  1  0  0  0  0
  9 35  1  0  0  0  0
 10 17  1  0  0  0  0
 10 11  1  0  0  0  0
 11 12  2  0  0  0  0
 11 36  1  0  0  0  0
 12 13  1  0  0  0  0
 12 37  1  0  0  0  0
 13 14  2  0  0  0  0
 13 15  1  0  0  0  0
 15 16  1  0  0  0  0
 15 17  1  0  0  0  0
 16 38  1  0  0  0  0
 16 39  1  0  0  0  0
 16 40  1  0  0  0  0
 17 18  2  0  0  0  0
 19 20  1  0  0  0  0
 19 41  1  0  0  0  0
 19 42  1  0  0  0  0
 20 21  1  0  0  0  0
 20 43  1  0  0  0  0
 20 44  1  0  0  0  0
 21 22  1  0  0  0  0
 21 45  1  0  0  0  0
 21 46  1  0  0  0  0
 22 23  1  0  0  0  0
 22 47  1  0  0  0  0
 22 48  1  0  0  0  0
 23 24  1  0  0  0  0
 23 49  1  0  0  0  0
 23 50  1  0  0  0  0
 24 51  1  0  0  0  0
 24 52  1  0  0  0  0
M  CHG  1   2   1
M  END
> <s_m_source_file>
AV-unprocessed.smi

> <i_m_source_file_index>
1597

> <i_lp_mmshare_version>
43012

> <i_f3d_flags>
0

> <s_epik_input>
W0NIMl0xW0NIMl1bQ0gyXVtDSDJdW0NIMl1bQ0gyXUMxKE4oW0NIM10pW0NIM10pW0NIMl1bTkhdQyg9TylbQ0gyXW4yW2NIXVtjSF1jKD1PKW4oW0NIM10pYzI9Tw==

> <s_epik_cmdline>
J2VwaWtfcHl0aG9uJywgJy1waCcsICc3LjAnLCAnLXRuJywgJzgnLCAnLW1hJywgJzIwMCcsICctbWV0YWxfYmluZGluZycsICctaW1hZScsICc8aW5maWxlLm1hZT4nLCAnLW9tYWUnLCAnPG91dGZpbGUubWFlPic=

> <r_lp_tautomer_probability>
1

> <r_epik_Ionization_Penalty>
0.00225783

> <r_epik_Ionization_Penalty_Charging>
0.00225776

> <r_epik_Ionization_Penalty_Neutral>
7.38919e-08

> <r_epik_State_Penalty>
0.00155497

> <r_epik_Charging_Adjusted_Penalty>
0.00381272

> <i_epik_Tot_Q>
1

> <i_epik_Tot_abs_Q>
1

> <r_epik_Metal_State_Penalty>
-0

> <b_epik_Metal_Only>
0

> <s_lp_Force_Field>
OPLS_2005

> <r_lp_Energy>
50.4542

> <b_lp_Chiralities_Consistent>
1

> <s_lp_Variant>
AV-unprocessed.smi:1597-1

> <Gold.Version>
5.8.1

> <Gold.Id.Protein>
6NUR|6NUR_protein|mol2

> <Gold.PLP.Fitness>
50.3805

> <Gold.PLP.PLP>
-39.4541

> <Gold.PLP.part.hbond>
-2.0000

> <Gold.PLP.part.metal>
0.0000

> <Gold.PLP.part.buried>
-5.0340

> <Gold.PLP.part.nonpolar>
-33.0337

> <Gold.PLP.part.repulsive>
0.0579

> <Gold.PLP.ligand.clash>
0.0000

> <Gold.PLP.ligand.torsion>
0.6372

> <Gold.PLP.Chemscore.Hbond>
3.0000

> <Gold.PLP.Chemscore.CHOScore>
1.0000

> <Gold.PLP.Chemscore.Metal>
0.0000

> <Gold.Chemscore.Hbonds>
donor molecule, donor type, donor heavy atom, donor atom, acceptor molecule, acceptor atom, score
      L1  H     2    53       P1 10175  2.00
      L1  H     6    33       P1  8028  0.67
      L1  C    11    36       P1  8028  1.00

> <Gold.PLP.Chemscore.Internal.Correction>
0.2008

> <Gold.Rescore>
     Score         DG    S(hbond)    S(metal)    S(lipo)     H(rot)  DE(clash)    DE(int)     intcor
     14.00     -14.95       1.71        0.00      76.31       2.02       0.04       0.91       ----

> <Gold.Chemscore.Fitness>
14.0014

> <Gold.Chemscore.DG>
-14.9477

> <Gold.Chemscore.ZeroCoef>
-5.4800

> <Gold.Chemscore.Hbond>
1.7126

> <Gold.Chemscore.Metal>
0.0000

> <Gold.Chemscore.Lipo>
76.3085

> <Gold.Chemscore.Internal_Hbond>
0.0000

> <Gold.Chemscore.DEClash>
0.0361

> <Gold.Chemscore.DEInternal>
0.9102

> <Gold.Chemscore.Rot>
2.0236

> <Gold.Chemscore.Internal.Correction>
   9.000000E+99

> <Gold.Chemscore.Hbonds>
donor molecule, donor type, donor heavy atom, donor atom, acceptor molecule, acceptor atom, score
      L1  H     2    53       P1 10175  1.00
      L1  H     6    33       P1  8028  0.20

> <Gold.Chemscore.Hbond.Weighted>
-5.7199

> <Gold.Chemscore.Metal.Weighted>
-0.0000

> <Gold.Chemscore.Lipo.Weighted>
-8.9281

> <Gold.Chemscore.Internal_Hbond.Weighted>
0.0000

> <Gold.Chemscore.DEClash.Weighted>
0.0361

> <Gold.Chemscore.DEInternal.Weighted>
0.9102

> <Gold.Chemscore.Rot.Weighted>
5.1803

> <Gold.Chemscore.Internal.Correction.Weighted>
   9.000000E+99

> <Gold.Protein.RotatedTorsions>
[ 6907 6896 6895 6894 ] final   66.29 input  -60.11 | X-H torsion
[ 7974 7965 7964 7962 ] final -112.11 input  175.53 | X-H torsion
[ 8008 7997 7996 7995 ] final  -97.97 input   59.86 | X-H torsion
[ 10167 10162 10161 10158 ] final   21.33 input  -65.29 | X-H torsion
[ 10718 10713 10712 10709 ] final  139.24 input   66.30 | X-H torsion
[ 10763 10752 10751 10750 ] final   20.98 input  -60.55 | X-H torsion
[ 11005 11000 10999 10996 ] final -141.61 input  -57.11 | X-H torsion

> <Gold.Protein.ActiveResidues>
 VAL166  LYS551  ARG553  GLY616  TRP617  ASP618  TYR619  PRO620  LYS621  CYS622 
 ASP623  PHE694  ASN695  SER759  ASP760  ASP761  ALA762  ILE779  LEU786  VAL792 
 PHE793  MET794  SER795  GLU796  ALA797  LYS798  CYS799  TRP800  GLU811  SER814 

> <Gold.Protein.RotatedAtoms>
  152.4470  134.5474  159.9856 H   0  0  0  0  0  0  0  0  0  0  0  0  # atno 6907 bound_to 6896
  151.5556  133.3405  159.2969 H   0  0  0  0  0  0  0  0  0  0  0  0  # atno 6908 bound_to 6896
  150.8388  134.7705  159.6979 H   0  0  0  0  0  0  0  0  0  0  0  0  # atno 6909 bound_to 6896
  145.1480  140.8814  143.3663 H   0  0  0  0  0  0  0  0  0  0  0  0  # atno 7974 bound_to 7965
  154.7949  140.0459  157.1229 H   0  0  0  0  0  0  0  0  0  0  0  0  # atno 8008 bound_to 7997
  154.9547  140.3069  155.5039 H   0  0  0  0  0  0  0  0  0  0  0  0  # atno 8009 bound_to 7997
  156.2954  140.2281  156.4627 H   0  0  0  0  0  0  0  0  0  0  0  0  # atno 8010 bound_to 7997
  140.5435  143.9635  150.6533 H   0  0  0  0  0  0  0  0  0  0  0  0  # atno 10167 bound_to 10162
  157.4165  131.1034  151.0399 H   0  0  0  0  0  0  0  0  0  0  0  0  # atno 10718 bound_to 10713
  153.1032  135.6678  153.9634 H   0  0  0  0  0  0  0  0  0  0  0  0  # atno 10763 bound_to 10752
  153.9198  135.3016  155.3449 H   0  0  0  0  0  0  0  0  0  0  0  0  # atno 10764 bound_to 10752
  154.7453  135.5060  153.9269 H   0  0  0  0  0  0  0  0  0  0  0  0  # atno 10765 bound_to 10752
  140.8307  134.2520  157.4858 H   0  0  0  0  0  0  0  0  0  0  0  0  # atno 11005 bound_to 11000
  145.0461  139.3219  143.5952 LP  0  0  0  0  0  0  0  0  0  0  0  0  # atno 17320 bound_to 7965
  146.3498  139.9853  142.8691 LP  0  0  0  0  0  0  0  0  0  0  0  0  # atno 17321 bound_to 7965
  140.3042  143.3240  152.0942 LP  0  0  0  0  0  0  0  0  0  0  0  0  # atno 17342 bound_to 10162
  139.4998  144.6677  151.6316 LP  0  0  0  0  0  0  0  0  0  0  0  0  # atno 17343 bound_to 10162
  157.1344  130.6116  149.5538 LP  0  0  0  0  0  0  0  0  0  0  0  0  # atno 17370 bound_to 10713
  155.9867  130.4903  150.7090 LP  0  0  0  0  0  0  0  0  0  0  0  0  # atno 17371 bound_to 10713
  139.8705  134.9585  156.4301 LP  0  0  0  0  0  0  0  0  0  0  0  0  # atno 17394 bound_to 11000
  140.9001  133.7786  155.9670 LP  0  0  0  0  0  0  0  0  0  0  0  0  # atno 17395 bound_to 11000

$$$$
