AV-unprocessed.smi:22|AV-procd|sdf|169|dock8
  -GOLD-   2262015423D 1   1.00000     0.00000
 Structure written by MMmdl.
 56 59  0  0  0  0  0  0  0  0  2 V2000
  144.2383  134.9959  150.2823 C   0  0  0  0  0  0  0  0  0  0  0  0
  144.8777  133.6629  150.1615 N   0  3  2  0  0  0  0  0  0  0  0  0
  143.9654  132.6363  149.5871 C   0  0  0  0  0  0  0  0  0  0  0  0
  143.9387  132.6777  148.0501 C   0  0  0  0  0  0  0  0  0  0  0  0
  143.4021  133.9077  147.6113 O   0  0  0  0  0  0  0  0  0  0  0  0
  145.5863  133.2554  151.4099 C   0  0  0  0  0  0  0  0  0  0  0  0
  146.5453  134.3544  151.9130 C   0  0  0  0  0  0  0  0  0  0  0  0
  147.2203  133.9322  153.2281 C   0  0  0  0  0  0  0  0  0  0  0  0
  147.8810  132.6355  153.0808 N   0  0  0  0  0  0  0  0  0  0  0  0
  148.8035  132.3546  154.0363 C   0  0  0  0  0  0  0  0  0  0  0  0
  148.9862  133.2118  155.0765 N   0  0  0  0  0  0  0  0  0  0  0  0
  149.8973  132.9469  156.0175 C   0  0  0  0  0  0  0  0  0  0  0  0
  150.7186  131.8997  156.1123 N   0  0  0  0  0  0  0  0  0  0  0  0
  150.5370  131.0327  155.0756 C   0  0  0  0  0  0  0  0  0  0  0  0
  149.6092  131.1812  154.0060 C   0  0  0  0  0  0  0  0  0  0  0  0
  149.6990  130.0915  153.1479 N   0  0  0  0  0  0  0  0  0  0  0  0
  150.6337  129.3477  153.6739 C   0  0  0  0  0  0  0  0  0  0  0  0
  151.1956  129.8406  154.8299 N   0  0  0  0  0  0  0  0  0  0  0  0
  152.2486  129.2194  155.6186 C   0  0  0  0  0  0  0  0  0  0  0  0
  153.6053  129.1462  154.8806 C   0  0  1  0  0  0  0  0  0  0  0  0
  153.5218  128.1654  153.8605 O   0  0  0  0  0  0  0  0  0  0  0  0
  154.0467  130.4643  154.2508 C   0  0  0  0  0  0  0  0  0  0  0  0
  155.5644  130.3911  154.3410 C   0  0  0  0  0  0  0  0  0  0  0  0
  155.7691  129.8004  155.6132 O   0  0  0  0  0  0  0  0  0  0  0  0
  154.7862  128.7878  155.8053 C   0  0  0  0  0  0  0  0  0  0  0  0
  147.0164  131.5456  152.6247 C   0  0  0  0  0  0  0  0  0  0  0  0
  146.3348  131.9072  151.2946 C   0  0  0  0  0  0  0  0  0  0  0  0
  143.4156  134.9763  150.9976 H   0  0  0  0  0  0  0  0  0  0  0  0
  143.8434  135.3349  149.3254 H   0  0  0  0  0  0  0  0  0  0  0  0
  144.9588  135.7445  150.6130 H   0  0  0  0  0  0  0  0  0  0  0  0
  144.2624  131.6330  149.8899 H   0  0  0  0  0  0  0  0  0  0  0  0
  142.9598  132.7827  149.9838 H   0  0  0  0  0  0  0  0  0  0  0  0
  144.9537  132.5914  147.6619 H   0  0  0  0  0  0  0  0  0  0  0  0
  143.3669  131.8536  147.6250 H   0  0  0  0  0  0  0  0  0  0  0  0
  144.1026  134.5407  147.5562 H   0  0  0  0  0  0  0  0  0  0  0  0
  144.8264  133.1438  152.1853 H   0  0  0  0  0  0  0  0  0  0  0  0
  147.3208  134.5641  151.1767 H   0  0  0  0  0  0  0  0  0  0  0  0
  146.0023  135.2881  152.0636 H   0  0  0  0  0  0  0  0  0  0  0  0
  147.9208  134.7070  153.5378 H   0  0  0  0  0  0  0  0  0  0  0  0
  146.4743  133.8548  154.0202 H   0  0  0  0  0  0  0  0  0  0  0  0
  149.9810  133.6794  156.8067 H   0  0  0  0  0  0  0  0  0  0  0  0
  150.9440  128.4136  153.2284 H   0  0  0  0  0  0  0  0  0  0  0  0
  152.3573  129.7832  156.5462 H   0  0  0  0  0  0  0  0  0  0  0  0
  151.9188  128.2201  155.9064 H   0  0  0  0  0  0  0  0  0  0  0  0
  153.2393  128.5868  153.0631 H   0  0  0  0  0  0  0  0  0  0  0  0
  153.6801  130.6139  153.2342 H   0  0  0  0  0  0  0  0  0  0  0  0
  153.7033  131.3051  154.8546 H   0  0  0  0  0  0  0  0  0  0  0  0
  155.9749  129.7452  153.5631 H   0  0  0  0  0  0  0  0  0  0  0  0
  156.0407  131.3690  154.2681 H   0  0  0  0  0  0  0  0  0  0  0  0
  154.4990  128.7678  156.8570 H   0  0  0  0  0  0  0  0  0  0  0  0
  155.2145  127.8128  155.5672 H   0  0  0  0  0  0  0  0  0  0  0  0
  147.5994  130.6328  152.4946 H   0  0  0  0  0  0  0  0  0  0  0  0
  146.2631  131.3413  153.3871 H   0  0  0  0  0  0  0  0  0  0  0  0
  145.6496  131.1083  151.0112 H   0  0  0  0  0  0  0  0  0  0  0  0
  147.0971  131.9534  150.5166 H   0  0  0  0  0  0  0  0  0  0  0  0
  145.6129  133.7779  149.4780 H   0  0  0  0  0  0  0  0  0  0  0  0
  1  2  1  0  0  0  0
  1 28  1  0  0  0  0
  1 29  1  0  0  0  0
  1 30  1  0  0  0  0
  2  3  1  0  0  0  0
  2  6  1  0  0  0  0
  2 56  1  0  0  0  0
  3  4  1  0  0  0  0
  3 31  1  0  0  0  0
  3 32  1  0  0  0  0
  4  5  1  0  0  0  0
  4 33  1  0  0  0  0
  4 34  1  0  0  0  0
  5 35  1  0  0  0  0
  6 27  1  0  0  0  0
  6  7  1  0  0  0  0
  6 36  1  0  0  0  0
  7  8  1  0  0  0  0
  7 37  1  0  0  0  0
  7 38  1  0  0  0  0
  8  9  1  0  0  0  0
  8 39  1  0  0  0  0
  8 40  1  0  0  0  0
  9 10  1  0  0  0  0
  9 26  1  0  0  0  0
 10 15  1  0  0  0  0
 10 11  2  0  0  0  0
 11 12  1  0  0  0  0
 12 13  2  0  0  0  0
 12 41  1  0  0  0  0
 13 14  1  0  0  0  0
 14 18  1  0  0  0  0
 14 15  2  0  0  0  0
 15 16  1  0  0  0  0
 16 17  2  0  0  0  0
 17 18  1  0  0  0  0
 17 42  1  0  0  0  0
 18 19  1  0  0  0  0
 19 20  1  0  0  0  0
 19 43  1  0  0  0  0
 19 44  1  0  0  0  0
 20 25  1  0  0  0  0
 20 21  1  0  0  0  0
 20 22  1  0  0  0  0
 21 45  1  0  0  0  0
 22 23  1  0  0  0  0
 22 46  1  0  0  0  0
 22 47  1  0  0  0  0
 23 24  1  0  0  0  0
 23 48  1  0  0  0  0
 23 49  1  0  0  0  0
 24 25  1  0  0  0  0
 25 50  1  0  0  0  0
 25 51  1  0  0  0  0
 26 27  1  0  0  0  0
 26 52  1  0  0  0  0
 26 53  1  0  0  0  0
 27 54  1  0  0  0  0
 27 55  1  0  0  0  0
M  CHG  1   2   1
M  END
> <s_m_source_file>
AV-unprocessed.smi

> <i_m_source_file_index>
22

> <i_lp_mmshare_version>
43012

> <i_f3d_flags>
0

> <s_epik_input>
W09IXVtDSDJdW0NIMl1OKFtDSDNdKVtDSF0xW0NIMl1bQ0gyXU4oW0NIMl1bQ0gyXTEpYyhuW2NIXW4yKWMoYzIzKW5bY0hdbjNbQ0gyXVtDQEBdNChbT0hdKVtDSDJdW0NIMl1PW0NIMl00

> <s_epik_cmdline>
J2VwaWtfcHl0aG9uJywgJy1waCcsICc3LjAnLCAnLXRuJywgJzgnLCAnLW1hJywgJzIwMCcsICctbWV0YWxfYmluZGluZycsICctaW1hZScsICc8aW5maWxlLm1hZT4nLCAnLW9tYWUnLCAnPG91dGZpbGUubWFlPic=

> <r_lp_tautomer_probability>
1

> <r_epik_Ionization_Penalty>
0.00317524

> <r_epik_Ionization_Penalty_Charging>
0.00191487

> <r_epik_Ionization_Penalty_Neutral>
0.00126037

> <r_epik_State_Penalty>
-0

> <r_epik_Charging_Adjusted_Penalty>
0.00191487

> <i_epik_Tot_Q>
1

> <i_epik_Tot_abs_Q>
1

> <r_epik_Metal_State_Penalty>
-0

> <b_epik_Metal_Only>
0

> <s_lp_Force_Field>
OPLS_2005

> <r_lp_Energy>
45.1339

> <b_lp_Chiralities_Consistent>
1

> <s_lp_Variant>
AV-unprocessed.smi:22-1

> <Gold.Version>
5.8.1

> <Gold.Id.Protein>
6NUR|6NUR_protein|mol2

> <Gold.PLP.Fitness>
54.7015

> <Gold.PLP.PLP>
-43.7134

> <Gold.PLP.part.hbond>
-5.4684

> <Gold.PLP.part.metal>
0.0000

> <Gold.PLP.part.buried>
-0.4809

> <Gold.PLP.part.nonpolar>
-35.9309

> <Gold.PLP.part.repulsive>
0.3516

> <Gold.PLP.ligand.clash>
0.0000

> <Gold.PLP.ligand.torsion>
0.7708

> <Gold.PLP.Chemscore.Hbond>
3.3055

> <Gold.PLP.Chemscore.CHOScore>
0.6790

> <Gold.PLP.Chemscore.Metal>
0.0000

> <Gold.Chemscore.Hbonds>
donor molecule, donor type, donor heavy atom, donor atom, acceptor molecule, acceptor atom, score
      L1  H     2    56       P1  7921  0.57
      L1  H     5    35       P1  7921  0.91
      L1  H    21    45       P1 10737  0.02
      P1  H 10192 10197       L1     5  0.75
      L1  C    17    42       P1 10737  0.89

> <Gold.PLP.Chemscore.Internal.Correction>
0.5762

> <Gold.Rescore>
     Score         DG    S(hbond)    S(metal)    S(lipo)     H(rot)  DE(clash)    DE(int)     intcor
     14.47     -17.04       3.24        0.00      88.40       3.76       0.48       2.08       ----

> <Gold.Chemscore.Fitness>
14.4741

> <Gold.Chemscore.DG>
-17.0369

> <Gold.Chemscore.ZeroCoef>
-5.4800

> <Gold.Chemscore.Hbond>
3.2441

> <Gold.Chemscore.Metal>
0.0000

> <Gold.Chemscore.Lipo>
88.4002

> <Gold.Chemscore.Internal_Hbond>
0.0000

> <Gold.Chemscore.DEClash>
0.4798

> <Gold.Chemscore.DEInternal>
2.0830

> <Gold.Chemscore.Rot>
3.7583

> <Gold.Chemscore.Internal.Correction>
   9.000000E+99

> <Gold.Chemscore.Hbonds>
donor molecule, donor type, donor heavy atom, donor atom, acceptor molecule, acceptor atom, score
      L1  H     2    56       P1  7921  0.25
      L1  H     5    35       P1  7921  0.85
      P1  H 10192 10197       L1     5  0.09

> <Gold.Chemscore.Hbond.Weighted>
-10.8353

> <Gold.Chemscore.Metal.Weighted>
-0.0000

> <Gold.Chemscore.Lipo.Weighted>
-10.3428

> <Gold.Chemscore.Internal_Hbond.Weighted>
0.0000

> <Gold.Chemscore.DEClash.Weighted>
0.4798

> <Gold.Chemscore.DEInternal.Weighted>
2.0830

> <Gold.Chemscore.Rot.Weighted>
9.6213

> <Gold.Chemscore.Internal.Correction.Weighted>
   9.000000E+99

> <Gold.Protein.RotatedTorsions>
[ 6907 6896 6895 6894 ] final   11.46 input  -60.11 | X-H torsion
[ 7974 7965 7964 7962 ] final  -70.68 input  175.53 | X-H torsion
[ 8008 7997 7996 7995 ] final  151.26 input   59.86 | X-H torsion
[ 10167 10162 10161 10158 ] final   63.33 input  -65.29 | X-H torsion
[ 10718 10713 10712 10709 ] final  163.93 input   66.30 | X-H torsion
[ 10763 10752 10751 10750 ] final   19.33 input  -60.55 | X-H torsion
[ 11005 11000 10999 10996 ] final   74.26 input  -57.11 | X-H torsion

> <Gold.Protein.ActiveResidues>
 VAL166  LYS551  ARG553  GLY616  TRP617  ASP618  TYR619  PRO620  LYS621  CYS622 
 ASP623  PHE694  ASN695  SER759  ASP760  ASP761  ALA762  ILE779  LEU786  VAL792 
 PHE793  MET794  SER795  GLU796  ALA797  LYS798  CYS799  TRP800  GLU811  SER814 

> <Gold.Protein.RotatedAtoms>
  151.7546  135.0824  160.0335 H   0  0  0  0  0  0  0  0  0  0  0  0  # atno 6907 bound_to 6896
  152.3394  133.6044  159.5874 H   0  0  0  0  0  0  0  0  0  0  0  0  # atno 6908 bound_to 6896
  150.7470  133.9662  159.3573 H   0  0  0  0  0  0  0  0  0  0  0  0  # atno 6909 bound_to 6896
  145.6878  140.9164  143.0798 H   0  0  0  0  0  0  0  0  0  0  0  0  # atno 7974 bound_to 7965
  156.2681  140.2052  156.6148 H   0  0  0  0  0  0  0  0  0  0  0  0  # atno 8008 bound_to 7997
  154.6803  140.0540  157.0283 H   0  0  0  0  0  0  0  0  0  0  0  0  # atno 8009 bound_to 7997
  155.1010  140.3206  155.4550 H   0  0  0  0  0  0  0  0  0  0  0  0  # atno 8010 bound_to 7997
  140.1342  144.4614  150.6847 H   0  0  0  0  0  0  0  0  0  0  0  0  # atno 10167 bound_to 10162
  157.1015  131.0444  151.2496 H   0  0  0  0  0  0  0  0  0  0  0  0  # atno 10718 bound_to 10713
  153.1172  135.6710  153.9398 H   0  0  0  0  0  0  0  0  0  0  0  0  # atno 10763 bound_to 10752
  153.8924  135.3045  155.3449 H   0  0  0  0  0  0  0  0  0  0  0  0  # atno 10764 bound_to 10752
  154.7587  135.4999  153.9501 H   0  0  0  0  0  0  0  0  0  0  0  0  # atno 10765 bound_to 10752
  139.9400  134.7417  156.1126 H   0  0  0  0  0  0  0  0  0  0  0  0  # atno 11005 bound_to 11000
  144.7006  139.8781  143.7445 LP  0  0  0  0  0  0  0  0  0  0  0  0  # atno 17320 bound_to 7965
  146.0908  139.3898  143.0407 LP  0  0  0  0  0  0  0  0  0  0  0  0  # atno 17321 bound_to 7965
  140.6799  143.2322  151.5412 LP  0  0  0  0  0  0  0  0  0  0  0  0  # atno 17342 bound_to 10162
  139.5504  144.2411  152.1520 LP  0  0  0  0  0  0  0  0  0  0  0  0  # atno 17343 bound_to 10162
  157.4637  130.7668  149.7259 LP  0  0  0  0  0  0  0  0  0  0  0  0  # atno 17370 bound_to 10713
  155.9872  130.3968  150.3174 LP  0  0  0  0  0  0  0  0  0  0  0  0  # atno 17371 bound_to 10713
  141.1030  133.6670  156.2798 LP  0  0  0  0  0  0  0  0  0  0  0  0  # atno 17394 bound_to 11000
  140.5977  134.5586  157.5512 LP  0  0  0  0  0  0  0  0  0  0  0  0  # atno 17395 bound_to 11000

$$$$
