AV-unprocessed.smi:1239|AV-procd|sdf|5192|dock6
  -GOLD-   22720 4273D 1   1.00000     0.00000
 Structure written by MMmdl.
 48 49  0  0  0  0  0  0  0  0  2 V2000
  150.3913  134.6526  156.4623 C   0  0  0  0  0  0  0  0  0  0  0  0
  149.7653  135.6744  155.4805 C   0  0  1  0  0  0  0  0  0  0  0  0
  150.8669  136.5961  154.8924 C   0  0  0  0  0  0  0  0  0  0  0  0
  151.6192  137.2978  155.9267 N   0  0  0  0  0  0  0  0  0  0  0  0
  151.3127  138.5176  156.3875 C   0  0  0  0  0  0  0  0  0  0  0  0
  150.3558  139.1703  155.9729 O   0  0  0  0  0  0  0  0  0  0  0  0
  152.1778  138.9048  157.3411 N   0  0  0  0  0  0  0  0  0  0  0  0
  152.2133  140.1081  158.0996 C   0  0  0  0  0  0  0  0  0  0  0  0
  152.7268  140.2299  159.4121 C   0  0  0  0  0  0  0  0  0  0  0  0
  152.6962  141.4874  160.0451 C   0  0  0  0  0  0  0  0  0  0  0  0
  152.1531  142.6007  159.3574 C   0  0  0  0  0  0  0  0  0  0  0  0
  152.1021  143.8825  159.9514 N   0  0  0  0  0  0  0  0  0  0  0  0
  151.9240  145.0646  159.1142 C   0  0  0  0  0  0  0  0  0  0  0  0
  152.1956  144.0242  161.3993 C   0  0  0  0  0  0  0  0  0  0  0  0
  151.6609  142.4768  158.1008 N   0  0  0  0  0  0  0  0  0  0  0  0
  151.6918  141.2704  157.4983 C   0  0  0  0  0  0  0  0  0  0  0  0
  148.9626  134.9950  154.4076 N   0  3  0  0  0  0  0  0  0  0  0  0
  149.4974  133.6587  154.0193 C   0  0  0  0  0  0  0  0  0  0  0  0
  148.6459  133.0014  152.9204 C   0  0  0  0  0  0  0  0  0  0  0  0
  147.3010  132.8937  153.3568 O   0  0  0  0  0  0  0  0  0  0  0  0
  146.7379  134.1731  153.5956 C   0  0  0  0  0  0  0  0  0  0  0  0
  147.5099  134.8797  154.7224 C   0  0  0  0  0  0  0  0  0  0  0  0
  151.0370  135.1283  157.1997 H   0  0  0  0  0  0  0  0  0  0  0  0
  150.9922  133.9124  155.9328 H   0  0  0  0  0  0  0  0  0  0  0  0
  149.6382  134.1249  157.0459 H   0  0  0  0  0  0  0  0  0  0  0  0
  149.0796  136.3027  156.0515 H   0  0  0  0  0  0  0  0  0  0  0  0
  151.5533  136.0136  154.2753 H   0  0  0  0  0  0  0  0  0  0  0  0
  150.4382  137.3719  154.2596 H   0  0  0  0  0  0  0  0  0  0  0  0
  152.4214  136.8249  156.3167 H   0  0  0  0  0  0  0  0  0  0  0  0
  152.9042  138.2412  157.5670 H   0  0  0  0  0  0  0  0  0  0  0  0
  153.1423  139.3968  159.9548 H   0  0  0  0  0  0  0  0  0  0  0  0
  153.0916  141.5708  161.0458 H   0  0  0  0  0  0  0  0  0  0  0  0
  152.7293  145.1420  158.3829 H   0  0  0  0  0  0  0  0  0  0  0  0
  151.9267  145.9782  159.7092 H   0  0  0  0  0  0  0  0  0  0  0  0
  150.9743  145.0162  158.5804 H   0  0  0  0  0  0  0  0  0  0  0  0
  151.3904  143.4774  161.8909 H   0  0  0  0  0  0  0  0  0  0  0  0
  152.1205  145.0687  161.7026 H   0  0  0  0  0  0  0  0  0  0  0  0
  153.1503  143.6412  161.7613 H   0  0  0  0  0  0  0  0  0  0  0  0
  151.2849  141.2350  156.4981 H   0  0  0  0  0  0  0  0  0  0  0  0
  150.5105  133.7403  153.6298 H   0  0  0  0  0  0  0  0  0  0  0  0
  149.5370  133.0118  154.8970 H   0  0  0  0  0  0  0  0  0  0  0  0
  148.6987  133.5718  151.9915 H   0  0  0  0  0  0  0  0  0  0  0  0
  149.0245  132.0029  152.7011 H   0  0  0  0  0  0  0  0  0  0  0  0
  146.7491  134.7686  152.6813 H   0  0  0  0  0  0  0  0  0  0  0  0
  145.6925  134.0493  153.8791 H   0  0  0  0  0  0  0  0  0  0  0  0
  147.3803  134.3374  155.6603 H   0  0  0  0  0  0  0  0  0  0  0  0
  147.0549  135.8603  154.8477 H   0  0  0  0  0  0  0  0  0  0  0  0
  149.0297  135.5783  153.5855 H   0  0  0  0  0  0  0  0  0  0  0  0
  1  2  1  0  0  0  0
  1 23  1  0  0  0  0
  1 24  1  0  0  0  0
  1 25  1  0  0  0  0
  2  3  1  0  0  0  0
  2 17  1  0  0  0  0
  2 26  1  0  0  0  0
  3  4  1  0  0  0  0
  3 27  1  0  0  0  0
  3 28  1  0  0  0  0
  4  5  1  0  0  0  0
  4 29  1  0  0  0  0
  5  6  2  0  0  0  0
  5  7  1  0  0  0  0
  7  8  1  0  0  0  0
  7 30  1  0  0  0  0
  8 16  1  0  0  0  0
  8  9  2  0  0  0  0
  9 10  1  0  0  0  0
  9 31  1  0  0  0  0
 10 11  2  0  0  0  0
 10 32  1  0  0  0  0
 11 12  1  0  0  0  0
 11 15  1  0  0  0  0
 12 13  1  0  0  0  0
 12 14  1  0  0  0  0
 13 33  1  0  0  0  0
 13 34  1  0  0  0  0
 13 35  1  0  0  0  0
 14 36  1  0  0  0  0
 14 37  1  0  0  0  0
 14 38  1  0  0  0  0
 15 16  2  0  0  0  0
 16 39  1  0  0  0  0
 17 22  1  0  0  0  0
 17 18  1  0  0  0  0
 17 48  1  0  0  0  0
 18 19  1  0  0  0  0
 18 40  1  0  0  0  0
 18 41  1  0  0  0  0
 19 20  1  0  0  0  0
 19 42  1  0  0  0  0
 19 43  1  0  0  0  0
 20 21  1  0  0  0  0
 21 22  1  0  0  0  0
 21 44  1  0  0  0  0
 21 45  1  0  0  0  0
 22 46  1  0  0  0  0
 22 47  1  0  0  0  0
M  CHG  1  17   1
M  END
> <s_m_source_file>
AV-unprocessed.smi

> <i_m_source_file_index>
1239

> <i_lp_mmshare_version>
43012

> <i_f3d_flags>
0

> <s_epik_input>
W0NIMl0xW0NIMl1PW0NIMl1bQ0gyXU4xW0NASF0oW0NIM10pW0NIMl1bTkhdQyg9TylbTkhdYzJbY0hdW2NIXWMoTihbQ0gzXSlbQ0gzXSluW2NIXTI=

> <s_epik_cmdline>
J2VwaWtfcHl0aG9uJywgJy1waCcsICc3LjAnLCAnLXRuJywgJzgnLCAnLW1hJywgJzIwMCcsICctbWV0YWxfYmluZGluZycsICctaW1hZScsICc8aW5maWxlLm1hZT4nLCAnLW9tYWUnLCAnPG91dGZpbGUubWFlPic=

> <r_epik_Ionization_Penalty>
1.1428

> <r_epik_Ionization_Penalty_Charging>
0.602531

> <r_epik_Ionization_Penalty_Neutral>
0.540271

> <r_epik_State_Penalty>
1.1888

> <r_epik_Charging_Adjusted_Penalty>
1.79133

> <i_epik_Tot_Q>
1

> <i_epik_Tot_abs_Q>
1

> <r_epik_Metal_State_Penalty>
0.936295

> <b_epik_Metal_Only>
0

> <s_lp_Force_Field>
OPLS_2005

> <r_lp_Energy>
25.9365

> <b_lp_Chiralities_Consistent>
1

> <s_lp_Variant>
AV-unprocessed.smi:1239-8

> <Gold.Version>
5.8.1

> <Gold.Id.Protein>
6NUR|6NUR_protein|mol2

> <Gold.PLP.Fitness>
42.5133

> <Gold.PLP.PLP>
-39.2188

> <Gold.PLP.part.hbond>
-1.0000

> <Gold.PLP.part.metal>
0.0000

> <Gold.PLP.part.buried>
-6.1765

> <Gold.PLP.part.nonpolar>
-32.7644

> <Gold.PLP.part.repulsive>
0.3066

> <Gold.PLP.ligand.clash>
0.0000

> <Gold.PLP.ligand.torsion>
1.3898

> <Gold.PLP.Chemscore.Hbond>
2.0000

> <Gold.PLP.Chemscore.CHOScore>
0.0000

> <Gold.PLP.Chemscore.Metal>
0.0000

> <Gold.Chemscore.Hbonds>
donor molecule, donor type, donor heavy atom, donor atom, acceptor molecule, acceptor atom, score
      L1  H    17    48       P1  7948  2.00

> <Gold.PLP.Chemscore.Internal.Correction>
0.0741

> <Gold.Rescore>
     Score         DG    S(hbond)    S(metal)    S(lipo)     H(rot)  DE(clash)    DE(int)     intcor
     12.43     -15.00       0.94        0.00      87.14       1.48       0.02       2.55       ----

> <Gold.Chemscore.Fitness>
12.4324

> <Gold.Chemscore.DG>
-15.0044

> <Gold.Chemscore.ZeroCoef>
-5.4800

> <Gold.Chemscore.Hbond>
0.9356

> <Gold.Chemscore.Metal>
0.0000

> <Gold.Chemscore.Lipo>
87.1440

> <Gold.Chemscore.Internal_Hbond>
0.0000

> <Gold.Chemscore.DEClash>
0.0178

> <Gold.Chemscore.DEInternal>
2.5542

> <Gold.Chemscore.Rot>
1.4830

> <Gold.Chemscore.Internal.Correction>
   9.000000E+99

> <Gold.Chemscore.Hbonds>
donor molecule, donor type, donor heavy atom, donor atom, acceptor molecule, acceptor atom, score
      L1  H    17    48       P1  7948  0.78

> <Gold.Chemscore.Hbond.Weighted>
-3.1249

> <Gold.Chemscore.Metal.Weighted>
-0.0000

> <Gold.Chemscore.Lipo.Weighted>
-10.1958

> <Gold.Chemscore.Internal_Hbond.Weighted>
0.0000

> <Gold.Chemscore.DEClash.Weighted>
0.0178

> <Gold.Chemscore.DEInternal.Weighted>
2.5542

> <Gold.Chemscore.Rot.Weighted>
3.7964

> <Gold.Chemscore.Internal.Correction.Weighted>
   9.000000E+99

> <Gold.Protein.RotatedTorsions>
[ 6907 6896 6895 6894 ] final   16.31 input  -60.11 | X-H torsion
[ 7974 7965 7964 7962 ] final -117.79 input  175.53 | X-H torsion
[ 8008 7997 7996 7995 ] final   68.56 input   59.86 | X-H torsion
[ 10167 10162 10161 10158 ] final -100.34 input  -65.29 | X-H torsion
[ 10718 10713 10712 10709 ] final  -70.24 input   66.30 | X-H torsion
[ 10763 10752 10751 10750 ] final  -24.06 input  -60.55 | X-H torsion
[ 11005 11000 10999 10996 ] final  177.52 input  -57.11 | X-H torsion

> <Gold.Protein.ActiveResidues>
 VAL166  LYS551  ARG553  GLY616  TRP617  ASP618  TYR619  PRO620  LYS621  CYS622 
 ASP623  PHE694  ASN695  SER759  ASP760  ASP761  ALA762  ILE779  LEU786  VAL792 
 PHE793  MET794  SER795  GLU796  ALA797  LYS798  CYS799  TRP800  GLU811  SER814 

> <Gold.Protein.RotatedAtoms>
  151.8318  135.0619  160.0437 H   0  0  0  0  0  0  0  0  0  0  0  0  # atno 6907 bound_to 6896
  152.2875  133.5524  159.5544 H   0  0  0  0  0  0  0  0  0  0  0  0  # atno 6908 bound_to 6896
  150.7215  134.0393  159.3802 H   0  0  0  0  0  0  0  0  0  0  0  0  # atno 6909 bound_to 6896
  145.0812  140.8427  143.4037 H   0  0  0  0  0  0  0  0  0  0  0  0  # atno 7974 bound_to 7965
  155.7102  140.3494  155.4970 H   0  0  0  0  0  0  0  0  0  0  0  0  # atno 8008 bound_to 7997
  155.9363  140.1093  157.1114 H   0  0  0  0  0  0  0  0  0  0  0  0  # atno 8009 bound_to 7997
  154.4094  140.1221  156.4854 H   0  0  0  0  0  0  0  0  0  0  0  0  # atno 8010 bound_to 7997
  140.2529  143.3460  152.0698 H   0  0  0  0  0  0  0  0  0  0  0  0  # atno 10167 bound_to 10162
  156.0417  130.4327  150.2266 H   0  0  0  0  0  0  0  0  0  0  0  0  # atno 10718 bound_to 10713
  153.6778  135.6968  153.5127 H   0  0  0  0  0  0  0  0  0  0  0  0  # atno 10763 bound_to 10752
  153.2508  135.4275  155.0795 H   0  0  0  0  0  0  0  0  0  0  0  0  # atno 10764 bound_to 10752
  154.8409  135.3531  154.6321 H   0  0  0  0  0  0  0  0  0  0  0  0  # atno 10765 bound_to 10752
  140.3850  134.6913  157.4474 H   0  0  0  0  0  0  0  0  0  0  0  0  # atno 11005 bound_to 11000
  145.1175  139.2715  143.5605 LP  0  0  0  0  0  0  0  0  0  0  0  0  # atno 17320 bound_to 7965
  146.3531  140.0790  142.8619 LP  0  0  0  0  0  0  0  0  0  0  0  0  # atno 17321 bound_to 7965
  139.5040  144.6767  151.6110 LP  0  0  0  0  0  0  0  0  0  0  0  0  # atno 17342 bound_to 10162
  140.6026  143.9582  150.6396 LP  0  0  0  0  0  0  0  0  0  0  0  0  # atno 17343 bound_to 10162
  157.0360  131.0021  151.3298 LP  0  0  0  0  0  0  0  0  0  0  0  0  # atno 17370 bound_to 10713
  157.5243  130.8018  149.7845 LP  0  0  0  0  0  0  0  0  0  0  0  0  # atno 17371 bound_to 10713
  140.0450  134.6213  155.8933 LP  0  0  0  0  0  0  0  0  0  0  0  0  # atno 17394 bound_to 11000
  141.1910  133.6570  156.5439 LP  0  0  0  0  0  0  0  0  0  0  0  0  # atno 17395 bound_to 11000

$$$$
