AV-unprocessed.smi:2881|AV-procd|sdf|11070|dock4
  -GOLD-   2272015543D 1   1.00000     0.00000
 Structure written by MMmdl.
 40 42  0  0  0  0  0  0  0  0  1 V2000
  149.2849  141.4226  155.3939 C   0  0  0  0  0  0  0  0  0  0  0  0
  148.7428  140.4195  154.4188 C   0  0  0  0  0  0  0  0  0  0  0  0
  147.6554  140.5743  153.5100 C   0  0  0  0  0  0  0  0  0  0  0  0
  147.5855  139.3748  152.8583 C   0  0  0  0  0  0  0  0  0  0  0  0
  146.6717  138.8898  151.7790 C   0  0  0  0  0  0  0  0  0  0  0  0
  145.8854  137.6645  152.2439 C   0  0  0  0  0  0  0  0  0  0  0  0
  144.9084  137.8028  152.9794 O   0  0  0  0  0  0  0  0  0  0  0  0
  146.3203  136.4729  151.8062 N   0  0  0  0  0  0  0  0  0  0  0  0
  145.7020  135.1872  152.1186 C   0  0  1  0  0  0  0  0  0  0  0  0
  144.2504  135.1418  151.5926 C   0  0  2  0  0  0  0  0  0  0  0  0
  143.5130  133.9764  152.2763 C   0  0  0  0  0  0  0  0  0  0  0  0
  144.1413  132.7430  151.6008 C   0  0  0  0  0  0  0  0  0  0  0  0
  145.1681  133.3647  150.6296 C   0  0  1  0  0  0  0  0  0  0  0  0
  144.4172  134.6089  150.1721 C   0  0  0  0  0  0  0  0  0  0  0  0
  146.3678  134.0003  151.3760 C   0  0  2  0  0  0  0  0  0  0  0  0
  147.1753  133.0598  152.2917 C   0  0  0  0  0  0  0  0  0  0  0  0
  148.1266  133.7919  153.0346 O   0  0  0  0  0  0  0  0  0  0  0  0
  148.5846  138.5913  153.3907 N   0  0  0  0  0  0  0  0  0  0  0  0
  149.2984  139.2194  154.3430 N   0  0  0  0  0  0  0  0  0  0  0  0
  148.7890  137.6406  153.1174 H   0  0  0  0  0  0  0  0  0  0  0  0
  148.8223  142.3995  155.2520 H   0  0  0  0  0  0  0  0  0  0  0  0
  150.3617  141.5461  155.2748 H   0  0  0  0  0  0  0  0  0  0  0  0
  149.0954  141.1120  156.4216 H   0  0  0  0  0  0  0  0  0  0  0  0
  147.0254  141.4379  153.3557 H   0  0  0  0  0  0  0  0  0  0  0  0
  147.2502  138.6326  150.8910 H   0  0  0  0  0  0  0  0  0  0  0  0
  145.9781  139.6772  151.4807 H   0  0  0  0  0  0  0  0  0  0  0  0
  147.1312  136.4542  151.2053 H   0  0  0  0  0  0  0  0  0  0  0  0
  145.7110  135.0445  153.2011 H   0  0  0  0  0  0  0  0  0  0  0  0
  143.7181  136.0904  151.6716 H   0  0  0  0  0  0  0  0  0  0  0  0
  143.6470  133.9738  153.3587 H   0  0  0  0  0  0  0  0  0  0  0  0
  142.4424  134.0198  152.0726 H   0  0  0  0  0  0  0  0  0  0  0  0
  144.5825  132.0485  152.3141 H   0  0  0  0  0  0  0  0  0  0  0  0
  143.3813  132.1918  151.0455 H   0  0  0  0  0  0  0  0  0  0  0  0
  145.4647  132.6942  149.8225 H   0  0  0  0  0  0  0  0  0  0  0  0
  143.4691  134.3878  149.6784 H   0  0  0  0  0  0  0  0  0  0  0  0
  145.0089  135.2625  149.5287 H   0  0  0  0  0  0  0  0  0  0  0  0
  147.0532  134.3890  150.6197 H   0  0  0  0  0  0  0  0  0  0  0  0
  146.5067  132.5619  152.9938 H   0  0  0  0  0  0  0  0  0  0  0  0
  147.6759  132.2718  151.7299 H   0  0  0  0  0  0  0  0  0  0  0  0
  148.2337  134.6402  152.6319 H   0  0  0  0  0  0  0  0  0  0  0  0
  1 21  1  0  0  0  0
  1 22  1  0  0  0  0
  1 23  1  0  0  0  0
  1  2  1  0  0  0  0
  2 19  2  0  0  0  0
  2  3  1  0  0  0  0
  3  4  2  0  0  0  0
  3 24  1  0  0  0  0
  4 18  1  0  0  0  0
  4  5  1  0  0  0  0
  5  6  1  0  0  0  0
  5 25  1  0  0  0  0
  5 26  1  0  0  0  0
  6  7  2  0  0  0  0
  6  8  1  0  0  0  0
  8  9  1  0  0  0  0
  8 27  1  0  0  0  0
  9 15  1  0  0  0  0
  9 10  1  0  0  0  0
  9 28  1  0  0  0  0
 10 14  1  0  0  0  0
 10 11  1  0  0  0  0
 10 29  1  0  0  0  0
 11 12  1  0  0  0  0
 11 30  1  0  0  0  0
 11 31  1  0  0  0  0
 12 13  1  0  0  0  0
 12 32  1  0  0  0  0
 12 33  1  0  0  0  0
 13 14  1  0  0  0  0
 13 15  1  0  0  0  0
 13 34  1  0  0  0  0
 14 35  1  0  0  0  0
 14 36  1  0  0  0  0
 15 16  1  0  0  0  0
 15 37  1  0  0  0  0
 16 17  1  0  0  0  0
 16 38  1  0  0  0  0
 16 39  1  0  0  0  0
 17 40  1  0  0  0  0
 18 19  1  0  0  0  0
 18 20  1  0  0  0  0
M  END
> <s_m_source_file>
AV-unprocessed.smi

> <i_m_source_file_index>
2881

> <i_lp_mmshare_version>
43012

> <i_f3d_flags>
0

> <s_epik_input>
W0NIM11jMVtjSF1jKG5bbkhdMSlbQ0gyXUMoPU8pW05IXVtDQEhdKFtDQEBIXTIzKVtDQEhdKFtDSDJdW09IXSlbQ0BASF0oW0NIMl0zKVtDSDJdW0NIMl0y

> <s_epik_cmdline>
J2VwaWtfcHl0aG9uJywgJy1waCcsICc3LjAnLCAnLXRuJywgJzgnLCAnLW1hJywgJzIwMCcsICctbWV0YWxfYmluZGluZycsICctaW1hZScsICc8aW5maWxlLm1hZT4nLCAnLW9tYWUnLCAnPG91dGZpbGUubWFlPic=

> <r_lp_tautomer_probability>
0.5

> <r_epik_Ionization_Penalty>
0.00013396

> <r_epik_Ionization_Penalty_Charging>
0

> <r_epik_Ionization_Penalty_Neutral>
0.00013396

> <r_epik_State_Penalty>
0.41068

> <r_epik_Charging_Adjusted_Penalty>
0.41068

> <i_epik_Tot_Q>
0

> <i_epik_Tot_abs_Q>
0

> <r_epik_Metal_State_Penalty>
0.41066

> <b_epik_Metal_Only>
0

> <s_lp_Force_Field>
OPLS_2005

> <r_lp_Energy>
46.6194

> <b_lp_Chiralities_Consistent>
1

> <s_lp_Variant>
AV-unprocessed.smi:2881-16

> <Gold.Version>
5.8.1

> <Gold.Id.Protein>
6NUR|6NUR_protein|mol2

> <Gold.PLP.Fitness>
41.9193

> <Gold.PLP.PLP>
-34.9848

> <Gold.PLP.part.hbond>
-4.0000

> <Gold.PLP.part.metal>
0.0000

> <Gold.PLP.part.buried>
0.1915

> <Gold.PLP.part.nonpolar>
-33.0425

> <Gold.PLP.part.repulsive>
1.3998

> <Gold.PLP.ligand.clash>
0.0000

> <Gold.PLP.ligand.torsion>
0.2885

> <Gold.PLP.Chemscore.Hbond>
2.4960

> <Gold.PLP.Chemscore.CHOScore>
0.0000

> <Gold.PLP.Chemscore.Metal>
0.0000

> <Gold.Chemscore.Hbonds>
donor molecule, donor type, donor heavy atom, donor atom, acceptor molecule, acceptor atom, score
      L1  H     8    27       P1  7948  0.51
      L1  H    17    40       P1  7948  1.00
      L1  H    18    20       P1  7948  1.00

> <Gold.PLP.Chemscore.Internal.Correction>
0.0235

> <Gold.Rescore>
     Score         DG    S(hbond)    S(metal)    S(lipo)     H(rot)  DE(clash)    DE(int)     intcor
     15.31     -16.66       2.16        0.00      83.68       2.28       0.98       0.37       ----

> <Gold.Chemscore.Fitness>
15.3071

> <Gold.Chemscore.DG>
-16.6564

> <Gold.Chemscore.ZeroCoef>
-5.4800

> <Gold.Chemscore.Hbond>
2.1589

> <Gold.Chemscore.Metal>
0.0000

> <Gold.Chemscore.Lipo>
83.6816

> <Gold.Chemscore.Internal_Hbond>
0.0000

> <Gold.Chemscore.DEClash>
0.9764

> <Gold.Chemscore.DEInternal>
0.3729

> <Gold.Chemscore.Rot>
2.2755

> <Gold.Chemscore.Internal.Correction>
   9.000000E+99

> <Gold.Chemscore.Hbonds>
donor molecule, donor type, donor heavy atom, donor atom, acceptor molecule, acceptor atom, score
      L1  H     8    27       P1  7948  0.50
      L1  H    17    40       P1  7948  0.40
      L1  H    18    20       P1  7948  0.97

> <Gold.Chemscore.Hbond.Weighted>
-7.2108

> <Gold.Chemscore.Metal.Weighted>
-0.0000

> <Gold.Chemscore.Lipo.Weighted>
-9.7907

> <Gold.Chemscore.Internal_Hbond.Weighted>
0.0000

> <Gold.Chemscore.DEClash.Weighted>
0.9764

> <Gold.Chemscore.DEInternal.Weighted>
0.3729

> <Gold.Chemscore.Rot.Weighted>
5.8252

> <Gold.Chemscore.Internal.Correction.Weighted>
   9.000000E+99

> <Gold.Protein.RotatedTorsions>
[ 6907 6896 6895 6894 ] final   59.71 input  -60.11 | X-H torsion
[ 7974 7965 7964 7962 ] final  -42.17 input  175.53 | X-H torsion
[ 8008 7997 7996 7995 ] final  123.50 input   59.86 | X-H torsion
[ 10167 10162 10161 10158 ] final   -0.64 input  -65.29 | X-H torsion
[ 10718 10713 10712 10709 ] final -150.29 input   66.30 | X-H torsion
[ 10763 10752 10751 10750 ] final   51.20 input  -60.55 | X-H torsion
[ 11005 11000 10999 10996 ] final -143.63 input  -57.11 | X-H torsion

> <Gold.Protein.ActiveResidues>
 VAL166  LYS551  ARG553  GLY616  TRP617  ASP618  TYR619  PRO620  LYS621  CYS622 
 ASP623  PHE694  ASN695  SER759  ASP760  ASP761  ALA762  ILE779  LEU786  VAL792 
 PHE793  MET794  SER795  GLU796  ALA797  LYS798  CYS799  TRP800  GLU811  SER814 

> <Gold.Protein.RotatedAtoms>
  152.3939  134.6397  160.0096 H   0  0  0  0  0  0  0  0  0  0  0  0  # atno 6907 bound_to 6896
  151.6622  133.3311  159.3185 H   0  0  0  0  0  0  0  0  0  0  0  0  # atno 6908 bound_to 6896
  150.7850  134.6871  159.6521 H   0  0  0  0  0  0  0  0  0  0  0  0  # atno 6909 bound_to 6896
  146.0142  140.6928  142.9210 H   0  0  0  0  0  0  0  0  0  0  0  0  # atno 7974 bound_to 7965
  156.2768  140.2761  156.1638 H   0  0  0  0  0  0  0  0  0  0  0  0  # atno 8008 bound_to 7997
  155.0726  140.0387  157.2631 H   0  0  0  0  0  0  0  0  0  0  0  0  # atno 8009 bound_to 7997
  154.7028  140.2652  155.6709 H   0  0  0  0  0  0  0  0  0  0  0  0  # atno 8010 bound_to 7997
  140.6776  143.6871  150.8058 H   0  0  0  0  0  0  0  0  0  0  0  0  # atno 10167 bound_to 10162
  156.4443  130.8137  151.2367 H   0  0  0  0  0  0  0  0  0  0  0  0  # atno 10718 bound_to 10713
  152.9785  135.5854  154.4376 H   0  0  0  0  0  0  0  0  0  0  0  0  # atno 10763 bound_to 10752
  154.3982  135.2768  155.2115 H   0  0  0  0  0  0  0  0  0  0  0  0  # atno 10764 bound_to 10752
  154.3958  135.6115  153.5923 H   0  0  0  0  0  0  0  0  0  0  0  0  # atno 10765 bound_to 10752
  140.8106  134.2749  157.4942 H   0  0  0  0  0  0  0  0  0  0  0  0  # atno 11005 bound_to 11000
  144.6964  140.3451  143.7192 LP  0  0  0  0  0  0  0  0  0  0  0  0  # atno 17320 bound_to 7965
  145.7295  139.1732  143.2438 LP  0  0  0  0  0  0  0  0  0  0  0  0  # atno 17321 bound_to 7965
  140.0566  143.5196  152.2648 LP  0  0  0  0  0  0  0  0  0  0  0  0  # atno 17342 bound_to 10162
  139.6078  144.7601  151.3022 LP  0  0  0  0  0  0  0  0  0  0  0  0  # atno 17343 bound_to 10162
  157.7505  131.0158  150.3520 LP  0  0  0  0  0  0  0  0  0  0  0  0  # atno 17370 bound_to 10713
  156.3884  130.3893  149.7048 LP  0  0  0  0  0  0  0  0  0  0  0  0  # atno 17371 bound_to 10713
  139.8714  134.9481  156.3985 LP  0  0  0  0  0  0  0  0  0  0  0  0  # atno 17394 bound_to 11000
  140.9202  133.7650  155.9897 LP  0  0  0  0  0  0  0  0  0  0  0  0  # atno 17395 bound_to 11000

$$$$
