AV-unprocessed.smi:550|AV-procd|sdf|2896|dock2
  -GOLD-   2262023393D 1   1.00000     0.00000
 Structure written by MMmdl.
 46 48  0  0  0  0  0  0  0  0  2 V2000
  153.2400  136.6178  160.2820 O   0  0  0  0  0  0  0  0  0  0  0  0
  154.2104  136.7160  161.0324 C   0  0  0  0  0  0  0  0  0  0  0  0
  154.8606  135.6587  161.5388 N   0  0  0  0  0  0  0  0  0  0  0  0
  154.5367  134.2630  161.2585 C   0  0  0  0  0  0  0  0  0  0  0  0
  155.6380  133.5449  160.4445 C   0  0  2  0  0  0  0  0  0  0  0  0
  156.0029  134.2943  159.1428 C   0  0  0  0  0  0  0  0  0  0  0  0
  154.9356  134.0105  158.0765 C   0  0  0  0  0  0  0  0  0  0  0  0
  154.2940  132.3328  158.4418 S   0  0  0  0  0  0  0  0  0  0  0  0
  152.8501  132.4235  158.7065 O   0  0  0  0  0  0  0  0  0  0  0  0
  154.8256  131.3728  157.4625 O   0  0  0  0  0  0  0  0  0  0  0  0
  155.1921  132.1342  160.0274 C   0  0  0  0  0  0  0  0  0  0  0  0
  154.7461  137.8711  161.4644 N   0  0  0  0  0  0  0  0  0  0  0  0
  154.3791  139.2031  161.1271 C   0  0  0  0  0  0  0  0  0  0  0  0
  153.5003  139.3854  160.0373 C   0  0  0  0  0  0  0  0  0  0  0  0
  153.0926  140.6854  159.6741 C   0  0  0  0  0  0  0  0  0  0  0  0
  153.5636  141.7927  160.4173 C   0  0  0  0  0  0  0  0  0  0  0  0
  153.2200  143.1236  160.1416 N   0  0  0  0  0  0  0  0  0  0  0  0
  152.4332  143.3029  158.9338 C   0  0  0  0  0  0  0  0  0  0  0  0
  151.8492  144.7137  159.0345 C   0  0  0  0  0  0  0  0  0  0  0  0
  151.8600  145.0374  160.5334 C   0  0  0  0  0  0  0  0  0  0  0  0
  152.4989  143.8145  161.1983 C   0  0  0  0  0  0  0  0  0  0  0  0
  154.3973  141.5774  161.4577 N   0  3  0  0  0  0  0  0  0  0  0  0
  154.8138  140.3498  161.8370 C   0  0  0  0  0  0  0  0  0  0  0  0
  155.6449  135.8278  162.1519 H   0  0  0  0  0  0  0  0  0  0  0  0
  154.3613  133.7372  162.1986 H   0  0  0  0  0  0  0  0  0  0  0  0
  153.5888  134.2407  160.7205 H   0  0  0  0  0  0  0  0  0  0  0  0
  156.5246  133.4609  161.0744 H   0  0  0  0  0  0  0  0  0  0  0  0
  156.1446  135.3642  159.2948 H   0  0  0  0  0  0  0  0  0  0  0  0
  156.9576  133.9086  158.7831 H   0  0  0  0  0  0  0  0  0  0  0  0
  154.1066  134.7139  158.1547 H   0  0  0  0  0  0  0  0  0  0  0  0
  155.3301  134.0497  157.0610 H   0  0  0  0  0  0  0  0  0  0  0  0
  156.0596  131.5010  159.8395 H   0  0  0  0  0  0  0  0  0  0  0  0
  154.5588  131.6365  160.7624 H   0  0  0  0  0  0  0  0  0  0  0  0
  155.4944  137.7862  162.1367 H   0  0  0  0  0  0  0  0  0  0  0  0
  153.1406  138.5349  159.4764 H   0  0  0  0  0  0  0  0  0  0  0  0
  152.4270  140.8232  158.8347 H   0  0  0  0  0  0  0  0  0  0  0  0
  153.0496  143.1867  158.0419 H   0  0  0  0  0  0  0  0  0  0  0  0
  151.6310  142.5650  158.8886 H   0  0  0  0  0  0  0  0  0  0  0  0
  152.4823  145.4222  158.4989 H   0  0  0  0  0  0  0  0  0  0  0  0
  150.8494  144.7693  158.6025 H   0  0  0  0  0  0  0  0  0  0  0  0
  152.4582  145.9305  160.7183 H   0  0  0  0  0  0  0  0  0  0  0  0
  150.8583  145.2227  160.9224 H   0  0  0  0  0  0  0  0  0  0  0  0
  151.7249  143.1755  161.6243 H   0  0  0  0  0  0  0  0  0  0  0  0
  153.1738  144.1053  162.0041 H   0  0  0  0  0  0  0  0  0  0  0  0
  155.4645  140.3422  162.6982 H   0  0  0  0  0  0  0  0  0  0  0  0
  154.7263  142.3845  161.9884 H   0  0  0  0  0  0  0  0  0  0  0  0
  1  2  2  0  0  0  0
  2  3  1  0  0  0  0
  2 12  1  0  0  0  0
  3  4  1  0  0  0  0
  3 24  1  0  0  0  0
  4  5  1  0  0  0  0
  4 25  1  0  0  0  0
  4 26  1  0  0  0  0
  5 11  1  0  0  0  0
  5  6  1  0  0  0  0
  5 27  1  0  0  0  0
  6  7  1  0  0  0  0
  6 28  1  0  0  0  0
  6 29  1  0  0  0  0
  7  8  1  0  0  0  0
  7 30  1  0  0  0  0
  7 31  1  0  0  0  0
  8  9  2  0  0  0  0
  8 10  2  0  0  0  0
  8 11  1  0  0  0  0
 11 32  1  0  0  0  0
 11 33  1  0  0  0  0
 12 13  1  0  0  0  0
 12 34  1  0  0  0  0
 13 23  1  0  0  0  0
 13 14  2  0  0  0  0
 14 15  1  0  0  0  0
 14 35  1  0  0  0  0
 15 16  2  0  0  0  0
 15 36  1  0  0  0  0
 16 17  1  0  0  0  0
 16 22  1  0  0  0  0
 17 21  1  0  0  0  0
 17 18  1  0  0  0  0
 18 19  1  0  0  0  0
 18 37  1  0  0  0  0
 18 38  1  0  0  0  0
 19 20  1  0  0  0  0
 19 39  1  0  0  0  0
 19 40  1  0  0  0  0
 20 21  1  0  0  0  0
 20 41  1  0  0  0  0
 20 42  1  0  0  0  0
 21 43  1  0  0  0  0
 21 44  1  0  0  0  0
 22 23  2  0  0  0  0
 22 46  1  0  0  0  0
 23 45  1  0  0  0  0
M  CHG  1  22   1
M  END
> <s_m_source_file>
AV-unprocessed.smi

> <i_m_source_file_index>
550

> <i_lp_mmshare_version>
43012

> <i_f3d_flags>
0

> <s_epik_input>
Tz1TMSg9TylbQ0gyXVtDSDJdW0NASF0oW0NIMl0xKVtDSDJdW05IXUMoPU8pW05IXWMyW2NIXVtjSF1jKG5bY0hdMilOM1tDSDJdW0NIMl1bQ0gyXVtDSDJdMw==

> <s_epik_cmdline>
J2VwaWtfcHl0aG9uJywgJy1waCcsICc3LjAnLCAnLXRuJywgJzgnLCAnLW1hJywgJzIwMCcsICctbWV0YWxfYmluZGluZycsICctaW1hZScsICc8aW5maWxlLm1hZT4nLCAnLW9tYWUnLCAnPG91dGZpbGUubWFlPic=

> <r_lp_tautomer_probability>
0.999994

> <r_epik_Ionization_Penalty>
1.12573

> <r_epik_Ionization_Penalty_Charging>
1.12571

> <r_epik_Ionization_Penalty_Neutral>
1.93198e-05

> <r_epik_State_Penalty>
1.18495

> <r_epik_Charging_Adjusted_Penalty>
2.31065

> <i_epik_Tot_Q>
1

> <i_epik_Tot_abs_Q>
1

> <r_epik_Metal_State_Penalty>
1.26884

> <b_epik_Metal_Only>
0

> <s_lp_Force_Field>
OPLS_2005

> <r_lp_Energy>
42.4783

> <b_lp_Chiralities_Consistent>
1

> <s_lp_Variant>
AV-unprocessed.smi:550-3

> <Gold.Version>
5.8.1

> <Gold.Id.Protein>
6NUR|6NUR_protein|mol2

> <Gold.PLP.Fitness>
43.9371

> <Gold.PLP.PLP>
-38.2411

> <Gold.PLP.part.hbond>
-2.9251

> <Gold.PLP.part.metal>
0.0000

> <Gold.PLP.part.buried>
-5.7053

> <Gold.PLP.part.nonpolar>
-30.4058

> <Gold.PLP.part.repulsive>
0.0515

> <Gold.PLP.ligand.clash>
0.0000

> <Gold.PLP.ligand.torsion>
0.1258

> <Gold.PLP.Chemscore.Hbond>
1.9750

> <Gold.PLP.Chemscore.CHOScore>
0.0000

> <Gold.PLP.Chemscore.Metal>
0.0000

> <Gold.Chemscore.Hbonds>
donor molecule, donor type, donor heavy atom, donor atom, acceptor molecule, acceptor atom, score
      P1  H  6896  6907       L1     9  0.65
      P1  H  6896  6909       L1     1  1.00

> <Gold.PLP.Chemscore.Internal.Correction>
0.0226

> <Gold.Rescore>
     Score         DG    S(hbond)    S(metal)    S(lipo)     H(rot)  DE(clash)    DE(int)     intcor
     17.29     -18.83       1.99        0.00      90.18       1.50       0.00       1.54       ----

> <Gold.Chemscore.Fitness>
17.2874

> <Gold.Chemscore.DG>
-18.8314

> <Gold.Chemscore.ZeroCoef>
-5.4800

> <Gold.Chemscore.Hbond>
1.9853

> <Gold.Chemscore.Metal>
0.0000

> <Gold.Chemscore.Lipo>
90.1765

> <Gold.Chemscore.Internal_Hbond>
0.0000

> <Gold.Chemscore.DEClash>
0.0029

> <Gold.Chemscore.DEInternal>
1.5411

> <Gold.Chemscore.Rot>
1.4962

> <Gold.Chemscore.Internal.Correction>
   9.000000E+99

> <Gold.Chemscore.Hbonds>
donor molecule, donor type, donor heavy atom, donor atom, acceptor molecule, acceptor atom, score
      P1  H  6896  6907       L1     9  0.65
      P1  H  6896  6909       L1     1  0.97

> <Gold.Chemscore.Hbond.Weighted>
-6.6311

> <Gold.Chemscore.Metal.Weighted>
-0.0000

> <Gold.Chemscore.Lipo.Weighted>
-10.5506

> <Gold.Chemscore.Internal_Hbond.Weighted>
0.0000

> <Gold.Chemscore.DEClash.Weighted>
0.0029

> <Gold.Chemscore.DEInternal.Weighted>
1.5411

> <Gold.Chemscore.Rot.Weighted>
3.8303

> <Gold.Chemscore.Internal.Correction.Weighted>
   9.000000E+99

> <Gold.Protein.RotatedTorsions>
[ 6907 6896 6895 6894 ] final  156.94 input  -60.11 | X-H torsion
[ 7974 7965 7964 7962 ] final   13.30 input  175.53 | X-H torsion
[ 8008 7997 7996 7995 ] final  -77.78 input   59.86 | X-H torsion
[ 10167 10162 10161 10158 ] final  -50.26 input  -65.29 | X-H torsion
[ 10718 10713 10712 10709 ] final  -70.90 input   66.30 | X-H torsion
[ 10763 10752 10751 10750 ] final  -67.31 input  -60.55 | X-H torsion
[ 11005 11000 10999 10996 ] final -177.91 input  -57.11 | X-H torsion

> <Gold.Protein.ActiveResidues>
 VAL166  LYS551  ARG553  GLY616  TRP617  ASP618  TYR619  PRO620  LYS621  CYS622 
 ASP623  PHE694  ASN695  SER759  ASP760  ASP761  ALA762  ILE779  LEU786  VAL792 
 PHE793  MET794  SER795  GLU796  ALA797  LYS798  CYS799  TRP800  GLU811  SER814 

> <Gold.Protein.RotatedAtoms>
  152.0224  133.3904  159.4263 H   0  0  0  0  0  0  0  0  0  0  0  0  # atno 6907 bound_to 6896
  150.6889  134.3611  159.4960 H   0  0  0  0  0  0  0  0  0  0  0  0  # atno 6908 bound_to 6896
  152.1387  134.9079  160.0605 H   0  0  0  0  0  0  0  0  0  0  0  0  # atno 6909 bound_to 6896
  146.2332  139.9209  142.8510 H   0  0  0  0  0  0  0  0  0  0  0  0  # atno 7974 bound_to 7965
  154.5628  140.0705  156.8845 H   0  0  0  0  0  0  0  0  0  0  0  0  # atno 8008 bound_to 7997
  155.2780  140.3369  155.4242 H   0  0  0  0  0  0  0  0  0  0  0  0  # atno 8009 bound_to 7997
  156.2056  140.1738  156.7793 H   0  0  0  0  0  0  0  0  0  0  0  0  # atno 8010 bound_to 7997
  140.6646  143.2664  151.4334 H   0  0  0  0  0  0  0  0  0  0  0  0  # atno 10167 bound_to 10162
  156.0387  130.4340  150.2365 H   0  0  0  0  0  0  0  0  0  0  0  0  # atno 10718 bound_to 10713
  154.3727  135.6091  153.5748 H   0  0  0  0  0  0  0  0  0  0  0  0  # atno 10763 bound_to 10752
  152.9790  135.5842  154.4503 H   0  0  0  0  0  0  0  0  0  0  0  0  # atno 10764 bound_to 10752
  154.4260  135.2847  155.1922 H   0  0  0  0  0  0  0  0  0  0  0  0  # atno 10765 bound_to 10752
  140.4356  134.6479  157.4733 H   0  0  0  0  0  0  0  0  0  0  0  0  # atno 11005 bound_to 11000
  145.2138  140.9907  143.4085 LP  0  0  0  0  0  0  0  0  0  0  0  0  # atno 17320 bound_to 7965
  144.9668  139.3921  143.6328 LP  0  0  0  0  0  0  0  0  0  0  0  0  # atno 17321 bound_to 7965
  139.5890  144.1540  152.2065 LP  0  0  0  0  0  0  0  0  0  0  0  0  # atno 17342 bound_to 10162
  140.0889  144.5637  150.7069 LP  0  0  0  0  0  0  0  0  0  0  0  0  # atno 17343 bound_to 10162
  157.0462  131.0049  151.3268 LP  0  0  0  0  0  0  0  0  0  0  0  0  # atno 17370 bound_to 10713
  157.5174  130.7976  149.7771 LP  0  0  0  0  0  0  0  0  0  0  0  0  # atno 17371 bound_to 10713
  140.0104  134.6699  155.9389 LP  0  0  0  0  0  0  0  0  0  0  0  0  # atno 17394 bound_to 11000
  141.1727  133.6538  156.4712 LP  0  0  0  0  0  0  0  0  0  0  0  0  # atno 17395 bound_to 11000

$$$$
