AV-unprocessed.smi:1581|AV-procd|sdf|6360|dock5
  -GOLD-   22720 6583D 1   1.00000     0.00000
 Structure written by MMmdl.
 34 35  0  0  0  0  0  0  0  0  1 V2000
  145.8305  142.9942  155.6282 C   0  0  0  0  0  0  0  0  0  0  0  0
  146.5716  141.8050  155.0274 C   0  0  0  0  0  0  0  0  0  0  0  0
  145.9685  140.7617  154.7788 O   0  0  0  0  0  0  0  0  0  0  0  0
  147.8836  141.9751  154.8051 N   0  0  0  0  0  0  0  0  0  0  0  0
  148.7755  140.9634  154.2458 C   0  0  0  0  0  0  0  0  0  0  0  0
  150.0089  140.6546  155.0862 C   0  0  0  0  0  0  0  0  0  0  0  0
  150.7925  139.5257  154.7772 C   0  0  0  0  0  0  0  0  0  0  0  0
  151.9355  139.2664  155.5555 C   0  0  0  0  0  0  0  0  0  0  0  0
  152.3206  140.0457  156.5871 N   0  0  0  0  0  0  0  0  0  0  0  0
  151.5747  141.1344  156.8983 C   0  0  0  0  0  0  0  0  0  0  0  0
  151.9803  141.9371  157.9858 N   0  0  0  0  0  0  0  0  0  0  0  0
  151.3181  143.2356  158.0819 C   0  0  0  0  0  0  0  0  0  0  0  0
  152.0340  144.1284  159.1105 C   0  0  0  0  0  0  0  0  0  0  0  0
  152.1203  143.4536  160.3614 O   0  0  0  0  0  0  0  0  0  0  0  0
  152.8671  142.2456  160.2617 C   0  0  0  0  0  0  0  0  0  0  0  0
  152.1705  141.2876  159.2811 C   0  0  0  0  0  0  0  0  0  0  0  0
  150.4157  141.4761  156.1620 C   0  0  0  0  0  0  0  0  0  0  0  0
  146.2002  143.2036  156.6323 H   0  0  0  0  0  0  0  0  0  0  0  0
  144.7608  142.7924  155.6929 H   0  0  0  0  0  0  0  0  0  0  0  0
  145.9732  143.8835  155.0139 H   0  0  0  0  0  0  0  0  0  0  0  0
  148.2960  142.8653  155.0432 H   0  0  0  0  0  0  0  0  0  0  0  0
  148.2170  140.0425  154.0694 H   0  0  0  0  0  0  0  0  0  0  0  0
  149.1091  141.3118  153.2684 H   0  0  0  0  0  0  0  0  0  0  0  0
  150.5268  138.8709  153.9603 H   0  0  0  0  0  0  0  0  0  0  0  0
  152.5581  138.4099  155.3437 H   0  0  0  0  0  0  0  0  0  0  0  0
  151.2952  143.7482  157.1212 H   0  0  0  0  0  0  0  0  0  0  0  0
  150.2812  143.0793  158.3821 H   0  0  0  0  0  0  0  0  0  0  0  0
  153.0319  144.3985  158.7619 H   0  0  0  0  0  0  0  0  0  0  0  0
  151.4825  145.0587  159.2473 H   0  0  0  0  0  0  0  0  0  0  0  0
  153.8868  142.4611  159.9377 H   0  0  0  0  0  0  0  0  0  0  0  0
  152.9367  141.7878  161.2484 H   0  0  0  0  0  0  0  0  0  0  0  0
  151.2017  140.9847  159.6811 H   0  0  0  0  0  0  0  0  0  0  0  0
  152.7730  140.3857  159.1651 H   0  0  0  0  0  0  0  0  0  0  0  0
  149.8544  142.3636  156.4125 H   0  0  0  0  0  0  0  0  0  0  0  0
  1  2  1  0  0  0  0
  1 18  1  0  0  0  0
  1 19  1  0  0  0  0
  1 20  1  0  0  0  0
  2  3  2  0  0  0  0
  2  4  1  0  0  0  0
  4  5  1  0  0  0  0
  4 21  1  0  0  0  0
  5  6  1  0  0  0  0
  5 22  1  0  0  0  0
  5 23  1  0  0  0  0
  6 17  1  0  0  0  0
  6  7  2  0  0  0  0
  7  8  1  0  0  0  0
  7 24  1  0  0  0  0
  8  9  2  0  0  0  0
  8 25  1  0  0  0  0
  9 10  1  0  0  0  0
 10 11  1  0  0  0  0
 10 17  2  0  0  0  0
 11 16  1  0  0  0  0
 11 12  1  0  0  0  0
 12 13  1  0  0  0  0
 12 26  1  0  0  0  0
 12 27  1  0  0  0  0
 13 14  1  0  0  0  0
 13 28  1  0  0  0  0
 13 29  1  0  0  0  0
 14 15  1  0  0  0  0
 15 16  1  0  0  0  0
 15 30  1  0  0  0  0
 15 31  1  0  0  0  0
 16 32  1  0  0  0  0
 16 33  1  0  0  0  0
 17 34  1  0  0  0  0
M  END
> <s_m_source_file>
AV-unprocessed.smi

> <i_m_source_file_index>
1581

> <i_lp_mmshare_version>
43012

> <i_f3d_flags>
0

> <s_epik_input>
W0NIM11DKD1PKVtOSF1bQ0gyXWMxW2NIXVtjSF1uYyhbY0hdMSlOMltDSDJdW0NIMl1PW0NIMl1bQ0gyXTI=

> <s_epik_cmdline>
J2VwaWtfcHl0aG9uJywgJy1waCcsICc3LjAnLCAnLXRuJywgJzgnLCAnLW1hJywgJzIwMCcsICctbWV0YWxfYmluZGluZycsICctaW1hZScsICc8aW5maWxlLm1hZT4nLCAnLW9tYWUnLCAnPG91dGZpbGUubWFlPic=

> <r_lp_tautomer_probability>
1

> <r_epik_Ionization_Penalty>
0.0056686

> <r_epik_Ionization_Penalty_Charging>
0

> <r_epik_Ionization_Penalty_Neutral>
0.0056686

> <r_epik_State_Penalty>
0.00415614

> <r_epik_Charging_Adjusted_Penalty>
0.00415614

> <i_epik_Tot_Q>
0

> <i_epik_Tot_abs_Q>
0

> <r_epik_Metal_State_Penalty>
-0

> <b_epik_Metal_Only>
0

> <s_lp_Force_Field>
OPLS_2005

> <r_lp_Energy>
12.8791

> <b_lp_Chiralities_Consistent>
1

> <s_lp_Variant>
AV-unprocessed.smi:1581-1

> <Gold.Version>
5.8.1

> <Gold.Id.Protein>
6NUR|6NUR_protein|mol2

> <Gold.PLP.Fitness>
40.6500

> <Gold.PLP.PLP>
-35.0017

> <Gold.PLP.part.hbond>
-2.0000

> <Gold.PLP.part.metal>
0.0000

> <Gold.PLP.part.buried>
-2.2477

> <Gold.PLP.part.nonpolar>
-30.5602

> <Gold.PLP.part.repulsive>
0.3301

> <Gold.PLP.ligand.clash>
0.0000

> <Gold.PLP.ligand.torsion>
0.3322

> <Gold.PLP.Chemscore.Hbond>
2.0000

> <Gold.PLP.Chemscore.CHOScore>
0.0000

> <Gold.PLP.Chemscore.Metal>
0.0000

> <Gold.Chemscore.Hbonds>
donor molecule, donor type, donor heavy atom, donor atom, acceptor molecule, acceptor atom, score
      L1  H     4    21       P1  8028  1.00
      P1  H  7997  8010       L1     9  1.00

> <Gold.PLP.Chemscore.Internal.Correction>
0.3126

> <Gold.Rescore>
     Score         DG    S(hbond)    S(metal)    S(lipo)     H(rot)  DE(clash)    DE(int)     intcor
     16.42     -16.92       1.75        0.00      81.53       1.54       0.21       0.30       ----

> <Gold.Chemscore.Fitness>
16.4173

> <Gold.Chemscore.DG>
-16.9236

> <Gold.Chemscore.ZeroCoef>
-5.4800

> <Gold.Chemscore.Hbond>
1.7544

> <Gold.Chemscore.Metal>
0.0000

> <Gold.Chemscore.Lipo>
81.5254

> <Gold.Chemscore.Internal_Hbond>
0.0000

> <Gold.Chemscore.DEClash>
0.2074

> <Gold.Chemscore.DEInternal>
0.2989

> <Gold.Chemscore.Rot>
1.5448

> <Gold.Chemscore.Internal.Correction>
   9.000000E+99

> <Gold.Chemscore.Hbonds>
donor molecule, donor type, donor heavy atom, donor atom, acceptor molecule, acceptor atom, score
      L1  H     4    21       P1  8028  0.94
      P1  H  7997  8010       L1     9  0.42

> <Gold.Chemscore.Hbond.Weighted>
-5.8597

> <Gold.Chemscore.Metal.Weighted>
-0.0000

> <Gold.Chemscore.Lipo.Weighted>
-9.5385

> <Gold.Chemscore.Internal_Hbond.Weighted>
0.0000

> <Gold.Chemscore.DEClash.Weighted>
0.2074

> <Gold.Chemscore.DEInternal.Weighted>
0.2989

> <Gold.Chemscore.Rot.Weighted>
3.9546

> <Gold.Chemscore.Internal.Correction.Weighted>
   9.000000E+99

> <Gold.Protein.RotatedTorsions>
[ 6907 6896 6895 6894 ] final  117.20 input  -60.11 | X-H torsion
[ 7974 7965 7964 7962 ] final -169.65 input  175.53 | X-H torsion
[ 8008 7997 7996 7995 ] final   72.99 input   59.86 | X-H torsion
[ 10167 10162 10161 10158 ] final -136.33 input  -65.29 | X-H torsion
[ 10718 10713 10712 10709 ] final -142.84 input   66.30 | X-H torsion
[ 10763 10752 10751 10750 ] final  127.03 input  -60.55 | X-H torsion
[ 11005 11000 10999 10996 ] final -152.08 input  -57.11 | X-H torsion

> <Gold.Protein.ActiveResidues>
 VAL166  LYS551  ARG553  GLY616  TRP617  ASP618  TYR619  PRO620  LYS621  CYS622 
 ASP623  PHE694  ASN695  SER759  ASP760  ASP761  ALA762  ILE779  LEU786  VAL792 
 PHE793  MET794  SER795  GLU796  ALA797  LYS798  CYS799  TRP800  GLU811  SER814 

> <Gold.Protein.RotatedAtoms>
  152.4628  133.7858  159.6874 H   0  0  0  0  0  0  0  0  0  0  0  0  # atno 6907 bound_to 6896
  150.8579  133.7678  159.3009 H   0  0  0  0  0  0  0  0  0  0  0  0  # atno 6908 bound_to 6896
  151.5253  135.1071  159.9941 H   0  0  0  0  0  0  0  0  0  0  0  0  # atno 6909 bound_to 6896
  144.7182  140.2190  143.6318 H   0  0  0  0  0  0  0  0  0  0  0  0  # atno 7974 bound_to 7965
  155.7770  140.3483  155.5277 H   0  0  0  0  0  0  0  0  0  0  0  0  # atno 8008 bound_to 7997
  155.8765  140.0995  157.1535 H   0  0  0  0  0  0  0  0  0  0  0  0  # atno 8009 bound_to 7997
  154.4021  140.1330  156.4131 H   0  0  0  0  0  0  0  0  0  0  0  0  # atno 8010 bound_to 7997
  139.8689  143.6983  152.2642 H   0  0  0  0  0  0  0  0  0  0  0  0  # atno 10167 bound_to 10162
  156.3507  130.7686  151.1838 H   0  0  0  0  0  0  0  0  0  0  0  0  # atno 10718 bound_to 10713
  153.7029  135.3280  155.3229 H   0  0  0  0  0  0  0  0  0  0  0  0  # atno 10763 bound_to 10752
  154.8408  135.4458  154.1393 H   0  0  0  0  0  0  0  0  0  0  0  0  # atno 10764 bound_to 10752
  153.2465  135.6977  153.7804 H   0  0  0  0  0  0  0  0  0  0  0  0  # atno 10765 bound_to 10752
  140.7227  134.3709  157.5180 H   0  0  0  0  0  0  0  0  0  0  0  0  # atno 11005 bound_to 11000
  145.8519  139.2179  143.1767 LP  0  0  0  0  0  0  0  0  0  0  0  0  # atno 17320 bound_to 7965
  146.0253  140.8310  142.9903 LP  0  0  0  0  0  0  0  0  0  0  0  0  # atno 17321 bound_to 7965
  139.7303  144.7584  151.0813 LP  0  0  0  0  0  0  0  0  0  0  0  0  # atno 17342 bound_to 10162
  140.7764  143.5097  150.9668 LP  0  0  0  0  0  0  0  0  0  0  0  0  # atno 17343 bound_to 10162
  157.7460  131.0428  150.4714 LP  0  0  0  0  0  0  0  0  0  0  0  0  # atno 17370 bound_to 10713
  156.4908  130.4095  149.6407 LP  0  0  0  0  0  0  0  0  0  0  0  0  # atno 17371 bound_to 10713
  139.8844  134.8965  156.2703 LP  0  0  0  0  0  0  0  0  0  0  0  0  # atno 17394 bound_to 11000
  140.9990  133.7163  156.0930 LP  0  0  0  0  0  0  0  0  0  0  0  0  # atno 17395 bound_to 11000

$$$$
