AV-unprocessed.smi:1144|AV-procd|sdf|4880|dock10
  -GOLD-   22720 3453D 1   1.00000     0.00000
 Structure written by MMmdl.
 34 35  0  0  0  0  0  0  0  0  1 V2000
  147.7329  142.2680  157.4393 C   0  0  0  0  0  0  0  0  0  0  0  0
  148.4214  141.2614  156.6457 N   0  0  0  0  0  0  0  0  0  0  0  0
  148.2097  141.4669  155.2191 C   0  0  0  0  0  0  0  0  0  0  0  0
  148.9548  140.4176  154.3773 C   0  0  0  0  0  0  0  0  0  0  0  0
  150.3396  140.4385  154.7098 O   0  0  0  0  0  0  0  0  0  0  0  0
  150.5885  140.1768  156.0899 C   0  0  1  0  0  0  0  0  0  0  0  0
  152.1038  140.2194  156.3272 C   0  0  0  0  0  0  0  0  0  0  0  0
  152.4389  139.9383  157.7152 N   0  0  0  0  0  0  0  0  0  0  0  0
  152.5788  140.9073  158.6902 C   0  0  0  0  0  0  0  0  0  0  0  0
  153.1716  140.5081  159.8177 N   0  0  0  0  0  0  0  0  0  0  0  0
  153.3240  141.4313  160.7915 C   0  0  0  0  0  0  0  0  0  0  0  0
  152.8800  142.7588  160.6331 C   0  0  0  0  0  0  0  0  0  0  0  0
  152.2666  143.0704  159.3991 C   0  0  0  0  0  0  0  0  0  0  0  0
  151.7379  144.4619  159.0863 C   0  0  0  0  0  0  0  0  0  0  0  0
  150.4492  144.3887  158.7517 F   0  0  0  0  0  0  0  0  0  0  0  0
  151.8565  145.2771  160.1349 F   0  0  0  0  0  0  0  0  0  0  0  0
  152.4190  144.9840  158.0662 F   0  0  0  0  0  0  0  0  0  0  0  0
  152.1190  142.1365  158.4310 N   0  0  0  0  0  0  0  0  0  0  0  0
  149.8507  141.2390  156.9296 C   0  0  0  0  0  0  0  0  0  0  0  0
  146.6616  142.2535  157.2359 H   0  0  0  0  0  0  0  0  0  0  0  0
  148.1072  143.2684  157.2179 H   0  0  0  0  0  0  0  0  0  0  0  0
  147.8712  142.0817  158.5046 H   0  0  0  0  0  0  0  0  0  0  0  0
  147.1435  141.4249  154.9927 H   0  0  0  0  0  0  0  0  0  0  0  0
  148.5510  142.4636  154.9346 H   0  0  0  0  0  0  0  0  0  0  0  0
  148.5470  139.4205  154.5506 H   0  0  0  0  0  0  0  0  0  0  0  0
  148.8396  140.6320  153.3147 H   0  0  0  0  0  0  0  0  0  0  0  0
  150.2084  139.1860  156.3467 H   0  0  0  0  0  0  0  0  0  0  0  0
  152.6095  139.5054  155.6759 H   0  0  0  0  0  0  0  0  0  0  0  0
  152.4854  141.2099  156.0768 H   0  0  0  0  0  0  0  0  0  0  0  0
  152.6411  138.9841  157.9756 H   0  0  0  0  0  0  0  0  0  0  0  0
  153.8041  141.1086  161.7035 H   0  0  0  0  0  0  0  0  0  0  0  0
  153.0063  143.4898  161.4178 H   0  0  0  0  0  0  0  0  0  0  0  0
  150.2810  142.2218  156.7295 H   0  0  0  0  0  0  0  0  0  0  0  0
  150.0114  141.0396  157.9898 H   0  0  0  0  0  0  0  0  0  0  0  0
  1  2  1  0  0  0  0
  1 20  1  0  0  0  0
  1 21  1  0  0  0  0
  1 22  1  0  0  0  0
  2 19  1  0  0  0  0
  2  3  1  0  0  0  0
  3  4  1  0  0  0  0
  3 23  1  0  0  0  0
  3 24  1  0  0  0  0
  4  5  1  0  0  0  0
  4 25  1  0  0  0  0
  4 26  1  0  0  0  0
  5  6  1  0  0  0  0
  6  7  1  0  0  0  0
  6 19  1  0  0  0  0
  6 27  1  0  0  0  0
  7  8  1  0  0  0  0
  7 28  1  0  0  0  0
  7 29  1  0  0  0  0
  8  9  1  0  0  0  0
  8 30  1  0  0  0  0
  9 18  1  0  0  0  0
  9 10  2  0  0  0  0
 10 11  1  0  0  0  0
 11 12  2  0  0  0  0
 11 31  1  0  0  0  0
 12 13  1  0  0  0  0
 12 32  1  0  0  0  0
 13 14  1  0  0  0  0
 13 18  2  0  0  0  0
 14 15  1  0  0  0  0
 14 16  1  0  0  0  0
 14 17  1  0  0  0  0
 19 33  1  0  0  0  0
 19 34  1  0  0  0  0
M  END
> <s_m_source_file>
AV-unprocessed.smi

> <i_m_source_file_index>
1144

> <i_lp_mmshare_version>
43012

> <i_f3d_flags>
0

> <s_epik_input>
W0NIM11OMVtDSDJdW0NIMl1PW0NASF0oW0NIMl0xKVtDSDJdW05IXWMybltjSF1bY0hdYyhuMilDKEYpKEYpRg==

> <s_epik_cmdline>
J2VwaWtfcHl0aG9uJywgJy1waCcsICc3LjAnLCAnLXRuJywgJzgnLCAnLW1hJywgJzIwMCcsICctbWV0YWxfYmluZGluZycsICctaW1hZScsICc8aW5maWxlLm1hZT4nLCAnLW9tYWUnLCAnPG91dGZpbGUubWFlPic=

> <r_lp_tautomer_probability>
1

> <r_epik_Ionization_Penalty>
0.797829

> <r_epik_Ionization_Penalty_Charging>
0

> <r_epik_Ionization_Penalty_Neutral>
0.797829

> <r_epik_State_Penalty>
0.828842

> <r_epik_Charging_Adjusted_Penalty>
0.828842

> <i_epik_Tot_Q>
0

> <i_epik_Tot_abs_Q>
0

> <r_epik_Metal_State_Penalty>
0.828842

> <b_epik_Metal_Only>
0

> <s_lp_Force_Field>
OPLS_2005

> <r_lp_Energy>
13.1173

> <b_lp_Chiralities_Consistent>
1

> <s_lp_Variant>
AV-unprocessed.smi:1144-5

> <Gold.Version>
5.8.1

> <Gold.Id.Protein>
6NUR|6NUR_protein|mol2

> <Gold.PLP.Fitness>
44.2018

> <Gold.PLP.PLP>
-41.7604

> <Gold.PLP.part.hbond>
-1.0000

> <Gold.PLP.part.metal>
0.0000

> <Gold.PLP.part.buried>
-5.3219

> <Gold.PLP.part.nonpolar>
-35.7012

> <Gold.PLP.part.repulsive>
0.2747

> <Gold.PLP.ligand.clash>
0.0000

> <Gold.PLP.ligand.torsion>
0.2807

> <Gold.PLP.Chemscore.Hbond>
1.0000

> <Gold.PLP.Chemscore.CHOScore>
0.0000

> <Gold.PLP.Chemscore.Metal>
0.0000

> <Gold.Chemscore.Hbonds>
donor molecule, donor type, donor heavy atom, donor atom, acceptor molecule, acceptor atom, score
      P1  H  7989  7998       L1     5  1.00

> <Gold.PLP.Chemscore.Internal.Correction>
0.0028

> <Gold.Rescore>
     Score         DG    S(hbond)    S(metal)    S(lipo)     H(rot)  DE(clash)    DE(int)     intcor
     12.84     -14.34       0.96        0.00      77.03       1.31       0.15       1.36       ----

> <Gold.Chemscore.Fitness>
12.8373

> <Gold.Chemscore.DG>
-14.3407

> <Gold.Chemscore.ZeroCoef>
-5.4800

> <Gold.Chemscore.Hbond>
0.9623

> <Gold.Chemscore.Metal>
0.0000

> <Gold.Chemscore.Lipo>
77.0329

> <Gold.Chemscore.Internal_Hbond>
0.0000

> <Gold.Chemscore.DEClash>
0.1463

> <Gold.Chemscore.DEInternal>
1.3570

> <Gold.Chemscore.Rot>
1.3149

> <Gold.Chemscore.Internal.Correction>
   9.000000E+99

> <Gold.Chemscore.Hbonds>
donor molecule, donor type, donor heavy atom, donor atom, acceptor molecule, acceptor atom, score
      P1  H  7989  7998       L1     5  0.94

> <Gold.Chemscore.Hbond.Weighted>
-3.2140

> <Gold.Chemscore.Metal.Weighted>
-0.0000

> <Gold.Chemscore.Lipo.Weighted>
-9.0129

> <Gold.Chemscore.Internal_Hbond.Weighted>
0.0000

> <Gold.Chemscore.DEClash.Weighted>
0.1463

> <Gold.Chemscore.DEInternal.Weighted>
1.3570

> <Gold.Chemscore.Rot.Weighted>
3.3662

> <Gold.Chemscore.Internal.Correction.Weighted>
   9.000000E+99

> <Gold.Protein.RotatedTorsions>
[ 6907 6896 6895 6894 ] final  150.72 input  -60.11 | X-H torsion
[ 7974 7965 7964 7962 ] final  -45.47 input  175.53 | X-H torsion
[ 8008 7997 7996 7995 ] final  -30.44 input   59.86 | X-H torsion
[ 10167 10162 10161 10158 ] final -145.36 input  -65.29 | X-H torsion
[ 10718 10713 10712 10709 ] final  -56.14 input   66.30 | X-H torsion
[ 10763 10752 10751 10750 ] final  -18.27 input  -60.55 | X-H torsion
[ 11005 11000 10999 10996 ] final  -51.81 input  -57.11 | X-H torsion

> <Gold.Protein.ActiveResidues>
 VAL166  LYS551  ARG553  GLY616  TRP617  ASP618  TYR619  PRO620  LYS621  CYS622 
 ASP623  PHE694  ASN695  SER759  ASP760  ASP761  ALA762  ILE779  LEU786  VAL792 
 PHE793  MET794  SER795  GLU796  ALA797  LYS798  CYS799  TRP800  GLU811  SER814 

> <Gold.Protein.RotatedAtoms>
  152.1106  133.4298  159.4628 H   0  0  0  0  0  0  0  0  0  0  0  0  # atno 6907 bound_to 6896
  150.6867  134.2653  159.4575 H   0  0  0  0  0  0  0  0  0  0  0  0  # atno 6908 bound_to 6896
  152.0521  134.9647  160.0625 H   0  0  0  0  0  0  0  0  0  0  0  0  # atno 6909 bound_to 6896
  145.9818  140.7276  142.9360 H   0  0  0  0  0  0  0  0  0  0  0  0  # atno 7974 bound_to 7965
  154.4250  140.1791  156.1408 H   0  0  0  0  0  0  0  0  0  0  0  0  # atno 8008 bound_to 7997
  155.9993  140.3361  155.6805 H   0  0  0  0  0  0  0  0  0  0  0  0  # atno 8009 bound_to 7997
  155.6265  140.0665  157.2653 H   0  0  0  0  0  0  0  0  0  0  0  0  # atno 8010 bound_to 7997
  139.7812  143.8098  152.2639 H   0  0  0  0  0  0  0  0  0  0  0  0  # atno 10167 bound_to 10162
  156.1312  130.4159  150.0265 H   0  0  0  0  0  0  0  0  0  0  0  0  # atno 10718 bound_to 10713
  153.5867  135.7003  153.5440 H   0  0  0  0  0  0  0  0  0  0  0  0  # atno 10763 bound_to 10752
  153.3214  135.4073  155.1419 H   0  0  0  0  0  0  0  0  0  0  0  0  # atno 10764 bound_to 10752
  154.8608  135.3696  154.5397 H   0  0  0  0  0  0  0  0  0  0  0  0  # atno 10765 bound_to 10752
  141.0891  133.6636  156.3933 H   0  0  0  0  0  0  0  0  0  0  0  0  # atno 11005 bound_to 11000
  144.6863  140.2921  143.7276 LP  0  0  0  0  0  0  0  0  0  0  0  0  # atno 17320 bound_to 7965
  145.7759  139.1874  143.2186 LP  0  0  0  0  0  0  0  0  0  0  0  0  # atno 17321 bound_to 7965
  139.8161  144.7315  150.9633 LP  0  0  0  0  0  0  0  0  0  0  0  0  # atno 17342 bound_to 10162
  140.7818  143.4204  151.0851 LP  0  0  0  0  0  0  0  0  0  0  0  0  # atno 17343 bound_to 10162
  156.8177  130.9347  151.3642 LP  0  0  0  0  0  0  0  0  0  0  0  0  # atno 17370 bound_to 10713
  157.6490  130.8868  149.9595 LP  0  0  0  0  0  0  0  0  0  0  0  0  # atno 17371 bound_to 10713
  140.5294  134.6227  157.5345 LP  0  0  0  0  0  0  0  0  0  0  0  0  # atno 17394 bound_to 11000
  139.9714  134.7287  156.0034 LP  0  0  0  0  0  0  0  0  0  0  0  0  # atno 17395 bound_to 11000

$$$$
