AV-unprocessed.smi:1417|AV-procd|sdf|5771|dock5
  -GOLD-   22720 5413D 1   1.00000     0.00000
 Structure written by MMmdl.
 39 40  0  0  0  0  0  0  0  0  3 V2000
  148.9881  124.9574  152.3801 C   0  0  0  0  0  0  0  0  0  0  0  0
  148.4211  126.3349  152.4237 C   0  0  0  0  0  0  0  0  0  0  0  0
  148.5605  127.4233  151.6097 C   0  0  0  0  0  0  0  0  0  0  0  0
  147.7402  128.4024  152.2424 C   0  0  0  0  0  0  0  0  0  0  0  0
  147.5290  129.7348  151.8027 N   0  0  0  0  0  0  0  0  0  0  0  0
  146.8186  130.7074  152.3983 C   0  0  0  0  0  0  0  0  0  0  0  0
  146.2315  130.6047  153.4752 O   0  0  0  0  0  0  0  0  0  0  0  0
  146.8195  131.8296  151.6637 N   0  0  0  0  0  0  0  0  0  0  0  0
  146.1220  133.0632  152.0157 C   0  0  2  0  0  0  0  0  0  0  0  0
  146.0353  134.0084  150.8032 C   0  0  0  0  0  0  0  0  0  0  0  0
  145.3977  135.3530  151.1886 C   0  0  0  0  0  0  0  0  0  0  0  0
  146.1389  135.9986  152.3053 N   0  3  1  0  0  0  0  0  0  0  0  0
  145.6392  137.3580  152.6283 C   0  0  0  0  0  0  0  0  0  0  0  0
  146.4778  138.4155  151.9024 C   0  0  0  0  0  0  0  0  0  0  0  0
  146.6379  138.1367  150.5949 N   0  5  0  0  0  0  0  0  0  0  0  0
  146.9268  139.3714  152.5317 O   0  0  0  0  0  0  0  0  0  0  0  0
  146.1987  135.1197  153.5005 C   0  0  0  0  0  0  0  0  0  0  0  0
  146.8570  133.7704  153.1656 C   0  0  0  0  0  0  0  0  0  0  0  0
  147.1584  127.9478  153.3370 N   0  0  0  0  0  0  0  0  0  0  0  0
  147.5888  126.6217  153.4606 O   0  0  0  0  0  0  0  0  0  0  0  0
  149.8388  124.9085  151.6999 H   0  0  0  0  0  0  0  0  0  0  0  0
  148.2397  124.2430  152.0374 H   0  0  0  0  0  0  0  0  0  0  0  0
  149.3277  124.6452  153.3677 H   0  0  0  0  0  0  0  0  0  0  0  0
  149.1572  127.4891  150.7126 H   0  0  0  0  0  0  0  0  0  0  0  0
  147.9610  129.9691  150.9211 H   0  0  0  0  0  0  0  0  0  0  0  0
  147.3312  131.8277  150.7934 H   0  0  0  0  0  0  0  0  0  0  0  0
  145.1124  132.8194  152.3524 H   0  0  0  0  0  0  0  0  0  0  0  0
  147.0327  134.1843  150.3975 H   0  0  0  0  0  0  0  0  0  0  0  0
  145.4543  133.5466  150.0042 H   0  0  0  0  0  0  0  0  0  0  0  0
  145.3895  136.0039  150.3139 H   0  0  0  0  0  0  0  0  0  0  0  0
  144.3565  135.2045  151.4790 H   0  0  0  0  0  0  0  0  0  0  0  0
  144.5725  137.4356  152.4057 H   0  0  0  0  0  0  0  0  0  0  0  0
  145.7464  137.5513  153.6966 H   0  0  0  0  0  0  0  0  0  0  0  0
  145.8200  138.1903  149.9757 H   0  0  0  0  0  0  0  0  0  0  0  0
  146.7712  135.6094  154.2894 H   0  0  0  0  0  0  0  0  0  0  0  0
  145.1912  134.9634  153.8889 H   0  0  0  0  0  0  0  0  0  0  0  0
  146.8648  133.1351  154.0522 H   0  0  0  0  0  0  0  0  0  0  0  0
  147.9008  133.9360  152.8940 H   0  0  0  0  0  0  0  0  0  0  0  0
  147.0916  136.1239  151.9939 H   0  0  0  0  0  0  0  0  0  0  0  0
  1  2  1  0  0  0  0
  1 21  1  0  0  0  0
  1 22  1  0  0  0  0
  1 23  1  0  0  0  0
  2 20  1  0  0  0  0
  2  3  2  0  0  0  0
  3  4  1  0  0  0  0
  3 24  1  0  0  0  0
  4  5  1  0  0  0  0
  4 19  2  0  0  0  0
  5  6  1  0  0  0  0
  5 25  1  0  0  0  0
  6  7  2  0  0  0  0
  6  8  1  0  0  0  0
  8  9  1  0  0  0  0
  8 26  1  0  0  0  0
  9 18  1  0  0  0  0
  9 10  1  0  0  0  0
  9 27  1  0  0  0  0
 10 11  1  0  0  0  0
 10 28  1  0  0  0  0
 10 29  1  0  0  0  0
 11 12  1  0  0  0  0
 11 30  1  0  0  0  0
 11 31  1  0  0  0  0
 12 13  1  0  0  0  0
 12 17  1  0  0  0  0
 12 39  1  0  0  0  0
 13 14  1  0  0  0  0
 13 32  1  0  0  0  0
 13 33  1  0  0  0  0
 14 15  1  0  0  0  0
 14 16  2  0  0  0  0
 15 34  1  0  0  0  0
 17 18  1  0  0  0  0
 17 35  1  0  0  0  0
 17 36  1  0  0  0  0
 18 37  1  0  0  0  0
 18 38  1  0  0  0  0
 19 20  1  0  0  0  0
M  CHG  1  12   1
M  CHG  1  15  -1
M  END
> <s_m_source_file>
AV-unprocessed.smi

> <i_m_source_file_index>
1417

> <i_lp_mmshare_version>
43012

> <i_f3d_flags>
0

> <s_epik_input>
W0NIM11jMVtjSF1jKG5vMSlbTkhdQyg9TylbTkhdW0NIXTJbQ0gyXVtDSDJdTihbQ0gyXVtDSDJdMilbQ0gyXUMoPU8pW05IMl0=

> <s_epik_cmdline>
J2VwaWtfcHl0aG9uJywgJy1waCcsICc3LjAnLCAnLXRuJywgJzgnLCAnLW1hJywgJzIwMCcsICctbWV0YWxfYmluZGluZycsICctaW1hZScsICc8aW5maWxlLm1hZT4nLCAnLW9tYWUnLCAnPG91dGZpbGUubWFlPic=

> <r_epik_Ionization_Penalty>
5.73218

> <r_epik_Ionization_Penalty_Charging>
5.73215

> <r_epik_Ionization_Penalty_Neutral>
3.37968e-05

> <r_epik_State_Penalty>
6.58009

> <r_epik_Charging_Adjusted_Penalty>
12.3122

> <i_epik_Tot_Q>
0

> <i_epik_Tot_abs_Q>
2

> <r_epik_Metal_State_Penalty>
2.55295

> <b_epik_Metal_Only>
1

> <s_lp_Force_Field>
OPLS_2005

> <r_lp_Energy>
6.84109

> <b_lp_Chiralities_Consistent>
1

> <s_lp_Variant>
AV-unprocessed.smi:1417-7

> <Gold.Version>
5.8.1

> <Gold.Id.Protein>
6NUR|6NUR_protein|mol2

> <Gold.PLP.Fitness>
48.8927

> <Gold.PLP.PLP>
-34.4357

> <Gold.PLP.part.hbond>
-5.9506

> <Gold.PLP.part.metal>
0.0000

> <Gold.PLP.part.buried>
-5.3169

> <Gold.PLP.part.nonpolar>
-23.9291

> <Gold.PLP.part.repulsive>
1.1960

> <Gold.PLP.ligand.clash>
0.0000

> <Gold.PLP.ligand.torsion>
0.8260

> <Gold.PLP.Chemscore.Hbond>
5.3616

> <Gold.PLP.Chemscore.CHOScore>
0.0000

> <Gold.PLP.Chemscore.Metal>
0.0000

> <Gold.Chemscore.Hbonds>
donor molecule, donor type, donor heavy atom, donor atom, acceptor molecule, acceptor atom, score
      L1  H     5    25       P1 10747  0.74
      L1  H     8    26       P1 10747  0.62
      L1  H    12    39       P1  7948  2.00
      L1  H    15    34       P1 10171  0.96
      P1  H  7954  7966       L1    15  0.98

> <Gold.PLP.Chemscore.Internal.Correction>
0.0242

> <Gold.Rescore>
     Score         DG    S(hbond)    S(metal)    S(lipo)     H(rot)  DE(clash)    DE(int)     intcor
     17.46     -19.71       4.42        0.00      39.61       2.02       0.08       2.16       ----

> <Gold.Chemscore.Fitness>
17.4649

> <Gold.Chemscore.DG>
-19.7074

> <Gold.Chemscore.ZeroCoef>
-5.4800

> <Gold.Chemscore.Hbond>
4.4186

> <Gold.Chemscore.Metal>
0.0000

> <Gold.Chemscore.Lipo>
39.6115

> <Gold.Chemscore.Internal_Hbond>
0.0000

> <Gold.Chemscore.DEClash>
0.0811

> <Gold.Chemscore.DEInternal>
2.1614

> <Gold.Chemscore.Rot>
2.0176

> <Gold.Chemscore.Internal.Correction>
   9.000000E+99

> <Gold.Chemscore.Hbonds>
donor molecule, donor type, donor heavy atom, donor atom, acceptor molecule, acceptor atom, score
      L1  H     5    25       P1 10747  0.71
      L1  H     8    26       P1 10747  0.61
      L1  H    12    39       P1  7948  1.00
      L1  H    15    34       P1 10171  0.91
      P1  H  7954  7966       L1    15  0.89

> <Gold.Chemscore.Hbond.Weighted>
-14.7580

> <Gold.Chemscore.Metal.Weighted>
-0.0000

> <Gold.Chemscore.Lipo.Weighted>
-4.6345

> <Gold.Chemscore.Internal_Hbond.Weighted>
0.0000

> <Gold.Chemscore.DEClash.Weighted>
0.0811

> <Gold.Chemscore.DEInternal.Weighted>
2.1614

> <Gold.Chemscore.Rot.Weighted>
5.1651

> <Gold.Chemscore.Internal.Correction.Weighted>
   9.000000E+99

> <Gold.Protein.RotatedTorsions>
[ 6907 6896 6895 6894 ] final   28.86 input  -60.11 | X-H torsion
[ 7974 7965 7964 7962 ] final  -78.33 input  175.53 | X-H torsion
[ 8008 7997 7996 7995 ] final   16.94 input   59.86 | X-H torsion
[ 10167 10162 10161 10158 ] final   17.93 input  -65.29 | X-H torsion
[ 10718 10713 10712 10709 ] final  -55.43 input   66.30 | X-H torsion
[ 10763 10752 10751 10750 ] final   27.11 input  -60.55 | X-H torsion
[ 11005 11000 10999 10996 ] final  139.01 input  -57.11 | X-H torsion

> <Gold.Protein.ActiveResidues>
 VAL166  LYS551  ARG553  GLY616  TRP617  ASP618  TYR619  PRO620  LYS621  CYS622 
 ASP623  PHE694  ASN695  SER759  ASP760  ASP761  ALA762  ILE779  LEU786  VAL792 
 PHE793  MET794  SER795  GLU796  ALA797  LYS798  CYS799  TRP800  GLU811  SER814 

> <Gold.Protein.RotatedAtoms>
  152.0232  134.9811  160.0570 H   0  0  0  0  0  0  0  0  0  0  0  0  # atno 6907 bound_to 6896
  152.1317  133.4407  159.4732 H   0  0  0  0  0  0  0  0  0  0  0  0  # atno 6908 bound_to 6896
  150.6857  134.2331  159.4485 H   0  0  0  0  0  0  0  0  0  0  0  0  # atno 6909 bound_to 6896
  145.5879  140.9435  143.1308 H   0  0  0  0  0  0  0  0  0  0  0  0  # atno 7974 bound_to 7965
  154.8841  140.2977  155.5408 H   0  0  0  0  0  0  0  0  0  0  0  0  # atno 8008 bound_to 7997
  156.3021  140.2437  156.3782 H   0  0  0  0  0  0  0  0  0  0  0  0  # atno 8009 bound_to 7997
  154.8686  140.0402  157.1699 H   0  0  0  0  0  0  0  0  0  0  0  0  # atno 8010 bound_to 7997
  140.5690  143.9197  150.6698 H   0  0  0  0  0  0  0  0  0  0  0  0  # atno 10167 bound_to 10162
  156.1369  130.4156  150.0170 H   0  0  0  0  0  0  0  0  0  0  0  0  # atno 10718 bound_to 10713
  153.0577  135.6544  154.0536 H   0  0  0  0  0  0  0  0  0  0  0  0  # atno 10763 bound_to 10752
  154.0211  135.2920  155.3382 H   0  0  0  0  0  0  0  0  0  0  0  0  # atno 10764 bound_to 10752
  154.6901  135.5286  153.8448 H   0  0  0  0  0  0  0  0  0  0  0  0  # atno 10765 bound_to 10752
  140.0224  134.9390  157.0501 H   0  0  0  0  0  0  0  0  0  0  0  0  # atno 11005 bound_to 11000
  144.7364  139.7572  143.7327 LP  0  0  0  0  0  0  0  0  0  0  0  0  # atno 17320 bound_to 7965
  146.1668  139.4803  142.9953 LP  0  0  0  0  0  0  0  0  0  0  0  0  # atno 17321 bound_to 7965
  140.2667  143.3485  152.1274 LP  0  0  0  0  0  0  0  0  0  0  0  0  # atno 17342 bound_to 10162
  139.5107  144.6889  151.5812 LP  0  0  0  0  0  0  0  0  0  0  0  0  # atno 17343 bound_to 10162
  156.8066  130.9310  151.3645 LP  0  0  0  0  0  0  0  0  0  0  0  0  # atno 17370 bound_to 10713
  157.6541  130.8909  149.9692 LP  0  0  0  0  0  0  0  0  0  0  0  0  # atno 17371 bound_to 10713
  140.4364  134.1727  155.7171 LP  0  0  0  0  0  0  0  0  0  0  0  0  # atno 17394 bound_to 11000
  141.1782  133.8469  157.1349 LP  0  0  0  0  0  0  0  0  0  0  0  0  # atno 17395 bound_to 11000

$$$$
