AV-unprocessed.smi:3089|AV-procd|sdf|11770|dock3
  -GOLD-   2272017153D 1   1.00000     0.00000
 Structure written by MMmdl.
 25 25  0  0  0  0  0  0  0  0  2 V2000
  151.8449  142.4000  158.2335 C   0  0  0  0  0  0  0  0  0  0  0  0
  151.2068  141.5168  157.2806 N   0  0  0  0  0  0  0  0  0  0  0  0
  150.3336  141.8338  156.2633 C   0  0  0  0  0  0  0  0  0  0  0  0
  149.9952  140.6701  155.6278 C   0  0  0  0  0  0  0  0  0  0  0  0
  149.0620  140.4741  154.4512 C   0  0  1  0  0  0  0  0  0  0  0  0
  147.6873  141.0906  154.7620 C   0  0  0  0  0  0  0  0  0  0  0  0
  149.5293  141.1363  153.2904 O   0  0  0  0  0  0  0  0  0  0  0  0
  148.9155  138.9772  154.0985 C   0  0  0  0  0  0  0  0  0  0  0  0
  148.2404  138.7718  152.8032 N   0  3  0  0  0  0  0  0  0  0  0  0
  150.7354  139.6845  156.3460 C   0  0  0  0  0  0  0  0  0  0  0  0
  151.4525  140.1928  157.3344 N   0  0  0  0  0  0  0  0  0  0  0  0
  151.5389  143.4307  158.0524 H   0  0  0  0  0  0  0  0  0  0  0  0
  152.9283  142.3300  158.1342 H   0  0  0  0  0  0  0  0  0  0  0  0
  151.5589  142.1188  159.2475 H   0  0  0  0  0  0  0  0  0  0  0  0
  150.0259  142.8522  156.0766 H   0  0  0  0  0  0  0  0  0  0  0  0
  147.2251  140.6167  155.6288 H   0  0  0  0  0  0  0  0  0  0  0  0
  146.9986  140.9770  153.9238 H   0  0  0  0  0  0  0  0  0  0  0  0
  147.7702  142.1569  154.9771 H   0  0  0  0  0  0  0  0  0  0  0  0
  149.6610  140.4962  152.6073 H   0  0  0  0  0  0  0  0  0  0  0  0
  149.8969  138.5044  154.0441 H   0  0  0  0  0  0  0  0  0  0  0  0
  148.3567  138.4497  154.8727 H   0  0  0  0  0  0  0  0  0  0  0  0
  148.4250  137.8381  152.4660 H   0  0  0  0  0  0  0  0  0  0  0  0
  148.5851  139.4475  152.1362 H   0  0  0  0  0  0  0  0  0  0  0  0
  150.7690  138.6175  156.1816 H   0  0  0  0  0  0  0  0  0  0  0  0
  147.2454  138.8993  152.9227 H   0  0  0  0  0  0  0  0  0  0  0  0
  1  2  1  0  0  0  0
  1 12  1  0  0  0  0
  1 13  1  0  0  0  0
  1 14  1  0  0  0  0
  2 11  1  0  0  0  0
  2  3  1  0  0  0  0
  3  4  2  0  0  0  0
  3 15  1  0  0  0  0
  4  5  1  0  0  0  0
  4 10  1  0  0  0  0
  5  6  1  0  0  0  0
  5  7  1  0  0  0  0
  5  8  1  0  0  0  0
  6 16  1  0  0  0  0
  6 17  1  0  0  0  0
  6 18  1  0  0  0  0
  7 19  1  0  0  0  0
  8  9  1  0  0  0  0
  8 20  1  0  0  0  0
  8 21  1  0  0  0  0
  9 22  1  0  0  0  0
  9 23  1  0  0  0  0
  9 25  1  0  0  0  0
 10 11  2  0  0  0  0
 10 24  1  0  0  0  0
M  CHG  1   9   1
M  END
> <s_m_source_file>
AV-unprocessed.smi

> <i_m_source_file_index>
3089

> <i_lp_mmshare_version>
43012

> <i_f3d_flags>
0

> <s_epik_input>
W0NIM11uMVtjSF1jKFtjSF1uMSlbQ0BAXShbQ0gzXSkoW09IXSlbQ0gyXVtOSDJd

> <s_epik_cmdline>
J2VwaWtfcHl0aG9uJywgJy1waCcsICc3LjAnLCAnLXRuJywgJzgnLCAnLW1hJywgJzIwMCcsICctbWV0YWxfYmluZGluZycsICctaW1hZScsICc8aW5maWxlLm1hZT4nLCAnLW9tYWUnLCAnPG91dGZpbGUubWFlPic=

> <r_lp_tautomer_probability>
1

> <r_epik_Ionization_Penalty>
0.0140512

> <r_epik_Ionization_Penalty_Charging>
0.0140431

> <r_epik_Ionization_Penalty_Neutral>
8.10489e-06

> <r_epik_State_Penalty>
0.0109628

> <r_epik_Charging_Adjusted_Penalty>
0.0250059

> <i_epik_Tot_Q>
1

> <i_epik_Tot_abs_Q>
1

> <r_epik_Metal_State_Penalty>
0.0109638

> <b_epik_Metal_Only>
0

> <s_lp_Force_Field>
OPLS_2005

> <r_lp_Energy>
3.27267

> <b_lp_Chiralities_Consistent>
1

> <s_lp_Variant>
AV-unprocessed.smi:3089-1

> <Gold.Version>
5.8.1

> <Gold.Id.Protein>
6NUR|6NUR_protein|mol2

> <Gold.PLP.Fitness>
38.9419

> <Gold.PLP.PLP>
-21.8211

> <Gold.PLP.part.hbond>
-4.3788

> <Gold.PLP.part.metal>
0.0000

> <Gold.PLP.part.buried>
-2.8698

> <Gold.PLP.part.nonpolar>
-14.6032

> <Gold.PLP.part.repulsive>
0.0668

> <Gold.PLP.ligand.clash>
0.0000

> <Gold.PLP.ligand.torsion>
0.1486

> <Gold.PLP.Chemscore.Hbond>
4.8004

> <Gold.PLP.Chemscore.CHOScore>
1.0000

> <Gold.PLP.Chemscore.Metal>
0.0000

> <Gold.Chemscore.Hbonds>
donor molecule, donor type, donor heavy atom, donor atom, acceptor molecule, acceptor atom, score
      L1  H     7    19       P1  7957  0.96
      L1  H     9    22       P1  7948  2.00
      L1  H     9    23       P1  7957  0.98
      P1  H  7989  7998       L1     7  0.01
      P1  H  8011  8017       L1     7  0.70
      L1  C     3    15       P1  8028  1.00

> <Gold.PLP.Chemscore.Internal.Correction>
0.0166

> <Gold.Rescore>
     Score         DG    S(hbond)    S(metal)    S(lipo)     H(rot)  DE(clash)    DE(int)     intcor
     16.93     -17.06       3.29        0.00      46.55       1.89       0.00       0.13       ----

> <Gold.Chemscore.Fitness>
16.9299

> <Gold.Chemscore.DG>
-17.0649

> <Gold.Chemscore.ZeroCoef>
-5.4800

> <Gold.Chemscore.Hbond>
3.2852

> <Gold.Chemscore.Metal>
0.0000

> <Gold.Chemscore.Lipo>
46.5492

> <Gold.Chemscore.Internal_Hbond>
0.0000

> <Gold.Chemscore.DEClash>
0.0021

> <Gold.Chemscore.DEInternal>
0.1328

> <Gold.Chemscore.Rot>
1.8883

> <Gold.Chemscore.Internal.Correction>
   9.000000E+99

> <Gold.Chemscore.Hbonds>
donor molecule, donor type, donor heavy atom, donor atom, acceptor molecule, acceptor atom, score
      L1  H     7    19       P1  7957  0.88
      L1  H     9    22       P1  7948  1.00
      L1  H     9    23       P1  7957  0.89
      P1  H  8011  8017       L1     7  0.07

> <Gold.Chemscore.Hbond.Weighted>
-10.9727

> <Gold.Chemscore.Metal.Weighted>
-0.0000

> <Gold.Chemscore.Lipo.Weighted>
-5.4463

> <Gold.Chemscore.Internal_Hbond.Weighted>
0.0000

> <Gold.Chemscore.DEClash.Weighted>
0.0021

> <Gold.Chemscore.DEInternal.Weighted>
0.1328

> <Gold.Chemscore.Rot.Weighted>
4.8341

> <Gold.Chemscore.Internal.Correction.Weighted>
   9.000000E+99

> <Gold.Protein.RotatedTorsions>
[ 6907 6896 6895 6894 ] final  177.64 input  -60.11 | X-H torsion
[ 7974 7965 7964 7962 ] final  129.03 input  175.53 | X-H torsion
[ 8008 7997 7996 7995 ] final   98.10 input   59.86 | X-H torsion
[ 10167 10162 10161 10158 ] final  -89.46 input  -65.29 | X-H torsion
[ 10718 10713 10712 10709 ] final  -94.06 input   66.30 | X-H torsion
[ 10763 10752 10751 10750 ] final  132.83 input  -60.55 | X-H torsion
[ 11005 11000 10999 10996 ] final  -94.44 input  -57.11 | X-H torsion

> <Gold.Protein.ActiveResidues>
 VAL166  LYS551  ARG553  GLY616  TRP617  ASP618  TYR619  PRO620  LYS621  CYS622 
 ASP623  PHE694  ASN695  SER759  ASP760  ASP761  ALA762  ILE779  LEU786  VAL792 
 PHE793  MET794  SER795  GLU796  ALA797  LYS798  CYS799  TRP800  GLU811  SER814 

> <Gold.Protein.RotatedAtoms>
  151.7007  133.3311  159.3265 H   0  0  0  0  0  0  0  0  0  0  0  0  # atno 6907 bound_to 6896
  150.7737  134.6618  159.6353 H   0  0  0  0  0  0  0  0  0  0  0  0  # atno 6908 bound_to 6896
  152.3771  134.6649  160.0208 H   0  0  0  0  0  0  0  0  0  0  0  0  # atno 6909 bound_to 6896
  145.0331  139.4028  143.5139 H   0  0  0  0  0  0  0  0  0  0  0  0  # atno 7974 bound_to 7965
  156.0970  140.3248  155.7891 H   0  0  0  0  0  0  0  0  0  0  0  0  # atno 8008 bound_to 7997
  155.4901  140.0561  157.2972 H   0  0  0  0  0  0  0  0  0  0  0  0  # atno 8009 bound_to 7997
  154.4672  140.1995  156.0102 H   0  0  0  0  0  0  0  0  0  0  0  0  # atno 8010 bound_to 7997
  140.3645  143.2825  151.9574 H   0  0  0  0  0  0  0  0  0  0  0  0  # atno 10167 bound_to 10162
  156.0022  130.5052  150.5870 H   0  0  0  0  0  0  0  0  0  0  0  0  # atno 10718 bound_to 10713
  153.7972  135.3147  155.3386 H   0  0  0  0  0  0  0  0  0  0  0  0  # atno 10763 bound_to 10752
  154.8103  135.4671  154.0502 H   0  0  0  0  0  0  0  0  0  0  0  0  # atno 10764 bound_to 10752
  153.1838  135.6898  153.8529 H   0  0  0  0  0  0  0  0  0  0  0  0  # atno 10765 bound_to 10752
  141.1470  133.7957  157.0299 H   0  0  0  0  0  0  0  0  0  0  0  0  # atno 11005 bound_to 11000
  146.3501  139.9892  142.8687 LP  0  0  0  0  0  0  0  0  0  0  0  0  # atno 17320 bound_to 7965
  145.1744  140.9737  143.4303 LP  0  0  0  0  0  0  0  0  0  0  0  0  # atno 17321 bound_to 7965
  139.4810  144.5962  151.7685 LP  0  0  0  0  0  0  0  0  0  0  0  0  # atno 17342 bound_to 10162
  140.5094  144.1048  150.5991 LP  0  0  0  0  0  0  0  0  0  0  0  0  # atno 17343 bound_to 10162
  157.3741  131.0770  151.1533 LP  0  0  0  0  0  0  0  0  0  0  0  0  # atno 17370 bound_to 10713
  157.2277  130.6510  149.5836 LP  0  0  0  0  0  0  0  0  0  0  0  0  # atno 17371 bound_to 10713
  140.0761  134.9675  157.1547 LP  0  0  0  0  0  0  0  0  0  0  0  0  # atno 17394 bound_to 11000
  140.3642  134.2461  155.7184 LP  0  0  0  0  0  0  0  0  0  0  0  0  # atno 17395 bound_to 11000

$$$$
