AV-unprocessed.smi:382|AV-procd|sdf|2463|dock6
  -GOLD-   2262022403D 1   1.00000     0.00000
 Structure written by MMmdl.
 36 37  0  0  0  0  0  0  0  0  1 V2000
  146.7182  141.9469  153.9866 C   0  0  0  0  0  0  0  0  0  0  0  0
  147.9030  141.6236  154.9077 C   0  0  0  0  0  0  0  0  0  0  0  0
  148.7953  140.4790  154.3921 C   0  0  0  0  0  0  0  0  0  0  0  0
  150.1367  140.5133  154.9656 N   0  0  0  0  0  0  0  0  0  0  0  0
  150.4235  140.3916  156.2702 C   0  0  0  0  0  0  0  0  0  0  0  0
  149.5616  140.2618  157.1408 O   0  0  0  0  0  0  0  0  0  0  0  0
  151.9147  140.4331  156.6365 C   0  0  0  0  0  0  0  0  0  0  0  0
  152.2047  141.2952  157.8031 N   0  0  0  0  0  0  0  0  0  0  0  0
  153.0461  140.7977  158.8311 C   0  0  0  0  0  0  0  0  0  0  0  0
  153.5130  139.6588  158.7750 O   0  0  0  0  0  0  0  0  0  0  0  0
  153.3189  141.7273  159.9249 C   0  0  0  0  0  0  0  0  0  0  0  0
  154.1876  141.2767  160.9615 C   0  0  0  0  0  0  0  0  0  0  0  0
  154.8826  140.9283  161.8190 N   0  0  0  0  0  0  0  0  0  0  0  0
  152.7724  142.9605  159.9419 C   0  0  0  0  0  0  0  0  0  0  0  0
  151.9254  143.4099  158.9524 N   0  0  0  0  0  0  0  0  0  0  0  0
  151.4793  144.7741  158.9118 C   0  0  0  0  0  0  0  0  0  0  0  0
  151.8058  145.6870  160.0735 C   0  0  0  0  0  0  0  0  0  0  0  0
  150.3800  145.2496  159.8419 C   0  0  0  0  0  0  0  0  0  0  0  0
  151.6620  142.6030  157.8240 C   0  0  0  0  0  0  0  0  0  0  0  0
  150.9887  143.0251  156.8801 O   0  0  0  0  0  0  0  0  0  0  0  0
  146.1506  142.7946  154.3710 H   0  0  0  0  0  0  0  0  0  0  0  0
  146.0326  141.1031  153.9053 H   0  0  0  0  0  0  0  0  0  0  0  0
  147.0583  142.2025  152.9827 H   0  0  0  0  0  0  0  0  0  0  0  0
  148.5137  142.5191  155.0252 H   0  0  0  0  0  0  0  0  0  0  0  0
  147.5298  141.3831  155.9039 H   0  0  0  0  0  0  0  0  0  0  0  0
  148.3442  139.5187  154.6436 H   0  0  0  0  0  0  0  0  0  0  0  0
  148.8583  140.5118  153.3032 H   0  0  0  0  0  0  0  0  0  0  0  0
  150.9052  140.6227  154.3196 H   0  0  0  0  0  0  0  0  0  0  0  0
  152.2668  139.4162  156.8199 H   0  0  0  0  0  0  0  0  0  0  0  0
  152.4730  140.7500  155.7548 H   0  0  0  0  0  0  0  0  0  0  0  0
  153.0015  143.6221  160.7648 H   0  0  0  0  0  0  0  0  0  0  0  0
  151.4978  145.2380  157.9270 H   0  0  0  0  0  0  0  0  0  0  0  0
  152.3237  145.2612  160.9309 H   0  0  0  0  0  0  0  0  0  0  0  0
  152.0578  146.7203  159.8441 H   0  0  0  0  0  0  0  0  0  0  0  0
  149.6824  145.9890  159.4544 H   0  0  0  0  0  0  0  0  0  0  0  0
  149.9585  144.5380  160.5493 H   0  0  0  0  0  0  0  0  0  0  0  0
  1  2  1  0  0  0  0
  1 21  1  0  0  0  0
  1 22  1  0  0  0  0
  1 23  1  0  0  0  0
  2  3  1  0  0  0  0
  2 24  1  0  0  0  0
  2 25  1  0  0  0  0
  3  4  1  0  0  0  0
  3 26  1  0  0  0  0
  3 27  1  0  0  0  0
  4  5  1  0  0  0  0
  4 28  1  0  0  0  0
  5  6  2  0  0  0  0
  5  7  1  0  0  0  0
  7  8  1  0  0  0  0
  7 29  1  0  0  0  0
  7 30  1  0  0  0  0
  8 19  1  0  0  0  0
  8  9  1  0  0  0  0
  9 10  2  0  0  0  0
  9 11  1  0  0  0  0
 11 12  1  0  0  0  0
 11 14  2  0  0  0  0
 12 13  3  0  0  0  0
 14 15  1  0  0  0  0
 14 31  1  0  0  0  0
 15 16  1  0  0  0  0
 15 19  1  0  0  0  0
 16 18  1  0  0  0  0
 16 17  1  0  0  0  0
 16 32  1  0  0  0  0
 17 18  1  0  0  0  0
 17 33  1  0  0  0  0
 17 34  1  0  0  0  0
 18 35  1  0  0  0  0
 18 36  1  0  0  0  0
 19 20  2  0  0  0  0
M  END
> <s_m_source_file>
AV-unprocessed.smi

> <i_m_source_file_index>
382

> <i_lp_mmshare_version>
43012

> <i_f3d_flags>
0

> <s_epik_input>
W0NIM11bQ0gyXVtDSDJdW05IXUMoPU8pW0NIMl1uMWMoPU8pYyhDI04pW2NIXW4oYzE9TylbQ0hdMltDSDJdW0NIMl0y

> <s_epik_cmdline>
J2VwaWtfcHl0aG9uJywgJy1waCcsICc3LjAnLCAnLXRuJywgJzgnLCAnLW1hJywgJzIwMCcsICctbWV0YWxfYmluZGluZycsICctaW1hZScsICc8aW5maWxlLm1hZT4nLCAnLW9tYWUnLCAnPG91dGZpbGUubWFlPic=

> <r_lp_tautomer_probability>
1

> <r_epik_Ionization_Penalty>
1.82511e-08

> <r_epik_Ionization_Penalty_Charging>
8.22213e-11

> <r_epik_Ionization_Penalty_Neutral>
1.81689e-08

> <r_epik_State_Penalty>
-0

> <r_epik_Charging_Adjusted_Penalty>
8.22213e-11

> <i_epik_Tot_Q>
0

> <i_epik_Tot_abs_Q>
0

> <r_epik_Metal_State_Penalty>
-0

> <b_epik_Metal_Only>
0

> <s_lp_Force_Field>
OPLS_2005

> <r_lp_Energy>
29.1959

> <b_lp_Chiralities_Consistent>
1

> <s_lp_Variant>
AV-unprocessed.smi:382-1

> <Gold.Version>
5.8.1

> <Gold.Id.Protein>
6NUR|6NUR_protein|mol2

> <Gold.PLP.Fitness>
45.5273

> <Gold.PLP.PLP>
-44.4676

> <Gold.PLP.part.hbond>
-1.9074

> <Gold.PLP.part.metal>
0.0000

> <Gold.PLP.part.buried>
-6.5578

> <Gold.PLP.part.nonpolar>
-35.9231

> <Gold.PLP.part.repulsive>
1.8676

> <Gold.PLP.ligand.clash>
0.0000

> <Gold.PLP.ligand.torsion>
0.6104

> <Gold.PLP.Chemscore.Hbond>
0.6890

> <Gold.PLP.Chemscore.CHOScore>
0.0000

> <Gold.PLP.Chemscore.Metal>
0.0000

> <Gold.Chemscore.Hbonds>
donor molecule, donor type, donor heavy atom, donor atom, acceptor molecule, acceptor atom, score
      P1  H  7997  8009       L1    10  0.73

> <Gold.PLP.Chemscore.Internal.Correction>
0.2135

> <Gold.Rescore>
     Score         DG    S(hbond)    S(metal)    S(lipo)     H(rot)  DE(clash)    DE(int)     intcor
      7.56      -9.68       0.04        0.00      79.60       2.04       0.04       2.08       ----

> <Gold.Chemscore.Fitness>
7.5602

> <Gold.Chemscore.DG>
-9.6829

> <Gold.Chemscore.ZeroCoef>
-5.4800

> <Gold.Chemscore.Hbond>
0.0364

> <Gold.Chemscore.Metal>
0.0000

> <Gold.Chemscore.Lipo>
79.6032

> <Gold.Chemscore.Internal_Hbond>
0.0000

> <Gold.Chemscore.DEClash>
0.0437

> <Gold.Chemscore.DEInternal>
2.0790

> <Gold.Chemscore.Rot>
2.0438

> <Gold.Chemscore.Internal.Correction>
   9.000000E+99

> <Gold.Chemscore.Hbonds>
donor molecule, donor type, donor heavy atom, donor atom, acceptor molecule, acceptor atom, score
      P1  H  7997  8009       L1    10  0.10

> <Gold.Chemscore.Hbond.Weighted>
-0.1216

> <Gold.Chemscore.Metal.Weighted>
-0.0000

> <Gold.Chemscore.Lipo.Weighted>
-9.3136

> <Gold.Chemscore.Internal_Hbond.Weighted>
0.0000

> <Gold.Chemscore.DEClash.Weighted>
0.0437

> <Gold.Chemscore.DEInternal.Weighted>
2.0790

> <Gold.Chemscore.Rot.Weighted>
5.2322

> <Gold.Chemscore.Internal.Correction.Weighted>
   9.000000E+99

> <Gold.Protein.RotatedTorsions>
[ 6907 6896 6895 6894 ] final   51.28 input  -60.11 | X-H torsion
[ 7974 7965 7964 7962 ] final -153.78 input  175.53 | X-H torsion
[ 8008 7997 7996 7995 ] final  136.83 input   59.86 | X-H torsion
[ 10167 10162 10161 10158 ] final   37.56 input  -65.29 | X-H torsion
[ 10718 10713 10712 10709 ] final  -58.93 input   66.30 | X-H torsion
[ 10763 10752 10751 10750 ] final  141.32 input  -60.55 | X-H torsion
[ 11005 11000 10999 10996 ] final -106.45 input  -57.11 | X-H torsion

> <Gold.Protein.ActiveResidues>
 VAL166  LYS551  ARG553  GLY616  TRP617  ASP618  TYR619  PRO620  LYS621  CYS622 
 ASP623  PHE694  ASN695  SER759  ASP760  ASP761  ALA762  ILE779  LEU786  VAL792 
 PHE793  MET794  SER795  GLU796  ALA797  LYS798  CYS799  TRP800  GLU811  SER814 

> <Gold.Protein.RotatedAtoms>
  152.3110  134.7497  160.0336 H   0  0  0  0  0  0  0  0  0  0  0  0  # atno 6907 bound_to 6896
  151.7978  133.3361  159.3526 H   0  0  0  0  0  0  0  0  0  0  0  0  # atno 6908 bound_to 6896
  150.7320  134.5712  159.5936 H   0  0  0  0  0  0  0  0  0  0  0  0  # atno 6909 bound_to 6896
  144.7723  140.4479  143.5898 H   0  0  0  0  0  0  0  0  0  0  0  0  # atno 7974 bound_to 7965
  156.3003  140.2435  156.3810 H   0  0  0  0  0  0  0  0  0  0  0  0  # atno 8008 bound_to 7997
  154.8701  140.0416  157.1739 H   0  0  0  0  0  0  0  0  0  0  0  0  # atno 8009 bound_to 7997
  154.8804  140.2948  155.5432 H   0  0  0  0  0  0  0  0  0  0  0  0  # atno 8010 bound_to 7997
  140.4021  144.1709  150.6134 H   0  0  0  0  0  0  0  0  0  0  0  0  # atno 10167 bound_to 10162
  156.1099  130.4176  150.0645 H   0  0  0  0  0  0  0  0  0  0  0  0  # atno 10718 bound_to 10713
  153.9373  135.2984  155.3444 H   0  0  0  0  0  0  0  0  0  0  0  0  # atno 10763 bound_to 10752
  154.7495  135.4987  153.9267 H   0  0  0  0  0  0  0  0  0  0  0  0  # atno 10764 bound_to 10752
  153.1060  135.6747  153.9691 H   0  0  0  0  0  0  0  0  0  0  0  0  # atno 10765 bound_to 10752
  141.1004  133.8894  157.1857 H   0  0  0  0  0  0  0  0  0  0  0  0  # atno 11005 bound_to 11000
  145.6287  139.1533  143.2981 LP  0  0  0  0  0  0  0  0  0  0  0  0  # atno 17320 bound_to 7965
  146.1878  140.6392  142.9159 LP  0  0  0  0  0  0  0  0  0  0  0  0  # atno 17321 bound_to 7965
  140.4729  143.2406  151.9064 LP  0  0  0  0  0  0  0  0  0  0  0  0  # atno 17342 bound_to 10162
  139.4784  144.5351  151.8610 LP  0  0  0  0  0  0  0  0  0  0  0  0  # atno 17343 bound_to 10162
  156.8611  130.9492  151.3618 LP  0  0  0  0  0  0  0  0  0  0  0  0  # atno 17370 bound_to 10713
  157.6279  130.8706  149.9222 LP  0  0  0  0  0  0  0  0  0  0  0  0  # atno 17371 bound_to 10713
  139.9854  135.0084  156.9849 LP  0  0  0  0  0  0  0  0  0  0  0  0  # atno 17394 bound_to 11000
  140.5036  134.1072  155.7255 LP  0  0  0  0  0  0  0  0  0  0  0  0  # atno 17395 bound_to 11000

$$$$
