AV-unprocessed.smi:1798|AV-procd|sdf|7259|dock8
  -GOLD-   22720 8513D 1   1.00000     0.00000
 Structure written by MMmdl.
 40 41  0  0  0  0  0  0  0  0  3 V2000
  152.0339  145.5088  159.1592 C   0  0  0  0  0  0  0  0  0  0  0  0
  151.8368  143.9993  159.3588 C   0  0  2  0  0  0  0  0  0  0  0  0
  153.0908  143.3428  159.9669 C   0  0  0  0  0  0  0  0  0  0  0  0
  152.8996  141.8305  160.1655 C   0  0  0  0  0  0  0  0  0  0  0  0
  152.5100  141.1334  158.8463 C   0  0  1  0  0  0  0  0  0  0  0  0
  152.2602  139.7123  159.0681 N   0  0  0  0  0  0  0  0  0  0  0  0
  152.9258  138.7064  158.4806 C   0  0  0  0  0  0  0  0  0  0  0  0
  153.8504  138.8820  157.6857 O   0  0  0  0  0  0  0  0  0  0  0  0
  152.4848  137.2895  158.8752 C   0  0  0  0  0  0  0  0  0  0  0  0
  151.1373  136.9433  158.3923 N   0  0  0  0  0  0  0  0  0  0  0  0
  150.0988  136.9307  159.3445 C   0  0  0  0  0  0  0  0  0  0  0  0
  148.8291  136.6223  159.0153 C   0  0  0  0  0  0  0  0  0  0  0  0
  147.7765  136.6090  160.0075 N   0  3  0  0  0  0  0  0  0  0  0  0
  146.7279  136.0290  159.7447 O   0  0  0  0  0  0  0  0  0  0  0  0
  147.9612  137.1774  161.0795 O   0  5  0  0  0  0  0  0  0  0  0  0
  148.5517  136.2986  157.6292 C   0  0  0  0  0  0  0  0  0  0  0  0
  149.5411  136.3055  156.7144 C   0  0  0  0  0  0  0  0  0  0  0  0
  150.9230  136.6380  157.0758 C   0  0  0  0  0  0  0  0  0  0  0  0
  151.8321  136.6418  156.2458 O   0  0  0  0  0  0  0  0  0  0  0  0
  151.2579  141.7889  158.2361 C   0  0  0  0  0  0  0  0  0  0  0  0
  151.4529  143.3013  158.0400 C   0  0  0  0  0  0  0  0  0  0  0  0
  152.8447  145.7138  158.4594 H   0  0  0  0  0  0  0  0  0  0  0  0
  152.2748  146.0013  160.1016 H   0  0  0  0  0  0  0  0  0  0  0  0
  151.1295  145.9743  158.7670 H   0  0  0  0  0  0  0  0  0  0  0  0
  151.0130  143.8662  160.0617 H   0  0  0  0  0  0  0  0  0  0  0  0
  153.9499  143.5168  159.3175 H   0  0  0  0  0  0  0  0  0  0  0  0
  153.3292  143.8084  160.9238 H   0  0  0  0  0  0  0  0  0  0  0  0
  153.8174  141.3977  160.5650 H   0  0  0  0  0  0  0  0  0  0  0  0
  152.1263  141.6597  160.9160 H   0  0  0  0  0  0  0  0  0  0  0  0
  153.3297  141.2431  158.1333 H   0  0  0  0  0  0  0  0  0  0  0  0
  151.5204  139.4768  159.7139 H   0  0  0  0  0  0  0  0  0  0  0  0
  153.2224  136.5851  158.4884 H   0  0  0  0  0  0  0  0  0  0  0  0
  152.5335  137.1837  159.9607 H   0  0  0  0  0  0  0  0  0  0  0  0
  150.4090  137.1780  160.3495 H   0  0  0  0  0  0  0  0  0  0  0  0
  147.5493  136.0480  157.3148 H   0  0  0  0  0  0  0  0  0  0  0  0
  149.3127  136.0601  155.6877 H   0  0  0  0  0  0  0  0  0  0  0  0
  151.0217  141.3234  157.2785 H   0  0  0  0  0  0  0  0  0  0  0  0
  150.3966  141.6177  158.8838 H   0  0  0  0  0  0  0  0  0  0  0  0
  150.5371  143.7373  157.6395 H   0  0  0  0  0  0  0  0  0  0  0  0
  152.2281  143.4729  157.2919 H   0  0  0  0  0  0  0  0  0  0  0  0
  1  2  1  0  0  0  0
  1 22  1  0  0  0  0
  1 23  1  0  0  0  0
  1 24  1  0  0  0  0
  2 21  1  0  0  0  0
  2  3  1  0  0  0  0
  2 25  1  0  0  0  0
  3  4  1  0  0  0  0
  3 26  1  0  0  0  0
  3 27  1  0  0  0  0
  4  5  1  0  0  0  0
  4 28  1  0  0  0  0
  4 29  1  0  0  0  0
  5  6  1  0  0  0  0
  5 20  1  0  0  0  0
  5 30  1  0  0  0  0
  6  7  1  0  0  0  0
  6 31  1  0  0  0  0
  7  8  2  0  0  0  0
  7  9  1  0  0  0  0
  9 10  1  0  0  0  0
  9 32  1  0  0  0  0
  9 33  1  0  0  0  0
 10 18  1  0  0  0  0
 10 11  1  0  0  0  0
 11 12  2  0  0  0  0
 11 34  1  0  0  0  0
 12 13  1  0  0  0  0
 12 16  1  0  0  0  0
 13 14  2  0  0  0  0
 13 15  1  0  0  0  0
 16 17  2  0  0  0  0
 16 35  1  0  0  0  0
 17 18  1  0  0  0  0
 17 36  1  0  0  0  0
 18 19  2  0  0  0  0
 20 21  1  0  0  0  0
 20 37  1  0  0  0  0
 20 38  1  0  0  0  0
 21 39  1  0  0  0  0
 21 40  1  0  0  0  0
M  CHG  1  13   1
M  CHG  1  15  -1
M  END
> <s_m_source_file>
AV-unprocessed.smi

> <i_m_source_file_index>
1798

> <i_lp_mmshare_version>
43012

> <i_f3d_flags>
0

> <s_epik_input>
W0NIM11bQ0BASF0xW0NIMl1bQ0gyXVtDQEhdKFtDSDJdW0NIMl0xKVtOSF1DKD1PKVtDSDJdbjJbY0hdYyhbTitdKD1PKVtPLV0pW2NIXVtjSF1jMj1P

> <s_epik_cmdline>
J2VwaWtfcHl0aG9uJywgJy1waCcsICc3LjAnLCAnLXRuJywgJzgnLCAnLW1hJywgJzIwMCcsICctbWV0YWxfYmluZGluZycsICctaW1hZScsICc8aW5maWxlLm1hZT4nLCAnLW9tYWUnLCAnPG91dGZpbGUubWFlPic=

> <r_lp_tautomer_probability>
1

> <r_epik_Ionization_Penalty>
1.91292e-08

> <r_epik_Ionization_Penalty_Charging>
8.23013e-11

> <r_epik_Ionization_Penalty_Neutral>
1.90469e-08

> <r_epik_State_Penalty>
-0

> <r_epik_Charging_Adjusted_Penalty>
8.23013e-11

> <i_epik_Tot_Q>
0

> <i_epik_Tot_abs_Q>
2

> <r_epik_Metal_State_Penalty>
-0

> <b_epik_Metal_Only>
0

> <s_lp_Force_Field>
OPLS_2005

> <r_lp_Energy>
19.9033

> <b_lp_Chiralities_Consistent>
1

> <s_lp_Variant>
AV-unprocessed.smi:1798-1

> <Gold.Version>
5.8.1

> <Gold.Id.Protein>
6NUR|6NUR_protein|mol2

> <Gold.PLP.Fitness>
44.5356

> <Gold.PLP.PLP>
-34.2943

> <Gold.PLP.part.hbond>
-3.7166

> <Gold.PLP.part.metal>
0.0000

> <Gold.PLP.part.buried>
-4.5784

> <Gold.PLP.part.nonpolar>
-27.3408

> <Gold.PLP.part.repulsive>
0.1353

> <Gold.PLP.ligand.clash>
0.0000

> <Gold.PLP.ligand.torsion>
0.3769

> <Gold.PLP.Chemscore.Hbond>
3.6623

> <Gold.PLP.Chemscore.CHOScore>
0.0000

> <Gold.PLP.Chemscore.Metal>
0.0000

> <Gold.Chemscore.Hbonds>
donor molecule, donor type, donor heavy atom, donor atom, acceptor molecule, acceptor atom, score
      P1  H  6931  6943       L1    15  0.98
      P1  H  6934  6947       L1    15  0.75
      P1  H  7997  8009       L1     8  1.00
      P1  H 10752 10765       L1    19  0.70

> <Gold.PLP.Chemscore.Internal.Correction>
0.0083

> <Gold.Rescore>
     Score         DG    S(hbond)    S(metal)    S(lipo)     H(rot)  DE(clash)    DE(int)     intcor
     23.48     -24.00       3.53        0.00      91.37       1.55       0.08       0.44       ----

> <Gold.Chemscore.Fitness>
23.4800

> <Gold.Chemscore.DG>
-23.9999

> <Gold.Chemscore.ZeroCoef>
-5.4800

> <Gold.Chemscore.Hbond>
3.5325

> <Gold.Chemscore.Metal>
0.0000

> <Gold.Chemscore.Lipo>
91.3704

> <Gold.Chemscore.Internal_Hbond>
0.0000

> <Gold.Chemscore.DEClash>
0.0799

> <Gold.Chemscore.DEInternal>
0.4399

> <Gold.Chemscore.Rot>
1.5505

> <Gold.Chemscore.Internal.Correction>
   9.000000E+99

> <Gold.Chemscore.Hbonds>
donor molecule, donor type, donor heavy atom, donor atom, acceptor molecule, acceptor atom, score
      P1  H  6931  6943       L1    15  0.93
      P1  H  6934  6947       L1    15  0.46
      P1  H  7997  8009       L1     8  0.92
      P1  H 10752 10765       L1    19  0.70

> <Gold.Chemscore.Hbond.Weighted>
-11.7987

> <Gold.Chemscore.Metal.Weighted>
-0.0000

> <Gold.Chemscore.Lipo.Weighted>
-10.6903

> <Gold.Chemscore.Internal_Hbond.Weighted>
0.0000

> <Gold.Chemscore.DEClash.Weighted>
0.0799

> <Gold.Chemscore.DEInternal.Weighted>
0.4399

> <Gold.Chemscore.Rot.Weighted>
3.9692

> <Gold.Chemscore.Internal.Correction.Weighted>
   9.000000E+99

> <Gold.Protein.RotatedTorsions>
[ 6907 6896 6895 6894 ] final   63.13 input  -60.11 | X-H torsion
[ 7974 7965 7964 7962 ] final  -11.58 input  175.53 | X-H torsion
[ 8008 7997 7996 7995 ] final  139.64 input   59.86 | X-H torsion
[ 10167 10162 10161 10158 ] final   36.89 input  -65.29 | X-H torsion
[ 10718 10713 10712 10709 ] final    3.89 input   66.30 | X-H torsion
[ 10763 10752 10751 10750 ] final -167.89 input  -60.55 | X-H torsion
[ 11005 11000 10999 10996 ] final  102.60 input  -57.11 | X-H torsion

> <Gold.Protein.ActiveResidues>
 VAL166  LYS551  ARG553  GLY616  TRP617  ASP618  TYR619  PRO620  LYS621  CYS622 
 ASP623  PHE694  ASN695  SER759  ASP760  ASP761  ALA762  ILE779  LEU786  VAL792 
 PHE793  MET794  SER795  GLU796  ALA797  LYS798  CYS799  TRP800  GLU811  SER814 

> <Gold.Protein.RotatedAtoms>
  152.4228  134.5924  159.9977 H   0  0  0  0  0  0  0  0  0  0  0  0  # atno 6907 bound_to 6896
  151.6068  133.3345  159.3067 H   0  0  0  0  0  0  0  0  0  0  0  0  # atno 6908 bound_to 6896
  150.8117  134.7313  159.6759 H   0  0  0  0  0  0  0  0  0  0  0  0  # atno 6909 bound_to 6896
  146.2182  140.2932  142.8370 H   0  0  0  0  0  0  0  0  0  0  0  0  # atno 7974 bound_to 7965
  156.2988  140.2362  156.4270 H   0  0  0  0  0  0  0  0  0  0  0  0  # atno 8008 bound_to 7997
  154.8304  140.0433  157.1493 H   0  0  0  0  0  0  0  0  0  0  0  0  # atno 8009 bound_to 7997
  154.9214  140.3004  155.5218 H   0  0  0  0  0  0  0  0  0  0  0  0  # atno 8010 bound_to 7997
  140.4085  144.1626  150.6138 H   0  0  0  0  0  0  0  0  0  0  0  0  # atno 10167 bound_to 10162
  156.8844  130.5665  149.5652 H   0  0  0  0  0  0  0  0  0  0  0  0  # atno 10718 bound_to 10713
  154.6686  135.2936  154.9772 H   0  0  0  0  0  0  0  0  0  0  0  0  # atno 10763 bound_to 10752
  154.0808  135.6605  153.4841 H   0  0  0  0  0  0  0  0  0  0  0  0  # atno 10764 bound_to 10752
  153.0472  135.5197  154.7670 H   0  0  0  0  0  0  0  0  0  0  0  0  # atno 10765 bound_to 10752
  139.8778  134.9230  156.5082 H   0  0  0  0  0  0  0  0  0  0  0  0  # atno 11005 bound_to 11000
  144.9111  140.7759  143.5807 LP  0  0  0  0  0  0  0  0  0  0  0  0  # atno 17320 bound_to 7965
  145.2863  139.1900  143.4764 LP  0  0  0  0  0  0  0  0  0  0  0  0  # atno 17321 bound_to 7965
  140.4664  143.2429  151.9150 LP  0  0  0  0  0  0  0  0  0  0  0  0  # atno 17342 bound_to 10162
  139.4783  144.5415  151.8521 LP  0  0  0  0  0  0  0  0  0  0  0  0  # atno 17343 bound_to 10162
  156.0660  130.5703  150.9290 LP  0  0  0  0  0  0  0  0  0  0  0  0  # atno 17370 bound_to 10713
  157.6121  131.0935  150.8776 LP  0  0  0  0  0  0  0  0  0  0  0  0  # atno 17371 bound_to 10713
  140.8540  133.8110  155.9197 LP  0  0  0  0  0  0  0  0  0  0  0  0  # atno 17394 bound_to 11000
  140.9116  134.2253  157.4982 LP  0  0  0  0  0  0  0  0  0  0  0  0  # atno 17395 bound_to 11000

$$$$
