AV-unprocessed.smi:220|AV-procd|sdf|1685|dock6
  -GOLD-   2262020123D 1   1.00000     0.00000
 Structure written by MMmdl.
 51 55  0  0  0  0  0  0  0  0  1 V2000
  151.9435  139.0069  158.9050 N   0  0  0  0  0  0  0  0  0  0  0  0
  152.3798  140.0380  158.1779 C   0  0  0  0  0  0  0  0  0  0  0  0
  153.2616  139.9140  157.3293 O   0  0  0  0  0  0  0  0  0  0  0  0
  151.7388  141.4072  158.4625 C   0  0  1  0  0  0  0  0  0  0  0  0
  152.7526  142.3846  159.0996 C   0  0  2  0  0  0  0  0  0  0  0  0
  152.6096  142.5414  160.6221 C   0  0  0  0  0  0  0  0  0  0  0  0
  151.7313  143.7785  160.8134 C   0  0  0  0  0  0  0  0  0  0  0  0
  152.1338  144.7036  159.6648 C   0  0  0  0  0  0  0  0  0  0  0  0
  152.4467  143.7625  158.4926 C   0  0  2  0  0  0  0  0  0  0  0  0
  151.2728  143.5218  157.5393 C   0  0  0  0  0  0  0  0  0  0  0  0
  151.2919  142.0972  157.2505 N   0  0  0  0  0  0  0  0  0  0  0  0
  150.2204  141.6436  156.5468 C   0  0  0  0  0  0  0  0  0  0  0  0
  150.3890  141.1064  155.3085 N   0  0  0  0  0  0  0  0  0  0  0  0
  149.3399  140.6462  154.6217 C   0  0  0  0  0  0  0  0  0  0  0  0
  148.0553  140.6216  154.9796 N   0  0  0  0  0  0  0  0  0  0  0  0
  147.8766  141.1611  156.2190 C   0  0  0  0  0  0  0  0  0  0  0  0
  148.8940  141.6928  157.0610 C   0  0  0  0  0  0  0  0  0  0  0  0
  148.3302  142.1664  158.2398 N   0  0  0  0  0  0  0  0  0  0  0  0
  147.0561  141.9191  158.1071 C   0  0  0  0  0  0  0  0  0  0  0  0
  146.6966  141.3032  156.9294 N   0  0  0  0  0  0  0  0  0  0  0  0
  145.3559  140.9074  156.5258 C   0  0  0  0  0  0  0  0  0  0  0  0
  144.4667  142.0895  156.0892 C   0  0  0  0  0  0  0  0  0  0  0  0
  145.0886  142.8141  154.8824 C   0  0  0  0  0  0  0  0  0  0  0  0
  144.1888  143.7499  154.3243 O   0  0  0  0  0  0  0  0  0  0  0  0
  142.9695  141.7829  155.9399 C   0  0  0  0  0  0  0  0  0  0  0  0
  142.5989  142.8960  156.7799 O   0  0  0  0  0  0  0  0  0  0  0  0
  143.9711  143.0103  157.2129 C   0  0  0  0  0  0  0  0  0  0  0  0
  152.3306  138.0872  158.7516 H   0  0  0  0  0  0  0  0  0  0  0  0
  151.2263  139.1488  159.6012 H   0  0  0  0  0  0  0  0  0  0  0  0
  150.8849  141.2833  159.1324 H   0  0  0  0  0  0  0  0  0  0  0  0
  153.7771  142.0997  158.8515 H   0  0  0  0  0  0  0  0  0  0  0  0
  152.2004  141.6557  161.1093 H   0  0  0  0  0  0  0  0  0  0  0  0
  153.5914  142.7274  161.0595 H   0  0  0  0  0  0  0  0  0  0  0  0
  150.6807  143.5030  160.7131 H   0  0  0  0  0  0  0  0  0  0  0  0
  151.8632  144.2410  161.7920 H   0  0  0  0  0  0  0  0  0  0  0  0
  151.3673  145.4430  159.4301 H   0  0  0  0  0  0  0  0  0  0  0  0
  153.0376  145.2476  159.9423 H   0  0  0  0  0  0  0  0  0  0  0  0
  153.3064  144.1236  157.9262 H   0  0  0  0  0  0  0  0  0  0  0  0
  150.3212  143.7822  158.0071 H   0  0  0  0  0  0  0  0  0  0  0  0
  151.3799  144.1275  156.6398 H   0  0  0  0  0  0  0  0  0  0  0  0
  149.5621  140.2368  153.6473 H   0  0  0  0  0  0  0  0  0  0  0  0
  146.3411  142.1799  158.8731 H   0  0  0  0  0  0  0  0  0  0  0  0
  145.4570  140.1864  155.7136 H   0  0  0  0  0  0  0  0  0  0  0  0
  144.8936  140.3564  157.3454 H   0  0  0  0  0  0  0  0  0  0  0  0
  146.0141  143.3239  155.1496 H   0  0  0  0  0  0  0  0  0  0  0  0
  145.3531  142.1013  154.1007 H   0  0  0  0  0  0  0  0  0  0  0  0
  143.7316  143.3379  153.6071 H   0  0  0  0  0  0  0  0  0  0  0  0
  142.5947  141.8804  154.9204 H   0  0  0  0  0  0  0  0  0  0  0  0
  142.6606  140.8332  156.3785 H   0  0  0  0  0  0  0  0  0  0  0  0
  144.1145  142.6038  158.2154 H   0  0  0  0  0  0  0  0  0  0  0  0
  144.3463  144.0325  157.1513 H   0  0  0  0  0  0  0  0  0  0  0  0
  1  2  1  0  0  0  0
  1 28  1  0  0  0  0
  1 29  1  0  0  0  0
  2  3  2  0  0  0  0
  2  4  1  0  0  0  0
  4 11  1  0  0  0  0
  4  5  1  0  0  0  0
  4 30  1  0  0  0  0
  5  9  1  0  0  0  0
  5  6  1  0  0  0  0
  5 31  1  0  0  0  0
  6  7  1  0  0  0  0
  6 32  1  0  0  0  0
  6 33  1  0  0  0  0
  7  8  1  0  0  0  0
  7 34  1  0  0  0  0
  7 35  1  0  0  0  0
  8  9  1  0  0  0  0
  8 36  1  0  0  0  0
  8 37  1  0  0  0  0
  9 10  1  0  0  0  0
  9 38  1  0  0  0  0
 10 11  1  0  0  0  0
 10 39  1  0  0  0  0
 10 40  1  0  0  0  0
 11 12  1  0  0  0  0
 12 17  1  0  0  0  0
 12 13  2  0  0  0  0
 13 14  1  0  0  0  0
 14 15  2  0  0  0  0
 14 41  1  0  0  0  0
 15 16  1  0  0  0  0
 16 20  1  0  0  0  0
 16 17  2  0  0  0  0
 17 18  1  0  0  0  0
 18 19  2  0  0  0  0
 19 20  1  0  0  0  0
 19 42  1  0  0  0  0
 20 21  1  0  0  0  0
 21 22  1  0  0  0  0
 21 43  1  0  0  0  0
 21 44  1  0  0  0  0
 22 27  1  0  0  0  0
 22 23  1  0  0  0  0
 22 25  1  0  0  0  0
 23 24  1  0  0  0  0
 23 45  1  0  0  0  0
 23 46  1  0  0  0  0
 24 47  1  0  0  0  0
 25 26  1  0  0  0  0
 25 48  1  0  0  0  0
 25 49  1  0  0  0  0
 26 27  1  0  0  0  0
 27 50  1  0  0  0  0
 27 51  1  0  0  0  0
M  END
> <s_m_source_file>
AV-unprocessed.smi

> <i_m_source_file_index>
220

> <i_lp_mmshare_version>
43012

> <i_f3d_flags>
0

> <s_epik_input>
W0NIMl0xW0NIMl1bQ0gyXVtDQEhdKFtDQEhdMTIpW0NIMl1OKFtDQEBIXTJDKD1PKVtOSDJdKWMobltjSF1uMyljKGMzNCluW2NIXW40W0NIMl1DNShbQ0gyXVtPSF0pW0NIMl1PW0NIMl01

> <s_epik_cmdline>
J2VwaWtfcHl0aG9uJywgJy1waCcsICc3LjAnLCAnLXRuJywgJzgnLCAnLW1hJywgJzIwMCcsICctbWV0YWxfYmluZGluZycsICctaW1hZScsICc8aW5maWxlLm1hZT4nLCAnLW9tYWUnLCAnPG91dGZpbGUubWFlPic=

> <r_lp_tautomer_probability>
1

> <r_epik_Ionization_Penalty>
0.00118987

> <r_epik_Ionization_Penalty_Charging>
0

> <r_epik_Ionization_Penalty_Neutral>
0.00118987

> <r_epik_State_Penalty>
0.000654261

> <r_epik_Charging_Adjusted_Penalty>
0.000654261

> <i_epik_Tot_Q>
0

> <i_epik_Tot_abs_Q>
0

> <r_epik_Metal_State_Penalty>
-0

> <b_epik_Metal_Only>
0

> <s_lp_Force_Field>
OPLS_2005

> <r_lp_Energy>
59.1601

> <b_lp_Chiralities_Consistent>
1

> <s_lp_Variant>
AV-unprocessed.smi:220-4

> <Gold.Version>
5.8.1

> <Gold.Id.Protein>
6NUR|6NUR_protein|mol2

> <Gold.PLP.Fitness>
52.6798

> <Gold.PLP.PLP>
-43.8681

> <Gold.PLP.part.hbond>
-3.0000

> <Gold.PLP.part.metal>
0.0000

> <Gold.PLP.part.buried>
-4.1185

> <Gold.PLP.part.nonpolar>
-37.3157

> <Gold.PLP.part.repulsive>
0.6055

> <Gold.PLP.ligand.clash>
0.0000

> <Gold.PLP.ligand.torsion>
0.6508

> <Gold.PLP.Chemscore.Hbond>
2.2023

> <Gold.PLP.Chemscore.CHOScore>
1.0000

> <Gold.PLP.Chemscore.Metal>
0.0000

> <Gold.Chemscore.Hbonds>
donor molecule, donor type, donor heavy atom, donor atom, acceptor molecule, acceptor atom, score
      L1  H    24    47       P1 10174  1.00
      P1  H  7989  7998       L1    13  0.18
      P1  H  7997  8009       L1     3  0.46
      L1  C    14    41       P1  7957  1.00

> <Gold.PLP.Chemscore.Internal.Correction>
0.5064

> <Gold.Rescore>
     Score         DG    S(hbond)    S(metal)    S(lipo)     H(rot)  DE(clash)    DE(int)     intcor
     12.93     -14.54       1.92        0.00      94.18       3.27       0.11       1.50       ----

> <Gold.Chemscore.Fitness>
12.9319

> <Gold.Chemscore.DG>
-14.5364

> <Gold.Chemscore.ZeroCoef>
-5.4800

> <Gold.Chemscore.Hbond>
1.9188

> <Gold.Chemscore.Metal>
0.0000

> <Gold.Chemscore.Lipo>
94.1838

> <Gold.Chemscore.Internal_Hbond>
0.0000

> <Gold.Chemscore.DEClash>
0.1088

> <Gold.Chemscore.DEInternal>
1.4957

> <Gold.Chemscore.Rot>
3.2703

> <Gold.Chemscore.Internal.Correction>
   9.000000E+99

> <Gold.Chemscore.Hbonds>
donor molecule, donor type, donor heavy atom, donor atom, acceptor molecule, acceptor atom, score
      L1  H    24    47       P1 10174  0.48
      P1  H  7989  7998       L1    13  0.01
      P1  H  7997  8009       L1     3  0.45

> <Gold.Chemscore.Hbond.Weighted>
-6.4089

> <Gold.Chemscore.Metal.Weighted>
-0.0000

> <Gold.Chemscore.Lipo.Weighted>
-11.0195

> <Gold.Chemscore.Internal_Hbond.Weighted>
0.0000

> <Gold.Chemscore.DEClash.Weighted>
0.1088

> <Gold.Chemscore.DEInternal.Weighted>
1.4957

> <Gold.Chemscore.Rot.Weighted>
8.3721

> <Gold.Chemscore.Internal.Correction.Weighted>
   9.000000E+99

> <Gold.Protein.RotatedTorsions>
[ 6907 6896 6895 6894 ] final -140.80 input  -60.11 | X-H torsion
[ 7974 7965 7964 7962 ] final   63.13 input  175.53 | X-H torsion
[ 8008 7997 7996 7995 ] final  162.94 input   59.86 | X-H torsion
[ 10167 10162 10161 10158 ] final  -13.56 input  -65.29 | X-H torsion
[ 10718 10713 10712 10709 ] final  -59.64 input   66.30 | X-H torsion
[ 10763 10752 10751 10750 ] final   25.63 input  -60.55 | X-H torsion
[ 11005 11000 10999 10996 ] final -108.04 input  -57.11 | X-H torsion

> <Gold.Protein.ActiveResidues>
 VAL166  LYS551  ARG553  GLY616  TRP617  ASP618  TYR619  PRO620  LYS621  CYS622 
 ASP623  PHE694  ASN695  SER759  ASP760  ASP761  ALA762  ILE779  LEU786  VAL792 
 PHE793  MET794  SER795  GLU796  ALA797  LYS798  CYS799  TRP800  GLU811  SER814 

> <Gold.Protein.RotatedAtoms>
  151.0655  133.5509  159.2630 H   0  0  0  0  0  0  0  0  0  0  0  0  # atno 6907 bound_to 6896
  151.2468  135.0608  159.9056 H   0  0  0  0  0  0  0  0  0  0  0  0  # atno 6908 bound_to 6896
  152.5404  134.0421  159.8126 H   0  0  0  0  0  0  0  0  0  0  0  0  # atno 6909 bound_to 6896
  145.8654  139.3342  143.0794 H   0  0  0  0  0  0  0  0  0  0  0  0  # atno 7974 bound_to 7965
  156.1994  140.1737  156.7930 H   0  0  0  0  0  0  0  0  0  0  0  0  # atno 8008 bound_to 7997
  154.5572  140.0706  156.8793 H   0  0  0  0  0  0  0  0  0  0  0  0  # atno 8009 bound_to 7997
  155.2916  140.3355  155.4254 H   0  0  0  0  0  0  0  0  0  0  0  0  # atno 8010 bound_to 7997
  140.7184  143.5414  150.9405 H   0  0  0  0  0  0  0  0  0  0  0  0  # atno 10167 bound_to 10162
  156.1047  130.4182  150.0743 H   0  0  0  0  0  0  0  0  0  0  0  0  # atno 10718 bound_to 10713
  153.0678  135.6579  154.0314 H   0  0  0  0  0  0  0  0  0  0  0  0  # atno 10763 bound_to 10752
  153.9967  135.2941  155.3408 H   0  0  0  0  0  0  0  0  0  0  0  0  # atno 10764 bound_to 10752
  154.7043  135.5232  153.8641 H   0  0  0  0  0  0  0  0  0  0  0  0  # atno 10765 bound_to 10752
  141.0923  133.9033  157.2047 H   0  0  0  0  0  0  0  0  0  0  0  0  # atno 11005 bound_to 11000
  145.9200  140.9122  143.0410 LP  0  0  0  0  0  0  0  0  0  0  0  0  # atno 17320 bound_to 7965
  144.6726  140.1275  143.7446 LP  0  0  0  0  0  0  0  0  0  0  0  0  # atno 17321 bound_to 7965
  139.9136  143.6690  152.3110 LP  0  0  0  0  0  0  0  0  0  0  0  0  # atno 17342 bound_to 10162
  139.7082  144.7624  151.1157 LP  0  0  0  0  0  0  0  0  0  0  0  0  # atno 17343 bound_to 10162
  156.8722  130.9528  151.3608 LP  0  0  0  0  0  0  0  0  0  0  0  0  # atno 17370 bound_to 10713
  157.6222  130.8664  149.9128 LP  0  0  0  0  0  0  0  0  0  0  0  0  # atno 17371 bound_to 10713
  139.9751  135.0116  156.9611 LP  0  0  0  0  0  0  0  0  0  0  0  0  # atno 17394 bound_to 11000
  140.5223  134.0895  155.7295 LP  0  0  0  0  0  0  0  0  0  0  0  0  # atno 17395 bound_to 11000

$$$$
