AV-unprocessed.smi:2925|AV-procd|sdf|11222|dock9
  -GOLD-   2272016113D 1   1.00000     0.00000
 Structure written by MMmdl.
 44 45  0  0  0  0  0  0  0  0  1 V2000
  150.3638  132.3136  155.1916 C   0  0  0  0  0  0  0  0  0  0  0  0
  150.8469  133.7521  155.4281 C   0  0  0  0  0  0  0  0  0  0  0  0
  149.7272  134.8156  155.3761 C   0  0  2  0  0  0  0  0  0  0  0  0
  148.9724  134.6951  154.1289 N   0  0  0  0  0  0  0  0  0  0  0  0
  148.0388  133.7699  153.8631 C   0  0  0  0  0  0  0  0  0  0  0  0
  147.7217  132.8695  154.6415 O   0  0  0  0  0  0  0  0  0  0  0  0
  147.5250  133.9353  152.6314 N   0  0  0  0  0  0  0  0  0  0  0  0
  146.5757  133.1088  152.0098 C   0  0  0  0  0  0  0  0  0  0  0  0
  145.5639  133.6847  151.3084 C   0  0  0  0  0  0  0  0  0  0  0  0
  145.4604  135.1929  151.1449 C   0  0  0  0  0  0  0  0  0  0  0  0
  144.5706  132.8381  150.6807 C   0  0  0  0  0  0  0  0  0  0  0  0
  144.6611  131.5080  150.8115 C   0  0  0  0  0  0  0  0  0  0  0  0
  145.6878  130.9090  151.5554 N   0  0  0  0  0  0  0  0  0  0  0  0
  145.6906  129.4469  151.6536 C   0  0  0  0  0  0  0  0  0  0  0  0
  146.6449  131.6389  152.1977 C   0  0  0  0  0  0  0  0  0  0  0  0
  147.4934  131.0856  152.9009 O   0  0  0  0  0  0  0  0  0  0  0  0
  150.2865  136.2490  155.4776 C   0  0  2  0  0  0  0  0  0  0  0  0
  149.3059  137.3542  155.0785 C   0  0  0  0  0  0  0  0  0  0  0  0
  150.2054  138.4920  154.6188 C   0  0  0  0  0  0  0  0  0  0  0  0
  151.5839  137.8434  154.4719 C   0  0  0  0  0  0  0  0  0  0  0  0
  151.3406  136.4466  154.5469 O   0  0  0  0  0  0  0  0  0  0  0  0
  151.1828  131.6058  155.3189 H   0  0  0  0  0  0  0  0  0  0  0  0
  149.9718  132.1811  154.1833 H   0  0  0  0  0  0  0  0  0  0  0  0
  149.5774  132.0424  155.8965 H   0  0  0  0  0  0  0  0  0  0  0  0
  151.3321  133.7862  156.4035 H   0  0  0  0  0  0  0  0  0  0  0  0
  151.6206  133.9948  154.6988 H   0  0  0  0  0  0  0  0  0  0  0  0
  149.0623  134.6573  156.2272 H   0  0  0  0  0  0  0  0  0  0  0  0
  149.1636  135.3882  153.4205 H   0  0  0  0  0  0  0  0  0  0  0  0
  147.9493  134.6370  152.0432 H   0  0  0  0  0  0  0  0  0  0  0  0
  144.5988  135.4662  150.5351 H   0  0  0  0  0  0  0  0  0  0  0  0
  146.3532  135.5875  150.6586 H   0  0  0  0  0  0  0  0  0  0  0  0
  145.3515  135.6766  152.1160 H   0  0  0  0  0  0  0  0  0  0  0  0
  143.7651  133.2696  150.1046 H   0  0  0  0  0  0  0  0  0  0  0  0
  143.9522  130.8265  150.3641 H   0  0  0  0  0  0  0  0  0  0  0  0
  146.6321  129.0397  151.2819 H   0  0  0  0  0  0  0  0  0  0  0  0
  144.8880  128.9838  151.0788 H   0  0  0  0  0  0  0  0  0  0  0  0
  145.5710  129.1332  152.6915 H   0  0  0  0  0  0  0  0  0  0  0  0
  150.6683  136.4383  156.4831 H   0  0  0  0  0  0  0  0  0  0  0  0
  148.6839  137.0244  154.2452 H   0  0  0  0  0  0  0  0  0  0  0  0
  148.6452  137.6447  155.8959 H   0  0  0  0  0  0  0  0  0  0  0  0
  149.8531  138.9042  153.6724 H   0  0  0  0  0  0  0  0  0  0  0  0
  150.2353  139.3018  155.3482 H   0  0  0  0  0  0  0  0  0  0  0  0
  152.0765  138.1087  153.5363 H   0  0  0  0  0  0  0  0  0  0  0  0
  152.2357  138.1386  155.2956 H   0  0  0  0  0  0  0  0  0  0  0  0
  1  2  1  0  0  0  0
  1 22  1  0  0  0  0
  1 23  1  0  0  0  0
  1 24  1  0  0  0  0
  2  3  1  0  0  0  0
  2 25  1  0  0  0  0
  2 26  1  0  0  0  0
  3  4  1  0  0  0  0
  3 17  1  0  0  0  0
  3 27  1  0  0  0  0
  4  5  1  0  0  0  0
  4 28  1  0  0  0  0
  5  6  2  0  0  0  0
  5  7  1  0  0  0  0
  7  8  1  0  0  0  0
  7 29  1  0  0  0  0
  8 15  1  0  0  0  0
  8  9  2  0  0  0  0
  9 10  1  0  0  0  0
  9 11  1  0  0  0  0
 10 30  1  0  0  0  0
 10 31  1  0  0  0  0
 10 32  1  0  0  0  0
 11 12  2  0  0  0  0
 11 33  1  0  0  0  0
 12 13  1  0  0  0  0
 12 34  1  0  0  0  0
 13 14  1  0  0  0  0
 13 15  1  0  0  0  0
 14 35  1  0  0  0  0
 14 36  1  0  0  0  0
 14 37  1  0  0  0  0
 15 16  2  0  0  0  0
 17 21  1  0  0  0  0
 17 18  1  0  0  0  0
 17 38  1  0  0  0  0
 18 19  1  0  0  0  0
 18 39  1  0  0  0  0
 18 40  1  0  0  0  0
 19 20  1  0  0  0  0
 19 41  1  0  0  0  0
 19 42  1  0  0  0  0
 20 21  1  0  0  0  0
 20 43  1  0  0  0  0
 20 44  1  0  0  0  0
M  END
> <s_m_source_file>
AV-unprocessed.smi

> <i_m_source_file_index>
2925

> <i_lp_mmshare_version>
43012

> <i_f3d_flags>
0

> <s_epik_input>
TzFbQ0gyXVtDSDJdW0NIMl1bQ0BIXTFbQ0BIXShbQ0gyXVtDSDNdKVtOSF1DKD1PKVtOSF1jMmMoW0NIM10pW2NIXVtjSF1uKFtDSDNdKWMyPU8=

> <s_epik_cmdline>
J2VwaWtfcHl0aG9uJywgJy1waCcsICc3LjAnLCAnLXRuJywgJzgnLCAnLW1hJywgJzIwMCcsICctbWV0YWxfYmluZGluZycsICctaW1hZScsICc8aW5maWxlLm1hZT4nLCAnLW9tYWUnLCAnPG91dGZpbGUubWFlPic=

> <r_lp_tautomer_probability>
1

> <r_epik_Ionization_Penalty>
2.58789e-05

> <r_epik_Ionization_Penalty_Charging>
6.72534e-06

> <r_epik_Ionization_Penalty_Neutral>
1.91535e-05

> <r_epik_State_Penalty>
-0

> <r_epik_Charging_Adjusted_Penalty>
6.72534e-06

> <i_epik_Tot_Q>
0

> <i_epik_Tot_abs_Q>
0

> <r_epik_Metal_State_Penalty>
-0

> <b_epik_Metal_Only>
0

> <s_lp_Force_Field>
OPLS_2005

> <r_lp_Energy>
35.6543

> <b_lp_Chiralities_Consistent>
1

> <s_lp_Variant>
AV-unprocessed.smi:2925-1

> <Gold.Version>
5.8.1

> <Gold.Id.Protein>
6NUR|6NUR_protein|mol2

> <Gold.PLP.Fitness>
46.9776

> <Gold.PLP.PLP>
-38.9573

> <Gold.PLP.part.hbond>
-3.0000

> <Gold.PLP.part.metal>
0.0000

> <Gold.PLP.part.buried>
-6.8157

> <Gold.PLP.part.nonpolar>
-29.7952

> <Gold.PLP.part.repulsive>
0.3456

> <Gold.PLP.ligand.clash>
0.0000

> <Gold.PLP.ligand.torsion>
0.7812

> <Gold.PLP.Chemscore.Hbond>
3.0000

> <Gold.PLP.Chemscore.CHOScore>
0.0000

> <Gold.PLP.Chemscore.Metal>
0.0000

> <Gold.Chemscore.Hbonds>
donor molecule, donor type, donor heavy atom, donor atom, acceptor molecule, acceptor atom, score
      L1  H     4    28       P1  7948  1.00
      L1  H     7    29       P1  7948  1.00
      P1  H 10752 10765       L1    21  1.00

> <Gold.PLP.Chemscore.Internal.Correction>
0.5827

> <Gold.Rescore>
     Score         DG    S(hbond)    S(metal)    S(lipo)     H(rot)  DE(clash)    DE(int)     intcor
     15.00     -19.40       2.69        0.00      71.83       1.36       0.01       4.39       ----

> <Gold.Chemscore.Fitness>
15.0005

> <Gold.Chemscore.DG>
-19.4046

> <Gold.Chemscore.ZeroCoef>
-5.4800

> <Gold.Chemscore.Hbond>
2.6936

> <Gold.Chemscore.Metal>
0.0000

> <Gold.Chemscore.Lipo>
71.8322

> <Gold.Chemscore.Internal_Hbond>
0.0000

> <Gold.Chemscore.DEClash>
0.0106

> <Gold.Chemscore.DEInternal>
4.3934

> <Gold.Chemscore.Rot>
1.3579

> <Gold.Chemscore.Internal.Correction>
   9.000000E+99

> <Gold.Chemscore.Hbonds>
donor molecule, donor type, donor heavy atom, donor atom, acceptor molecule, acceptor atom, score
      L1  H     4    28       P1  7948  0.39
      L1  H     7    29       P1  7948  0.29
      P1  H 10752 10765       L1    21  0.65

> <Gold.Chemscore.Hbond.Weighted>
-8.9965

> <Gold.Chemscore.Metal.Weighted>
-0.0000

> <Gold.Chemscore.Lipo.Weighted>
-8.4044

> <Gold.Chemscore.Internal_Hbond.Weighted>
0.0000

> <Gold.Chemscore.DEClash.Weighted>
0.0106

> <Gold.Chemscore.DEInternal.Weighted>
4.3934

> <Gold.Chemscore.Rot.Weighted>
3.4763

> <Gold.Chemscore.Internal.Correction.Weighted>
   9.000000E+99

> <Gold.Protein.RotatedTorsions>
[ 6907 6896 6895 6894 ] final   -0.34 input  -60.11 | X-H torsion
[ 7974 7965 7964 7962 ] final -150.17 input  175.53 | X-H torsion
[ 8008 7997 7996 7995 ] final  -61.39 input   59.86 | X-H torsion
[ 10167 10162 10161 10158 ] final  103.28 input  -65.29 | X-H torsion
[ 10718 10713 10712 10709 ] final  -91.56 input   66.30 | X-H torsion
[ 10763 10752 10751 10750 ] final  173.68 input  -60.55 | X-H torsion
[ 11005 11000 10999 10996 ] final  -73.50 input  -57.11 | X-H torsion

> <Gold.Protein.ActiveResidues>
 VAL166  LYS551  ARG553  GLY616  TRP617  ASP618  TYR619  PRO620  LYS621  CYS622 
 ASP623  PHE694  ASN695  SER759  ASP760  ASP761  ALA762  ILE779  LEU786  VAL792 
 PHE793  MET794  SER795  GLU796  ALA797  LYS798  CYS799  TRP800  GLU811  SER814 

> <Gold.Protein.RotatedAtoms>
  151.5639  135.1064  159.9978 H   0  0  0  0  0  0  0  0  0  0  0  0  # atno 6907 bound_to 6896
  152.4433  133.7485  159.6691 H   0  0  0  0  0  0  0  0  0  0  0  0  # atno 6908 bound_to 6896
  150.8343  133.7970  159.3109 H   0  0  0  0  0  0  0  0  0  0  0  0  # atno 6909 bound_to 6896
  144.7923  140.4967  143.5764 H   0  0  0  0  0  0  0  0  0  0  0  0  # atno 7974 bound_to 7965
  154.4446  140.1018  156.6424 H   0  0  0  0  0  0  0  0  0  0  0  0  # atno 8008 bound_to 7997
  155.5487  140.3485  155.4445 H   0  0  0  0  0  0  0  0  0  0  0  0  # atno 8009 bound_to 7997
  156.0545  140.1311  157.0002 H   0  0  0  0  0  0  0  0  0  0  0  0  # atno 8010 bound_to 7997
  139.7276  144.7044  151.0773 H   0  0  0  0  0  0  0  0  0  0  0  0  # atno 10167 bound_to 10162
  155.9995  130.4953  150.5494 H   0  0  0  0  0  0  0  0  0  0  0  0  # atno 10718 bound_to 10713
  154.4434  135.2762  155.1832 H   0  0  0  0  0  0  0  0  0  0  0  0  # atno 10763 bound_to 10752
  154.3689  135.6113  153.5733 H   0  0  0  0  0  0  0  0  0  0  0  0  # atno 10764 bound_to 10752
  152.9842  135.5852  154.4765 H   0  0  0  0  0  0  0  0  0  0  0  0  # atno 10765 bound_to 10752
  141.1623  133.6880  156.7221 H   0  0  0  0  0  0  0  0  0  0  0  0  # atno 11005 bound_to 11000
  145.5762  139.1486  143.3261 LP  0  0  0  0  0  0  0  0  0  0  0  0  # atno 17320 bound_to 7965
  146.2180  140.5894  142.9030 LP  0  0  0  0  0  0  0  0  0  0  0  0  # atno 17321 bound_to 7965
  140.7765  143.5085  150.9682 LP  0  0  0  0  0  0  0  0  0  0  0  0  # atno 17342 bound_to 10162
  139.8772  143.7117  152.3160 LP  0  0  0  0  0  0  0  0  0  0  0  0  # atno 17343 bound_to 10162
  157.3419  131.0718  151.1781 LP  0  0  0  0  0  0  0  0  0  0  0  0  # atno 17370 bound_to 10713
  157.2627  130.6666  149.5982 LP  0  0  0  0  0  0  0  0  0  0  0  0  # atno 17371 bound_to 10713
  140.2808  134.8318  157.3931 LP  0  0  0  0  0  0  0  0  0  0  0  0  # atno 17394 bound_to 11000
  140.1435  134.4941  155.8014 LP  0  0  0  0  0  0  0  0  0  0  0  0  # atno 17395 bound_to 11000

$$$$
