AV-unprocessed.smi:2848|AV-procd|sdf|10955|dock7
  -GOLD-   2272015413D 1   1.00000     0.00000
 Structure written by MMmdl.
 27 28  0  0  0  0  0  0  0  0  2 V2000
  147.8726  141.7649  154.7969 Cl  0  0  0  0  0  0  0  0  0  0  0  0
  148.9973  140.4572  154.6762 C   0  0  0  0  0  0  0  0  0  0  0  0
  148.7505  139.4204  153.7527 C   0  0  0  0  0  0  0  0  0  0  0  0
  149.6169  138.3908  153.6454 N   0  3  0  0  0  0  0  0  0  0  0  0
  150.7363  138.2995  154.3938 C   0  0  0  0  0  0  0  0  0  0  0  0
  151.0382  139.3056  155.3339 C   0  0  0  0  0  0  0  0  0  0  0  0
  150.1590  140.4070  155.4861 C   0  0  0  0  0  0  0  0  0  0  0  0
  150.3986  141.4379  156.4075 N   0  0  0  0  0  0  0  0  0  0  0  0
  151.4244  141.3149  157.4328 C   0  0  0  0  0  0  0  0  0  0  0  0
  151.6154  142.5906  158.2284 C   0  0  0  0  0  0  0  0  0  0  0  0
  151.4704  143.8320  157.7204 C   0  0  0  0  0  0  0  0  0  0  0  0
  151.5712  144.9743  158.4733 O   0  0  0  0  0  0  0  0  0  0  0  0
  151.5446  144.7545  159.8795 C   0  0  0  0  0  0  0  0  0  0  0  0
  152.3984  143.5306  160.2501 C   0  0  0  0  0  0  0  0  0  0  0  0
  151.9635  142.3739  159.5412 O   0  0  0  0  0  0  0  0  0  0  0  0
  147.8899  139.3844  153.1008 H   0  0  0  0  0  0  0  0  0  0  0  0
  151.3535  137.4299  154.2202 H   0  0  0  0  0  0  0  0  0  0  0  0
  151.9381  139.2140  155.9234 H   0  0  0  0  0  0  0  0  0  0  0  0
  150.0050  142.3528  156.2351 H   0  0  0  0  0  0  0  0  0  0  0  0
  151.1511  140.5237  158.1313 H   0  0  0  0  0  0  0  0  0  0  0  0
  152.3703  141.0336  156.9679 H   0  0  0  0  0  0  0  0  0  0  0  0
  151.2078  144.0439  156.6943 H   0  0  0  0  0  0  0  0  0  0  0  0
  151.9131  145.6454  160.3881 H   0  0  0  0  0  0  0  0  0  0  0  0
  150.5121  144.6070  160.1990 H   0  0  0  0  0  0  0  0  0  0  0  0
  153.4475  143.7164  160.0158 H   0  0  0  0  0  0  0  0  0  0  0  0
  152.3399  143.3351  161.3209 H   0  0  0  0  0  0  0  0  0  0  0  0
  149.4170  137.6515  152.9711 H   0  0  0  0  0  0  0  0  0  0  0  0
  1  2  1  0  0  0  0
  2  7  1  0  0  0  0
  2  3  2  0  0  0  0
  3  4  1  0  0  0  0
  3 16  1  0  0  0  0
  4  5  2  0  0  0  0
  4 27  1  0  0  0  0
  5  6  1  0  0  0  0
  5 17  1  0  0  0  0
  6  7  2  0  0  0  0
  6 18  1  0  0  0  0
  7  8  1  0  0  0  0
  8  9  1  0  0  0  0
  8 19  1  0  0  0  0
  9 10  1  0  0  0  0
  9 20  1  0  0  0  0
  9 21  1  0  0  0  0
 10 15  1  0  0  0  0
 10 11  2  0  0  0  0
 11 12  1  0  0  0  0
 11 22  1  0  0  0  0
 12 13  1  0  0  0  0
 13 14  1  0  0  0  0
 13 23  1  0  0  0  0
 13 24  1  0  0  0  0
 14 15  1  0  0  0  0
 14 25  1  0  0  0  0
 14 26  1  0  0  0  0
M  CHG  1   4   1
M  END
> <s_m_source_file>
AV-unprocessed.smi

> <i_m_source_file_index>
2848

> <i_lp_mmshare_version>
43012

> <i_f3d_flags>
0

> <s_epik_input>
Q2xjMVtjSF1uW2NIXVtjSF1jMVtOSF1bQ0gyXUMyPVtDSF1PW0NIMl1bQ0gyXU8y

> <s_epik_cmdline>
J2VwaWtfcHl0aG9uJywgJy1waCcsICc3LjAnLCAnLXRuJywgJzgnLCAnLW1hJywgJzIwMCcsICctbWV0YWxfYmluZGluZycsICctaW1hZScsICc8aW5maWxlLm1hZT4nLCAnLW9tYWUnLCAnPG91dGZpbGUubWFlPic=

> <r_lp_tautomer_probability>
1

> <r_epik_Ionization_Penalty>
0.0834524

> <r_epik_Ionization_Penalty_Charging>
0.0831652

> <r_epik_Ionization_Penalty_Neutral>
0.000287151

> <r_epik_State_Penalty>
0.0738416

> <r_epik_Charging_Adjusted_Penalty>
0.157007

> <i_epik_Tot_Q>
1

> <i_epik_Tot_abs_Q>
1

> <r_epik_Metal_State_Penalty>
2.9007

> <b_epik_Metal_Only>
0

> <s_lp_Force_Field>
OPLS_2005

> <r_lp_Energy>
8.04075

> <b_lp_Chiralities_Consistent>
1

> <s_lp_Variant>
AV-unprocessed.smi:2848-1

> <Gold.Version>
5.8.1

> <Gold.Id.Protein>
6NUR|6NUR_protein|mol2

> <Gold.PLP.Fitness>
41.1611

> <Gold.PLP.PLP>
-32.9870

> <Gold.PLP.part.hbond>
-2.0000

> <Gold.PLP.part.metal>
0.0000

> <Gold.PLP.part.buried>
-2.0450

> <Gold.PLP.part.nonpolar>
-29.3228

> <Gold.PLP.part.repulsive>
0.2795

> <Gold.PLP.ligand.clash>
0.0000

> <Gold.PLP.ligand.torsion>
0.4131

> <Gold.PLP.Chemscore.Hbond>
2.0000

> <Gold.PLP.Chemscore.CHOScore>
1.0000

> <Gold.PLP.Chemscore.Metal>
0.0000

> <Gold.Chemscore.Hbonds>
donor molecule, donor type, donor heavy atom, donor atom, acceptor molecule, acceptor atom, score
      L1  H     4    27       P1  7948  2.00
      L1  C    11    22       P1  8028  0.81

> <Gold.PLP.Chemscore.Internal.Correction>
0.0003

> <Gold.Rescore>
     Score         DG    S(hbond)    S(metal)    S(lipo)     H(rot)  DE(clash)    DE(int)     intcor
     16.06     -16.54       1.00        0.00      92.73       1.22       0.09       0.38       ----

> <Gold.Chemscore.Fitness>
16.0636

> <Gold.Chemscore.DG>
-16.5367

> <Gold.Chemscore.ZeroCoef>
-5.4800

> <Gold.Chemscore.Hbond>
0.9975

> <Gold.Chemscore.Metal>
0.0000

> <Gold.Chemscore.Lipo>
92.7335

> <Gold.Chemscore.Internal_Hbond>
0.0000

> <Gold.Chemscore.DEClash>
0.0934

> <Gold.Chemscore.DEInternal>
0.3797

> <Gold.Chemscore.Rot>
1.2206

> <Gold.Chemscore.Internal.Correction>
   9.000000E+99

> <Gold.Chemscore.Hbonds>
donor molecule, donor type, donor heavy atom, donor atom, acceptor molecule, acceptor atom, score
      L1  H     4    27       P1  7948  0.91

> <Gold.Chemscore.Hbond.Weighted>
-3.3316

> <Gold.Chemscore.Metal.Weighted>
-0.0000

> <Gold.Chemscore.Lipo.Weighted>
-10.8498

> <Gold.Chemscore.Internal_Hbond.Weighted>
0.0000

> <Gold.Chemscore.DEClash.Weighted>
0.0934

> <Gold.Chemscore.DEInternal.Weighted>
0.3797

> <Gold.Chemscore.Rot.Weighted>
3.1247

> <Gold.Chemscore.Internal.Correction.Weighted>
   9.000000E+99

> <Gold.Protein.RotatedTorsions>
[ 6907 6896 6895 6894 ] final  153.28 input  -60.11 | X-H torsion
[ 7974 7965 7964 7962 ] final   48.70 input  175.53 | X-H torsion
[ 8008 7997 7996 7995 ] final   99.15 input   59.86 | X-H torsion
[ 10167 10162 10161 10158 ] final  148.28 input  -65.29 | X-H torsion
[ 10718 10713 10712 10709 ] final  -83.55 input   66.30 | X-H torsion
[ 10763 10752 10751 10750 ] final -177.79 input  -60.55 | X-H torsion
[ 11005 11000 10999 10996 ] final -164.90 input  -57.11 | X-H torsion

> <Gold.Protein.ActiveResidues>
 VAL166  LYS551  ARG553  GLY616  TRP617  ASP618  TYR619  PRO620  LYS621  CYS622 
 ASP623  PHE694  ASN695  SER759  ASP760  ASP761  ALA762  ILE779  LEU786  VAL792 
 PHE793  MET794  SER795  GLU796  ALA797  LYS798  CYS799  TRP800  GLU811  SER814 

> <Gold.Protein.RotatedAtoms>
  152.0750  133.4124  159.4475 H   0  0  0  0  0  0  0  0  0  0  0  0  # atno 6907 bound_to 6896
  150.6863  134.3048  159.4731 H   0  0  0  0  0  0  0  0  0  0  0  0  # atno 6908 bound_to 6896
  152.0884  134.9423  160.0623 H   0  0  0  0  0  0  0  0  0  0  0  0  # atno 6909 bound_to 6896
  146.0179  139.4617  142.9915 H   0  0  0  0  0  0  0  0  0  0  0  0  # atno 7974 bound_to 7965
  156.1076  140.3233  155.8028 H   0  0  0  0  0  0  0  0  0  0  0  0  # atno 8008 bound_to 7997
  155.4729  140.0548  157.2994 H   0  0  0  0  0  0  0  0  0  0  0  0  # atno 8009 bound_to 7997
  154.4738  140.2023  155.9943 H   0  0  0  0  0  0  0  0  0  0  0  0  # atno 8010 bound_to 7997
  139.4877  144.5691  151.7088 H   0  0  0  0  0  0  0  0  0  0  0  0  # atno 10167 bound_to 10162
  156.0017  130.4669  150.4275 H   0  0  0  0  0  0  0  0  0  0  0  0  # atno 10718 bound_to 10713
  154.5557  135.2816  155.0966 H   0  0  0  0  0  0  0  0  0  0  0  0  # atno 10763 bound_to 10752
  154.2394  135.6359  153.5206 H   0  0  0  0  0  0  0  0  0  0  0  0  # atno 10764 bound_to 10752
  153.0015  135.5556  154.6137 H   0  0  0  0  0  0  0  0  0  0  0  0  # atno 10765 bound_to 10752
  140.5817  134.5135  157.5179 H   0  0  0  0  0  0  0  0  0  0  0  0  # atno 11005 bound_to 11000
  145.7240  141.0065  143.1387 LP  0  0  0  0  0  0  0  0  0  0  0  0  # atno 17320 bound_to 7965
  144.6978  139.8904  143.7453 LP  0  0  0  0  0  0  0  0  0  0  0  0  # atno 17321 bound_to 7965
  140.5275  144.0783  150.6042 LP  0  0  0  0  0  0  0  0  0  0  0  0  # atno 17342 bound_to 10162
  140.3761  143.2828  152.0223 LP  0  0  0  0  0  0  0  0  0  0  0  0  # atno 17343 bound_to 10162
  157.2326  131.0507  151.2483 LP  0  0  0  0  0  0  0  0  0  0  0  0  # atno 17370 bound_to 10713
  157.3696  130.7174  149.6556 LP  0  0  0  0  0  0  0  0  0  0  0  0  # atno 17371 bound_to 10713
  139.9314  134.7956  156.0920 LP  0  0  0  0  0  0  0  0  0  0  0  0  # atno 17394 bound_to 11000
  141.0992  133.6684  156.2715 LP  0  0  0  0  0  0  0  0  0  0  0  0  # atno 17395 bound_to 11000

$$$$
