AV-unprocessed.smi:644|AV-procd|sdf|3157|dock10
  -GOLD-   22720 0 83D 1   1.00000     0.00000
 Structure written by MMmdl.
 38 40  0  0  0  0  0  0  0  0  2 V2000
  151.9602  144.9133  160.3321 C   0  0  0  0  0  0  0  0  0  0  0  0
  151.8533  143.7055  159.4168 C   0  0  0  0  0  0  0  0  0  0  0  0
  151.0824  143.8194  158.2376 C   0  0  0  0  0  0  0  0  0  0  0  0
  151.0035  142.6976  157.4210 C   0  0  0  0  0  0  0  0  0  0  0  0
  150.3374  142.4907  156.2109 N   0  3  0  0  0  0  0  0  0  0  0  0
  150.5573  141.2166  155.7835 C   0  0  0  0  0  0  0  0  0  0  0  0
  151.3538  140.6078  156.7033 N   0  0  0  0  0  0  0  0  0  0  0  0
  151.8944  139.2425  156.7262 C   0  0  0  0  0  0  0  0  0  0  0  0
  152.2494  138.7157  155.3222 C   0  0  2  0  0  0  0  0  0  0  0  0
  153.1655  139.5997  154.7045 O   0  0  0  0  0  0  0  0  0  0  0  0
  151.0047  138.5748  154.4322 C   0  0  0  0  0  0  0  0  0  0  0  0
  149.8483  137.3228  155.0699 S   0  0  0  0  0  0  0  0  0  0  0  0
  148.3100  138.1091  154.7112 C   0  0  0  0  0  0  0  0  0  0  0  0
  147.1007  137.5530  154.8735 N   0  0  0  0  0  0  0  0  0  0  0  0
  146.0714  138.4103  154.5093 N   0  0  0  0  0  0  0  0  0  0  0  0
  146.5416  139.5852  154.0842 C   0  0  0  0  0  0  0  0  0  0  0  0
  148.2871  139.7537  154.0857 S   0  0  0  0  0  0  0  0  0  0  0  0
  151.6578  141.4928  157.7424 C   0  0  0  0  0  0  0  0  0  0  0  0
  152.4213  141.3627  158.8996 C   0  0  0  0  0  0  0  0  0  0  0  0
  152.5138  142.4927  159.7436 C   0  0  0  0  0  0  0  0  0  0  0  0
  153.3383  142.3816  161.0147 C   0  0  0  0  0  0  0  0  0  0  0  0
  151.4163  145.7685  159.9296 H   0  0  0  0  0  0  0  0  0  0  0  0
  153.0017  145.2107  160.4561 H   0  0  0  0  0  0  0  0  0  0  0  0
  151.5445  144.6864  161.3142 H   0  0  0  0  0  0  0  0  0  0  0  0
  150.5766  144.7392  157.9825 H   0  0  0  0  0  0  0  0  0  0  0  0
  150.1745  140.7705  154.8768 H   0  0  0  0  0  0  0  0  0  0  0  0
  152.7646  139.2257  157.3835 H   0  0  0  0  0  0  0  0  0  0  0  0
  151.1430  138.6025  157.1911 H   0  0  0  0  0  0  0  0  0  0  0  0
  152.7327  137.7423  155.4154 H   0  0  0  0  0  0  0  0  0  0  0  0
  153.3218  139.2984  153.8222 H   0  0  0  0  0  0  0  0  0  0  0  0
  150.4809  139.5301  154.3825 H   0  0  0  0  0  0  0  0  0  0  0  0
  151.2981  138.3139  153.4143 H   0  0  0  0  0  0  0  0  0  0  0  0
  145.8561  140.3569  153.7664 H   0  0  0  0  0  0  0  0  0  0  0  0
  152.9241  140.4392  159.1458 H   0  0  0  0  0  0  0  0  0  0  0  0
  153.7730  141.3874  161.1228 H   0  0  0  0  0  0  0  0  0  0  0  0
  152.7178  142.5704  161.8911 H   0  0  0  0  0  0  0  0  0  0  0  0
  154.1557  143.1032  161.0058 H   0  0  0  0  0  0  0  0  0  0  0  0
  149.7756  143.1675  155.7102 H   0  0  0  0  0  0  0  0  0  0  0  0
  1  2  1  0  0  0  0
  1 22  1  0  0  0  0
  1 23  1  0  0  0  0
  1 24  1  0  0  0  0
  2 20  1  0  0  0  0
  2  3  2  0  0  0  0
  3  4  1  0  0  0  0
  3 25  1  0  0  0  0
  4 18  2  0  0  0  0
  4  5  1  0  0  0  0
  5  6  2  0  0  0  0
  5 38  1  0  0  0  0
  6  7  1  0  0  0  0
  6 26  1  0  0  0  0
  7  8  1  0  0  0  0
  7 18  1  0  0  0  0
  8  9  1  0  0  0  0
  8 27  1  0  0  0  0
  8 28  1  0  0  0  0
  9 10  1  0  0  0  0
  9 11  1  0  0  0  0
  9 29  1  0  0  0  0
 10 30  1  0  0  0  0
 11 12  1  0  0  0  0
 11 31  1  0  0  0  0
 11 32  1  0  0  0  0
 12 13  1  0  0  0  0
 13 17  1  0  0  0  0
 13 14  2  0  0  0  0
 14 15  1  0  0  0  0
 15 16  2  0  0  0  0
 16 17  1  0  0  0  0
 16 33  1  0  0  0  0
 18 19  1  0  0  0  0
 19 20  2  0  0  0  0
 19 34  1  0  0  0  0
 20 21  1  0  0  0  0
 21 35  1  0  0  0  0
 21 36  1  0  0  0  0
 21 37  1  0  0  0  0
M  CHG  1   5   1
M  END
> <s_m_source_file>
AV-unprocessed.smi

> <i_m_source_file_index>
644

> <i_lp_mmshare_version>
43012

> <i_f3d_flags>
0

> <s_epik_input>
W0NIM11jKFtjSF0xKWMoW0NIM10pW2NIXWMoYzEyKW4oW2NIXW4yKVtDSDJdW0NASF0oW09IXSlbQ0gyXVNjM25uW2NIXXMz

> <s_epik_cmdline>
J2VwaWtfcHl0aG9uJywgJy1waCcsICc3LjAnLCAnLXRuJywgJzgnLCAnLW1hJywgJzIwMCcsICctbWV0YWxfYmluZGluZycsICctaW1hZScsICc8aW5maWxlLm1hZT4nLCAnLW9tYWUnLCAnPG91dGZpbGUubWFlPic=

> <r_lp_tautomer_probability>
1

> <r_epik_Ionization_Penalty>
1.07492

> <r_epik_Ionization_Penalty_Charging>
1.07491

> <r_epik_Ionization_Penalty_Neutral>
3.80549e-06

> <r_epik_State_Penalty>
1.12982

> <r_epik_Charging_Adjusted_Penalty>
2.20473

> <i_epik_Tot_Q>
1

> <i_epik_Tot_abs_Q>
1

> <r_epik_Metal_State_Penalty>
1.2206

> <b_epik_Metal_Only>
0

> <s_lp_Force_Field>
OPLS_2005

> <r_lp_Energy>
11.8761

> <b_lp_Chiralities_Consistent>
1

> <s_lp_Variant>
AV-unprocessed.smi:644-3

> <Gold.Version>
5.8.1

> <Gold.Id.Protein>
6NUR|6NUR_protein|mol2

> <Gold.PLP.Fitness>
55.8372

> <Gold.PLP.PLP>
-45.1655

> <Gold.PLP.part.hbond>
-3.0000

> <Gold.PLP.part.metal>
0.0000

> <Gold.PLP.part.buried>
-5.9095

> <Gold.PLP.part.nonpolar>
-37.6106

> <Gold.PLP.part.repulsive>
0.2608

> <Gold.PLP.ligand.clash>
0.0000

> <Gold.PLP.ligand.torsion>
0.6748

> <Gold.PLP.Chemscore.Hbond>
3.0000

> <Gold.PLP.Chemscore.CHOScore>
1.0000

> <Gold.PLP.Chemscore.Metal>
0.0000

> <Gold.Chemscore.Hbonds>
donor molecule, donor type, donor heavy atom, donor atom, acceptor molecule, acceptor atom, score
      L1  H     5    38       P1  8028  2.00
      P1  H  7997  8010       L1    10  1.00
      L1  C    16    33       P1 10175  1.00

> <Gold.PLP.Chemscore.Internal.Correction>
0.0212

> <Gold.Rescore>
     Score         DG    S(hbond)    S(metal)    S(lipo)     H(rot)  DE(clash)    DE(int)     intcor
     18.46     -19.25       1.87        0.00     119.78       2.53       0.11       0.69       ----

> <Gold.Chemscore.Fitness>
18.4574

> <Gold.Chemscore.DG>
-19.2534

> <Gold.Chemscore.ZeroCoef>
-5.4800

> <Gold.Chemscore.Hbond>
1.8681

> <Gold.Chemscore.Metal>
0.0000

> <Gold.Chemscore.Lipo>
119.7805

> <Gold.Chemscore.Internal_Hbond>
0.0000

> <Gold.Chemscore.DEClash>
0.1103

> <Gold.Chemscore.DEInternal>
0.6858

> <Gold.Chemscore.Rot>
2.5315

> <Gold.Chemscore.Internal.Correction>
   9.000000E+99

> <Gold.Chemscore.Hbonds>
donor molecule, donor type, donor heavy atom, donor atom, acceptor molecule, acceptor atom, score
      L1  H     5    38       P1  8028  0.95
      P1  H  7997  8010       L1    10  0.82

> <Gold.Chemscore.Hbond.Weighted>
-6.2396

> <Gold.Chemscore.Metal.Weighted>
-0.0000

> <Gold.Chemscore.Lipo.Weighted>
-14.0143

> <Gold.Chemscore.Internal_Hbond.Weighted>
0.0000

> <Gold.Chemscore.DEClash.Weighted>
0.1103

> <Gold.Chemscore.DEInternal.Weighted>
0.6858

> <Gold.Chemscore.Rot.Weighted>
6.4805

> <Gold.Chemscore.Internal.Correction.Weighted>
   9.000000E+99

> <Gold.Protein.RotatedTorsions>
[ 6907 6896 6895 6894 ] final   -5.59 input  -60.11 | X-H torsion
[ 7974 7965 7964 7962 ] final   92.79 input  175.53 | X-H torsion
[ 8008 7997 7996 7995 ] final  102.57 input   59.86 | X-H torsion
[ 10167 10162 10161 10158 ] final    7.63 input  -65.29 | X-H torsion
[ 10718 10713 10712 10709 ] final  -98.03 input   66.30 | X-H torsion
[ 10763 10752 10751 10750 ] final -139.39 input  -60.55 | X-H torsion
[ 11005 11000 10999 10996 ] final  -66.91 input  -57.11 | X-H torsion

> <Gold.Protein.ActiveResidues>
 VAL166  LYS551  ARG553  GLY616  TRP617  ASP618  TYR619  PRO620  LYS621  CYS622 
 ASP623  PHE694  ASN695  SER759  ASP760  ASP761  ALA762  ILE779  LEU786  VAL792 
 PHE793  MET794  SER795  GLU796  ALA797  LYS798  CYS799  TRP800  GLU811  SER814 

> <Gold.Protein.RotatedAtoms>
  151.4792  135.1051  159.9772 H   0  0  0  0  0  0  0  0  0  0  0  0  # atno 6907 bound_to 6896
  152.4786  133.8195  159.7056 H   0  0  0  0  0  0  0  0  0  0  0  0  # atno 6908 bound_to 6896
  150.8841  133.7270  159.2950 H   0  0  0  0  0  0  0  0  0  0  0  0  # atno 6909 bound_to 6896
  145.4876  139.2277  143.2848 H   0  0  0  0  0  0  0  0  0  0  0  0  # atno 7974 bound_to 7965
  156.1404  140.3179  155.8487 H   0  0  0  0  0  0  0  0  0  0  0  0  # atno 8008 bound_to 7997
  155.4164  140.0509  157.3045 H   0  0  0  0  0  0  0  0  0  0  0  0  # atno 8009 bound_to 7997
  154.4972  140.2115  155.9435 H   0  0  0  0  0  0  0  0  0  0  0  0  # atno 8010 bound_to 7997
  140.6360  143.7884  150.7361 H   0  0  0  0  0  0  0  0  0  0  0  0  # atno 10167 bound_to 10162
  156.0097  130.5220  150.6463 H   0  0  0  0  0  0  0  0  0  0  0  0  # atno 10718 bound_to 10713
  154.8610  135.3584  154.5538 H   0  0  0  0  0  0  0  0  0  0  0  0  # atno 10763 bound_to 10752
  153.6155  135.7008  153.5335 H   0  0  0  0  0  0  0  0  0  0  0  0  # atno 10764 bound_to 10752
  153.3173  135.4161  155.1347 H   0  0  0  0  0  0  0  0  0  0  0  0  # atno 10765 bound_to 10752
  141.1494  133.6708  156.6212 H   0  0  0  0  0  0  0  0  0  0  0  0  # atno 11005 bound_to 11000
  146.2304  140.5667  142.8978 LP  0  0  0  0  0  0  0  0  0  0  0  0  # atno 17320 bound_to 7965
  144.7853  140.5923  143.6578 LP  0  0  0  0  0  0  0  0  0  0  0  0  # atno 17321 bound_to 7965
  140.1505  143.4361  152.2134 LP  0  0  0  0  0  0  0  0  0  0  0  0  # atno 17342 bound_to 10162
  139.5571  144.7380  151.4263 LP  0  0  0  0  0  0  0  0  0  0  0  0  # atno 17343 bound_to 10162
  157.4233  131.0839  151.1110 LP  0  0  0  0  0  0  0  0  0  0  0  0  # atno 17370 bound_to 10713
  157.1705  130.6265  149.5639 LP  0  0  0  0  0  0  0  0  0  0  0  0  # atno 17371 bound_to 10713
  140.3539  134.7745  157.4486 LP  0  0  0  0  0  0  0  0  0  0  0  0  # atno 17394 bound_to 11000
  140.0839  134.5694  155.8512 LP  0  0  0  0  0  0  0  0  0  0  0  0  # atno 17395 bound_to 11000

$$$$
