AV-unprocessed.smi:2959|AV-procd|sdf|11309|dock7
  -GOLD-   2272016203D 1   1.00000     0.00000
 Structure written by MMmdl.
 45 47  0  0  0  0  0  0  0  0  1 V2000
  149.3811  136.9666  158.7101 C   0  0  0  0  0  0  0  0  0  0  0  0
  150.5807  136.6429  157.8250 C   0  0  0  0  0  0  0  0  0  0  0  0
  150.8715  135.4713  157.5880 O   0  0  0  0  0  0  0  0  0  0  0  0
  151.2654  137.6873  157.3392 N   0  0  0  0  0  0  0  0  0  0  0  0
  152.4399  137.5852  156.4817 C   0  0  0  0  0  0  0  0  0  0  0  0
  152.0721  137.6701  154.9879 C   0  0  0  0  0  0  0  0  0  0  0  0
  150.8883  138.5548  154.7057 C   0  0  0  0  0  0  0  0  0  0  0  0
  149.7978  138.0695  154.1094 N   0  0  0  0  0  0  0  0  0  0  0  0
  148.9749  139.1734  154.0236 C   0  0  0  0  0  0  0  0  0  0  0  0
  147.6809  139.3137  153.4732 C   0  0  0  0  0  0  0  0  0  0  0  0
  147.0245  140.5614  153.5023 C   0  0  0  0  0  0  0  0  0  0  0  0
  147.6509  141.6836  154.0822 C   0  0  0  0  0  0  0  0  0  0  0  0
  148.9393  141.5640  154.6377 C   0  0  0  0  0  0  0  0  0  0  0  0
  149.5914  140.3163  154.6049 C   0  0  0  0  0  0  0  0  0  0  0  0
  150.8291  139.8672  155.0581 N   0  0  0  0  0  0  0  0  0  0  0  0
  151.8057  140.6832  155.7691 C   0  0  0  0  0  0  0  0  0  0  0  0
  151.1961  141.4454  156.9543 C   0  0  0  0  0  0  0  0  0  0  0  0
  152.1463  141.5353  158.0058 O   0  0  0  0  0  0  0  0  0  0  0  0
  152.0982  142.6333  158.8373 C   0  0  0  0  0  0  0  0  0  0  0  0
  151.6114  143.8353  158.2827 C   0  0  0  0  0  0  0  0  0  0  0  0
  151.5143  145.0029  159.0632 C   0  0  0  0  0  0  0  0  0  0  0  0
  151.9076  144.9799  160.4137 C   0  0  0  0  0  0  0  0  0  0  0  0
  152.3984  143.7886  160.9796 C   0  0  0  0  0  0  0  0  0  0  0  0
  152.4946  142.6202  160.1985 C   0  0  0  0  0  0  0  0  0  0  0  0
  149.4295  136.3938  159.6364 H   0  0  0  0  0  0  0  0  0  0  0  0
  148.4550  136.7101  158.1955 H   0  0  0  0  0  0  0  0  0  0  0  0
  149.3472  138.0264  158.9661 H   0  0  0  0  0  0  0  0  0  0  0  0
  150.9525  138.6171  157.5797 H   0  0  0  0  0  0  0  0  0  0  0  0
  153.1251  138.3967  156.7324 H   0  0  0  0  0  0  0  0  0  0  0  0
  152.9662  136.6518  156.6853 H   0  0  0  0  0  0  0  0  0  0  0  0
  152.9251  138.0468  154.4227 H   0  0  0  0  0  0  0  0  0  0  0  0
  151.8929  136.6625  154.6193 H   0  0  0  0  0  0  0  0  0  0  0  0
  147.1929  138.4595  153.0278 H   0  0  0  0  0  0  0  0  0  0  0  0
  146.0357  140.6576  153.0783 H   0  0  0  0  0  0  0  0  0  0  0  0
  147.1414  142.6358  154.1015 H   0  0  0  0  0  0  0  0  0  0  0  0
  149.4199  142.4224  155.0828 H   0  0  0  0  0  0  0  0  0  0  0  0
  152.5883  140.0198  156.1383 H   0  0  0  0  0  0  0  0  0  0  0  0
  152.3041  141.3604  155.0761 H   0  0  0  0  0  0  0  0  0  0  0  0
  150.8795  142.4385  156.6313 H   0  0  0  0  0  0  0  0  0  0  0  0
  150.3133  140.9099  157.3070 H   0  0  0  0  0  0  0  0  0  0  0  0
  151.3041  143.8612  157.2475 H   0  0  0  0  0  0  0  0  0  0  0  0
  151.1364  145.9149  158.6250 H   0  0  0  0  0  0  0  0  0  0  0  0
  151.8330  145.8743  161.0145 H   0  0  0  0  0  0  0  0  0  0  0  0
  152.7005  143.7697  162.0164 H   0  0  0  0  0  0  0  0  0  0  0  0
  152.8712  141.7250  160.6691 H   0  0  0  0  0  0  0  0  0  0  0  0
  1  2  1  0  0  0  0
  1 25  1  0  0  0  0
  1 26  1  0  0  0  0
  1 27  1  0  0  0  0
  2  3  2  0  0  0  0
  2  4  1  0  0  0  0
  4  5  1  0  0  0  0
  4 28  1  0  0  0  0
  5  6  1  0  0  0  0
  5 29  1  0  0  0  0
  5 30  1  0  0  0  0
  6  7  1  0  0  0  0
  6 31  1  0  0  0  0
  6 32  1  0  0  0  0
  7 15  1  0  0  0  0
  7  8  2  0  0  0  0
  8  9  1  0  0  0  0
  9 14  2  0  0  0  0
  9 10  1  0  0  0  0
 10 11  2  0  0  0  0
 10 33  1  0  0  0  0
 11 12  1  0  0  0  0
 11 34  1  0  0  0  0
 12 13  2  0  0  0  0
 12 35  1  0  0  0  0
 13 14  1  0  0  0  0
 13 36  1  0  0  0  0
 14 15  1  0  0  0  0
 15 16  1  0  0  0  0
 16 17  1  0  0  0  0
 16 37  1  0  0  0  0
 16 38  1  0  0  0  0
 17 18  1  0  0  0  0
 17 39  1  0  0  0  0
 17 40  1  0  0  0  0
 18 19  1  0  0  0  0
 19 24  1  0  0  0  0
 19 20  2  0  0  0  0
 20 21  1  0  0  0  0
 20 41  1  0  0  0  0
 21 22  2  0  0  0  0
 21 42  1  0  0  0  0
 22 23  1  0  0  0  0
 22 43  1  0  0  0  0
 23 24  2  0  0  0  0
 23 44  1  0  0  0  0
 24 45  1  0  0  0  0
M  END
> <s_m_source_file>
AV-unprocessed.smi

> <i_m_source_file_index>
2959

> <i_lp_mmshare_version>
43012

> <i_f3d_flags>
0

> <s_epik_input>
W0NIM11DKD1PKVtOSF1bQ0gyXVtDSDJdYyhuMSluKGMoYzEyKVtjSF1bY0hdW2NIXVtjSF0yKVtDSDJdW0NIMl1PYzNbY0hdW2NIXVtjSF1bY0hdW2NIXTM=

> <s_epik_cmdline>
J2VwaWtfcHl0aG9uJywgJy1waCcsICc3LjAnLCAnLXRuJywgJzgnLCAnLW1hJywgJzIwMCcsICctbWV0YWxfYmluZGluZycsICctaW1hZScsICc8aW5maWxlLm1hZT4nLCAnLW9tYWUnLCAnPG91dGZpbGUubWFlPic=

> <r_lp_tautomer_probability>
1

> <r_epik_Ionization_Penalty>
0.11099

> <r_epik_Ionization_Penalty_Charging>
0

> <r_epik_Ionization_Penalty_Neutral>
0.11099

> <r_epik_State_Penalty>
0.100724

> <r_epik_Charging_Adjusted_Penalty>
0.100724

> <i_epik_Tot_Q>
0

> <i_epik_Tot_abs_Q>
0

> <r_epik_Metal_State_Penalty>
0.0847

> <b_epik_Metal_Only>
0

> <s_lp_Force_Field>
OPLS_2005

> <r_lp_Energy>
14.3457

> <b_lp_Chiralities_Consistent>
1

> <s_lp_Variant>
AV-unprocessed.smi:2959-1

> <Gold.Version>
5.8.1

> <Gold.Id.Protein>
6NUR|6NUR_protein|mol2

> <Gold.PLP.Fitness>
52.8806

> <Gold.PLP.PLP>
-52.4260

> <Gold.PLP.part.hbond>
-1.0000

> <Gold.PLP.part.metal>
0.0000

> <Gold.PLP.part.buried>
-4.1732

> <Gold.PLP.part.nonpolar>
-47.0461

> <Gold.PLP.part.repulsive>
0.5014

> <Gold.PLP.ligand.clash>
0.0000

> <Gold.PLP.ligand.torsion>
1.2280

> <Gold.PLP.Chemscore.Hbond>
0.9600

> <Gold.PLP.Chemscore.CHOScore>
0.0000

> <Gold.PLP.Chemscore.Metal>
0.0000

> <Gold.Chemscore.Hbonds>
donor molecule, donor type, donor heavy atom, donor atom, acceptor molecule, acceptor atom, score
      P1  H  6896  6909       L1     3  0.28

> <Gold.PLP.Chemscore.Internal.Correction>
0.0306

> <Gold.Rescore>
     Score         DG    S(hbond)    S(metal)    S(lipo)     H(rot)  DE(clash)    DE(int)     intcor
     18.27     -19.51       0.91        0.00     140.70       2.14       0.11       1.13       ----

> <Gold.Chemscore.Fitness>
18.2689

> <Gold.Chemscore.DG>
-19.5098

> <Gold.Chemscore.ZeroCoef>
-5.4800

> <Gold.Chemscore.Hbond>
0.9086

> <Gold.Chemscore.Metal>
0.0000

> <Gold.Chemscore.Lipo>
140.7032

> <Gold.Chemscore.Internal_Hbond>
0.0000

> <Gold.Chemscore.DEClash>
0.1144

> <Gold.Chemscore.DEInternal>
1.1265

> <Gold.Chemscore.Rot>
2.1356

> <Gold.Chemscore.Internal.Correction>
   9.000000E+99

> <Gold.Chemscore.Hbonds>
donor molecule, donor type, donor heavy atom, donor atom, acceptor molecule, acceptor atom, score
      P1  H  6896  6909       L1     3  0.08

> <Gold.Chemscore.Hbond.Weighted>
-3.0346

> <Gold.Chemscore.Metal.Weighted>
-0.0000

> <Gold.Chemscore.Lipo.Weighted>
-16.4623

> <Gold.Chemscore.Internal_Hbond.Weighted>
0.0000

> <Gold.Chemscore.DEClash.Weighted>
0.1144

> <Gold.Chemscore.DEInternal.Weighted>
1.1265

> <Gold.Chemscore.Rot.Weighted>
5.4671

> <Gold.Chemscore.Internal.Correction.Weighted>
   9.000000E+99

> <Gold.Protein.RotatedTorsions>
[ 6907 6896 6895 6894 ] final   52.43 input  -60.11 | X-H torsion
[ 7974 7965 7964 7962 ] final -104.53 input  175.53 | X-H torsion
[ 8008 7997 7996 7995 ] final   -5.76 input   59.86 | X-H torsion
[ 10167 10162 10161 10158 ] final   -6.97 input  -65.29 | X-H torsion
[ 10718 10713 10712 10709 ] final -117.33 input   66.30 | X-H torsion
[ 10763 10752 10751 10750 ] final   87.13 input  -60.55 | X-H torsion
[ 11005 11000 10999 10996 ] final    5.44 input  -57.11 | X-H torsion

> <Gold.Protein.ActiveResidues>
 VAL166  LYS551  ARG553  GLY616  TRP617  ASP618  TYR619  PRO620  LYS621  CYS622 
 ASP623  PHE694  ASN695  SER759  ASP760  ASP761  ALA762  ILE779  LEU786  VAL792 
 PHE793  MET794  SER795  GLU796  ALA797  LYS798  CYS799  TRP800  GLU811  SER814 

> <Gold.Protein.RotatedAtoms>
  152.3232  134.7354  160.0308 H   0  0  0  0  0  0  0  0  0  0  0  0  # atno 6907 bound_to 6896
  151.7796  133.3343  159.3475 H   0  0  0  0  0  0  0  0  0  0  0  0  # atno 6908 bound_to 6896
  150.7381  134.5875  159.6015 H   0  0  0  0  0  0  0  0  0  0  0  0  # atno 6909 bound_to 6896
  145.2419  140.9208  143.3145 H   0  0  0  0  0  0  0  0  0  0  0  0  # atno 7974 bound_to 7965
  154.6006  140.2450  155.7798 H   0  0  0  0  0  0  0  0  0  0  0  0  # atno 8008 bound_to 7997
  156.2308  140.2967  156.0136 H   0  0  0  0  0  0  0  0  0  0  0  0  # atno 8009 bound_to 7997
  155.2218  140.0400  157.2940 H   0  0  0  0  0  0  0  0  0  0  0  0  # atno 8010 bound_to 7997
  140.7014  143.6133  150.8682 H   0  0  0  0  0  0  0  0  0  0  0  0  # atno 10167 bound_to 10162
  156.1026  130.6185  150.9151 H   0  0  0  0  0  0  0  0  0  0  0  0  # atno 10718 bound_to 10713
  153.1638  135.4555  154.9808 H   0  0  0  0  0  0  0  0  0  0  0  0  # atno 10763 bound_to 10752
  154.7917  135.3223  154.7765 H   0  0  0  0  0  0  0  0  0  0  0  0  # atno 10764 bound_to 10752
  153.8251  135.6943  153.4876 H   0  0  0  0  0  0  0  0  0  0  0  0  # atno 10765 bound_to 10752
  140.5707  134.0105  155.8007 H   0  0  0  0  0  0  0  0  0  0  0  0  # atno 11005 bound_to 11000
  144.9581  139.4010  143.6369 LP  0  0  0  0  0  0  0  0  0  0  0  0  # atno 17320 bound_to 7965
  146.3326  139.8621  142.8854 LP  0  0  0  0  0  0  0  0  0  0  0  0  # atno 17321 bound_to 7965
  139.9856  143.5903  152.2928 LP  0  0  0  0  0  0  0  0  0  0  0  0  # atno 17342 bound_to 10162
  139.6540  144.7661  151.2092 LP  0  0  0  0  0  0  0  0  0  0  0  0  # atno 17343 bound_to 10162
  157.6199  131.0930  150.8642 LP  0  0  0  0  0  0  0  0  0  0  0  0  # atno 17370 bound_to 10713
  156.8767  130.5165  149.5293 LP  0  0  0  0  0  0  0  0  0  0  0  0  # atno 17371 bound_to 10713
  141.1058  133.9696  157.2999 LP  0  0  0  0  0  0  0  0  0  0  0  0  # atno 17394 bound_to 11000
  139.9363  135.0196  156.8567 LP  0  0  0  0  0  0  0  0  0  0  0  0  # atno 17395 bound_to 11000

$$$$
