AV-unprocessed.smi:2895|AV-procd|sdf|11134|dock6
  -GOLD-   2272016 13D 1   1.00000     0.00000
 Structure written by MMmdl.
 54 57  0  0  0  0  0  0  0  0  3 V2000
  149.6746  133.3540  157.6490 O   0  0  0  0  0  0  0  0  0  0  0  0
  148.8324  134.1409  157.2150 C   0  0  0  0  0  0  0  0  0  0  0  0
  148.7177  135.3935  157.6888 N   0  0  0  0  0  0  0  0  0  0  0  0
  149.5358  135.9678  158.7511 C   0  0  0  0  0  0  0  0  0  0  0  0
  148.6836  136.3972  159.9569 C   0  0  0  0  0  0  0  0  0  0  0  0
  148.1532  135.2072  160.7333 C   0  0  0  0  0  0  0  0  0  0  0  0
  148.3762  133.8932  160.2656 C   0  0  0  0  0  0  0  0  0  0  0  0
  147.8762  132.8041  161.0085 C   0  0  0  0  0  0  0  0  0  0  0  0
  147.1931  133.0273  162.1528 N   0  3  0  0  0  0  0  0  0  0  0  0
  146.9585  134.2676  162.6350 C   0  0  0  0  0  0  0  0  0  0  0  0
  147.4353  135.3951  161.9350 C   0  0  0  0  0  0  0  0  0  0  0  0
  147.9959  133.8420  156.1892 N   0  0  0  0  0  0  0  0  0  0  0  0
  148.2113  132.7973  155.1757 C   0  0  0  0  0  0  0  0  0  0  0  0
  148.5192  133.4576  153.8142 C   0  0  0  0  0  0  0  0  0  0  0  0
  147.4563  134.4205  153.3950 N   0  3  0  0  0  0  0  0  0  0  0  0
  146.2387  133.7518  152.8327 C   0  0  2  0  0  0  0  0  0  0  0  0
  146.5393  132.9828  151.5166 C   0  0  0  0  0  0  0  0  0  0  0  0
  145.4954  133.5239  150.5274 C   0  0  1  0  0  0  0  0  0  0  0  0
  144.0926  133.0473  150.9397 C   0  0  0  0  0  0  0  0  0  0  0  0
  143.8088  133.8931  152.1932 C   0  0  0  0  0  0  0  0  0  0  0  0
  145.1058  134.7095  152.3604 C   0  0  2  0  0  0  0  0  0  0  0  0
  145.4664  134.9969  150.9073 C   0  0  0  0  0  0  0  0  0  0  0  0
  147.1946  135.4086  154.4824 C   0  0  0  0  0  0  0  0  0  0  0  0
  146.8779  134.7181  155.8227 C   0  0  0  0  0  0  0  0  0  0  0  0
  148.0256  135.9975  157.2694 H   0  0  0  0  0  0  0  0  0  0  0  0
  150.3016  135.2530  159.0575 H   0  0  0  0  0  0  0  0  0  0  0  0
  150.0633  136.8305  158.3429 H   0  0  0  0  0  0  0  0  0  0  0  0
  149.2714  137.0282  160.6250 H   0  0  0  0  0  0  0  0  0  0  0  0
  147.8382  137.0033  159.6285 H   0  0  0  0  0  0  0  0  0  0  0  0
  148.9250  133.7210  159.3508 H   0  0  0  0  0  0  0  0  0  0  0  0
  148.0019  131.7694  160.7244 H   0  0  0  0  0  0  0  0  0  0  0  0
  146.4016  134.3199  163.5593 H   0  0  0  0  0  0  0  0  0  0  0  0
  147.2526  136.3888  162.3178 H   0  0  0  0  0  0  0  0  0  0  0  0
  149.0163  132.1048  155.4208 H   0  0  0  0  0  0  0  0  0  0  0  0
  147.3149  132.1803  155.1080 H   0  0  0  0  0  0  0  0  0  0  0  0
  149.4567  134.0097  153.8941 H   0  0  0  0  0  0  0  0  0  0  0  0
  148.6985  132.6900  153.0633 H   0  0  0  0  0  0  0  0  0  0  0  0
  145.8437  133.0665  153.5829 H   0  0  0  0  0  0  0  0  0  0  0  0
  147.5321  133.2107  151.1266 H   0  0  0  0  0  0  0  0  0  0  0  0
  146.4733  131.9014  151.6427 H   0  0  0  0  0  0  0  0  0  0  0  0
  145.7373  133.3223  149.4834 H   0  0  0  0  0  0  0  0  0  0  0  0
  143.3617  133.2609  150.1588 H   0  0  0  0  0  0  0  0  0  0  0  0
  144.0640  131.9761  151.1433 H   0  0  0  0  0  0  0  0  0  0  0  0
  142.9573  134.5528  152.0211 H   0  0  0  0  0  0  0  0  0  0  0  0
  143.5811  133.2822  153.0676 H   0  0  0  0  0  0  0  0  0  0  0  0
  144.9334  135.5977  152.9624 H   0  0  0  0  0  0  0  0  0  0  0  0
  146.4298  135.4962  150.7906 H   0  0  0  0  0  0  0  0  0  0  0  0
  144.7013  135.5653  150.3751 H   0  0  0  0  0  0  0  0  0  0  0  0
  148.0972  136.0091  154.6048 H   0  0  0  0  0  0  0  0  0  0  0  0
  146.4200  136.1264  154.2286 H   0  0  0  0  0  0  0  0  0  0  0  0
  145.9656  134.1259  155.7439 H   0  0  0  0  0  0  0  0  0  0  0  0
  146.6683  135.4717  156.5830 H   0  0  0  0  0  0  0  0  0  0  0  0
  147.8407  134.9496  152.6252 H   0  0  0  0  0  0  0  0  0  0  0  0
  146.8399  132.2250  162.6751 H   0  0  0  0  0  0  0  0  0  0  0  0
  1  2  2  0  0  0  0
  2  3  1  0  0  0  0
  2 12  1  0  0  0  0
  3  4  1  0  0  0  0
  3 25  1  0  0  0  0
  4  5  1  0  0  0  0
  4 26  1  0  0  0  0
  4 27  1  0  0  0  0
  5  6  1  0  0  0  0
  5 28  1  0  0  0  0
  5 29  1  0  0  0  0
  6 11  1  0  0  0  0
  6  7  2  0  0  0  0
  7  8  1  0  0  0  0
  7 30  1  0  0  0  0
  8  9  2  0  0  0  0
  8 31  1  0  0  0  0
  9 10  1  0  0  0  0
  9 54  1  0  0  0  0
 10 11  2  0  0  0  0
 10 32  1  0  0  0  0
 11 33  1  0  0  0  0
 12 24  1  0  0  0  0
 12 13  1  0  0  0  0
 13 14  1  0  0  0  0
 13 34  1  0  0  0  0
 13 35  1  0  0  0  0
 14 15  1  0  0  0  0
 14 36  1  0  0  0  0
 14 37  1  0  0  0  0
 15 16  1  0  0  0  0
 15 23  1  0  0  0  0
 15 53  1  0  0  0  0
 16 21  1  0  0  0  0
 16 17  1  0  0  0  0
 16 38  1  0  0  0  0
 17 18  1  0  0  0  0
 17 39  1  0  0  0  0
 17 40  1  0  0  0  0
 18 22  1  0  0  0  0
 18 19  1  0  0  0  0
 18 41  1  0  0  0  0
 19 20  1  0  0  0  0
 19 42  1  0  0  0  0
 19 43  1  0  0  0  0
 20 21  1  0  0  0  0
 20 44  1  0  0  0  0
 20 45  1  0  0  0  0
 21 22  1  0  0  0  0
 21 46  1  0  0  0  0
 22 47  1  0  0  0  0
 22 48  1  0  0  0  0
 23 24  1  0  0  0  0
 23 49  1  0  0  0  0
 23 50  1  0  0  0  0
 24 51  1  0  0  0  0
 24 52  1  0  0  0  0
M  CHG  1   9   1
M  CHG  1  15   1
M  END
> <s_m_source_file>
AV-unprocessed.smi

> <i_m_source_file_index>
2895

> <i_lp_mmshare_version>
43012

> <i_f3d_flags>
0

> <s_epik_input>
W0NIMl0xW0NIMl1bQ0BASF0oW0NIMl0yKVtDQEBIXShbQ0gyXVtDQEhdMTIpTihbQ0gyXVtDSDJdMylbQ0gyXVtDSDJdTjNDKD1PKVtOSF1bQ0gyXVtDSDJdYzRbY0hdW2NIXW5bY0hdW2NIXTQ=

> <s_epik_cmdline>
J2VwaWtfcHl0aG9uJywgJy1waCcsICc3LjAnLCAnLXRuJywgJzgnLCAnLW1hJywgJzIwMCcsICctbWV0YWxfYmluZGluZycsICctaW1hZScsICc8aW5maWxlLm1hZT4nLCAnLW9tYWUnLCAnPG91dGZpbGUubWFlPic=

> <r_epik_Ionization_Penalty>
1.44916

> <r_epik_Ionization_Penalty_Charging>
1.44913

> <r_epik_Ionization_Penalty_Neutral>
2.64641e-05

> <r_epik_State_Penalty>
1.53218

> <r_epik_Charging_Adjusted_Penalty>
2.98131

> <i_epik_Tot_Q>
2

> <i_epik_Tot_abs_Q>
2

> <r_epik_Metal_State_Penalty>
1.58241

> <b_epik_Metal_Only>
0

> <s_lp_Force_Field>
OPLS_2005

> <r_lp_Energy>
108.082

> <b_lp_Chiralities_Consistent>
1

> <s_lp_Variant>
AV-unprocessed.smi:2895-7

> <Gold.Version>
5.8.1

> <Gold.Id.Protein>
6NUR|6NUR_protein|mol2

> <Gold.PLP.Fitness>
43.4500

> <Gold.PLP.PLP>
-36.4314

> <Gold.PLP.part.hbond>
-2.0000

> <Gold.PLP.part.metal>
0.0000

> <Gold.PLP.part.buried>
-4.2609

> <Gold.PLP.part.nonpolar>
-29.7609

> <Gold.PLP.part.repulsive>
0.1373

> <Gold.PLP.ligand.clash>
1.5832

> <Gold.PLP.ligand.torsion>
0.2528

> <Gold.PLP.Chemscore.Hbond>
3.0000

> <Gold.PLP.Chemscore.CHOScore>
0.0000

> <Gold.PLP.Chemscore.Metal>
0.0000

> <Gold.Chemscore.Hbonds>
donor molecule, donor type, donor heavy atom, donor atom, acceptor molecule, acceptor atom, score
      L1  H    15    53       P1  7948  2.00
      P1  H  6896  6909       L1     1  1.00

> <Gold.PLP.Chemscore.Internal.Correction>
0.1075

> <Gold.Rescore>
     Score         DG    S(hbond)    S(metal)    S(lipo)     H(rot)  DE(clash)    DE(int)     intcor
     19.43     -19.65       1.99        0.00      96.07       1.46       0.01       0.21       ----

> <Gold.Chemscore.Fitness>
19.4257

> <Gold.Chemscore.DG>
-19.6454

> <Gold.Chemscore.ZeroCoef>
-5.4800

> <Gold.Chemscore.Hbond>
1.9927

> <Gold.Chemscore.Metal>
0.0000

> <Gold.Chemscore.Lipo>
96.0700

> <Gold.Chemscore.Internal_Hbond>
0.0000

> <Gold.Chemscore.DEClash>
0.0133

> <Gold.Chemscore.DEInternal>
0.2064

> <Gold.Chemscore.Rot>
1.4572

> <Gold.Chemscore.Internal.Correction>
   9.000000E+99

> <Gold.Chemscore.Hbonds>
donor molecule, donor type, donor heavy atom, donor atom, acceptor molecule, acceptor atom, score
      L1  H    15    53       P1  7948  0.93
      P1  H  6896  6909       L1     1  0.95

> <Gold.Chemscore.Hbond.Weighted>
-6.6557

> <Gold.Chemscore.Metal.Weighted>
-0.0000

> <Gold.Chemscore.Lipo.Weighted>
-11.2402

> <Gold.Chemscore.Internal_Hbond.Weighted>
0.0000

> <Gold.Chemscore.DEClash.Weighted>
0.0133

> <Gold.Chemscore.DEInternal.Weighted>
0.2064

> <Gold.Chemscore.Rot.Weighted>
3.7305

> <Gold.Chemscore.Internal.Correction.Weighted>
   9.000000E+99

> <Gold.Protein.RotatedTorsions>
[ 6907 6896 6895 6894 ] final   -2.55 input  -60.11 | X-H torsion
[ 7974 7965 7964 7962 ] final  -94.32 input  175.53 | X-H torsion
[ 8008 7997 7996 7995 ] final -141.24 input   59.86 | X-H torsion
[ 10167 10162 10161 10158 ] final  -43.39 input  -65.29 | X-H torsion
[ 10718 10713 10712 10709 ] final   21.25 input   66.30 | X-H torsion
[ 10763 10752 10751 10750 ] final   20.66 input  -60.55 | X-H torsion
[ 11005 11000 10999 10996 ] final   64.67 input  -57.11 | X-H torsion

> <Gold.Protein.ActiveResidues>
 VAL166  LYS551  ARG553  GLY616  TRP617  ASP618  TYR619  PRO620  LYS621  CYS622 
 ASP623  PHE694  ASN695  SER759  ASP760  ASP761  ALA762  ILE779  LEU786  VAL792 
 PHE793  MET794  SER795  GLU796  ALA797  LYS798  CYS799  TRP800  GLU811  SER814 

> <Gold.Protein.RotatedAtoms>
  151.5281  135.1068  159.9895 H   0  0  0  0  0  0  0  0  0  0  0  0  # atno 6907 bound_to 6896
  152.4591  133.7780  159.6845 H   0  0  0  0  0  0  0  0  0  0  0  0  # atno 6908 bound_to 6896
  150.8545  133.7671  159.3038 H   0  0  0  0  0  0  0  0  0  0  0  0  # atno 6909 bound_to 6896
  145.3748  140.9510  143.2427 H   0  0  0  0  0  0  0  0  0  0  0  0  # atno 7974 bound_to 7965
  155.4746  140.0555  157.2975 H   0  0  0  0  0  0  0  0  0  0  0  0  # atno 8008 bound_to 7997
  154.4684  140.2029  156.0010 H   0  0  0  0  0  0  0  0  0  0  0  0  # atno 8009 bound_to 7997
  156.1015  140.3218  155.7952 H   0  0  0  0  0  0  0  0  0  0  0  0  # atno 8010 bound_to 7997
  140.6935  143.2986  151.3345 H   0  0  0  0  0  0  0  0  0  0  0  0  # atno 10167 bound_to 10162
  157.1358  130.6611  149.5966 H   0  0  0  0  0  0  0  0  0  0  0  0  # atno 10718 bound_to 10713
  153.1059  135.6684  153.9588 H   0  0  0  0  0  0  0  0  0  0  0  0  # atno 10763 bound_to 10752
  153.9145  135.3021  155.3449 H   0  0  0  0  0  0  0  0  0  0  0  0  # atno 10764 bound_to 10752
  154.7480  135.5048  153.9314 H   0  0  0  0  0  0  0  0  0  0  0  0  # atno 10765 bound_to 10752
  139.9944  134.6541  156.0036 H   0  0  0  0  0  0  0  0  0  0  0  0  # atno 11005 bound_to 11000
  144.8550  139.5263  143.6839 LP  0  0  0  0  0  0  0  0  0  0  0  0  # atno 17320 bound_to 7965
  146.2869  139.7029  142.9189 LP  0  0  0  0  0  0  0  0  0  0  0  0  # atno 17321 bound_to 7965
  139.6364  144.0622  152.2519 LP  0  0  0  0  0  0  0  0  0  0  0  0  # atno 17342 bound_to 10162
  140.0113  144.6222  150.7645 LP  0  0  0  0  0  0  0  0  0  0  0  0  # atno 17343 bound_to 10162
  155.9798  130.4795  150.6738 LP  0  0  0  0  0  0  0  0  0  0  0  0  # atno 17370 bound_to 10713
  157.4351  131.0854  151.0999 LP  0  0  0  0  0  0  0  0  0  0  0  0  # atno 17371 bound_to 10713
  141.1592  133.6540  156.4262 LP  0  0  0  0  0  0  0  0  0  0  0  0  # atno 17394 bound_to 11000
  140.4847  134.6632  157.5186 LP  0  0  0  0  0  0  0  0  0  0  0  0  # atno 17395 bound_to 11000

$$$$
