AV-unprocessed.smi:956|AV-procd|sdf|4263|dock8
  -GOLD-   22720 2173D 1   1.00000     0.00000
 Structure written by MMmdl.
 42 43  0  0  0  0  0  0  0  0  1 V2000
  143.8090  140.4994  155.6171 C   0  0  0  0  0  0  0  0  0  0  0  0
  145.5103  141.2394  155.6261 S   0  0  2  0  0  0  0  0  0  0  0  0
  145.4601  142.4943  154.7526 O   0  0  0  0  0  0  0  0  0  0  0  0
  146.2571  139.9660  154.5480 C   0  0  0  0  0  0  0  0  0  0  0  0
  145.7905  138.7186  154.4362 N   0  0  0  0  0  0  0  0  0  0  0  0
  146.6426  138.0976  153.5430 N   0  0  0  0  0  0  0  0  0  0  0  0
  147.5268  139.0391  153.2080 C   0  0  0  0  0  0  0  0  0  0  0  0
  147.3461  140.2303  153.8014 N   0  0  0  0  0  0  0  0  0  0  0  0
  148.1453  141.4382  153.6723 C   0  0  0  0  0  0  0  0  0  0  0  0
  149.4955  141.2469  154.3598 C   0  0  0  0  0  0  0  0  0  0  0  0
  150.2108  140.2950  154.0501 O   0  0  0  0  0  0  0  0  0  0  0  0
  149.7997  142.1274  155.3263 N   0  0  0  0  0  0  0  0  0  0  0  0
  150.8828  141.9790  156.2928 C   0  0  0  0  0  0  0  0  0  0  0  0
  150.4655  142.5040  157.6816 C   0  0  0  0  0  0  0  0  0  0  0  0
  151.6038  142.6080  158.7236 C   0  0  0  0  0  0  0  0  0  0  0  0
  151.9924  141.2186  159.2664 C   0  0  0  0  0  0  0  0  0  0  0  0
  153.1653  141.3119  160.2554 C   0  0  0  0  0  0  0  0  0  0  0  0
  152.8375  142.2647  161.4149 C   0  0  0  0  0  0  0  0  0  0  0  0
  152.4250  143.6504  160.8951 C   0  0  0  0  0  0  0  0  0  0  0  0
  151.2603  143.5505  159.8963 C   0  0  0  0  0  0  0  0  0  0  0  0
  143.8313  139.4533  155.3173 H   0  0  0  0  0  0  0  0  0  0  0  0
  143.1664  141.0416  154.9236 H   0  0  0  0  0  0  0  0  0  0  0  0
  143.3711  140.5592  156.6130 H   0  0  0  0  0  0  0  0  0  0  0  0
  148.3377  138.8503  152.5197 H   0  0  0  0  0  0  0  0  0  0  0  0
  148.2910  141.6504  152.6123 H   0  0  0  0  0  0  0  0  0  0  0  0
  147.6150  142.2889  154.1004 H   0  0  0  0  0  0  0  0  0  0  0  0
  149.1575  142.8899  155.4853 H   0  0  0  0  0  0  0  0  0  0  0  0
  151.2198  140.9443  156.3664 H   0  0  0  0  0  0  0  0  0  0  0  0
  151.7400  142.5474  155.9316 H   0  0  0  0  0  0  0  0  0  0  0  0
  149.9869  143.4770  157.5664 H   0  0  0  0  0  0  0  0  0  0  0  0
  149.6933  141.8408  158.0735 H   0  0  0  0  0  0  0  0  0  0  0  0
  152.4885  143.0054  158.2270 H   0  0  0  0  0  0  0  0  0  0  0  0
  151.1338  140.7608  159.7596 H   0  0  0  0  0  0  0  0  0  0  0  0
  152.2651  140.5554  158.4450 H   0  0  0  0  0  0  0  0  0  0  0  0
  153.4038  140.3215  160.6443 H   0  0  0  0  0  0  0  0  0  0  0  0
  154.0569  141.6624  159.7332 H   0  0  0  0  0  0  0  0  0  0  0  0
  152.0288  141.8446  162.0142 H   0  0  0  0  0  0  0  0  0  0  0  0
  153.6991  142.3562  162.0767 H   0  0  0  0  0  0  0  0  0  0  0  0
  152.1437  144.2918  161.7308 H   0  0  0  0  0  0  0  0  0  0  0  0
  153.2786  144.1285  160.4128 H   0  0  0  0  0  0  0  0  0  0  0  0
  151.0246  144.5488  159.5294 H   0  0  0  0  0  0  0  0  0  0  0  0
  150.3670  143.1920  160.4092 H   0  0  0  0  0  0  0  0  0  0  0  0
  1  2  1  0  0  0  0
  1 21  1  0  0  0  0
  1 22  1  0  0  0  0
  1 23  1  0  0  0  0
  2  3  2  0  0  0  0
  2  4  1  0  0  0  0
  4  8  1  0  0  0  0
  4  5  2  0  0  0  0
  5  6  1  0  0  0  0
  6  7  2  0  0  0  0
  7  8  1  0  0  0  0
  7 24  1  0  0  0  0
  8  9  1  0  0  0  0
  9 10  1  0  0  0  0
  9 25  1  0  0  0  0
  9 26  1  0  0  0  0
 10 11  2  0  0  0  0
 10 12  1  0  0  0  0
 12 13  1  0  0  0  0
 12 27  1  0  0  0  0
 13 14  1  0  0  0  0
 13 28  1  0  0  0  0
 13 29  1  0  0  0  0
 14 15  1  0  0  0  0
 14 30  1  0  0  0  0
 14 31  1  0  0  0  0
 15 20  1  0  0  0  0
 15 16  1  0  0  0  0
 15 32  1  0  0  0  0
 16 17  1  0  0  0  0
 16 33  1  0  0  0  0
 16 34  1  0  0  0  0
 17 18  1  0  0  0  0
 17 35  1  0  0  0  0
 17 36  1  0  0  0  0
 18 19  1  0  0  0  0
 18 37  1  0  0  0  0
 18 38  1  0  0  0  0
 19 20  1  0  0  0  0
 19 39  1  0  0  0  0
 19 40  1  0  0  0  0
 20 41  1  0  0  0  0
 20 42  1  0  0  0  0
M  END
> <s_m_source_file>
AV-unprocessed.smi

> <i_m_source_file_index>
956

> <i_lp_mmshare_version>
43012

> <i_f3d_flags>
0

> <s_epik_input>
W0NIM11bU0BdKD1PKWMxbm5bY0hdbjFbQ0gyXUMoPU8pW05IXVtDSDJdW0NIMl1bQ0hdMltDSDJdW0NIMl1bQ0gyXVtDSDJdW0NIMl0y

> <s_epik_cmdline>
J2VwaWtfcHl0aG9uJywgJy1waCcsICc3LjAnLCAnLXRuJywgJzgnLCAnLW1hJywgJzIwMCcsICctbWV0YWxfYmluZGluZycsICctaW1hZScsICc8aW5maWxlLm1hZT4nLCAnLW9tYWUnLCAnPG91dGZpbGUubWFlPic=

> <r_lp_tautomer_probability>
1

> <r_epik_Ionization_Penalty>
7.32521e-08

> <r_epik_Ionization_Penalty_Charging>
0

> <r_epik_Ionization_Penalty_Neutral>
7.32521e-08

> <r_epik_State_Penalty>
-0

> <r_epik_Charging_Adjusted_Penalty>
0

> <i_epik_Tot_Q>
0

> <i_epik_Tot_abs_Q>
0

> <r_epik_Metal_State_Penalty>
-0

> <b_epik_Metal_Only>
0

> <s_lp_Force_Field>
OPLS_2005

> <r_lp_Energy>
8.17766

> <b_lp_Chiralities_Consistent>
1

> <s_lp_Variant>
AV-unprocessed.smi:956-1

> <Gold.Version>
5.8.1

> <Gold.Id.Protein>
6NUR|6NUR_protein|mol2

> <Gold.PLP.Fitness>
45.8064

> <Gold.PLP.PLP>
-35.2223

> <Gold.PLP.part.hbond>
-2.0000

> <Gold.PLP.part.metal>
0.0000

> <Gold.PLP.part.buried>
-4.3550

> <Gold.PLP.part.nonpolar>
-29.2208

> <Gold.PLP.part.repulsive>
1.0573

> <Gold.PLP.ligand.clash>
0.0000

> <Gold.PLP.ligand.torsion>
0.9784

> <Gold.PLP.Chemscore.Hbond>
1.9280

> <Gold.PLP.Chemscore.CHOScore>
1.8750

> <Gold.PLP.Chemscore.Metal>
0.0000

> <Gold.Chemscore.Hbonds>
donor molecule, donor type, donor heavy atom, donor atom, acceptor molecule, acceptor atom, score
      L1  H    12    27       P1  8028  0.98
      P1  H  7989  7998       L1    11  0.90
      L1  C     7    24       P1  7948  0.39
      L1  C     7    24       P1  7957  1.00

> <Gold.PLP.Chemscore.Internal.Correction>
1.1318

> <Gold.Rescore>
     Score         DG    S(hbond)    S(metal)    S(lipo)     H(rot)  DE(clash)    DE(int)     intcor
     14.68     -15.76       1.71        0.00      88.38       2.26       0.13       0.95       ----

> <Gold.Chemscore.Fitness>
14.6786

> <Gold.Chemscore.DG>
-15.7623

> <Gold.Chemscore.ZeroCoef>
-5.4800

> <Gold.Chemscore.Hbond>
1.7114

> <Gold.Chemscore.Metal>
0.0000

> <Gold.Chemscore.Lipo>
88.3768

> <Gold.Chemscore.Internal_Hbond>
0.0000

> <Gold.Chemscore.DEClash>
0.1301

> <Gold.Chemscore.DEInternal>
0.9536

> <Gold.Chemscore.Rot>
2.2554

> <Gold.Chemscore.Internal.Correction>
   9.000000E+99

> <Gold.Chemscore.Hbonds>
donor molecule, donor type, donor heavy atom, donor atom, acceptor molecule, acceptor atom, score
      L1  H    12    27       P1  8028  0.93
      P1  H  7989  7998       L1    11  0.57

> <Gold.Chemscore.Hbond.Weighted>
-5.7161

> <Gold.Chemscore.Metal.Weighted>
-0.0000

> <Gold.Chemscore.Lipo.Weighted>
-10.3401

> <Gold.Chemscore.Internal_Hbond.Weighted>
0.0000

> <Gold.Chemscore.DEClash.Weighted>
0.1301

> <Gold.Chemscore.DEInternal.Weighted>
0.9536

> <Gold.Chemscore.Rot.Weighted>
5.7738

> <Gold.Chemscore.Internal.Correction.Weighted>
   9.000000E+99

> <Gold.Protein.RotatedTorsions>
[ 6907 6896 6895 6894 ] final -151.33 input  -60.11 | X-H torsion
[ 7974 7965 7964 7962 ] final   21.80 input  175.53 | X-H torsion
[ 8008 7997 7996 7995 ] final -121.94 input   59.86 | X-H torsion
[ 10167 10162 10161 10158 ] final -107.27 input  -65.29 | X-H torsion
[ 10718 10713 10712 10709 ] final   68.49 input   66.30 | X-H torsion
[ 10763 10752 10751 10750 ] final   99.73 input  -60.55 | X-H torsion
[ 11005 11000 10999 10996 ] final   -9.87 input  -57.11 | X-H torsion

> <Gold.Protein.ActiveResidues>
 VAL166  LYS551  ARG553  GLY616  TRP617  ASP618  TYR619  PRO620  LYS621  CYS622 
 ASP623  PHE694  ASN695  SER759  ASP760  ASP761  ALA762  ILE779  LEU786  VAL792 
 PHE793  MET794  SER795  GLU796  ALA797  LYS798  CYS799  TRP800  GLU811  SER814 

> <Gold.Protein.RotatedAtoms>
  151.2115  133.4553  159.2598 H   0  0  0  0  0  0  0  0  0  0  0  0  # atno 6907 bound_to 6896
  151.0972  134.9951  159.8441 H   0  0  0  0  0  0  0  0  0  0  0  0  # atno 6908 bound_to 6896
  152.5440  134.2044  159.8778 H   0  0  0  0  0  0  0  0  0  0  0  0  # atno 6909 bound_to 6896
  146.2056  139.7976  142.8728 H   0  0  0  0  0  0  0  0  0  0  0  0  # atno 7974 bound_to 7965
  155.1562  140.0405  157.2832 H   0  0  0  0  0  0  0  0  0  0  0  0  # atno 8008 bound_to 7997
  154.6369  140.2537  155.7341 H   0  0  0  0  0  0  0  0  0  0  0  0  # atno 8009 bound_to 7997
  156.2513  140.2864  156.0745 H   0  0  0  0  0  0  0  0  0  0  0  0  # atno 8010 bound_to 7997
  140.1788  143.3984  152.1298 H   0  0  0  0  0  0  0  0  0  0  0  0  # atno 10167 bound_to 10162
  157.6292  130.9376  150.0384 H   0  0  0  0  0  0  0  0  0  0  0  0  # atno 10718 bound_to 10713
  153.3051  135.4103  155.1287 H   0  0  0  0  0  0  0  0  0  0  0  0  # atno 10763 bound_to 10752
  154.8560  135.3551  154.5799 H   0  0  0  0  0  0  0  0  0  0  0  0  # atno 10764 bound_to 10752
  153.6226  135.7064  153.5363 H   0  0  0  0  0  0  0  0  0  0  0  0  # atno 10765 bound_to 10752
  140.7387  133.8688  155.8950 H   0  0  0  0  0  0  0  0  0  0  0  0  # atno 11005 bound_to 11000
  145.3330  141.0271  143.3435 LP  0  0  0  0  0  0  0  0  0  0  0  0  # atno 17320 bound_to 7965
  144.8785  139.4937  143.6734 LP  0  0  0  0  0  0  0  0  0  0  0  0  # atno 17321 bound_to 7965
  139.5305  144.7154  151.5072 LP  0  0  0  0  0  0  0  0  0  0  0  0  # atno 17342 bound_to 10162
  140.6534  143.8650  150.6809 LP  0  0  0  0  0  0  0  0  0  0  0  0  # atno 17343 bound_to 10162
  156.1484  130.3642  149.9476 LP  0  0  0  0  0  0  0  0  0  0  0  0  # atno 17370 bound_to 10713
  156.7501  130.9112  151.3637 LP  0  0  0  0  0  0  0  0  0  0  0  0  # atno 17371 bound_to 10713
  140.9856  134.1347  157.4455 LP  0  0  0  0  0  0  0  0  0  0  0  0  # atno 17394 bound_to 11000
  139.8810  135.0024  156.6127 LP  0  0  0  0  0  0  0  0  0  0  0  0  # atno 17395 bound_to 11000

$$$$
