AV-unprocessed.smi:47|AV-procd|sdf|438|dock4
  -GOLD-   2262016303D 1   1.00000     0.00000
 Structure written by MMmdl.
 31 33  0  0  0  0  0  0  0  0  1 V2000
  145.2001  140.3714  154.4420 O   0  0  0  0  0  0  0  0  0  0  0  0
  146.4163  141.0184  154.7507 C   0  0  2  0  0  0  0  0  0  0  0  0
  146.5804  142.3353  154.0036 C   0  0  0  0  0  0  0  0  0  0  0  0
  148.0104  142.6033  154.0506 N   0  0  0  0  0  0  0  0  0  0  0  0
  148.7086  141.3120  154.0349 C   0  0  1  0  0  0  0  0  0  0  0  0
  149.8220  141.2458  155.0352 C   0  0  0  0  0  0  0  0  0  0  0  0
  150.7031  140.2509  155.0076 N   0  0  0  0  0  0  0  0  0  0  0  0
  151.4745  140.5342  156.0772 N   0  0  0  0  0  0  0  0  0  0  0  0
  151.0302  141.6374  156.6928 C   0  0  0  0  0  0  0  0  0  0  0  0
  151.6265  142.2204  157.8966 C   0  0  0  0  0  0  0  0  0  0  0  0
  151.6480  143.6227  158.0797 C   0  0  0  0  0  0  0  0  0  0  0  0
  152.2261  144.1836  159.2353 C   0  0  0  0  0  0  0  0  0  0  0  0
  152.7878  143.3491  160.2196 C   0  0  0  0  0  0  0  0  0  0  0  0
  152.7697  141.9524  160.0480 C   0  0  0  0  0  0  0  0  0  0  0  0
  152.1922  141.3906  158.8928 C   0  0  0  0  0  0  0  0  0  0  0  0
  149.9631  142.1329  156.0662 N   0  0  0  0  0  0  0  0  0  0  0  0
  147.6410  140.2316  154.2938 C   0  0  0  0  0  0  0  0  0  0  0  0
  146.4706  141.1950  155.8261 H   0  0  0  0  0  0  0  0  0  0  0  0
  149.1317  141.1470  153.0430 H   0  0  0  0  0  0  0  0  0  0  0  0
  152.2614  139.9632  156.3500 H   0  0  0  0  0  0  0  0  0  0  0  0
  144.8715  140.7227  153.6285 H   0  0  0  0  0  0  0  0  0  0  0  0
  146.2638  142.2174  152.9662 H   0  0  0  0  0  0  0  0  0  0  0  0
  145.9980  143.1457  154.4425 H   0  0  0  0  0  0  0  0  0  0  0  0
  148.2712  143.1477  153.2349 H   0  0  0  0  0  0  0  0  0  0  0  0
  151.2238  144.2821  157.3369 H   0  0  0  0  0  0  0  0  0  0  0  0
  152.2392  145.2557  159.3659 H   0  0  0  0  0  0  0  0  0  0  0  0
  153.2314  143.7794  161.1053 H   0  0  0  0  0  0  0  0  0  0  0  0
  153.2000  141.3102  160.8023 H   0  0  0  0  0  0  0  0  0  0  0  0
  152.1896  140.3162  158.7808 H   0  0  0  0  0  0  0  0  0  0  0  0
  147.9473  139.4737  155.0163 H   0  0  0  0  0  0  0  0  0  0  0  0
  147.4232  139.7183  153.3559 H   0  0  0  0  0  0  0  0  0  0  0  0
  1  2  1  0  0  0  0
  1 21  1  0  0  0  0
  2 18  1  0  0  0  0
  2 17  1  0  0  0  0
  2  3  1  0  0  0  0
  3  4  1  0  0  0  0
  3 22  1  0  0  0  0
  3 23  1  0  0  0  0
  4  5  1  0  0  0  0
  4 24  1  0  0  0  0
  5 19  1  0  0  0  0
  5  6  1  0  0  0  0
  5 17  1  0  0  0  0
  6 16  1  0  0  0  0
  6  7  2  0  0  0  0
  7  8  1  0  0  0  0
  8 20  1  0  0  0  0
  8  9  1  0  0  0  0
  9 10  1  0  0  0  0
  9 16  2  0  0  0  0
 10 15  1  0  0  0  0
 10 11  2  0  0  0  0
 11 12  1  0  0  0  0
 11 25  1  0  0  0  0
 12 13  2  0  0  0  0
 12 26  1  0  0  0  0
 13 14  1  0  0  0  0
 13 27  1  0  0  0  0
 14 15  2  0  0  0  0
 14 28  1  0  0  0  0
 15 29  1  0  0  0  0
 17 30  1  0  0  0  0
 17 31  1  0  0  0  0
M  END
> <s_m_source_file>
AV-unprocessed.smi

> <i_m_source_file_index>
47

> <i_lp_mmshare_version>
43012

> <i_f3d_flags>
0

> <s_epik_input>
W09IXVtDQEhdMVtDSDJdW05IXVtDQEBIXShbQ0gyXTEpYzJuW25IXWMobjIpLWMzW2NIXVtjSF1bY0hdW2NIXVtjSF0z

> <s_epik_cmdline>
J2VwaWtfcHl0aG9uJywgJy1waCcsICc3LjAnLCAnLXRuJywgJzgnLCAnLW1hJywgJzIwMCcsICctbWV0YWxfYmluZGluZycsICctaW1hZScsICc8aW5maWxlLm1hZT4nLCAnLW9tYWUnLCAnPG91dGZpbGUubWFlPic=

> <r_epik_Ionization_Penalty>
1.65981

> <r_epik_Ionization_Penalty_Charging>
0

> <r_epik_Ionization_Penalty_Neutral>
1.65981

> <r_epik_State_Penalty>
2.0492

> <r_epik_Charging_Adjusted_Penalty>
2.0492

> <i_epik_Tot_Q>
0

> <i_epik_Tot_abs_Q>
0

> <r_epik_Metal_State_Penalty>
2.54641

> <b_epik_Metal_Only>
0

> <s_lp_Force_Field>
OPLS_2005

> <r_lp_Energy>
25.8544

> <b_lp_Chiralities_Consistent>
1

> <s_lp_Variant>
AV-unprocessed.smi:47-16

> <Gold.Version>
5.8.1

> <Gold.Id.Protein>
6NUR|6NUR_protein|mol2

> <Gold.PLP.Fitness>
41.8965

> <Gold.PLP.PLP>
-37.7970

> <Gold.PLP.part.hbond>
-4.2446

> <Gold.PLP.part.metal>
0.0000

> <Gold.PLP.part.buried>
-4.8202

> <Gold.PLP.part.nonpolar>
-30.8910

> <Gold.PLP.part.repulsive>
2.0452

> <Gold.PLP.ligand.clash>
0.0000

> <Gold.PLP.ligand.torsion>
0.8082

> <Gold.PLP.Chemscore.Hbond>
1.9000

> <Gold.PLP.Chemscore.CHOScore>
0.0000

> <Gold.PLP.Chemscore.Metal>
0.0000

> <Gold.Chemscore.Hbonds>
donor molecule, donor type, donor heavy atom, donor atom, acceptor molecule, acceptor atom, score
      L1  H     1    21       P1 10175  0.85
      P1  H  7989  7998       L1     7  0.75

> <Gold.PLP.Chemscore.Internal.Correction>
0.0159

> <Gold.Rescore>
     Score         DG    S(hbond)    S(metal)    S(lipo)     H(rot)  DE(clash)    DE(int)     intcor
     14.38     -15.68       1.09        0.00      88.39       1.48       0.76       0.54       ----

> <Gold.Chemscore.Fitness>
14.3813

> <Gold.Chemscore.DG>
-15.6799

> <Gold.Chemscore.ZeroCoef>
-5.4800

> <Gold.Chemscore.Hbond>
1.0909

> <Gold.Chemscore.Metal>
0.0000

> <Gold.Chemscore.Lipo>
88.3908

> <Gold.Chemscore.Internal_Hbond>
0.0000

> <Gold.Chemscore.DEClash>
0.7591

> <Gold.Chemscore.DEInternal>
0.5395

> <Gold.Chemscore.Rot>
1.4786

> <Gold.Chemscore.Internal.Correction>
   9.000000E+99

> <Gold.Chemscore.Hbonds>
donor molecule, donor type, donor heavy atom, donor atom, acceptor molecule, acceptor atom, score
      L1  H     1    21       P1 10175  0.79
      P1  H  7989  7998       L1     7  0.05

> <Gold.Chemscore.Hbond.Weighted>
-3.6435

> <Gold.Chemscore.Metal.Weighted>
-0.0000

> <Gold.Chemscore.Lipo.Weighted>
-10.3417

> <Gold.Chemscore.Internal_Hbond.Weighted>
0.0000

> <Gold.Chemscore.DEClash.Weighted>
0.7591

> <Gold.Chemscore.DEInternal.Weighted>
0.5395

> <Gold.Chemscore.Rot.Weighted>
3.7853

> <Gold.Chemscore.Internal.Correction.Weighted>
   9.000000E+99

> <Gold.Protein.RotatedTorsions>
[ 6907 6896 6895 6894 ] final  -35.84 input  -60.11 | X-H torsion
[ 7974 7965 7964 7962 ] final  117.00 input  175.53 | X-H torsion
[ 8008 7997 7996 7995 ] final -106.96 input   59.86 | X-H torsion
[ 10167 10162 10161 10158 ] final  -96.13 input  -65.29 | X-H torsion
[ 10718 10713 10712 10709 ] final -127.99 input   66.30 | X-H torsion
[ 10763 10752 10751 10750 ] final   58.46 input  -60.55 | X-H torsion
[ 11005 11000 10999 10996 ] final  -45.32 input  -57.11 | X-H torsion

> <Gold.Protein.ActiveResidues>
 VAL166  LYS551  ARG553  GLY616  TRP617  ASP618  TYR619  PRO620  LYS621  CYS622 
 ASP623  PHE694  ASN695  SER759  ASP760  ASP761  ALA762  ILE779  LEU786  VAL792 
 PHE793  MET794  SER795  GLU796  ALA797  LYS798  CYS799  TRP800  GLU811  SER814 

> <Gold.Protein.RotatedAtoms>
  151.0347  134.9565  159.8129 H   0  0  0  0  0  0  0  0  0  0  0  0  # atno 6907 bound_to 6896
  152.5352  134.2734  159.8990 H   0  0  0  0  0  0  0  0  0  0  0  0  # atno 6908 bound_to 6896
  151.2745  133.4197  159.2657 H   0  0  0  0  0  0  0  0  0  0  0  0  # atno 6909 bound_to 6896
  145.1727  139.3092  143.4459 H   0  0  0  0  0  0  0  0  0  0  0  0  # atno 7974 bound_to 7965
  154.9223  140.0407  157.2004 H   0  0  0  0  0  0  0  0  0  0  0  0  # atno 8008 bound_to 7997
  154.8242  140.2888  155.5744 H   0  0  0  0  0  0  0  0  0  0  0  0  # atno 8009 bound_to 7997
  156.2982  140.2513  156.3155 H   0  0  0  0  0  0  0  0  0  0  0  0  # atno 8010 bound_to 7997
  140.2970  143.3186  152.0288 H   0  0  0  0  0  0  0  0  0  0  0  0  # atno 10167 bound_to 10162
  156.1908  130.6794  151.0422 H   0  0  0  0  0  0  0  0  0  0  0  0  # atno 10718 bound_to 10713
  152.9871  135.5606  154.5556 H   0  0  0  0  0  0  0  0  0  0  0  0  # atno 10763 bound_to 10752
  154.4985  135.2796  155.1442 H   0  0  0  0  0  0  0  0  0  0  0  0  # atno 10764 bound_to 10752
  154.2882  135.6331  153.5427 H   0  0  0  0  0  0  0  0  0  0  0  0  # atno 10765 bound_to 10752
  141.0508  133.6744  156.2996 H   0  0  0  0  0  0  0  0  0  0  0  0  # atno 11005 bound_to 11000
  146.3466  140.1879  142.8589 LP  0  0  0  0  0  0  0  0  0  0  0  0  # atno 17320 bound_to 7965
  145.0216  140.8798  143.5163 LP  0  0  0  0  0  0  0  0  0  0  0  0  # atno 17321 bound_to 7965
  139.4924  144.6484  151.6729 LP  0  0  0  0  0  0  0  0  0  0  0  0  # atno 17342 bound_to 10162
  140.5684  144.0151  150.6204 LP  0  0  0  0  0  0  0  0  0  0  0  0  # atno 17343 bound_to 10162
  157.6928  131.0804  150.7058 LP  0  0  0  0  0  0  0  0  0  0  0  0  # atno 17370 bound_to 10713
  156.7114  130.4653  149.5546 LP  0  0  0  0  0  0  0  0  0  0  0  0  # atno 17371 bound_to 10713
  140.6059  134.5507  157.5525 LP  0  0  0  0  0  0  0  0  0  0  0  0  # atno 17394 bound_to 11000
  139.9349  134.7895  156.0831 LP  0  0  0  0  0  0  0  0  0  0  0  0  # atno 17395 bound_to 11000

$$$$
