AV-unprocessed.smi:1669|AV-procd|sdf|6689|dock2
  -GOLD-   22720 7413D 1   1.00000     0.00000
 Structure written by MMmdl.
 49 51  0  0  0  0  0  0  0  0  3 V2000
  146.5075  138.4643  152.0076 C   0  0  0  0  0  0  0  0  0  0  0  0
  146.4628  137.3220  152.9502 N   0  3  1  0  0  0  0  0  0  0  0  0
  146.8416  137.7068  154.3341 C   0  0  0  0  0  0  0  0  0  0  0  0
  147.9465  138.7468  154.3490 C   0  0  0  0  0  0  0  0  0  0  0  0
  147.6239  140.1134  154.4880 C   0  0  0  0  0  0  0  0  0  0  0  0
  148.6449  141.0834  154.5034 C   0  0  0  0  0  0  0  0  0  0  0  0
  149.9917  140.6907  154.3788 C   0  0  0  0  0  0  0  0  0  0  0  0
  150.3173  139.3278  154.2375 C   0  0  0  0  0  0  0  0  0  0  0  0
  149.2968  138.3572  154.2213 C   0  0  0  0  0  0  0  0  0  0  0  0
  145.1700  136.5949  152.8870 C   0  0  0  0  0  0  0  0  0  0  0  0
  145.2787  135.2887  152.0692 C   0  0  2  0  0  0  0  0  0  0  0  0
  144.7813  135.5299  150.7696 O   0  0  0  0  0  0  0  0  0  0  0  0
  144.4787  134.1141  152.6687 C   0  0  0  0  0  0  0  0  0  0  0  0
  144.7282  132.8380  151.9805 N   0  0  0  0  0  0  0  0  0  0  0  0
  144.2149  132.3370  150.8182 C   0  0  0  0  0  0  0  0  0  0  0  0
  143.2225  132.9940  149.9122 C   0  0  0  0  0  0  0  0  0  0  0  0
  141.9292  132.4398  150.0235 O   0  0  0  0  0  0  0  0  0  0  0  0
  144.7771  131.1090  150.6285 N   0  3  0  0  0  0  0  0  0  0  0  0
  145.6561  130.8221  151.6727 C   0  0  0  0  0  0  0  0  0  0  0  0
  146.4490  129.7051  151.9165 C   0  0  0  0  0  0  0  0  0  0  0  0
  147.2394  129.7328  153.0844 C   0  0  0  0  0  0  0  0  0  0  0  0
  147.2238  130.8416  153.9554 C   0  0  0  0  0  0  0  0  0  0  0  0
  146.4161  131.9689  153.6970 C   0  0  0  0  0  0  0  0  0  0  0  0
  145.6344  131.9313  152.5425 C   0  0  0  0  0  0  0  0  0  0  0  0
  145.7688  139.2207  152.2752 H   0  0  0  0  0  0  0  0  0  0  0  0
  146.3031  138.1325  150.9892 H   0  0  0  0  0  0  0  0  0  0  0  0
  147.4914  138.9332  152.0006 H   0  0  0  0  0  0  0  0  0  0  0  0
  145.9659  138.0701  154.8747 H   0  0  0  0  0  0  0  0  0  0  0  0
  147.2007  136.8409  154.8903 H   0  0  0  0  0  0  0  0  0  0  0  0
  146.5929  140.4214  154.5850 H   0  0  0  0  0  0  0  0  0  0  0  0
  148.3956  142.1290  154.6104 H   0  0  0  0  0  0  0  0  0  0  0  0
  150.7747  141.4346  154.3907 H   0  0  0  0  0  0  0  0  0  0  0  0
  151.3502  139.0270  154.1408 H   0  0  0  0  0  0  0  0  0  0  0  0
  149.5551  137.3138  154.1129 H   0  0  0  0  0  0  0  0  0  0  0  0
  144.8326  136.4005  153.9058 H   0  0  0  0  0  0  0  0  0  0  0  0
  144.4036  137.2244  152.4316 H   0  0  0  0  0  0  0  0  0  0  0  0
  146.3212  134.9884  151.9716 H   0  0  0  0  0  0  0  0  0  0  0  0
  145.2209  134.9523  150.1633 H   0  0  0  0  0  0  0  0  0  0  0  0
  144.7282  133.9804  153.7218 H   0  0  0  0  0  0  0  0  0  0  0  0
  143.4067  134.3146  152.6348 H   0  0  0  0  0  0  0  0  0  0  0  0
  143.1601  134.0581  150.1388 H   0  0  0  0  0  0  0  0  0  0  0  0
  143.5650  132.9001  148.8814 H   0  0  0  0  0  0  0  0  0  0  0  0
  141.3466  133.1010  150.3662 H   0  0  0  0  0  0  0  0  0  0  0  0
  146.4649  128.8552  151.2495 H   0  0  0  0  0  0  0  0  0  0  0  0
  147.8713  128.8873  153.3157 H   0  0  0  0  0  0  0  0  0  0  0  0
  147.8448  130.8272  154.8396 H   0  0  0  0  0  0  0  0  0  0  0  0
  146.4144  132.8135  154.3701 H   0  0  0  0  0  0  0  0  0  0  0  0
  147.1605  136.6658  152.6284 H   0  0  0  0  0  0  0  0  0  0  0  0
  144.5675  130.5123  149.8382 H   0  0  0  0  0  0  0  0  0  0  0  0
  1  2  1  0  0  0  0
  1 25  1  0  0  0  0
  1 26  1  0  0  0  0
  1 27  1  0  0  0  0
  2  3  1  0  0  0  0
  2 10  1  0  0  0  0
  2 48  1  0  0  0  0
  3  4  1  0  0  0  0
  3 28  1  0  0  0  0
  3 29  1  0  0  0  0
  4  9  1  0  0  0  0
  4  5  2  0  0  0  0
  5  6  1  0  0  0  0
  5 30  1  0  0  0  0
  6  7  2  0  0  0  0
  6 31  1  0  0  0  0
  7  8  1  0  0  0  0
  7 32  1  0  0  0  0
  8  9  2  0  0  0  0
  8 33  1  0  0  0  0
  9 34  1  0  0  0  0
 10 11  1  0  0  0  0
 10 35  1  0  0  0  0
 10 36  1  0  0  0  0
 11 12  1  0  0  0  0
 11 13  1  0  0  0  0
 11 37  1  0  0  0  0
 12 38  1  0  0  0  0
 13 14  1  0  0  0  0
 13 39  1  0  0  0  0
 13 40  1  0  0  0  0
 14 24  1  0  0  0  0
 14 15  1  0  0  0  0
 15 16  1  0  0  0  0
 15 18  2  0  0  0  0
 16 17  1  0  0  0  0
 16 41  1  0  0  0  0
 16 42  1  0  0  0  0
 17 43  1  0  0  0  0
 18 19  1  0  0  0  0
 18 49  1  0  0  0  0
 19 24  2  0  0  0  0
 19 20  1  0  0  0  0
 20 21  2  0  0  0  0
 20 44  1  0  0  0  0
 21 22  1  0  0  0  0
 21 45  1  0  0  0  0
 22 23  2  0  0  0  0
 22 46  1  0  0  0  0
 23 24  1  0  0  0  0
 23 47  1  0  0  0  0
M  CHG  1   2   1
M  CHG  1  18   1
M  END
> <s_m_source_file>
AV-unprocessed.smi

> <i_m_source_file_index>
1669

> <i_lp_mmshare_version>
43012

> <i_f3d_flags>
0

> <s_epik_input>
W2NIXTFbY0hdW2NIXVtjSF1bY0hdYzFbQ0gyXU4oW0NIM10pW0NIMl1bQ0BIXShbT0hdKVtDSDJdbihjKG4yKVtDSDJdW09IXSljKGMyMylbY0hdW2NIXVtjSF1bY0hdMw==

> <s_epik_cmdline>
J2VwaWtfcHl0aG9uJywgJy1waCcsICc3LjAnLCAnLXRuJywgJzgnLCAnLW1hJywgJzIwMCcsICctbWV0YWxfYmluZGluZycsICctaW1hZScsICc8aW5maWxlLm1hZT4nLCAnLW9tYWUnLCAnPG91dGZpbGUubWFlPic=

> <r_epik_Ionization_Penalty>
1.57484

> <r_epik_Ionization_Penalty_Charging>
1.57398

> <r_epik_Ionization_Penalty_Neutral>
0.000858917

> <r_epik_State_Penalty>
1.64997

> <r_epik_Charging_Adjusted_Penalty>
3.22395

> <i_epik_Tot_Q>
2

> <i_epik_Tot_abs_Q>
2

> <r_epik_Metal_State_Penalty>
5.70481

> <b_epik_Metal_Only>
0

> <s_lp_Force_Field>
OPLS_2005

> <r_lp_Energy>
24.1241

> <b_lp_Chiralities_Consistent>
1

> <s_lp_Variant>
AV-unprocessed.smi:1669-7

> <Gold.Version>
5.8.1

> <Gold.Id.Protein>
6NUR|6NUR_protein|mol2

> <Gold.PLP.Fitness>
55.0314

> <Gold.PLP.PLP>
-45.8899

> <Gold.PLP.part.hbond>
-5.0000

> <Gold.PLP.part.metal>
0.0000

> <Gold.PLP.part.buried>
-1.9958

> <Gold.PLP.part.nonpolar>
-39.1858

> <Gold.PLP.part.repulsive>
0.1413

> <Gold.PLP.ligand.clash>
0.0000

> <Gold.PLP.ligand.torsion>
2.2143

> <Gold.PLP.Chemscore.Hbond>
4.3593

> <Gold.PLP.Chemscore.CHOScore>
0.0000

> <Gold.PLP.Chemscore.Metal>
0.0000

> <Gold.Chemscore.Hbonds>
donor molecule, donor type, donor heavy atom, donor atom, acceptor molecule, acceptor atom, score
      L1  H     2    48       P1  7948  2.00
      L1  H    17    43       P1 10186  0.46

> <Gold.PLP.Chemscore.Internal.Correction>
0.4923

> <Gold.Rescore>
     Score         DG    S(hbond)    S(metal)    S(lipo)     H(rot)  DE(clash)    DE(int)     intcor
     15.69     -18.88       2.50        0.00     114.88       3.27       0.98       2.21       ----

> <Gold.Chemscore.Fitness>
15.6937

> <Gold.Chemscore.DG>
-18.8797

> <Gold.Chemscore.ZeroCoef>
-5.4800

> <Gold.Chemscore.Hbond>
2.4953

> <Gold.Chemscore.Metal>
0.0000

> <Gold.Chemscore.Lipo>
114.8835

> <Gold.Chemscore.Internal_Hbond>
0.0000

> <Gold.Chemscore.DEClash>
0.9752

> <Gold.Chemscore.DEInternal>
2.2109

> <Gold.Chemscore.Rot>
3.2718

> <Gold.Chemscore.Internal.Correction>
   9.000000E+99

> <Gold.Chemscore.Hbonds>
donor molecule, donor type, donor heavy atom, donor atom, acceptor molecule, acceptor atom, score
      L1  H     2    48       P1  7948  0.93
      L1  H    17    43       P1 10186  0.44

> <Gold.Chemscore.Hbond.Weighted>
-8.3343

> <Gold.Chemscore.Metal.Weighted>
-0.0000

> <Gold.Chemscore.Lipo.Weighted>
-13.4414

> <Gold.Chemscore.Internal_Hbond.Weighted>
0.0000

> <Gold.Chemscore.DEClash.Weighted>
0.9752

> <Gold.Chemscore.DEInternal.Weighted>
2.2109

> <Gold.Chemscore.Rot.Weighted>
8.3759

> <Gold.Chemscore.Internal.Correction.Weighted>
   9.000000E+99

> <Gold.Protein.RotatedTorsions>
[ 6907 6896 6895 6894 ] final -154.78 input  -60.11 | X-H torsion
[ 7974 7965 7964 7962 ] final  108.70 input  175.53 | X-H torsion
[ 8008 7997 7996 7995 ] final  118.56 input   59.86 | X-H torsion
[ 10167 10162 10161 10158 ] final -102.00 input  -65.29 | X-H torsion
[ 10718 10713 10712 10709 ] final  -23.21 input   66.30 | X-H torsion
[ 10763 10752 10751 10750 ] final   78.47 input  -60.55 | X-H torsion
[ 11005 11000 10999 10996 ] final   47.40 input  -57.11 | X-H torsion

> <Gold.Protein.ActiveResidues>
 VAL166  LYS551  ARG553  GLY616  TRP617  ASP618  TYR619  PRO620  LYS621  CYS622 
 ASP623  PHE694  ASN695  SER759  ASP760  ASP761  ALA762  ILE779  LEU786  VAL792 
 PHE793  MET794  SER795  GLU796  ALA797  LYS798  CYS799  TRP800  GLU811  SER814 

> <Gold.Protein.RotatedAtoms>
  151.2626  133.4295  159.2616 H   0  0  0  0  0  0  0  0  0  0  0  0  # atno 6907 bound_to 6896
  151.0517  134.9678  159.8225 H   0  0  0  0  0  0  0  0  0  0  0  0  # atno 6908 bound_to 6896
  152.5384  134.2580  159.8977 H   0  0  0  0  0  0  0  0  0  0  0  0  # atno 6909 bound_to 6896
  145.2773  139.2645  143.3934 H   0  0  0  0  0  0  0  0  0  0  0  0  # atno 7974 bound_to 7965
  156.2552  140.2872  156.0853 H   0  0  0  0  0  0  0  0  0  0  0  0  # atno 8008 bound_to 7997
  155.1522  140.0397  157.2841 H   0  0  0  0  0  0  0  0  0  0  0  0  # atno 8009 bound_to 7997
  154.6453  140.2532  155.7282 H   0  0  0  0  0  0  0  0  0  0  0  0  # atno 8010 bound_to 7997
  140.2353  143.3577  152.0850 H   0  0  0  0  0  0  0  0  0  0  0  0  # atno 10167 bound_to 10162
  156.4941  130.4573  149.6739 H   0  0  0  0  0  0  0  0  0  0  0  0  # atno 10718 bound_to 10713
  153.0876  135.4876  154.8628 H   0  0  0  0  0  0  0  0  0  0  0  0  # atno 10763 bound_to 10752
  154.7230  135.3043  154.9019 H   0  0  0  0  0  0  0  0  0  0  0  0  # atno 10764 bound_to 10752
  153.9677  135.6805  153.4799 H   0  0  0  0  0  0  0  0  0  0  0  0  # atno 10765 bound_to 10752
  140.1283  134.4739  155.8542 H   0  0  0  0  0  0  0  0  0  0  0  0  # atno 11005 bound_to 11000
  146.3227  140.3231  142.8635 LP  0  0  0  0  0  0  0  0  0  0  0  0  # atno 17320 bound_to 7965
  144.9283  140.7947  143.5705 LP  0  0  0  0  0  0  0  0  0  0  0  0  # atno 17321 bound_to 7965
  139.5096  144.6869  151.5863 LP  0  0  0  0  0  0  0  0  0  0  0  0  # atno 17342 bound_to 10162
  140.6154  143.9358  150.6485 LP  0  0  0  0  0  0  0  0  0  0  0  0  # atno 17343 bound_to 10162
  156.3398  130.7376  151.2319 LP  0  0  0  0  0  0  0  0  0  0  0  0  # atno 17370 bound_to 10713
  157.7470  131.0407  150.4610 LP  0  0  0  0  0  0  0  0  0  0  0  0  # atno 17371 bound_to 10713
  141.2165  133.6786  156.7020 LP  0  0  0  0  0  0  0  0  0  0  0  0  # atno 17394 bound_to 11000
  140.2876  134.8267  157.3988 LP  0  0  0  0  0  0  0  0  0  0  0  0  # atno 17395 bound_to 11000

$$$$
