AV-unprocessed.smi:3000|AV-procd|sdf|11430|dock2
  -GOLD-   2272016353D 1   1.00000     0.00000
 Structure written by MMmdl.
 44 45  0  0  0  0  0  0  0  0  1 V2000
  144.2672  132.4454  149.4847 C   0  0  0  0  0  0  0  0  0  0  0  0
  145.1291  132.6520  150.6288 N   0  0  0  0  0  0  0  0  0  0  0  0
  146.0410  133.6664  150.8419 C   0  0  0  0  0  0  0  0  0  0  0  0
  146.5947  133.4132  152.0651 C   0  0  0  0  0  0  0  0  0  0  0  0
  147.5896  134.1376  152.7696 N   0  0  0  0  0  0  0  0  0  0  0  0
  148.0774  133.8735  153.9927 C   0  0  0  0  0  0  0  0  0  0  0  0
  147.7332  132.9232  154.6938 O   0  0  0  0  0  0  0  0  0  0  0  0
  148.9918  134.7899  154.3534 N   0  0  0  0  0  0  0  0  0  0  0  0
  149.7763  134.8738  155.5956 C   0  0  2  0  0  0  0  0  0  0  0  0
  150.7238  133.6535  155.5286 C   0  0  0  0  0  0  0  0  0  0  0  0
  148.8297  134.6392  156.8118 C   0  0  0  0  0  0  0  0  0  0  0  0
  149.4785  134.6802  158.0670 O   0  0  0  0  0  0  0  0  0  0  0  0
  150.5981  136.2123  155.6854 C   0  0  0  0  0  0  0  0  0  0  0  0
  151.1816  136.6981  154.3331 C   0  0  0  0  0  0  0  0  0  0  0  0
  151.8568  138.0727  154.4693 C   0  0  0  0  0  0  0  0  0  0  0  0
  152.9548  138.0518  155.5427 C   0  0  0  0  0  0  0  0  0  0  0  0
  152.4009  137.5636  156.8891 C   0  0  0  0  0  0  0  0  0  0  0  0
  151.7263  136.1895  156.7478 C   0  0  0  0  0  0  0  0  0  0  0  0
  145.9699  132.2286  152.5349 C   0  0  0  0  0  0  0  0  0  0  0  0
  145.0840  131.7748  151.6611 N   0  0  0  0  0  0  0  0  0  0  0  0
  144.5297  133.1429  148.6885 H   0  0  0  0  0  0  0  0  0  0  0  0
  143.2286  132.6095  149.7731 H   0  0  0  0  0  0  0  0  0  0  0  0
  144.3799  131.4261  149.1135 H   0  0  0  0  0  0  0  0  0  0  0  0
  146.2053  134.4523  150.1193 H   0  0  0  0  0  0  0  0  0  0  0  0
  147.9648  134.9451  152.2942 H   0  0  0  0  0  0  0  0  0  0  0  0
  149.1770  135.5212  153.6828 H   0  0  0  0  0  0  0  0  0  0  0  0
  151.3487  133.5670  156.4169 H   0  0  0  0  0  0  0  0  0  0  0  0
  151.3848  133.6903  154.6628 H   0  0  0  0  0  0  0  0  0  0  0  0
  150.1592  132.7228  155.4542 H   0  0  0  0  0  0  0  0  0  0  0  0
  148.0055  135.3540  156.8115 H   0  0  0  0  0  0  0  0  0  0  0  0
  148.3697  133.6529  156.7422 H   0  0  0  0  0  0  0  0  0  0  0  0
  149.2997  135.5149  158.4718 H   0  0  0  0  0  0  0  0  0  0  0  0
  149.9081  136.9941  156.0026 H   0  0  0  0  0  0  0  0  0  0  0  0
  151.9128  135.9829  153.9567 H   0  0  0  0  0  0  0  0  0  0  0  0
  150.4023  136.7698  153.5748 H   0  0  0  0  0  0  0  0  0  0  0  0
  152.2812  138.3740  153.5113 H   0  0  0  0  0  0  0  0  0  0  0  0
  151.1080  138.8236  154.7245 H   0  0  0  0  0  0  0  0  0  0  0  0
  153.7658  137.3965  155.2227 H   0  0  0  0  0  0  0  0  0  0  0  0
  153.3858  139.0471  155.6549 H   0  0  0  0  0  0  0  0  0  0  0  0
  153.2063  137.5081  157.6219 H   0  0  0  0  0  0  0  0  0  0  0  0
  151.6815  138.2871  157.2751 H   0  0  0  0  0  0  0  0  0  0  0  0
  151.3373  135.8882  157.7198 H   0  0  0  0  0  0  0  0  0  0  0  0
  152.4863  135.4562  156.4792 H   0  0  0  0  0  0  0  0  0  0  0  0
  146.1252  131.6942  153.4606 H   0  0  0  0  0  0  0  0  0  0  0  0
  1  2  1  0  0  0  0
  1 21  1  0  0  0  0
  1 22  1  0  0  0  0
  1 23  1  0  0  0  0
  2 20  1  0  0  0  0
  2  3  1  0  0  0  0
  3  4  2  0  0  0  0
  3 24  1  0  0  0  0
  4  5  1  0  0  0  0
  4 19  1  0  0  0  0
  5  6  1  0  0  0  0
  5 25  1  0  0  0  0
  6  7  2  0  0  0  0
  6  8  1  0  0  0  0
  8  9  1  0  0  0  0
  8 26  1  0  0  0  0
  9 10  1  0  0  0  0
  9 11  1  0  0  0  0
  9 13  1  0  0  0  0
 10 27  1  0  0  0  0
 10 28  1  0  0  0  0
 10 29  1  0  0  0  0
 11 12  1  0  0  0  0
 11 30  1  0  0  0  0
 11 31  1  0  0  0  0
 12 32  1  0  0  0  0
 13 18  1  0  0  0  0
 13 14  1  0  0  0  0
 13 33  1  0  0  0  0
 14 15  1  0  0  0  0
 14 34  1  0  0  0  0
 14 35  1  0  0  0  0
 15 16  1  0  0  0  0
 15 36  1  0  0  0  0
 15 37  1  0  0  0  0
 16 17  1  0  0  0  0
 16 38  1  0  0  0  0
 16 39  1  0  0  0  0
 17 18  1  0  0  0  0
 17 40  1  0  0  0  0
 17 41  1  0  0  0  0
 18 42  1  0  0  0  0
 18 43  1  0  0  0  0
 19 20  2  0  0  0  0
 19 44  1  0  0  0  0
M  END
> <s_m_source_file>
AV-unprocessed.smi

> <i_m_source_file_index>
3000

> <i_lp_mmshare_version>
43012

> <i_f3d_flags>
0

> <s_epik_input>
W0NIM11uMVtjSF1jKFtjSF1uMSlbTkhdQyg9TylbTkhdW0NAQF0oW0NIM10pKFtDSDJdW09IXSlbQ0hdMltDSDJdW0NIMl1bQ0gyXVtDSDJdW0NIMl0y

> <s_epik_cmdline>
J2VwaWtfcHl0aG9uJywgJy1waCcsICc3LjAnLCAnLXRuJywgJzgnLCAnLW1hJywgJzIwMCcsICctbWV0YWxfYmluZGluZycsICctaW1hZScsICc8aW5maWxlLm1hZT4nLCAnLW9tYWUnLCAnPG91dGZpbGUubWFlPic=

> <r_lp_tautomer_probability>
1

> <r_epik_Ionization_Penalty>
0.000189471

> <r_epik_Ionization_Penalty_Charging>
0

> <r_epik_Ionization_Penalty_Neutral>
0.000189471

> <r_epik_State_Penalty>
-0

> <r_epik_Charging_Adjusted_Penalty>
0

> <i_epik_Tot_Q>
0

> <i_epik_Tot_abs_Q>
0

> <r_epik_Metal_State_Penalty>
-0

> <b_epik_Metal_Only>
0

> <s_lp_Force_Field>
OPLS_2005

> <r_lp_Energy>
23.0127

> <b_lp_Chiralities_Consistent>
1

> <s_lp_Variant>
AV-unprocessed.smi:3000-2

> <Gold.Version>
5.8.1

> <Gold.Id.Protein>
6NUR|6NUR_protein|mol2

> <Gold.PLP.Fitness>
40.9597

> <Gold.PLP.PLP>
-30.2501

> <Gold.PLP.part.hbond>
-3.0000

> <Gold.PLP.part.metal>
0.0000

> <Gold.PLP.part.buried>
-3.9144

> <Gold.PLP.part.nonpolar>
-23.7048

> <Gold.PLP.part.repulsive>
0.1662

> <Gold.PLP.ligand.clash>
0.0000

> <Gold.PLP.ligand.torsion>
0.5769

> <Gold.PLP.Chemscore.Hbond>
2.9280

> <Gold.PLP.Chemscore.CHOScore>
0.9953

> <Gold.PLP.Chemscore.Metal>
0.0000

> <Gold.Chemscore.Hbonds>
donor molecule, donor type, donor heavy atom, donor atom, acceptor molecule, acceptor atom, score
      L1  H     5    25       P1  7948  1.00
      L1  H     8    26       P1  7948  0.98
      P1  H  6896  6908       L1    12  0.90
      L1  C     3    24       P1  7921  1.00

> <Gold.PLP.Chemscore.Internal.Correction>
0.0935

> <Gold.Rescore>
     Score         DG    S(hbond)    S(metal)    S(lipo)     H(rot)  DE(clash)    DE(int)     intcor
     13.52     -17.50       2.62        0.00      71.96       2.02       0.14       3.83       ----

> <Gold.Chemscore.Fitness>
13.5240

> <Gold.Chemscore.DG>
-17.4961

> <Gold.Chemscore.ZeroCoef>
-5.4800

> <Gold.Chemscore.Hbond>
2.6224

> <Gold.Chemscore.Metal>
0.0000

> <Gold.Chemscore.Lipo>
71.9623

> <Gold.Chemscore.Internal_Hbond>
0.0000

> <Gold.Chemscore.DEClash>
0.1394

> <Gold.Chemscore.DEInternal>
3.8326

> <Gold.Chemscore.Rot>
2.0165

> <Gold.Chemscore.Internal.Correction>
   9.000000E+99

> <Gold.Chemscore.Hbonds>
donor molecule, donor type, donor heavy atom, donor atom, acceptor molecule, acceptor atom, score
      L1  H     5    25       P1  7948  0.74
      L1  H     8    26       P1  7948  0.56
      P1  H  6896  6908       L1    12  0.17

> <Gold.Chemscore.Hbond.Weighted>
-8.7587

> <Gold.Chemscore.Metal.Weighted>
-0.0000

> <Gold.Chemscore.Lipo.Weighted>
-8.4196

> <Gold.Chemscore.Internal_Hbond.Weighted>
0.0000

> <Gold.Chemscore.DEClash.Weighted>
0.1394

> <Gold.Chemscore.DEInternal.Weighted>
3.8326

> <Gold.Chemscore.Rot.Weighted>
5.1622

> <Gold.Chemscore.Internal.Correction.Weighted>
   9.000000E+99

> <Gold.Protein.RotatedTorsions>
[ 6907 6896 6895 6894 ] final  135.16 input  -60.11 | X-H torsion
[ 7974 7965 7964 7962 ] final  179.18 input  175.53 | X-H torsion
[ 8008 7997 7996 7995 ] final   43.76 input   59.86 | X-H torsion
[ 10167 10162 10161 10158 ] final  -10.82 input  -65.29 | X-H torsion
[ 10718 10713 10712 10709 ] final -135.58 input   66.30 | X-H torsion
[ 10763 10752 10751 10750 ] final   49.74 input  -60.55 | X-H torsion
[ 11005 11000 10999 10996 ] final -147.21 input  -57.11 | X-H torsion

> <Gold.Protein.ActiveResidues>
 VAL166  LYS551  ARG553  GLY616  TRP617  ASP618  TYR619  PRO620  LYS621  CYS622 
 ASP623  PHE694  ASN695  SER759  ASP760  ASP761  ALA762  ILE779  LEU786  VAL792 
 PHE793  MET794  SER795  GLU796  ALA797  LYS798  CYS799  TRP800  GLU811  SER814 

> <Gold.Protein.RotatedAtoms>
  152.3035  133.5679  159.5633 H   0  0  0  0  0  0  0  0  0  0  0  0  # atno 6907 bound_to 6896
  150.7289  134.0257  159.3725 H   0  0  0  0  0  0  0  0  0  0  0  0  # atno 6908 bound_to 6896
  151.8155  135.0668  160.0469 H   0  0  0  0  0  0  0  0  0  0  0  0  # atno 6909 bound_to 6896
  144.7148  140.0509  143.6435 H   0  0  0  0  0  0  0  0  0  0  0  0  # atno 7974 bound_to 7965
  155.3081  140.3389  155.4245 H   0  0  0  0  0  0  0  0  0  0  0  0  # atno 8008 bound_to 7997
  156.1969  140.1718  156.8019 H   0  0  0  0  0  0  0  0  0  0  0  0  # atno 8009 bound_to 7997
  154.5509  140.0706  156.8650 H   0  0  0  0  0  0  0  0  0  0  0  0  # atno 8010 bound_to 7997
  140.7123  143.5706  150.9096 H   0  0  0  0  0  0  0  0  0  0  0  0  # atno 10167 bound_to 10162
  156.2677  130.7247  151.1203 H   0  0  0  0  0  0  0  0  0  0  0  0  # atno 10718 bound_to 10713
  152.9786  135.5902  154.4138 H   0  0  0  0  0  0  0  0  0  0  0  0  # atno 10763 bound_to 10752
  154.3770  135.2767  155.2235 H   0  0  0  0  0  0  0  0  0  0  0  0  # atno 10764 bound_to 10752
  154.4165  135.6069  153.6039 H   0  0  0  0  0  0  0  0  0  0  0  0  # atno 10765 bound_to 10752
  140.7740  134.3155  157.5066 H   0  0  0  0  0  0  0  0  0  0  0  0  # atno 11005 bound_to 11000
  145.9945  139.3041  143.0965 LP  0  0  0  0  0  0  0  0  0  0  0  0  # atno 17320 bound_to 7965
  145.8865  140.9330  143.0574 LP  0  0  0  0  0  0  0  0  0  0  0  0  # atno 17321 bound_to 7965
  139.9432  143.6358  152.3048 LP  0  0  0  0  0  0  0  0  0  0  0  0  # atno 17342 bound_to 10162
  139.6850  144.7652  151.1541 LP  0  0  0  0  0  0  0  0  0  0  0  0  # atno 17343 bound_to 10162
  157.7273  131.0640  150.5872 LP  0  0  0  0  0  0  0  0  0  0  0  0  # atno 17370 bound_to 10713
  156.5965  130.4343  149.5915 LP  0  0  0  0  0  0  0  0  0  0  0  0  # atno 17371 bound_to 10713
  139.8751  134.9278  156.3435 LP  0  0  0  0  0  0  0  0  0  0  0  0  # atno 17394 bound_to 11000
  140.9546  133.7428  156.0318 LP  0  0  0  0  0  0  0  0  0  0  0  0  # atno 17395 bound_to 11000

$$$$
