AV-unprocessed.smi:3057|AV-procd|sdf|11667|dock1
  -GOLD-   2272017 73D 1   1.00000     0.00000
 Structure written by MMmdl.
 41 43  0  0  0  0  0  0  0  0  2 V2000
  152.8041  144.4334  158.9615 C   0  0  0  0  0  0  0  0  0  0  0  0
  151.9691  143.2347  159.4580 C   0  0  1  0  0  0  0  0  0  0  0  0
  150.4645  143.4865  159.2691 C   0  0  0  0  0  0  0  0  0  0  0  0
  150.1611  142.9013  157.8811 C   0  0  0  0  0  0  0  0  0  0  0  0
  151.2768  141.8820  157.7026 C   0  0  0  0  0  0  0  0  0  0  0  0
  151.2529  141.0000  156.8452 O   0  0  0  0  0  0  0  0  0  0  0  0
  152.2174  142.0591  158.6444 N   0  0  0  0  0  0  0  0  0  0  0  0
  153.2750  141.1450  159.1026 C   0  0  2  0  0  0  0  0  0  0  0  0
  152.7970  139.6894  159.2578 C   0  0  0  0  0  0  0  0  0  0  0  0
  151.6530  139.3719  158.9289 O   0  0  0  0  0  0  0  0  0  0  0  0
  153.6812  138.8181  159.7673 N   0  0  0  0  0  0  0  0  0  0  0  0
  153.4288  137.3951  159.9582 C   0  0  0  0  0  0  0  0  0  0  0  0
  154.6796  136.6678  160.4812 C   0  0  0  0  0  0  0  0  0  0  0  0
  154.5165  136.2017  161.9143 C   0  0  0  0  0  0  0  0  0  0  0  0
  154.1178  137.0746  162.9499 C   0  0  0  0  0  0  0  0  0  0  0  0
  153.9821  136.5710  164.2606 C   0  0  0  0  0  0  0  0  0  0  0  0
  154.2473  135.2080  164.5077 C   0  0  0  0  0  0  0  0  0  0  0  0
  154.6413  134.3811  163.4359 C   0  0  0  0  0  0  0  0  0  0  0  0
  154.7592  134.9006  162.1942 N   0  3  0  0  0  0  0  0  0  0  0  0
  153.8146  141.7238  160.4292 C   0  0  0  0  0  0  0  0  0  0  0  0
  152.4683  142.7269  161.1159 S   0  0  0  0  0  0  0  0  0  0  0  0
  152.5433  144.7074  157.9386 H   0  0  0  0  0  0  0  0  0  0  0  0
  153.8729  144.2202  158.9772 H   0  0  0  0  0  0  0  0  0  0  0  0
  152.6360  145.3098  159.5878 H   0  0  0  0  0  0  0  0  0  0  0  0
  149.8878  142.9505  160.0247 H   0  0  0  0  0  0  0  0  0  0  0  0
  150.2001  144.5419  159.3437 H   0  0  0  0  0  0  0  0  0  0  0  0
  149.1742  142.4403  157.8321 H   0  0  0  0  0  0  0  0  0  0  0  0
  150.2370  143.6596  157.1013 H   0  0  0  0  0  0  0  0  0  0  0  0
  154.0743  141.1666  158.3599 H   0  0  0  0  0  0  0  0  0  0  0  0
  154.5972  139.1606  160.0201 H   0  0  0  0  0  0  0  0  0  0  0  0
  152.6102  137.2856  160.6700 H   0  0  0  0  0  0  0  0  0  0  0  0
  153.0880  136.9511  159.0213 H   0  0  0  0  0  0  0  0  0  0  0  0
  154.9038  135.8001  159.8589 H   0  0  0  0  0  0  0  0  0  0  0  0
  155.5481  137.3245  160.4136 H   0  0  0  0  0  0  0  0  0  0  0  0
  153.9179  138.1164  162.7450 H   0  0  0  0  0  0  0  0  0  0  0  0
  153.6778  137.2228  165.0663 H   0  0  0  0  0  0  0  0  0  0  0  0
  154.1497  134.8031  165.5046 H   0  0  0  0  0  0  0  0  0  0  0  0
  154.8641  133.3286  163.5329 H   0  0  0  0  0  0  0  0  0  0  0  0
  154.1354  140.9610  161.1400 H   0  0  0  0  0  0  0  0  0  0  0  0
  154.6701  142.3720  160.2389 H   0  0  0  0  0  0  0  0  0  0  0  0
  155.0452  134.2841  161.4328 H   0  0  0  0  0  0  0  0  0  0  0  0
  1  2  1  0  0  0  0
  1 22  1  0  0  0  0
  1 23  1  0  0  0  0
  1 24  1  0  0  0  0
  2  7  1  0  0  0  0
  2 21  1  0  0  0  0
  2  3  1  0  0  0  0
  3  4  1  0  0  0  0
  3 25  1  0  0  0  0
  3 26  1  0  0  0  0
  4  5  1  0  0  0  0
  4 27  1  0  0  0  0
  4 28  1  0  0  0  0
  5  6  2  0  0  0  0
  5  7  1  0  0  0  0
  7  8  1  0  0  0  0
  8  9  1  0  0  0  0
  8 20  1  0  0  0  0
  8 29  1  0  0  0  0
  9 10  2  0  0  0  0
  9 11  1  0  0  0  0
 11 12  1  0  0  0  0
 11 30  1  0  0  0  0
 12 13  1  0  0  0  0
 12 31  1  0  0  0  0
 12 32  1  0  0  0  0
 13 14  1  0  0  0  0
 13 33  1  0  0  0  0
 13 34  1  0  0  0  0
 14 19  1  0  0  0  0
 14 15  2  0  0  0  0
 15 16  1  0  0  0  0
 15 35  1  0  0  0  0
 16 17  2  0  0  0  0
 16 36  1  0  0  0  0
 17 18  1  0  0  0  0
 17 37  1  0  0  0  0
 18 19  2  0  0  0  0
 18 38  1  0  0  0  0
 19 41  1  0  0  0  0
 20 21  1  0  0  0  0
 20 39  1  0  0  0  0
 20 40  1  0  0  0  0
M  CHG  1  19   1
M  END
> <s_m_source_file>
AV-unprocessed.smi

> <i_m_source_file_index>
3057

> <i_lp_mmshare_version>
43012

> <i_f3d_flags>
0

> <s_epik_input>
W0NIMl0xW0NIMl1DKD1PKU4oW0NAQF0xMltDSDNdKVtDQEhdKFtDSDJdUzIpQyg9TylbTkhdW0NIMl1bQ0gyXWMzW2NIXVtjSF1bY0hdW2NIXW4z

> <s_epik_cmdline>
J2VwaWtfcHl0aG9uJywgJy1waCcsICc3LjAnLCAnLXRuJywgJzgnLCAnLW1hJywgJzIwMCcsICctbWV0YWxfYmluZGluZycsICctaW1hZScsICc8aW5maWxlLm1hZT4nLCAnLW9tYWUnLCAnPG91dGZpbGUubWFlPic=

> <r_epik_Ionization_Penalty>
1.8888

> <r_epik_Ionization_Penalty_Charging>
1.8888

> <r_epik_Ionization_Penalty_Neutral>
1.66252e-07

> <r_epik_State_Penalty>
2.00916

> <r_epik_Charging_Adjusted_Penalty>
3.89796

> <i_epik_Tot_Q>
1

> <i_epik_Tot_abs_Q>
1

> <r_epik_Metal_State_Penalty>
2.03343

> <b_epik_Metal_Only>
0

> <s_lp_Force_Field>
OPLS_2005

> <r_lp_Energy>
30.9082

> <b_lp_Chiralities_Consistent>
1

> <s_lp_Variant>
AV-unprocessed.smi:3057-7

> <Gold.Version>
5.8.1

> <Gold.Id.Protein>
6NUR|6NUR_protein|mol2

> <Gold.PLP.Fitness>
41.5043

> <Gold.PLP.PLP>
-42.3990

> <Gold.PLP.part.hbond>
0.0000

> <Gold.PLP.part.metal>
0.0000

> <Gold.PLP.part.buried>
-3.4628

> <Gold.PLP.part.nonpolar>
-38.8880

> <Gold.PLP.part.repulsive>
0.1347

> <Gold.PLP.ligand.clash>
0.0000

> <Gold.PLP.ligand.torsion>
0.4600

> <Gold.PLP.Chemscore.Hbond>
0.0000

> <Gold.PLP.Chemscore.CHOScore>
0.0000

> <Gold.PLP.Chemscore.Metal>
0.0000

> <Gold.PLP.Chemscore.Internal.Correction>
0.0253

> <Gold.Rescore>
     Score         DG    S(hbond)    S(metal)    S(lipo)     H(rot)  DE(clash)    DE(int)     intcor
     12.35     -15.65       0.00        0.00     122.45       1.62       0.05       3.25       ----

> <Gold.Chemscore.Fitness>
12.3463

> <Gold.Chemscore.DG>
-15.6508

> <Gold.Chemscore.ZeroCoef>
-5.4800

> <Gold.Chemscore.Hbond>
0.0000

> <Gold.Chemscore.Metal>
0.0000

> <Gold.Chemscore.Lipo>
122.4493

> <Gold.Chemscore.Internal_Hbond>
0.0000

> <Gold.Chemscore.DEClash>
0.0536

> <Gold.Chemscore.DEInternal>
3.2508

> <Gold.Chemscore.Rot>
1.6234

> <Gold.Chemscore.Internal.Correction>
   9.000000E+99

> <Gold.Chemscore.Hbond.Weighted>
-0.0000

> <Gold.Chemscore.Metal.Weighted>
-0.0000

> <Gold.Chemscore.Lipo.Weighted>
-14.3266

> <Gold.Chemscore.Internal_Hbond.Weighted>
0.0000

> <Gold.Chemscore.DEClash.Weighted>
0.0536

> <Gold.Chemscore.DEInternal.Weighted>
3.2508

> <Gold.Chemscore.Rot.Weighted>
4.1558

> <Gold.Chemscore.Internal.Correction.Weighted>
   9.000000E+99

> <Gold.Protein.RotatedTorsions>
[ 6907 6896 6895 6894 ] final   39.11 input  -60.11 | X-H torsion
[ 7974 7965 7964 7962 ] final  150.29 input  175.53 | X-H torsion
[ 8008 7997 7996 7995 ] final  161.33 input   59.86 | X-H torsion
[ 10167 10162 10161 10158 ] final  158.16 input  -65.29 | X-H torsion
[ 10718 10713 10712 10709 ] final  100.74 input   66.30 | X-H torsion
[ 10763 10752 10751 10750 ] final  -68.98 input  -60.55 | X-H torsion
[ 11005 11000 10999 10996 ] final  -74.74 input  -57.11 | X-H torsion

> <Gold.Protein.ActiveResidues>
 VAL166  LYS551  ARG553  GLY616  TRP617  ASP618  TYR619  PRO620  LYS621  CYS622 
 ASP623  PHE694  ASN695  SER759  ASP760  ASP761  ALA762  ILE779  LEU786  VAL792 
 PHE793  MET794  SER795  GLU796  ALA797  LYS798  CYS799  TRP800  GLU811  SER814 

> <Gold.Protein.RotatedAtoms>
  152.1653  134.8879  160.0538 H   0  0  0  0  0  0  0  0  0  0  0  0  # atno 6907 bound_to 6896
  151.9859  133.3769  159.4133 H   0  0  0  0  0  0  0  0  0  0  0  0  # atno 6908 bound_to 6896
  150.6893  134.3912  159.5121 H   0  0  0  0  0  0  0  0  0  0  0  0  # atno 6909 bound_to 6896
  144.8375  139.6389  143.6031 H   0  0  0  0  0  0  0  0  0  0  0  0  # atno 7974 bound_to 7965
  156.2111  140.1780  156.7693 H   0  0  0  0  0  0  0  0  0  0  0  0  # atno 8008 bound_to 7997
  154.5723  140.0680  156.9013 H   0  0  0  0  0  0  0  0  0  0  0  0  # atno 8009 bound_to 7997
  155.2650  140.3338  155.4272 H   0  0  0  0  0  0  0  0  0  0  0  0  # atno 8010 bound_to 7997
  139.4825  144.4850  151.8390 H   0  0  0  0  0  0  0  0  0  0  0  0  # atno 10167 bound_to 10162
  157.6847  131.0707  150.5146 H   0  0  0  0  0  0  0  0  0  0  0  0  # atno 10718 bound_to 10713
  154.3968  135.6040  153.5874 H   0  0  0  0  0  0  0  0  0  0  0  0  # atno 10763 bound_to 10752
  152.9788  135.5897  154.4232 H   0  0  0  0  0  0  0  0  0  0  0  0  # atno 10764 bound_to 10752
  154.4024  135.2843  155.2066 H   0  0  0  0  0  0  0  0  0  0  0  0  # atno 10765 bound_to 10752
  141.1638  133.6922  156.7410 H   0  0  0  0  0  0  0  0  0  0  0  0  # atno 11005 bound_to 11000
  146.2672  139.6548  142.9321 LP  0  0  0  0  0  0  0  0  0  0  0  0  # atno 17320 bound_to 7965
  145.4763  141.0437  143.2670 LP  0  0  0  0  0  0  0  0  0  0  0  0  # atno 17321 bound_to 7965
  140.4329  144.2091  150.5888 LP  0  0  0  0  0  0  0  0  0  0  0  0  # atno 17342 bound_to 10162
  140.4761  143.2395  151.9021 LP  0  0  0  0  0  0  0  0  0  0  0  0  # atno 17343 bound_to 10162
  156.5462  130.4220  149.6130 LP  0  0  0  0  0  0  0  0  0  0  0  0  # atno 17370 bound_to 10713
  156.2942  130.7141  151.1997 LP  0  0  0  0  0  0  0  0  0  0  0  0  # atno 17371 bound_to 10713
  140.2674  134.8419  157.3816 LP  0  0  0  0  0  0  0  0  0  0  0  0  # atno 17394 bound_to 11000
  140.1553  134.4797  155.7932 LP  0  0  0  0  0  0  0  0  0  0  0  0  # atno 17395 bound_to 11000

$$$$
