AV-unprocessed.smi:639|AV-procd|sdf|3145|dock4
  -GOLD-   22720 0 73D 1   1.00000     0.00000
 Structure written by MMmdl.
 24 25  0  0  0  0  0  0  0  0  1 V2000
  152.1813  144.3121  160.1122 C   0  0  0  0  0  0  0  0  0  0  0  0
  152.5159  142.9417  159.7889 N   0  0  0  0  0  0  0  0  0  0  0  0
  151.8782  142.0843  158.9198 C   0  0  0  0  0  0  0  0  0  0  0  0
  152.5503  140.8925  158.9404 C   0  0  0  0  0  0  0  0  0  0  0  0
  152.2533  139.6267  158.1602 C   0  0  2  0  0  0  0  0  0  0  0  0
  152.1994  139.8752  156.6414 C   0  0  0  0  0  0  0  0  0  0  0  0
  151.0446  138.9568  158.6174 N   0  0  0  0  0  0  0  0  0  0  0  0
  151.2906  137.7651  159.1787 C   0  0  0  0  0  0  0  0  0  0  0  0
  150.4531  137.0078  159.6631 O   0  0  0  0  0  0  0  0  0  0  0  0
  152.6069  137.5434  159.1111 N   0  0  0  0  0  0  0  0  0  0  0  0
  153.2616  138.5440  158.5242 C   0  0  0  0  0  0  0  0  0  0  0  0
  154.4707  138.6038  158.3051 O   0  0  0  0  0  0  0  0  0  0  0  0
  153.6009  141.1346  159.8748 C   0  0  0  0  0  0  0  0  0  0  0  0
  153.5763  142.3566  160.3803 N   0  0  0  0  0  0  0  0  0  0  0  0
  151.5656  144.7415  159.3213 H   0  0  0  0  0  0  0  0  0  0  0  0
  153.0902  144.9066  160.2126 H   0  0  0  0  0  0  0  0  0  0  0  0
  151.6275  144.3423  161.0508 H   0  0  0  0  0  0  0  0  0  0  0  0
  151.0066  142.3891  158.3594 H   0  0  0  0  0  0  0  0  0  0  0  0
  153.1356  140.2941  156.2708 H   0  0  0  0  0  0  0  0  0  0  0  0
  151.4029  140.5758  156.3889 H   0  0  0  0  0  0  0  0  0  0  0  0
  152.0125  138.9531  156.0892 H   0  0  0  0  0  0  0  0  0  0  0  0
  150.1261  139.3675  158.5326 H   0  0  0  0  0  0  0  0  0  0  0  0
  153.0535  136.7062  159.4559 H   0  0  0  0  0  0  0  0  0  0  0  0
  154.3794  140.4598  160.1993 H   0  0  0  0  0  0  0  0  0  0  0  0
  1  2  1  0  0  0  0
  1 15  1  0  0  0  0
  1 16  1  0  0  0  0
  1 17  1  0  0  0  0
  2 14  1  0  0  0  0
  2  3  1  0  0  0  0
  3  4  2  0  0  0  0
  3 18  1  0  0  0  0
  4  5  1  0  0  0  0
  4 13  1  0  0  0  0
  5 11  1  0  0  0  0
  5  6  1  0  0  0  0
  5  7  1  0  0  0  0
  6 19  1  0  0  0  0
  6 20  1  0  0  0  0
  6 21  1  0  0  0  0
  7  8  1  0  0  0  0
  7 22  1  0  0  0  0
  8  9  2  0  0  0  0
  8 10  1  0  0  0  0
 10 11  1  0  0  0  0
 10 23  1  0  0  0  0
 11 12  2  0  0  0  0
 13 14  2  0  0  0  0
 13 24  1  0  0  0  0
M  END
> <s_m_source_file>
AV-unprocessed.smi

> <i_m_source_file_index>
639

> <i_lp_mmshare_version>
43012

> <i_f3d_flags>
0

> <s_epik_input>
W0NIM11uMVtjSF1jKFtjSF1uMSlbQ0BAXTIoW0NIM10pW05IXUMoPU8pW05IXUMyPU8=

> <s_epik_cmdline>
J2VwaWtfcHl0aG9uJywgJy1waCcsICc3LjAnLCAnLXRuJywgJzgnLCAnLW1hJywgJzIwMCcsICctbWV0YWxfYmluZGluZycsICctaW1hZScsICc8aW5maWxlLm1hZT4nLCAnLW9tYWUnLCAnPG91dGZpbGUubWFlPic=

> <r_lp_tautomer_probability>
1

> <r_epik_Ionization_Penalty>
0.0282779

> <r_epik_Ionization_Penalty_Charging>
0

> <r_epik_Ionization_Penalty_Neutral>
0.0282779

> <r_epik_State_Penalty>
0.022996

> <r_epik_Charging_Adjusted_Penalty>
0.022996

> <i_epik_Tot_Q>
0

> <i_epik_Tot_abs_Q>
0

> <r_epik_Metal_State_Penalty>
0.428533

> <b_epik_Metal_Only>
0

> <s_lp_Force_Field>
OPLS_2005

> <r_lp_Energy>
13.4697

> <b_lp_Chiralities_Consistent>
1

> <s_lp_Variant>
AV-unprocessed.smi:639-2

> <Gold.Version>
5.8.1

> <Gold.Id.Protein>
6NUR|6NUR_protein|mol2

> <Gold.PLP.Fitness>
30.4947

> <Gold.PLP.PLP>
-24.6039

> <Gold.PLP.part.hbond>
-2.0615

> <Gold.PLP.part.metal>
0.0000

> <Gold.PLP.part.buried>
-3.8149

> <Gold.PLP.part.nonpolar>
-18.9855

> <Gold.PLP.part.repulsive>
0.2346

> <Gold.PLP.ligand.clash>
0.0000

> <Gold.PLP.ligand.torsion>
0.1180

> <Gold.PLP.Chemscore.Hbond>
2.0000

> <Gold.PLP.Chemscore.CHOScore>
0.0000

> <Gold.PLP.Chemscore.Metal>
0.0000

> <Gold.Chemscore.Hbonds>
donor molecule, donor type, donor heavy atom, donor atom, acceptor molecule, acceptor atom, score
      P1  H  6896  6907       L1     9  0.98
      P1  H  7997  8010       L1    12  1.00

> <Gold.PLP.Chemscore.Internal.Correction>
0.1268

> <Gold.Rescore>
     Score         DG    S(hbond)    S(metal)    S(lipo)     H(rot)  DE(clash)    DE(int)     intcor
     15.18     -15.31       1.96        0.00      49.81       1.00       0.00       0.13       ----

> <Gold.Chemscore.Fitness>
15.1786

> <Gold.Chemscore.DG>
-15.3065

> <Gold.Chemscore.ZeroCoef>
-5.4800

> <Gold.Chemscore.Hbond>
1.9635

> <Gold.Chemscore.Metal>
0.0000

> <Gold.Chemscore.Lipo>
49.8149

> <Gold.Chemscore.Internal_Hbond>
0.0000

> <Gold.Chemscore.DEClash>
0.0000

> <Gold.Chemscore.DEInternal>
0.1279

> <Gold.Chemscore.Rot>
1.0000

> <Gold.Chemscore.Internal.Correction>
   9.000000E+99

> <Gold.Chemscore.Hbonds>
donor molecule, donor type, donor heavy atom, donor atom, acceptor molecule, acceptor atom, score
      P1  H  6896  6907       L1     9  0.75
      P1  H  7997  8010       L1    12  0.78

> <Gold.Chemscore.Hbond.Weighted>
-6.5581

> <Gold.Chemscore.Metal.Weighted>
-0.0000

> <Gold.Chemscore.Lipo.Weighted>
-5.8283

> <Gold.Chemscore.Internal_Hbond.Weighted>
0.0000

> <Gold.Chemscore.DEClash.Weighted>
0.0000

> <Gold.Chemscore.DEInternal.Weighted>
0.1279

> <Gold.Chemscore.Rot.Weighted>
2.5600

> <Gold.Chemscore.Internal.Correction.Weighted>
   9.000000E+99

> <Gold.Protein.RotatedTorsions>
[ 6907 6896 6895 6894 ] final  -24.85 input  -60.11 | X-H torsion
[ 7974 7965 7964 7962 ] final  150.53 input  175.53 | X-H torsion
[ 8008 7997 7996 7995 ] final   15.82 input   59.86 | X-H torsion
[ 10167 10162 10161 10158 ] final   88.27 input  -65.29 | X-H torsion
[ 10718 10713 10712 10709 ] final  -10.94 input   66.30 | X-H torsion
[ 10763 10752 10751 10750 ] final    7.50 input  -60.55 | X-H torsion
[ 11005 11000 10999 10996 ] final   74.20 input  -57.11 | X-H torsion

> <Gold.Protein.ActiveResidues>
 VAL166  LYS551  ARG553  GLY616  TRP617  ASP618  TYR619  PRO620  LYS621  CYS622 
 ASP623  PHE694  ASN695  SER759  ASP760  ASP761  ALA762  ILE779  LEU786  VAL792 
 PHE793  MET794  SER795  GLU796  ALA797  LYS798  CYS799  TRP800  GLU811  SER814 

> <Gold.Protein.RotatedAtoms>
  151.1836  135.0372  159.8802 H   0  0  0  0  0  0  0  0  0  0  0  0  # atno 6907 bound_to 6896
  152.5443  134.1035  159.8338 H   0  0  0  0  0  0  0  0  0  0  0  0  # atno 6908 bound_to 6896
  151.1155  133.5095  159.2636 H   0  0  0  0  0  0  0  0  0  0  0  0  # atno 6909 bound_to 6896
  144.8357  139.6421  143.6039 H   0  0  0  0  0  0  0  0  0  0  0  0  # atno 7974 bound_to 7965
  154.8682  140.2954  155.5497 H   0  0  0  0  0  0  0  0  0  0  0  0  # atno 8008 bound_to 7997
  156.3021  140.2465  156.3599 H   0  0  0  0  0  0  0  0  0  0  0  0  # atno 8009 bound_to 7997
  154.8846  140.0396  157.1791 H   0  0  0  0  0  0  0  0  0  0  0  0  # atno 8010 bound_to 7997
  139.8690  144.6503  150.8971 H   0  0  0  0  0  0  0  0  0  0  0  0  # atno 10167 bound_to 10162
  156.6663  130.4996  149.6014 H   0  0  0  0  0  0  0  0  0  0  0  0  # atno 10718 bound_to 10713
  153.2356  135.6897  153.7841 H   0  0  0  0  0  0  0  0  0  0  0  0  # atno 10763 bound_to 10752
  153.6989  135.3300  155.3221 H   0  0  0  0  0  0  0  0  0  0  0  0  # atno 10764 bound_to 10752
  154.8333  135.4563  154.1258 H   0  0  0  0  0  0  0  0  0  0  0  0  # atno 10765 bound_to 10752
  139.9402  134.7413  156.1119 H   0  0  0  0  0  0  0  0  0  0  0  0  # atno 11005 bound_to 11000
  146.2656  139.6512  142.9332 LP  0  0  0  0  0  0  0  0  0  0  0  0  # atno 17320 bound_to 7965
  145.4800  141.0438  143.2651 LP  0  0  0  0  0  0  0  0  0  0  0  0  # atno 17321 bound_to 7965
  140.7763  143.3680  151.1703 LP  0  0  0  0  0  0  0  0  0  0  0  0  # atno 17342 bound_to 10162
  139.7302  143.9085  152.3017 LP  0  0  0  0  0  0  0  0  0  0  0  0  # atno 17343 bound_to 10162
  156.1973  130.6597  151.1128 LP  0  0  0  0  0  0  0  0  0  0  0  0  # atno 17370 bound_to 10713
  157.7092  131.0742  150.6559 LP  0  0  0  0  0  0  0  0  0  0  0  0  # atno 17371 bound_to 10713
  141.1034  133.6669  156.2806 LP  0  0  0  0  0  0  0  0  0  0  0  0  # atno 17394 bound_to 11000
  140.5971  134.5592  157.5510 LP  0  0  0  0  0  0  0  0  0  0  0  0  # atno 17395 bound_to 11000

$$$$
