AV-unprocessed.smi:297|AV-procd|sdf|2260|dock5
  -GOLD-   2262022143D 1   1.00000     0.00000
 Structure written by MMmdl.
 29 30  0  0  0  0  0  0  0  0  1 V2000
  154.0656  135.7040  160.7921 N   0  0  0  0  0  0  0  0  0  0  0  0
  153.9363  136.8233  160.5278 C   0  0  0  0  0  0  0  0  0  0  0  0
  153.7736  138.2307  160.1954 C   0  0  0  0  0  0  0  0  0  0  0  0
  153.1786  138.5098  159.0145 N   0  0  0  0  0  0  0  0  0  0  0  0
  152.9930  139.8011  158.6454 C   0  0  0  0  0  0  0  0  0  0  0  0
  152.3661  140.0601  157.4072 N   0  0  0  0  0  0  0  0  0  0  0  0
  151.3044  141.0621  157.4312 C   0  0  0  0  0  0  0  0  0  0  0  0
  150.9366  141.4813  155.9991 C   0  0  0  0  0  0  0  0  0  0  0  0
  150.5887  140.3308  155.2373 O   0  0  0  0  0  0  0  0  0  0  0  0
  151.6725  139.4080  155.1227 C   0  0  2  0  0  0  0  0  0  0  0  0
  151.2453  138.2507  154.2079 C   0  0  0  0  0  0  0  0  0  0  0  0
  150.0988  138.3917  153.5364 N   0  0  0  0  0  0  0  0  0  0  0  0
  151.9452  137.2465  154.0894 O   0  0  0  0  0  0  0  0  0  0  0  0
  152.0757  138.9238  156.5338 C   0  0  0  0  0  0  0  0  0  0  0  0
  153.4179  140.8714  159.4663 C   0  0  0  0  0  0  0  0  0  0  0  0
  154.0381  140.5858  160.6967 C   0  0  0  0  0  0  0  0  0  0  0  0
  154.2216  139.2434  161.0770 C   0  0  0  0  0  0  0  0  0  0  0  0
  154.9840  138.8857  162.5890 Cl  0  0  0  0  0  0  0  0  0  0  0  0
  150.4323  140.6386  157.9313 H   0  0  0  0  0  0  0  0  0  0  0  0
  151.5942  141.9472  157.9956 H   0  0  0  0  0  0  0  0  0  0  0  0
  150.0880  142.1651  156.0151 H   0  0  0  0  0  0  0  0  0  0  0  0
  151.7637  142.0111  155.5234 H   0  0  0  0  0  0  0  0  0  0  0  0
  152.5190  139.9067  154.6473 H   0  0  0  0  0  0  0  0  0  0  0  0
  149.7861  137.6564  152.9188 H   0  0  0  0  0  0  0  0  0  0  0  0
  149.5537  139.2349  153.6433 H   0  0  0  0  0  0  0  0  0  0  0  0
  152.9558  138.2831  156.4604 H   0  0  0  0  0  0  0  0  0  0  0  0
  151.2740  138.3287  156.9747 H   0  0  0  0  0  0  0  0  0  0  0  0
  153.2902  141.8998  159.1634 H   0  0  0  0  0  0  0  0  0  0  0  0
  154.3712  141.3883  161.3380 H   0  0  0  0  0  0  0  0  0  0  0  0
  1  2  3  0  0  0  0
  2  3  1  0  0  0  0
  3 17  1  0  0  0  0
  3  4  2  0  0  0  0
  4  5  1  0  0  0  0
  5  6  1  0  0  0  0
  5 15  2  0  0  0  0
  6 14  1  0  0  0  0
  6  7  1  0  0  0  0
  7  8  1  0  0  0  0
  7 19  1  0  0  0  0
  7 20  1  0  0  0  0
  8  9  1  0  0  0  0
  8 21  1  0  0  0  0
  8 22  1  0  0  0  0
  9 10  1  0  0  0  0
 10 11  1  0  0  0  0
 10 14  1  0  0  0  0
 10 23  1  0  0  0  0
 11 12  1  0  0  0  0
 11 13  2  0  0  0  0
 12 24  1  0  0  0  0
 12 25  1  0  0  0  0
 14 26  1  0  0  0  0
 14 27  1  0  0  0  0
 15 16  1  0  0  0  0
 15 28  1  0  0  0  0
 16 17  2  0  0  0  0
 16 29  1  0  0  0  0
 17 18  1  0  0  0  0
M  END
> <s_m_source_file>
AV-unprocessed.smi

> <i_m_source_file_index>
297

> <i_lp_mmshare_version>
43012

> <i_f3d_flags>
0

> <s_epik_input>
TiNDYzFuYyhbY0hdW2NIXWMxQ2wpTjJbQ0gyXVtDSDJdT1tDQEhdKFtDSDJdMilDKD1PKVtOSDJd

> <s_epik_cmdline>
J2VwaWtfcHl0aG9uJywgJy1waCcsICc3LjAnLCAnLXRuJywgJzgnLCAnLW1hJywgJzIwMCcsICctbWV0YWxfYmluZGluZycsICctaW1hZScsICc8aW5maWxlLm1hZT4nLCAnLW9tYWUnLCAnPG91dGZpbGUubWFlPic=

> <r_lp_tautomer_probability>
1

> <r_epik_Ionization_Penalty>
8.82403e-08

> <r_epik_Ionization_Penalty_Charging>
0

> <r_epik_Ionization_Penalty_Neutral>
8.82403e-08

> <r_epik_State_Penalty>
-0

> <r_epik_Charging_Adjusted_Penalty>
0

> <i_epik_Tot_Q>
0

> <i_epik_Tot_abs_Q>
0

> <r_epik_Metal_State_Penalty>
-0

> <b_epik_Metal_Only>
0

> <s_lp_Force_Field>
OPLS_2005

> <r_lp_Energy>
18.7144

> <b_lp_Chiralities_Consistent>
1

> <s_lp_Variant>
AV-unprocessed.smi:297-2

> <Gold.Version>
5.8.1

> <Gold.Id.Protein>
6NUR|6NUR_protein|mol2

> <Gold.PLP.Fitness>
39.4299

> <Gold.PLP.PLP>
-30.6992

> <Gold.PLP.part.hbond>
-5.8355

> <Gold.PLP.part.metal>
0.0000

> <Gold.PLP.part.buried>
-3.6035

> <Gold.PLP.part.nonpolar>
-21.6114

> <Gold.PLP.part.repulsive>
1.1792

> <Gold.PLP.ligand.clash>
0.0000

> <Gold.PLP.ligand.torsion>
0.3805

> <Gold.PLP.Chemscore.Hbond>
3.0465

> <Gold.PLP.Chemscore.CHOScore>
0.0000

> <Gold.PLP.Chemscore.Metal>
0.0000

> <Gold.Chemscore.Hbonds>
donor molecule, donor type, donor heavy atom, donor atom, acceptor molecule, acceptor atom, score
      L1  H    12    24       P1  7948  1.00
      P1  H  6896  6909       L1     1  0.89
      P1  H  7997  8009       L1     6  0.10
      P1  H 10752 10764       L1    13  1.00

> <Gold.PLP.Chemscore.Internal.Correction>
0.3522

> <Gold.Rescore>
     Score         DG    S(hbond)    S(metal)    S(lipo)     H(rot)  DE(clash)    DE(int)     intcor
     17.27     -17.98       2.65        0.00      64.16       1.50       0.52       0.19       ----

> <Gold.Chemscore.Fitness>
17.2715

> <Gold.Chemscore.DG>
-17.9808

> <Gold.Chemscore.ZeroCoef>
-5.4800

> <Gold.Chemscore.Hbond>
2.6454

> <Gold.Chemscore.Metal>
0.0000

> <Gold.Chemscore.Lipo>
64.1609

> <Gold.Chemscore.Internal_Hbond>
0.0000

> <Gold.Chemscore.DEClash>
0.5213

> <Gold.Chemscore.DEInternal>
0.1880

> <Gold.Chemscore.Rot>
1.5006

> <Gold.Chemscore.Internal.Correction>
   9.000000E+99

> <Gold.Chemscore.Hbonds>
donor molecule, donor type, donor heavy atom, donor atom, acceptor molecule, acceptor atom, score
      L1  H    12    24       P1  7948  0.45
      P1  H  6896  6909       L1     1  0.39
      P1  H 10752 10764       L1    13  0.95

> <Gold.Chemscore.Hbond.Weighted>
-8.8356

> <Gold.Chemscore.Metal.Weighted>
-0.0000

> <Gold.Chemscore.Lipo.Weighted>
-7.5068

> <Gold.Chemscore.Internal_Hbond.Weighted>
0.0000

> <Gold.Chemscore.DEClash.Weighted>
0.5213

> <Gold.Chemscore.DEInternal.Weighted>
0.1880

> <Gold.Chemscore.Rot.Weighted>
3.8416

> <Gold.Chemscore.Internal.Correction.Weighted>
   9.000000E+99

> <Gold.Protein.RotatedTorsions>
[ 6907 6896 6895 6894 ] final  168.37 input  -60.11 | X-H torsion
[ 7974 7965 7964 7962 ] final  -56.15 input  175.53 | X-H torsion
[ 8008 7997 7996 7995 ] final -171.55 input   59.86 | X-H torsion
[ 10167 10162 10161 10158 ] final -132.16 input  -65.29 | X-H torsion
[ 10718 10713 10712 10709 ] final -178.36 input   66.30 | X-H torsion
[ 10763 10752 10751 10750 ] final  -88.14 input  -60.55 | X-H torsion
[ 11005 11000 10999 10996 ] final  134.82 input  -57.11 | X-H torsion

> <Gold.Protein.ActiveResidues>
 VAL166  LYS551  ARG553  GLY616  TRP617  ASP618  TYR619  PRO620  LYS621  CYS622 
 ASP623  PHE694  ASN695  SER759  ASP760  ASP761  ALA762  ILE779  LEU786  VAL792 
 PHE793  MET794  SER795  GLU796  ALA797  LYS798  CYS799  TRP800  GLU811  SER814 

> <Gold.Protein.RotatedAtoms>
  151.8486  133.3436  159.3665 H   0  0  0  0  0  0  0  0  0  0  0  0  # atno 6907 bound_to 6896
  150.7213  134.5321  159.5715 H   0  0  0  0  0  0  0  0  0  0  0  0  # atno 6908 bound_to 6896
  152.2810  134.7829  160.0447 H   0  0  0  0  0  0  0  0  0  0  0  0  # atno 6909 bound_to 6896
  145.8660  140.8251  142.9912 H   0  0  0  0  0  0  0  0  0  0  0  0  # atno 7974 bound_to 7965
  155.9330  140.1094  157.1117 H   0  0  0  0  0  0  0  0  0  0  0  0  # atno 8008 bound_to 7997
  154.4074  140.1234  156.4892 H   0  0  0  0  0  0  0  0  0  0  0  0  # atno 8009 bound_to 7997
  155.7057  140.3471  155.4954 H   0  0  0  0  0  0  0  0  0  0  0  0  # atno 8010 bound_to 7997
  139.9114  143.6490  152.2574 H   0  0  0  0  0  0  0  0  0  0  0  0  # atno 10167 bound_to 10162
  156.8432  130.9693  151.3098 H   0  0  0  0  0  0  0  0  0  0  0  0  # atno 10718 bound_to 10713
  154.6413  135.5388  153.7793 H   0  0  0  0  0  0  0  0  0  0  0  0  # atno 10763 bound_to 10752
  153.0335  135.6460  154.1155 H   0  0  0  0  0  0  0  0  0  0  0  0  # atno 10764 bound_to 10752
  154.1079  135.2928  155.3217 H   0  0  0  0  0  0  0  0  0  0  0  0  # atno 10765 bound_to 10752
  139.9940  134.9504  156.9921 H   0  0  0  0  0  0  0  0  0  0  0  0  # atno 11005 bound_to 11000
  144.6726  140.1167  143.7452 LP  0  0  0  0  0  0  0  0  0  0  0  0  # atno 17320 bound_to 7965
  145.9192  139.2535  143.1391 LP  0  0  0  0  0  0  0  0  0  0  0  0  # atno 17321 bound_to 7965
  139.6939  144.7643  151.1390 LP  0  0  0  0  0  0  0  0  0  0  0  0  # atno 17342 bound_to 10162
  140.7684  143.5550  150.9162 LP  0  0  0  0  0  0  0  0  0  0  0  0  # atno 17343 bound_to 10162
  157.6344  130.8755  149.9333 LP  0  0  0  0  0  0  0  0  0  0  0  0  # atno 17370 bound_to 10713
  156.0869  130.3667  150.0470 LP  0  0  0  0  0  0  0  0  0  0  0  0  # atno 17371 bound_to 10713
  140.4854  134.1247  155.7223 LP  0  0  0  0  0  0  0  0  0  0  0  0  # atno 17394 bound_to 11000
  141.1589  133.8830  157.1902 LP  0  0  0  0  0  0  0  0  0  0  0  0  # atno 17395 bound_to 11000

$$$$
