AV-unprocessed.smi:1150|AV-procd|sdf|4894|dock7
  -GOLD-   22720 3473D 1   1.00000     0.00000
 Structure written by MMmdl.
 50 51  0  0  0  0  0  0  0  0  1 V2000
  148.8406  135.2606  156.0276 C   0  0  0  0  0  0  0  0  0  0  0  0
  148.0158  135.0852  157.3135 C   0  0  0  0  0  0  0  0  0  0  0  0
  148.7456  135.5258  158.6052 C   0  0  1  0  0  0  0  0  0  0  0  0
  149.0685  136.9491  158.4933 N   0  0  0  0  0  0  0  0  0  0  0  0
  150.2409  137.5251  158.8069 C   0  0  0  0  0  0  0  0  0  0  0  0
  151.1848  136.9236  159.3183 O   0  0  0  0  0  0  0  0  0  0  0  0
  150.3715  139.0108  158.4742 C   0  0  0  0  0  0  0  0  0  0  0  0
  151.0175  139.1633  157.1193 C   0  0  0  0  0  0  0  0  0  0  0  0
  150.5451  139.9383  156.0194 C   0  0  0  0  0  0  0  0  0  0  0  0
  149.3025  140.7784  155.9403 C   0  0  0  0  0  0  0  0  0  0  0  0
  151.3551  139.8801  154.9757 N   0  0  0  0  0  0  0  0  0  0  0  0
  152.3645  139.0777  155.3677 N   0  0  0  0  0  0  0  0  0  0  0  0
  153.4473  138.7983  154.4449 C   0  0  0  0  0  0  0  0  0  0  0  0
  152.1905  138.6246  156.6610 C   0  0  0  0  0  0  0  0  0  0  0  0
  153.1812  137.7254  157.3279 C   0  0  0  0  0  0  0  0  0  0  0  0
  147.9304  135.2583  159.9035 C   0  0  0  0  0  0  0  0  0  0  0  0
  148.4419  136.0990  161.1018 C   0  0  0  0  0  0  0  0  0  0  0  0
  147.6454  135.8333  162.3891 C   0  0  0  0  0  0  0  0  0  0  0  0
  147.6579  134.3438  162.7533 C   0  0  0  0  0  0  0  0  0  0  0  0
  147.1277  133.4983  161.5889 C   0  0  0  0  0  0  0  0  0  0  0  0
  147.9205  133.7606  160.2980 C   0  0  0  0  0  0  0  0  0  0  0  0
  148.3084  134.8498  155.1695 H   0  0  0  0  0  0  0  0  0  0  0  0
  149.7984  134.7452  156.1017 H   0  0  0  0  0  0  0  0  0  0  0  0
  149.0403  136.3106  155.8124 H   0  0  0  0  0  0  0  0  0  0  0  0
  147.0795  135.6357  157.2132 H   0  0  0  0  0  0  0  0  0  0  0  0
  147.7458  134.0324  157.3809 H   0  0  0  0  0  0  0  0  0  0  0  0
  149.6687  134.9468  158.6683 H   0  0  0  0  0  0  0  0  0  0  0  0
  148.3584  137.5375  158.0823 H   0  0  0  0  0  0  0  0  0  0  0  0
  149.3842  139.4720  158.5094 H   0  0  0  0  0  0  0  0  0  0  0  0
  150.9588  139.5018  159.2508 H   0  0  0  0  0  0  0  0  0  0  0  0
  149.4486  141.7335  156.4448 H   0  0  0  0  0  0  0  0  0  0  0  0
  148.4589  140.2783  156.4157 H   0  0  0  0  0  0  0  0  0  0  0  0
  149.0211  140.9864  154.9075 H   0  0  0  0  0  0  0  0  0  0  0  0
  154.4054  138.9184  154.9509 H   0  0  0  0  0  0  0  0  0  0  0  0
  153.4140  139.4812  153.5947 H   0  0  0  0  0  0  0  0  0  0  0  0
  153.3614  137.7743  154.0814 H   0  0  0  0  0  0  0  0  0  0  0  0
  152.8767  137.4816  158.3452 H   0  0  0  0  0  0  0  0  0  0  0  0
  154.1606  138.2008  157.3810 H   0  0  0  0  0  0  0  0  0  0  0  0
  153.2867  136.7903  156.7774 H   0  0  0  0  0  0  0  0  0  0  0  0
  146.8977  135.5559  159.7136 H   0  0  0  0  0  0  0  0  0  0  0  0
  149.4968  135.8823  161.2762 H   0  0  0  0  0  0  0  0  0  0  0  0
  148.3815  137.1648  160.8818 H   0  0  0  0  0  0  0  0  0  0  0  0
  148.0609  136.4186  163.2100 H   0  0  0  0  0  0  0  0  0  0  0  0
  146.6162  136.1702  162.2588 H   0  0  0  0  0  0  0  0  0  0  0  0
  148.6744  134.0343  163.0000 H   0  0  0  0  0  0  0  0  0  0  0  0
  147.0550  134.1719  163.6454 H   0  0  0  0  0  0  0  0  0  0  0  0
  147.1787  132.4399  161.8463 H   0  0  0  0  0  0  0  0  0  0  0  0
  146.0737  133.7249  161.4227 H   0  0  0  0  0  0  0  0  0  0  0  0
  147.4784  133.1554  159.5081 H   0  0  0  0  0  0  0  0  0  0  0  0
  148.9449  133.4068  160.4227 H   0  0  0  0  0  0  0  0  0  0  0  0
  1  2  1  0  0  0  0
  1 22  1  0  0  0  0
  1 23  1  0  0  0  0
  1 24  1  0  0  0  0
  2  3  1  0  0  0  0
  2 25  1  0  0  0  0
  2 26  1  0  0  0  0
  3  4  1  0  0  0  0
  3 16  1  0  0  0  0
  3 27  1  0  0  0  0
  4  5  1  0  0  0  0
  4 28  1  0  0  0  0
  5  6  2  0  0  0  0
  5  7  1  0  0  0  0
  7  8  1  0  0  0  0
  7 29  1  0  0  0  0
  7 30  1  0  0  0  0
  8 14  2  0  0  0  0
  8  9  1  0  0  0  0
  9 10  1  0  0  0  0
  9 11  2  0  0  0  0
 10 31  1  0  0  0  0
 10 32  1  0  0  0  0
 10 33  1  0  0  0  0
 11 12  1  0  0  0  0
 12 13  1  0  0  0  0
 12 14  1  0  0  0  0
 13 34  1  0  0  0  0
 13 35  1  0  0  0  0
 13 36  1  0  0  0  0
 14 15  1  0  0  0  0
 15 37  1  0  0  0  0
 15 38  1  0  0  0  0
 15 39  1  0  0  0  0
 16 21  1  0  0  0  0
 16 17  1  0  0  0  0
 16 40  1  0  0  0  0
 17 18  1  0  0  0  0
 17 41  1  0  0  0  0
 17 42  1  0  0  0  0
 18 19  1  0  0  0  0
 18 43  1  0  0  0  0
 18 44  1  0  0  0  0
 19 20  1  0  0  0  0
 19 45  1  0  0  0  0
 19 46  1  0  0  0  0
 20 21  1  0  0  0  0
 20 47  1  0  0  0  0
 20 48  1  0  0  0  0
 21 49  1  0  0  0  0
 21 50  1  0  0  0  0
M  END
> <s_m_source_file>
AV-unprocessed.smi

> <i_m_source_file_index>
1150

> <i_lp_mmshare_version>
43012

> <i_f3d_flags>
0

> <s_epik_input>
W0NIMl0xW0NIMl1bQ0gyXVtDSDJdW0NIMl1bQ0hdMVtDQEhdKFtDSDJdW0NIM10pW05IXUMoPU8pW0NIMl1jMmMoW0NIM10pbm4oW0NIM10pYzJbQ0gzXQ==

> <s_epik_cmdline>
J2VwaWtfcHl0aG9uJywgJy1waCcsICc3LjAnLCAnLXRuJywgJzgnLCAnLW1hJywgJzIwMCcsICctbWV0YWxfYmluZGluZycsICctaW1hZScsICc8aW5maWxlLm1hZT4nLCAnLW9tYWUnLCAnPG91dGZpbGUubWFlPic=

> <r_lp_tautomer_probability>
1

> <r_epik_Ionization_Penalty>
0.00328092

> <r_epik_Ionization_Penalty_Charging>
0

> <r_epik_Ionization_Penalty_Neutral>
0.00328092

> <r_epik_State_Penalty>
0.00231765

> <r_epik_Charging_Adjusted_Penalty>
0.00231765

> <i_epik_Tot_Q>
0

> <i_epik_Tot_abs_Q>
0

> <r_epik_Metal_State_Penalty>
-0

> <b_epik_Metal_Only>
0

> <s_lp_Force_Field>
OPLS_2005

> <r_lp_Energy>
7.94886

> <b_lp_Chiralities_Consistent>
1

> <s_lp_Variant>
AV-unprocessed.smi:1150-2

> <Gold.Version>
5.8.1

> <Gold.Id.Protein>
6NUR|6NUR_protein|mol2

> <Gold.PLP.Fitness>
39.3935

> <Gold.PLP.PLP>
-35.2623

> <Gold.PLP.part.hbond>
-2.0000

> <Gold.PLP.part.metal>
0.0000

> <Gold.PLP.part.buried>
-4.8644

> <Gold.PLP.part.nonpolar>
-27.6226

> <Gold.PLP.part.repulsive>
0.1891

> <Gold.PLP.ligand.clash>
0.0000

> <Gold.PLP.ligand.torsion>
0.9562

> <Gold.PLP.Chemscore.Hbond>
2.0000

> <Gold.PLP.Chemscore.CHOScore>
0.0000

> <Gold.PLP.Chemscore.Metal>
0.0000

> <Gold.Chemscore.Hbonds>
donor molecule, donor type, donor heavy atom, donor atom, acceptor molecule, acceptor atom, score
      P1  H  6896  6909       L1     6  1.00
      P1  H  7989  7998       L1    11  1.00

> <Gold.PLP.Chemscore.Internal.Correction>
0.0436

> <Gold.Rescore>
     Score         DG    S(hbond)    S(metal)    S(lipo)     H(rot)  DE(clash)    DE(int)     intcor
     16.76     -18.73       1.96        0.00      88.25       1.42       0.03       1.94       ----

> <Gold.Chemscore.Fitness>
16.7606

> <Gold.Chemscore.DG>
-18.7315

> <Gold.Chemscore.ZeroCoef>
-5.4800

> <Gold.Chemscore.Hbond>
1.9624

> <Gold.Chemscore.Metal>
0.0000

> <Gold.Chemscore.Lipo>
88.2539

> <Gold.Chemscore.Internal_Hbond>
0.0000

> <Gold.Chemscore.DEClash>
0.0338

> <Gold.Chemscore.DEInternal>
1.9372

> <Gold.Chemscore.Rot>
1.4174

> <Gold.Chemscore.Internal.Correction>
   9.000000E+99

> <Gold.Chemscore.Hbonds>
donor molecule, donor type, donor heavy atom, donor atom, acceptor molecule, acceptor atom, score
      P1  H  6896  6909       L1     6  0.96
      P1  H  7989  7998       L1    11  0.92

> <Gold.Chemscore.Hbond.Weighted>
-6.5544

> <Gold.Chemscore.Metal.Weighted>
-0.0000

> <Gold.Chemscore.Lipo.Weighted>
-10.3257

> <Gold.Chemscore.Internal_Hbond.Weighted>
0.0000

> <Gold.Chemscore.DEClash.Weighted>
0.0338

> <Gold.Chemscore.DEInternal.Weighted>
1.9372

> <Gold.Chemscore.Rot.Weighted>
3.6286

> <Gold.Chemscore.Internal.Correction.Weighted>
   9.000000E+99

> <Gold.Protein.RotatedTorsions>
[ 6907 6896 6895 6894 ] final   91.84 input  -60.11 | X-H torsion
[ 7974 7965 7964 7962 ] final   86.46 input  175.53 | X-H torsion
[ 8008 7997 7996 7995 ] final -144.21 input   59.86 | X-H torsion
[ 10167 10162 10161 10158 ] final  -51.59 input  -65.29 | X-H torsion
[ 10718 10713 10712 10709 ] final  -22.82 input   66.30 | X-H torsion
[ 10763 10752 10751 10750 ] final  102.98 input  -60.55 | X-H torsion
[ 11005 11000 10999 10996 ] final -143.97 input  -57.11 | X-H torsion

> <Gold.Protein.ActiveResidues>
 VAL166  LYS551  ARG553  GLY616  TRP617  ASP618  TYR619  PRO620  LYS621  CYS622 
 ASP623  PHE694  ASN695  SER759  ASP760  ASP761  ALA762  ILE779  LEU786  VAL792 
 PHE793  MET794  SER795  GLU796  ALA797  LYS798  CYS799  TRP800  GLU811  SER814 

> <Gold.Protein.RotatedAtoms>
  152.5451  134.1595  159.8551 H   0  0  0  0  0  0  0  0  0  0  0  0  # atno 6907 bound_to 6896
  151.1615  133.4835  159.2601 H   0  0  0  0  0  0  0  0  0  0  0  0  # atno 6908 bound_to 6896
  151.1368  135.0170  159.8663 H   0  0  0  0  0  0  0  0  0  0  0  0  # atno 6909 bound_to 6896
  145.5720  139.2315  143.2401 H   0  0  0  0  0  0  0  0  0  0  0  0  # atno 7974 bound_to 7965
  155.5232  140.0593  157.2903 H   0  0  0  0  0  0  0  0  0  0  0  0  # atno 8008 bound_to 7997
  154.4510  140.1949  156.0465 H   0  0  0  0  0  0  0  0  0  0  0  0  # atno 8009 bound_to 7997
  156.0704  140.3261  155.7573 H   0  0  0  0  0  0  0  0  0  0  0  0  # atno 8010 bound_to 7997
  140.6580  143.2614  151.4526 H   0  0  0  0  0  0  0  0  0  0  0  0  # atno 10167 bound_to 10162
  156.4994  130.4584  149.6709 H   0  0  0  0  0  0  0  0  0  0  0  0  # atno 10718 bound_to 10713
  153.3466  135.3992  155.1614 H   0  0  0  0  0  0  0  0  0  0  0  0  # atno 10763 bound_to 10752
  154.8654  135.3646  154.5276 H   0  0  0  0  0  0  0  0  0  0  0  0  # atno 10764 bound_to 10752
  153.5724  135.7078  153.5558 H   0  0  0  0  0  0  0  0  0  0  0  0  # atno 10765 bound_to 10752
  140.8071  134.2788  157.4956 H   0  0  0  0  0  0  0  0  0  0  0  0  # atno 11005 bound_to 11000
  146.1777  140.6546  142.9203 LP  0  0  0  0  0  0  0  0  0  0  0  0  # atno 17320 bound_to 7965
  144.7433  140.5002  143.6853 LP  0  0  0  0  0  0  0  0  0  0  0  0  # atno 17321 bound_to 7965
  139.5807  144.1715  152.1965 LP  0  0  0  0  0  0  0  0  0  0  0  0  # atno 17342 bound_to 10162
  140.1040  144.5515  150.6970 LP  0  0  0  0  0  0  0  0  0  0  0  0  # atno 17343 bound_to 10162
  156.3347  130.7350  151.2286 LP  0  0  0  0  0  0  0  0  0  0  0  0  # atno 17370 bound_to 10713
  157.7464  131.0420  150.4673 LP  0  0  0  0  0  0  0  0  0  0  0  0  # atno 17371 bound_to 10713
  139.8717  134.9462  156.3932 LP  0  0  0  0  0  0  0  0  0  0  0  0  # atno 17394 bound_to 11000
  140.9235  133.7628  155.9936 LP  0  0  0  0  0  0  0  0  0  0  0  0  # atno 17395 bound_to 11000

$$$$
