AV-unprocessed.smi:1679|AV-procd|sdf|6735|dock10
  -GOLD-   22720 7483D 1   1.00000     0.00000
 Structure written by MMmdl.
 44 45  0  0  0  0  0  0  0  0  2 V2000
  150.9244  142.0401  157.6721 C   0  0  0  0  0  0  0  0  0  0  0  0
  150.8559  141.3406  156.3068 C   0  0  2  0  0  0  0  0  0  0  0  0
  149.4107  141.2742  155.7734 C   0  0  0  0  0  0  0  0  0  0  0  0
  149.3510  140.6318  154.3795 C   0  0  0  0  0  0  0  0  0  0  0  0
  150.0064  139.2429  154.3757 C   0  0  0  0  0  0  0  0  0  0  0  0
  151.4482  139.3023  154.9103 C   0  0  0  0  0  0  0  0  0  0  0  0
  151.5143  139.9388  156.3110 C   0  0  2  0  0  0  0  0  0  0  0  0
  150.8250  139.0683  157.1988 O   0  0  0  0  0  0  0  0  0  0  0  0
  151.4992  138.7781  158.4133 C   0  0  0  0  0  0  0  0  0  0  0  0
  151.0110  137.4210  158.9442 C   0  0  0  0  0  0  0  0  0  0  0  0
  149.5680  137.4197  159.1678 N   0  0  0  0  0  0  0  0  0  0  0  0
  148.7726  136.3431  159.0650 C   0  0  0  0  0  0  0  0  0  0  0  0
  149.1985  135.2140  158.8200 O   0  0  0  0  0  0  0  0  0  0  0  0
  147.2733  136.5764  159.2944 C   0  0  0  0  0  0  0  0  0  0  0  0
  146.7368  135.7294  160.3723 N   0  0  0  0  0  0  0  0  0  0  0  0
  145.6908  134.8514  160.0380 C   0  0  0  0  0  0  0  0  0  0  0  0
  145.1499  134.0107  160.9395 C   0  0  0  0  0  0  0  0  0  0  0  0
  145.6767  134.0253  162.2981 C   0  0  0  0  0  0  0  0  0  0  0  0
  145.2044  133.2547  163.1316 O   0  0  0  0  0  0  0  0  0  0  0  0
  146.6815  134.9055  162.5790 N   0  5  0  0  0  0  0  0  0  0  0  0
  147.2196  135.7575  161.6517 C   0  0  0  0  0  0  0  0  0  0  0  0
  148.1220  136.5470  161.9306 O   0  0  0  0  0  0  0  0  0  0  0  0
  150.3462  141.5028  158.4234 H   0  0  0  0  0  0  0  0  0  0  0  0
  150.5244  143.0525  157.6128 H   0  0  0  0  0  0  0  0  0  0  0  0
  151.9525  142.1117  158.0269 H   0  0  0  0  0  0  0  0  0  0  0  0
  151.4266  141.9601  155.6136 H   0  0  0  0  0  0  0  0  0  0  0  0
  148.7852  140.7061  156.4624 H   0  0  0  0  0  0  0  0  0  0  0  0
  148.9826  142.2758  155.7281 H   0  0  0  0  0  0  0  0  0  0  0  0
  148.3137  140.5542  154.0525 H   0  0  0  0  0  0  0  0  0  0  0  0
  149.8556  141.2758  153.6585 H   0  0  0  0  0  0  0  0  0  0  0  0
  149.4150  138.5606  154.9880 H   0  0  0  0  0  0  0  0  0  0  0  0
  150.0010  138.8327  153.3657 H   0  0  0  0  0  0  0  0  0  0  0  0
  151.8749  138.2992  154.9367 H   0  0  0  0  0  0  0  0  0  0  0  0
  152.0646  139.8795  154.2203 H   0  0  0  0  0  0  0  0  0  0  0  0
  152.5649  140.0258  156.5952 H   0  0  0  0  0  0  0  0  0  0  0  0
  152.5727  138.7409  158.2244 H   0  0  0  0  0  0  0  0  0  0  0  0
  151.3290  139.5557  159.1584 H   0  0  0  0  0  0  0  0  0  0  0  0
  151.3003  136.6157  158.2666 H   0  0  0  0  0  0  0  0  0  0  0  0
  151.4940  137.2099  159.8985 H   0  0  0  0  0  0  0  0  0  0  0  0
  149.1380  138.3067  159.3851 H   0  0  0  0  0  0  0  0  0  0  0  0
  147.1147  137.6334  159.5134 H   0  0  0  0  0  0  0  0  0  0  0  0
  146.7241  136.3939  158.3691 H   0  0  0  0  0  0  0  0  0  0  0  0
  145.3634  134.8982  159.0100 H   0  0  0  0  0  0  0  0  0  0  0  0
  144.3510  133.3390  160.6627 H   0  0  0  0  0  0  0  0  0  0  0  0
  1  2  1  0  0  0  0
  1 23  1  0  0  0  0
  1 24  1  0  0  0  0
  1 25  1  0  0  0  0
  2  7  1  0  0  0  0
  2  3  1  0  0  0  0
  2 26  1  0  0  0  0
  3  4  1  0  0  0  0
  3 27  1  0  0  0  0
  3 28  1  0  0  0  0
  4  5  1  0  0  0  0
  4 29  1  0  0  0  0
  4 30  1  0  0  0  0
  5  6  1  0  0  0  0
  5 31  1  0  0  0  0
  5 32  1  0  0  0  0
  6  7  1  0  0  0  0
  6 33  1  0  0  0  0
  6 34  1  0  0  0  0
  7  8  1  0  0  0  0
  7 35  1  0  0  0  0
  8  9  1  0  0  0  0
  9 10  1  0  0  0  0
  9 36  1  0  0  0  0
  9 37  1  0  0  0  0
 10 11  1  0  0  0  0
 10 38  1  0  0  0  0
 10 39  1  0  0  0  0
 11 12  1  0  0  0  0
 11 40  1  0  0  0  0
 12 13  2  0  0  0  0
 12 14  1  0  0  0  0
 14 15  1  0  0  0  0
 14 41  1  0  0  0  0
 14 42  1  0  0  0  0
 15 21  1  0  0  0  0
 15 16  1  0  0  0  0
 16 17  2  0  0  0  0
 16 43  1  0  0  0  0
 17 18  1  0  0  0  0
 17 44  1  0  0  0  0
 18 19  2  0  0  0  0
 18 20  1  0  0  0  0
 20 21  1  0  0  0  0
 21 22  2  0  0  0  0
M  CHG  1  20  -1
M  END
> <s_m_source_file>
AV-unprocessed.smi

> <i_m_source_file_index>
1679

> <i_lp_mmshare_version>
43012

> <i_f3d_flags>
0

> <s_epik_input>
W0NIM11bQ0BASF0xW0NIMl1bQ0gyXVtDSDJdW0NIMl1bQ0BIXTFPW0NIMl1bQ0gyXVtOSF1DKD1PKVtDSDJdbjJbY0hdW2NIXWMoPU8pW25IXWMyPU8=

> <s_epik_cmdline>
J2VwaWtfcHl0aG9uJywgJy1waCcsICc3LjAnLCAnLXRuJywgJzgnLCAnLW1hJywgJzIwMCcsICctbWV0YWxfYmluZGluZycsICctaW1hZScsICc8aW5maWxlLm1hZT4nLCAnLW9tYWUnLCAnPG91dGZpbGUubWFlPic=

> <r_lp_tautomer_probability>
0.999537

> <r_epik_Ionization_Penalty>
3.07454

> <r_epik_Ionization_Penalty_Charging>
2.80088e-08

> <r_epik_Ionization_Penalty_Neutral>
3.07454

> <r_epik_State_Penalty>
3.07357

> <r_epik_Charging_Adjusted_Penalty>
3.07357

> <i_epik_Tot_Q>
-1

> <i_epik_Tot_abs_Q>
1

> <r_epik_Metal_State_Penalty>
0.45948

> <b_epik_Metal_Only>
1

> <s_lp_Force_Field>
OPLS_2005

> <r_lp_Energy>
19.9019

> <b_lp_Chiralities_Consistent>
1

> <s_lp_Variant>
AV-unprocessed.smi:1679-7

> <Gold.Version>
5.8.1

> <Gold.Id.Protein>
6NUR|6NUR_protein|mol2

> <Gold.PLP.Fitness>
40.1026

> <Gold.PLP.PLP>
-36.0479

> <Gold.PLP.part.hbond>
-3.0000

> <Gold.PLP.part.metal>
0.0000

> <Gold.PLP.part.buried>
-4.7898

> <Gold.PLP.part.nonpolar>
-29.0862

> <Gold.PLP.part.repulsive>
0.3279

> <Gold.PLP.ligand.clash>
0.0000

> <Gold.PLP.ligand.torsion>
1.0106

> <Gold.PLP.Chemscore.Hbond>
2.0000

> <Gold.PLP.Chemscore.CHOScore>
0.0000

> <Gold.PLP.Chemscore.Metal>
0.0000

> <Gold.Chemscore.Hbonds>
donor molecule, donor type, donor heavy atom, donor atom, acceptor molecule, acceptor atom, score
      P1  H  6896  6907       L1    13  1.00
      P1  H  6931  6943       L1    22  1.00

> <Gold.PLP.Chemscore.Internal.Correction>
0.0760

> <Gold.Rescore>
     Score         DG    S(hbond)    S(metal)    S(lipo)     H(rot)  DE(clash)    DE(int)     intcor
     14.23     -15.53       2.49        0.00      68.50       2.45       0.13       1.17       ----

> <Gold.Chemscore.Fitness>
14.2288

> <Gold.Chemscore.DG>
-15.5292

> <Gold.Chemscore.ZeroCoef>
-5.4800

> <Gold.Chemscore.Hbond>
2.4863

> <Gold.Chemscore.Metal>
0.0000

> <Gold.Chemscore.Lipo>
68.4980

> <Gold.Chemscore.Internal_Hbond>
0.0000

> <Gold.Chemscore.DEClash>
0.1300

> <Gold.Chemscore.DEInternal>
1.1705

> <Gold.Chemscore.Rot>
2.4490

> <Gold.Chemscore.Internal.Correction>
   9.000000E+99

> <Gold.Chemscore.Hbonds>
donor molecule, donor type, donor heavy atom, donor atom, acceptor molecule, acceptor atom, score
      P1  H  6896  6907       L1    13  1.00
      P1  H  6931  6943       L1    22  1.00

> <Gold.Chemscore.Hbond.Weighted>
-8.3044

> <Gold.Chemscore.Metal.Weighted>
-0.0000

> <Gold.Chemscore.Lipo.Weighted>
-8.0143

> <Gold.Chemscore.Internal_Hbond.Weighted>
0.0000

> <Gold.Chemscore.DEClash.Weighted>
0.1300

> <Gold.Chemscore.DEInternal.Weighted>
1.1705

> <Gold.Chemscore.Rot.Weighted>
6.2694

> <Gold.Chemscore.Internal.Correction.Weighted>
   9.000000E+99

> <Gold.Protein.RotatedTorsions>
[ 6907 6896 6895 6894 ] final  -79.04 input  -60.11 | X-H torsion
[ 7974 7965 7964 7962 ] final  125.80 input  175.53 | X-H torsion
[ 8008 7997 7996 7995 ] final   -3.56 input   59.86 | X-H torsion
[ 10167 10162 10161 10158 ] final   59.31 input  -65.29 | X-H torsion
[ 10718 10713 10712 10709 ] final  -98.84 input   66.30 | X-H torsion
[ 10763 10752 10751 10750 ] final   33.82 input  -60.55 | X-H torsion
[ 11005 11000 10999 10996 ] final -113.61 input  -57.11 | X-H torsion

> <Gold.Protein.ActiveResidues>
 VAL166  LYS551  ARG553  GLY616  TRP617  ASP618  TYR619  PRO620  LYS621  CYS622 
 ASP623  PHE694  ASN695  SER759  ASP760  ASP761  ALA762  ILE779  LEU786  VAL792 
 PHE793  MET794  SER795  GLU796  ALA797  LYS798  CYS799  TRP800  GLU811  SER814 

> <Gold.Protein.RotatedAtoms>
  150.6958  134.4180  159.5191 H   0  0  0  0  0  0  0  0  0  0  0  0  # atno 6907 bound_to 6896
  152.1928  134.8654  160.0525 H   0  0  0  0  0  0  0  0  0  0  0  0  # atno 6908 bound_to 6896
  151.9603  133.3658  159.4070 H   0  0  0  0  0  0  0  0  0  0  0  0  # atno 6909 bound_to 6896
  145.0689  139.3746  143.4968 H   0  0  0  0  0  0  0  0  0  0  0  0  # atno 7974 bound_to 7965
  154.6236  140.2506  155.7519 H   0  0  0  0  0  0  0  0  0  0  0  0  # atno 8008 bound_to 7997
  156.2440  140.2921  156.0474 H   0  0  0  0  0  0  0  0  0  0  0  0  # atno 8009 bound_to 7997
  155.1858  140.0390  157.2881 H   0  0  0  0  0  0  0  0  0  0  0  0  # atno 8010 bound_to 7997
  140.1778  144.4212  150.6630 H   0  0  0  0  0  0  0  0  0  0  0  0  # atno 10167 bound_to 10162
  156.0118  130.5256  150.6582 H   0  0  0  0  0  0  0  0  0  0  0  0  # atno 10718 bound_to 10713
  153.0193  135.6377  154.1571 H   0  0  0  0  0  0  0  0  0  0  0  0  # atno 10763 bound_to 10752
  154.1307  135.2840  155.3187 H   0  0  0  0  0  0  0  0  0  0  0  0  # atno 10764 bound_to 10752
  154.6196  135.5529  153.7623 H   0  0  0  0  0  0  0  0  0  0  0  0  # atno 10765 bound_to 10752
  141.0604  133.9545  157.2678 H   0  0  0  0  0  0  0  0  0  0  0  0  # atno 11005 bound_to 11000
  146.3528  140.0424  142.8642 LP  0  0  0  0  0  0  0  0  0  0  0  0  # atno 17320 bound_to 7965
  145.1317  140.9521  143.4540 LP  0  0  0  0  0  0  0  0  0  0  0  0  # atno 17321 bound_to 7965
  140.6540  143.2232  151.6012 LP  0  0  0  0  0  0  0  0  0  0  0  0  # atno 17342 bound_to 10162
  139.5309  144.2918  152.1145 LP  0  0  0  0  0  0  0  0  0  0  0  0  # atno 17343 bound_to 10162
  157.4329  131.0851  151.1020 LP  0  0  0  0  0  0  0  0  0  0  0  0  # atno 17370 bound_to 10713
  157.1587  130.6216  149.5604 LP  0  0  0  0  0  0  0  0  0  0  0  0  # atno 17371 bound_to 10713
  139.9427  135.0189  156.8758 LP  0  0  0  0  0  0  0  0  0  0  0  0  # atno 17394 bound_to 11000
  140.5881  134.0288  155.7489 LP  0  0  0  0  0  0  0  0  0  0  0  0  # atno 17395 bound_to 11000

$$$$
