AV-unprocessed.smi:3143|AV-procd|sdf|11975|dock10
  -GOLD-   2272017373D 1   1.00000     0.00000
 Structure written by MMmdl.
 38 39  0  0  0  0  0  0  0  0  2 V2000
  151.9442  138.4427  158.6225 C   0  0  0  0  0  0  0  0  0  0  0  0
  151.7967  139.8891  158.1241 C   0  0  1  0  0  0  0  0  0  0  0  0
  152.9243  140.7041  158.6321 N   0  3  0  0  0  0  0  0  0  0  0  0
  152.7777  141.1692  160.0277 C   0  0  0  0  0  0  0  0  0  0  0  0
  153.3777  142.5703  160.2081 C   0  0  0  0  0  0  0  0  0  0  0  0
  152.5593  143.5860  159.5751 N   0  0  0  0  0  0  0  0  0  0  0  0
  152.0148  144.7237  160.1331 C   0  0  0  0  0  0  0  0  0  0  0  0
  151.3247  145.3682  159.1466 C   0  0  0  0  0  0  0  0  0  0  0  0
  151.5090  144.5375  158.0059 C   0  0  0  0  0  0  0  0  0  0  0  0
  152.2488  143.4715  158.2660 N   0  0  0  0  0  0  0  0  0  0  0  0
  151.7332  139.9105  156.5835 C   0  0  0  0  0  0  0  0  0  0  0  0
  152.6423  139.3761  155.9462 O   0  0  0  0  0  0  0  0  0  0  0  0
  150.6837  140.4999  155.9711 N   0  0  0  0  0  0  0  0  0  0  0  0
  150.4715  140.6110  154.5277 C   0  0  0  0  0  0  0  0  0  0  0  0
  149.2856  141.5602  154.3537 C   0  0  0  0  0  0  0  0  0  0  0  0
  148.5061  141.4232  155.6535 C   0  0  0  0  0  0  0  0  0  0  0  0
  149.5789  141.1216  156.6999 C   0  0  0  0  0  0  0  0  0  0  0  0
  151.1184  137.8161  158.2838 H   0  0  0  0  0  0  0  0  0  0  0  0
  151.9547  138.4044  159.7123 H   0  0  0  0  0  0  0  0  0  0  0  0
  152.8704  137.9886  158.2672 H   0  0  0  0  0  0  0  0  0  0  0  0
  150.8843  140.3046  158.5520 H   0  0  0  0  0  0  0  0  0  0  0  0
  153.7630  140.1440  158.5828 H   0  0  0  0  0  0  0  0  0  0  0  0
  151.7215  141.1816  160.2996 H   0  0  0  0  0  0  0  0  0  0  0  0
  153.2735  140.4636  160.6957 H   0  0  0  0  0  0  0  0  0  0  0  0
  153.4751  142.8120  161.2674 H   0  0  0  0  0  0  0  0  0  0  0  0
  154.3795  142.6159  159.7780 H   0  0  0  0  0  0  0  0  0  0  0  0
  152.1600  144.9782  161.1729 H   0  0  0  0  0  0  0  0  0  0  0  0
  150.7730  146.2932  159.2268 H   0  0  0  0  0  0  0  0  0  0  0  0
  151.1307  144.6765  157.0036 H   0  0  0  0  0  0  0  0  0  0  0  0
  151.3511  140.9864  154.0035 H   0  0  0  0  0  0  0  0  0  0  0  0
  150.2276  139.6260  154.1269 H   0  0  0  0  0  0  0  0  0  0  0  0
  149.6475  142.5844  154.2523 H   0  0  0  0  0  0  0  0  0  0  0  0
  148.6844  141.3301  153.4736 H   0  0  0  0  0  0  0  0  0  0  0  0
  147.9204  142.3114  155.8922 H   0  0  0  0  0  0  0  0  0  0  0  0
  147.8182  140.5796  155.5798 H   0  0  0  0  0  0  0  0  0  0  0  0
  149.1900  140.4753  157.4885 H   0  0  0  0  0  0  0  0  0  0  0  0
  149.9338  142.0445  157.1612 H   0  0  0  0  0  0  0  0  0  0  0  0
  153.0350  141.5056  158.0269 H   0  0  0  0  0  0  0  0  0  0  0  0
  1  2  1  0  0  0  0
  1 18  1  0  0  0  0
  1 19  1  0  0  0  0
  1 20  1  0  0  0  0
  2  3  1  0  0  0  0
  2 11  1  0  0  0  0
  2 21  1  0  0  0  0
  3  4  1  0  0  0  0
  3 22  1  0  0  0  0
  3 38  1  0  0  0  0
  4  5  1  0  0  0  0
  4 23  1  0  0  0  0
  4 24  1  0  0  0  0
  5  6  1  0  0  0  0
  5 25  1  0  0  0  0
  5 26  1  0  0  0  0
  6 10  1  0  0  0  0
  6  7  1  0  0  0  0
  7  8  2  0  0  0  0
  7 27  1  0  0  0  0
  8  9  1  0  0  0  0
  8 28  1  0  0  0  0
  9 10  2  0  0  0  0
  9 29  1  0  0  0  0
 11 12  2  0  0  0  0
 11 13  1  0  0  0  0
 13 17  1  0  0  0  0
 13 14  1  0  0  0  0
 14 15  1  0  0  0  0
 14 30  1  0  0  0  0
 14 31  1  0  0  0  0
 15 16  1  0  0  0  0
 15 32  1  0  0  0  0
 15 33  1  0  0  0  0
 16 17  1  0  0  0  0
 16 34  1  0  0  0  0
 16 35  1  0  0  0  0
 17 36  1  0  0  0  0
 17 37  1  0  0  0  0
M  CHG  1   3   1
M  END
> <s_m_source_file>
AV-unprocessed.smi

> <i_m_source_file_index>
3143

> <i_lp_mmshare_version>
43012

> <i_f3d_flags>
0

> <s_epik_input>
W0NIMl0xW0NIMl1bQ0gyXVtDSDJdTjFDKD1PKVtDQEhdKFtDSDNdKVtOSF1bQ0gyXVtDSDJdbjJbY0hdW2NIXVtjSF1uMg==

> <s_epik_cmdline>
J2VwaWtfcHl0aG9uJywgJy1waCcsICc3LjAnLCAnLXRuJywgJzgnLCAnLW1hJywgJzIwMCcsICctbWV0YWxfYmluZGluZycsICctaW1hZScsICc8aW5maWxlLm1hZT4nLCAnLW9tYWUnLCAnPG91dGZpbGUubWFlPic=

> <r_lp_tautomer_probability>
1

> <r_epik_Ionization_Penalty>
0.203171

> <r_epik_Ionization_Penalty_Charging>
0.203168

> <r_epik_Ionization_Penalty_Neutral>
2.46932e-06

> <r_epik_State_Penalty>
0.193072

> <r_epik_Charging_Adjusted_Penalty>
0.39624

> <i_epik_Tot_Q>
1

> <i_epik_Tot_abs_Q>
1

> <r_epik_Metal_State_Penalty>
0.193323

> <b_epik_Metal_Only>
0

> <s_lp_Force_Field>
OPLS_2005

> <r_lp_Energy>
30.1321

> <b_lp_Chiralities_Consistent>
1

> <s_lp_Variant>
AV-unprocessed.smi:3143-2

> <Gold.Version>
5.8.1

> <Gold.Id.Protein>
6NUR|6NUR_protein|mol2

> <Gold.PLP.Fitness>
43.0716

> <Gold.PLP.PLP>
-38.2085

> <Gold.PLP.part.hbond>
-1.0000

> <Gold.PLP.part.metal>
0.0000

> <Gold.PLP.part.buried>
-1.9057

> <Gold.PLP.part.nonpolar>
-35.7162

> <Gold.PLP.part.repulsive>
0.1222

> <Gold.PLP.ligand.clash>
0.0000

> <Gold.PLP.ligand.torsion>
0.5773

> <Gold.PLP.Chemscore.Hbond>
1.0000

> <Gold.PLP.Chemscore.CHOScore>
0.9928

> <Gold.PLP.Chemscore.Metal>
0.0000

> <Gold.Chemscore.Hbonds>
donor molecule, donor type, donor heavy atom, donor atom, acceptor molecule, acceptor atom, score
      P1  H  7997  8008       L1    12  1.00
      L1  C     9    29       P1  8028  0.88

> <Gold.PLP.Chemscore.Internal.Correction>
0.0395

> <Gold.Rescore>
     Score         DG    S(hbond)    S(metal)    S(lipo)     H(rot)  DE(clash)    DE(int)     intcor
     12.58     -14.26       0.99        0.00      87.02       1.84       0.20       1.48       ----

> <Gold.Chemscore.Fitness>
12.5773

> <Gold.Chemscore.DG>
-14.2612

> <Gold.Chemscore.ZeroCoef>
-5.4800

> <Gold.Chemscore.Hbond>
0.9916

> <Gold.Chemscore.Metal>
0.0000

> <Gold.Chemscore.Lipo>
87.0164

> <Gold.Chemscore.Internal_Hbond>
0.0000

> <Gold.Chemscore.DEClash>
0.2047

> <Gold.Chemscore.DEInternal>
1.4792

> <Gold.Chemscore.Rot>
1.8405

> <Gold.Chemscore.Internal.Correction>
   9.000000E+99

> <Gold.Chemscore.Hbonds>
donor molecule, donor type, donor heavy atom, donor atom, acceptor molecule, acceptor atom, score
      P1  H  7997  8008       L1    12  0.91

> <Gold.Chemscore.Hbond.Weighted>
-3.3120

> <Gold.Chemscore.Metal.Weighted>
-0.0000

> <Gold.Chemscore.Lipo.Weighted>
-10.1809

> <Gold.Chemscore.Internal_Hbond.Weighted>
0.0000

> <Gold.Chemscore.DEClash.Weighted>
0.2047

> <Gold.Chemscore.DEInternal.Weighted>
1.4792

> <Gold.Chemscore.Rot.Weighted>
4.7117

> <Gold.Chemscore.Internal.Correction.Weighted>
   9.000000E+99

> <Gold.Protein.RotatedTorsions>
[ 6907 6896 6895 6894 ] final   10.04 input  -60.11 | X-H torsion
[ 7974 7965 7964 7962 ] final  171.92 input  175.53 | X-H torsion
[ 8008 7997 7996 7995 ] final  -32.94 input   59.86 | X-H torsion
[ 10167 10162 10161 10158 ] final   48.56 input  -65.29 | X-H torsion
[ 10718 10713 10712 10709 ] final   71.04 input   66.30 | X-H torsion
[ 10763 10752 10751 10750 ] final  -84.15 input  -60.55 | X-H torsion
[ 11005 11000 10999 10996 ] final  -69.62 input  -57.11 | X-H torsion

> <Gold.Protein.ActiveResidues>
 VAL166  LYS551  ARG553  GLY616  TRP617  ASP618  TYR619  PRO620  LYS621  CYS622 
 ASP623  PHE694  ASN695  SER759  ASP760  ASP761  ALA762  ILE779  LEU786  VAL792 
 PHE793  MET794  SER795  GLU796  ALA797  LYS798  CYS799  TRP800  GLU811  SER814 

> <Gold.Protein.RotatedAtoms>
  151.7319  135.0873  160.0301 H   0  0  0  0  0  0  0  0  0  0  0  0  # atno 6907 bound_to 6896
  152.3536  133.6205  159.5971 H   0  0  0  0  0  0  0  0  0  0  0  0  # atno 6908 bound_to 6896
  150.7556  133.9452  159.3510 H   0  0  0  0  0  0  0  0  0  0  0  0  # atno 6909 bound_to 6896
  144.7282  139.9421  143.6429 H   0  0  0  0  0  0  0  0  0  0  0  0  # atno 7974 bound_to 7965
  154.4164  140.1724  156.1808 H   0  0  0  0  0  0  0  0  0  0  0  0  # atno 8008 bound_to 7997
  155.9683  140.3388  155.6529 H   0  0  0  0  0  0  0  0  0  0  0  0  # atno 8009 bound_to 7997
  155.6658  140.0706  157.2528 H   0  0  0  0  0  0  0  0  0  0  0  0  # atno 8010 bound_to 7997
  140.2920  144.3034  150.6238 H   0  0  0  0  0  0  0  0  0  0  0  0  # atno 10167 bound_to 10162
  157.6431  130.9508  150.0734 H   0  0  0  0  0  0  0  0  0  0  0  0  # atno 10718 bound_to 10713
  154.5962  135.5531  153.7327 H   0  0  0  0  0  0  0  0  0  0  0  0  # atno 10763 bound_to 10752
  153.0136  135.6355  154.1780 H   0  0  0  0  0  0  0  0  0  0  0  0  # atno 10764 bound_to 10752
  154.1720  135.2891  155.3058 H   0  0  0  0  0  0  0  0  0  0  0  0  # atno 10765 bound_to 10752
  141.1558  133.6769  156.6627 H   0  0  0  0  0  0  0  0  0  0  0  0  # atno 11005 bound_to 11000
  146.0776  139.3764  143.0484 LP  0  0  0  0  0  0  0  0  0  0  0  0  # atno 17320 bound_to 7965
  145.7884  140.9825  143.1062 LP  0  0  0  0  0  0  0  0  0  0  0  0  # atno 17321 bound_to 7965
  140.5724  143.2179  151.7576 LP  0  0  0  0  0  0  0  0  0  0  0  0  # atno 17342 bound_to 10162
  139.4935  144.4198  151.9990 LP  0  0  0  0  0  0  0  0  0  0  0  0  # atno 17343 bound_to 10162
  156.1732  130.3647  149.9137 LP  0  0  0  0  0  0  0  0  0  0  0  0  # atno 17370 bound_to 10713
  156.7107  130.8969  151.3609 LP  0  0  0  0  0  0  0  0  0  0  0  0  # atno 17371 bound_to 10713
  140.3235  134.7988  157.4271 LP  0  0  0  0  0  0  0  0  0  0  0  0  # atno 17394 bound_to 11000
  140.1077  134.5387  155.8294 LP  0  0  0  0  0  0  0  0  0  0  0  0  # atno 17395 bound_to 11000

$$$$
