AV-unprocessed.smi:800|AV-procd|sdf|3788|dock3
  -GOLD-   22720 1223D 1   1.00000     0.00000
 Structure written by MMmdl.
 35 36  0  0  0  0  0  0  0  0  2 V2000
  155.5290  137.8803  161.1373 C   0  0  0  0  0  0  0  0  0  0  0  0
  155.8104  138.5685  159.7926 C   0  0  0  0  0  0  0  0  0  0  0  0
  157.0994  139.4001  159.8461 C   0  0  0  0  0  0  0  0  0  0  0  0
  154.6922  139.4471  159.4515 N   0  5  0  0  0  0  0  0  0  0  0  0
  154.2405  140.4599  160.2447 C   0  0  0  0  0  0  0  0  0  0  0  0
  154.6193  140.8209  161.3646 O   0  0  0  0  0  0  0  0  0  0  0  0
  153.0634  141.1695  159.6383 C   0  0  0  0  0  0  0  0  0  0  0  0
  152.6693  140.7427  158.4158 N   0  0  0  0  0  0  0  0  0  0  0  0
  151.6279  141.3463  157.8318 C   0  0  0  0  0  0  0  0  0  0  0  0
  151.2486  140.8959  156.5605 N   0  0  0  0  0  0  0  0  0  0  0  0
  151.9092  139.7675  155.9003 C   0  0  0  0  0  0  0  0  0  0  0  0
  150.9105  138.9843  155.0312 C   0  0  0  0  0  0  0  0  0  0  0  0
  150.2822  139.8630  154.1059 O   0  0  0  0  0  0  0  0  0  0  0  0
  149.5438  140.8808  154.7711 C   0  0  0  0  0  0  0  0  0  0  0  0
  150.4913  141.7360  155.6289 C   0  0  0  0  0  0  0  0  0  0  0  0
  150.9232  142.3486  158.3714 N   0  0  0  0  0  0  0  0  0  0  0  0
  151.2853  142.7799  159.5976 C   0  0  0  0  0  0  0  0  0  0  0  0
  152.3656  142.2139  160.2999 C   0  0  0  0  0  0  0  0  0  0  0  0
  152.7490  142.7765  161.8919 Cl  0  0  0  0  0  0  0  0  0  0  0  0
  156.3522  137.2236  161.4191 H   0  0  0  0  0  0  0  0  0  0  0  0
  154.6262  137.2703  161.0884 H   0  0  0  0  0  0  0  0  0  0  0  0
  155.3958  138.6084  161.9385 H   0  0  0  0  0  0  0  0  0  0  0  0
  155.9566  137.7907  159.0416 H   0  0  0  0  0  0  0  0  0  0  0  0
  157.9570  138.7742  160.0935 H   0  0  0  0  0  0  0  0  0  0  0  0
  157.0365  140.1879  160.5976 H   0  0  0  0  0  0  0  0  0  0  0  0
  157.3047  139.8717  158.8843 H   0  0  0  0  0  0  0  0  0  0  0  0
  152.7216  140.1527  155.2832 H   0  0  0  0  0  0  0  0  0  0  0  0
  152.3553  139.0759  156.6142 H   0  0  0  0  0  0  0  0  0  0  0  0
  151.4288  138.2004  154.4792 H   0  0  0  0  0  0  0  0  0  0  0  0
  150.1585  138.4925  155.6505 H   0  0  0  0  0  0  0  0  0  0  0  0
  149.0493  141.5034  154.0254 H   0  0  0  0  0  0  0  0  0  0  0  0
  148.7586  140.4361  155.3850 H   0  0  0  0  0  0  0  0  0  0  0  0
  149.8990  142.4940  156.1407 H   0  0  0  0  0  0  0  0  0  0  0  0
  151.1967  142.2673  154.9894 H   0  0  0  0  0  0  0  0  0  0  0  0
  150.6973  143.5778  160.0264 H   0  0  0  0  0  0  0  0  0  0  0  0
  1  2  1  0  0  0  0
  1 20  1  0  0  0  0
  1 21  1  0  0  0  0
  1 22  1  0  0  0  0
  2  3  1  0  0  0  0
  2  4  1  0  0  0  0
  2 23  1  0  0  0  0
  3 24  1  0  0  0  0
  3 25  1  0  0  0  0
  3 26  1  0  0  0  0
  4  5  1  0  0  0  0
  5  6  2  0  0  0  0
  5  7  1  0  0  0  0
  7 18  1  0  0  0  0
  7  8  2  0  0  0  0
  8  9  1  0  0  0  0
  9 10  1  0  0  0  0
  9 16  2  0  0  0  0
 10 15  1  0  0  0  0
 10 11  1  0  0  0  0
 11 12  1  0  0  0  0
 11 27  1  0  0  0  0
 11 28  1  0  0  0  0
 12 13  1  0  0  0  0
 12 29  1  0  0  0  0
 12 30  1  0  0  0  0
 13 14  1  0  0  0  0
 14 15  1  0  0  0  0
 14 31  1  0  0  0  0
 14 32  1  0  0  0  0
 15 33  1  0  0  0  0
 15 34  1  0  0  0  0
 16 17  1  0  0  0  0
 17 18  2  0  0  0  0
 17 35  1  0  0  0  0
 18 19  1  0  0  0  0
M  CHG  1   4  -1
M  END
> <s_m_source_file>
AV-unprocessed.smi

> <i_m_source_file_index>
800

> <i_lp_mmshare_version>
43012

> <i_f3d_flags>
0

> <s_epik_input>
W0NIM11bQ0hdKFtDSDNdKVtOSF1DKD1PKWMxbmMobltjSF1jMUNsKU4yW0NIMl1bQ0gyXU9bQ0gyXVtDSDJdMg==

> <s_epik_cmdline>
J2VwaWtfcHl0aG9uJywgJy1waCcsICc3LjAnLCAnLXRuJywgJzgnLCAnLW1hJywgJzIwMCcsICctbWV0YWxfYmluZGluZycsICctaW1hZScsICc8aW5maWxlLm1hZT4nLCAnLW9tYWUnLCAnPG91dGZpbGUubWFlPic=

> <r_lp_tautomer_probability>
1

> <r_epik_Ionization_Penalty>
6.38192

> <r_epik_Ionization_Penalty_Charging>
6.38189

> <r_epik_Ionization_Penalty_Neutral>
2.33077e-05

> <r_epik_State_Penalty>
6.38188

> <r_epik_Charging_Adjusted_Penalty>
12.7638

> <i_epik_Tot_Q>
-1

> <i_epik_Tot_abs_Q>
1

> <r_epik_Metal_State_Penalty>
2.31349

> <b_epik_Metal_Only>
1

> <s_lp_Force_Field>
OPLS_2005

> <r_lp_Energy>
18.4653

> <b_lp_Chiralities_Consistent>
1

> <s_lp_Variant>
AV-unprocessed.smi:800-2

> <Gold.Version>
5.8.1

> <Gold.Id.Protein>
6NUR|6NUR_protein|mol2

> <Gold.PLP.Fitness>
45.4526

> <Gold.PLP.PLP>
-36.5510

> <Gold.PLP.part.hbond>
-3.7340

> <Gold.PLP.part.metal>
0.0000

> <Gold.PLP.part.buried>
-3.4092

> <Gold.PLP.part.nonpolar>
-29.5011

> <Gold.PLP.part.repulsive>
0.8887

> <Gold.PLP.ligand.clash>
0.0000

> <Gold.PLP.ligand.torsion>
0.1326

> <Gold.PLP.Chemscore.Hbond>
3.0000

> <Gold.PLP.Chemscore.CHOScore>
0.0000

> <Gold.PLP.Chemscore.Metal>
0.0000

> <Gold.Chemscore.Hbonds>
donor molecule, donor type, donor heavy atom, donor atom, acceptor molecule, acceptor atom, score
      P1  H  7989  7998       L1    13  0.95
      P1  H  7997  8009       L1     4  1.01

> <Gold.PLP.Chemscore.Internal.Correction>
0.1668

> <Gold.Rescore>
     Score         DG    S(hbond)    S(metal)    S(lipo)     H(rot)  DE(clash)    DE(int)     intcor
     12.54     -14.79       0.70        0.00      81.44       1.00       0.58       1.68       ----

> <Gold.Chemscore.Fitness>
12.5380

> <Gold.Chemscore.DG>
-14.7947

> <Gold.Chemscore.ZeroCoef>
-5.4800

> <Gold.Chemscore.Hbond>
0.7026

> <Gold.Chemscore.Metal>
0.0000

> <Gold.Chemscore.Lipo>
81.4372

> <Gold.Chemscore.Internal_Hbond>
0.0000

> <Gold.Chemscore.DEClash>
0.5787

> <Gold.Chemscore.DEInternal>
1.6780

> <Gold.Chemscore.Rot>
1.0000

> <Gold.Chemscore.Internal.Correction>
   9.000000E+99

> <Gold.Chemscore.Hbonds>
donor molecule, donor type, donor heavy atom, donor atom, acceptor molecule, acceptor atom, score
      P1  H  7989  7998       L1    13  0.09
      P1  H  7997  8009       L1     4  0.21

> <Gold.Chemscore.Hbond.Weighted>
-2.3465

> <Gold.Chemscore.Metal.Weighted>
-0.0000

> <Gold.Chemscore.Lipo.Weighted>
-9.5282

> <Gold.Chemscore.Internal_Hbond.Weighted>
0.0000

> <Gold.Chemscore.DEClash.Weighted>
0.5787

> <Gold.Chemscore.DEInternal.Weighted>
1.6780

> <Gold.Chemscore.Rot.Weighted>
2.5600

> <Gold.Chemscore.Internal.Correction.Weighted>
   9.000000E+99

> <Gold.Protein.RotatedTorsions>
[ 6907 6896 6895 6894 ] final   15.27 input  -60.11 | X-H torsion
[ 7974 7965 7964 7962 ] final  -32.53 input  175.53 | X-H torsion
[ 8008 7997 7996 7995 ] final  121.54 input   59.86 | X-H torsion
[ 10167 10162 10161 10158 ] final  -80.20 input  -65.29 | X-H torsion
[ 10718 10713 10712 10709 ] final  -31.47 input   66.30 | X-H torsion
[ 10763 10752 10751 10750 ] final -150.22 input  -60.55 | X-H torsion
[ 11005 11000 10999 10996 ] final -179.46 input  -57.11 | X-H torsion

> <Gold.Protein.ActiveResidues>
 VAL166  LYS551  ARG553  GLY616  TRP617  ASP618  TYR619  PRO620  LYS621  CYS622 
 ASP623  PHE694  ASN695  SER759  ASP760  ASP761  ALA762  ILE779  LEU786  VAL792 
 PHE793  MET794  SER795  GLU796  ALA797  LYS798  CYS799  TRP800  GLU811  SER814 

> <Gold.Protein.RotatedAtoms>
  151.8155  135.0668  160.0418 H   0  0  0  0  0  0  0  0  0  0  0  0  # atno 6907 bound_to 6896
  152.2989  133.5631  159.5614 H   0  0  0  0  0  0  0  0  0  0  0  0  # atno 6908 bound_to 6896
  150.7264  134.0236  159.3751 H   0  0  0  0  0  0  0  0  0  0  0  0  # atno 6909 bound_to 6896
  146.0982  140.5804  142.8833 H   0  0  0  0  0  0  0  0  0  0  0  0  # atno 7974 bound_to 7965
  156.2691  140.2806  156.1325 H   0  0  0  0  0  0  0  0  0  0  0  0  # atno 8008 bound_to 7997
  155.1039  140.0390  157.2722 H   0  0  0  0  0  0  0  0  0  0  0  0  # atno 8009 bound_to 7997
  154.6794  140.2605  155.6930 H   0  0  0  0  0  0  0  0  0  0  0  0  # atno 8010 bound_to 7997
  140.4524  143.2479  151.8469 H   0  0  0  0  0  0  0  0  0  0  0  0  # atno 10167 bound_to 10162
  156.3869  130.4366  149.7425 H   0  0  0  0  0  0  0  0  0  0  0  0  # atno 10718 bound_to 10713
  154.8131  135.3289  154.7250 H   0  0  0  0  0  0  0  0  0  0  0  0  # atno 10763 bound_to 10752
  153.7895  135.6912  153.4878 H   0  0  0  0  0  0  0  0  0  0  0  0  # atno 10764 bound_to 10752
  153.1926  135.4545  155.0115 H   0  0  0  0  0  0  0  0  0  0  0  0  # atno 10765 bound_to 10752
  140.4184  134.6628  157.4651 H   0  0  0  0  0  0  0  0  0  0  0  0  # atno 11005 bound_to 11000
  144.7412  140.4947  143.6868 LP  0  0  0  0  0  0  0  0  0  0  0  0  # atno 17320 bound_to 7965
  145.5906  139.1495  143.3184 LP  0  0  0  0  0  0  0  0  0  0  0  0  # atno 17321 bound_to 7965
  139.4798  144.5104  151.8940 LP  0  0  0  0  0  0  0  0  0  0  0  0  # atno 17342 bound_to 10162
  140.4191  144.2267  150.5887 LP  0  0  0  0  0  0  0  0  0  0  0  0  # atno 17343 bound_to 10162
  156.4494  130.7899  151.2921 LP  0  0  0  0  0  0  0  0  0  0  0  0  # atno 17370 bound_to 10713
  157.7496  131.0100  150.3289 LP  0  0  0  0  0  0  0  0  0  0  0  0  # atno 17371 bound_to 10713
  140.0217  134.6537  155.9230 LP  0  0  0  0  0  0  0  0  0  0  0  0  # atno 17394 bound_to 11000
  141.1794  133.6544  156.4957 LP  0  0  0  0  0  0  0  0  0  0  0  0  # atno 17395 bound_to 11000

$$$$
