AV-unprocessed.smi:283|AV-procd|sdf|2145|dock9
  -GOLD-   2262021473D 1   1.00000     0.00000
 Structure written by MMmdl.
 48 51  0  0  0  0  0  0  0  0  1 V2000
  150.0018  141.2638  155.5398 C   0  0  0  0  0  0  0  0  0  0  0  0
  149.8667  140.8481  157.0107 C   0  0  2  0  0  0  0  0  0  0  0  0
  148.5012  141.0895  157.4736 N   0  0  0  0  0  0  0  0  0  0  0  0
  147.4415  140.6129  156.7827 C   0  0  0  0  0  0  0  0  0  0  0  0
  146.2045  141.1554  156.9296 N   0  0  0  0  0  0  0  0  0  0  0  0
  145.1735  140.6663  156.2347 C   0  0  0  0  0  0  0  0  0  0  0  0
  145.1608  139.6576  155.3606 N   0  0  0  0  0  0  0  0  0  0  0  0
  146.4010  139.1065  155.2119 C   0  0  0  0  0  0  0  0  0  0  0  0
  147.5826  139.5236  155.8855 C   0  0  0  0  0  0  0  0  0  0  0  0
  148.6545  138.7338  155.4906 N   0  0  0  0  0  0  0  0  0  0  0  0
  148.1318  137.8981  154.6339 C   0  0  0  0  0  0  0  0  0  0  0  0
  146.7818  138.0496  154.4087 N   0  0  0  0  0  0  0  0  0  0  0  0
  145.9174  137.2442  153.4896 C   0  0  2  0  0  0  0  0  0  0  0  0
  146.2847  135.9090  153.5704 O   0  0  0  0  0  0  0  0  0  0  0  0
  145.8120  135.2392  152.4092 C   0  0  1  0  0  0  0  0  0  0  0  0
  144.4464  134.6079  152.7591 C   0  0  0  0  0  0  0  0  0  0  0  0
  144.5966  133.5680  153.7027 O   0  0  0  0  0  0  0  0  0  0  0  0
  145.8306  136.3126  151.2904 C   0  0  1  0  0  0  0  0  0  0  0  0
  144.6277  136.3573  150.5452 O   0  0  0  0  0  0  0  0  0  0  0  0
  146.0466  137.6440  152.0130 C   0  0  2  0  0  0  0  0  0  0  0  0
  147.3054  138.2027  151.6833 O   0  0  0  0  0  0  0  0  0  0  0  0
  150.9478  141.5220  157.8588 C   0  0  0  0  0  0  0  0  0  0  0  0
  151.0425  142.9330  157.8833 C   0  0  0  0  0  0  0  0  0  0  0  0
  152.0294  143.5733  158.6557 C   0  0  0  0  0  0  0  0  0  0  0  0
  152.9387  142.8083  159.4078 C   0  0  0  0  0  0  0  0  0  0  0  0
  152.8612  141.4036  159.3824 C   0  0  0  0  0  0  0  0  0  0  0  0
  151.8740  140.7570  158.6115 C   0  0  0  0  0  0  0  0  0  0  0  0
  151.8332  139.0285  158.6100 Cl  0  0  0  0  0  0  0  0  0  0  0  0
  144.9027  137.3676  153.8716 H   0  0  0  0  0  0  0  0  0  0  0  0
  146.5216  134.4429  152.1807 H   0  0  0  0  0  0  0  0  0  0  0  0
  146.6493  136.1130  150.5972 H   0  0  0  0  0  0  0  0  0  0  0  0
  145.2776  138.3833  151.7841 H   0  0  0  0  0  0  0  0  0  0  0  0
  150.9891  141.0122  155.1517 H   0  0  0  0  0  0  0  0  0  0  0  0
  149.8589  142.3378  155.4150 H   0  0  0  0  0  0  0  0  0  0  0  0
  149.2655  140.7541  154.9175 H   0  0  0  0  0  0  0  0  0  0  0  0
  150.0092  139.7688  157.0525 H   0  0  0  0  0  0  0  0  0  0  0  0
  148.4175  141.4610  158.4088 H   0  0  0  0  0  0  0  0  0  0  0  0
  144.2235  141.1513  156.4040 H   0  0  0  0  0  0  0  0  0  0  0  0
  148.7216  137.1399  154.1395 H   0  0  0  0  0  0  0  0  0  0  0  0
  143.8007  135.3618  153.2105 H   0  0  0  0  0  0  0  0  0  0  0  0
  143.9289  134.2409  151.8722 H   0  0  0  0  0  0  0  0  0  0  0  0
  143.7419  133.2226  153.9087 H   0  0  0  0  0  0  0  0  0  0  0  0
  144.4493  137.2571  150.3190 H   0  0  0  0  0  0  0  0  0  0  0  0
  147.9541  137.8436  152.2691 H   0  0  0  0  0  0  0  0  0  0  0  0
  150.3546  143.5355  157.3084 H   0  0  0  0  0  0  0  0  0  0  0  0
  152.0884  144.6517  158.6696 H   0  0  0  0  0  0  0  0  0  0  0  0
  153.6971  143.2976  160.0011 H   0  0  0  0  0  0  0  0  0  0  0  0
  153.5647  140.8194  159.9570 H   0  0  0  0  0  0  0  0  0  0  0  0
  1  2  1  0  0  0  0
  1 33  1  0  0  0  0
  1 34  1  0  0  0  0
  1 35  1  0  0  0  0
  2  3  1  0  0  0  0
  2 22  1  0  0  0  0
  2 36  1  0  0  0  0
  3  4  1  0  0  0  0
  3 37  1  0  0  0  0
  4  9  1  0  0  0  0
  4  5  2  0  0  0  0
  5  6  1  0  0  0  0
  6  7  2  0  0  0  0
  6 38  1  0  0  0  0
  7  8  1  0  0  0  0
  8 12  1  0  0  0  0
  8  9  2  0  0  0  0
  9 10  1  0  0  0  0
 10 11  2  0  0  0  0
 11 12  1  0  0  0  0
 11 39  1  0  0  0  0
 12 13  1  0  0  0  0
 13 29  1  0  0  0  0
 13 20  1  0  0  0  0
 13 14  1  0  0  0  0
 14 15  1  0  0  0  0
 15 30  1  0  0  0  0
 15 16  1  0  0  0  0
 15 18  1  0  0  0  0
 16 17  1  0  0  0  0
 16 40  1  0  0  0  0
 16 41  1  0  0  0  0
 17 42  1  0  0  0  0
 18 31  1  0  0  0  0
 18 19  1  0  0  0  0
 18 20  1  0  0  0  0
 19 43  1  0  0  0  0
 20 32  1  0  0  0  0
 20 21  1  0  0  0  0
 21 44  1  0  0  0  0
 22 27  1  0  0  0  0
 22 23  2  0  0  0  0
 23 24  1  0  0  0  0
 23 45  1  0  0  0  0
 24 25  2  0  0  0  0
 24 46  1  0  0  0  0
 25 26  1  0  0  0  0
 25 47  1  0  0  0  0
 26 27  2  0  0  0  0
 26 48  1  0  0  0  0
 27 28  1  0  0  0  0
M  END
> <s_m_source_file>
AV-unprocessed.smi

> <i_m_source_file_index>
283

> <i_lp_mmshare_version>
43012

> <i_f3d_flags>
0

> <s_epik_input>
Q2xjMVtjSF1bY0hdW2NIXVtjSF1jMVtDQEhdKFtDSDNdKVtOSF1jKG5bY0hdbjIpYyhjMjMpbltjSF1uM1tDQEBIXTRPW0NASF0oW0NIMl1bT0hdKVtDQEBIXShbT0hdKVtDQEhdNFtPSF0=

> <s_epik_cmdline>
J2VwaWtfcHl0aG9uJywgJy1waCcsICc3LjAnLCAnLXRuJywgJzgnLCAnLW1hJywgJzIwMCcsICctbWV0YWxfYmluZGluZycsICctaW1hZScsICc8aW5maWxlLm1hZT4nLCAnLW9tYWUnLCAnPG91dGZpbGUubWFlPic=

> <r_lp_tautomer_probability>
1

> <r_epik_Ionization_Penalty>
0.000266407

> <r_epik_Ionization_Penalty_Charging>
0

> <r_epik_Ionization_Penalty_Neutral>
0.000266407

> <r_epik_State_Penalty>
-0

> <r_epik_Charging_Adjusted_Penalty>
0

> <i_epik_Tot_Q>
0

> <i_epik_Tot_abs_Q>
0

> <r_epik_Metal_State_Penalty>
-0

> <b_epik_Metal_Only>
0

> <s_epik_Chemistry_Notes>
This compound contains an acetal/aminal-like group ( X-CH(R)-Y where X, Y are N, S, or O) that may be acid/base labile, releasing an aldehyde.

> <s_lp_Force_Field>
OPLS_2005

> <r_lp_Energy>
49.3255

> <b_lp_Chiralities_Consistent>
1

> <s_lp_Variant>
AV-unprocessed.smi:283-21

> <Gold.Version>
5.8.1

> <Gold.Id.Protein>
6NUR|6NUR_protein|mol2

> <Gold.PLP.Fitness>
49.5464

> <Gold.PLP.PLP>
-37.7001

> <Gold.PLP.part.hbond>
-4.9729

> <Gold.PLP.part.metal>
0.0000

> <Gold.PLP.part.buried>
-4.8013

> <Gold.PLP.part.nonpolar>
-30.5579

> <Gold.PLP.part.repulsive>
0.3508

> <Gold.PLP.ligand.clash>
0.0000

> <Gold.PLP.ligand.torsion>
0.7491

> <Gold.PLP.Chemscore.Hbond>
3.4320

> <Gold.PLP.Chemscore.CHOScore>
1.0000

> <Gold.PLP.Chemscore.Metal>
0.0000

> <Gold.Chemscore.Hbonds>
donor molecule, donor type, donor heavy atom, donor atom, acceptor molecule, acceptor atom, score
      L1  H    17    42       P1 10957  0.94
      L1  H    19    43       P1 10171  0.99
      L1  H    21    44       P1  7948  0.43
      P1  H  7954  7966       L1    21  1.00
      L1  C    11    39       P1  7948  1.00

> <Gold.PLP.Chemscore.Internal.Correction>
0.0485

> <Gold.Rescore>
     Score         DG    S(hbond)    S(metal)    S(lipo)     H(rot)  DE(clash)    DE(int)     intcor
     13.38     -16.20       2.95        0.00      97.01       4.10       0.07       2.75       ----

> <Gold.Chemscore.Fitness>
13.3826

> <Gold.Chemscore.DG>
-16.2049

> <Gold.Chemscore.ZeroCoef>
-5.4800

> <Gold.Chemscore.Hbond>
2.9528

> <Gold.Chemscore.Metal>
0.0000

> <Gold.Chemscore.Lipo>
97.0120

> <Gold.Chemscore.Internal_Hbond>
0.0000

> <Gold.Chemscore.DEClash>
0.0697

> <Gold.Chemscore.DEInternal>
2.7526

> <Gold.Chemscore.Rot>
4.0968

> <Gold.Chemscore.Internal.Correction>
   9.000000E+99

> <Gold.Chemscore.Hbonds>
donor molecule, donor type, donor heavy atom, donor atom, acceptor molecule, acceptor atom, score
      L1  H    17    42       P1 10957  0.86
      L1  H    19    43       P1 10171  0.92
      L1  H    21    44       P1  7948  0.44
      P1  H  7954  7966       L1    21  0.28

> <Gold.Chemscore.Hbond.Weighted>
-9.8624

> <Gold.Chemscore.Metal.Weighted>
-0.0000

> <Gold.Chemscore.Lipo.Weighted>
-11.3504

> <Gold.Chemscore.Internal_Hbond.Weighted>
0.0000

> <Gold.Chemscore.DEClash.Weighted>
0.0697

> <Gold.Chemscore.DEInternal.Weighted>
2.7526

> <Gold.Chemscore.Rot.Weighted>
10.4879

> <Gold.Chemscore.Internal.Correction.Weighted>
   9.000000E+99

> <Gold.Protein.RotatedTorsions>
[ 6907 6896 6895 6894 ] final -109.37 input  -60.11 | X-H torsion
[ 7974 7965 7964 7962 ] final  -84.96 input  175.53 | X-H torsion
[ 8008 7997 7996 7995 ] final   -0.21 input   59.86 | X-H torsion
[ 10167 10162 10161 10158 ] final -132.20 input  -65.29 | X-H torsion
[ 10718 10713 10712 10709 ] final  140.09 input   66.30 | X-H torsion
[ 10763 10752 10751 10750 ] final   41.49 input  -60.55 | X-H torsion
[ 11005 11000 10999 10996 ] final   -1.25 input  -57.11 | X-H torsion

> <Gold.Protein.ActiveResidues>
 VAL166  LYS551  ARG553  GLY616  TRP617  ASP618  TYR619  PRO620  LYS621  CYS622 
 ASP623  PHE694  ASN695  SER759  ASP760  ASP761  ALA762  ILE779  LEU786  VAL792 
 PHE793  MET794  SER795  GLU796  ALA797  LYS798  CYS799  TRP800  GLU811  SER814 

> <Gold.Protein.RotatedAtoms>
  150.7558  133.9539  159.3494 H   0  0  0  0  0  0  0  0  0  0  0  0  # atno 6907 bound_to 6896
  151.7459  135.0842  160.0332 H   0  0  0  0  0  0  0  0  0  0  0  0  # atno 6908 bound_to 6896
  152.3498  133.6129  159.5972 H   0  0  0  0  0  0  0  0  0  0  0  0  # atno 6909 bound_to 6896
  145.4996  140.9548  143.1767 H   0  0  0  0  0  0  0  0  0  0  0  0  # atno 7974 bound_to 7965
  154.6607  140.2590  155.7112 H   0  0  0  0  0  0  0  0  0  0  0  0  # atno 8008 bound_to 7997
  156.2617  140.2849  156.0999 H   0  0  0  0  0  0  0  0  0  0  0  0  # atno 8009 bound_to 7997
  155.1313  140.0378  157.2765 H   0  0  0  0  0  0  0  0  0  0  0  0  # atno 8010 bound_to 7997
  139.9110  143.6494  152.2575 H   0  0  0  0  0  0  0  0  0  0  0  0  # atno 10167 bound_to 10162
  157.4071  131.1023  151.0492 H   0  0  0  0  0  0  0  0  0  0  0  0  # atno 10718 bound_to 10713
  152.9907  135.6160  154.2796 H   0  0  0  0  0  0  0  0  0  0  0  0  # atno 10763 bound_to 10752
  154.2526  135.2785  155.2812 H   0  0  0  0  0  0  0  0  0  0  0  0  # atno 10764 bound_to 10752
  154.5275  135.5797  153.6789 H   0  0  0  0  0  0  0  0  0  0  0  0  # atno 10765 bound_to 10752
  140.6453  133.9453  155.8349 H   0  0  0  0  0  0  0  0  0  0  0  0  # atno 11005 bound_to 11000
  144.7787  139.6572  143.7163 LP  0  0  0  0  0  0  0  0  0  0  0  0  # atno 17320 bound_to 7965
  146.2234  139.5678  142.9603 LP  0  0  0  0  0  0  0  0  0  0  0  0  # atno 17321 bound_to 7965
  139.6943  144.7643  151.1384 LP  0  0  0  0  0  0  0  0  0  0  0  0  # atno 17342 bound_to 10162
  140.7685  143.5546  150.9166 LP  0  0  0  0  0  0  0  0  0  0  0  0  # atno 17343 bound_to 10162
  157.1470  130.6168  149.5571 LP  0  0  0  0  0  0  0  0  0  0  0  0  # atno 17370 bound_to 10713
  155.9840  130.4862  150.6959 LP  0  0  0  0  0  0  0  0  0  0  0  0  # atno 17371 bound_to 10713
  141.0577  134.0392  157.3700 LP  0  0  0  0  0  0  0  0  0  0  0  0  # atno 17394 bound_to 11000
  139.9065  135.0181  156.7509 LP  0  0  0  0  0  0  0  0  0  0  0  0  # atno 17395 bound_to 11000

$$$$
