AV-unprocessed.smi:3187|AV-procd|sdf|12177|dock9
  -GOLD-   2272018 13D 1   1.00000     0.00000
 Structure written by MMmdl.
 41 42  0  0  0  0  0  0  0  0  2 V2000
  150.5518  145.2949  159.7887 C   0  0  0  0  0  0  0  0  0  0  0  0
  151.5075  144.1445  160.0592 C   0  0  0  0  0  0  0  0  0  0  0  0
  152.1307  144.0609  161.2503 C   0  0  0  0  0  0  0  0  0  0  0  0
  153.0419  142.9266  161.6587 C   0  0  0  0  0  0  0  0  0  0  0  0
  152.7902  141.6835  160.8021 C   0  0  0  0  0  0  0  0  0  0  0  0
  152.7835  142.0258  159.3032 C   0  0  1  0  0  0  0  0  0  0  0  0
  152.6270  140.7297  158.4843 C   0  0  0  0  0  0  0  0  0  0  0  0
  151.7041  143.0943  158.9460 C   0  0  2  0  0  0  0  0  0  0  0  0
  152.0188  143.7324  157.5666 C   0  0  0  0  0  0  0  0  0  0  0  0
  151.0865  143.2976  156.5059 N   0  3  0  0  0  0  0  0  0  0  0  0
  150.5277  141.9473  156.7087 C   0  0  0  0  0  0  0  0  0  0  0  0
  150.1087  141.3201  155.3725 C   0  0  0  0  0  0  0  0  0  0  0  0
  150.7900  140.0630  155.1393 N   0  0  0  0  0  0  0  0  0  0  0  0
  150.5669  139.1694  154.0999 C   0  0  0  0  0  0  0  0  0  0  0  0
  151.4458  138.1257  154.2836 C   0  0  0  0  0  0  0  0  0  0  0  0
  152.2155  138.3564  155.4214 N   0  0  0  0  0  0  0  0  0  0  0  0
  151.7698  139.5205  155.8753 C   0  0  0  0  0  0  0  0  0  0  0  0
  149.5932  144.9192  159.4305 H   0  0  0  0  0  0  0  0  0  0  0  0
  150.9658  145.9796  159.0489 H   0  0  0  0  0  0  0  0  0  0  0  0
  150.3617  145.8730  160.6939 H   0  0  0  0  0  0  0  0  0  0  0  0
  151.9803  144.8314  161.9929 H   0  0  0  0  0  0  0  0  0  0  0  0
  154.0765  143.2586  161.5685 H   0  0  0  0  0  0  0  0  0  0  0  0
  152.8706  142.6903  162.7094 H   0  0  0  0  0  0  0  0  0  0  0  0
  153.5527  140.9348  161.0210 H   0  0  0  0  0  0  0  0  0  0  0  0
  151.8332  141.2384  161.0790 H   0  0  0  0  0  0  0  0  0  0  0  0
  153.7640  142.4461  159.0726 H   0  0  0  0  0  0  0  0  0  0  0  0
  151.6531  140.2698  158.6544 H   0  0  0  0  0  0  0  0  0  0  0  0
  153.3865  139.9987  158.7635 H   0  0  0  0  0  0  0  0  0  0  0  0
  152.7316  140.8964  157.4135 H   0  0  0  0  0  0  0  0  0  0  0  0
  150.7491  142.5719  158.8699 H   0  0  0  0  0  0  0  0  0  0  0  0
  151.9984  144.8200  157.6515 H   0  0  0  0  0  0  0  0  0  0  0  0
  153.0215  143.4723  157.2313 H   0  0  0  0  0  0  0  0  0  0  0  0
  150.3252  143.9595  156.4555 H   0  0  0  0  0  0  0  0  0  0  0  0
  151.2754  141.3201  157.1964 H   0  0  0  0  0  0  0  0  0  0  0  0
  149.6699  142.0101  157.3800 H   0  0  0  0  0  0  0  0  0  0  0  0
  149.0326  141.1415  155.3527 H   0  0  0  0  0  0  0  0  0  0  0  0
  150.3351  141.9946  154.5456 H   0  0  0  0  0  0  0  0  0  0  0  0
  149.8228  139.3432  153.3364 H   0  0  0  0  0  0  0  0  0  0  0  0
  151.5833  137.2347  153.6889 H   0  0  0  0  0  0  0  0  0  0  0  0
  152.1677  139.9902  156.7630 H   0  0  0  0  0  0  0  0  0  0  0  0
  151.5823  143.3086  155.6258 H   0  0  0  0  0  0  0  0  0  0  0  0
  1  2  1  0  0  0  0
  1 18  1  0  0  0  0
  1 19  1  0  0  0  0
  1 20  1  0  0  0  0
  2  8  1  0  0  0  0
  2  3  2  0  0  0  0
  3  4  1  0  0  0  0
  3 21  1  0  0  0  0
  4  5  1  0  0  0  0
  4 22  1  0  0  0  0
  4 23  1  0  0  0  0
  5  6  1  0  0  0  0
  5 24  1  0  0  0  0
  5 25  1  0  0  0  0
  6  7  1  0  0  0  0
  6  8  1  0  0  0  0
  6 26  1  0  0  0  0
  7 27  1  0  0  0  0
  7 28  1  0  0  0  0
  7 29  1  0  0  0  0
  8  9  1  0  0  0  0
  8 30  1  0  0  0  0
  9 10  1  0  0  0  0
  9 31  1  0  0  0  0
  9 32  1  0  0  0  0
 10 11  1  0  0  0  0
 10 33  1  0  0  0  0
 10 41  1  0  0  0  0
 11 12  1  0  0  0  0
 11 34  1  0  0  0  0
 11 35  1  0  0  0  0
 12 13  1  0  0  0  0
 12 36  1  0  0  0  0
 12 37  1  0  0  0  0
 13 17  1  0  0  0  0
 13 14  1  0  0  0  0
 14 15  2  0  0  0  0
 14 38  1  0  0  0  0
 15 16  1  0  0  0  0
 15 39  1  0  0  0  0
 16 17  2  0  0  0  0
 17 40  1  0  0  0  0
M  CHG  1  10   1
M  END
> <s_m_source_file>
AV-unprocessed.smi

> <i_m_source_file_index>
3187

> <i_lp_mmshare_version>
43012

> <i_f3d_flags>
0

> <s_epik_input>
W0NIM11DMT1bQ0hdW0NIMl1bQ0gyXVtDQEBIXShbQ0gzXSlbQ0BIXTFbQ0gyXVtOSF1bQ0gyXVtDSDJdbjJbY0hdW2NIXW5bY0hdMg==

> <s_epik_cmdline>
J2VwaWtfcHl0aG9uJywgJy1waCcsICc3LjAnLCAnLXRuJywgJzgnLCAnLW1hJywgJzIwMCcsICctbWV0YWxfYmluZGluZycsICctaW1hZScsICc8aW5maWxlLm1hZT4nLCAnLW9tYWUnLCAnPG91dGZpbGUubWFlPic=

> <r_lp_tautomer_probability>
1

> <r_epik_Ionization_Penalty>
0.0501625

> <r_epik_Ionization_Penalty_Charging>
0.0501625

> <r_epik_Ionization_Penalty_Neutral>
0

> <r_epik_State_Penalty>
0.0972392

> <r_epik_Charging_Adjusted_Penalty>
0.147402

> <i_epik_Tot_Q>
1

> <i_epik_Tot_abs_Q>
1

> <r_epik_Metal_State_Penalty>
0.000104376

> <b_epik_Metal_Only>
0

> <s_lp_Force_Field>
OPLS_2005

> <r_lp_Energy>
17.2086

> <b_lp_Chiralities_Consistent>
1

> <s_lp_Variant>
AV-unprocessed.smi:3187-3

> <Gold.Version>
5.8.1

> <Gold.Id.Protein>
6NUR|6NUR_protein|mol2

> <Gold.PLP.Fitness>
53.4858

> <Gold.PLP.PLP>
-44.6717

> <Gold.PLP.part.hbond>
-1.0000

> <Gold.PLP.part.metal>
0.0000

> <Gold.PLP.part.buried>
-3.5087

> <Gold.PLP.part.nonpolar>
-38.7296

> <Gold.PLP.part.repulsive>
0.0765

> <Gold.PLP.ligand.clash>
0.0000

> <Gold.PLP.ligand.torsion>
1.4587

> <Gold.PLP.Chemscore.Hbond>
2.0000

> <Gold.PLP.Chemscore.CHOScore>
1.8972

> <Gold.PLP.Chemscore.Metal>
0.0000

> <Gold.Chemscore.Hbonds>
donor molecule, donor type, donor heavy atom, donor atom, acceptor molecule, acceptor atom, score
      L1  H    10    33       P1  8028  2.00
      L1  C    14    38       P1  7957  1.00
      L1  C    15    39       P1  7949  0.93

> <Gold.PLP.Chemscore.Internal.Correction>
0.0398

> <Gold.Rescore>
     Score         DG    S(hbond)    S(metal)    S(lipo)     H(rot)  DE(clash)    DE(int)     intcor
     16.54     -17.95       1.00        0.00     119.30       1.89       0.02       1.39       ----

> <Gold.Chemscore.Fitness>
16.5390

> <Gold.Chemscore.DG>
-17.9503

> <Gold.Chemscore.ZeroCoef>
-5.4800

> <Gold.Chemscore.Hbond>
0.9994

> <Gold.Chemscore.Metal>
0.0000

> <Gold.Chemscore.Lipo>
119.3023

> <Gold.Chemscore.Internal_Hbond>
0.0000

> <Gold.Chemscore.DEClash>
0.0164

> <Gold.Chemscore.DEInternal>
1.3948

> <Gold.Chemscore.Rot>
1.8853

> <Gold.Chemscore.Internal.Correction>
   9.000000E+99

> <Gold.Chemscore.Hbonds>
donor molecule, donor type, donor heavy atom, donor atom, acceptor molecule, acceptor atom, score
      L1  H    10    33       P1  8028  0.98

> <Gold.Chemscore.Hbond.Weighted>
-3.3381

> <Gold.Chemscore.Metal.Weighted>
-0.0000

> <Gold.Chemscore.Lipo.Weighted>
-13.9584

> <Gold.Chemscore.Internal_Hbond.Weighted>
0.0000

> <Gold.Chemscore.DEClash.Weighted>
0.0164

> <Gold.Chemscore.DEInternal.Weighted>
1.3948

> <Gold.Chemscore.Rot.Weighted>
4.8263

> <Gold.Chemscore.Internal.Correction.Weighted>
   9.000000E+99

> <Gold.Protein.RotatedTorsions>
[ 6907 6896 6895 6894 ] final -145.34 input  -60.11 | X-H torsion
[ 7974 7965 7964 7962 ] final   -8.21 input  175.53 | X-H torsion
[ 8008 7997 7996 7995 ] final   91.79 input   59.86 | X-H torsion
[ 10167 10162 10161 10158 ] final -174.12 input  -65.29 | X-H torsion
[ 10718 10713 10712 10709 ] final  -11.76 input   66.30 | X-H torsion
[ 10763 10752 10751 10750 ] final   95.22 input  -60.55 | X-H torsion
[ 11005 11000 10999 10996 ] final -137.91 input  -57.11 | X-H torsion

> <Gold.Protein.ActiveResidues>
 VAL166  LYS551  ARG553  GLY616  TRP617  ASP618  TYR619  PRO620  LYS621  CYS622 
 ASP623  PHE694  ASN695  SER759  ASP760  ASP761  ALA762  ILE779  LEU786  VAL792 
 PHE793  MET794  SER795  GLU796  ALA797  LYS798  CYS799  TRP800  GLU811  SER814 

> <Gold.Protein.RotatedAtoms>
  151.1265  133.5067  159.2600 H   0  0  0  0  0  0  0  0  0  0  0  0  # atno 6907 bound_to 6896
  151.1804  135.0358  159.8800 H   0  0  0  0  0  0  0  0  0  0  0  0  # atno 6908 bound_to 6896
  152.5458  134.1117  159.8415 H   0  0  0  0  0  0  0  0  0  0  0  0  # atno 6909 bound_to 6896
  146.2286  140.2434  142.8344 H   0  0  0  0  0  0  0  0  0  0  0  0  # atno 7974 bound_to 7965
  156.0279  140.3333  155.7108 H   0  0  0  0  0  0  0  0  0  0  0  0  # atno 8008 bound_to 7997
  155.5928  140.0648  157.2771 H   0  0  0  0  0  0  0  0  0  0  0  0  # atno 8009 bound_to 7997
  154.4341  140.1824  156.1080 H   0  0  0  0  0  0  0  0  0  0  0  0  # atno 8010 bound_to 7997
  139.5651  144.1775  152.1299 H   0  0  0  0  0  0  0  0  0  0  0  0  # atno 10167 bound_to 10162
  156.6544  130.4964  149.6051 H   0  0  0  0  0  0  0  0  0  0  0  0  # atno 10718 bound_to 10713
  153.2506  135.4262  155.0793 H   0  0  0  0  0  0  0  0  0  0  0  0  # atno 10763 bound_to 10752
  154.8380  135.3425  154.6518 H   0  0  0  0  0  0  0  0  0  0  0  0  # atno 10764 bound_to 10752
  153.6939  135.7032  153.5139 H   0  0  0  0  0  0  0  0  0  0  0  0  # atno 10765 bound_to 10752
  140.8666  134.2103  157.4676 H   0  0  0  0  0  0  0  0  0  0  0  0  # atno 11005 bound_to 11000
  144.9467  140.8136  143.5597 LP  0  0  0  0  0  0  0  0  0  0  0  0  # atno 17320 bound_to 7965
  145.2390  139.2081  143.5002 LP  0  0  0  0  0  0  0  0  0  0  0  0  # atno 17321 bound_to 7965
  140.1297  144.5300  150.6810 LP  0  0  0  0  0  0  0  0  0  0  0  0  # atno 17342 bound_to 10162
  140.6934  143.2389  151.5069 LP  0  0  0  0  0  0  0  0  0  0  0  0  # atno 17343 bound_to 10162
  156.2059  130.6649  151.1218 LP  0  0  0  0  0  0  0  0  0  0  0  0  # atno 17370 bound_to 10713
  157.7130  131.0724  150.6430 LP  0  0  0  0  0  0  0  0  0  0  0  0  # atno 17371 bound_to 10713
  139.8709  134.9754  156.4884 LP  0  0  0  0  0  0  0  0  0  0  0  0  # atno 17394 bound_to 11000
  140.8622  133.8051  155.9276 LP  0  0  0  0  0  0  0  0  0  0  0  0  # atno 17395 bound_to 11000

$$$$
