AV-unprocessed.smi:1165|AV-procd|sdf|4929|dock3
  -GOLD-   22720 3513D 1   1.00000     0.00000
 Structure written by MMmdl.
 41 42  0  0  0  0  0  0  0  0  1 V2000
  153.2372  143.5783  163.0540 C   0  0  0  0  0  0  0  0  0  0  0  0
  152.6888  142.9800  161.7540 C   0  0  1  0  0  0  0  0  0  0  0  0
  152.9010  143.9220  160.5517 C   0  0  0  0  0  0  0  0  0  0  0  0
  152.5024  143.2716  159.2924 N   0  0  0  0  0  0  0  0  0  0  0  0
  150.9185  143.5781  158.6447 S   0  0  0  0  0  0  0  0  0  0  0  0
  149.9828  142.5693  159.1646 O   0  0  0  0  0  0  0  0  0  0  0  0
  150.6223  145.0138  158.7664 O   0  0  0  0  0  0  0  0  0  0  0  0
  151.2069  143.2322  156.9834 N   0  0  0  0  0  0  0  0  0  0  0  0
  150.6197  142.0282  156.4050 C   0  0  0  0  0  0  0  0  0  0  0  0
  151.0240  140.7993  157.2287 C   0  0  0  0  0  0  0  0  0  0  0  0
  151.0760  139.5394  156.3880 C   0  0  0  0  0  0  0  0  0  0  0  0
  149.9782  139.1592  155.5887 C   0  0  0  0  0  0  0  0  0  0  0  0
  150.0717  137.9804  154.8245 C   0  0  0  0  0  0  0  0  0  0  0  0
  151.2624  137.2296  154.8930 C   0  0  0  0  0  0  0  0  0  0  0  0
  152.3192  137.5834  155.6560 N   0  0  0  0  0  0  0  0  0  0  0  0
  152.2214  138.7154  156.3859 C   0  0  0  0  0  0  0  0  0  0  0  0
  153.0986  141.9364  159.1200 C   0  0  0  0  0  0  0  0  0  0  0  0
  152.8707  141.0644  160.3710 C   0  0  1  0  0  0  0  0  0  0  0  0
  153.5943  139.7173  160.2725 C   0  0  0  0  0  0  0  0  0  0  0  0
  153.3603  141.7481  161.5183 O   0  0  0  0  0  0  0  0  0  0  0  0
  152.7429  144.5206  163.2911 H   0  0  0  0  0  0  0  0  0  0  0  0
  154.3079  143.7712  162.9791 H   0  0  0  0  0  0  0  0  0  0  0  0
  153.0790  142.8996  163.8926 H   0  0  0  0  0  0  0  0  0  0  0  0
  151.6250  142.7852  161.8939 H   0  0  0  0  0  0  0  0  0  0  0  0
  152.3531  144.8542  160.6879 H   0  0  0  0  0  0  0  0  0  0  0  0
  153.9555  144.1905  160.4773 H   0  0  0  0  0  0  0  0  0  0  0  0
  152.1867  143.3566  156.7302 H   0  0  0  0  0  0  0  0  0  0  0  0
  149.5348  142.1361  156.3815 H   0  0  0  0  0  0  0  0  0  0  0  0
  150.9605  141.9255  155.3740 H   0  0  0  0  0  0  0  0  0  0  0  0
  152.0024  140.9593  157.6840 H   0  0  0  0  0  0  0  0  0  0  0  0
  150.3224  140.6517  158.0510 H   0  0  0  0  0  0  0  0  0  0  0  0
  149.0802  139.7588  155.5614 H   0  0  0  0  0  0  0  0  0  0  0  0
  149.2508  137.6584  154.2007 H   0  0  0  0  0  0  0  0  0  0  0  0
  151.3683  136.3203  154.3198 H   0  0  0  0  0  0  0  0  0  0  0  0
  153.0827  138.9696  156.9861 H   0  0  0  0  0  0  0  0  0  0  0  0
  152.6955  141.4523  158.2307 H   0  0  0  0  0  0  0  0  0  0  0  0
  154.1687  142.0600  158.9485 H   0  0  0  0  0  0  0  0  0  0  0  0
  151.8066  140.8655  160.5012 H   0  0  0  0  0  0  0  0  0  0  0  0
  153.2440  139.1457  159.4127 H   0  0  0  0  0  0  0  0  0  0  0  0
  153.4198  139.1155  161.1648 H   0  0  0  0  0  0  0  0  0  0  0  0
  154.6710  139.8535  160.1685 H   0  0  0  0  0  0  0  0  0  0  0  0
  1  2  1  0  0  0  0
  1 21  1  0  0  0  0
  1 22  1  0  0  0  0
  1 23  1  0  0  0  0
  2 20  1  0  0  0  0
  2  3  1  0  0  0  0
  2 24  1  0  0  0  0
  3  4  1  0  0  0  0
  3 25  1  0  0  0  0
  3 26  1  0  0  0  0
  4  5  1  0  0  0  0
  4 17  1  0  0  0  0
  5  6  2  0  0  0  0
  5  7  2  0  0  0  0
  5  8  1  0  0  0  0
  8  9  1  0  0  0  0
  8 27  1  0  0  0  0
  9 10  1  0  0  0  0
  9 28  1  0  0  0  0
  9 29  1  0  0  0  0
 10 11  1  0  0  0  0
 10 30  1  0  0  0  0
 10 31  1  0  0  0  0
 11 16  1  0  0  0  0
 11 12  2  0  0  0  0
 12 13  1  0  0  0  0
 12 32  1  0  0  0  0
 13 14  2  0  0  0  0
 13 33  1  0  0  0  0
 14 15  1  0  0  0  0
 14 34  1  0  0  0  0
 15 16  2  0  0  0  0
 16 35  1  0  0  0  0
 17 18  1  0  0  0  0
 17 36  1  0  0  0  0
 17 37  1  0  0  0  0
 18 19  1  0  0  0  0
 18 20  1  0  0  0  0
 18 38  1  0  0  0  0
 19 39  1  0  0  0  0
 19 40  1  0  0  0  0
 19 41  1  0  0  0  0
M  END
> <s_m_source_file>
AV-unprocessed.smi

> <i_m_source_file_index>
1165

> <i_lp_mmshare_version>
43012

> <i_f3d_flags>
0

> <s_epik_input>
W0NIM11bQ0BASF0xW0NIMl1OKFtDSDJdW0NASF0oTzEpW0NIM10pUyg9TykoPU8pW05IXVtDSDJdW0NIMl1jMltjSF1bY0hdW2NIXW5bY0hdMg==

> <s_epik_cmdline>
J2VwaWtfcHl0aG9uJywgJy1waCcsICc3LjAnLCAnLXRuJywgJzgnLCAnLW1hJywgJzIwMCcsICctbWV0YWxfYmluZGluZycsICctaW1hZScsICc8aW5maWxlLm1hZT4nLCAnLW9tYWUnLCAnPG91dGZpbGUubWFlPic=

> <r_epik_Ionization_Penalty>
0.0861056

> <r_epik_Ionization_Penalty_Charging>
0

> <r_epik_Ionization_Penalty_Neutral>
0.0861056

> <r_epik_State_Penalty>
0.0574425

> <r_epik_Charging_Adjusted_Penalty>
0.0574425

> <i_epik_Tot_Q>
0

> <i_epik_Tot_abs_Q>
0

> <r_epik_Metal_State_Penalty>
0.317425

> <b_epik_Metal_Only>
0

> <s_lp_Force_Field>
OPLS_2005

> <r_lp_Energy>
3.52917

> <b_lp_Chiralities_Consistent>
1

> <s_lp_Variant>
AV-unprocessed.smi:1165-2

> <Gold.Version>
5.8.1

> <Gold.Id.Protein>
6NUR|6NUR_protein|mol2

> <Gold.PLP.Fitness>
45.9209

> <Gold.PLP.PLP>
-43.9239

> <Gold.PLP.part.hbond>
-2.5118

> <Gold.PLP.part.metal>
0.0000

> <Gold.PLP.part.buried>
-4.0894

> <Gold.PLP.part.nonpolar>
-35.7208

> <Gold.PLP.part.repulsive>
0.2969

> <Gold.PLP.ligand.clash>
0.0000

> <Gold.PLP.ligand.torsion>
1.5547

> <Gold.PLP.Chemscore.Hbond>
0.0000

> <Gold.PLP.Chemscore.CHOScore>
1.0000

> <Gold.PLP.Chemscore.Metal>
0.0000

> <Gold.Chemscore.Hbonds>
donor molecule, donor type, donor heavy atom, donor atom, acceptor molecule, acceptor atom, score
      L1  C    14    34       P1  7949  0.20

> <Gold.PLP.Chemscore.Internal.Correction>
2.1065

> <Gold.Rescore>
     Score         DG    S(hbond)    S(metal)    S(lipo)     H(rot)  DE(clash)    DE(int)     intcor
     11.65     -14.86       0.00        0.00     113.38       1.52       0.19       3.02       ----

> <Gold.Chemscore.Fitness>
11.6493

> <Gold.Chemscore.DG>
-14.8609

> <Gold.Chemscore.ZeroCoef>
-5.4800

> <Gold.Chemscore.Hbond>
0.0000

> <Gold.Chemscore.Metal>
0.0000

> <Gold.Chemscore.Lipo>
113.3766

> <Gold.Chemscore.Internal_Hbond>
0.0000

> <Gold.Chemscore.DEClash>
0.1908

> <Gold.Chemscore.DEInternal>
3.0208

> <Gold.Chemscore.Rot>
1.5172

> <Gold.Chemscore.Internal.Correction>
   9.000000E+99

> <Gold.Chemscore.Hbond.Weighted>
-0.0000

> <Gold.Chemscore.Metal.Weighted>
-0.0000

> <Gold.Chemscore.Lipo.Weighted>
-13.2651

> <Gold.Chemscore.Internal_Hbond.Weighted>
0.0000

> <Gold.Chemscore.DEClash.Weighted>
0.1908

> <Gold.Chemscore.DEInternal.Weighted>
3.0208

> <Gold.Chemscore.Rot.Weighted>
3.8841

> <Gold.Chemscore.Internal.Correction.Weighted>
   9.000000E+99

> <Gold.Protein.RotatedTorsions>
[ 6907 6896 6895 6894 ] final   -6.02 input  -60.11 | X-H torsion
[ 7974 7965 7964 7962 ] final  -51.46 input  175.53 | X-H torsion
[ 8008 7997 7996 7995 ] final   80.31 input   59.86 | X-H torsion
[ 10167 10162 10161 10158 ] final  -23.90 input  -65.29 | X-H torsion
[ 10718 10713 10712 10709 ] final  166.94 input   66.30 | X-H torsion
[ 10763 10752 10751 10750 ] final   64.94 input  -60.55 | X-H torsion
[ 11005 11000 10999 10996 ] final -147.91 input  -57.11 | X-H torsion

> <Gold.Protein.ActiveResidues>
 VAL166  LYS551  ARG553  GLY616  TRP617  ASP618  TYR619  PRO620  LYS621  CYS622 
 ASP623  PHE694  ASN695  SER759  ASP760  ASP761  ALA762  ILE779  LEU786  VAL792 
 PHE793  MET794  SER795  GLU796  ALA797  LYS798  CYS799  TRP800  GLU811  SER814 

> <Gold.Protein.RotatedAtoms>
  151.4723  135.1046  159.9754 H   0  0  0  0  0  0  0  0  0  0  0  0  # atno 6907 bound_to 6896
  152.4812  133.8254  159.7086 H   0  0  0  0  0  0  0  0  0  0  0  0  # atno 6908 bound_to 6896
  150.8885  133.7214  159.2938 H   0  0  0  0  0  0  0  0  0  0  0  0  # atno 6909 bound_to 6896
  145.9187  140.7852  142.9658 H   0  0  0  0  0  0  0  0  0  0  0  0  # atno 7974 bound_to 7965
  155.8818  140.3443  155.5893 H   0  0  0  0  0  0  0  0  0  0  0  0  # atno 8008 bound_to 7997
  155.7711  140.0845  157.2126 H   0  0  0  0  0  0  0  0  0  0  0  0  # atno 8009 bound_to 7997
  154.4025  140.1518  156.2930 H   0  0  0  0  0  0  0  0  0  0  0  0  # atno 8010 bound_to 7997
  140.7288  143.4401  151.0669 H   0  0  0  0  0  0  0  0  0  0  0  0  # atno 10167 bound_to 10162
  157.0587  131.0334  151.2655 H   0  0  0  0  0  0  0  0  0  0  0  0  # atno 10718 bound_to 10713
  153.0076  135.5375  154.6589 H   0  0  0  0  0  0  0  0  0  0  0  0  # atno 10763 bound_to 10752
  154.5803  135.2849  155.0742 H   0  0  0  0  0  0  0  0  0  0  0  0  # atno 10764 bound_to 10752
  154.1874  135.6506  153.5103 H   0  0  0  0  0  0  0  0  0  0  0  0  # atno 10765 bound_to 10752
  140.7668  134.3235  157.5086 H   0  0  0  0  0  0  0  0  0  0  0  0  # atno 11005 bound_to 11000
  144.6750  140.1942  143.7393 LP  0  0  0  0  0  0  0  0  0  0  0  0  # atno 17320 bound_to 7965
  145.8577  139.2207  143.1735 LP  0  0  0  0  0  0  0  0  0  0  0  0  # atno 17321 bound_to 7965
  139.8067  143.8007  152.3168 LP  0  0  0  0  0  0  0  0  0  0  0  0  # atno 17342 bound_to 10162
  139.8043  144.7361  150.9783 LP  0  0  0  0  0  0  0  0  0  0  0  0  # atno 17343 bound_to 10162
  157.4972  130.7858  149.7567 LP  0  0  0  0  0  0  0  0  0  0  0  0  # atno 17370 bound_to 10713
  155.9985  130.3894  150.2700 LP  0  0  0  0  0  0  0  0  0  0  0  0  # atno 17371 bound_to 10713
  139.8762  134.9236  156.3329 LP  0  0  0  0  0  0  0  0  0  0  0  0  # atno 17394 bound_to 11000
  140.9612  133.7387  156.0403 LP  0  0  0  0  0  0  0  0  0  0  0  0  # atno 17395 bound_to 11000

$$$$
