AV-unprocessed.smi:2106|AV-procd|sdf|8594|dock2
  -GOLD-   2272011323D 1   1.00000     0.00000
 Structure written by MMmdl.
 47 48  0  0  0  0  0  0  0  0  1 V2000
  154.2786  140.8013  160.9281 C   0  0  0  0  0  0  0  0  0  0  0  0
  153.4342  141.9347  160.4255 C   0  0  0  0  0  0  0  0  0  0  0  0
  153.0768  143.1349  161.1010 C   0  0  0  0  0  0  0  0  0  0  0  0
  152.3035  143.8116  160.2001 C   0  0  0  0  0  0  0  0  0  0  0  0
  151.6263  145.1376  160.3162 C   0  0  0  0  0  0  0  0  0  0  0  0
  152.2260  143.0232  159.0653 N   0  0  0  0  0  0  0  0  0  0  0  0
  151.5270  143.2794  157.8135 C   0  0  0  0  0  0  0  0  0  0  0  0
  150.6863  142.0838  157.3488 C   0  0  0  0  0  0  0  0  0  0  0  0
  150.8313  140.9703  157.8558 O   0  0  0  0  0  0  0  0  0  0  0  0
  149.8034  142.3335  156.3698 N   0  0  0  0  0  0  0  0  0  0  0  0
  148.9067  141.3474  155.7794 C   0  0  0  0  0  0  0  0  0  0  0  0
  149.3656  140.9509  154.3636 C   0  0  0  0  0  0  0  0  0  0  0  0
  150.3021  139.8299  154.3083 N   0  0  0  0  0  0  0  0  0  0  0  0
  149.6465  138.5419  154.5146 C   0  0  0  0  0  0  0  0  0  0  0  0
  150.6433  137.3702  154.4502 C   0  0  2  0  0  0  0  0  0  0  0  0
  149.9740  136.0273  154.7614 C   0  0  0  0  0  0  0  0  0  0  0  0
  151.6850  137.5761  155.4027 O   0  0  0  0  0  0  0  0  0  0  0  0
  152.3691  138.8254  155.2954 C   0  0  1  0  0  0  0  0  0  0  0  0
  153.3216  138.8539  154.0878 C   0  0  0  0  0  0  0  0  0  0  0  0
  151.3566  139.9879  155.3046 C   0  0  0  0  0  0  0  0  0  0  0  0
  152.9235  141.8749  159.2068 N   0  0  0  0  0  0  0  0  0  0  0  0
  154.7135  141.0342  161.9002 H   0  0  0  0  0  0  0  0  0  0  0  0
  155.0979  140.5860  160.2415 H   0  0  0  0  0  0  0  0  0  0  0  0
  153.6874  139.8922  161.0387 H   0  0  0  0  0  0  0  0  0  0  0  0
  153.3476  143.4508  162.0975 H   0  0  0  0  0  0  0  0  0  0  0  0
  151.8562  145.6100  161.2714 H   0  0  0  0  0  0  0  0  0  0  0  0
  150.5439  145.0274  160.2493 H   0  0  0  0  0  0  0  0  0  0  0  0
  151.9495  145.8120  159.5234 H   0  0  0  0  0  0  0  0  0  0  0  0
  150.8914  144.1559  157.9455 H   0  0  0  0  0  0  0  0  0  0  0  0
  152.2525  143.5273  157.0371 H   0  0  0  0  0  0  0  0  0  0  0  0
  149.7498  143.2742  156.0064 H   0  0  0  0  0  0  0  0  0  0  0  0
  148.8426  140.4807  156.4381 H   0  0  0  0  0  0  0  0  0  0  0  0
  147.9078  141.7821  155.7364 H   0  0  0  0  0  0  0  0  0  0  0  0
  148.4746  140.6903  153.7904 H   0  0  0  0  0  0  0  0  0  0  0  0
  149.8006  141.8157  153.8605 H   0  0  0  0  0  0  0  0  0  0  0  0
  149.1385  138.5372  155.4803 H   0  0  0  0  0  0  0  0  0  0  0  0
  148.8792  138.3828  153.7578 H   0  0  0  0  0  0  0  0  0  0  0  0
  151.0738  137.3139  153.4500 H   0  0  0  0  0  0  0  0  0  0  0  0
  149.1760  135.8126  154.0504 H   0  0  0  0  0  0  0  0  0  0  0  0
  149.5409  136.0241  155.7620 H   0  0  0  0  0  0  0  0  0  0  0  0
  150.6947  135.2111  154.7081 H   0  0  0  0  0  0  0  0  0  0  0  0
  152.9871  138.9140  156.1893 H   0  0  0  0  0  0  0  0  0  0  0  0
  153.9162  139.7678  154.0856 H   0  0  0  0  0  0  0  0  0  0  0  0
  152.7847  138.8133  153.1405 H   0  0  0  0  0  0  0  0  0  0  0  0
  154.0119  138.0106  154.1175 H   0  0  0  0  0  0  0  0  0  0  0  0
  151.8833  140.9297  155.1456 H   0  0  0  0  0  0  0  0  0  0  0  0
  150.9078  140.0529  156.2970 H   0  0  0  0  0  0  0  0  0  0  0  0
  1  2  1  0  0  0  0
  1 22  1  0  0  0  0
  1 23  1  0  0  0  0
  1 24  1  0  0  0  0
  2 21  2  0  0  0  0
  2  3  1  0  0  0  0
  3  4  2  0  0  0  0
  3 25  1  0  0  0  0
  4  5  1  0  0  0  0
  4  6  1  0  0  0  0
  5 26  1  0  0  0  0
  5 27  1  0  0  0  0
  5 28  1  0  0  0  0
  6  7  1  0  0  0  0
  6 21  1  0  0  0  0
  7  8  1  0  0  0  0
  7 29  1  0  0  0  0
  7 30  1  0  0  0  0
  8  9  2  0  0  0  0
  8 10  1  0  0  0  0
 10 11  1  0  0  0  0
 10 31  1  0  0  0  0
 11 12  1  0  0  0  0
 11 32  1  0  0  0  0
 11 33  1  0  0  0  0
 12 13  1  0  0  0  0
 12 34  1  0  0  0  0
 12 35  1  0  0  0  0
 13 20  1  0  0  0  0
 13 14  1  0  0  0  0
 14 15  1  0  0  0  0
 14 36  1  0  0  0  0
 14 37  1  0  0  0  0
 15 16  1  0  0  0  0
 15 17  1  0  0  0  0
 15 38  1  0  0  0  0
 16 39  1  0  0  0  0
 16 40  1  0  0  0  0
 16 41  1  0  0  0  0
 17 18  1  0  0  0  0
 18 19  1  0  0  0  0
 18 20  1  0  0  0  0
 18 42  1  0  0  0  0
 19 43  1  0  0  0  0
 19 44  1  0  0  0  0
 19 45  1  0  0  0  0
 20 46  1  0  0  0  0
 20 47  1  0  0  0  0
M  END
> <s_m_source_file>
AV-unprocessed.smi

> <i_m_source_file_index>
2106

> <i_lp_mmshare_version>
43012

> <i_f3d_flags>
0

> <s_epik_input>
W0NIM11jMVtjSF1jKFtDSDNdKW4objEpW0NIMl1DKD1PKVtOSF1bQ0gyXVtDSDJdTjJbQ0gyXVtDQEBIXShbQ0gzXSlPW0NAQEhdKFtDSDNdKVtDSDJdMg==

> <s_epik_cmdline>
J2VwaWtfcHl0aG9uJywgJy1waCcsICc3LjAnLCAnLXRuJywgJzgnLCAnLW1hJywgJzIwMCcsICctbWV0YWxfYmluZGluZycsICctaW1hZScsICc8aW5maWxlLm1hZT4nLCAnLW9tYWUnLCAnPG91dGZpbGUubWFlPic=

> <r_lp_tautomer_probability>
1

> <r_epik_Ionization_Penalty>
0.197284

> <r_epik_Ionization_Penalty_Charging>
0

> <r_epik_Ionization_Penalty_Neutral>
0.197284

> <r_epik_State_Penalty>
0.186684

> <r_epik_Charging_Adjusted_Penalty>
0.186684

> <i_epik_Tot_Q>
0

> <i_epik_Tot_abs_Q>
0

> <r_epik_Metal_State_Penalty>
0.186634

> <b_epik_Metal_Only>
0

> <s_lp_Force_Field>
OPLS_2005

> <r_lp_Energy>
21.9362

> <b_lp_Chiralities_Consistent>
1

> <s_lp_Variant>
AV-unprocessed.smi:2106-2

> <Gold.Version>
5.8.1

> <Gold.Id.Protein>
6NUR|6NUR_protein|mol2

> <Gold.PLP.Fitness>
50.0452

> <Gold.PLP.PLP>
-48.2603

> <Gold.PLP.part.hbond>
-2.0000

> <Gold.PLP.part.metal>
0.0000

> <Gold.PLP.part.buried>
-5.4063

> <Gold.PLP.part.nonpolar>
-41.8033

> <Gold.PLP.part.repulsive>
0.2319

> <Gold.PLP.ligand.clash>
0.0000

> <Gold.PLP.ligand.torsion>
0.6523

> <Gold.PLP.Chemscore.Hbond>
1.0070

> <Gold.PLP.Chemscore.CHOScore>
0.0000

> <Gold.PLP.Chemscore.Metal>
0.0000

> <Gold.Chemscore.Hbonds>
donor molecule, donor type, donor heavy atom, donor atom, acceptor molecule, acceptor atom, score
      L1  H    10    31       P1  8028  1.00

> <Gold.PLP.Chemscore.Internal.Correction>
0.0686

> <Gold.Rescore>
     Score         DG    S(hbond)    S(metal)    S(lipo)     H(rot)  DE(clash)    DE(int)     intcor
     16.61     -18.59       0.94        0.00     121.56       1.67       0.14       1.85       ----

> <Gold.Chemscore.Fitness>
16.6062

> <Gold.Chemscore.DG>
-18.5925

> <Gold.Chemscore.ZeroCoef>
-5.4800

> <Gold.Chemscore.Hbond>
0.9444

> <Gold.Chemscore.Metal>
0.0000

> <Gold.Chemscore.Lipo>
121.5571

> <Gold.Chemscore.Internal_Hbond>
0.0000

> <Gold.Chemscore.DEClash>
0.1367

> <Gold.Chemscore.DEInternal>
1.8496

> <Gold.Chemscore.Rot>
1.6657

> <Gold.Chemscore.Internal.Correction>
   9.000000E+99

> <Gold.Chemscore.Hbonds>
donor molecule, donor type, donor heavy atom, donor atom, acceptor molecule, acceptor atom, score
      L1  H    10    31       P1  8028  0.96

> <Gold.Chemscore.Hbond.Weighted>
-3.1544

> <Gold.Chemscore.Metal.Weighted>
-0.0000

> <Gold.Chemscore.Lipo.Weighted>
-14.2222

> <Gold.Chemscore.Internal_Hbond.Weighted>
0.0000

> <Gold.Chemscore.DEClash.Weighted>
0.1367

> <Gold.Chemscore.DEInternal.Weighted>
1.8496

> <Gold.Chemscore.Rot.Weighted>
4.2641

> <Gold.Chemscore.Internal.Correction.Weighted>
   9.000000E+99

> <Gold.Protein.RotatedTorsions>
[ 6907 6896 6895 6894 ] final -124.71 input  -60.11 | X-H torsion
[ 7974 7965 7964 7962 ] final  -45.58 input  175.53 | X-H torsion
[ 8008 7997 7996 7995 ] final  -33.29 input   59.86 | X-H torsion
[ 10167 10162 10161 10158 ] final -171.29 input  -65.29 | X-H torsion
[ 10718 10713 10712 10709 ] final  105.59 input   66.30 | X-H torsion
[ 10763 10752 10751 10750 ] final   51.74 input  -60.55 | X-H torsion
[ 11005 11000 10999 10996 ] final   21.35 input  -57.11 | X-H torsion

> <Gold.Protein.ActiveResidues>
 VAL166  LYS551  ARG553  GLY616  TRP617  ASP618  TYR619  PRO620  LYS621  CYS622 
 ASP623  PHE694  ASN695  SER759  ASP760  ASP761  ALA762  ILE779  LEU786  VAL792 
 PHE793  MET794  SER795  GLU796  ALA797  LYS798  CYS799  TRP800  GLU811  SER814 

> <Gold.Protein.RotatedAtoms>
  150.8795  133.7391  159.2936 H   0  0  0  0  0  0  0  0  0  0  0  0  # atno 6907 bound_to 6896
  151.4977  135.1059  159.9830 H   0  0  0  0  0  0  0  0  0  0  0  0  # atno 6908 bound_to 6896
  152.4750  133.8072  159.7040 H   0  0  0  0  0  0  0  0  0  0  0  0  # atno 6909 bound_to 6896
  145.9806  140.7287  142.9365 H   0  0  0  0  0  0  0  0  0  0  0  0  # atno 7974 bound_to 7965
  154.4153  140.1714  156.1865 H   0  0  0  0  0  0  0  0  0  0  0  0  # atno 8008 bound_to 7997
  155.9639  140.3391  155.6491 H   0  0  0  0  0  0  0  0  0  0  0  0  # atno 8009 bound_to 7997
  155.6713  140.0712  157.2509 H   0  0  0  0  0  0  0  0  0  0  0  0  # atno 8010 bound_to 7997
  139.5811  144.1422  152.1516 H   0  0  0  0  0  0  0  0  0  0  0  0  # atno 10167 bound_to 10162
  157.6700  131.0831  150.5879 H   0  0  0  0  0  0  0  0  0  0  0  0  # atno 10718 bound_to 10713
  152.9786  135.5835  154.4465 H   0  0  0  0  0  0  0  0  0  0  0  0  # atno 10763 bound_to 10752
  154.4060  135.2769  155.2069 H   0  0  0  0  0  0  0  0  0  0  0  0  # atno 10764 bound_to 10752
  154.3879  135.6132  153.5881 H   0  0  0  0  0  0  0  0  0  0  0  0  # atno 10765 bound_to 10752
  140.3925  134.1804  155.7663 H   0  0  0  0  0  0  0  0  0  0  0  0  # atno 11005 bound_to 11000
  144.6860  140.2902  143.7279 LP  0  0  0  0  0  0  0  0  0  0  0  0  # atno 17320 bound_to 7965
  145.7775  139.1879  143.2177 LP  0  0  0  0  0  0  0  0  0  0  0  0  # atno 17321 bound_to 7965
  140.0975  144.5568  150.7011 LP  0  0  0  0  0  0  0  0  0  0  0  0  # atno 17342 bound_to 10162
  140.7089  143.2489  151.4643 LP  0  0  0  0  0  0  0  0  0  0  0  0  # atno 17343 bound_to 10162
  156.6179  130.4398  149.5833 LP  0  0  0  0  0  0  0  0  0  0  0  0  # atno 17370 bound_to 10713
  156.2378  130.6833  151.1527 LP  0  0  0  0  0  0  0  0  0  0  0  0  # atno 17371 bound_to 10713
  141.1886  133.8257  157.0990 LP  0  0  0  0  0  0  0  0  0  0  0  0  # atno 17394 bound_to 11000
  140.0396  134.9861  157.0936 LP  0  0  0  0  0  0  0  0  0  0  0  0  # atno 17395 bound_to 11000

$$$$
