AV-unprocessed.smi:240|AV-procd|sdf|1839|dock7
  -GOLD-   2262020453D 1   1.00000     0.00000
 Structure written by MMmdl.
 55 59  0  0  0  0  0  0  0  0  1 V2000
  152.4481  137.3797  155.4946 O   0  0  0  0  0  0  0  0  0  0  0  0
  151.2538  138.0980  155.7249 C   0  0  1  0  0  0  0  0  0  0  0  0
  151.0466  139.1874  154.6739 C   0  0  0  0  0  0  0  0  0  0  0  0
  149.5479  139.4924  154.7418 C   0  0  0  0  0  0  0  0  0  0  0  0
  148.8712  138.2053  155.2415 C   0  0  0  0  0  0  0  0  0  0  0  0
  150.0060  137.2153  155.5726 C   0  0  2  0  0  0  0  0  0  0  0  0
  149.7271  136.2184  156.7393 C   0  0  1  0  0  0  0  0  0  0  0  0
  149.5067  136.9101  158.1096 C   0  0  0  0  0  0  0  0  0  0  0  0
  149.2767  135.9383  159.1231 O   0  0  0  0  0  0  0  0  0  0  0  0
  148.1078  135.1719  158.8675 C   0  0  0  0  0  0  0  0  0  0  0  0
  148.2967  134.4014  157.5547 C   0  0  0  0  0  0  0  0  0  0  0  0
  148.5946  135.3224  156.4639 N   0  0  0  0  0  0  0  0  0  0  0  0
  148.5999  134.6711  155.2789 C   0  0  0  0  0  0  0  0  0  0  0  0
  149.7980  134.5307  154.6607 N   0  0  0  0  0  0  0  0  0  0  0  0
  149.8755  133.8828  153.4944 C   0  0  0  0  0  0  0  0  0  0  0  0
  148.8955  133.3169  152.7866 N   0  0  0  0  0  0  0  0  0  0  0  0
  147.6861  133.4720  153.3984 C   0  0  0  0  0  0  0  0  0  0  0  0
  147.4489  134.1303  154.6377 C   0  0  0  0  0  0  0  0  0  0  0  0
  146.0949  134.0846  154.9465 N   0  0  0  0  0  0  0  0  0  0  0  0
  145.5639  133.4278  153.9518 C   0  0  0  0  0  0  0  0  0  0  0  0
  146.4450  133.0320  152.9706 N   0  0  0  0  0  0  0  0  0  0  0  0
  146.1291  132.2832  151.7627 C   0  0  0  0  0  0  0  0  0  0  0  0
  145.1963  133.0270  150.7728 C   0  0  2  0  0  0  0  0  0  0  0  0
  145.7335  134.3065  150.4921 O   0  0  0  0  0  0  0  0  0  0  0  0
  143.7559  133.1863  151.2659 C   0  0  0  0  0  0  0  0  0  0  0  0
  143.0155  132.0744  150.5365 C   0  0  0  0  0  0  0  0  0  0  0  0
  143.6295  132.0880  149.2609 O   0  0  0  0  0  0  0  0  0  0  0  0
  145.0295  132.2405  149.4563 C   0  0  0  0  0  0  0  0  0  0  0  0
  153.1781  137.9177  155.7608 H   0  0  0  0  0  0  0  0  0  0  0  0
  151.2964  138.5663  156.7072 H   0  0  0  0  0  0  0  0  0  0  0  0
  151.6644  140.0683  154.8513 H   0  0  0  0  0  0  0  0  0  0  0  0
  151.2919  138.8037  153.6821 H   0  0  0  0  0  0  0  0  0  0  0  0
  149.3688  140.2983  155.4547 H   0  0  0  0  0  0  0  0  0  0  0  0
  149.1569  139.8170  153.7771 H   0  0  0  0  0  0  0  0  0  0  0  0
  148.2525  138.4311  156.1087 H   0  0  0  0  0  0  0  0  0  0  0  0
  148.2087  137.7871  154.4829 H   0  0  0  0  0  0  0  0  0  0  0  0
  150.1753  136.6371  154.6626 H   0  0  0  0  0  0  0  0  0  0  0  0
  150.6131  135.5933  156.8501 H   0  0  0  0  0  0  0  0  0  0  0  0
  150.3861  137.4789  158.4068 H   0  0  0  0  0  0  0  0  0  0  0  0
  148.6702  137.6084  158.0855 H   0  0  0  0  0  0  0  0  0  0  0  0
  147.9499  134.4772  159.6924 H   0  0  0  0  0  0  0  0  0  0  0  0
  147.2310  135.8199  158.8208 H   0  0  0  0  0  0  0  0  0  0  0  0
  149.1115  133.6837  157.6616 H   0  0  0  0  0  0  0  0  0  0  0  0
  147.3937  133.8320  157.3290 H   0  0  0  0  0  0  0  0  0  0  0  0
  150.8647  133.8042  153.0682 H   0  0  0  0  0  0  0  0  0  0  0  0
  144.5058  133.2145  153.9063 H   0  0  0  0  0  0  0  0  0  0  0  0
  147.0684  132.0294  151.2694 H   0  0  0  0  0  0  0  0  0  0  0  0
  145.6783  131.3356  152.0607 H   0  0  0  0  0  0  0  0  0  0  0  0
  145.6483  134.4708  149.5653 H   0  0  0  0  0  0  0  0  0  0  0  0
  143.6381  133.1256  152.3464 H   0  0  0  0  0  0  0  0  0  0  0  0
  143.3422  134.1451  150.9491 H   0  0  0  0  0  0  0  0  0  0  0  0
  143.1788  131.1093  151.0186 H   0  0  0  0  0  0  0  0  0  0  0  0
  141.9423  132.2538  150.4699 H   0  0  0  0  0  0  0  0  0  0  0  0
  145.4821  132.7352  148.5959 H   0  0  0  0  0  0  0  0  0  0  0  0
  145.4741  131.2469  149.5308 H   0  0  0  0  0  0  0  0  0  0  0  0
  1  2  1  0  0  0  0
  1 29  1  0  0  0  0
  2  6  1  0  0  0  0
  2  3  1  0  0  0  0
  2 30  1  0  0  0  0
  3  4  1  0  0  0  0
  3 31  1  0  0  0  0
  3 32  1  0  0  0  0
  4  5  1  0  0  0  0
  4 33  1  0  0  0  0
  4 34  1  0  0  0  0
  5  6  1  0  0  0  0
  5 35  1  0  0  0  0
  5 36  1  0  0  0  0
  6  7  1  0  0  0  0
  6 37  1  0  0  0  0
  7 12  1  0  0  0  0
  7  8  1  0  0  0  0
  7 38  1  0  0  0  0
  8  9  1  0  0  0  0
  8 39  1  0  0  0  0
  8 40  1  0  0  0  0
  9 10  1  0  0  0  0
 10 11  1  0  0  0  0
 10 41  1  0  0  0  0
 10 42  1  0  0  0  0
 11 12  1  0  0  0  0
 11 43  1  0  0  0  0
 11 44  1  0  0  0  0
 12 13  1  0  0  0  0
 13 18  1  0  0  0  0
 13 14  2  0  0  0  0
 14 15  1  0  0  0  0
 15 16  2  0  0  0  0
 15 45  1  0  0  0  0
 16 17  1  0  0  0  0
 17 21  1  0  0  0  0
 17 18  2  0  0  0  0
 18 19  1  0  0  0  0
 19 20  2  0  0  0  0
 20 21  1  0  0  0  0
 20 46  1  0  0  0  0
 21 22  1  0  0  0  0
 22 23  1  0  0  0  0
 22 47  1  0  0  0  0
 22 48  1  0  0  0  0
 23 28  1  0  0  0  0
 23 24  1  0  0  0  0
 23 25  1  0  0  0  0
 24 49  1  0  0  0  0
 25 26  1  0  0  0  0
 25 50  1  0  0  0  0
 25 51  1  0  0  0  0
 26 27  1  0  0  0  0
 26 52  1  0  0  0  0
 26 53  1  0  0  0  0
 27 28  1  0  0  0  0
 28 54  1  0  0  0  0
 28 55  1  0  0  0  0
M  END
> <s_m_source_file>
AV-unprocessed.smi

> <i_m_source_file_index>
240

> <i_lp_mmshare_version>
43012

> <i_f3d_flags>
0

> <s_epik_input>
W09IXVtDQEBIXTFbQ0gyXVtDSDJdW0NIMl1bQ0BIXTFbQ0BASF0yW0NIMl1PW0NIMl1bQ0gyXU4yYyhuW2NIXW4zKWMoYzM0KW5bY0hdbjRbQ0gyXVtDQEBdNShbT0hdKVtDSDJdW0NIMl1PW0NIMl01

> <s_epik_cmdline>
J2VwaWtfcHl0aG9uJywgJy1waCcsICc3LjAnLCAnLXRuJywgJzgnLCAnLW1hJywgJzIwMCcsICctbWV0YWxfYmluZGluZycsICctaW1hZScsICc8aW5maWxlLm1hZT4nLCAnLW9tYWUnLCAnPG91dGZpbGUubWFlPic=

> <r_lp_tautomer_probability>
1

> <r_epik_Ionization_Penalty>
0.000130618

> <r_epik_Ionization_Penalty_Charging>
0

> <r_epik_Ionization_Penalty_Neutral>
0.000130618

> <r_epik_State_Penalty>
-0

> <r_epik_Charging_Adjusted_Penalty>
0

> <i_epik_Tot_Q>
0

> <i_epik_Tot_abs_Q>
0

> <r_epik_Metal_State_Penalty>
-0

> <b_epik_Metal_Only>
0

> <s_lp_Force_Field>
OPLS_2005

> <r_lp_Energy>
62.6221

> <b_lp_Chiralities_Consistent>
1

> <s_lp_Variant>
AV-unprocessed.smi:240-16

> <Gold.Version>
5.8.1

> <Gold.Id.Protein>
6NUR|6NUR_protein|mol2

> <Gold.PLP.Fitness>
45.2360

> <Gold.PLP.PLP>
-32.8958

> <Gold.PLP.part.hbond>
-3.8865

> <Gold.PLP.part.metal>
0.0000

> <Gold.PLP.part.buried>
-7.1016

> <Gold.PLP.part.nonpolar>
-23.8685

> <Gold.PLP.part.repulsive>
0.6426

> <Gold.PLP.ligand.clash>
0.0000

> <Gold.PLP.ligand.torsion>
0.4635

> <Gold.PLP.Chemscore.Hbond>
3.4586

> <Gold.PLP.Chemscore.CHOScore>
0.9038

> <Gold.PLP.Chemscore.Metal>
0.0000

> <Gold.Chemscore.Hbonds>
donor molecule, donor type, donor heavy atom, donor atom, acceptor molecule, acceptor atom, score
      L1  H    24    49       P1  7921  1.00
      P1  H  6896  6908       L1     9  1.00
      P1  H 10752 10764       L1     1  0.67
      P1  H 10785 10796       L1    27  0.76
      L1  C    15    45       P1  7949  0.08
      L1  C    20    46       P1 10957  1.00

> <Gold.PLP.Chemscore.Internal.Correction>
0.1800

> <Gold.Rescore>
     Score         DG    S(hbond)    S(metal)    S(lipo)     H(rot)  DE(clash)    DE(int)     intcor
     12.37     -15.75       2.49        0.00      82.44       3.00       1.58       1.80       ----

> <Gold.Chemscore.Fitness>
12.3675

> <Gold.Chemscore.DG>
-15.7527

> <Gold.Chemscore.ZeroCoef>
-5.4800

> <Gold.Chemscore.Hbond>
2.4900

> <Gold.Chemscore.Metal>
0.0000

> <Gold.Chemscore.Lipo>
82.4431

> <Gold.Chemscore.Internal_Hbond>
0.0000

> <Gold.Chemscore.DEClash>
1.5813

> <Gold.Chemscore.DEInternal>
1.8039

> <Gold.Chemscore.Rot>
3.0039

> <Gold.Chemscore.Internal.Correction>
   9.000000E+99

> <Gold.Chemscore.Hbonds>
donor molecule, donor type, donor heavy atom, donor atom, acceptor molecule, acceptor atom, score
      L1  H    24    49       P1  7921  0.80
      P1  H  6896  6908       L1     9  0.83
      P1  H 10752 10764       L1     1  0.53
      P1  H 10785 10796       L1    27  0.10

> <Gold.Chemscore.Hbond.Weighted>
-8.3167

> <Gold.Chemscore.Metal.Weighted>
-0.0000

> <Gold.Chemscore.Lipo.Weighted>
-9.6458

> <Gold.Chemscore.Internal_Hbond.Weighted>
0.0000

> <Gold.Chemscore.DEClash.Weighted>
1.5813

> <Gold.Chemscore.DEInternal.Weighted>
1.8039

> <Gold.Chemscore.Rot.Weighted>
7.6899

> <Gold.Chemscore.Internal.Correction.Weighted>
   9.000000E+99

> <Gold.Protein.RotatedTorsions>
[ 6907 6896 6895 6894 ] final -165.11 input  -60.11 | X-H torsion
[ 7974 7965 7964 7962 ] final   80.36 input  175.53 | X-H torsion
[ 8008 7997 7996 7995 ] final  -88.16 input   59.86 | X-H torsion
[ 10167 10162 10161 10158 ] final  113.83 input  -65.29 | X-H torsion
[ 10718 10713 10712 10709 ] final  -96.11 input   66.30 | X-H torsion
[ 10763 10752 10751 10750 ] final  -45.84 input  -60.55 | X-H torsion
[ 11005 11000 10999 10996 ] final  131.24 input  -57.11 | X-H torsion

> <Gold.Protein.ActiveResidues>
 VAL166  LYS551  ARG553  GLY616  TRP617  ASP618  TYR619  PRO620  LYS621  CYS622 
 ASP623  PHE694  ASN695  SER759  ASP760  ASP761  ALA762  ILE779  LEU786  VAL792 
 PHE793  MET794  SER795  GLU796  ALA797  LYS798  CYS799  TRP800  GLU811  SER814 

> <Gold.Protein.RotatedAtoms>
  151.4224  133.3694  159.2757 H   0  0  0  0  0  0  0  0  0  0  0  0  # atno 6907 bound_to 6896
  150.9283  134.8701  159.7545 H   0  0  0  0  0  0  0  0  0  0  0  0  # atno 6908 bound_to 6896
  152.5016  134.4167  159.9519 H   0  0  0  0  0  0  0  0  0  0  0  0  # atno 6909 bound_to 6896
  145.6523  139.2450  143.1970 H   0  0  0  0  0  0  0  0  0  0  0  0  # atno 7974 bound_to 7965
  154.6716  140.0557  157.0172 H   0  0  0  0  0  0  0  0  0  0  0  0  # atno 8008 bound_to 7997
  155.1080  140.3235  155.4510 H   0  0  0  0  0  0  0  0  0  0  0  0  # atno 8009 bound_to 7997
  156.2660  140.2019  156.6205 H   0  0  0  0  0  0  0  0  0  0  0  0  # atno 8010 bound_to 7997
  139.6433  144.7125  151.2193 H   0  0  0  0  0  0  0  0  0  0  0  0  # atno 10167 bound_to 10162
  156.0056  130.5137  150.6177 H   0  0  0  0  0  0  0  0  0  0  0  0  # atno 10718 bound_to 10713
  154.0352  135.6651  153.4784 H   0  0  0  0  0  0  0  0  0  0  0  0  # atno 10763 bound_to 10752
  153.0524  135.5076  154.7895 H   0  0  0  0  0  0  0  0  0  0  0  0  # atno 10764 bound_to 10752
  154.6853  135.3052  154.9521 H   0  0  0  0  0  0  0  0  0  0  0  0  # atno 10765 bound_to 10752
  139.9719  134.9575  156.9410 H   0  0  0  0  0  0  0  0  0  0  0  0  # atno 11005 bound_to 11000
  146.1194  140.7328  142.9465 LP  0  0  0  0  0  0  0  0  0  0  0  0  # atno 17320 bound_to 7965
  144.7118  140.4067  143.7074 LP  0  0  0  0  0  0  0  0  0  0  0  0  # atno 17321 bound_to 7965
  140.7502  143.6274  150.8455 LP  0  0  0  0  0  0  0  0  0  0  0  0  # atno 17342 bound_to 10162
  139.9914  143.5843  152.2908 LP  0  0  0  0  0  0  0  0  0  0  0  0  # atno 17343 bound_to 10162
  157.3998  131.0808  151.1319 LP  0  0  0  0  0  0  0  0  0  0  0  0  # atno 17370 bound_to 10713
  157.1984  130.6383  149.5729 LP  0  0  0  0  0  0  0  0  0  0  0  0  # atno 17371 bound_to 10713
  140.5276  134.0845  155.7307 LP  0  0  0  0  0  0  0  0  0  0  0  0  # atno 17394 bound_to 11000
  141.1398  133.9158  157.2352 LP  0  0  0  0  0  0  0  0  0  0  0  0  # atno 17395 bound_to 11000

$$$$
