AV-unprocessed.smi:281|AV-procd|sdf|2112|dock8
  -GOLD-   2262021403D 1   1.00000     0.00000
 Structure written by MMmdl.
 55 59  0  0  0  0  0  0  0  0  1 V2000
  152.8689  138.9583  154.8330 C   0  0  0  0  0  0  0  0  0  0  0  0
  151.8012  139.3332  155.8655 C   0  0  1  0  0  0  0  0  0  0  0  0
  150.9035  138.1402  156.2224 C   0  0  0  0  0  0  0  0  0  0  0  0
  149.9593  138.5195  157.2684 N   0  0  0  0  0  0  0  0  0  0  0  0
  148.9382  137.6630  157.5342 C   0  0  0  0  0  0  0  0  0  0  0  0
  148.0856  137.2944  156.5397 N   0  0  0  0  0  0  0  0  0  0  0  0
  147.0839  136.4453  156.7847 C   0  0  0  0  0  0  0  0  0  0  0  0
  146.7549  135.8534  157.9336 N   0  0  0  0  0  0  0  0  0  0  0  0
  147.6014  136.2194  158.9378 C   0  0  0  0  0  0  0  0  0  0  0  0
  148.7048  137.1131  158.8276 C   0  0  0  0  0  0  0  0  0  0  0  0
  149.3167  137.2570  160.0672 N   0  0  0  0  0  0  0  0  0  0  0  0
  148.6229  136.4877  160.8600 C   0  0  0  0  0  0  0  0  0  0  0  0
  147.5812  135.8163  160.2619 N   0  0  0  0  0  0  0  0  0  0  0  0
  146.6505  134.8997  160.9022 C   0  0  0  0  0  0  0  0  0  0  0  0
  146.3053  135.2751  162.3664 C   0  0  2  0  0  0  0  0  0  0  0  0
  147.3611  134.8851  163.2242 O   0  0  0  0  0  0  0  0  0  0  0  0
  145.0121  134.6268  162.8334 C   0  0  0  0  0  0  0  0  0  0  0  0
  143.9479  135.6044  162.3422 C   0  0  0  0  0  0  0  0  0  0  0  0
  144.5689  136.8861  162.3389 O   0  0  0  0  0  0  0  0  0  0  0  0
  145.9681  136.7581  162.5749 C   0  0  0  0  0  0  0  0  0  0  0  0
  150.6151  139.0659  158.4530 C   0  0  0  0  0  0  0  0  0  0  0  0
  151.5934  140.2163  158.0966 C   0  0  2  0  0  0  0  0  0  0  0  0
  152.4913  140.5366  159.2883 C   0  0  0  0  0  0  0  0  0  0  0  0
  152.7961  142.0149  159.1173 C   0  0  0  0  0  0  0  0  0  0  0  0
  151.5434  142.5225  158.7011 O   0  0  0  0  0  0  0  0  0  0  0  0
  150.9888  141.6132  157.7567 C   0  0  2  0  0  0  0  0  0  0  0  0
  149.4600  141.7483  157.7973 C   0  0  0  0  0  0  0  0  0  0  0  0
  152.4648  139.7884  157.0441 O   0  0  0  0  0  0  0  0  0  0  0  0
  152.4126  138.6103  153.9058 H   0  0  0  0  0  0  0  0  0  0  0  0
  153.5175  138.1649  155.2055 H   0  0  0  0  0  0  0  0  0  0  0  0
  153.4965  139.8166  154.5925 H   0  0  0  0  0  0  0  0  0  0  0  0
  151.1877  140.1321  155.4478 H   0  0  0  0  0  0  0  0  0  0  0  0
  150.3648  137.8097  155.3332 H   0  0  0  0  0  0  0  0  0  0  0  0
  151.5123  137.3027  156.5669 H   0  0  0  0  0  0  0  0  0  0  0  0
  146.4572  136.2048  155.9386 H   0  0  0  0  0  0  0  0  0  0  0  0
  148.8565  136.3857  161.9099 H   0  0  0  0  0  0  0  0  0  0  0  0
  145.7460  134.8594  160.2942 H   0  0  0  0  0  0  0  0  0  0  0  0
  147.0837  133.8991  160.8658 H   0  0  0  0  0  0  0  0  0  0  0  0
  147.4365  135.5229  163.9174 H   0  0  0  0  0  0  0  0  0  0  0  0
  144.8690  133.6133  162.4567 H   0  0  0  0  0  0  0  0  0  0  0  0
  144.9783  134.5835  163.9234 H   0  0  0  0  0  0  0  0  0  0  0  0
  143.6441  135.3624  161.3232 H   0  0  0  0  0  0  0  0  0  0  0  0
  143.0566  135.5957  162.9698 H   0  0  0  0  0  0  0  0  0  0  0  0
  146.1450  137.0464  163.6124 H   0  0  0  0  0  0  0  0  0  0  0  0
  146.5455  137.4386  161.9510 H   0  0  0  0  0  0  0  0  0  0  0  0
  149.8959  139.4007  159.1990 H   0  0  0  0  0  0  0  0  0  0  0  0
  151.1737  138.2531  158.9194 H   0  0  0  0  0  0  0  0  0  0  0  0
  151.9458  140.3963  160.2229 H   0  0  0  0  0  0  0  0  0  0  0  0
  153.3888  139.9186  159.3331 H   0  0  0  0  0  0  0  0  0  0  0  0
  153.1379  142.4868  160.0387 H   0  0  0  0  0  0  0  0  0  0  0  0
  153.5445  142.1790  158.3402 H   0  0  0  0  0  0  0  0  0  0  0  0
  151.3406  141.9400  156.7775 H   0  0  0  0  0  0  0  0  0  0  0  0
  148.9814  141.0908  157.0721 H   0  0  0  0  0  0  0  0  0  0  0  0
  149.1589  142.7682  157.5580 H   0  0  0  0  0  0  0  0  0  0  0  0
  149.0651  141.5168  158.7863 H   0  0  0  0  0  0  0  0  0  0  0  0
  1  2  1  0  0  0  0
  1 29  1  0  0  0  0
  1 30  1  0  0  0  0
  1 31  1  0  0  0  0
  2 28  1  0  0  0  0
  2  3  1  0  0  0  0
  2 32  1  0  0  0  0
  3  4  1  0  0  0  0
  3 33  1  0  0  0  0
  3 34  1  0  0  0  0
  4  5  1  0  0  0  0
  4 21  1  0  0  0  0
  5 10  1  0  0  0  0
  5  6  2  0  0  0  0
  6  7  1  0  0  0  0
  7  8  2  0  0  0  0
  7 35  1  0  0  0  0
  8  9  1  0  0  0  0
  9 13  1  0  0  0  0
  9 10  2  0  0  0  0
 10 11  1  0  0  0  0
 11 12  2  0  0  0  0
 12 13  1  0  0  0  0
 12 36  1  0  0  0  0
 13 14  1  0  0  0  0
 14 15  1  0  0  0  0
 14 37  1  0  0  0  0
 14 38  1  0  0  0  0
 15 20  1  0  0  0  0
 15 16  1  0  0  0  0
 15 17  1  0  0  0  0
 16 39  1  0  0  0  0
 17 18  1  0  0  0  0
 17 40  1  0  0  0  0
 17 41  1  0  0  0  0
 18 19  1  0  0  0  0
 18 42  1  0  0  0  0
 18 43  1  0  0  0  0
 19 20  1  0  0  0  0
 20 44  1  0  0  0  0
 20 45  1  0  0  0  0
 21 22  1  0  0  0  0
 21 46  1  0  0  0  0
 21 47  1  0  0  0  0
 22 26  1  0  0  0  0
 22 23  1  0  0  0  0
 22 28  1  0  0  0  0
 23 24  1  0  0  0  0
 23 48  1  0  0  0  0
 23 49  1  0  0  0  0
 24 25  1  0  0  0  0
 24 50  1  0  0  0  0
 24 51  1  0  0  0  0
 25 26  1  0  0  0  0
 26 27  1  0  0  0  0
 26 52  1  0  0  0  0
 27 53  1  0  0  0  0
 27 54  1  0  0  0  0
 27 55  1  0  0  0  0
M  END
> <s_m_source_file>
AV-unprocessed.smi

> <i_m_source_file_index>
281

> <i_lp_mmshare_version>
43012

> <i_f3d_flags>
0

> <s_epik_input>
W0NIM11bQ0BASF0xT1tDSDJdW0NIMl1bQ0BAXTEyW0NIMl1OKFtDSDJdW0NASF0oTzIpW0NIM10pYyhuW2NIXW4zKWMoYzM0KW5bY0hdbjRbQ0gyXVtDQEBdNShbT0hdKVtDSDJdW0NIMl1PW0NIMl01

> <s_epik_cmdline>
J2VwaWtfcHl0aG9uJywgJy1waCcsICc3LjAnLCAnLXRuJywgJzgnLCAnLW1hJywgJzIwMCcsICctbWV0YWxfYmluZGluZycsICctaW1hZScsICc8aW5maWxlLm1hZT4nLCAnLW9tYWUnLCAnPG91dGZpbGUubWFlPic=

> <r_lp_tautomer_probability>
1

> <r_epik_Ionization_Penalty>
0.00571331

> <r_epik_Ionization_Penalty_Charging>
0

> <r_epik_Ionization_Penalty_Neutral>
0.00571331

> <r_epik_State_Penalty>
0.00399586

> <r_epik_Charging_Adjusted_Penalty>
0.00399586

> <i_epik_Tot_Q>
0

> <i_epik_Tot_abs_Q>
0

> <r_epik_Metal_State_Penalty>
-0

> <b_epik_Metal_Only>
0

> <s_lp_Force_Field>
OPLS_2005

> <r_lp_Energy>
53.9998

> <b_lp_Chiralities_Consistent>
1

> <s_lp_Variant>
AV-unprocessed.smi:281-12

> <Gold.Version>
5.8.1

> <Gold.Id.Protein>
6NUR|6NUR_protein|mol2

> <Gold.PLP.Fitness>
40.4192

> <Gold.PLP.PLP>
-38.6083

> <Gold.PLP.part.hbond>
-2.2848

> <Gold.PLP.part.metal>
0.0000

> <Gold.PLP.part.buried>
-6.7733

> <Gold.PLP.part.nonpolar>
-29.5372

> <Gold.PLP.part.repulsive>
0.0404

> <Gold.PLP.ligand.clash>
0.0000

> <Gold.PLP.ligand.torsion>
0.7274

> <Gold.PLP.Chemscore.Hbond>
1.0000

> <Gold.PLP.Chemscore.CHOScore>
0.0000

> <Gold.PLP.Chemscore.Metal>
0.0000

> <Gold.Chemscore.Hbonds>
donor molecule, donor type, donor heavy atom, donor atom, acceptor molecule, acceptor atom, score
      P1  H  7997  8008       L1    28  1.00

> <Gold.PLP.Chemscore.Internal.Correction>
0.2657

> <Gold.Rescore>
     Score         DG    S(hbond)    S(metal)    S(lipo)     H(rot)  DE(clash)    DE(int)     intcor
     11.89     -14.10       0.96        0.00      91.96       2.09       0.07       2.14       ----

> <Gold.Chemscore.Fitness>
11.8870

> <Gold.Chemscore.DG>
-14.1038

> <Gold.Chemscore.ZeroCoef>
-5.4800

> <Gold.Chemscore.Hbond>
0.9645

> <Gold.Chemscore.Metal>
0.0000

> <Gold.Chemscore.Lipo>
91.9633

> <Gold.Chemscore.Internal_Hbond>
0.0000

> <Gold.Chemscore.DEClash>
0.0727

> <Gold.Chemscore.DEInternal>
2.1440

> <Gold.Chemscore.Rot>
2.0927

> <Gold.Chemscore.Internal.Correction>
   9.000000E+99

> <Gold.Chemscore.Hbonds>
donor molecule, donor type, donor heavy atom, donor atom, acceptor molecule, acceptor atom, score
      P1  H  7997  8008       L1    28  0.68

> <Gold.Chemscore.Hbond.Weighted>
-3.2214

> <Gold.Chemscore.Metal.Weighted>
-0.0000

> <Gold.Chemscore.Lipo.Weighted>
-10.7597

> <Gold.Chemscore.Internal_Hbond.Weighted>
0.0000

> <Gold.Chemscore.DEClash.Weighted>
0.0727

> <Gold.Chemscore.DEInternal.Weighted>
2.1440

> <Gold.Chemscore.Rot.Weighted>
5.3573

> <Gold.Chemscore.Internal.Correction.Weighted>
   9.000000E+99

> <Gold.Protein.RotatedTorsions>
[ 6907 6896 6895 6894 ] final  -52.22 input  -60.11 | X-H torsion
[ 7974 7965 7964 7962 ] final   66.20 input  175.53 | X-H torsion
[ 8008 7997 7996 7995 ] final  -60.60 input   59.86 | X-H torsion
[ 10167 10162 10161 10158 ] final    0.32 input  -65.29 | X-H torsion
[ 10718 10713 10712 10709 ] final   -5.48 input   66.30 | X-H torsion
[ 10763 10752 10751 10750 ] final  -95.84 input  -60.55 | X-H torsion
[ 11005 11000 10999 10996 ] final  119.18 input  -57.11 | X-H torsion

> <Gold.Protein.ActiveResidues>
 VAL166  LYS551  ARG553  GLY616  TRP617  ASP618  TYR619  PRO620  LYS621  CYS622 
 ASP623  PHE694  ASN695  SER759  ASP760  ASP761  ALA762  ILE779  LEU786  VAL792 
 PHE793  MET794  SER795  GLU796  ALA797  LYS798  CYS799  TRP800  GLU811  SER814 

> <Gold.Protein.RotatedAtoms>
  150.8538  134.7871  159.7029 H   0  0  0  0  0  0  0  0  0  0  0  0  # atno 6907 bound_to 6896
  152.4596  134.5212  159.9793 H   0  0  0  0  0  0  0  0  0  0  0  0  # atno 6908 bound_to 6896
  151.5328  133.3408  159.2957 H   0  0  0  0  0  0  0  0  0  0  0  0  # atno 6909 bound_to 6896
  145.8295  139.3130  143.0996 H   0  0  0  0  0  0  0  0  0  0  0  0  # atno 7974 bound_to 7965
  154.4407  140.1036  156.6299 H   0  0  0  0  0  0  0  0  0  0  0  0  # atno 8008 bound_to 7997
  155.5616  140.3487  155.4474 H   0  0  0  0  0  0  0  0  0  0  0  0  # atno 8009 bound_to 7997
  156.0456  140.1292  157.0097 H   0  0  0  0  0  0  0  0  0  0  0  0  # atno 8010 bound_to 7997
  140.6734  143.6985  150.7970 H   0  0  0  0  0  0  0  0  0  0  0  0  # atno 10167 bound_to 10162
  156.7459  130.5224  149.5814 H   0  0  0  0  0  0  0  0  0  0  0  0  # atno 10718 bound_to 10713
  154.7185  135.5106  153.8775 H   0  0  0  0  0  0  0  0  0  0  0  0  # atno 10763 bound_to 10752
  153.0841  135.6640  153.9993 H   0  0  0  0  0  0  0  0  0  0  0  0  # atno 10764 bound_to 10752
  153.9821  135.3028  155.3398 H   0  0  0  0  0  0  0  0  0  0  0  0  # atno 10765 bound_to 10752
  139.9137  134.9626  156.7616 H   0  0  0  0  0  0  0  0  0  0  0  0  # atno 11005 bound_to 11000
  145.9587  140.8852  143.0222 LP  0  0  0  0  0  0  0  0  0  0  0  0  # atno 17320 bound_to 7965
  144.6741  140.1782  143.7408 LP  0  0  0  0  0  0  0  0  0  0  0  0  # atno 17321 bound_to 7965
  140.0675  143.5094  152.2597 LP  0  0  0  0  0  0  0  0  0  0  0  0  # atno 17342 bound_to 10162
  139.6013  144.7583  151.3165 LP  0  0  0  0  0  0  0  0  0  0  0  0  # atno 17343 bound_to 10162
  156.1433  130.6260  151.0497 LP  0  0  0  0  0  0  0  0  0  0  0  0  # atno 17370 bound_to 10713
  157.6798  131.0841  150.7399 LP  0  0  0  0  0  0  0  0  0  0  0  0  # atno 17371 bound_to 10713
  140.6692  133.9575  155.7847 LP  0  0  0  0  0  0  0  0  0  0  0  0  # atno 17394 bound_to 11000
  141.0589  134.0375  157.3685 LP  0  0  0  0  0  0  0  0  0  0  0  0  # atno 17395 bound_to 11000

$$$$
