AV-unprocessed.smi:653|AV-procd|sdf|3210|dock9
  -GOLD-   22720 0143D 1   1.00000     0.00000
 Structure written by MMmdl.
 45 46  0  0  0  0  0  0  0  0  2 V2000
  146.2993  141.9863  153.6982 C   0  0  0  0  0  0  0  0  0  0  0  0
  147.5315  141.1621  154.0068 C   0  0  0  0  0  0  0  0  0  0  0  0
  147.5776  139.7686  153.7879 C   0  0  0  0  0  0  0  0  0  0  0  0
  148.7604  139.0624  154.0902 C   0  0  0  0  0  0  0  0  0  0  0  0
  149.8736  139.7628  154.6055 C   0  0  0  0  0  0  0  0  0  0  0  0
  151.1649  139.0318  154.9350 C   0  0  0  0  0  0  0  0  0  0  0  0
  151.4703  139.0676  156.4367 C   0  0  0  0  0  0  0  0  0  0  0  0
  151.5441  138.0256  157.0899 O   0  0  0  0  0  0  0  0  0  0  0  0
  151.6506  140.2841  156.9724 N   0  0  0  0  0  0  0  0  0  0  0  0
  151.9457  140.5467  158.3773 C   0  0  0  0  0  0  0  0  0  0  0  0
  153.3805  141.0936  158.5849 C   0  0  2  0  0  0  0  0  0  0  0  0
  154.1237  140.3709  159.7006 C   0  0  0  0  0  0  0  0  0  0  0  0
  153.7275  141.1498  160.9578 C   0  0  0  0  0  0  0  0  0  0  0  0
  153.1576  142.3732  160.5014 O   0  0  0  0  0  0  0  0  0  0  0  0
  153.4430  142.5353  159.1183 C   0  0  2  0  0  0  0  0  0  0  0  0
  152.5111  143.5791  158.4616 C   0  0  0  0  0  0  0  0  0  0  0  0
  152.8830  143.8268  156.9893 C   0  0  0  0  0  0  0  0  0  0  0  0
  152.5342  144.9050  159.2390 C   0  0  0  0  0  0  0  0  0  0  0  0
  149.7682  141.1566  154.8053 C   0  0  0  0  0  0  0  0  0  0  0  0
  148.6182  141.7968  154.5009 N   0  3  0  0  0  0  0  0  0  0  0  0
  145.4013  141.3688  153.7339 H   0  0  0  0  0  0  0  0  0  0  0  0
  146.3770  142.4216  152.7016 H   0  0  0  0  0  0  0  0  0  0  0  0
  146.1820  142.7954  154.4198 H   0  0  0  0  0  0  0  0  0  0  0  0
  146.7196  139.2457  153.3907 H   0  0  0  0  0  0  0  0  0  0  0  0
  148.8123  137.9962  153.9240 H   0  0  0  0  0  0  0  0  0  0  0  0
  151.0946  137.9928  154.6112 H   0  0  0  0  0  0  0  0  0  0  0  0
  151.9862  139.4830  154.3757 H   0  0  0  0  0  0  0  0  0  0  0  0
  151.5782  141.0878  156.3652 H   0  0  0  0  0  0  0  0  0  0  0  0
  151.2011  141.2420  158.7655 H   0  0  0  0  0  0  0  0  0  0  0  0
  151.8105  139.6170  158.9308 H   0  0  0  0  0  0  0  0  0  0  0  0
  153.9322  141.0161  157.6471 H   0  0  0  0  0  0  0  0  0  0  0  0
  153.8961  139.3074  159.7737 H   0  0  0  0  0  0  0  0  0  0  0  0
  155.1989  140.4626  159.5403 H   0  0  0  0  0  0  0  0  0  0  0  0
  152.9845  140.6086  161.5440 H   0  0  0  0  0  0  0  0  0  0  0  0
  154.5909  141.3403  161.5958 H   0  0  0  0  0  0  0  0  0  0  0  0
  154.4734  142.8891  159.0389 H   0  0  0  0  0  0  0  0  0  0  0  0
  151.4863  143.2093  158.4964 H   0  0  0  0  0  0  0  0  0  0  0  0
  153.9012  144.2064  156.8985 H   0  0  0  0  0  0  0  0  0  0  0  0
  152.2145  144.5577  156.5337 H   0  0  0  0  0  0  0  0  0  0  0  0
  152.8164  142.9152  156.3957 H   0  0  0  0  0  0  0  0  0  0  0  0
  153.5365  145.3336  159.2654 H   0  0  0  0  0  0  0  0  0  0  0  0
  152.2043  144.7665  160.2688 H   0  0  0  0  0  0  0  0  0  0  0  0
  151.8705  145.6399  158.7824 H   0  0  0  0  0  0  0  0  0  0  0  0
  150.5655  141.7761  155.1900 H   0  0  0  0  0  0  0  0  0  0  0  0
  148.5686  142.8051  154.6487 H   0  0  0  0  0  0  0  0  0  0  0  0
  1  2  1  0  0  0  0
  1 21  1  0  0  0  0
  1 22  1  0  0  0  0
  1 23  1  0  0  0  0
  2 20  1  0  0  0  0
  2  3  2  0  0  0  0
  3  4  1  0  0  0  0
  3 24  1  0  0  0  0
  4  5  2  0  0  0  0
  4 25  1  0  0  0  0
  5  6  1  0  0  0  0
  5 19  1  0  0  0  0
  6  7  1  0  0  0  0
  6 26  1  0  0  0  0
  6 27  1  0  0  0  0
  7  8  2  0  0  0  0
  7  9  1  0  0  0  0
  9 10  1  0  0  0  0
  9 28  1  0  0  0  0
 10 11  1  0  0  0  0
 10 29  1  0  0  0  0
 10 30  1  0  0  0  0
 11 15  1  0  0  0  0
 11 12  1  0  0  0  0
 11 31  1  0  0  0  0
 12 13  1  0  0  0  0
 12 32  1  0  0  0  0
 12 33  1  0  0  0  0
 13 14  1  0  0  0  0
 13 34  1  0  0  0  0
 13 35  1  0  0  0  0
 14 15  1  0  0  0  0
 15 16  1  0  0  0  0
 15 36  1  0  0  0  0
 16 17  1  0  0  0  0
 16 18  1  0  0  0  0
 16 37  1  0  0  0  0
 17 38  1  0  0  0  0
 17 39  1  0  0  0  0
 17 40  1  0  0  0  0
 18 41  1  0  0  0  0
 18 42  1  0  0  0  0
 18 43  1  0  0  0  0
 19 20  2  0  0  0  0
 19 44  1  0  0  0  0
 20 45  1  0  0  0  0
M  CHG  1  20   1
M  END
> <s_m_source_file>
AV-unprocessed.smi

> <i_m_source_file_index>
653

> <i_lp_mmshare_version>
43012

> <i_f3d_flags>
0

> <s_epik_input>
W0NIM11jMVtjSF1bY0hdYyhbY0hdbjEpW0NIMl1DKD1PKVtOSF1bQ0gyXVtDQEBIXTJbQ0gyXVtDSDJdT1tDQEhdMltDSF0oW0NIM10pW0NIM10=

> <s_epik_cmdline>
J2VwaWtfcHl0aG9uJywgJy1waCcsICc3LjAnLCAnLXRuJywgJzgnLCAnLW1hJywgJzIwMCcsICctbWV0YWxfYmluZGluZycsICctaW1hZScsICc8aW5maWxlLm1hZT4nLCAnLW9tYWUnLCAnPG91dGZpbGUubWFlPic=

> <r_epik_Ionization_Penalty>
2.12486

> <r_epik_Ionization_Penalty_Charging>
2.12486

> <r_epik_Ionization_Penalty_Neutral>
9.0873e-08

> <r_epik_State_Penalty>
2.26279

> <r_epik_Charging_Adjusted_Penalty>
4.38765

> <i_epik_Tot_Q>
1

> <i_epik_Tot_abs_Q>
1

> <r_epik_Metal_State_Penalty>
2.27914

> <b_epik_Metal_Only>
0

> <s_lp_Force_Field>
OPLS_2005

> <r_lp_Energy>
28.354

> <b_lp_Chiralities_Consistent>
1

> <s_lp_Variant>
AV-unprocessed.smi:653-7

> <Gold.Version>
5.8.1

> <Gold.Id.Protein>
6NUR|6NUR_protein|mol2

> <Gold.PLP.Fitness>
57.4331

> <Gold.PLP.PLP>
-52.9974

> <Gold.PLP.part.hbond>
-1.0000

> <Gold.PLP.part.metal>
0.0000

> <Gold.PLP.part.buried>
-4.5751

> <Gold.PLP.part.nonpolar>
-46.6710

> <Gold.PLP.part.repulsive>
0.3873

> <Gold.PLP.ligand.clash>
0.0000

> <Gold.PLP.ligand.torsion>
0.8112

> <Gold.PLP.Chemscore.Hbond>
2.0000

> <Gold.PLP.Chemscore.CHOScore>
0.0000

> <Gold.PLP.Chemscore.Metal>
0.0000

> <Gold.Chemscore.Hbonds>
donor molecule, donor type, donor heavy atom, donor atom, acceptor molecule, acceptor atom, score
      L1  H    20    45       P1  8028  1.33

> <Gold.PLP.Chemscore.Internal.Correction>
0.0582

> <Gold.Rescore>
     Score         DG    S(hbond)    S(metal)    S(lipo)     H(rot)  DE(clash)    DE(int)     intcor
     18.96     -20.81       0.94        0.00     138.41       1.57       0.12       1.73       ----

> <Gold.Chemscore.Fitness>
18.9580

> <Gold.Chemscore.DG>
-20.8061

> <Gold.Chemscore.ZeroCoef>
-5.4800

> <Gold.Chemscore.Hbond>
0.9436

> <Gold.Chemscore.Metal>
0.0000

> <Gold.Chemscore.Lipo>
138.4114

> <Gold.Chemscore.Internal_Hbond>
0.0000

> <Gold.Chemscore.DEClash>
0.1195

> <Gold.Chemscore.DEInternal>
1.7286

> <Gold.Chemscore.Rot>
1.5701

> <Gold.Chemscore.Internal.Correction>
   9.000000E+99

> <Gold.Chemscore.Hbonds>
donor molecule, donor type, donor heavy atom, donor atom, acceptor molecule, acceptor atom, score
      L1  H    20    45       P1  8028  0.66

> <Gold.Chemscore.Hbond.Weighted>
-3.1515

> <Gold.Chemscore.Metal.Weighted>
-0.0000

> <Gold.Chemscore.Lipo.Weighted>
-16.1941

> <Gold.Chemscore.Internal_Hbond.Weighted>
0.0000

> <Gold.Chemscore.DEClash.Weighted>
0.1195

> <Gold.Chemscore.DEInternal.Weighted>
1.7286

> <Gold.Chemscore.Rot.Weighted>
4.0196

> <Gold.Chemscore.Internal.Correction.Weighted>
   9.000000E+99

> <Gold.Protein.RotatedTorsions>
[ 6907 6896 6895 6894 ] final  101.35 input  -60.11 | X-H torsion
[ 7974 7965 7964 7962 ] final -125.26 input  175.53 | X-H torsion
[ 8008 7997 7996 7995 ] final  -69.90 input   59.86 | X-H torsion
[ 10167 10162 10161 10158 ] final  -72.79 input  -65.29 | X-H torsion
[ 10718 10713 10712 10709 ] final  -67.57 input   66.30 | X-H torsion
[ 10763 10752 10751 10750 ] final   58.73 input  -60.55 | X-H torsion
[ 11005 11000 10999 10996 ] final  -57.55 input  -57.11 | X-H torsion

> <Gold.Protein.ActiveResidues>
 VAL166  LYS551  ARG553  GLY616  TRP617  ASP618  TYR619  PRO620  LYS621  CYS622 
 ASP623  PHE694  ASN695  SER759  ASP760  ASP761  ALA762  ILE779  LEU786  VAL792 
 PHE793  MET794  SER795  GLU796  ALA797  LYS798  CYS799  TRP800  GLU811  SER814 

> <Gold.Protein.RotatedAtoms>
  152.5351  134.0139  159.7950 H   0  0  0  0  0  0  0  0  0  0  0  0  # atno 6907 bound_to 6896
  151.0336  133.5760  159.2665 H   0  0  0  0  0  0  0  0  0  0  0  0  # atno 6908 bound_to 6896
  151.2755  135.0705  159.9204 H   0  0  0  0  0  0  0  0  0  0  0  0  # atno 6909 bound_to 6896
  144.9994  140.7806  143.4505 H   0  0  0  0  0  0  0  0  0  0  0  0  # atno 7974 bound_to 7965
  154.4972  140.0844  156.7722 H   0  0  0  0  0  0  0  0  0  0  0  0  # atno 8008 bound_to 7997
  155.4087  140.3440  155.4244 H   0  0  0  0  0  0  0  0  0  0  0  0  # atno 8009 bound_to 7997
  156.1410  140.1529  156.8909 H   0  0  0  0  0  0  0  0  0  0  0  0  # atno 8010 bound_to 7997
  140.5163  143.2337  151.7506 H   0  0  0  0  0  0  0  0  0  0  0  0  # atno 10167 bound_to 10162
  156.0550  130.4280  150.1874 H   0  0  0  0  0  0  0  0  0  0  0  0  # atno 10718 bound_to 10713
  152.9877  135.5596  154.5600 H   0  0  0  0  0  0  0  0  0  0  0  0  # atno 10763 bound_to 10752
  154.5021  135.2798  155.1414 H   0  0  0  0  0  0  0  0  0  0  0  0  # atno 10764 bound_to 10752
  154.2841  135.6339  153.5411 H   0  0  0  0  0  0  0  0  0  0  0  0  # atno 10765 bound_to 10752
  141.1169  133.6610  156.4786 H   0  0  0  0  0  0  0  0  0  0  0  0  # atno 11005 bound_to 11000
  145.2174  139.2175  143.5111 LP  0  0  0  0  0  0  0  0  0  0  0  0  # atno 17320 bound_to 7965
  146.3449  140.2025  142.8589 LP  0  0  0  0  0  0  0  0  0  0  0  0  # atno 17321 bound_to 7965
  139.4910  144.4318  151.9863 LP  0  0  0  0  0  0  0  0  0  0  0  0  # atno 17342 bound_to 10162
  140.3413  144.3200  150.5967 LP  0  0  0  0  0  0  0  0  0  0  0  0  # atno 17343 bound_to 10162
  156.9952  130.9905  151.3405 LP  0  0  0  0  0  0  0  0  0  0  0  0  # atno 17370 bound_to 10713
  157.5512  130.8184  149.8148 LP  0  0  0  0  0  0  0  0  0  0  0  0  # atno 17371 bound_to 10713
  140.4619  134.6833  157.5089 LP  0  0  0  0  0  0  0  0  0  0  0  0  # atno 17394 bound_to 11000
  140.0098  134.6708  155.9398 LP  0  0  0  0  0  0  0  0  0  0  0  0  # atno 17395 bound_to 11000

$$$$
