AV-unprocessed.smi:1161|AV-procd|sdf|4917|dock2
  -GOLD-   22720 3493D 1   1.00000     0.00000
 Structure written by MMmdl.
 46 47  0  0  0  0  0  0  0  0  1 V2000
  146.5512  133.1531  150.6617 C   0  0  0  0  0  0  0  0  0  0  0  0
  146.7189  133.7384  152.0736 C   0  0  0  0  0  0  0  0  0  0  0  0
  147.5705  132.8876  153.0533 C   0  0  1  0  0  0  0  0  0  0  0  0
  146.8839  131.5545  153.4091 C   0  0  0  0  0  0  0  0  0  0  0  0
  148.7972  132.5537  152.4308 O   0  0  0  0  0  0  0  0  0  0  0  0
  147.9179  133.6382  154.3643 C   0  0  0  0  0  0  0  0  0  0  0  0
  148.5408  134.9418  154.1381 N   0  0  0  0  0  0  0  0  0  0  0  0
  148.9521  135.7888  155.0926 C   0  0  0  0  0  0  0  0  0  0  0  0
  148.8637  135.5512  156.2968 O   0  0  0  0  0  0  0  0  0  0  0  0
  149.4719  136.9061  154.5558 N   0  0  0  0  0  0  0  0  0  0  0  0
  150.0224  138.0367  155.2184 C   0  0  0  0  0  0  0  0  0  0  0  0
  150.2967  137.9244  156.5962 C   0  0  0  0  0  0  0  0  0  0  0  0
  150.8487  139.0238  157.2803 C   0  0  0  0  0  0  0  0  0  0  0  0
  151.1178  140.2069  156.5554 C   0  0  0  0  0  0  0  0  0  0  0  0
  151.6556  141.3426  157.1750 N   0  0  0  0  0  0  0  0  0  0  0  0
  150.7842  142.5086  157.1101 C   0  0  0  0  0  0  0  0  0  0  0  0
  151.5062  143.7357  157.6923 C   0  0  0  0  0  0  0  0  0  0  0  0
  151.9333  143.4506  159.0218 O   0  0  0  0  0  0  0  0  0  0  0  0
  152.8438  142.3554  159.0677 C   0  0  0  0  0  0  0  0  0  0  0  0
  152.1598  141.0910  158.5190 C   0  0  0  0  0  0  0  0  0  0  0  0
  150.8765  140.3176  155.2317 N   0  0  0  0  0  0  0  0  0  0  0  0
  150.3466  139.2596  154.5813 C   0  0  0  0  0  0  0  0  0  0  0  0
  146.0057  133.8482  150.0232 H   0  0  0  0  0  0  0  0  0  0  0  0
  145.9892  132.2197  150.6746 H   0  0  0  0  0  0  0  0  0  0  0  0
  147.5151  132.9626  150.1897 H   0  0  0  0  0  0  0  0  0  0  0  0
  147.1593  134.7301  151.9664 H   0  0  0  0  0  0  0  0  0  0  0  0
  145.7293  133.8970  152.5044 H   0  0  0  0  0  0  0  0  0  0  0  0
  145.9003  131.7244  153.8483 H   0  0  0  0  0  0  0  0  0  0  0  0
  147.4712  130.9866  154.1318 H   0  0  0  0  0  0  0  0  0  0  0  0
  146.7505  130.9150  152.5365 H   0  0  0  0  0  0  0  0  0  0  0  0
  148.6149  132.0005  151.6869 H   0  0  0  0  0  0  0  0  0  0  0  0
  147.0134  133.7570  154.9634 H   0  0  0  0  0  0  0  0  0  0  0  0
  148.5941  133.0405  154.9770 H   0  0  0  0  0  0  0  0  0  0  0  0
  148.6507  135.2249  153.1753 H   0  0  0  0  0  0  0  0  0  0  0  0
  149.5328  136.9243  153.5485 H   0  0  0  0  0  0  0  0  0  0  0  0
  150.0812  137.0089  157.1278 H   0  0  0  0  0  0  0  0  0  0  0  0
  151.0566  138.9565  158.3381 H   0  0  0  0  0  0  0  0  0  0  0  0
  150.4970  142.6982  156.0752 H   0  0  0  0  0  0  0  0  0  0  0  0
  149.8681  142.3195  157.6712 H   0  0  0  0  0  0  0  0  0  0  0  0
  152.3623  144.0123  157.0748 H   0  0  0  0  0  0  0  0  0  0  0  0
  150.8348  144.5941  157.7101 H   0  0  0  0  0  0  0  0  0  0  0  0
  153.7419  142.5916  158.4944 H   0  0  0  0  0  0  0  0  0  0  0  0
  153.1571  142.1965  160.0994 H   0  0  0  0  0  0  0  0  0  0  0  0
  151.3384  140.8007  159.1750 H   0  0  0  0  0  0  0  0  0  0  0  0
  152.8673  140.2610  158.4987 H   0  0  0  0  0  0  0  0  0  0  0  0
  150.2035  139.4121  153.5234 H   0  0  0  0  0  0  0  0  0  0  0  0
  1  2  1  0  0  0  0
  1 23  1  0  0  0  0
  1 24  1  0  0  0  0
  1 25  1  0  0  0  0
  2  3  1  0  0  0  0
  2 26  1  0  0  0  0
  2 27  1  0  0  0  0
  3  4  1  0  0  0  0
  3  5  1  0  0  0  0
  3  6  1  0  0  0  0
  4 28  1  0  0  0  0
  4 29  1  0  0  0  0
  4 30  1  0  0  0  0
  5 31  1  0  0  0  0
  6  7  1  0  0  0  0
  6 32  1  0  0  0  0
  6 33  1  0  0  0  0
  7  8  1  0  0  0  0
  7 34  1  0  0  0  0
  8  9  2  0  0  0  0
  8 10  1  0  0  0  0
 10 11  1  0  0  0  0
 10 35  1  0  0  0  0
 11 22  1  0  0  0  0
 11 12  2  0  0  0  0
 12 13  1  0  0  0  0
 12 36  1  0  0  0  0
 13 14  2  0  0  0  0
 13 37  1  0  0  0  0
 14 15  1  0  0  0  0
 14 21  1  0  0  0  0
 15 20  1  0  0  0  0
 15 16  1  0  0  0  0
 16 17  1  0  0  0  0
 16 38  1  0  0  0  0
 16 39  1  0  0  0  0
 17 18  1  0  0  0  0
 17 40  1  0  0  0  0
 17 41  1  0  0  0  0
 18 19  1  0  0  0  0
 19 20  1  0  0  0  0
 19 42  1  0  0  0  0
 19 43  1  0  0  0  0
 20 44  1  0  0  0  0
 20 45  1  0  0  0  0
 21 22  2  0  0  0  0
 22 46  1  0  0  0  0
M  END
> <s_m_source_file>
AV-unprocessed.smi

> <i_m_source_file_index>
1161

> <i_lp_mmshare_version>
43012

> <i_f3d_flags>
0

> <s_epik_input>
W0NIM11bQ0gyXVtDQEBdKFtDSDNdKShbT0hdKVtDSDJdW05IXUMoPU8pW05IXWMxW2NIXVtjSF1jKG5bY0hdMSlOMltDSDJdW0NIMl1PW0NIMl1bQ0gyXTI=

> <s_epik_cmdline>
J2VwaWtfcHl0aG9uJywgJy1waCcsICc3LjAnLCAnLXRuJywgJzgnLCAnLW1hJywgJzIwMCcsICctbWV0YWxfYmluZGluZycsICctaW1hZScsICc8aW5maWxlLm1hZT4nLCAnLW9tYWUnLCAnPG91dGZpbGUubWFlPic=

> <r_lp_tautomer_probability>
1

> <r_epik_Ionization_Penalty>
0.00208949

> <r_epik_Ionization_Penalty_Charging>
0

> <r_epik_Ionization_Penalty_Neutral>
0.00208949

> <r_epik_State_Penalty>
0.00140033

> <r_epik_Charging_Adjusted_Penalty>
0.00140033

> <i_epik_Tot_Q>
0

> <i_epik_Tot_abs_Q>
0

> <r_epik_Metal_State_Penalty>
-0

> <b_epik_Metal_Only>
0

> <s_lp_Force_Field>
OPLS_2005

> <r_lp_Energy>
26.851

> <b_lp_Chiralities_Consistent>
1

> <s_lp_Variant>
AV-unprocessed.smi:1161-1

> <Gold.Version>
5.8.1

> <Gold.Id.Protein>
6NUR|6NUR_protein|mol2

> <Gold.PLP.Fitness>
45.1769

> <Gold.PLP.PLP>
-32.5299

> <Gold.PLP.part.hbond>
-4.0000

> <Gold.PLP.part.metal>
0.0000

> <Gold.PLP.part.buried>
-3.9664

> <Gold.PLP.part.nonpolar>
-24.8475

> <Gold.PLP.part.repulsive>
0.1039

> <Gold.PLP.ligand.clash>
0.2362

> <Gold.PLP.ligand.torsion>
0.2549

> <Gold.PLP.Chemscore.Hbond>
3.3920

> <Gold.PLP.Chemscore.CHOScore>
1.0000

> <Gold.PLP.Chemscore.Metal>
0.0000

> <Gold.Chemscore.Hbonds>
donor molecule, donor type, donor heavy atom, donor atom, acceptor molecule, acceptor atom, score
      L1  H     5    31       P1 10747  1.00
      L1  H     7    34       P1  7948  1.00
      L1  H    10    35       P1  7948  0.99
      P1  H  7989  7998       L1    21  0.35
      L1  C    22    46       P1  7957  1.00

> <Gold.PLP.Chemscore.Internal.Correction>
0.2169

> <Gold.Rescore>
     Score         DG    S(hbond)    S(metal)    S(lipo)     H(rot)  DE(clash)    DE(int)     intcor
     17.15     -18.75       2.65        0.00      84.97       2.16       0.05       1.55       ----

> <Gold.Chemscore.Fitness>
17.1491

> <Gold.Chemscore.DG>
-18.7504

> <Gold.Chemscore.ZeroCoef>
-5.4800

> <Gold.Chemscore.Hbond>
2.6548

> <Gold.Chemscore.Metal>
0.0000

> <Gold.Chemscore.Lipo>
84.9682

> <Gold.Chemscore.Internal_Hbond>
0.0000

> <Gold.Chemscore.DEClash>
0.0529

> <Gold.Chemscore.DEInternal>
1.5484

> <Gold.Chemscore.Rot>
2.1633

> <Gold.Chemscore.Internal.Correction>
   9.000000E+99

> <Gold.Chemscore.Hbonds>
donor molecule, donor type, donor heavy atom, donor atom, acceptor molecule, acceptor atom, score
      L1  H     5    31       P1 10747  0.98
      L1  H     7    34       P1  7948  0.78
      L1  H    10    35       P1  7948  0.77
      P1  H  7989  7998       L1    21  0.01

> <Gold.Chemscore.Hbond.Weighted>
-8.8670

> <Gold.Chemscore.Metal.Weighted>
-0.0000

> <Gold.Chemscore.Lipo.Weighted>
-9.9413

> <Gold.Chemscore.Internal_Hbond.Weighted>
0.0000

> <Gold.Chemscore.DEClash.Weighted>
0.0529

> <Gold.Chemscore.DEInternal.Weighted>
1.5484

> <Gold.Chemscore.Rot.Weighted>
5.5379

> <Gold.Chemscore.Internal.Correction.Weighted>
   9.000000E+99

> <Gold.Protein.RotatedTorsions>
[ 6907 6896 6895 6894 ] final -134.09 input  -60.11 | X-H torsion
[ 7974 7965 7964 7962 ] final  -84.66 input  175.53 | X-H torsion
[ 8008 7997 7996 7995 ] final  -61.12 input   59.86 | X-H torsion
[ 10167 10162 10161 10158 ] final  -93.46 input  -65.29 | X-H torsion
[ 10718 10713 10712 10709 ] final  -10.97 input   66.30 | X-H torsion
[ 10763 10752 10751 10750 ] final  171.07 input  -60.55 | X-H torsion
[ 11005 11000 10999 10996 ] final -125.67 input  -57.11 | X-H torsion

> <Gold.Protein.ActiveResidues>
 VAL166  LYS551  ARG553  GLY616  TRP617  ASP618  TYR619  PRO620  LYS621  CYS622 
 ASP623  PHE694  ASN695  SER759  ASP760  ASP761  ALA762  ILE779  LEU786  VAL792 
 PHE793  MET794  SER795  GLU796  ALA797  LYS798  CYS799  TRP800  GLU811  SER814 

> <Gold.Protein.RotatedAtoms>
  150.9817  133.6238  159.2721 H   0  0  0  0  0  0  0  0  0  0  0  0  # atno 6907 bound_to 6896
  151.3491  135.0879  159.9406 H   0  0  0  0  0  0  0  0  0  0  0  0  # atno 6908 bound_to 6896
  152.5218  133.9413  159.7682 H   0  0  0  0  0  0  0  0  0  0  0  0  # atno 6909 bound_to 6896
  145.5037  140.9545  143.1745 H   0  0  0  0  0  0  0  0  0  0  0  0  # atno 7974 bound_to 7965
  154.4432  140.1024  156.6381 H   0  0  0  0  0  0  0  0  0  0  0  0  # atno 8008 bound_to 7997
  155.5532  140.3486  155.4455 H   0  0  0  0  0  0  0  0  0  0  0  0  # atno 8009 bound_to 7997
  156.0514  140.1305  157.0035 H   0  0  0  0  0  0  0  0  0  0  0  0  # atno 8010 bound_to 7997
  140.3245  143.3030  152.0010 H   0  0  0  0  0  0  0  0  0  0  0  0  # atno 10167 bound_to 10162
  156.6658  130.4995  149.6016 H   0  0  0  0  0  0  0  0  0  0  0  0  # atno 10718 bound_to 10713
  154.4066  135.2755  155.2063 H   0  0  0  0  0  0  0  0  0  0  0  0  # atno 10763 bound_to 10752
  154.4067  135.6032  153.5932 H   0  0  0  0  0  0  0  0  0  0  0  0  # atno 10764 bound_to 10752
  152.9831  135.5939  154.4341 H   0  0  0  0  0  0  0  0  0  0  0  0  # atno 10765 bound_to 10752
  140.9743  134.0761  157.3835 H   0  0  0  0  0  0  0  0  0  0  0  0  # atno 11005 bound_to 11000
  144.7766  139.6617  143.7172 LP  0  0  0  0  0  0  0  0  0  0  0  0  # atno 17320 bound_to 7965
  146.2210  139.5636  142.9618 LP  0  0  0  0  0  0  0  0  0  0  0  0  # atno 17321 bound_to 7965
  139.4868  144.6285  151.7117 LP  0  0  0  0  0  0  0  0  0  0  0  0  # atno 17342 bound_to 10162
  140.5454  144.0512  150.6105 LP  0  0  0  0  0  0  0  0  0  0  0  0  # atno 17343 bound_to 10162
  156.1976  130.6599  151.1131 LP  0  0  0  0  0  0  0  0  0  0  0  0  # atno 17370 bound_to 10713
  157.7094  131.0741  150.6554 LP  0  0  0  0  0  0  0  0  0  0  0  0  # atno 17371 bound_to 10713
  139.8924  135.0125  156.6846 LP  0  0  0  0  0  0  0  0  0  0  0  0  # atno 17394 bound_to 11000
  140.7281  133.9082  155.8193 LP  0  0  0  0  0  0  0  0  0  0  0  0  # atno 17395 bound_to 11000

$$$$
