AV-unprocessed.smi:2787|AV-procd|sdf|10756|dock5
  -GOLD-   2272015183D 1   1.00000     0.00000
 Structure written by MMmdl.
 35 36  0  0  0  0  0  0  0  0  1 V2000
  152.2695  136.9185  154.0803 O   0  0  0  0  0  0  0  0  0  0  0  0
  151.0924  137.4943  154.6071 C   0  0  0  0  0  0  0  0  0  0  0  0
  151.4124  138.8173  155.3171 C   0  0  0  0  0  0  0  0  0  0  0  0
  150.5052  139.0872  156.5297 C   0  0  0  0  0  0  0  0  0  0  0  0
  150.8266  140.3825  157.2159 C   0  0  0  0  0  0  0  0  0  0  0  0
  152.0478  140.6260  157.6932 N   0  0  0  0  0  0  0  0  0  0  0  0
  151.9248  141.8969  158.2174 C   0  0  0  0  0  0  0  0  0  0  0  0
  152.8755  142.7184  158.8643 C   0  0  0  0  0  0  0  0  0  0  0  0
  152.5155  144.0029  159.3212 C   0  0  0  0  0  0  0  0  0  0  0  0
  151.2031  144.4837  159.1371 C   0  0  0  0  0  0  0  0  0  0  0  0
  150.2405  143.6807  158.4954 C   0  0  0  0  0  0  0  0  0  0  0  0
  150.6041  142.3979  158.0422 C   0  0  0  0  0  0  0  0  0  0  0  0
  149.9172  141.3775  157.3891 N   0  0  0  0  0  0  0  0  0  0  0  0
  148.5117  141.4084  156.9993 C   0  0  0  0  0  0  0  0  0  0  0  0
  148.2885  141.0547  155.5147 C   0  0  2  0  0  0  0  0  0  0  0  0
  149.0442  141.9318  154.7004 O   0  0  0  0  0  0  0  0  0  0  0  0
  146.8062  141.1219  155.0997 C   0  0  0  0  0  0  0  0  0  0  0  0
  146.6787  140.8368  153.8035 F   0  0  0  0  0  0  0  0  0  0  0  0
  146.1122  140.2171  155.7901 F   0  0  0  0  0  0  0  0  0  0  0  0
  146.2943  142.3288  155.3443 F   0  0  0  0  0  0  0  0  0  0  0  0
  152.1013  136.6530  153.1890 H   0  0  0  0  0  0  0  0  0  0  0  0
  150.3697  137.6479  153.8051 H   0  0  0  0  0  0  0  0  0  0  0  0
  150.6489  136.7897  155.3110 H   0  0  0  0  0  0  0  0  0  0  0  0
  152.4501  138.7927  155.6515 H   0  0  0  0  0  0  0  0  0  0  0  0
  151.3475  139.6390  154.6039 H   0  0  0  0  0  0  0  0  0  0  0  0
  149.4600  139.0655  156.2274 H   0  0  0  0  0  0  0  0  0  0  0  0
  150.6189  138.2809  157.2553 H   0  0  0  0  0  0  0  0  0  0  0  0
  153.8836  142.3593  159.0089 H   0  0  0  0  0  0  0  0  0  0  0  0
  153.2503  144.6225  159.8143 H   0  0  0  0  0  0  0  0  0  0  0  0
  150.9357  145.4696  159.4885 H   0  0  0  0  0  0  0  0  0  0  0  0
  149.2356  144.0492  158.3520 H   0  0  0  0  0  0  0  0  0  0  0  0
  147.9481  140.7386  157.6477 H   0  0  0  0  0  0  0  0  0  0  0  0
  148.1204  142.4051  157.2036 H   0  0  0  0  0  0  0  0  0  0  0  0
  148.6490  140.0439  155.3287 H   0  0  0  0  0  0  0  0  0  0  0  0
  148.7068  142.8077  154.8103 H   0  0  0  0  0  0  0  0  0  0  0  0
  1  2  1  0  0  0  0
  1 21  1  0  0  0  0
  2  3  1  0  0  0  0
  2 22  1  0  0  0  0
  2 23  1  0  0  0  0
  3  4  1  0  0  0  0
  3 24  1  0  0  0  0
  3 25  1  0  0  0  0
  4  5  1  0  0  0  0
  4 26  1  0  0  0  0
  4 27  1  0  0  0  0
  5 13  1  0  0  0  0
  5  6  2  0  0  0  0
  6  7  1  0  0  0  0
  7 12  2  0  0  0  0
  7  8  1  0  0  0  0
  8  9  2  0  0  0  0
  8 28  1  0  0  0  0
  9 10  1  0  0  0  0
  9 29  1  0  0  0  0
 10 11  2  0  0  0  0
 10 30  1  0  0  0  0
 11 12  1  0  0  0  0
 11 31  1  0  0  0  0
 12 13  1  0  0  0  0
 13 14  1  0  0  0  0
 14 15  1  0  0  0  0
 14 32  1  0  0  0  0
 14 33  1  0  0  0  0
 15 16  1  0  0  0  0
 15 17  1  0  0  0  0
 15 34  1  0  0  0  0
 16 35  1  0  0  0  0
 17 18  1  0  0  0  0
 17 19  1  0  0  0  0
 17 20  1  0  0  0  0
M  END
> <s_m_source_file>
AV-unprocessed.smi

> <i_m_source_file_index>
2787

> <i_lp_mmshare_version>
43012

> <i_f3d_flags>
0

> <s_epik_input>
W09IXVtDSDJdW0NIMl1bQ0gyXWMobjEpbihbQ0gyXVtDQEhdKFtPSF0pQyhGKShGKUYpYyhjMTIpW2NIXVtjSF1bY0hdW2NIXTI=

> <s_epik_cmdline>
J2VwaWtfcHl0aG9uJywgJy1waCcsICc3LjAnLCAnLXRuJywgJzgnLCAnLW1hJywgJzIwMCcsICctbWV0YWxfYmluZGluZycsICctaW1hZScsICc8aW5maWxlLm1hZT4nLCAnLW9tYWUnLCAnPG91dGZpbGUubWFlPic=

> <r_epik_Ionization_Penalty>
0.137914

> <r_epik_Ionization_Penalty_Charging>
0

> <r_epik_Ionization_Penalty_Neutral>
0.137914

> <r_epik_State_Penalty>
0.107668

> <r_epik_Charging_Adjusted_Penalty>
0.107668

> <i_epik_Tot_Q>
0

> <i_epik_Tot_abs_Q>
0

> <r_epik_Metal_State_Penalty>
0.000111872

> <b_epik_Metal_Only>
0

> <s_lp_Force_Field>
OPLS_2005

> <r_lp_Energy>
10.5181

> <b_lp_Chiralities_Consistent>
1

> <s_lp_Variant>
AV-unprocessed.smi:2787-1

> <Gold.Version>
5.8.1

> <Gold.Id.Protein>
6NUR|6NUR_protein|mol2

> <Gold.PLP.Fitness>
49.1131

> <Gold.PLP.PLP>
-41.3094

> <Gold.PLP.part.hbond>
-4.0000

> <Gold.PLP.part.metal>
0.0000

> <Gold.PLP.part.buried>
-5.0190

> <Gold.PLP.part.nonpolar>
-32.5444

> <Gold.PLP.part.repulsive>
0.0000

> <Gold.PLP.ligand.clash>
0.0000

> <Gold.PLP.ligand.torsion>
0.3141

> <Gold.PLP.Chemscore.Hbond>
2.7972

> <Gold.PLP.Chemscore.CHOScore>
0.0000

> <Gold.PLP.Chemscore.Metal>
0.0000

> <Gold.Chemscore.Hbonds>
donor molecule, donor type, donor heavy atom, donor atom, acceptor molecule, acceptor atom, score
      L1  H     1    21       P1  7949  0.98
      L1  H    16    35       P1  8028  0.88
      P1  H 10752 10764       L1     1  0.31

> <Gold.PLP.Chemscore.Internal.Correction>
0.0403

> <Gold.Rescore>
     Score         DG    S(hbond)    S(metal)    S(lipo)     H(rot)  DE(clash)    DE(int)     intcor
     14.20     -14.52       2.11        0.00      92.21       3.44       0.09       0.23       ----

> <Gold.Chemscore.Fitness>
14.2016

> <Gold.Chemscore.DG>
-14.5234

> <Gold.Chemscore.ZeroCoef>
-5.4800

> <Gold.Chemscore.Hbond>
2.1119

> <Gold.Chemscore.Metal>
0.0000

> <Gold.Chemscore.Lipo>
92.2062

> <Gold.Chemscore.Internal_Hbond>
0.0000

> <Gold.Chemscore.DEClash>
0.0919

> <Gold.Chemscore.DEInternal>
0.2299

> <Gold.Chemscore.Rot>
3.4369

> <Gold.Chemscore.Internal.Correction>
   9.000000E+99

> <Gold.Chemscore.Hbonds>
donor molecule, donor type, donor heavy atom, donor atom, acceptor molecule, acceptor atom, score
      L1  H     1    21       P1  7949  0.91
      L1  H    16    35       P1  8028  0.82
      P1  H 10752 10764       L1     1  0.01

> <Gold.Chemscore.Hbond.Weighted>
-7.0536

> <Gold.Chemscore.Metal.Weighted>
-0.0000

> <Gold.Chemscore.Lipo.Weighted>
-10.7881

> <Gold.Chemscore.Internal_Hbond.Weighted>
0.0000

> <Gold.Chemscore.DEClash.Weighted>
0.0919

> <Gold.Chemscore.DEInternal.Weighted>
0.2299

> <Gold.Chemscore.Rot.Weighted>
8.7984

> <Gold.Chemscore.Internal.Correction.Weighted>
   9.000000E+99

> <Gold.Protein.RotatedTorsions>
[ 6907 6896 6895 6894 ] final  133.41 input  -60.11 | X-H torsion
[ 7974 7965 7964 7962 ] final -151.78 input  175.53 | X-H torsion
[ 8008 7997 7996 7995 ] final   -1.03 input   59.86 | X-H torsion
[ 10167 10162 10161 10158 ] final   20.09 input  -65.29 | X-H torsion
[ 10718 10713 10712 10709 ] final  -53.13 input   66.30 | X-H torsion
[ 10763 10752 10751 10750 ] final  -75.56 input  -60.55 | X-H torsion
[ 11005 11000 10999 10996 ] final  178.20 input  -57.11 | X-H torsion

> <Gold.Protein.ActiveResidues>
 VAL166  LYS551  ARG553  GLY616  TRP617  ASP618  TYR619  PRO620  LYS621  CYS622 
 ASP623  PHE694  ASN695  SER759  ASP760  ASP761  ALA762  ILE779  LEU786  VAL792 
 PHE793  MET794  SER795  GLU796  ALA797  LYS798  CYS799  TRP800  GLU811  SER814 

> <Gold.Protein.RotatedAtoms>
  152.3222  133.5866  159.5752 H   0  0  0  0  0  0  0  0  0  0  0  0  # atno 6907 bound_to 6896
  150.7378  133.9993  159.3642 H   0  0  0  0  0  0  0  0  0  0  0  0  # atno 6908 bound_to 6896
  151.7877  135.0745  160.0434 H   0  0  0  0  0  0  0  0  0  0  0  0  # atno 6909 bound_to 6896
  144.7831  140.4751  143.5825 H   0  0  0  0  0  0  0  0  0  0  0  0  # atno 7974 bound_to 7965
  154.6513  140.2569  155.7210 H   0  0  0  0  0  0  0  0  0  0  0  0  # atno 8008 bound_to 7997
  156.2576  140.2867  156.0869 H   0  0  0  0  0  0  0  0  0  0  0  0  # atno 8009 bound_to 7997
  155.1446  140.0381  157.2797 H   0  0  0  0  0  0  0  0  0  0  0  0  # atno 8010 bound_to 7997
  140.5530  143.9475  150.6590 H   0  0  0  0  0  0  0  0  0  0  0  0  # atno 10167 bound_to 10162
  156.1561  130.4150  149.9867 H   0  0  0  0  0  0  0  0  0  0  0  0  # atno 10718 bound_to 10713
  154.4882  135.5827  153.6439 H   0  0  0  0  0  0  0  0  0  0  0  0  # atno 10763 bound_to 10752
  152.9858  135.6106  154.3159 H   0  0  0  0  0  0  0  0  0  0  0  0  # atno 10764 bound_to 10752
  154.3056  135.2846  155.2569 H   0  0  0  0  0  0  0  0  0  0  0  0  # atno 10765 bound_to 10752
  140.3925  134.6849  157.4516 H   0  0  0  0  0  0  0  0  0  0  0  0  # atno 11005 bound_to 11000
  145.5997  139.1502  143.3136 LP  0  0  0  0  0  0  0  0  0  0  0  0  # atno 17320 bound_to 7965
  146.2049  140.6118  142.9086 LP  0  0  0  0  0  0  0  0  0  0  0  0  # atno 17321 bound_to 7965
  140.2906  143.3327  152.1066 LP  0  0  0  0  0  0  0  0  0  0  0  0  # atno 17342 bound_to 10162
  139.5035  144.6757  151.6133 LP  0  0  0  0  0  0  0  0  0  0  0  0  # atno 17343 bound_to 10162
  156.7710  130.9186  151.3644 LP  0  0  0  0  0  0  0  0  0  0  0  0  # atno 17370 bound_to 10713
  157.6696  130.9039  150.0010 LP  0  0  0  0  0  0  0  0  0  0  0  0  # atno 17371 bound_to 10713
  140.0396  134.6287  155.8998 LP  0  0  0  0  0  0  0  0  0  0  0  0  # atno 17394 bound_to 11000
  141.1886  133.6563  156.5330 LP  0  0  0  0  0  0  0  0  0  0  0  0  # atno 17395 bound_to 11000

$$$$
