AV-unprocessed.smi:1655|AV-procd|sdf|6645|dock1
  -GOLD-   22720 7343D 1   1.00000     0.00000
 Structure written by MMmdl.
 34 35  0  0  0  0  0  0  0  0  1 V2000
  153.7036  141.9509  160.5349 C   0  0  0  0  0  0  0  0  0  0  0  0
  152.8743  142.5020  159.4258 C   0  0  0  0  0  0  0  0  0  0  0  0
  151.9290  141.9486  158.6086 C   0  0  0  0  0  0  0  0  0  0  0  0
  151.5459  143.0364  157.7797 C   0  0  0  0  0  0  0  0  0  0  0  0
  150.5618  142.8716  156.7720 N   0  0  0  0  0  0  0  0  0  0  0  0
  150.2241  141.7381  156.1339 C   0  0  0  0  0  0  0  0  0  0  0  0
  150.7350  140.6346  156.3285 O   0  0  0  0  0  0  0  0  0  0  0  0
  149.2442  141.9536  155.2442 N   0  0  0  0  0  0  0  0  0  0  0  0
  148.6447  140.9314  154.3942 C   0  0  0  0  0  0  0  0  0  0  0  0
  147.4096  141.4665  153.6503 C   0  0  0  0  0  0  0  0  0  0  0  0
  146.7040  142.5983  154.4115 C   0  0  1  0  0  0  0  0  0  0  0  0
  145.8488  143.5038  153.5252 C   0  0  0  0  0  0  0  0  0  0  0  0
  144.7645  144.0149  154.4636 C   0  0  0  0  0  0  0  0  0  0  0  0
  144.9227  143.1602  155.7236 C   0  0  0  0  0  0  0  0  0  0  0  0
  145.7536  142.0791  155.3282 O   0  0  0  0  0  0  0  0  0  0  0  0
  152.1989  144.1528  158.0642 N   0  0  0  0  0  0  0  0  0  0  0  0
  153.0538  143.8159  159.1204 O   0  0  0  0  0  0  0  0  0  0  0  0
  153.2032  141.1079  161.0117 H   0  0  0  0  0  0  0  0  0  0  0  0
  153.8880  142.7081  161.2973 H   0  0  0  0  0  0  0  0  0  0  0  0
  154.6674  141.6052  160.1611 H   0  0  0  0  0  0  0  0  0  0  0  0
  151.5718  140.9295  158.6070 H   0  0  0  0  0  0  0  0  0  0  0  0
  150.0583  143.7062  156.5108 H   0  0  0  0  0  0  0  0  0  0  0  0
  148.8838  142.8917  155.1488 H   0  0  0  0  0  0  0  0  0  0  0  0
  149.3992  140.6069  153.6774 H   0  0  0  0  0  0  0  0  0  0  0  0
  148.3842  140.0541  154.9890 H   0  0  0  0  0  0  0  0  0  0  0  0
  147.7111  141.8368  152.6696 H   0  0  0  0  0  0  0  0  0  0  0  0
  146.7066  140.6524  153.4694 H   0  0  0  0  0  0  0  0  0  0  0  0
  147.4321  143.2009  154.9580 H   0  0  0  0  0  0  0  0  0  0  0  0
  146.4290  144.3073  153.0708 H   0  0  0  0  0  0  0  0  0  0  0  0
  145.3901  142.9268  152.7211 H   0  0  0  0  0  0  0  0  0  0  0  0
  144.8903  145.0736  154.6922 H   0  0  0  0  0  0  0  0  0  0  0  0
  143.7788  143.8823  154.0161 H   0  0  0  0  0  0  0  0  0  0  0  0
  145.4229  143.7261  156.5110 H   0  0  0  0  0  0  0  0  0  0  0  0
  143.9684  142.8051  156.1128 H   0  0  0  0  0  0  0  0  0  0  0  0
  1  2  1  0  0  0  0
  1 18  1  0  0  0  0
  1 19  1  0  0  0  0
  1 20  1  0  0  0  0
  2 17  1  0  0  0  0
  2  3  2  0  0  0  0
  3  4  1  0  0  0  0
  3 21  1  0  0  0  0
  4  5  1  0  0  0  0
  4 16  2  0  0  0  0
  5  6  1  0  0  0  0
  5 22  1  0  0  0  0
  6  7  2  0  0  0  0
  6  8  1  0  0  0  0
  8  9  1  0  0  0  0
  8 23  1  0  0  0  0
  9 10  1  0  0  0  0
  9 24  1  0  0  0  0
  9 25  1  0  0  0  0
 10 11  1  0  0  0  0
 10 26  1  0  0  0  0
 10 27  1  0  0  0  0
 11 15  1  0  0  0  0
 11 12  1  0  0  0  0
 11 28  1  0  0  0  0
 12 13  1  0  0  0  0
 12 29  1  0  0  0  0
 12 30  1  0  0  0  0
 13 14  1  0  0  0  0
 13 31  1  0  0  0  0
 13 32  1  0  0  0  0
 14 15  1  0  0  0  0
 14 33  1  0  0  0  0
 14 34  1  0  0  0  0
 16 17  1  0  0  0  0
M  END
> <s_m_source_file>
AV-unprocessed.smi

> <i_m_source_file_index>
1655

> <i_lp_mmshare_version>
43012

> <i_f3d_flags>
0

> <s_epik_input>
W0NIM11jMVtjSF1jKG5vMSlbTkhdQyg9TylbTkhdW0NIMl1bQ0gyXVtDQEBIXTJbQ0gyXVtDSDJdW0NIMl1PMg==

> <s_epik_cmdline>
J2VwaWtfcHl0aG9uJywgJy1waCcsICc3LjAnLCAnLXRuJywgJzgnLCAnLW1hJywgJzIwMCcsICctbWV0YWxfYmluZGluZycsICctaW1hZScsICc8aW5maWxlLm1hZT4nLCAnLW9tYWUnLCAnPG91dGZpbGUubWFlPic=

> <r_lp_tautomer_probability>
1

> <r_epik_Ionization_Penalty>
2.23964e-05

> <r_epik_Ionization_Penalty_Charging>
0

> <r_epik_Ionization_Penalty_Neutral>
2.23964e-05

> <r_epik_State_Penalty>
-0

> <r_epik_Charging_Adjusted_Penalty>
0

> <i_epik_Tot_Q>
0

> <i_epik_Tot_abs_Q>
0

> <r_epik_Metal_State_Penalty>
-0

> <b_epik_Metal_Only>
0

> <s_lp_Force_Field>
OPLS_2005

> <r_lp_Energy>
15.0992

> <b_lp_Chiralities_Consistent>
1

> <s_lp_Variant>
AV-unprocessed.smi:1655-2

> <Gold.Version>
5.8.1

> <Gold.Id.Protein>
6NUR|6NUR_protein|mol2

> <Gold.PLP.Fitness>
42.1421

> <Gold.PLP.PLP>
-37.4525

> <Gold.PLP.part.hbond>
-2.0000

> <Gold.PLP.part.metal>
0.0000

> <Gold.PLP.part.buried>
-8.1740

> <Gold.PLP.part.nonpolar>
-27.3629

> <Gold.PLP.part.repulsive>
0.4506

> <Gold.PLP.ligand.clash>
0.0052

> <Gold.PLP.ligand.torsion>
0.6612

> <Gold.PLP.Chemscore.Hbond>
2.0000

> <Gold.PLP.Chemscore.CHOScore>
0.0000

> <Gold.PLP.Chemscore.Metal>
0.0000

> <Gold.Chemscore.Hbonds>
donor molecule, donor type, donor heavy atom, donor atom, acceptor molecule, acceptor atom, score
      L1  H     5    22       P1  8028  1.00
      L1  H     8    23       P1  8028  1.00

> <Gold.PLP.Chemscore.Internal.Correction>
0.0173

> <Gold.Rescore>
     Score         DG    S(hbond)    S(metal)    S(lipo)     H(rot)  DE(clash)    DE(int)     intcor
     14.29     -16.20       1.92        0.00      70.63       1.55       0.06       1.85       ----

> <Gold.Chemscore.Fitness>
14.2897

> <Gold.Chemscore.DG>
-16.2046

> <Gold.Chemscore.ZeroCoef>
-5.4800

> <Gold.Chemscore.Hbond>
1.9250

> <Gold.Chemscore.Metal>
0.0000

> <Gold.Chemscore.Lipo>
70.6307

> <Gold.Chemscore.Internal_Hbond>
0.0000

> <Gold.Chemscore.DEClash>
0.0638

> <Gold.Chemscore.DEInternal>
1.8510

> <Gold.Chemscore.Rot>
1.5503

> <Gold.Chemscore.Internal.Correction>
   9.000000E+99

> <Gold.Chemscore.Hbonds>
donor molecule, donor type, donor heavy atom, donor atom, acceptor molecule, acceptor atom, score
      L1  H     5    22       P1  8028  0.99
      L1  H     8    23       P1  8028  0.96

> <Gold.Chemscore.Hbond.Weighted>
-6.4295

> <Gold.Chemscore.Metal.Weighted>
-0.0000

> <Gold.Chemscore.Lipo.Weighted>
-8.2638

> <Gold.Chemscore.Internal_Hbond.Weighted>
0.0000

> <Gold.Chemscore.DEClash.Weighted>
0.0638

> <Gold.Chemscore.DEInternal.Weighted>
1.8510

> <Gold.Chemscore.Rot.Weighted>
3.9687

> <Gold.Chemscore.Internal.Correction.Weighted>
   9.000000E+99

> <Gold.Protein.RotatedTorsions>
[ 6907 6896 6895 6894 ] final   -8.09 input  -60.11 | X-H torsion
[ 7974 7965 7964 7962 ] final -130.25 input  175.53 | X-H torsion
[ 8008 7997 7996 7995 ] final -131.60 input   59.86 | X-H torsion
[ 10167 10162 10161 10158 ] final -155.27 input  -65.29 | X-H torsion
[ 10718 10713 10712 10709 ] final -172.18 input   66.30 | X-H torsion
[ 10763 10752 10751 10750 ] final    1.15 input  -60.55 | X-H torsion
[ 11005 11000 10999 10996 ] final   31.36 input  -57.11 | X-H torsion

> <Gold.Protein.ActiveResidues>
 VAL166  LYS551  ARG553  GLY616  TRP617  ASP618  TYR619  PRO620  LYS621  CYS622 
 ASP623  PHE694  ASN695  SER759  ASP760  ASP761  ALA762  ILE779  LEU786  VAL792 
 PHE793  MET794  SER795  GLU796  ALA797  LYS798  CYS799  TRP800  GLU811  SER814 

> <Gold.Protein.RotatedAtoms>
  151.4393  135.1018  159.9665 H   0  0  0  0  0  0  0  0  0  0  0  0  # atno 6907 bound_to 6896
  152.4928  133.8544  159.7228 H   0  0  0  0  0  0  0  0  0  0  0  0  # atno 6908 bound_to 6896
  150.9100  133.6951  159.2885 H   0  0  0  0  0  0  0  0  0  0  0  0  # atno 6909 bound_to 6896
  144.9493  140.7326  143.4798 H   0  0  0  0  0  0  0  0  0  0  0  0  # atno 7974 bound_to 7965
  155.3151  140.0459  157.3037 H   0  0  0  0  0  0  0  0  0  0  0  0  # atno 8008 bound_to 7997
  154.5411  140.2288  155.8606 H   0  0  0  0  0  0  0  0  0  0  0  0  # atno 8009 bound_to 7997
  156.1881  140.3057  155.9286 H   0  0  0  0  0  0  0  0  0  0  0  0  # atno 8010 bound_to 7997
  139.6945  143.9365  152.2400 H   0  0  0  0  0  0  0  0  0  0  0  0  # atno 10167 bound_to 10162
  156.7518  130.9381  151.3115 H   0  0  0  0  0  0  0  0  0  0  0  0  # atno 10718 bound_to 10713
  153.3116  135.6963  153.7110 H   0  0  0  0  0  0  0  0  0  0  0  0  # atno 10763 bound_to 10752
  153.5985  135.3466  155.2937 H   0  0  0  0  0  0  0  0  0  0  0  0  # atno 10764 bound_to 10752
  154.8576  135.4335  154.2256 H   0  0  0  0  0  0  0  0  0  0  0  0  # atno 10765 bound_to 10752
  140.2847  134.2933  155.7791 H   0  0  0  0  0  0  0  0  0  0  0  0  # atno 11005 bound_to 11000
  145.2869  139.1898  143.4761 LP  0  0  0  0  0  0  0  0  0  0  0  0  # atno 17320 bound_to 7965
  146.3315  140.2840  142.8612 LP  0  0  0  0  0  0  0  0  0  0  0  0  # atno 17321 bound_to 7965
  139.9190  144.6811  150.8481 LP  0  0  0  0  0  0  0  0  0  0  0  0  # atno 17342 bound_to 10162
  140.7692  143.3388  151.2251 LP  0  0  0  0  0  0  0  0  0  0  0  0  # atno 17343 bound_to 10162
  157.6773  130.9107  150.0182 LP  0  0  0  0  0  0  0  0  0  0  0  0  # atno 17370 bound_to 10713
  156.1396  130.3642  149.9603 LP  0  0  0  0  0  0  0  0  0  0  0  0  # atno 17371 bound_to 10713
  141.2157  133.7547  156.9534 LP  0  0  0  0  0  0  0  0  0  0  0  0  # atno 17394 bound_to 11000
  140.1251  134.9392  157.2258 LP  0  0  0  0  0  0  0  0  0  0  0  0  # atno 17395 bound_to 11000

$$$$
