AV-unprocessed.smi:1399|AV-procd|sdf|5682|dock1
  -GOLD-   22720 5303D 1   1.00000     0.00000
 Structure written by MMmdl.
 38 39  0  0  0  0  0  0  0  0  2 V2000
  148.6155  141.6326  155.9725 N   0  0  0  0  0  0  0  0  0  0  0  0
  148.3197  141.5658  154.6724 C   0  0  0  0  0  0  0  0  0  0  0  0
  149.1850  141.4288  153.8093 O   0  0  0  0  0  0  0  0  0  0  0  0
  146.8408  141.6898  154.2912 C   0  0  0  0  0  0  0  0  0  0  0  0
  146.3513  140.5374  153.4917 N   0  3  2  0  0  0  0  0  0  0  0  0
  146.2121  139.3004  154.3015 C   0  0  0  0  0  0  0  0  0  0  0  0
  145.5617  138.1718  153.4830 C   0  0  0  0  0  0  0  0  0  0  0  0
  146.3501  137.8885  152.1939 C   0  0  1  0  0  0  0  0  0  0  0  0
  145.6526  136.8820  151.3984 N   0  0  0  0  0  0  0  0  0  0  0  0
  145.6518  135.5645  151.6480 C   0  0  0  0  0  0  0  0  0  0  0  0
  146.2554  135.0510  152.5899 O   0  0  0  0  0  0  0  0  0  0  0  0
  144.9177  134.8966  150.7435 N   0  0  0  0  0  0  0  0  0  0  0  0
  144.6771  133.5005  150.6957 C   0  0  0  0  0  0  0  0  0  0  0  0
  143.7159  132.7755  149.9316 C   0  0  0  0  0  0  0  0  0  0  0  0
  143.8041  131.4728  150.1609 N   0  0  0  0  0  0  0  0  0  0  0  0
  144.8076  131.3592  151.0599 N   0  0  0  0  0  0  0  0  0  0  0  0
  145.3664  132.5679  151.4122 C   0  0  0  0  0  0  0  0  0  0  0  0
  146.5224  139.1945  151.3962 C   0  0  0  0  0  0  0  0  0  0  0  0
  147.1536  140.2965  152.2626 C   0  0  0  0  0  0  0  0  0  0  0  0
  145.0957  130.4598  151.4186 H   0  0  0  0  0  0  0  0  0  0  0  0
  149.5779  141.5594  156.2711 H   0  0  0  0  0  0  0  0  0  0  0  0
  147.8826  141.7592  156.6557 H   0  0  0  0  0  0  0  0  0  0  0  0
  146.2227  141.8195  155.1814 H   0  0  0  0  0  0  0  0  0  0  0  0
  146.7469  142.6074  153.7087 H   0  0  0  0  0  0  0  0  0  0  0  0
  147.1929  138.9884  154.6640 H   0  0  0  0  0  0  0  0  0  0  0  0
  145.5981  139.5017  155.1800 H   0  0  0  0  0  0  0  0  0  0  0  0
  145.4994  137.2675  154.0896 H   0  0  0  0  0  0  0  0  0  0  0  0
  144.5357  138.4502  153.2371 H   0  0  0  0  0  0  0  0  0  0  0  0
  147.3350  137.5073  152.4718 H   0  0  0  0  0  0  0  0  0  0  0  0
  145.1284  137.2130  150.6014 H   0  0  0  0  0  0  0  0  0  0  0  0
  144.4807  135.4431  150.0160 H   0  0  0  0  0  0  0  0  0  0  0  0
  142.9727  133.1315  149.2338 H   0  0  0  0  0  0  0  0  0  0  0  0
  146.1790  132.6533  152.1187 H   0  0  0  0  0  0  0  0  0  0  0  0
  147.1444  139.0203  150.5173 H   0  0  0  0  0  0  0  0  0  0  0  0
  145.5541  139.5354  151.0264 H   0  0  0  0  0  0  0  0  0  0  0  0
  147.2277  141.2127  151.6758 H   0  0  0  0  0  0  0  0  0  0  0  0
  148.1713  140.0176  152.5399 H   0  0  0  0  0  0  0  0  0  0  0  0
  145.4193  140.7859  153.1907 H   0  0  0  0  0  0  0  0  0  0  0  0
  1  2  1  0  0  0  0
  1 21  1  0  0  0  0
  1 22  1  0  0  0  0
  2  3  2  0  0  0  0
  2  4  1  0  0  0  0
  4  5  1  0  0  0  0
  4 23  1  0  0  0  0
  4 24  1  0  0  0  0
  5 19  1  0  0  0  0
  5  6  1  0  0  0  0
  5 38  1  0  0  0  0
  6  7  1  0  0  0  0
  6 25  1  0  0  0  0
  6 26  1  0  0  0  0
  7  8  1  0  0  0  0
  7 27  1  0  0  0  0
  7 28  1  0  0  0  0
  8  9  1  0  0  0  0
  8 18  1  0  0  0  0
  8 29  1  0  0  0  0
  9 10  1  0  0  0  0
  9 30  1  0  0  0  0
 10 11  2  0  0  0  0
 10 12  1  0  0  0  0
 12 13  1  0  0  0  0
 12 31  1  0  0  0  0
 13 17  2  0  0  0  0
 13 14  1  0  0  0  0
 14 15  2  0  0  0  0
 14 32  1  0  0  0  0
 15 16  1  0  0  0  0
 16 20  1  0  0  0  0
 16 17  1  0  0  0  0
 17 33  1  0  0  0  0
 18 19  1  0  0  0  0
 18 34  1  0  0  0  0
 18 35  1  0  0  0  0
 19 36  1  0  0  0  0
 19 37  1  0  0  0  0
M  CHG  1   5   1
M  END
> <s_m_source_file>
AV-unprocessed.smi

> <i_m_source_file_index>
1399

> <i_lp_mmshare_version>
43012

> <i_f3d_flags>
0

> <s_epik_input>
W05IMl1DKD1PKVtDSDJdTjFbQ0gyXVtDSDJdW0NIXShbQ0gyXVtDSDJdMSlbTkhdQyg9TylbTkhdYzJbY0hdbltuSF1bY0hdMg==

> <s_epik_cmdline>
J2VwaWtfcHl0aG9uJywgJy1waCcsICc3LjAnLCAnLXRuJywgJzgnLCAnLW1hJywgJzIwMCcsICctbWV0YWxfYmluZGluZycsICctaW1hZScsICc8aW5maWxlLm1hZT4nLCAnLW9tYWUnLCAnPG91dGZpbGUubWFlPic=

> <r_lp_tautomer_probability>
0.5

> <r_epik_Ionization_Penalty>
0.838927

> <r_epik_Ionization_Penalty_Charging>
0.838844

> <r_epik_Ionization_Penalty_Neutral>
8.28742e-05

> <r_epik_State_Penalty>
0.8734

> <r_epik_Charging_Adjusted_Penalty>
1.71224

> <i_epik_Tot_Q>
1

> <i_epik_Tot_abs_Q>
1

> <r_epik_Metal_State_Penalty>
0.890702

> <b_epik_Metal_Only>
0

> <s_lp_Force_Field>
OPLS_2005

> <r_lp_Energy>
15.1462

> <b_lp_Chiralities_Consistent>
1

> <s_lp_Variant>
AV-unprocessed.smi:1399-2

> <Gold.Version>
5.8.1

> <Gold.Id.Protein>
6NUR|6NUR_protein|mol2

> <Gold.PLP.Fitness>
45.1975

> <Gold.PLP.PLP>
-29.1531

> <Gold.PLP.part.hbond>
-5.7460

> <Gold.PLP.part.metal>
0.0000

> <Gold.PLP.part.buried>
0.7210

> <Gold.PLP.part.nonpolar>
-26.4877

> <Gold.PLP.part.repulsive>
2.2001

> <Gold.PLP.ligand.clash>
0.0000

> <Gold.PLP.ligand.torsion>
0.3396

> <Gold.PLP.Chemscore.Hbond>
4.5600

> <Gold.PLP.Chemscore.CHOScore>
1.0000

> <Gold.PLP.Chemscore.Metal>
0.0000

> <Gold.Chemscore.Hbonds>
donor molecule, donor type, donor heavy atom, donor atom, acceptor molecule, acceptor atom, score
      L1  H     5    38       P1 10175  2.00
      L1  H     9    30       P1 10171  0.99
      P1  H  8011  8017       L1     3  0.78
      P1  H 10785 10796       L1    15  0.78
      L1  C    14    32       P1 10186  1.00

> <Gold.PLP.Chemscore.Internal.Correction>
0.0436

> <Gold.Rescore>
     Score         DG    S(hbond)    S(metal)    S(lipo)     H(rot)  DE(clash)    DE(int)     intcor
     13.66     -19.06       3.33        0.00      66.59       2.09       2.50       2.91       ----

> <Gold.Chemscore.Fitness>
13.6606

> <Gold.Chemscore.DG>
-19.0621

> <Gold.Chemscore.ZeroCoef>
-5.4800

> <Gold.Chemscore.Hbond>
3.3332

> <Gold.Chemscore.Metal>
0.0000

> <Gold.Chemscore.Lipo>
66.5874

> <Gold.Chemscore.Internal_Hbond>
0.0000

> <Gold.Chemscore.DEClash>
2.4953

> <Gold.Chemscore.DEInternal>
2.9062

> <Gold.Chemscore.Rot>
2.0865

> <Gold.Chemscore.Internal.Correction>
   9.000000E+99

> <Gold.Chemscore.Hbonds>
donor molecule, donor type, donor heavy atom, donor atom, acceptor molecule, acceptor atom, score
      L1  H     5    38       P1 10175  0.69
      L1  H     9    30       P1 10171  0.88
      P1  H  8011  8017       L1     3  0.78
      P1  H 10785 10796       L1    15  0.71

> <Gold.Chemscore.Hbond.Weighted>
-11.1328

> <Gold.Chemscore.Metal.Weighted>
-0.0000

> <Gold.Chemscore.Lipo.Weighted>
-7.7907

> <Gold.Chemscore.Internal_Hbond.Weighted>
0.0000

> <Gold.Chemscore.DEClash.Weighted>
2.4953

> <Gold.Chemscore.DEInternal.Weighted>
2.9062

> <Gold.Chemscore.Rot.Weighted>
5.3415

> <Gold.Chemscore.Internal.Correction.Weighted>
   9.000000E+99

> <Gold.Protein.RotatedTorsions>
[ 6907 6896 6895 6894 ] final   89.65 input  -60.11 | X-H torsion
[ 7974 7965 7964 7962 ] final  162.87 input  175.53 | X-H torsion
[ 8008 7997 7996 7995 ] final  -64.08 input   59.86 | X-H torsion
[ 10167 10162 10161 10158 ] final   36.12 input  -65.29 | X-H torsion
[ 10718 10713 10712 10709 ] final  -78.39 input   66.30 | X-H torsion
[ 10763 10752 10751 10750 ] final  -46.41 input  -60.55 | X-H torsion
[ 11005 11000 10999 10996 ] final -164.15 input  -57.11 | X-H torsion

> <Gold.Protein.ActiveResidues>
 VAL166  LYS551  ARG553  GLY616  TRP617  ASP618  TYR619  PRO620  LYS621  CYS622 
 ASP623  PHE694  ASN695  SER759  ASP760  ASP761  ALA762  ILE779  LEU786  VAL792 
 PHE793  MET794  SER795  GLU796  ALA797  LYS798  CYS799  TRP800  GLU811  SER814 

> <Gold.Protein.RotatedAtoms>
  152.5438  134.1934  159.8682 H   0  0  0  0  0  0  0  0  0  0  0  0  # atno 6907 bound_to 6896
  151.1927  133.4650  159.2602 H   0  0  0  0  0  0  0  0  0  0  0  0  # atno 6908 bound_to 6896
  151.1067  135.0015  159.8530 H   0  0  0  0  0  0  0  0  0  0  0  0  # atno 6909 bound_to 6896
  144.7616  139.8102  143.6330 H   0  0  0  0  0  0  0  0  0  0  0  0  # atno 7974 bound_to 7965
  154.4591  140.0961  156.6842 H   0  0  0  0  0  0  0  0  0  0  0  0  # atno 8008 bound_to 7997
  155.5048  140.3474  155.4359 H   0  0  0  0  0  0  0  0  0  0  0  0  # atno 8009 bound_to 7997
  156.0836  140.1379  156.9671 H   0  0  0  0  0  0  0  0  0  0  0  0  # atno 8010 bound_to 7997
  140.4157  144.1530  150.6143 H   0  0  0  0  0  0  0  0  0  0  0  0  # atno 10167 bound_to 10162
  156.0119  130.4517  150.3489 H   0  0  0  0  0  0  0  0  0  0  0  0  # atno 10718 bound_to 10713
  154.0446  135.6639  153.4793 H   0  0  0  0  0  0  0  0  0  0  0  0  # atno 10763 bound_to 10752
  153.0488  135.5097  154.7810 H   0  0  0  0  0  0  0  0  0  0  0  0  # atno 10764 bound_to 10752
  154.6796  135.3043  154.9597 H   0  0  0  0  0  0  0  0  0  0  0  0  # atno 10765 bound_to 10752
  140.5902  134.5053  157.5191 H   0  0  0  0  0  0  0  0  0  0  0  0  # atno 11005 bound_to 11000
  146.1684  139.4825  142.9943 LP  0  0  0  0  0  0  0  0  0  0  0  0  # atno 17320 bound_to 7965
  145.6602  141.0242  143.1713 LP  0  0  0  0  0  0  0  0  0  0  0  0  # atno 17321 bound_to 7965
  140.4589  143.2457  151.9247 LP  0  0  0  0  0  0  0  0  0  0  0  0  # atno 17342 bound_to 10162
  139.4782  144.5488  151.8418 LP  0  0  0  0  0  0  0  0  0  0  0  0  # atno 17343 bound_to 10162
  157.1582  131.0338  151.2853 LP  0  0  0  0  0  0  0  0  0  0  0  0  # atno 17370 bound_to 10713
  157.4334  130.7503  149.7009 LP  0  0  0  0  0  0  0  0  0  0  0  0  # atno 17371 bound_to 10713
  139.9278  134.8023  156.1019 LP  0  0  0  0  0  0  0  0  0  0  0  0  # atno 17394 bound_to 11000
  141.0940  133.6703  156.2603 LP  0  0  0  0  0  0  0  0  0  0  0  0  # atno 17395 bound_to 11000

$$$$
