AV-unprocessed.smi:3311|AV-procd|sdf|12726|dock7
  -GOLD-   2272019 73D 1   1.00000     0.00000
 Structure written by MMmdl.
 43 44  0  0  0  0  0  0  0  0  1 V2000
  143.8996  136.3804  152.3062 C   0  0  0  0  0  0  0  0  0  0  0  0
  145.2349  135.9543  151.6722 C   0  0  1  0  0  0  0  0  0  0  0  0
  146.1804  137.0709  151.7892 N   0  0  0  0  0  0  0  0  0  0  0  0
  146.2177  137.7450  153.0902 C   0  0  0  0  0  0  0  0  0  0  0  0
  147.2972  138.8497  153.1551 C   0  0  0  0  0  0  0  0  0  0  0  0
  147.9585  138.8570  151.9023 O   0  0  0  0  0  0  0  0  0  0  0  0
  146.6119  140.2265  153.3272 C   0  0  0  0  0  0  0  0  0  0  0  0
  147.6119  141.3851  153.4933 C   0  0  0  0  0  0  0  0  0  0  0  0
  148.5842  141.1195  154.6507 C   0  0  0  0  0  0  0  0  0  0  0  0
  149.3155  139.7844  154.4559 C   0  0  0  0  0  0  0  0  0  0  0  0
  148.3256  138.6172  154.2917 C   0  0  0  0  0  0  0  0  0  0  0  0
  145.7527  134.6232  152.2955 C   0  0  1  0  0  0  0  0  0  0  0  0
  145.5127  134.4547  153.8054 C   0  0  0  0  0  0  0  0  0  0  0  0
  145.3185  133.4396  151.5587 N   0  0  0  0  0  0  0  0  0  0  0  0
  146.0859  132.4443  150.9852 C   0  0  0  0  0  0  0  0  0  0  0  0
  145.2321  131.5424  150.4183 C   0  0  0  0  0  0  0  0  0  0  0  0
  143.9438  132.0751  150.7002 C   0  0  0  0  0  0  0  0  0  0  0  0
  143.9982  133.2072  151.3821 N   0  0  0  0  0  0  0  0  0  0  0  0
  143.1558  135.5874  152.2260 H   0  0  0  0  0  0  0  0  0  0  0  0
  143.4924  137.2598  151.8062 H   0  0  0  0  0  0  0  0  0  0  0  0
  144.0111  136.6255  153.3629 H   0  0  0  0  0  0  0  0  0  0  0  0
  145.0292  135.7743  150.6162 H   0  0  0  0  0  0  0  0  0  0  0  0
  147.1142  136.7483  151.5571 H   0  0  0  0  0  0  0  0  0  0  0  0
  145.2520  138.1728  153.3454 H   0  0  0  0  0  0  0  0  0  0  0  0
  146.4285  137.0041  153.8623 H   0  0  0  0  0  0  0  0  0  0  0  0
  148.5808  138.1462  151.8894 H   0  0  0  0  0  0  0  0  0  0  0  0
  145.9535  140.4296  152.4813 H   0  0  0  0  0  0  0  0  0  0  0  0
  145.9679  140.1988  154.2074 H   0  0  0  0  0  0  0  0  0  0  0  0
  148.1718  141.5283  152.5686 H   0  0  0  0  0  0  0  0  0  0  0  0
  147.0722  142.3160  153.6705 H   0  0  0  0  0  0  0  0  0  0  0  0
  149.3069  141.9328  154.7245 H   0  0  0  0  0  0  0  0  0  0  0  0
  148.0370  141.1042  155.5945 H   0  0  0  0  0  0  0  0  0  0  0  0
  149.9625  139.8457  153.5800 H   0  0  0  0  0  0  0  0  0  0  0  0
  149.9703  139.5945  155.3066 H   0  0  0  0  0  0  0  0  0  0  0  0
  147.7921  138.4755  155.2327 H   0  0  0  0  0  0  0  0  0  0  0  0
  148.8882  137.6985  154.1215 H   0  0  0  0  0  0  0  0  0  0  0  0
  146.8393  134.6681  152.1983 H   0  0  0  0  0  0  0  0  0  0  0  0
  145.7802  135.3592  154.3518 H   0  0  0  0  0  0  0  0  0  0  0  0
  146.1219  133.6414  154.2008 H   0  0  0  0  0  0  0  0  0  0  0  0
  144.4757  134.2101  154.0323 H   0  0  0  0  0  0  0  0  0  0  0  0
  147.1651  132.4591  151.0300 H   0  0  0  0  0  0  0  0  0  0  0  0
  145.4891  130.6393  149.8851 H   0  0  0  0  0  0  0  0  0  0  0  0
  142.9771  131.6748  150.4324 H   0  0  0  0  0  0  0  0  0  0  0  0
  1  2  1  0  0  0  0
  1 19  1  0  0  0  0
  1 20  1  0  0  0  0
  1 21  1  0  0  0  0
  2  3  1  0  0  0  0
  2 12  1  0  0  0  0
  2 22  1  0  0  0  0
  3  4  1  0  0  0  0
  3 23  1  0  0  0  0
  4  5  1  0  0  0  0
  4 24  1  0  0  0  0
  4 25  1  0  0  0  0
  5 11  1  0  0  0  0
  5  6  1  0  0  0  0
  5  7  1  0  0  0  0
  6 26  1  0  0  0  0
  7  8  1  0  0  0  0
  7 27  1  0  0  0  0
  7 28  1  0  0  0  0
  8  9  1  0  0  0  0
  8 29  1  0  0  0  0
  8 30  1  0  0  0  0
  9 10  1  0  0  0  0
  9 31  1  0  0  0  0
  9 32  1  0  0  0  0
 10 11  1  0  0  0  0
 10 33  1  0  0  0  0
 10 34  1  0  0  0  0
 11 35  1  0  0  0  0
 11 36  1  0  0  0  0
 12 13  1  0  0  0  0
 12 14  1  0  0  0  0
 12 37  1  0  0  0  0
 13 38  1  0  0  0  0
 13 39  1  0  0  0  0
 13 40  1  0  0  0  0
 14 18  1  0  0  0  0
 14 15  1  0  0  0  0
 15 16  2  0  0  0  0
 15 41  1  0  0  0  0
 16 17  1  0  0  0  0
 16 42  1  0  0  0  0
 17 18  2  0  0  0  0
 17 43  1  0  0  0  0
M  END
> <s_m_source_file>
AV-unprocessed.smi

> <i_m_source_file_index>
3311

> <i_lp_mmshare_version>
43012

> <i_f3d_flags>
0

> <s_epik_input>
bjFbY0hdW2NIXVtjSF1uMVtDQEBIXShbQ0gzXSlbQ0BIXShbQ0gzXSlbTkhdW0NIMl1DMihbT0hdKVtDSDJdW0NIMl1bQ0gyXVtDSDJdW0NIMl0y

> <s_epik_cmdline>
J2VwaWtfcHl0aG9uJywgJy1waCcsICc3LjAnLCAnLXRuJywgJzgnLCAnLW1hJywgJzIwMCcsICctbWV0YWxfYmluZGluZycsICctaW1hZScsICc8aW5maWxlLm1hZT4nLCAnLW9tYWUnLCAnPG91dGZpbGUubWFlPic=

> <r_lp_tautomer_probability>
1

> <r_epik_Ionization_Penalty>
2.222

> <r_epik_Ionization_Penalty_Charging>
0

> <r_epik_Ionization_Penalty_Neutral>
2.222

> <r_epik_State_Penalty>
2.36562

> <r_epik_Charging_Adjusted_Penalty>
2.36562

> <i_epik_Tot_Q>
0

> <i_epik_Tot_abs_Q>
0

> <r_epik_Metal_State_Penalty>
2.36435

> <b_epik_Metal_Only>
0

> <s_lp_Force_Field>
OPLS_2005

> <r_lp_Energy>
31.437

> <b_lp_Chiralities_Consistent>
1

> <s_lp_Variant>
AV-unprocessed.smi:3311-8

> <Gold.Version>
5.8.1

> <Gold.Id.Protein>
6NUR|6NUR_protein|mol2

> <Gold.PLP.Fitness>
39.3769

> <Gold.PLP.PLP>
-31.5411

> <Gold.PLP.part.hbond>
-2.4005

> <Gold.PLP.part.metal>
0.0000

> <Gold.PLP.part.buried>
-2.5765

> <Gold.PLP.part.nonpolar>
-27.6445

> <Gold.PLP.part.repulsive>
0.1704

> <Gold.PLP.ligand.clash>
0.0000

> <Gold.PLP.ligand.torsion>
2.1494

> <Gold.PLP.Chemscore.Hbond>
2.0000

> <Gold.PLP.Chemscore.CHOScore>
1.9608

> <Gold.PLP.Chemscore.Metal>
0.0000

> <Gold.Chemscore.Hbonds>
donor molecule, donor type, donor heavy atom, donor atom, acceptor molecule, acceptor atom, score
      L1  H     3    23       P1  7948  1.00
      L1  H     6    26       P1  7948  1.00
      L1  C    15    41       P1 10747  1.00
      L1  C    17    43       P1 10952  0.64

> <Gold.PLP.Chemscore.Internal.Correction>
0.2522

> <Gold.Rescore>
     Score         DG    S(hbond)    S(metal)    S(lipo)     H(rot)  DE(clash)    DE(int)     intcor
     14.50     -16.79       1.98        0.00      85.29       2.07       0.32       1.97       ----

> <Gold.Chemscore.Fitness>
14.5036

> <Gold.Chemscore.DG>
-16.7906

> <Gold.Chemscore.ZeroCoef>
-5.4800

> <Gold.Chemscore.Hbond>
1.9841

> <Gold.Chemscore.Metal>
0.0000

> <Gold.Chemscore.Lipo>
85.2934

> <Gold.Chemscore.Internal_Hbond>
0.0000

> <Gold.Chemscore.DEClash>
0.3163

> <Gold.Chemscore.DEInternal>
1.9707

> <Gold.Chemscore.Rot>
2.0686

> <Gold.Chemscore.Internal.Correction>
   9.000000E+99

> <Gold.Chemscore.Hbonds>
donor molecule, donor type, donor heavy atom, donor atom, acceptor molecule, acceptor atom, score
      L1  H     3    23       P1  7948  0.99
      L1  H     6    26       P1  7948  0.94

> <Gold.Chemscore.Hbond.Weighted>
-6.6270

> <Gold.Chemscore.Metal.Weighted>
-0.0000

> <Gold.Chemscore.Lipo.Weighted>
-9.9793

> <Gold.Chemscore.Internal_Hbond.Weighted>
0.0000

> <Gold.Chemscore.DEClash.Weighted>
0.3163

> <Gold.Chemscore.DEInternal.Weighted>
1.9707

> <Gold.Chemscore.Rot.Weighted>
5.2957

> <Gold.Chemscore.Internal.Correction.Weighted>
   9.000000E+99

> <Gold.Protein.RotatedTorsions>
[ 6907 6896 6895 6894 ] final   44.25 input  -60.11 | X-H torsion
[ 7974 7965 7964 7962 ] final  -51.45 input  175.53 | X-H torsion
[ 8008 7997 7996 7995 ] final    7.39 input   59.86 | X-H torsion
[ 10167 10162 10161 10158 ] final  151.54 input  -65.29 | X-H torsion
[ 10718 10713 10712 10709 ] final   55.25 input   66.30 | X-H torsion
[ 10763 10752 10751 10750 ] final   82.32 input  -60.55 | X-H torsion
[ 11005 11000 10999 10996 ] final   39.02 input  -57.11 | X-H torsion

> <Gold.Protein.ActiveResidues>
 VAL166  LYS551  ARG553  GLY616  TRP617  ASP618  TYR619  PRO620  LYS621  CYS622 
 ASP623  PHE694  ASN695  SER759  ASP760  ASP761  ALA762  ILE779  LEU786  VAL792 
 PHE793  MET794  SER795  GLU796  ALA797  LYS798  CYS799  TRP800  GLU811  SER814 

> <Gold.Protein.RotatedAtoms>
  152.2303  134.8329  160.0474 H   0  0  0  0  0  0  0  0  0  0  0  0  # atno 6907 bound_to 6896
  151.9080  133.3549  159.3862 H   0  0  0  0  0  0  0  0  0  0  0  0  # atno 6908 bound_to 6896
  150.7024  134.4686  159.5459 H   0  0  0  0  0  0  0  0  0  0  0  0  # atno 6909 bound_to 6896
  145.9188  140.7851  142.9658 H   0  0  0  0  0  0  0  0  0  0  0  0  # atno 7974 bound_to 7965
  154.7532  140.2771  155.6275 H   0  0  0  0  0  0  0  0  0  0  0  0  # atno 8008 bound_to 7997
  156.2900  140.2674  156.2218 H   0  0  0  0  0  0  0  0  0  0  0  0  # atno 8009 bound_to 7997
  155.0110  140.0372  157.2389 H   0  0  0  0  0  0  0  0  0  0  0  0  # atno 8010 bound_to 7997
  139.4840  144.5432  151.7529 H   0  0  0  0  0  0  0  0  0  0  0  0  # atno 10167 bound_to 10162
  157.5329  130.8643  149.8712 H   0  0  0  0  0  0  0  0  0  0  0  0  # atno 10718 bound_to 10713
  153.1192  135.4733  154.9167 H   0  0  0  0  0  0  0  0  0  0  0  0  # atno 10763 bound_to 10752
  154.7559  135.3118  154.8473 H   0  0  0  0  0  0  0  0  0  0  0  0  # atno 10764 bound_to 10752
  153.9042  135.6872  153.4807 H   0  0  0  0  0  0  0  0  0  0  0  0  # atno 10765 bound_to 10752
  140.2069  134.3802  155.8068 H   0  0  0  0  0  0  0  0  0  0  0  0  # atno 11005 bound_to 11000
  144.6750  140.1943  143.7393 LP  0  0  0  0  0  0  0  0  0  0  0  0  # atno 17320 bound_to 7965
  145.8576  139.2207  143.1735 LP  0  0  0  0  0  0  0  0  0  0  0  0  # atno 17321 bound_to 7965
  140.4974  144.1219  150.5963 LP  0  0  0  0  0  0  0  0  0  0  0  0  # atno 17342 bound_to 10162
  140.4101  143.2661  151.9843 LP  0  0  0  0  0  0  0  0  0  0  0  0  # atno 17343 bound_to 10162
  156.0436  130.3733  150.1373 LP  0  0  0  0  0  0  0  0  0  0  0  0  # atno 17370 bound_to 10713
  156.9557  130.9789  151.3489 LP  0  0  0  0  0  0  0  0  0  0  0  0  # atno 17371 bound_to 10713
  141.2227  133.7123  156.8352 LP  0  0  0  0  0  0  0  0  0  0  0  0  # atno 17394 bound_to 11000
  140.1993  134.8909  157.3150 LP  0  0  0  0  0  0  0  0  0  0  0  0  # atno 17395 bound_to 11000

$$$$
