AV-unprocessed.smi:1995|AV-procd|sdf|8078|dock2
  -GOLD-   2272010293D 1   1.00000     0.00000
 Structure written by MMmdl.
 43 44  0  0  0  0  0  0  0  0  2 V2000
  148.6622  139.5351  155.1243 C   0  0  0  0  0  0  0  0  0  0  0  0
  148.3675  139.6446  153.6178 C   0  0  0  0  0  0  0  0  0  0  0  0
  146.8612  139.6512  153.2130 C   0  0  1  0  0  0  0  0  0  0  0  0
  146.7512  139.7166  151.6674 C   0  0  0  0  0  0  0  0  0  0  0  0
  146.1900  138.3203  153.6781 C   0  0  0  0  0  0  0  0  0  0  0  0
  146.6048  137.1431  152.9126 N   0  0  0  0  0  0  0  0  0  0  0  0
  145.8070  136.1311  152.5422 C   0  0  0  0  0  0  0  0  0  0  0  0
  144.6120  136.0681  152.8306 O   0  0  0  0  0  0  0  0  0  0  0  0
  146.4839  135.2151  151.8277 N   0  0  0  0  0  0  0  0  0  0  0  0
  146.0006  133.9963  151.2831 C   0  0  0  0  0  0  0  0  0  0  0  0
  146.7822  132.9897  150.8745 N   0  0  0  0  0  0  0  0  0  0  0  0
  146.0379  131.9153  150.3805 C   0  0  0  0  0  0  0  0  0  0  0  0
  144.6817  132.1243  150.4173 C   0  0  0  0  0  0  0  0  0  0  0  0
  144.2827  133.6872  151.0790 S   0  0  0  0  0  0  0  0  0  0  0  0
  146.1439  140.8336  153.8196 N   0  3  0  0  0  0  0  0  0  0  0  0
  145.8742  140.7449  155.2827 C   0  0  0  0  0  0  0  0  0  0  0  0
  144.9533  141.8917  155.7292 C   0  0  0  0  0  0  0  0  0  0  0  0
  145.5597  143.1369  155.4130 O   0  0  0  0  0  0  0  0  0  0  0  0
  145.7610  143.2853  154.0145 C   0  0  0  0  0  0  0  0  0  0  0  0
  146.6990  142.1798  153.5000 C   0  0  0  0  0  0  0  0  0  0  0  0
  149.7379  139.5490  155.3008 H   0  0  0  0  0  0  0  0  0  0  0  0
  148.2808  138.6067  155.5483 H   0  0  0  0  0  0  0  0  0  0  0  0
  148.2358  140.3657  155.6857 H   0  0  0  0  0  0  0  0  0  0  0  0
  148.8536  140.5524  153.2618 H   0  0  0  0  0  0  0  0  0  0  0  0
  148.8817  138.8199  153.1254 H   0  0  0  0  0  0  0  0  0  0  0  0
  147.0267  138.7702  151.2015 H   0  0  0  0  0  0  0  0  0  0  0  0
  147.4106  140.4719  151.2396 H   0  0  0  0  0  0  0  0  0  0  0  0
  145.7349  139.9432  151.3444 H   0  0  0  0  0  0  0  0  0  0  0  0
  146.3649  138.1461  154.7410 H   0  0  0  0  0  0  0  0  0  0  0  0
  145.1060  138.3931  153.5883 H   0  0  0  0  0  0  0  0  0  0  0  0
  147.5694  137.1134  152.6164 H   0  0  0  0  0  0  0  0  0  0  0  0
  147.4581  135.4106  151.6503 H   0  0  0  0  0  0  0  0  0  0  0  0
  146.5563  131.0386  150.0209 H   0  0  0  0  0  0  0  0  0  0  0  0
  143.8966  131.4559  150.0966 H   0  0  0  0  0  0  0  0  0  0  0  0
  145.3977  139.8028  155.5464 H   0  0  0  0  0  0  0  0  0  0  0  0
  146.8077  140.8003  155.8434 H   0  0  0  0  0  0  0  0  0  0  0  0
  143.9740  141.8148  155.2537 H   0  0  0  0  0  0  0  0  0  0  0  0
  144.7894  141.8444  156.8059 H   0  0  0  0  0  0  0  0  0  0  0  0
  144.8033  143.2571  153.4919 H   0  0  0  0  0  0  0  0  0  0  0  0
  146.1973  144.2662  153.8245 H   0  0  0  0  0  0  0  0  0  0  0  0
  147.6836  142.2995  153.9523 H   0  0  0  0  0  0  0  0  0  0  0  0
  146.8173  142.3247  152.4280 H   0  0  0  0  0  0  0  0  0  0  0  0
  145.2340  140.8202  153.3814 H   0  0  0  0  0  0  0  0  0  0  0  0
  1  2  1  0  0  0  0
  1 21  1  0  0  0  0
  1 22  1  0  0  0  0
  1 23  1  0  0  0  0
  2  3  1  0  0  0  0
  2 24  1  0  0  0  0
  2 25  1  0  0  0  0
  3  4  1  0  0  0  0
  3  5  1  0  0  0  0
  3 15  1  0  0  0  0
  4 26  1  0  0  0  0
  4 27  1  0  0  0  0
  4 28  1  0  0  0  0
  5  6  1  0  0  0  0
  5 29  1  0  0  0  0
  5 30  1  0  0  0  0
  6  7  1  0  0  0  0
  6 31  1  0  0  0  0
  7  8  2  0  0  0  0
  7  9  1  0  0  0  0
  9 10  1  0  0  0  0
  9 32  1  0  0  0  0
 10 14  1  0  0  0  0
 10 11  2  0  0  0  0
 11 12  1  0  0  0  0
 12 13  2  0  0  0  0
 12 33  1  0  0  0  0
 13 14  1  0  0  0  0
 13 34  1  0  0  0  0
 15 20  1  0  0  0  0
 15 16  1  0  0  0  0
 15 43  1  0  0  0  0
 16 17  1  0  0  0  0
 16 35  1  0  0  0  0
 16 36  1  0  0  0  0
 17 18  1  0  0  0  0
 17 37  1  0  0  0  0
 17 38  1  0  0  0  0
 18 19  1  0  0  0  0
 19 20  1  0  0  0  0
 19 39  1  0  0  0  0
 19 40  1  0  0  0  0
 20 41  1  0  0  0  0
 20 42  1  0  0  0  0
M  CHG  1  15   1
M  END
> <s_m_source_file>
AV-unprocessed.smi

> <i_m_source_file_index>
1995

> <i_lp_mmshare_version>
43012

> <i_f3d_flags>
0

> <s_epik_input>
W0NIMl0xW0NIMl1PW0NIMl1bQ0gyXU4xW0NAQF0oW0NIM10pKFtDSDJdW0NIM10pW0NIMl1bTkhdQyg9TylbTkhdYzJuW2NIXVtjSF1zMg==

> <s_epik_cmdline>
J2VwaWtfcHl0aG9uJywgJy1waCcsICc3LjAnLCAnLXRuJywgJzgnLCAnLW1hJywgJzIwMCcsICctbWV0YWxfYmluZGluZycsICctaW1hZScsICc8aW5maWxlLm1hZT4nLCAnLW9tYWUnLCAnPG91dGZpbGUubWFlPic=

> <r_lp_tautomer_probability>
0.999

> <r_epik_Ionization_Penalty>
0.55406

> <r_epik_Ionization_Penalty_Charging>
0.553838

> <r_epik_Ionization_Penalty_Neutral>
0.000222147

> <r_epik_State_Penalty>
0.564424

> <r_epik_Charging_Adjusted_Penalty>
1.11826

> <i_epik_Tot_Q>
1

> <i_epik_Tot_abs_Q>
1

> <r_epik_Metal_State_Penalty>
0.573776

> <b_epik_Metal_Only>
0

> <s_lp_Force_Field>
OPLS_2005

> <r_lp_Energy>
32.5614

> <b_lp_Chiralities_Consistent>
1

> <s_lp_Variant>
AV-unprocessed.smi:1995-3

> <Gold.Version>
5.8.1

> <Gold.Id.Protein>
6NUR|6NUR_protein|mol2

> <Gold.PLP.Fitness>
44.1331

> <Gold.PLP.PLP>
-31.1345

> <Gold.PLP.part.hbond>
-3.0000

> <Gold.PLP.part.metal>
0.0000

> <Gold.PLP.part.buried>
-2.7596

> <Gold.PLP.part.nonpolar>
-26.5088

> <Gold.PLP.part.repulsive>
0.5788

> <Gold.PLP.ligand.clash>
0.0000

> <Gold.PLP.ligand.torsion>
0.4776

> <Gold.PLP.Chemscore.Hbond>
4.0000

> <Gold.PLP.Chemscore.CHOScore>
0.6062

> <Gold.PLP.Chemscore.Metal>
0.0000

> <Gold.Chemscore.Hbonds>
donor molecule, donor type, donor heavy atom, donor atom, acceptor molecule, acceptor atom, score
      L1  H     6    31       P1  7948  1.00
      L1  H     9    32       P1  7948  1.00
      L1  H    15    43       P1 10175  2.00
      L1  C    12    33       P1 10747  0.82

> <Gold.PLP.Chemscore.Internal.Correction>
0.1352

> <Gold.Rescore>
     Score         DG    S(hbond)    S(metal)    S(lipo)     H(rot)  DE(clash)    DE(int)     intcor
     16.81     -18.81       2.83        0.00      72.53       1.79       1.30       0.71       ----

> <Gold.Chemscore.Fitness>
16.8054

> <Gold.Chemscore.DG>
-18.8144

> <Gold.Chemscore.ZeroCoef>
-5.4800

> <Gold.Chemscore.Hbond>
2.8268

> <Gold.Chemscore.Metal>
0.0000

> <Gold.Chemscore.Lipo>
72.5292

> <Gold.Chemscore.Internal_Hbond>
0.0000

> <Gold.Chemscore.DEClash>
1.3013

> <Gold.Chemscore.DEInternal>
0.7077

> <Gold.Chemscore.Rot>
1.7942

> <Gold.Chemscore.Internal.Correction>
   9.000000E+99

> <Gold.Chemscore.Hbonds>
donor molecule, donor type, donor heavy atom, donor atom, acceptor molecule, acceptor atom, score
      L1  H     6    31       P1  7948  0.94
      L1  H     9    32       P1  7948  0.95
      L1  H    15    43       P1 10175  0.78

> <Gold.Chemscore.Hbond.Weighted>
-9.4415

> <Gold.Chemscore.Metal.Weighted>
-0.0000

> <Gold.Chemscore.Lipo.Weighted>
-8.4859

> <Gold.Chemscore.Internal_Hbond.Weighted>
0.0000

> <Gold.Chemscore.DEClash.Weighted>
1.3013

> <Gold.Chemscore.DEInternal.Weighted>
0.7077

> <Gold.Chemscore.Rot.Weighted>
4.5931

> <Gold.Chemscore.Internal.Correction.Weighted>
   9.000000E+99

> <Gold.Protein.RotatedTorsions>
[ 6907 6896 6895 6894 ] final   44.71 input  -60.11 | X-H torsion
[ 7974 7965 7964 7962 ] final  -42.19 input  175.53 | X-H torsion
[ 8008 7997 7996 7995 ] final -114.85 input   59.86 | X-H torsion
[ 10167 10162 10161 10158 ] final  135.74 input  -65.29 | X-H torsion
[ 10718 10713 10712 10709 ] final -142.49 input   66.30 | X-H torsion
[ 10763 10752 10751 10750 ] final  -55.81 input  -60.55 | X-H torsion
[ 11005 11000 10999 10996 ] final   61.27 input  -57.11 | X-H torsion

> <Gold.Protein.ActiveResidues>
 VAL166  LYS551  ARG553  GLY616  TRP617  ASP618  TYR619  PRO620  LYS621  CYS622 
 ASP623  PHE694  ASN695  SER759  ASP760  ASP761  ALA762  ILE779  LEU786  VAL792 
 PHE793  MET794  SER795  GLU796  ALA797  LYS798  CYS799  TRP800  GLU811  SER814 

> <Gold.Protein.RotatedAtoms>
  152.2358  134.8277  160.0467 H   0  0  0  0  0  0  0  0  0  0  0  0  # atno 6907 bound_to 6896
  151.9010  133.3533  159.3839 H   0  0  0  0  0  0  0  0  0  0  0  0  # atno 6908 bound_to 6896
  150.7039  134.4754  159.5489 H   0  0  0  0  0  0  0  0  0  0  0  0  # atno 6909 bound_to 6896
  146.0139  140.6931  142.9211 H   0  0  0  0  0  0  0  0  0  0  0  0  # atno 7974 bound_to 7965
  155.0428  140.0392  157.2515 H   0  0  0  0  0  0  0  0  0  0  0  0  # atno 8008 bound_to 7997
  154.7202  140.2710  155.6524 H   0  0  0  0  0  0  0  0  0  0  0  0  # atno 8009 bound_to 7997
  156.2814  140.2704  156.1871 H   0  0  0  0  0  0  0  0  0  0  0  0  # atno 8010 bound_to 7997
  139.5206  144.6501  151.5327 H   0  0  0  0  0  0  0  0  0  0  0  0  # atno 10167 bound_to 10162
  156.3465  130.7665  151.1811 H   0  0  0  0  0  0  0  0  0  0  0  0  # atno 10718 bound_to 10713
  154.1968  135.6418  153.5075 H   0  0  0  0  0  0  0  0  0  0  0  0  # atno 10763 bound_to 10752
  153.0021  135.5441  154.6358 H   0  0  0  0  0  0  0  0  0  0  0  0  # atno 10764 bound_to 10752
  154.5760  135.2921  155.0753 H   0  0  0  0  0  0  0  0  0  0  0  0  # atno 10765 bound_to 10752
  140.0173  134.6206  155.9691 H   0  0  0  0  0  0  0  0  0  0  0  0  # atno 11005 bound_to 11000
  144.6963  140.3447  143.7193 LP  0  0  0  0  0  0  0  0  0  0  0  0  # atno 17320 bound_to 7965
  145.7299  139.1733  143.2436 LP  0  0  0  0  0  0  0  0  0  0  0  0  # atno 17321 bound_to 7965
  140.6302  143.9090  150.6599 LP  0  0  0  0  0  0  0  0  0  0  0  0  # atno 17342 bound_to 10162
  140.2392  143.3677  152.1501 LP  0  0  0  0  0  0  0  0  0  0  0  0  # atno 17343 bound_to 10162
  157.7455  131.0439  150.4769 LP  0  0  0  0  0  0  0  0  0  0  0  0  # atno 17370 bound_to 10713
  156.4958  130.4105  149.6381 LP  0  0  0  0  0  0  0  0  0  0  0  0  # atno 17371 bound_to 10713
  141.1751  133.6540  156.4797 LP  0  0  0  0  0  0  0  0  0  0  0  0  # atno 17394 bound_to 11000
  140.4449  134.6982  157.5010 LP  0  0  0  0  0  0  0  0  0  0  0  0  # atno 17395 bound_to 11000

$$$$
