AV-unprocessed.smi:256|AV-procd|sdf|1961|dock9
  -GOLD-   2262021113D 1   1.00000     0.00000
 Structure written by MMmdl.
 61 64  0  0  0  0  0  0  0  0  1 V2000
  151.6163  145.3761  159.5880 C   0  0  0  0  0  0  0  0  0  0  0  0
  152.5815  144.7232  158.5840 C   0  0  0  0  0  0  0  0  0  0  0  0
  152.3020  143.2325  158.2787 C   0  0  2  0  0  0  0  0  0  0  0  0
  150.9490  143.1178  157.5328 C   0  0  0  0  0  0  0  0  0  0  0  0
  150.6851  141.7397  157.1259 N   0  0  0  0  0  0  0  0  0  0  0  0
  149.6735  141.5133  156.2488 C   0  0  0  0  0  0  0  0  0  0  0  0
  149.9484  141.0604  154.9956 N   0  0  0  0  0  0  0  0  0  0  0  0
  148.9601  140.8392  154.1241 C   0  0  0  0  0  0  0  0  0  0  0  0
  147.6470  141.0006  154.2935 N   0  0  0  0  0  0  0  0  0  0  0  0
  147.3621  141.4495  155.5490 C   0  0  0  0  0  0  0  0  0  0  0  0
  148.3048  141.7253  156.5802 C   0  0  0  0  0  0  0  0  0  0  0  0
  147.6393  142.1428  157.7273 N   0  0  0  0  0  0  0  0  0  0  0  0
  146.3790  142.1250  157.3903 C   0  0  0  0  0  0  0  0  0  0  0  0
  146.1225  141.7307  156.0967 N   0  0  0  0  0  0  0  0  0  0  0  0
  144.8174  141.6220  155.4621 C   0  0  0  0  0  0  0  0  0  0  0  0
  144.0924  142.9779  155.2722 C   0  0  0  0  0  0  0  0  0  0  0  0
  142.8011  142.7098  154.7543 O   0  0  0  0  0  0  0  0  0  0  0  0
  143.9323  143.6942  156.6284 C   0  0  0  0  0  0  0  0  0  0  0  0
  143.3736  145.1193  156.4707 C   0  0  0  0  0  0  0  0  0  0  0  0
  144.1961  145.8683  155.5843 O   0  0  0  0  0  0  0  0  0  0  0  0
  144.2208  145.3283  154.2689 C   0  0  0  0  0  0  0  0  0  0  0  0
  144.8272  143.9141  154.2873 C   0  0  0  0  0  0  0  0  0  0  0  0
  150.7501  140.8093  158.2463 C   0  0  0  0  0  0  0  0  0  0  0  0
  152.1071  140.9462  158.9490 C   0  0  0  0  0  0  0  0  0  0  0  0
  152.3755  142.3052  159.4338 N   0  0  0  0  0  0  0  0  0  0  0  0
  153.6779  142.3156  160.1174 C   0  0  0  0  0  0  0  0  0  0  0  0
  153.8155  141.3477  161.3044 C   0  0  0  0  0  0  0  0  0  0  0  0
  154.0827  142.1084  162.4708 O   0  0  0  0  0  0  0  0  0  0  0  0
  153.0640  143.0527  162.7513 C   0  0  0  0  0  0  0  0  0  0  0  0
  151.9406  146.3884  159.8288 H   0  0  0  0  0  0  0  0  0  0  0  0
  151.5616  144.8160  160.5212 H   0  0  0  0  0  0  0  0  0  0  0  0
  150.6064  145.4489  159.1854 H   0  0  0  0  0  0  0  0  0  0  0  0
  152.5273  145.2855  157.6509 H   0  0  0  0  0  0  0  0  0  0  0  0
  153.6110  144.8521  158.9134 H   0  0  0  0  0  0  0  0  0  0  0  0
  153.0704  142.9266  157.5664 H   0  0  0  0  0  0  0  0  0  0  0  0
  150.1311  143.4550  158.1705 H   0  0  0  0  0  0  0  0  0  0  0  0
  150.9610  143.7617  156.6521 H   0  0  0  0  0  0  0  0  0  0  0  0
  149.2655  140.4813  153.1520 H   0  0  0  0  0  0  0  0  0  0  0  0
  145.5958  142.4065  158.0793 H   0  0  0  0  0  0  0  0  0  0  0  0
  144.9431  141.1206  154.5011 H   0  0  0  0  0  0  0  0  0  0  0  0
  144.2060  140.9557  156.0718 H   0  0  0  0  0  0  0  0  0  0  0  0
  142.8950  142.2991  153.9085 H   0  0  0  0  0  0  0  0  0  0  0  0
  143.2941  143.1137  157.2961 H   0  0  0  0  0  0  0  0  0  0  0  0
  144.9047  143.7596  157.1185 H   0  0  0  0  0  0  0  0  0  0  0  0
  142.3454  145.1024  156.1061 H   0  0  0  0  0  0  0  0  0  0  0  0
  143.3556  145.6207  157.4384 H   0  0  0  0  0  0  0  0  0  0  0  0
  143.2141  145.3194  153.8484 H   0  0  0  0  0  0  0  0  0  0  0  0
  144.8203  145.9807  153.6338 H   0  0  0  0  0  0  0  0  0  0  0  0
  145.8755  143.9902  154.5791 H   0  0  0  0  0  0  0  0  0  0  0  0
  144.8189  143.5022  153.2774 H   0  0  0  0  0  0  0  0  0  0  0  0
  149.9404  141.0284  158.9436 H   0  0  0  0  0  0  0  0  0  0  0  0
  150.6160  139.7788  157.9202 H   0  0  0  0  0  0  0  0  0  0  0  0
  152.1266  140.2481  159.7866 H   0  0  0  0  0  0  0  0  0  0  0  0
  152.8994  140.6315  158.2676 H   0  0  0  0  0  0  0  0  0  0  0  0
  154.4579  142.0233  159.4125 H   0  0  0  0  0  0  0  0  0  0  0  0
  153.9379  143.3303  160.4215 H   0  0  0  0  0  0  0  0  0  0  0  0
  152.9179  140.7551  161.4633 H   0  0  0  0  0  0  0  0  0  0  0  0
  154.6374  140.6539  161.1208 H   0  0  0  0  0  0  0  0  0  0  0  0
  153.3129  143.6021  163.6594 H   0  0  0  0  0  0  0  0  0  0  0  0
  152.1027  142.5619  162.9088 H   0  0  0  0  0  0  0  0  0  0  0  0
  152.9605  143.7737  161.9395 H   0  0  0  0  0  0  0  0  0  0  0  0
  1  2  1  0  0  0  0
  1 30  1  0  0  0  0
  1 31  1  0  0  0  0
  1 32  1  0  0  0  0
  2  3  1  0  0  0  0
  2 33  1  0  0  0  0
  2 34  1  0  0  0  0
  3 25  1  0  0  0  0
  3  4  1  0  0  0  0
  3 35  1  0  0  0  0
  4  5  1  0  0  0  0
  4 36  1  0  0  0  0
  4 37  1  0  0  0  0
  5  6  1  0  0  0  0
  5 23  1  0  0  0  0
  6 11  1  0  0  0  0
  6  7  2  0  0  0  0
  7  8  1  0  0  0  0
  8  9  2  0  0  0  0
  8 38  1  0  0  0  0
  9 10  1  0  0  0  0
 10 14  1  0  0  0  0
 10 11  2  0  0  0  0
 11 12  1  0  0  0  0
 12 13  2  0  0  0  0
 13 14  1  0  0  0  0
 13 39  1  0  0  0  0
 14 15  1  0  0  0  0
 15 16  1  0  0  0  0
 15 40  1  0  0  0  0
 15 41  1  0  0  0  0
 16 22  1  0  0  0  0
 16 17  1  0  0  0  0
 16 18  1  0  0  0  0
 17 42  1  0  0  0  0
 18 19  1  0  0  0  0
 18 43  1  0  0  0  0
 18 44  1  0  0  0  0
 19 20  1  0  0  0  0
 19 45  1  0  0  0  0
 19 46  1  0  0  0  0
 20 21  1  0  0  0  0
 21 22  1  0  0  0  0
 21 47  1  0  0  0  0
 21 48  1  0  0  0  0
 22 49  1  0  0  0  0
 22 50  1  0  0  0  0
 23 24  1  0  0  0  0
 23 51  1  0  0  0  0
 23 52  1  0  0  0  0
 24 25  1  0  0  0  0
 24 53  1  0  0  0  0
 24 54  1  0  0  0  0
 25 26  1  0  0  0  0
 26 27  1  0  0  0  0
 26 55  1  0  0  0  0
 26 56  1  0  0  0  0
 27 28  1  0  0  0  0
 27 57  1  0  0  0  0
 27 58  1  0  0  0  0
 28 29  1  0  0  0  0
 29 59  1  0  0  0  0
 29 60  1  0  0  0  0
 29 61  1  0  0  0  0
M  END
> <s_m_source_file>
AV-unprocessed.smi

> <i_m_source_file_index>
256

> <i_lp_mmshare_version>
43012

> <i_f3d_flags>
0

> <s_epik_input>
W0NIM11PW0NIMl1bQ0gyXU4xW0NIMl1bQ0gyXU4oW0NIMl1bQ0BIXTFbQ0gyXVtDSDNdKWMobltjSF1uMiljKGMyMyluW2NIXW4zW0NIMl1DNChbT0hdKVtDSDJdW0NIMl1PW0NIMl1bQ0gyXTQ=

> <s_epik_cmdline>
J2VwaWtfcHl0aG9uJywgJy1waCcsICc3LjAnLCAnLXRuJywgJzgnLCAnLW1hJywgJzIwMCcsICctbWV0YWxfYmluZGluZycsICctaW1hZScsICc8aW5maWxlLm1hZT4nLCAnLW9tYWUnLCAnPG91dGZpbGUubWFlPic=

> <r_lp_tautomer_probability>
1

> <r_epik_Ionization_Penalty>
0.676279

> <r_epik_Ionization_Penalty_Charging>
0

> <r_epik_Ionization_Penalty_Neutral>
0.676279

> <r_epik_State_Penalty>
0.6855

> <r_epik_Charging_Adjusted_Penalty>
0.6855

> <i_epik_Tot_Q>
0

> <i_epik_Tot_abs_Q>
0

> <r_epik_Metal_State_Penalty>
0.678557

> <b_epik_Metal_Only>
0

> <s_lp_Force_Field>
OPLS_2005

> <r_lp_Energy>
62.0394

> <b_lp_Chiralities_Consistent>
1

> <s_lp_Variant>
AV-unprocessed.smi:256-5

> <Gold.Version>
5.8.1

> <Gold.Id.Protein>
6NUR|6NUR_protein|mol2

> <Gold.PLP.Fitness>
57.2518

> <Gold.PLP.PLP>
-51.4570

> <Gold.PLP.part.hbond>
-2.9198

> <Gold.PLP.part.metal>
0.0000

> <Gold.PLP.part.buried>
-6.8401

> <Gold.PLP.part.nonpolar>
-41.7303

> <Gold.PLP.part.repulsive>
0.5239

> <Gold.PLP.ligand.clash>
0.0000

> <Gold.PLP.ligand.torsion>
0.5722

> <Gold.PLP.Chemscore.Hbond>
1.1810

> <Gold.PLP.Chemscore.CHOScore>
1.0000

> <Gold.PLP.Chemscore.Metal>
0.0000

> <Gold.Chemscore.Hbonds>
donor molecule, donor type, donor heavy atom, donor atom, acceptor molecule, acceptor atom, score
      L1  H    17    42       P1 10174  0.84
      P1  H  7989  7998       L1     7  0.24
      L1  C     8    38       P1  7957  1.00

> <Gold.PLP.Chemscore.Internal.Correction>
0.3962

> <Gold.Rescore>
     Score         DG    S(hbond)    S(metal)    S(lipo)     H(rot)  DE(clash)    DE(int)     intcor
     13.56     -14.87       0.87        0.00     118.24       2.87       0.62       0.69       ----

> <Gold.Chemscore.Fitness>
13.5558

> <Gold.Chemscore.DG>
-14.8670

> <Gold.Chemscore.ZeroCoef>
-5.4800

> <Gold.Chemscore.Hbond>
0.8684

> <Gold.Chemscore.Metal>
0.0000

> <Gold.Chemscore.Lipo>
118.2362

> <Gold.Chemscore.Internal_Hbond>
0.0000

> <Gold.Chemscore.DEClash>
0.6227

> <Gold.Chemscore.DEInternal>
0.6885

> <Gold.Chemscore.Rot>
2.8700

> <Gold.Chemscore.Internal.Correction>
   9.000000E+99

> <Gold.Chemscore.Hbonds>
donor molecule, donor type, donor heavy atom, donor atom, acceptor molecule, acceptor atom, score
      L1  H    17    42       P1 10174  0.16
      P1  H  7989  7998       L1     7  0.04

> <Gold.Chemscore.Hbond.Weighted>
-2.9006

> <Gold.Chemscore.Metal.Weighted>
-0.0000

> <Gold.Chemscore.Lipo.Weighted>
-13.8336

> <Gold.Chemscore.Internal_Hbond.Weighted>
0.0000

> <Gold.Chemscore.DEClash.Weighted>
0.6227

> <Gold.Chemscore.DEInternal.Weighted>
0.6885

> <Gold.Chemscore.Rot.Weighted>
7.3472

> <Gold.Chemscore.Internal.Correction.Weighted>
   9.000000E+99

> <Gold.Protein.RotatedTorsions>
[ 6907 6896 6895 6894 ] final  160.01 input  -60.11 | X-H torsion
[ 7974 7965 7964 7962 ] final   59.28 input  175.53 | X-H torsion
[ 8008 7997 7996 7995 ] final   16.67 input   59.86 | X-H torsion
[ 10167 10162 10161 10158 ] final  -78.76 input  -65.29 | X-H torsion
[ 10718 10713 10712 10709 ] final   46.09 input   66.30 | X-H torsion
[ 10763 10752 10751 10750 ] final -137.70 input  -60.55 | X-H torsion
[ 11005 11000 10999 10996 ] final -112.73 input  -57.11 | X-H torsion

> <Gold.Protein.ActiveResidues>
 VAL166  LYS551  ARG553  GLY616  TRP617  ASP618  TYR619  PRO620  LYS621  CYS622 
 ASP623  PHE694  ASN695  SER759  ASP760  ASP761  ALA762  ILE779  LEU786  VAL792 
 PHE793  MET794  SER795  GLU796  ALA797  LYS798  CYS799  TRP800  GLU811  SER814 

> <Gold.Protein.RotatedAtoms>
  151.9771  133.3745  159.4092 H   0  0  0  0  0  0  0  0  0  0  0  0  # atno 6907 bound_to 6896
  150.6940  134.4078  159.5157 H   0  0  0  0  0  0  0  0  0  0  0  0  # atno 6908 bound_to 6896
  152.1791  134.8769  160.0578 H   0  0  0  0  0  0  0  0  0  0  0  0  # atno 6909 bound_to 6896
  145.9089  139.3638  143.0547 H   0  0  0  0  0  0  0  0  0  0  0  0  # atno 7974 bound_to 7965
  154.8803  140.2972  155.5429 H   0  0  0  0  0  0  0  0  0  0  0  0  # atno 8008 bound_to 7997
  156.3022  140.2443  156.3739 H   0  0  0  0  0  0  0  0  0  0  0  0  # atno 8009 bound_to 7997
  154.8724  140.0401  157.1721 H   0  0  0  0  0  0  0  0  0  0  0  0  # atno 8010 bound_to 7997
  140.4654  143.2441  151.8286 H   0  0  0  0  0  0  0  0  0  0  0  0  # atno 10167 bound_to 10162
  157.4445  130.8101  149.7727 H   0  0  0  0  0  0  0  0  0  0  0  0  # atno 10718 bound_to 10713
  154.8655  135.3634  154.5266 H   0  0  0  0  0  0  0  0  0  0  0  0  # atno 10763 bound_to 10752
  153.5894  135.7016  153.5434 H   0  0  0  0  0  0  0  0  0  0  0  0  # atno 10764 bound_to 10752
  153.3387  135.4104  155.1516 H   0  0  0  0  0  0  0  0  0  0  0  0  # atno 10765 bound_to 10752
  141.0657  133.9462  157.2582 H   0  0  0  0  0  0  0  0  0  0  0  0  # atno 11005 bound_to 11000
  145.8697  140.9427  143.0657 LP  0  0  0  0  0  0  0  0  0  0  0  0  # atno 17320 bound_to 7965
  144.6741  140.0638  143.7475 LP  0  0  0  0  0  0  0  0  0  0  0  0  # atno 17321 bound_to 7965
  139.4811  144.4957  151.9126 LP  0  0  0  0  0  0  0  0  0  0  0  0  # atno 17342 bound_to 10162
  140.4043  144.2452  150.5891 LP  0  0  0  0  0  0  0  0  0  0  0  0  # atno 17343 bound_to 10162
  155.9962  130.3907  150.2790 LP  0  0  0  0  0  0  0  0  0  0  0  0  # atno 17370 bound_to 10713
  157.0957  131.0182  151.3105 LP  0  0  0  0  0  0  0  0  0  0  0  0  # atno 17371 bound_to 10713
  139.9474  135.0181  156.8894 LP  0  0  0  0  0  0  0  0  0  0  0  0  # atno 17394 bound_to 11000
  140.5777  134.0382  155.7453 LP  0  0  0  0  0  0  0  0  0  0  0  0  # atno 17395 bound_to 11000

$$$$
