AV-unprocessed.smi:224|AV-procd|sdf|1722|dock7
  -GOLD-   2262020203D 1   1.00000     0.00000
 Structure written by MMmdl.
 56 59  0  0  0  0  0  0  0  0  2 V2000
  145.2214  131.8134  150.3983 C   0  0  0  0  0  0  0  0  0  0  0  0
  145.6516  131.7806  151.8725 C   0  0  1  0  0  0  0  0  0  0  0  0
  146.9778  131.2986  151.9275 O   0  0  0  0  0  0  0  0  0  0  0  0
  145.6133  133.1707  152.5437 C   0  0  0  0  0  0  0  0  0  0  0  0
  145.3125  133.1155  154.0042 N   0  3  1  0  0  0  0  0  0  0  0  0
  146.3242  132.3030  154.7396 C   0  0  0  0  0  0  0  0  0  0  0  0
  146.0032  132.1911  156.2364 C   0  0  0  0  0  0  0  0  0  0  0  0
  145.8619  133.5156  156.8239 N   0  0  0  0  0  0  0  0  0  0  0  0
  146.9981  134.1027  157.2882 C   0  0  0  0  0  0  0  0  0  0  0  0
  147.2173  134.1832  158.6281 N   0  0  0  0  0  0  0  0  0  0  0  0
  148.3209  134.7687  159.1017 C   0  0  0  0  0  0  0  0  0  0  0  0
  149.3234  135.3281  158.4236 N   0  0  0  0  0  0  0  0  0  0  0  0
  149.1227  135.2371  157.0782 C   0  0  0  0  0  0  0  0  0  0  0  0
  147.9982  134.6484  156.4320 C   0  0  0  0  0  0  0  0  0  0  0  0
  148.1499  134.7383  155.0531 N   0  0  0  0  0  0  0  0  0  0  0  0
  149.2890  135.3546  154.8942 C   0  0  0  0  0  0  0  0  0  0  0  0
  149.9461  135.6827  156.0584 N   0  0  0  0  0  0  0  0  0  0  0  0
  151.2267  136.3643  156.1773 C   0  0  0  0  0  0  0  0  0  0  0  0
  151.5203  137.3435  155.0155 C   0  0  2  0  0  0  0  0  0  0  0  0
  151.8588  136.6005  153.8571 O   0  0  0  0  0  0  0  0  0  0  0  0
  152.6655  138.3000  155.3229 C   0  0  0  0  0  0  0  0  0  0  0  0
  152.3166  139.5221  154.4844 C   0  0  0  0  0  0  0  0  0  0  0  0
  150.9092  139.6126  154.6251 O   0  0  0  0  0  0  0  0  0  0  0  0
  150.3604  138.2979  154.6628 C   0  0  0  0  0  0  0  0  0  0  0  0
  144.8511  134.3316  156.1581 C   0  0  0  0  0  0  0  0  0  0  0  0
  145.0995  134.4593  154.6348 C   0  0  2  0  0  0  0  0  0  0  0  0
  143.9168  135.2358  154.0205 C   0  0  0  0  0  0  0  0  0  0  0  0
  144.1857  132.1378  150.2950 H   0  0  0  0  0  0  0  0  0  0  0  0
  145.2986  130.8245  149.9452 H   0  0  0  0  0  0  0  0  0  0  0  0
  145.8430  132.4950  149.8166 H   0  0  0  0  0  0  0  0  0  0  0  0
  145.0372  131.0635  152.4149 H   0  0  0  0  0  0  0  0  0  0  0  0
  147.3345  131.2842  151.0521 H   0  0  0  0  0  0  0  0  0  0  0  0
  146.5598  133.6937  152.3949 H   0  0  0  0  0  0  0  0  0  0  0  0
  144.8659  133.7539  152.0119 H   0  0  0  0  0  0  0  0  0  0  0  0
  146.3798  131.2952  154.3322 H   0  0  0  0  0  0  0  0  0  0  0  0
  147.3111  132.7503  154.6086 H   0  0  0  0  0  0  0  0  0  0  0  0
  145.0673  131.6489  156.3767 H   0  0  0  0  0  0  0  0  0  0  0  0
  146.7733  131.6012  156.7309 H   0  0  0  0  0  0  0  0  0  0  0  0
  148.4141  134.7924  160.1775 H   0  0  0  0  0  0  0  0  0  0  0  0
  149.6843  135.5848  153.9155 H   0  0  0  0  0  0  0  0  0  0  0  0
  151.2395  136.8964  157.1296 H   0  0  0  0  0  0  0  0  0  0  0  0
  152.0122  135.6102  156.2404 H   0  0  0  0  0  0  0  0  0  0  0  0
  151.2746  136.8517  153.1580 H   0  0  0  0  0  0  0  0  0  0  0  0
  152.6535  138.5784  156.3776 H   0  0  0  0  0  0  0  0  0  0  0  0
  153.6519  137.8919  155.0985 H   0  0  0  0  0  0  0  0  0  0  0  0
  152.8143  140.4287  154.8286 H   0  0  0  0  0  0  0  0  0  0  0  0
  152.5712  139.3642  153.4353 H   0  0  0  0  0  0  0  0  0  0  0  0
  149.8973  138.0526  153.7057 H   0  0  0  0  0  0  0  0  0  0  0  0
  149.5748  138.2889  155.4176 H   0  0  0  0  0  0  0  0  0  0  0  0
  143.8831  133.8590  156.3300 H   0  0  0  0  0  0  0  0  0  0  0  0
  144.7858  135.3156  156.6249 H   0  0  0  0  0  0  0  0  0  0  0  0
  146.0074  135.0433  154.4789 H   0  0  0  0  0  0  0  0  0  0  0  0
  143.6956  136.1279  154.6073 H   0  0  0  0  0  0  0  0  0  0  0  0
  143.0114  134.6285  153.9960 H   0  0  0  0  0  0  0  0  0  0  0  0
  144.1198  135.5872  153.0102 H   0  0  0  0  0  0  0  0  0  0  0  0
  144.4321  132.6289  154.0956 H   0  0  0  0  0  0  0  0  0  0  0  0
  1  2  1  0  0  0  0
  1 28  1  0  0  0  0
  1 29  1  0  0  0  0
  1 30  1  0  0  0  0
  2  3  1  0  0  0  0
  2  4  1  0  0  0  0
  2 31  1  0  0  0  0
  3 32  1  0  0  0  0
  4  5  1  0  0  0  0
  4 33  1  0  0  0  0
  4 34  1  0  0  0  0
  5 26  1  0  0  0  0
  5  6  1  0  0  0  0
  5 56  1  0  0  0  0
  6  7  1  0  0  0  0
  6 35  1  0  0  0  0
  6 36  1  0  0  0  0
  7  8  1  0  0  0  0
  7 37  1  0  0  0  0
  7 38  1  0  0  0  0
  8  9  1  0  0  0  0
  8 25  1  0  0  0  0
  9 14  1  0  0  0  0
  9 10  2  0  0  0  0
 10 11  1  0  0  0  0
 11 12  2  0  0  0  0
 11 39  1  0  0  0  0
 12 13  1  0  0  0  0
 13 17  1  0  0  0  0
 13 14  2  0  0  0  0
 14 15  1  0  0  0  0
 15 16  2  0  0  0  0
 16 17  1  0  0  0  0
 16 40  1  0  0  0  0
 17 18  1  0  0  0  0
 18 19  1  0  0  0  0
 18 41  1  0  0  0  0
 18 42  1  0  0  0  0
 19 24  1  0  0  0  0
 19 20  1  0  0  0  0
 19 21  1  0  0  0  0
 20 43  1  0  0  0  0
 21 22  1  0  0  0  0
 21 44  1  0  0  0  0
 21 45  1  0  0  0  0
 22 23  1  0  0  0  0
 22 46  1  0  0  0  0
 22 47  1  0  0  0  0
 23 24  1  0  0  0  0
 24 48  1  0  0  0  0
 24 49  1  0  0  0  0
 25 26  1  0  0  0  0
 25 50  1  0  0  0  0
 25 51  1  0  0  0  0
 26 27  1  0  0  0  0
 26 52  1  0  0  0  0
 27 53  1  0  0  0  0
 27 54  1  0  0  0  0
 27 55  1  0  0  0  0
M  CHG  1   5   1
M  END
> <s_m_source_file>
AV-unprocessed.smi

> <i_m_source_file_index>
224

> <i_lp_mmshare_version>
43012

> <i_f3d_flags>
0

> <s_epik_input>
W0NIM11bQ0BIXShbT0hdKVtDSDJdTjFbQ0gyXVtDSDJdTihbQ0gyXVtDQEhdMVtDSDNdKWMobltjSF1uMiljKGMyMyluW2NIXW4zW0NIMl1bQ0BAXTQoW09IXSlbQ0gyXVtDSDJdT1tDSDJdNA==

> <s_epik_cmdline>
J2VwaWtfcHl0aG9uJywgJy1waCcsICc3LjAnLCAnLXRuJywgJzgnLCAnLW1hJywgJzIwMCcsICctbWV0YWxfYmluZGluZycsICctaW1hZScsICc8aW5maWxlLm1hZT4nLCAnLW9tYWUnLCAnPG91dGZpbGUubWFlPic=

> <r_lp_tautomer_probability>
1

> <r_epik_Ionization_Penalty>
0.00516958

> <r_epik_Ionization_Penalty_Charging>
0.00509693

> <r_epik_Ionization_Penalty_Neutral>
7.26542e-05

> <r_epik_State_Penalty>
-0

> <r_epik_Charging_Adjusted_Penalty>
0.00509693

> <i_epik_Tot_Q>
1

> <i_epik_Tot_abs_Q>
1

> <r_epik_Metal_State_Penalty>
-0

> <b_epik_Metal_Only>
0

> <s_lp_Force_Field>
OPLS_2005

> <r_lp_Energy>
50.435

> <b_lp_Chiralities_Consistent>
1

> <s_lp_Variant>
AV-unprocessed.smi:224-16

> <Gold.Version>
5.8.1

> <Gold.Id.Protein>
6NUR|6NUR_protein|mol2

> <Gold.PLP.Fitness>
45.4636

> <Gold.PLP.PLP>
-27.8769

> <Gold.PLP.part.hbond>
-5.7680

> <Gold.PLP.part.metal>
0.0000

> <Gold.PLP.part.buried>
-3.8146

> <Gold.PLP.part.nonpolar>
-19.4416

> <Gold.PLP.part.repulsive>
0.1807

> <Gold.PLP.ligand.clash>
0.0000

> <Gold.PLP.ligand.torsion>
1.1507

> <Gold.PLP.Chemscore.Hbond>
5.4268

> <Gold.PLP.Chemscore.CHOScore>
1.0000

> <Gold.PLP.Chemscore.Metal>
0.0000

> <Gold.Chemscore.Hbonds>
donor molecule, donor type, donor heavy atom, donor atom, acceptor molecule, acceptor atom, score
      L1  H     3    32       P1 10747  0.72
      L1  H     5    56       P1 10957  1.79
      L1  H    20    43       P1  7949  0.50
      P1  H  6896  6909       L1    12  0.65
      P1  H 10752 10764       L1    20  0.85
      L1  C    16    40       P1  7948  0.91

> <Gold.PLP.Chemscore.Internal.Correction>
0.6077

> <Gold.Rescore>
     Score         DG    S(hbond)    S(metal)    S(lipo)     H(rot)  DE(clash)    DE(int)     intcor
     11.12     -14.07       3.19        0.00      55.85       3.36       0.03       2.92       ----

> <Gold.Chemscore.Fitness>
11.1189

> <Gold.Chemscore.DG>
-14.0744

> <Gold.Chemscore.ZeroCoef>
-5.4800

> <Gold.Chemscore.Hbond>
3.1928

> <Gold.Chemscore.Metal>
0.0000

> <Gold.Chemscore.Lipo>
55.8529

> <Gold.Chemscore.Internal_Hbond>
0.0000

> <Gold.Chemscore.DEClash>
0.0310

> <Gold.Chemscore.DEInternal>
2.9245

> <Gold.Chemscore.Rot>
3.3611

> <Gold.Chemscore.Internal.Correction>
   9.000000E+99

> <Gold.Chemscore.Hbonds>
donor molecule, donor type, donor heavy atom, donor atom, acceptor molecule, acceptor atom, score
      L1  H     3    32       P1 10747  0.72
      L1  H     5    56       P1 10957  0.65
      L1  H    20    43       P1  7949  0.33
      P1  H  6896  6909       L1    12  0.06
      P1  H 10752 10764       L1    20  0.21

> <Gold.Chemscore.Hbond.Weighted>
-10.6641

> <Gold.Chemscore.Metal.Weighted>
-0.0000

> <Gold.Chemscore.Lipo.Weighted>
-6.5348

> <Gold.Chemscore.Internal_Hbond.Weighted>
0.0000

> <Gold.Chemscore.DEClash.Weighted>
0.0310

> <Gold.Chemscore.DEInternal.Weighted>
2.9245

> <Gold.Chemscore.Rot.Weighted>
8.6045

> <Gold.Chemscore.Internal.Correction.Weighted>
   9.000000E+99

> <Gold.Protein.RotatedTorsions>
[ 6907 6896 6895 6894 ] final   42.34 input  -60.11 | X-H torsion
[ 7974 7965 7964 7962 ] final  -88.29 input  175.53 | X-H torsion
[ 8008 7997 7996 7995 ] final -178.79 input   59.86 | X-H torsion
[ 10167 10162 10161 10158 ] final  -71.82 input  -65.29 | X-H torsion
[ 10718 10713 10712 10709 ] final  -59.68 input   66.30 | X-H torsion
[ 10763 10752 10751 10750 ] final  -63.68 input  -60.55 | X-H torsion
[ 11005 11000 10999 10996 ] final   78.12 input  -57.11 | X-H torsion

> <Gold.Protein.ActiveResidues>
 VAL166  LYS551  ARG553  GLY616  TRP617  ASP618  TYR619  PRO620  LYS621  CYS622 
 ASP623  PHE694  ASN695  SER759  ASP760  ASP761  ALA762  ILE779  LEU786  VAL792 
 PHE793  MET794  SER795  GLU796  ALA797  LYS798  CYS799  TRP800  GLU811  SER814 

> <Gold.Protein.RotatedAtoms>
  152.2066  134.8540  160.0501 H   0  0  0  0  0  0  0  0  0  0  0  0  # atno 6907 bound_to 6896
  151.9374  133.3623  159.3961 H   0  0  0  0  0  0  0  0  0  0  0  0  # atno 6908 bound_to 6896
  150.6966  134.4399  159.5331 H   0  0  0  0  0  0  0  0  0  0  0  0  # atno 6909 bound_to 6896
  145.4551  140.9561  143.2000 H   0  0  0  0  0  0  0  0  0  0  0  0  # atno 7974 bound_to 7965
  156.0230  140.1265  157.0338 H   0  0  0  0  0  0  0  0  0  0  0  0  # atno 8008 bound_to 7997
  154.4319  140.1065  156.6060 H   0  0  0  0  0  0  0  0  0  0  0  0  # atno 8009 bound_to 7997
  155.5918  140.3469  155.4571 H   0  0  0  0  0  0  0  0  0  0  0  0  # atno 8010 bound_to 7997
  140.5242  143.2328  151.7377 H   0  0  0  0  0  0  0  0  0  0  0  0  # atno 10167 bound_to 10162
  156.1044  130.4182  150.0749 H   0  0  0  0  0  0  0  0  0  0  0  0  # atno 10718 bound_to 10713
  154.3187  135.6201  153.5498 H   0  0  0  0  0  0  0  0  0  0  0  0  # atno 10763 bound_to 10752
  152.9822  135.5718  154.5095 H   0  0  0  0  0  0  0  0  0  0  0  0  # atno 10764 bound_to 10752
  154.4759  135.2861  155.1584 H   0  0  0  0  0  0  0  0  0  0  0  0  # atno 10765 bound_to 10752
  139.9226  134.7738  156.1609 H   0  0  0  0  0  0  0  0  0  0  0  0  # atno 11005 bound_to 11000
  144.8037  139.6092  143.7060 LP  0  0  0  0  0  0  0  0  0  0  0  0  # atno 17320 bound_to 7965
  146.2482  139.6143  142.9445 LP  0  0  0  0  0  0  0  0  0  0  0  0  # atno 17321 bound_to 7965
  139.4933  144.4210  151.9977 LP  0  0  0  0  0  0  0  0  0  0  0  0  # atno 17342 bound_to 10162
  140.3308  144.3318  150.5988 LP  0  0  0  0  0  0  0  0  0  0  0  0  # atno 17343 bound_to 10162
  156.8728  130.9530  151.3607 LP  0  0  0  0  0  0  0  0  0  0  0  0  # atno 17370 bound_to 10713
  157.6219  130.8662  149.9123 LP  0  0  0  0  0  0  0  0  0  0  0  0  # atno 17371 bound_to 10713
  141.0759  133.6776  156.2234 LP  0  0  0  0  0  0  0  0  0  0  0  0  # atno 17394 bound_to 11000
  140.6430  134.5146  157.5571 LP  0  0  0  0  0  0  0  0  0  0  0  0  # atno 17395 bound_to 11000

$$$$
