AV-unprocessed.smi:1229|AV-procd|sdf|5150|dock6
  -GOLD-   22720 4223D 1   1.00000     0.00000
 Structure written by MMmdl.
 46 47  0  0  0  0  0  0  0  0  2 V2000
  147.8040  133.5150  152.6762 C   0  0  0  0  0  0  0  0  0  0  0  0
  146.3864  133.5295  152.1278 C   0  0  0  0  0  0  0  0  0  0  0  0
  145.6927  132.3099  151.9767 C   0  0  0  0  0  0  0  0  0  0  0  0
  144.3821  132.3247  151.4697 C   0  0  0  0  0  0  0  0  0  0  0  0
  143.8176  133.5665  151.1317 C   0  0  0  0  0  0  0  0  0  0  0  0
  144.4734  134.7367  151.2721 N   0  0  0  0  0  0  0  0  0  0  0  0
  145.7391  134.7401  151.7615 C   0  0  0  0  0  0  0  0  0  0  0  0
  146.4919  135.9359  151.9358 N   0  0  0  0  0  0  0  0  0  0  0  0
  146.0474  137.2039  151.9903 C   0  0  0  0  0  0  0  0  0  0  0  0
  144.8700  137.5540  151.9022 O   0  0  0  0  0  0  0  0  0  0  0  0
  147.0608  138.0683  152.1488 N   0  0  0  0  0  0  0  0  0  0  0  0
  146.9156  139.5178  152.2463 C   0  0  0  0  0  0  0  0  0  0  0  0
  146.9646  140.0064  153.7090 C   0  0  2  0  0  0  0  0  0  0  0  0
  145.6878  139.8044  154.2828 O   0  0  0  0  0  0  0  0  0  0  0  0
  147.2818  141.5132  153.7945 C   0  0  0  0  0  0  0  0  0  0  0  0
  148.1315  141.8475  154.9662 N   0  3  0  0  0  0  0  0  0  0  0  0
  149.5013  141.2827  154.8524 C   0  0  0  0  0  0  0  0  0  0  0  0
  150.4002  141.7698  156.0019 C   0  0  0  0  0  0  0  0  0  0  0  0
  149.7822  141.4357  157.3658 C   0  0  0  0  0  0  0  0  0  0  0  0
  148.3560  141.9952  157.4464 C   0  0  0  0  0  0  0  0  0  0  0  0
  147.5027  141.4965  156.2683 C   0  0  0  0  0  0  0  0  0  0  0  0
  148.1255  132.5020  152.9196 H   0  0  0  0  0  0  0  0  0  0  0  0
  147.8688  134.1141  153.5851 H   0  0  0  0  0  0  0  0  0  0  0  0
  148.5009  133.9205  151.9422 H   0  0  0  0  0  0  0  0  0  0  0  0
  146.1563  131.3720  152.2458 H   0  0  0  0  0  0  0  0  0  0  0  0
  143.8247  131.4083  151.3429 H   0  0  0  0  0  0  0  0  0  0  0  0
  142.8133  133.6228  150.7385 H   0  0  0  0  0  0  0  0  0  0  0  0
  147.4886  135.8072  152.0261 H   0  0  0  0  0  0  0  0  0  0  0  0
  147.9981  137.6986  152.2143 H   0  0  0  0  0  0  0  0  0  0  0  0
  147.7199  139.9789  151.6702 H   0  0  0  0  0  0  0  0  0  0  0  0
  145.9873  139.8238  151.7619 H   0  0  0  0  0  0  0  0  0  0  0  0
  147.7021  139.4333  154.2694 H   0  0  0  0  0  0  0  0  0  0  0  0
  145.0529  140.2945  153.7818 H   0  0  0  0  0  0  0  0  0  0  0  0
  147.7810  141.8545  152.8862 H   0  0  0  0  0  0  0  0  0  0  0  0
  146.3400  142.0626  153.8452 H   0  0  0  0  0  0  0  0  0  0  0  0
  149.4486  140.1928  154.8485 H   0  0  0  0  0  0  0  0  0  0  0  0
  149.9464  141.5830  153.9029 H   0  0  0  0  0  0  0  0  0  0  0  0
  151.3890  141.3174  155.9198 H   0  0  0  0  0  0  0  0  0  0  0  0
  150.5455  142.8478  155.9200 H   0  0  0  0  0  0  0  0  0  0  0  0
  149.7632  140.3544  157.5081 H   0  0  0  0  0  0  0  0  0  0  0  0
  150.3949  141.8460  158.1690 H   0  0  0  0  0  0  0  0  0  0  0  0
  147.8947  141.7042  158.3906 H   0  0  0  0  0  0  0  0  0  0  0  0
  148.3872  143.0856  157.4403 H   0  0  0  0  0  0  0  0  0  0  0  0
  146.5079  141.9336  156.3442 H   0  0  0  0  0  0  0  0  0  0  0  0
  147.3751  140.4145  156.3317 H   0  0  0  0  0  0  0  0  0  0  0  0
  148.2418  142.8516  154.9514 H   0  0  0  0  0  0  0  0  0  0  0  0
  1  2  1  0  0  0  0
  1 22  1  0  0  0  0
  1 23  1  0  0  0  0
  1 24  1  0  0  0  0
  2  7  1  0  0  0  0
  2  3  2  0  0  0  0
  3  4  1  0  0  0  0
  3 25  1  0  0  0  0
  4  5  2  0  0  0  0
  4 26  1  0  0  0  0
  5  6  1  0  0  0  0
  5 27  1  0  0  0  0
  6  7  2  0  0  0  0
  7  8  1  0  0  0  0
  8  9  1  0  0  0  0
  8 28  1  0  0  0  0
  9 10  2  0  0  0  0
  9 11  1  0  0  0  0
 11 12  1  0  0  0  0
 11 29  1  0  0  0  0
 12 13  1  0  0  0  0
 12 30  1  0  0  0  0
 12 31  1  0  0  0  0
 13 14  1  0  0  0  0
 13 15  1  0  0  0  0
 13 32  1  0  0  0  0
 14 33  1  0  0  0  0
 15 16  1  0  0  0  0
 15 34  1  0  0  0  0
 15 35  1  0  0  0  0
 16 21  1  0  0  0  0
 16 17  1  0  0  0  0
 16 46  1  0  0  0  0
 17 18  1  0  0  0  0
 17 36  1  0  0  0  0
 17 37  1  0  0  0  0
 18 19  1  0  0  0  0
 18 38  1  0  0  0  0
 18 39  1  0  0  0  0
 19 20  1  0  0  0  0
 19 40  1  0  0  0  0
 19 41  1  0  0  0  0
 20 21  1  0  0  0  0
 20 42  1  0  0  0  0
 20 43  1  0  0  0  0
 21 44  1  0  0  0  0
 21 45  1  0  0  0  0
M  CHG  1  16   1
M  END
> <s_m_source_file>
AV-unprocessed.smi

> <i_m_source_file_index>
1229

> <i_lp_mmshare_version>
43012

> <i_f3d_flags>
0

> <s_epik_input>
W0NIM11jMVtjSF1bY0hdW2NIXW5jMVtOSF1DKD1PKVtOSF1bQ0gyXVtDQEhdKFtPSF0pW0NIMl1OMltDSDJdW0NIMl1bQ0gyXVtDSDJdW0NIMl0y

> <s_epik_cmdline>
J2VwaWtfcHl0aG9uJywgJy1waCcsICc3LjAnLCAnLXRuJywgJzgnLCAnLW1hJywgJzIwMCcsICctbWV0YWxfYmluZGluZycsICctaW1hZScsICc8aW5maWxlLm1hZT4nLCAnLW9tYWUnLCAnPG91dGZpbGUubWFlPic=

> <r_epik_Ionization_Penalty>
0.00511007

> <r_epik_Ionization_Penalty_Charging>
0.00506051

> <r_epik_Ionization_Penalty_Neutral>
4.95577e-05

> <r_epik_State_Penalty>
0.00368188

> <r_epik_Charging_Adjusted_Penalty>
0.0087424

> <i_epik_Tot_Q>
1

> <i_epik_Tot_abs_Q>
1

> <r_epik_Metal_State_Penalty>
-0

> <b_epik_Metal_Only>
0

> <s_lp_Force_Field>
OPLS_2005

> <r_lp_Energy>
20.9384

> <b_lp_Chiralities_Consistent>
1

> <s_lp_Variant>
AV-unprocessed.smi:1229-1

> <Gold.Version>
5.8.1

> <Gold.Id.Protein>
6NUR|6NUR_protein|mol2

> <Gold.PLP.Fitness>
47.3916

> <Gold.PLP.PLP>
-31.7668

> <Gold.PLP.part.hbond>
-3.8387

> <Gold.PLP.part.metal>
0.0000

> <Gold.PLP.part.buried>
-2.7186

> <Gold.PLP.part.nonpolar>
-29.4889

> <Gold.PLP.part.repulsive>
4.2305

> <Gold.PLP.ligand.clash>
0.0000

> <Gold.PLP.ligand.torsion>
0.9151

> <Gold.PLP.Chemscore.Hbond>
4.7980

> <Gold.PLP.Chemscore.CHOScore>
1.0000

> <Gold.PLP.Chemscore.Metal>
0.0000

> <Gold.Chemscore.Hbonds>
donor molecule, donor type, donor heavy atom, donor atom, acceptor molecule, acceptor atom, score
      L1  H     8    28       P1  7948  0.94
      L1  H    11    29       P1  7948  0.83
      L1  H    14    33       P1 10175  1.00
      L1  H    16    46       P1  8028  1.79
      L1  C     5    27       P1 10186  1.00

> <Gold.PLP.Chemscore.Internal.Correction>
0.0609

> <Gold.Rescore>
     Score         DG    S(hbond)    S(metal)    S(lipo)     H(rot)  DE(clash)    DE(int)     intcor
     16.97     -21.26       3.74        0.00      78.66       2.31       2.21       2.08       ----

> <Gold.Chemscore.Fitness>
16.9738

> <Gold.Chemscore.DG>
-21.2604

> <Gold.Chemscore.ZeroCoef>
-5.4800

> <Gold.Chemscore.Hbond>
3.7393

> <Gold.Chemscore.Metal>
0.0000

> <Gold.Chemscore.Lipo>
78.6631

> <Gold.Chemscore.Internal_Hbond>
0.0000

> <Gold.Chemscore.DEClash>
2.2057

> <Gold.Chemscore.DEInternal>
2.0809

> <Gold.Chemscore.Rot>
2.3095

> <Gold.Chemscore.Internal.Correction>
   9.000000E+99

> <Gold.Chemscore.Hbonds>
donor molecule, donor type, donor heavy atom, donor atom, acceptor molecule, acceptor atom, score
      L1  H     8    28       P1  7948  0.88
      L1  H    11    29       P1  7948  0.83
      L1  H    14    33       P1 10175  0.97
      L1  H    16    46       P1  8028  0.84

> <Gold.Chemscore.Hbond.Weighted>
-12.4893

> <Gold.Chemscore.Metal.Weighted>
-0.0000

> <Gold.Chemscore.Lipo.Weighted>
-9.2036

> <Gold.Chemscore.Internal_Hbond.Weighted>
0.0000

> <Gold.Chemscore.DEClash.Weighted>
2.2057

> <Gold.Chemscore.DEInternal.Weighted>
2.0809

> <Gold.Chemscore.Rot.Weighted>
5.9124

> <Gold.Chemscore.Internal.Correction.Weighted>
   9.000000E+99

> <Gold.Protein.RotatedTorsions>
[ 6907 6896 6895 6894 ] final  -28.70 input  -60.11 | X-H torsion
[ 7974 7965 7964 7962 ] final   29.66 input  175.53 | X-H torsion
[ 8008 7997 7996 7995 ] final  125.78 input   59.86 | X-H torsion
[ 10167 10162 10161 10158 ] final -178.72 input  -65.29 | X-H torsion
[ 10718 10713 10712 10709 ] final  170.52 input   66.30 | X-H torsion
[ 10763 10752 10751 10750 ] final  -80.19 input  -60.55 | X-H torsion
[ 11005 11000 10999 10996 ] final   62.40 input  -57.11 | X-H torsion

> <Gold.Protein.ActiveResidues>
 VAL166  LYS551  ARG553  GLY616  TRP617  ASP618  TYR619  PRO620  LYS621  CYS622 
 ASP623  PHE694  ASN695  SER759  ASP760  ASP761  ALA762  ILE779  LEU786  VAL792 
 PHE793  MET794  SER795  GLU796  ALA797  LYS798  CYS799  TRP800  GLU811  SER814 

> <Gold.Protein.RotatedAtoms>
  151.1293  135.0122  159.8574 H   0  0  0  0  0  0  0  0  0  0  0  0  # atno 6907 bound_to 6896
  152.5450  134.1629  159.8575 H   0  0  0  0  0  0  0  0  0  0  0  0  # atno 6908 bound_to 6896
  151.1694  133.4749  159.2627 H   0  0  0  0  0  0  0  0  0  0  0  0  # atno 6909 bound_to 6896
  146.1658  139.6892  142.9002 H   0  0  0  0  0  0  0  0  0  0  0  0  # atno 7974 bound_to 7965
  156.2844  140.2708  156.2005 H   0  0  0  0  0  0  0  0  0  0  0  0  # atno 8008 bound_to 7997
  155.0366  140.0386  157.2512 H   0  0  0  0  0  0  0  0  0  0  0  0  # atno 8009 bound_to 7997
  154.7310  140.2706  155.6462 H   0  0  0  0  0  0  0  0  0  0  0  0  # atno 8010 bound_to 7997
  139.5419  144.2340  152.0912 H   0  0  0  0  0  0  0  0  0  0  0  0  # atno 10167 bound_to 10162
  157.0069  131.0192  151.2814 H   0  0  0  0  0  0  0  0  0  0  0  0  # atno 10718 bound_to 10713
  154.5480  135.5670  153.6897 H   0  0  0  0  0  0  0  0  0  0  0  0  # atno 10763 bound_to 10752
  152.9982  135.6244  154.2412 H   0  0  0  0  0  0  0  0  0  0  0  0  # atno 10764 bound_to 10752
  154.2345  135.2864  155.2857 H   0  0  0  0  0  0  0  0  0  0  0  0  # atno 10765 bound_to 10752
  140.0094  134.6319  155.9804 H   0  0  0  0  0  0  0  0  0  0  0  0  # atno 11005 bound_to 11000
  145.4470  141.0426  143.2825 LP  0  0  0  0  0  0  0  0  0  0  0  0  # atno 17320 bound_to 7965
  144.8091  139.5996  143.7037 LP  0  0  0  0  0  0  0  0  0  0  0  0  # atno 17321 bound_to 7965
  140.1820  144.4835  150.6523 LP  0  0  0  0  0  0  0  0  0  0  0  0  # atno 17342 bound_to 10162
  140.6652  143.2265  151.5760 LP  0  0  0  0  0  0  0  0  0  0  0  0  # atno 17343 bound_to 10162
  157.5349  130.8082  149.7960 LP  0  0  0  0  0  0  0  0  0  0  0  0  # atno 17370 bound_to 10713
  156.0150  130.3817  150.2139 LP  0  0  0  0  0  0  0  0  0  0  0  0  # atno 17371 bound_to 10713
  141.1700  133.6537  156.4618 LP  0  0  0  0  0  0  0  0  0  0  0  0  # atno 17394 bound_to 11000
  140.4581  134.6866  157.5072 LP  0  0  0  0  0  0  0  0  0  0  0  0  # atno 17395 bound_to 11000

$$$$
