AV-unprocessed.smi:861|AV-procd|sdf|3971|dock3
  -GOLD-   22720 1443D 1   1.00000     0.00000
 Structure written by MMmdl.
 43 44  0  0  0  0  0  0  0  0  1 V2000
  152.4928  143.3929  161.6487 C   0  0  0  0  0  0  0  0  0  0  0  0
  152.7551  142.9539  160.1978 C   0  0  0  0  0  0  0  0  0  0  0  0
  152.1438  143.9670  159.2175 C   0  0  0  0  0  0  0  0  0  0  0  0
  152.2367  141.5306  159.9052 C   0  0  0  0  0  0  0  0  0  0  0  0
  152.1456  141.1960  158.4028 C   0  0  0  0  0  0  0  0  0  0  0  0
  151.5122  139.9152  158.0887 N   0  0  0  0  0  0  0  0  0  0  0  0
  152.1348  138.8309  158.8400 C   0  0  0  0  0  0  0  0  0  0  0  0
  151.4924  137.4705  158.5248 C   0  0  0  0  0  0  0  0  0  0  0  0
  151.5673  137.2290  157.1246 O   0  0  0  0  0  0  0  0  0  0  0  0
  150.9153  138.2310  156.3479 C   0  0  2  0  0  0  0  0  0  0  0  0
  151.0460  137.8767  154.8565 C   0  0  0  0  0  0  0  0  0  0  0  0
  149.8165  138.1318  154.1142 N   0  0  0  0  0  0  0  0  0  0  0  0
  149.1991  139.3909  154.1419 C   0  0  0  0  0  0  0  0  0  0  0  0
  147.8164  139.4743  153.8827 C   0  0  0  0  0  0  0  0  0  0  0  0
  147.2201  140.7465  153.9205 C   0  0  0  0  0  0  0  0  0  0  0  0
  148.0530  141.8407  154.2174 C   0  0  0  0  0  0  0  0  0  0  0  0
  149.3754  141.7036  154.4622 N   0  0  0  0  0  0  0  0  0  0  0  0
  149.9403  140.4913  154.4270 N   0  0  0  0  0  0  0  0  0  0  0  0
  151.5672  139.5924  156.6636 C   0  0  0  0  0  0  0  0  0  0  0  0
  151.4283  143.3684  161.8840 H   0  0  0  0  0  0  0  0  0  0  0  0
  152.8450  144.4109  161.8175 H   0  0  0  0  0  0  0  0  0  0  0  0
  153.0090  142.7550  162.3654 H   0  0  0  0  0  0  0  0  0  0  0  0
  153.8337  142.9601  160.0356 H   0  0  0  0  0  0  0  0  0  0  0  0
  151.0585  144.0073  159.3160 H   0  0  0  0  0  0  0  0  0  0  0  0
  152.3750  143.7062  158.1843 H   0  0  0  0  0  0  0  0  0  0  0  0
  152.5320  144.9704  159.3950 H   0  0  0  0  0  0  0  0  0  0  0  0
  152.8703  140.7981  160.4074 H   0  0  0  0  0  0  0  0  0  0  0  0
  151.2484  141.4338  160.3536 H   0  0  0  0  0  0  0  0  0  0  0  0
  151.6260  142.0009  157.8806 H   0  0  0  0  0  0  0  0  0  0  0  0
  153.1574  141.1824  157.9986 H   0  0  0  0  0  0  0  0  0  0  0  0
  153.2006  138.7856  158.6100 H   0  0  0  0  0  0  0  0  0  0  0  0
  152.0550  139.0263  159.9100 H   0  0  0  0  0  0  0  0  0  0  0  0
  152.0148  136.6722  159.0522 H   0  0  0  0  0  0  0  0  0  0  0  0
  150.4523  137.4463  158.8527 H   0  0  0  0  0  0  0  0  0  0  0  0
  149.8581  138.2695  156.6183 H   0  0  0  0  0  0  0  0  0  0  0  0
  151.8169  138.5042  154.4084 H   0  0  0  0  0  0  0  0  0  0  0  0
  151.3857  136.8485  154.7278 H   0  0  0  0  0  0  0  0  0  0  0  0
  149.5807  137.4978  153.3648 H   0  0  0  0  0  0  0  0  0  0  0  0
  147.2304  138.5944  153.6604 H   0  0  0  0  0  0  0  0  0  0  0  0
  146.1657  140.8795  153.7298 H   0  0  0  0  0  0  0  0  0  0  0  0
  147.6532  142.8428  154.2613 H   0  0  0  0  0  0  0  0  0  0  0  0
  151.0563  140.3595  156.0834 H   0  0  0  0  0  0  0  0  0  0  0  0
  152.6052  139.5847  156.3275 H   0  0  0  0  0  0  0  0  0  0  0  0
  1  2  1  0  0  0  0
  1 20  1  0  0  0  0
  1 21  1  0  0  0  0
  1 22  1  0  0  0  0
  2  3  1  0  0  0  0
  2  4  1  0  0  0  0
  2 23  1  0  0  0  0
  3 24  1  0  0  0  0
  3 25  1  0  0  0  0
  3 26  1  0  0  0  0
  4  5  1  0  0  0  0
  4 27  1  0  0  0  0
  4 28  1  0  0  0  0
  5  6  1  0  0  0  0
  5 29  1  0  0  0  0
  5 30  1  0  0  0  0
  6 19  1  0  0  0  0
  6  7  1  0  0  0  0
  7  8  1  0  0  0  0
  7 31  1  0  0  0  0
  7 32  1  0  0  0  0
  8  9  1  0  0  0  0
  8 33  1  0  0  0  0
  8 34  1  0  0  0  0
  9 10  1  0  0  0  0
 10 11  1  0  0  0  0
 10 19  1  0  0  0  0
 10 35  1  0  0  0  0
 11 12  1  0  0  0  0
 11 36  1  0  0  0  0
 11 37  1  0  0  0  0
 12 13  1  0  0  0  0
 12 38  1  0  0  0  0
 13 18  1  0  0  0  0
 13 14  2  0  0  0  0
 14 15  1  0  0  0  0
 14 39  1  0  0  0  0
 15 16  2  0  0  0  0
 15 40  1  0  0  0  0
 16 17  1  0  0  0  0
 16 41  1  0  0  0  0
 17 18  2  0  0  0  0
 19 42  1  0  0  0  0
 19 43  1  0  0  0  0
M  END
> <s_m_source_file>
AV-unprocessed.smi

> <i_m_source_file_index>
861

> <i_lp_mmshare_version>
43012

> <i_f3d_flags>
0

> <s_epik_input>
W0NIM11bQ0hdKFtDSDNdKVtDSDJdW0NIMl1OMVtDSDJdW0NIMl1PW0NASF0oW0NIMl0xKVtDSDJdW05IXWMyW2NIXVtjSF1bY0hdbm4y

> <s_epik_cmdline>
J2VwaWtfcHl0aG9uJywgJy1waCcsICc3LjAnLCAnLXRuJywgJzgnLCAnLW1hJywgJzIwMCcsICctbWV0YWxfYmluZGluZycsICctaW1hZScsICc8aW5maWxlLm1hZT4nLCAnLW9tYWUnLCAnPG91dGZpbGUubWFlPic=

> <r_lp_tautomer_probability>
0.999978

> <r_epik_Ionization_Penalty>
1.1508

> <r_epik_Ionization_Penalty_Charging>
0

> <r_epik_Ionization_Penalty_Neutral>
1.1508

> <r_epik_State_Penalty>
1.22808

> <r_epik_Charging_Adjusted_Penalty>
1.22808

> <i_epik_Tot_Q>
0

> <i_epik_Tot_abs_Q>
0

> <r_epik_Metal_State_Penalty>
1.22149

> <b_epik_Metal_Only>
0

> <s_lp_Force_Field>
OPLS_2005

> <r_lp_Energy>
31.1204

> <b_lp_Chiralities_Consistent>
1

> <s_lp_Variant>
AV-unprocessed.smi:861-6

> <Gold.Version>
5.8.1

> <Gold.Id.Protein>
6NUR|6NUR_protein|mol2

> <Gold.PLP.Fitness>
43.5477

> <Gold.PLP.PLP>
-37.0681

> <Gold.PLP.part.hbond>
-3.9714

> <Gold.PLP.part.metal>
0.0000

> <Gold.PLP.part.buried>
-1.8023

> <Gold.PLP.part.nonpolar>
-30.8695

> <Gold.PLP.part.repulsive>
0.3529

> <Gold.PLP.ligand.clash>
0.0000

> <Gold.PLP.ligand.torsion>
0.8974

> <Gold.PLP.Chemscore.Hbond>
1.9157

> <Gold.PLP.Chemscore.CHOScore>
0.8235

> <Gold.PLP.Chemscore.Metal>
0.0000

> <Gold.Chemscore.Hbonds>
donor molecule, donor type, donor heavy atom, donor atom, acceptor molecule, acceptor atom, score
      L1  H    12    38       P1  7948  1.00
      P1  H  7989  7998       L1    18  0.83
      P1  H  8011  8017       L1    17  0.08
      L1  C    16    41       P1  8028  0.69

> <Gold.PLP.Chemscore.Internal.Correction>
0.0567

> <Gold.Rescore>
     Score         DG    S(hbond)    S(metal)    S(lipo)     H(rot)  DE(clash)    DE(int)     intcor
     15.93     -16.96       1.32        0.00      96.88       1.66       0.04       0.99       ----

> <Gold.Chemscore.Fitness>
15.9348

> <Gold.Chemscore.DG>
-16.9636

> <Gold.Chemscore.ZeroCoef>
-5.4800

> <Gold.Chemscore.Hbond>
1.3163

> <Gold.Chemscore.Metal>
0.0000

> <Gold.Chemscore.Lipo>
96.8777

> <Gold.Chemscore.Internal_Hbond>
0.0000

> <Gold.Chemscore.DEClash>
0.0434

> <Gold.Chemscore.DEInternal>
0.9854

> <Gold.Chemscore.Rot>
1.6591

> <Gold.Chemscore.Internal.Correction>
   9.000000E+99

> <Gold.Chemscore.Hbonds>
donor molecule, donor type, donor heavy atom, donor atom, acceptor molecule, acceptor atom, score
      L1  H    12    38       P1  7948  0.80
      P1  H  7989  7998       L1    18  0.24

> <Gold.Chemscore.Hbond.Weighted>
-4.3963

> <Gold.Chemscore.Metal.Weighted>
-0.0000

> <Gold.Chemscore.Lipo.Weighted>
-11.3347

> <Gold.Chemscore.Internal_Hbond.Weighted>
0.0000

> <Gold.Chemscore.DEClash.Weighted>
0.0434

> <Gold.Chemscore.DEInternal.Weighted>
0.9854

> <Gold.Chemscore.Rot.Weighted>
4.2474

> <Gold.Chemscore.Internal.Correction.Weighted>
   9.000000E+99

> <Gold.Protein.RotatedTorsions>
[ 6907 6896 6895 6894 ] final  -72.04 input  -60.11 | X-H torsion
[ 7974 7965 7964 7962 ] final -124.32 input  175.53 | X-H torsion
[ 8008 7997 7996 7995 ] final -176.22 input   59.86 | X-H torsion
[ 10167 10162 10161 10158 ] final -140.53 input  -65.29 | X-H torsion
[ 10718 10713 10712 10709 ] final  -86.73 input   66.30 | X-H torsion
[ 10763 10752 10751 10750 ] final   38.01 input  -60.55 | X-H torsion
[ 11005 11000 10999 10996 ] final  -94.68 input  -57.11 | X-H torsion

> <Gold.Protein.ActiveResidues>
 VAL166  LYS551  ARG553  GLY616  TRP617  ASP618  TYR619  PRO620  LYS621  CYS622 
 ASP623  PHE694  ASN695  SER759  ASP760  ASP761  ALA762  ILE779  LEU786  VAL792 
 PHE793  MET794  SER795  GLU796  ALA797  LYS798  CYS799  TRP800  GLU811  SER814 

> <Gold.Protein.RotatedAtoms>
  150.7186  134.5221  159.5658 H   0  0  0  0  0  0  0  0  0  0  0  0  # atno 6907 bound_to 6896
  152.2774  134.7864  160.0412 H   0  0  0  0  0  0  0  0  0  0  0  0  # atno 6908 bound_to 6896
  151.8522  133.3406  159.3714 H   0  0  0  0  0  0  0  0  0  0  0  0  # atno 6909 bound_to 6896
  145.0093  140.7892  143.4448 H   0  0  0  0  0  0  0  0  0  0  0  0  # atno 7974 bound_to 7965
  155.9922  140.1203  157.0627 H   0  0  0  0  0  0  0  0  0  0  0  0  # atno 8008 bound_to 7997
  154.4215  140.1123  156.5649 H   0  0  0  0  0  0  0  0  0  0  0  0  # atno 8009 bound_to 7997
  155.6327  140.3473  155.4690 H   0  0  0  0  0  0  0  0  0  0  0  0  # atno 8010 bound_to 7997
  139.8272  143.7494  152.2666 H   0  0  0  0  0  0  0  0  0  0  0  0  # atno 10167 bound_to 10162
  155.9988  130.4775  150.4759 H   0  0  0  0  0  0  0  0  0  0  0  0  # atno 10718 bound_to 10713
  153.0016  135.6261  154.2236 H   0  0  0  0  0  0  0  0  0  0  0  0  # atno 10763 bound_to 10752
  154.1979  135.2805  155.3002 H   0  0  0  0  0  0  0  0  0  0  0  0  # atno 10764 bound_to 10752
  154.5707  135.5677  153.7152 H   0  0  0  0  0  0  0  0  0  0  0  0  # atno 10765 bound_to 10752
  141.1464  133.7973  157.0331 H   0  0  0  0  0  0  0  0  0  0  0  0  # atno 11005 bound_to 11000
  145.2045  139.2235  143.5175 LP  0  0  0  0  0  0  0  0  0  0  0  0  # atno 17320 bound_to 7965
  146.3467  140.1869  142.8589 LP  0  0  0  0  0  0  0  0  0  0  0  0  # atno 17321 bound_to 7965
  139.7691  144.7482  151.0251 LP  0  0  0  0  0  0  0  0  0  0  0  0  # atno 17342 bound_to 10162
  140.7809  143.4665  151.0205 LP  0  0  0  0  0  0  0  0  0  0  0  0  # atno 17343 bound_to 10162
  157.2769  131.0599  151.2223 LP  0  0  0  0  0  0  0  0  0  0  0  0  # atno 17370 bound_to 10713
  157.3283  130.6972  149.6309 LP  0  0  0  0  0  0  0  0  0  0  0  0  # atno 17371 bound_to 10713
  140.0741  134.9685  157.1517 LP  0  0  0  0  0  0  0  0  0  0  0  0  # atno 17394 bound_to 11000
  140.3669  134.2433  155.7181 LP  0  0  0  0  0  0  0  0  0  0  0  0  # atno 17395 bound_to 11000

$$$$
