AV-unprocessed.smi:1870|AV-procd|sdf|7594|dock8
  -GOLD-   22720 9303D 1   1.00000     0.00000
 Structure written by MMmdl.
 48 50  0  0  0  0  0  0  0  0  2 V2000
  146.7290  137.2741  162.7258 C   0  0  0  0  0  0  0  0  0  0  0  0
  147.3663  136.4388  161.6482 C   0  0  0  0  0  0  0  0  0  0  0  0
  148.2963  137.0040  160.9507 N   0  0  0  0  0  0  0  0  0  0  0  0
  148.9457  136.3297  159.9349 N   0  0  0  0  0  0  0  0  0  0  0  0
  149.9817  137.1207  159.2573 C   0  0  0  0  0  0  0  0  0  0  0  0
  149.4719  137.8079  157.9702 C   0  0  1  0  0  0  0  0  0  0  0  0
  148.3545  138.5967  158.3283 O   0  0  0  0  0  0  0  0  0  0  0  0
  150.5341  138.7113  157.3032 C   0  0  0  0  0  0  0  0  0  0  0  0
  150.9740  139.8390  158.1652 N   0  3  1  0  0  0  0  0  0  0  0  0
  152.4099  139.7475  158.5195 C   0  0  0  0  0  0  0  0  0  0  0  0
  152.7343  140.7180  159.6620 C   0  0  0  0  0  0  0  0  0  0  0  0
  152.2235  142.1204  159.3882 C   0  0  0  0  0  0  0  0  0  0  0  0
  152.7377  143.2089  160.1225 C   0  0  0  0  0  0  0  0  0  0  0  0
  152.2444  144.5085  159.8994 C   0  0  0  0  0  0  0  0  0  0  0  0
  151.2342  144.7230  158.9429 C   0  0  0  0  0  0  0  0  0  0  0  0
  150.7171  143.6384  158.2088 C   0  0  0  0  0  0  0  0  0  0  0  0
  151.2061  142.3333  158.4268 C   0  0  0  0  0  0  0  0  0  0  0  0
  150.6439  141.1780  157.6056 C   0  0  0  0  0  0  0  0  0  0  0  0
  148.6720  135.0488  159.5555 C   0  0  0  0  0  0  0  0  0  0  0  0
  149.2639  134.4922  158.6299 O   0  0  0  0  0  0  0  0  0  0  0  0
  147.6246  134.4107  160.3558 C   0  0  0  0  0  0  0  0  0  0  0  0
  147.3171  133.0626  160.0013 C   0  0  0  0  0  0  0  0  0  0  0  0
  147.0769  131.9630  159.7308 N   0  0  0  0  0  0  0  0  0  0  0  0
  146.9912  135.0568  161.3664 C   0  0  0  0  0  0  0  0  0  0  0  0
  145.8959  134.4375  162.2236 C   0  0  0  0  0  0  0  0  0  0  0  0
  145.6430  137.2701  162.6295 H   0  0  0  0  0  0  0  0  0  0  0  0
  147.0567  138.3140  162.6814 H   0  0  0  0  0  0  0  0  0  0  0  0
  146.9833  136.8890  163.7135 H   0  0  0  0  0  0  0  0  0  0  0  0
  150.3715  137.8697  159.9494 H   0  0  0  0  0  0  0  0  0  0  0  0
  150.8350  136.4835  159.0148 H   0  0  0  0  0  0  0  0  0  0  0  0
  149.1285  137.0404  157.2783 H   0  0  0  0  0  0  0  0  0  0  0  0
  148.3546  139.3856  157.8081 H   0  0  0  0  0  0  0  0  0  0  0  0
  151.3934  138.0918  157.0417 H   0  0  0  0  0  0  0  0  0  0  0  0
  150.1602  139.1230  156.3650 H   0  0  0  0  0  0  0  0  0  0  0  0
  152.6685  138.7348  158.8316 H   0  0  0  0  0  0  0  0  0  0  0  0
  153.0148  139.9732  157.6396 H   0  0  0  0  0  0  0  0  0  0  0  0
  152.2778  140.3659  160.5878 H   0  0  0  0  0  0  0  0  0  0  0  0
  153.8115  140.7457  159.8314 H   0  0  0  0  0  0  0  0  0  0  0  0
  153.5078  143.0493  160.8634 H   0  0  0  0  0  0  0  0  0  0  0  0
  152.6393  145.3405  160.4640 H   0  0  0  0  0  0  0  0  0  0  0  0
  150.8563  145.7205  158.7721 H   0  0  0  0  0  0  0  0  0  0  0  0
  149.9447  143.8126  157.4736 H   0  0  0  0  0  0  0  0  0  0  0  0
  151.0362  141.2604  156.5909 H   0  0  0  0  0  0  0  0  0  0  0  0
  149.5631  141.3005  157.5435 H   0  0  0  0  0  0  0  0  0  0  0  0
  145.7986  133.3653  162.0553 H   0  0  0  0  0  0  0  0  0  0  0  0
  144.9337  134.8981  161.9981 H   0  0  0  0  0  0  0  0  0  0  0  0
  146.1049  134.5782  163.2845 H   0  0  0  0  0  0  0  0  0  0  0  0
  150.4698  139.7480  159.0355 H   0  0  0  0  0  0  0  0  0  0  0  0
  1  2  1  0  0  0  0
  1 26  1  0  0  0  0
  1 27  1  0  0  0  0
  1 28  1  0  0  0  0
  2 24  1  0  0  0  0
  2  3  2  0  0  0  0
  3  4  1  0  0  0  0
  4  5  1  0  0  0  0
  4 19  1  0  0  0  0
  5  6  1  0  0  0  0
  5 29  1  0  0  0  0
  5 30  1  0  0  0  0
  6  7  1  0  0  0  0
  6  8  1  0  0  0  0
  6 31  1  0  0  0  0
  7 32  1  0  0  0  0
  8  9  1  0  0  0  0
  8 33  1  0  0  0  0
  8 34  1  0  0  0  0
  9 18  1  0  0  0  0
  9 10  1  0  0  0  0
  9 48  1  0  0  0  0
 10 11  1  0  0  0  0
 10 35  1  0  0  0  0
 10 36  1  0  0  0  0
 11 12  1  0  0  0  0
 11 37  1  0  0  0  0
 11 38  1  0  0  0  0
 12 17  2  0  0  0  0
 12 13  1  0  0  0  0
 13 14  2  0  0  0  0
 13 39  1  0  0  0  0
 14 15  1  0  0  0  0
 14 40  1  0  0  0  0
 15 16  2  0  0  0  0
 15 41  1  0  0  0  0
 16 17  1  0  0  0  0
 16 42  1  0  0  0  0
 17 18  1  0  0  0  0
 18 43  1  0  0  0  0
 18 44  1  0  0  0  0
 19 20  2  0  0  0  0
 19 21  1  0  0  0  0
 21 22  1  0  0  0  0
 21 24  2  0  0  0  0
 22 23  3  0  0  0  0
 24 25  1  0  0  0  0
 25 45  1  0  0  0  0
 25 46  1  0  0  0  0
 25 47  1  0  0  0  0
M  CHG  1   9   1
M  END
> <s_m_source_file>
AV-unprocessed.smi

> <i_m_source_file_index>
1870

> <i_lp_mmshare_version>
43012

> <i_f3d_flags>
0

> <s_epik_input>
TiNDYyhjMVtDSDNdKWMoPU8pbihuYzFbQ0gzXSlbQ0gyXVtDQEhdKFtPSF0pW0NIMl1OKFtDSDJdW0NIMl0yKVtDSDJdYyhjMjMpW2NIXVtjSF1bY0hdW2NIXTM=

> <s_epik_cmdline>
J2VwaWtfcHl0aG9uJywgJy1waCcsICc3LjAnLCAnLXRuJywgJzgnLCAnLW1hJywgJzIwMCcsICctbWV0YWxfYmluZGluZycsICctaW1hZScsICc8aW5maWxlLm1hZT4nLCAnLW9tYWUnLCAnPG91dGZpbGUubWFlPic=

> <r_epik_Ionization_Penalty>
0.0122865

> <r_epik_Ionization_Penalty_Charging>
0.0122864

> <r_epik_Ionization_Penalty_Neutral>
1.48087e-07

> <r_epik_State_Penalty>
0.00950248

> <r_epik_Charging_Adjusted_Penalty>
0.0217889

> <i_epik_Tot_Q>
1

> <i_epik_Tot_abs_Q>
1

> <r_epik_Metal_State_Penalty>
0.00950248

> <b_epik_Metal_Only>
0

> <s_lp_Force_Field>
OPLS_2005

> <r_lp_Energy>
36.9803

> <b_lp_Chiralities_Consistent>
1

> <s_lp_Variant>
AV-unprocessed.smi:1870-2

> <Gold.Version>
5.8.1

> <Gold.Id.Protein>
6NUR|6NUR_protein|mol2

> <Gold.PLP.Fitness>
51.6698

> <Gold.PLP.PLP>
-46.9954

> <Gold.PLP.part.hbond>
-3.9011

> <Gold.PLP.part.metal>
0.0000

> <Gold.PLP.part.buried>
-2.7251

> <Gold.PLP.part.nonpolar>
-40.0066

> <Gold.PLP.part.repulsive>
0.1251

> <Gold.PLP.ligand.clash>
0.0000

> <Gold.PLP.ligand.torsion>
1.0948

> <Gold.PLP.Chemscore.Hbond>
2.2681

> <Gold.PLP.Chemscore.CHOScore>
0.0000

> <Gold.PLP.Chemscore.Metal>
0.0000

> <Gold.Chemscore.Hbonds>
donor molecule, donor type, donor heavy atom, donor atom, acceptor molecule, acceptor atom, score
      P1  H  6896  6909       L1    20  0.90
      P1  H  6931  6943       L1     3  1.00
      P1  H  6934  6947       L1     3  0.14

> <Gold.PLP.Chemscore.Internal.Correction>
0.0596

> <Gold.Rescore>
     Score         DG    S(hbond)    S(metal)    S(lipo)     H(rot)  DE(clash)    DE(int)     intcor
     18.93     -20.37       1.59        0.00     129.13       2.16       0.37       1.07       ----

> <Gold.Chemscore.Fitness>
18.9326

> <Gold.Chemscore.DG>
-20.3726

> <Gold.Chemscore.ZeroCoef>
-5.4800

> <Gold.Chemscore.Hbond>
1.5930

> <Gold.Chemscore.Metal>
0.0000

> <Gold.Chemscore.Lipo>
129.1347

> <Gold.Chemscore.Internal_Hbond>
0.0000

> <Gold.Chemscore.DEClash>
0.3720

> <Gold.Chemscore.DEInternal>
1.0680

> <Gold.Chemscore.Rot>
2.1628

> <Gold.Chemscore.Internal.Correction>
   9.000000E+99

> <Gold.Chemscore.Hbonds>
donor molecule, donor type, donor heavy atom, donor atom, acceptor molecule, acceptor atom, score
      P1  H  6896  6909       L1    20  0.18
      P1  H  6931  6943       L1     3  0.66
      P1  H  6934  6947       L1     3  0.01

> <Gold.Chemscore.Hbond.Weighted>
-5.3206

> <Gold.Chemscore.Metal.Weighted>
-0.0000

> <Gold.Chemscore.Lipo.Weighted>
-15.1088

> <Gold.Chemscore.Internal_Hbond.Weighted>
0.0000

> <Gold.Chemscore.DEClash.Weighted>
0.3720

> <Gold.Chemscore.DEInternal.Weighted>
1.0680

> <Gold.Chemscore.Rot.Weighted>
5.5367

> <Gold.Chemscore.Internal.Correction.Weighted>
   9.000000E+99

> <Gold.Protein.RotatedTorsions>
[ 6907 6896 6895 6894 ] final   23.96 input  -60.11 | X-H torsion
[ 7974 7965 7964 7962 ] final  -18.26 input  175.53 | X-H torsion
[ 8008 7997 7996 7995 ] final  162.64 input   59.86 | X-H torsion
[ 10167 10162 10161 10158 ] final  130.38 input  -65.29 | X-H torsion
[ 10718 10713 10712 10709 ] final -175.91 input   66.30 | X-H torsion
[ 10763 10752 10751 10750 ] final  112.59 input  -60.55 | X-H torsion
[ 11005 11000 10999 10996 ] final  149.00 input  -57.11 | X-H torsion

> <Gold.Protein.ActiveResidues>
 VAL166  LYS551  ARG553  GLY616  TRP617  ASP618  TYR619  PRO620  LYS621  CYS622 
 ASP623  PHE694  ASN695  SER759  ASP760  ASP761  ALA762  ILE779  LEU786  VAL792 
 PHE793  MET794  SER795  GLU796  ALA797  LYS798  CYS799  TRP800  GLU811  SER814 

> <Gold.Protein.RotatedAtoms>
  151.9503  135.0172  160.0541 H   0  0  0  0  0  0  0  0  0  0  0  0  # atno 6907 bound_to 6896
  152.1959  133.4801  159.5041 H   0  0  0  0  0  0  0  0  0  0  0  0  # atno 6908 bound_to 6896
  150.6944  134.1570  159.4205 H   0  0  0  0  0  0  0  0  0  0  0  0  # atno 6909 bound_to 6896
  146.1901  140.3896  142.8461 H   0  0  0  0  0  0  0  0  0  0  0  0  # atno 7974 bound_to 7965
  156.2016  140.1745  156.7887 H   0  0  0  0  0  0  0  0  0  0  0  0  # atno 8008 bound_to 7997
  154.5599  140.0701  156.8833 H   0  0  0  0  0  0  0  0  0  0  0  0  # atno 8009 bound_to 7997
  155.2868  140.3352  155.4257 H   0  0  0  0  0  0  0  0  0  0  0  0  # atno 8010 bound_to 7997
  139.5433  144.6750  151.4555 H   0  0  0  0  0  0  0  0  0  0  0  0  # atno 10167 bound_to 10162
  156.8069  130.9572  151.3117 H   0  0  0  0  0  0  0  0  0  0  0  0  # atno 10718 bound_to 10713
  153.4800  135.3681  155.2437 H   0  0  0  0  0  0  0  0  0  0  0  0  # atno 10763 bound_to 10752
  154.8755  135.3952  154.3711 H   0  0  0  0  0  0  0  0  0  0  0  0  # atno 10764 bound_to 10752
  153.4313  135.7082  153.6294 H   0  0  0  0  0  0  0  0  0  0  0  0  # atno 10765 bound_to 10752
  140.1008  134.8984  157.1792 H   0  0  0  0  0  0  0  0  0  0  0  0  # atno 11005 bound_to 11000
  144.8470  140.6944  143.6192 LP  0  0  0  0  0  0  0  0  0  0  0  0  # atno 17320 bound_to 7965
  145.3819  139.1635  143.4276 LP  0  0  0  0  0  0  0  0  0  0  0  0  # atno 17321 bound_to 7965
  140.6671  143.8374  150.6955 LP  0  0  0  0  0  0  0  0  0  0  0  0  # atno 17342 bound_to 10162
  140.1787  143.4133  152.1949 LP  0  0  0  0  0  0  0  0  0  0  0  0  # atno 17343 bound_to 10162
  157.6526  130.8897  149.9663 LP  0  0  0  0  0  0  0  0  0  0  0  0  # atno 17370 bound_to 10713
  156.1068  130.3652  150.0120 LP  0  0  0  0  0  0  0  0  0  0  0  0  # atno 17371 bound_to 10713
  140.3223  134.2902  155.7244 LP  0  0  0  0  0  0  0  0  0  0  0  0  # atno 17394 bound_to 11000
  141.2105  133.7718  156.9928 LP  0  0  0  0  0  0  0  0  0  0  0  0  # atno 17395 bound_to 11000

$$$$
