AV-unprocessed.smi:1826|AV-procd|sdf|7415|dock2
  -GOLD-   22720 9 93D 1   1.00000     0.00000
 Structure written by MMmdl.
 39 41  0  0  0  0  0  0  0  0  1 V2000
  150.9034  139.2891  153.8371 O   0  0  0  0  0  0  0  0  0  0  0  0
  150.7349  138.9638  155.2001 C   0  0  0  0  0  0  0  0  0  0  0  0
  151.0557  140.1105  156.1101 C   0  0  0  0  0  0  0  0  0  0  0  0
  151.8839  139.9671  157.1453 N   0  0  0  0  0  0  0  0  0  0  0  0
  151.8543  141.2146  157.7352 C   0  0  0  0  0  0  0  0  0  0  0  0
  152.5207  141.7030  158.8818 C   0  0  0  0  0  0  0  0  0  0  0  0
  152.3250  143.0323  159.3098 C   0  0  0  0  0  0  0  0  0  0  0  0
  151.4579  143.8888  158.6018 C   0  0  0  0  0  0  0  0  0  0  0  0
  150.7837  143.4212  157.4580 C   0  0  0  0  0  0  0  0  0  0  0  0
  150.9908  142.0968  157.0265 C   0  0  0  0  0  0  0  0  0  0  0  0
  150.5106  141.3454  155.9557 N   0  0  0  0  0  0  0  0  0  0  0  0
  149.5917  141.8102  154.9198 C   0  0  0  0  0  0  0  0  0  0  0  0
  148.3234  140.9374  154.7568 C   0  0  2  0  0  0  0  0  0  0  0  0
  148.3879  140.1820  153.5632 O   0  0  0  0  0  0  0  0  0  0  0  0
  147.0320  141.7373  154.8810 C   0  0  0  0  0  0  0  0  0  0  0  0
  146.6383  142.6533  153.8796 C   0  0  0  0  0  0  0  0  0  0  0  0
  145.4566  143.4047  154.0265 C   0  0  0  0  0  0  0  0  0  0  0  0
  144.6525  143.2522  155.1765 C   0  0  0  0  0  0  0  0  0  0  0  0
  143.3739  144.0596  155.3448 C   0  0  0  0  0  0  0  0  0  0  0  0
  142.3328  143.2293  155.3898 F   0  0  0  0  0  0  0  0  0  0  0  0
  143.4129  144.7618  156.4777 F   0  0  0  0  0  0  0  0  0  0  0  0
  143.1999  144.9107  154.3329 F   0  0  0  0  0  0  0  0  0  0  0  0
  145.0394  142.3280  156.1702 C   0  0  0  0  0  0  0  0  0  0  0  0
  146.2213  141.5767  156.0241 C   0  0  0  0  0  0  0  0  0  0  0  0
  151.3990  138.5991  153.4233 H   0  0  0  0  0  0  0  0  0  0  0  0
  149.7001  138.6583  155.3585 H   0  0  0  0  0  0  0  0  0  0  0  0
  151.3525  138.1013  155.4424 H   0  0  0  0  0  0  0  0  0  0  0  0
  153.1825  141.0527  159.4341 H   0  0  0  0  0  0  0  0  0  0  0  0
  152.8405  143.3955  160.1870 H   0  0  0  0  0  0  0  0  0  0  0  0
  151.3110  144.9055  158.9363 H   0  0  0  0  0  0  0  0  0  0  0  0
  150.1203  144.0771  156.9148 H   0  0  0  0  0  0  0  0  0  0  0  0
  149.3064  142.8391  155.1386 H   0  0  0  0  0  0  0  0  0  0  0  0
  150.1352  141.8531  153.9754 H   0  0  0  0  0  0  0  0  0  0  0  0
  148.3222  140.2065  155.5664 H   0  0  0  0  0  0  0  0  0  0  0  0
  148.8893  140.6699  152.9279 H   0  0  0  0  0  0  0  0  0  0  0  0
  147.2483  142.7990  153.0001 H   0  0  0  0  0  0  0  0  0  0  0  0
  145.1754  144.1021  153.2513 H   0  0  0  0  0  0  0  0  0  0  0  0
  144.4303  142.1943  157.0522 H   0  0  0  0  0  0  0  0  0  0  0  0
  146.5090  140.8817  156.7993 H   0  0  0  0  0  0  0  0  0  0  0  0
  1  2  1  0  0  0  0
  1 25  1  0  0  0  0
  2  3  1  0  0  0  0
  2 26  1  0  0  0  0
  2 27  1  0  0  0  0
  3 11  1  0  0  0  0
  3  4  2  0  0  0  0
  4  5  1  0  0  0  0
  5 10  2  0  0  0  0
  5  6  1  0  0  0  0
  6  7  2  0  0  0  0
  6 28  1  0  0  0  0
  7  8  1  0  0  0  0
  7 29  1  0  0  0  0
  8  9  2  0  0  0  0
  8 30  1  0  0  0  0
  9 10  1  0  0  0  0
  9 31  1  0  0  0  0
 10 11  1  0  0  0  0
 11 12  1  0  0  0  0
 12 13  1  0  0  0  0
 12 32  1  0  0  0  0
 12 33  1  0  0  0  0
 13 14  1  0  0  0  0
 13 15  1  0  0  0  0
 13 34  1  0  0  0  0
 14 35  1  0  0  0  0
 15 24  1  0  0  0  0
 15 16  2  0  0  0  0
 16 17  1  0  0  0  0
 16 36  1  0  0  0  0
 17 18  2  0  0  0  0
 17 37  1  0  0  0  0
 18 19  1  0  0  0  0
 18 23  1  0  0  0  0
 19 20  1  0  0  0  0
 19 21  1  0  0  0  0
 19 22  1  0  0  0  0
 23 24  2  0  0  0  0
 23 38  1  0  0  0  0
 24 39  1  0  0  0  0
M  END
> <s_m_source_file>
AV-unprocessed.smi

> <i_m_source_file_index>
1826

> <i_lp_mmshare_version>
43012

> <i_f3d_flags>
0

> <s_epik_input>
W2NIXTFbY0hdW2NIXVtjSF1jKGMxMiluKGMobjIpW0NIMl1bT0hdKVtDSDJdW0NASF0oW09IXSljM1tjSF1bY0hdYyhDKEYpKEYpRilbY0hdW2NIXTM=

> <s_epik_cmdline>
J2VwaWtfcHl0aG9uJywgJy1waCcsICc3LjAnLCAnLXRuJywgJzgnLCAnLW1hJywgJzIwMCcsICctbWV0YWxfYmluZGluZycsICctaW1hZScsICc8aW5maWxlLm1hZT4nLCAnLW9tYWUnLCAnPG91dGZpbGUubWFlPic=

> <r_epik_Ionization_Penalty>
0.0634718

> <r_epik_Ionization_Penalty_Charging>
0

> <r_epik_Ionization_Penalty_Neutral>
0.0634718

> <r_epik_State_Penalty>
0.0551572

> <r_epik_Charging_Adjusted_Penalty>
0.0551572

> <i_epik_Tot_Q>
0

> <i_epik_Tot_abs_Q>
0

> <r_epik_Metal_State_Penalty>
5.78034e-05

> <b_epik_Metal_Only>
0

> <s_lp_Force_Field>
OPLS_2005

> <r_lp_Energy>
13.2523

> <b_lp_Chiralities_Consistent>
1

> <s_lp_Variant>
AV-unprocessed.smi:1826-1

> <Gold.Version>
5.8.1

> <Gold.Id.Protein>
6NUR|6NUR_protein|mol2

> <Gold.PLP.Fitness>
50.0526

> <Gold.PLP.PLP>
-46.5504

> <Gold.PLP.part.hbond>
-2.5638

> <Gold.PLP.part.metal>
0.0000

> <Gold.PLP.part.buried>
-2.2115

> <Gold.PLP.part.nonpolar>
-41.6014

> <Gold.PLP.part.repulsive>
0.0000

> <Gold.PLP.ligand.clash>
0.7128

> <Gold.PLP.ligand.torsion>
0.9597

> <Gold.PLP.Chemscore.Hbond>
1.7613

> <Gold.PLP.Chemscore.CHOScore>
0.0000

> <Gold.PLP.Chemscore.Metal>
0.0000

> <Gold.Chemscore.Hbonds>
donor molecule, donor type, donor heavy atom, donor atom, acceptor molecule, acceptor atom, score
      L1  H    14    35       P1  7957  0.58
      P1  H  7989  7998       L1     1  1.00

> <Gold.PLP.Chemscore.Internal.Correction>
0.8506

> <Gold.Rescore>
     Score         DG    S(hbond)    S(metal)    S(lipo)     H(rot)  DE(clash)    DE(int)     intcor
     13.87     -16.37       1.63        0.00     110.41       2.91       1.74       0.76       ----

> <Gold.Chemscore.Fitness>
13.8719

> <Gold.Chemscore.DG>
-16.3656

> <Gold.Chemscore.ZeroCoef>
-5.4800

> <Gold.Chemscore.Hbond>
1.6250

> <Gold.Chemscore.Metal>
0.0000

> <Gold.Chemscore.Lipo>
110.4109

> <Gold.Chemscore.Internal_Hbond>
0.0000

> <Gold.Chemscore.DEClash>
1.7360

> <Gold.Chemscore.DEInternal>
0.7576

> <Gold.Chemscore.Rot>
2.9141

> <Gold.Chemscore.Internal.Correction>
   9.000000E+99

> <Gold.Chemscore.Hbonds>
donor molecule, donor type, donor heavy atom, donor atom, acceptor molecule, acceptor atom, score
      L1  H    14    35       P1  7957  0.56
      P1  H  7989  7998       L1     1  0.64

> <Gold.Chemscore.Hbond.Weighted>
-5.4275

> <Gold.Chemscore.Metal.Weighted>
-0.0000

> <Gold.Chemscore.Lipo.Weighted>
-12.9181

> <Gold.Chemscore.Internal_Hbond.Weighted>
0.0000

> <Gold.Chemscore.DEClash.Weighted>
1.7360

> <Gold.Chemscore.DEInternal.Weighted>
0.7576

> <Gold.Chemscore.Rot.Weighted>
7.4600

> <Gold.Chemscore.Internal.Correction.Weighted>
   9.000000E+99

> <Gold.Protein.RotatedTorsions>
[ 6907 6896 6895 6894 ] final  159.17 input  -60.11 | X-H torsion
[ 7974 7965 7964 7962 ] final  -37.90 input  175.53 | X-H torsion
[ 8008 7997 7996 7995 ] final   26.87 input   59.86 | X-H torsion
[ 10167 10162 10161 10158 ] final  -30.29 input  -65.29 | X-H torsion
[ 10718 10713 10712 10709 ] final  -38.38 input   66.30 | X-H torsion
[ 10763 10752 10751 10750 ] final  -26.55 input  -60.55 | X-H torsion
[ 11005 11000 10999 10996 ] final  172.93 input  -57.11 | X-H torsion

> <Gold.Protein.ActiveResidues>
 VAL166  LYS551  ARG553  GLY616  TRP617  ASP618  TYR619  PRO620  LYS621  CYS622 
 ASP623  PHE694  ASN695  SER759  ASP760  ASP761  ALA762  ILE779  LEU786  VAL792 
 PHE793  MET794  SER795  GLU796  ALA797  LYS798  CYS799  TRP800  GLU811  SER814 

> <Gold.Protein.RotatedAtoms>
  151.9895  133.3786  159.4138 H   0  0  0  0  0  0  0  0  0  0  0  0  # atno 6907 bound_to 6896
  150.6923  134.3952  159.5103 H   0  0  0  0  0  0  0  0  0  0  0  0  # atno 6908 bound_to 6896
  152.1683  134.8855  160.0587 H   0  0  0  0  0  0  0  0  0  0  0  0  # atno 6909 bound_to 6896
  146.0534  140.6450  142.9031 H   0  0  0  0  0  0  0  0  0  0  0  0  # atno 7974 bound_to 7965
  155.0340  140.3162  155.4748 H   0  0  0  0  0  0  0  0  0  0  0  0  # atno 8008 bound_to 7997
  156.2868  140.2175  156.5404 H   0  0  0  0  0  0  0  0  0  0  0  0  # atno 8009 bound_to 7997
  154.7346  140.0478  157.0745 H   0  0  0  0  0  0  0  0  0  0  0  0  # atno 8010 bound_to 7997
  140.7251  143.3860  151.1514 H   0  0  0  0  0  0  0  0  0  0  0  0  # atno 10167 bound_to 10162
  156.3044  130.4244  149.8111 H   0  0  0  0  0  0  0  0  0  0  0  0  # atno 10718 bound_to 10713
  153.7178  135.6947  153.5020 H   0  0  0  0  0  0  0  0  0  0  0  0  # atno 10763 bound_to 10752
  153.2226  135.4365  155.0505 H   0  0  0  0  0  0  0  0  0  0  0  0  # atno 10764 bound_to 10752
  154.8294  135.3464  154.6712 H   0  0  0  0  0  0  0  0  0  0  0  0  # atno 10765 bound_to 10752
  140.3350  134.7325  157.4161 H   0  0  0  0  0  0  0  0  0  0  0  0  # atno 11005 bound_to 11000
  144.7135  140.4125  143.7062 LP  0  0  0  0  0  0  0  0  0  0  0  0  # atno 17320 bound_to 7965
  145.6685  139.1594  143.2768 LP  0  0  0  0  0  0  0  0  0  0  0  0  # atno 17321 bound_to 7965
  139.7457  143.8855  152.3063 LP  0  0  0  0  0  0  0  0  0  0  0  0  # atno 17342 bound_to 10162
  139.8692  144.7077  150.9008 LP  0  0  0  0  0  0  0  0  0  0  0  0  # atno 17343 bound_to 10162
  156.5478  130.8328  151.3290 LP  0  0  0  0  0  0  0  0  0  0  0  0  # atno 17370 bound_to 10713
  157.7376  130.9798  150.2202 LP  0  0  0  0  0  0  0  0  0  0  0  0  # atno 17371 bound_to 10713
  140.0829  134.5706  155.8522 LP  0  0  0  0  0  0  0  0  0  0  0  0  # atno 17394 bound_to 11000
  141.2053  133.6646  156.6176 LP  0  0  0  0  0  0  0  0  0  0  0  0  # atno 17395 bound_to 11000

$$$$
