AV-unprocessed.smi:34|AV-procd|sdf|242|dock4
  -GOLD-   2262015593D 1   1.00000     0.00000
 Structure written by MMmdl.
 54 58  0  0  0  0  0  0  0  0  2 V2000
  149.3408  131.3776  154.8210 O   0  0  0  0  0  0  0  0  0  0  0  0
  148.2897  131.8608  154.3947 C   0  0  0  0  0  0  0  0  0  0  0  0
  147.7816  133.0955  154.6383 N   0  5  0  0  0  0  0  0  0  0  0  0
  148.6095  134.1099  154.9316 C   0  0  0  0  0  0  0  0  0  0  0  0
  149.9371  133.8850  155.1056 N   0  0  0  0  0  0  0  0  0  0  0  0
  150.7636  134.8986  155.3903 C   0  0  0  0  0  0  0  0  0  0  0  0
  150.4800  136.1953  155.5497 N   0  0  0  0  0  0  0  0  0  0  0  0
  149.1452  136.4303  155.3909 C   0  0  0  0  0  0  0  0  0  0  0  0
  148.1580  135.4492  155.0867 C   0  0  0  0  0  0  0  0  0  0  0  0
  146.9028  136.0305  154.9886 N   0  0  0  0  0  0  0  0  0  0  0  0
  147.1802  137.3110  155.2255 C   0  0  0  0  0  0  0  0  0  0  0  0
  148.4662  137.6327  155.4824 N   0  0  0  0  0  0  0  0  0  0  0  0
  149.0773  138.9737  155.7554 C   0  0  1  0  0  0  0  0  0  0  0  0
  149.6464  138.9501  157.0308 O   0  0  0  0  0  0  0  0  0  0  0  0
  151.0184  138.5982  156.9170 C   0  0  2  0  0  0  0  0  0  0  0  0
  151.7703  138.9844  158.1951 C   0  0  0  0  0  0  0  0  0  0  0  0
  151.9030  140.3947  158.2596 O   0  0  0  0  0  0  0  0  0  0  0  0
  152.6168  140.9595  159.2529 C   0  0  0  0  0  0  0  0  0  0  0  0
  153.4653  140.3547  159.9115 O   0  0  0  0  0  0  0  0  0  0  0  0
  152.2752  142.3947  159.4707 C   0  0  0  0  0  0  0  0  0  0  0  0
  152.3835  142.9431  160.7703 C   0  0  0  0  0  0  0  0  0  0  0  0
  152.0708  144.2958  161.0066 C   0  0  0  0  0  0  0  0  0  0  0  0
  151.6440  145.1166  159.9466 C   0  0  0  0  0  0  0  0  0  0  0  0
  151.5297  144.5825  158.6498 C   0  0  0  0  0  0  0  0  0  0  0  0
  151.8429  143.2300  158.4110 C   0  0  0  0  0  0  0  0  0  0  0  0
  151.4379  139.3767  155.6732 C   0  0  1  0  0  0  0  0  0  0  0  0
  152.5314  138.8621  155.1093 F   0  0  0  0  0  0  0  0  0  0  0  0
  150.2239  139.2496  154.7615 C   0  0  2  0  0  0  0  0  0  0  0  0
  150.0277  140.4430  154.0313 O   0  0  0  0  0  0  0  0  0  0  0  0
  147.3895  131.0020  153.5480 C   0  0  0  0  0  0  0  0  0  0  0  0
  147.7132  129.6419  153.3395 C   0  0  0  0  0  0  0  0  0  0  0  0
  146.8996  128.8282  152.5273 C   0  0  0  0  0  0  0  0  0  0  0  0
  145.7582  129.3691  151.9066 C   0  0  0  0  0  0  0  0  0  0  0  0
  145.4328  130.7253  152.0960 C   0  0  0  0  0  0  0  0  0  0  0  0
  146.2455  131.5396  152.9088 C   0  0  0  0  0  0  0  0  0  0  0  0
  151.8035  134.6319  155.5062 H   0  0  0  0  0  0  0  0  0  0  0  0
  146.3978  138.0553  155.2074 H   0  0  0  0  0  0  0  0  0  0  0  0
  148.2396  139.6705  155.6997 H   0  0  0  0  0  0  0  0  0  0  0  0
  151.0987  137.5246  156.7388 H   0  0  0  0  0  0  0  0  0  0  0  0
  151.2411  138.6127  159.0737 H   0  0  0  0  0  0  0  0  0  0  0  0
  152.7621  138.5301  158.1926 H   0  0  0  0  0  0  0  0  0  0  0  0
  152.7094  142.3325  161.6002 H   0  0  0  0  0  0  0  0  0  0  0  0
  152.1593  144.7036  162.0028 H   0  0  0  0  0  0  0  0  0  0  0  0
  151.4043  146.1540  160.1279 H   0  0  0  0  0  0  0  0  0  0  0  0
  151.2015  145.2117  157.8355 H   0  0  0  0  0  0  0  0  0  0  0  0
  151.7432  142.8519  157.4040 H   0  0  0  0  0  0  0  0  0  0  0  0
  151.6426  140.4184  155.9257 H   0  0  0  0  0  0  0  0  0  0  0  0
  150.3408  138.4090  154.0753 H   0  0  0  0  0  0  0  0  0  0  0  0
  149.3976  140.9764  154.4910 H   0  0  0  0  0  0  0  0  0  0  0  0
  148.5874  129.2122  153.8072 H   0  0  0  0  0  0  0  0  0  0  0  0
  147.1536  127.7892  152.3793 H   0  0  0  0  0  0  0  0  0  0  0  0
  145.1353  128.7456  151.2825 H   0  0  0  0  0  0  0  0  0  0  0  0
  144.5614  131.1438  151.6145 H   0  0  0  0  0  0  0  0  0  0  0  0
  145.9847  132.5810  153.0320 H   0  0  0  0  0  0  0  0  0  0  0  0
  1  2  2  0  0  0  0
  2  3  1  0  0  0  0
  2 30  1  0  0  0  0
  3  4  1  0  0  0  0
  4  9  1  0  0  0  0
  4  5  2  0  0  0  0
  5  6  1  0  0  0  0
  6  7  2  0  0  0  0
  6 36  1  0  0  0  0
  7  8  1  0  0  0  0
  8 12  1  0  0  0  0
  8  9  2  0  0  0  0
  9 10  1  0  0  0  0
 10 11  2  0  0  0  0
 11 12  1  0  0  0  0
 11 37  1  0  0  0  0
 12 13  1  0  0  0  0
 13 28  1  0  0  0  0
 13 14  1  0  0  0  0
 13 38  1  0  0  0  0
 14 15  1  0  0  0  0
 15 16  1  0  0  0  0
 15 26  1  0  0  0  0
 15 39  1  0  0  0  0
 16 17  1  0  0  0  0
 16 40  1  0  0  0  0
 16 41  1  0  0  0  0
 17 18  1  0  0  0  0
 18 19  2  0  0  0  0
 18 20  1  0  0  0  0
 20 25  1  0  0  0  0
 20 21  2  0  0  0  0
 21 22  1  0  0  0  0
 21 42  1  0  0  0  0
 22 23  2  0  0  0  0
 22 43  1  0  0  0  0
 23 24  1  0  0  0  0
 23 44  1  0  0  0  0
 24 25  2  0  0  0  0
 24 45  1  0  0  0  0
 25 46  1  0  0  0  0
 26 27  1  0  0  0  0
 26 28  1  0  0  0  0
 26 47  1  0  0  0  0
 28 29  1  0  0  0  0
 28 48  1  0  0  0  0
 29 49  1  0  0  0  0
 30 35  1  0  0  0  0
 30 31  2  0  0  0  0
 31 32  1  0  0  0  0
 31 50  1  0  0  0  0
 32 33  2  0  0  0  0
 32 51  1  0  0  0  0
 33 34  1  0  0  0  0
 33 52  1  0  0  0  0
 34 35  2  0  0  0  0
 34 53  1  0  0  0  0
 35 54  1  0  0  0  0
M  CHG  1   3  -1
M  END
> <s_m_source_file>
AV-unprocessed.smi

> <i_m_source_file_index>
34

> <i_lp_mmshare_version>
43012

> <i_f3d_flags>
0

> <s_epik_input>
W2NIXTFbY0hdW2NIXVtjSF1bY0hdYzFDKD1PKVtOSF1jKG5bY0hdbjIpYyhjMjMpbltjSF1uM1tDQEBIXTRPW0NASF0oW0NAQEhdKEYpW0NASF00W09IXSlbQ0gyXU9DKD1PKWM1W2NIXVtjSF1bY0hdW2NIXVtjSF01

> <s_epik_cmdline>
J2VwaWtfcHl0aG9uJywgJy1waCcsICc3LjAnLCAnLXRuJywgJzgnLCAnLW1hJywgJzIwMCcsICctbWV0YWxfYmluZGluZycsICctaW1hZScsICc8aW5maWxlLm1hZT4nLCAnLW9tYWUnLCAnPG91dGZpbGUubWFlPic=

> <r_lp_tautomer_probability>
1

> <r_epik_Ionization_Penalty>
4.33227

> <r_epik_Ionization_Penalty_Charging>
3.41027

> <r_epik_Ionization_Penalty_Neutral>
0.922001

> <r_epik_State_Penalty>
3.41358

> <r_epik_Charging_Adjusted_Penalty>
6.82385

> <i_epik_Tot_Q>
-1

> <i_epik_Tot_abs_Q>
1

> <r_epik_Metal_State_Penalty>
0.496292

> <b_epik_Metal_Only>
1

> <s_epik_Chemistry_Notes>
This compound has an ester and may undergo hydrolysis at high or low pH. This compound contains an acetal/aminal-like group ( X-CH(R)-Y where X, Y are N, S, or O) that may be acid/base labile, releasing an aldehyde.

> <s_lp_Force_Field>
OPLS_2005

> <r_lp_Energy>
39.213

> <b_lp_Chiralities_Consistent>
1

> <s_lp_Variant>
AV-unprocessed.smi:34-28

> <Gold.Version>
5.8.1

> <Gold.Id.Protein>
6NUR|6NUR_protein|mol2

> <Gold.PLP.Fitness>
59.6400

> <Gold.PLP.PLP>
-58.8274

> <Gold.PLP.part.hbond>
-1.6985

> <Gold.PLP.part.metal>
0.0000

> <Gold.PLP.part.buried>
-9.4077

> <Gold.PLP.part.nonpolar>
-48.3303

> <Gold.PLP.part.repulsive>
0.3464

> <Gold.PLP.ligand.clash>
0.0000

> <Gold.PLP.ligand.torsion>
1.0155

> <Gold.PLP.Chemscore.Hbond>
0.7200

> <Gold.PLP.Chemscore.CHOScore>
0.0000

> <Gold.PLP.Chemscore.Metal>
0.0000

> <Gold.Chemscore.Hbonds>
donor molecule, donor type, donor heavy atom, donor atom, acceptor molecule, acceptor atom, score
      P1  H  7989  7998       L1    29  0.77

> <Gold.PLP.Chemscore.Internal.Correction>
0.6837

> <Gold.Rescore>
     Score         DG    S(hbond)    S(metal)    S(lipo)     H(rot)  DE(clash)    DE(int)     intcor
     13.39     -17.24       0.91        0.00     133.41       2.69       0.06       3.80       ----

> <Gold.Chemscore.Fitness>
13.3857

> <Gold.Chemscore.DG>
-17.2434

> <Gold.Chemscore.ZeroCoef>
-5.4800

> <Gold.Chemscore.Hbond>
0.9137

> <Gold.Chemscore.Metal>
0.0000

> <Gold.Chemscore.Lipo>
133.4130

> <Gold.Chemscore.Internal_Hbond>
0.0000

> <Gold.Chemscore.DEClash>
0.0562

> <Gold.Chemscore.DEInternal>
3.8015

> <Gold.Chemscore.Rot>
2.6944

> <Gold.Chemscore.Internal.Correction>
   9.000000E+99

> <Gold.Chemscore.Hbonds>
donor molecule, donor type, donor heavy atom, donor atom, acceptor molecule, acceptor atom, score
      P1  H  7989  7998       L1    29  0.38

> <Gold.Chemscore.Hbond.Weighted>
-3.0516

> <Gold.Chemscore.Metal.Weighted>
-0.0000

> <Gold.Chemscore.Lipo.Weighted>
-15.6093

> <Gold.Chemscore.Internal_Hbond.Weighted>
0.0000

> <Gold.Chemscore.DEClash.Weighted>
0.0562

> <Gold.Chemscore.DEInternal.Weighted>
3.8015

> <Gold.Chemscore.Rot.Weighted>
6.8975

> <Gold.Chemscore.Internal.Correction.Weighted>
   9.000000E+99

> <Gold.Protein.RotatedTorsions>
[ 6907 6896 6895 6894 ] final  146.54 input  -60.11 | X-H torsion
[ 7974 7965 7964 7962 ] final  156.86 input  175.53 | X-H torsion
[ 8008 7997 7996 7995 ] final  171.95 input   59.86 | X-H torsion
[ 10167 10162 10161 10158 ] final  167.83 input  -65.29 | X-H torsion
[ 10718 10713 10712 10709 ] final   31.06 input   66.30 | X-H torsion
[ 10763 10752 10751 10750 ] final  -98.30 input  -60.55 | X-H torsion
[ 11005 11000 10999 10996 ] final   39.69 input  -57.11 | X-H torsion

> <Gold.Protein.ActiveResidues>
 VAL166  LYS551  ARG553  GLY616  TRP617  ASP618  TYR619  PRO620  LYS621  CYS622 
 ASP623  PHE694  ASN695  SER759  ASP760  ASP761  ALA762  ILE779  LEU786  VAL792 
 PHE793  MET794  SER795  GLU796  ALA797  LYS798  CYS799  TRP800  GLU811  SER814 

> <Gold.Protein.RotatedAtoms>
  152.1666  133.4616  159.4887 H   0  0  0  0  0  0  0  0  0  0  0  0  # atno 6907 bound_to 6896
  150.6914  134.2006  159.4329 H   0  0  0  0  0  0  0  0  0  0  0  0  # atno 6908 bound_to 6896
  151.9910  134.9978  160.0612 H   0  0  0  0  0  0  0  0  0  0  0  0  # atno 6909 bound_to 6896
  144.7938  139.7261  143.6210 H   0  0  0  0  0  0  0  0  0  0  0  0  # atno 7974 bound_to 7965
  156.1221  140.1498  156.9189 H   0  0  0  0  0  0  0  0  0  0  0  0  # atno 8008 bound_to 7997
  154.4844  140.0869  156.7493 H   0  0  0  0  0  0  0  0  0  0  0  0  # atno 8009 bound_to 7997
  155.4409  140.3431  155.4292 H   0  0  0  0  0  0  0  0  0  0  0  0  # atno 8010 bound_to 7997
  139.4954  144.3880  151.9549 H   0  0  0  0  0  0  0  0  0  0  0  0  # atno 10167 bound_to 10162
  157.2677  130.7192  149.6487 H   0  0  0  0  0  0  0  0  0  0  0  0  # atno 10718 bound_to 10713
  154.7402  135.5014  153.9110 H   0  0  0  0  0  0  0  0  0  0  0  0  # atno 10763 bound_to 10752
  153.1036  135.6691  153.9636 H   0  0  0  0  0  0  0  0  0  0  0  0  # atno 10764 bound_to 10752
  153.9415  135.3067  155.3421 H   0  0  0  0  0  0  0  0  0  0  0  0  # atno 10765 bound_to 10752
  140.2003  134.3879  155.8100 H   0  0  0  0  0  0  0  0  0  0  0  0  # atno 11005 bound_to 11000
  146.2199  139.5617  142.9625 LP  0  0  0  0  0  0  0  0  0  0  0  0  # atno 17320 bound_to 7965
  145.5726  141.0392  143.2166 LP  0  0  0  0  0  0  0  0  0  0  0  0  # atno 17321 bound_to 7965
  140.3317  144.3309  150.5986 LP  0  0  0  0  0  0  0  0  0  0  0  0  # atno 17342 bound_to 10162
  140.5640  143.2188  151.7716 LP  0  0  0  0  0  0  0  0  0  0  0  0  # atno 17343 bound_to 10162
  155.9663  130.4377  150.5188 LP  0  0  0  0  0  0  0  0  0  0  0  0  # atno 17370 bound_to 10713
  157.3106  131.0663  151.2003 LP  0  0  0  0  0  0  0  0  0  0  0  0  # atno 17371 bound_to 10713
  141.2227  133.7090  156.8246 LP  0  0  0  0  0  0  0  0  0  0  0  0  # atno 17394 bound_to 11000
  140.2062  134.8861  157.3224 LP  0  0  0  0  0  0  0  0  0  0  0  0  # atno 17395 bound_to 11000

$$$$
