AV-unprocessed.smi:37|AV-procd|sdf|325|dock10
  -GOLD-   2262016153D 1   1.00000     0.00000
 Structure written by MMmdl.
 43 44  0  0  0  0  0  0  0  0  2 V2000
  151.1484  145.1459  161.5058 C   0  0  0  0  0  0  0  0  0  0  0  0
  150.7362  143.6940  161.2270 C   0  0  0  0  0  0  0  0  0  0  0  0
  151.4275  143.1450  159.9830 C   0  0  0  0  0  0  0  0  0  0  0  0
  152.0519  143.8825  159.2202 O   0  0  0  0  0  0  0  0  0  0  0  0
  151.2411  141.8198  159.8338 O   0  0  0  0  0  0  0  0  0  0  0  0
  151.4734  141.1891  158.5810 C   0  0  0  0  0  0  0  0  0  0  0  0
  150.1315  140.8365  157.9193 C   0  0  2  0  0  0  0  0  0  0  0  0
  149.7780  139.5114  158.3089 O   0  0  0  0  0  0  0  0  0  0  0  0
  149.5353  138.7362  157.1783 C   0  0  2  0  0  0  0  0  0  0  0  0
  149.8841  137.2836  157.4339 N   0  0  0  0  0  0  0  0  0  0  0  0
  150.1795  136.4844  156.3443 C   0  0  0  0  0  0  0  0  0  0  0  0
  150.4855  135.1793  156.4898 C   0  0  0  0  0  0  0  0  0  0  0  0
  150.7745  134.4349  155.4085 F   0  0  0  0  0  0  0  0  0  0  0  0
  150.5007  134.5858  157.8246 C   0  0  0  0  0  0  0  0  0  0  0  0
  150.7948  133.3985  157.9540 O   0  0  0  0  0  0  0  0  0  0  0  0
  150.1817  135.3874  158.8810 N   0  5  0  0  0  0  0  0  0  0  0  0
  149.8624  136.7074  158.7387 C   0  0  0  0  0  0  0  0  0  0  0  0
  149.5513  137.4191  159.6929 O   0  0  0  0  0  0  0  0  0  0  0  0
  150.2372  139.3944  155.9803 C   0  0  2  0  0  0  0  0  0  0  0  0
  152.1515  138.8957  155.7124 Br  0  0  0  0  0  0  0  0  0  0  0  0
  150.1732  140.8575  156.3802 C   0  0  1  0  0  0  0  0  0  0  0  0
  148.9744  141.4563  155.9006 O   0  0  0  0  0  0  0  0  0  0  0  0
  148.7582  141.5906  154.5786 C   0  0  0  0  0  0  0  0  0  0  0  0
  149.4682  141.1428  153.6783 O   0  0  0  0  0  0  0  0  0  0  0  0
  147.4976  142.3940  154.2687 C   0  0  0  0  0  0  0  0  0  0  0  0
  146.2534  141.8040  154.9456 C   0  0  0  0  0  0  0  0  0  0  0  0
  150.6537  145.5211  162.4013 H   0  0  0  0  0  0  0  0  0  0  0  0
  150.8801  145.8049  160.6790 H   0  0  0  0  0  0  0  0  0  0  0  0
  152.2245  145.2280  161.6632 H   0  0  0  0  0  0  0  0  0  0  0  0
  150.9868  143.0639  162.0809 H   0  0  0  0  0  0  0  0  0  0  0  0
  149.6563  143.6304  161.0905 H   0  0  0  0  0  0  0  0  0  0  0  0
  152.0938  141.7902  157.9153 H   0  0  0  0  0  0  0  0  0  0  0  0
  152.0301  140.2720  158.7744 H   0  0  0  0  0  0  0  0  0  0  0  0
  149.3654  141.5169  158.2946 H   0  0  0  0  0  0  0  0  0  0  0  0
  148.4529  138.7463  157.0407 H   0  0  0  0  0  0  0  0  0  0  0  0
  150.1734  136.9121  155.3524 H   0  0  0  0  0  0  0  0  0  0  0  0
  149.7078  139.1702  155.0539 H   0  0  0  0  0  0  0  0  0  0  0  0
  151.0402  141.4031  156.0098 H   0  0  0  0  0  0  0  0  0  0  0  0
  147.6477  143.4241  154.5923 H   0  0  0  0  0  0  0  0  0  0  0  0
  147.3536  142.4203  153.1881 H   0  0  0  0  0  0  0  0  0  0  0  0
  145.3640  142.3736  154.6760 H   0  0  0  0  0  0  0  0  0  0  0  0
  146.3408  141.8249  156.0325 H   0  0  0  0  0  0  0  0  0  0  0  0
  146.0887  140.7702  154.6402 H   0  0  0  0  0  0  0  0  0  0  0  0
  1  2  1  0  0  0  0
  1 27  1  0  0  0  0
  1 28  1  0  0  0  0
  1 29  1  0  0  0  0
  2  3  1  0  0  0  0
  2 30  1  0  0  0  0
  2 31  1  0  0  0  0
  3  4  2  0  0  0  0
  3  5  1  0  0  0  0
  5  6  1  0  0  0  0
  6  7  1  0  0  0  0
  6 32  1  0  0  0  0
  6 33  1  0  0  0  0
  7 21  1  0  0  0  0
  7  8  1  0  0  0  0
  7 34  1  0  0  0  0
  8  9  1  0  0  0  0
  9 10  1  0  0  0  0
  9 19  1  0  0  0  0
  9 35  1  0  0  0  0
 10 17  1  0  0  0  0
 10 11  1  0  0  0  0
 11 12  2  0  0  0  0
 11 36  1  0  0  0  0
 12 13  1  0  0  0  0
 12 14  1  0  0  0  0
 14 15  2  0  0  0  0
 14 16  1  0  0  0  0
 16 17  1  0  0  0  0
 17 18  2  0  0  0  0
 19 20  1  0  0  0  0
 19 21  1  0  0  0  0
 19 37  1  0  0  0  0
 21 22  1  0  0  0  0
 21 38  1  0  0  0  0
 22 23  1  0  0  0  0
 23 24  2  0  0  0  0
 23 25  1  0  0  0  0
 25 26  1  0  0  0  0
 25 39  1  0  0  0  0
 25 40  1  0  0  0  0
 26 41  1  0  0  0  0
 26 42  1  0  0  0  0
 26 43  1  0  0  0  0
M  CHG  1  16  -1
M  END
> <s_m_source_file>
AV-unprocessed.smi

> <i_m_source_file_index>
37

> <i_lp_mmshare_version>
43012

> <i_f3d_flags>
0

> <s_epik_input>
W0NIM11bQ0gyXUMoPU8pT1tDSDJdW0NAQEhdMU9bQ0BASF0objJbY0hdYyhGKWMoPU8pW25IXWMyPU8pW0NAQEhdKEJyKVtDQEhdMU9DKD1PKVtDSDJdW0NIM10=

> <s_epik_cmdline>
J2VwaWtfcHl0aG9uJywgJy1waCcsICc3LjAnLCAnLXRuJywgJzgnLCAnLW1hJywgJzIwMCcsICctbWV0YWxfYmluZGluZycsICctaW1hZScsICc8aW5maWxlLm1hZT4nLCAnLW9tYWUnLCAnPG91dGZpbGUubWFlPic=

> <r_epik_Ionization_Penalty>
1.08158

> <r_epik_Ionization_Penalty_Charging>
9.05154e-09

> <r_epik_Ionization_Penalty_Neutral>
1.08158

> <r_epik_State_Penalty>
1.13706

> <r_epik_Charging_Adjusted_Penalty>
1.13706

> <i_epik_Tot_Q>
-1

> <i_epik_Tot_abs_Q>
1

> <r_epik_Metal_State_Penalty>
0.00343535

> <b_epik_Metal_Only>
0

> <s_epik_Chemistry_Notes>
This compound has an ester and may undergo hydrolysis at high or low pH. This compound contains an acetal/aminal-like group ( X-CH(R)-Y where X, Y are N, S, or O) that may be acid/base labile, releasing an aldehyde.

> <s_lp_Force_Field>
OPLS_2005

> <r_lp_Energy>
32.7064

> <b_lp_Chiralities_Consistent>
1

> <s_lp_Variant>
AV-unprocessed.smi:37-23

> <Gold.Version>
5.8.1

> <Gold.Id.Protein>
6NUR|6NUR_protein|mol2

> <Gold.PLP.Fitness>
41.4521

> <Gold.PLP.PLP>
-35.9141

> <Gold.PLP.part.hbond>
-4.0000

> <Gold.PLP.part.metal>
0.0000

> <Gold.PLP.part.buried>
-4.1269

> <Gold.PLP.part.nonpolar>
-31.5066

> <Gold.PLP.part.repulsive>
3.9658

> <Gold.PLP.ligand.clash>
0.0000

> <Gold.PLP.ligand.torsion>
1.8261

> <Gold.PLP.Chemscore.Hbond>
3.0312

> <Gold.PLP.Chemscore.CHOScore>
0.0000

> <Gold.PLP.Chemscore.Metal>
0.0000

> <Gold.Chemscore.Hbonds>
donor molecule, donor type, donor heavy atom, donor atom, acceptor molecule, acceptor atom, score
      P1  H  6896  6907       L1    16  0.39
      P1  H  6896  6909       L1    15  0.40
      P1  H  6931  6943       L1    18  0.03
      P1  H  7989  7998       L1    24  0.19
      P1  H  8011  8017       L1    24  0.96

> <Gold.PLP.Chemscore.Internal.Correction>
0.0968

> <Gold.Rescore>
     Score         DG    S(hbond)    S(metal)    S(lipo)     H(rot)  DE(clash)    DE(int)     intcor
      3.06      -9.87       1.47        0.00      67.13       3.27       2.50       4.32       ----

> <Gold.Chemscore.Fitness>
3.0550

> <Gold.Chemscore.DG>
-9.8734

> <Gold.Chemscore.ZeroCoef>
-5.4800

> <Gold.Chemscore.Hbond>
1.4679

> <Gold.Chemscore.Metal>
0.0000

> <Gold.Chemscore.Lipo>
67.1286

> <Gold.Chemscore.Internal_Hbond>
0.0000

> <Gold.Chemscore.DEClash>
2.4963

> <Gold.Chemscore.DEInternal>
4.3221

> <Gold.Chemscore.Rot>
3.2669

> <Gold.Chemscore.Internal.Correction>
   9.000000E+99

> <Gold.Chemscore.Hbonds>
donor molecule, donor type, donor heavy atom, donor atom, acceptor molecule, acceptor atom, score
      P1  H  6896  6907       L1    16  0.05
      P1  H  6896  6909       L1    15  0.12
      P1  H  6931  6943       L1    18  0.03
      P1  H  7989  7998       L1    24  0.18
      P1  H  8011  8017       L1    24  0.76

> <Gold.Chemscore.Hbond.Weighted>
-4.9027

> <Gold.Chemscore.Metal.Weighted>
-0.0000

> <Gold.Chemscore.Lipo.Weighted>
-7.8540

> <Gold.Chemscore.Internal_Hbond.Weighted>
0.0000

> <Gold.Chemscore.DEClash.Weighted>
2.4963

> <Gold.Chemscore.DEInternal.Weighted>
4.3221

> <Gold.Chemscore.Rot.Weighted>
8.3634

> <Gold.Chemscore.Internal.Correction.Weighted>
   9.000000E+99

> <Gold.Protein.RotatedTorsions>
[ 6907 6896 6895 6894 ] final  -40.27 input  -60.11 | X-H torsion
[ 7974 7965 7964 7962 ] final  176.23 input  175.53 | X-H torsion
[ 8008 7997 7996 7995 ] final  -40.89 input   59.86 | X-H torsion
[ 10167 10162 10161 10158 ] final   68.48 input  -65.29 | X-H torsion
[ 10718 10713 10712 10709 ] final  -28.09 input   66.30 | X-H torsion
[ 10763 10752 10751 10750 ] final   46.22 input  -60.55 | X-H torsion
[ 11005 11000 10999 10996 ] final   74.35 input  -57.11 | X-H torsion

> <Gold.Protein.ActiveResidues>
 VAL166  LYS551  ARG553  GLY616  TRP617  ASP618  TYR619  PRO620  LYS621  CYS622 
 ASP623  PHE694  ASN695  SER759  ASP760  ASP761  ALA762  ILE779  LEU786  VAL792 
 PHE793  MET794  SER795  GLU796  ALA797  LYS798  CYS799  TRP800  GLU811  SER814 

> <Gold.Protein.RotatedAtoms>
  150.9804  134.9160  159.7840 H   0  0  0  0  0  0  0  0  0  0  0  0  # atno 6907 bound_to 6896
  152.5220  134.3418  159.9230 H   0  0  0  0  0  0  0  0  0  0  0  0  # atno 6908 bound_to 6896
  151.3425  133.3916  159.2707 H   0  0  0  0  0  0  0  0  0  0  0  0  # atno 6909 bound_to 6896
  144.7188  140.0065  143.6440 H   0  0  0  0  0  0  0  0  0  0  0  0  # atno 7974 bound_to 7965
  154.4008  140.1513  156.3101 H   0  0  0  0  0  0  0  0  0  0  0  0  # atno 8008 bound_to 7997
  155.8623  140.3453  155.5743 H   0  0  0  0  0  0  0  0  0  0  0  0  # atno 8009 bound_to 7997
  155.7866  140.0851  157.2021 H   0  0  0  0  0  0  0  0  0  0  0  0  # atno 8010 bound_to 7997
  140.0782  144.5094  150.7180 H   0  0  0  0  0  0  0  0  0  0  0  0  # atno 10167 bound_to 10162
  156.4297  130.4443  149.7126 H   0  0  0  0  0  0  0  0  0  0  0  0  # atno 10718 bound_to 10713
  152.9813  135.6015  154.3564 H   0  0  0  0  0  0  0  0  0  0  0  0  # atno 10763 bound_to 10752
  154.3249  135.2769  155.2503 H   0  0  0  0  0  0  0  0  0  0  0  0  # atno 10764 bound_to 10752
  154.4652  135.5956  153.6339 H   0  0  0  0  0  0  0  0  0  0  0  0  # atno 10765 bound_to 10752
  139.9395  134.7425  156.1137 H   0  0  0  0  0  0  0  0  0  0  0  0  # atno 11005 bound_to 11000
  146.0293  139.3320  143.0765 LP  0  0  0  0  0  0  0  0  0  0  0  0  # atno 17320 bound_to 7965
  145.8472  140.9548  143.0768 LP  0  0  0  0  0  0  0  0  0  0  0  0  # atno 17321 bound_to 7965
  140.7091  143.2491  151.4635 LP  0  0  0  0  0  0  0  0  0  0  0  0  # atno 17342 bound_to 10162
  139.5795  144.1741  152.1949 LP  0  0  0  0  0  0  0  0  0  0  0  0  # atno 17343 bound_to 10162
  156.4033  130.7686  151.2695 LP  0  0  0  0  0  0  0  0  0  0  0  0  # atno 17370 bound_to 10713
  157.7508  131.0233  150.3829 LP  0  0  0  0  0  0  0  0  0  0  0  0  # atno 17371 bound_to 10713
  141.1024  133.6672  156.2784 LP  0  0  0  0  0  0  0  0  0  0  0  0  # atno 17394 bound_to 11000
  140.5988  134.5576  157.5513 LP  0  0  0  0  0  0  0  0  0  0  0  0  # atno 17395 bound_to 11000

$$$$
