AV-unprocessed.smi:199|AV-procd|sdf|1566|dock8
  -GOLD-   2262019443D 1   1.00000     0.00000
 Structure written by MMmdl.
 51 55  0  0  0  0  0  0  0  0  1 V2000
  148.6217  130.5326  157.5334 C   0  0  0  0  0  0  0  0  0  0  0  0
  149.9521  129.7634  157.5833 C   0  0  2  0  0  0  0  0  0  0  0  0
  150.1667  129.2100  158.8814 O   0  0  0  0  0  0  0  0  0  0  0  0
  151.3964  129.6790  159.4156 C   0  0  0  0  0  0  0  0  0  0  0  0
  152.2466  129.9843  158.1899 C   0  0  0  0  0  0  0  0  0  0  0  0
  151.2270  130.5592  157.2160 C   0  0  2  0  0  0  0  0  0  0  0  0
  151.0651  131.9390  157.5054 O   0  0  0  0  0  0  0  0  0  0  0  0
  151.6255  130.4141  155.7281 C   0  0  0  0  0  0  0  0  0  0  0  0
  150.5056  130.5751  154.8136 N   0  0  0  0  0  0  0  0  0  0  0  0
  149.9557  129.6062  154.0071 C   0  0  0  0  0  0  0  0  0  0  0  0
  148.9604  130.0038  153.2644 N   0  0  0  0  0  0  0  0  0  0  0  0
  148.7952  131.3462  153.5894 C   0  0  0  0  0  0  0  0  0  0  0  0
  147.9065  132.3814  153.1689 C   0  0  0  0  0  0  0  0  0  0  0  0
  146.9215  132.2432  152.2377 N   0  0  0  0  0  0  0  0  0  0  0  0
  145.5095  132.3204  152.5823 C   0  0  2  0  0  0  0  0  0  0  0  0
  144.8270  131.9196  151.2627 C   0  0  0  0  0  0  0  0  0  0  0  0
  145.7912  132.5194  150.2296 C   0  0  0  0  0  0  0  0  0  0  0  0
  146.8268  133.2006  151.1432 C   0  0  1  0  0  0  0  0  0  0  0  0
  146.2444  134.4634  151.8334 C   0  0  1  0  0  0  0  0  0  0  0  0
  145.6246  135.5441  150.9277 C   0  0  0  0  0  0  0  0  0  0  0  0
  145.2698  136.6781  151.6895 O   0  0  0  0  0  0  0  0  0  0  0  0
  145.2634  133.8226  152.8328 C   0  0  0  0  0  0  0  0  0  0  0  0
  148.0774  133.6085  153.7279 N   0  0  0  0  0  0  0  0  0  0  0  0
  149.0296  133.8159  154.6408 C   0  0  0  0  0  0  0  0  0  0  0  0
  149.9171  132.9496  155.1294 N   0  0  0  0  0  0  0  0  0  0  0  0
  149.7637  131.7171  154.5679 C   0  0  0  0  0  0  0  0  0  0  0  0
  148.4566  130.9660  156.5466 H   0  0  0  0  0  0  0  0  0  0  0  0
  148.5949  131.3394  158.2666 H   0  0  0  0  0  0  0  0  0  0  0  0
  147.7844  129.8687  157.7483 H   0  0  0  0  0  0  0  0  0  0  0  0
  149.8691  128.9051  156.9155 H   0  0  0  0  0  0  0  0  0  0  0  0
  151.2121  130.5860  159.9929 H   0  0  0  0  0  0  0  0  0  0  0  0
  151.8553  128.9416  160.0745 H   0  0  0  0  0  0  0  0  0  0  0  0
  153.0803  130.6550  158.4035 H   0  0  0  0  0  0  0  0  0  0  0  0
  152.6575  129.0521  157.7992 H   0  0  0  0  0  0  0  0  0  0  0  0
  151.1740  132.4289  156.7045 H   0  0  0  0  0  0  0  0  0  0  0  0
  152.3797  131.1573  155.4653 H   0  0  0  0  0  0  0  0  0  0  0  0
  152.0836  129.4397  155.5519 H   0  0  0  0  0  0  0  0  0  0  0  0
  150.3234  128.5908  153.9801 H   0  0  0  0  0  0  0  0  0  0  0  0
  145.1881  131.6815  153.4029 H   0  0  0  0  0  0  0  0  0  0  0  0
  144.7811  130.8348  151.1586 H   0  0  0  0  0  0  0  0  0  0  0  0
  143.8131  132.3118  151.1759 H   0  0  0  0  0  0  0  0  0  0  0  0
  146.2644  131.7241  149.6521 H   0  0  0  0  0  0  0  0  0  0  0  0
  145.3093  133.1918  149.5216 H   0  0  0  0  0  0  0  0  0  0  0  0
  147.7663  133.3932  150.6241 H   0  0  0  0  0  0  0  0  0  0  0  0
  147.0452  134.9366  152.4049 H   0  0  0  0  0  0  0  0  0  0  0  0
  146.2945  135.8382  150.1205 H   0  0  0  0  0  0  0  0  0  0  0  0
  144.7228  135.1549  150.4542 H   0  0  0  0  0  0  0  0  0  0  0  0
  144.8128  137.2859  151.1282 H   0  0  0  0  0  0  0  0  0  0  0  0
  144.2238  134.1055  152.6629 H   0  0  0  0  0  0  0  0  0  0  0  0
  145.5220  134.1008  153.8553 H   0  0  0  0  0  0  0  0  0  0  0  0
  149.0899  134.8201  155.0337 H   0  0  0  0  0  0  0  0  0  0  0  0
  1  2  1  0  0  0  0
  1 27  1  0  0  0  0
  1 28  1  0  0  0  0
  1 29  1  0  0  0  0
  2  6  1  0  0  0  0
  2  3  1  0  0  0  0
  2 30  1  0  0  0  0
  3  4  1  0  0  0  0
  4  5  1  0  0  0  0
  4 31  1  0  0  0  0
  4 32  1  0  0  0  0
  5  6  1  0  0  0  0
  5 33  1  0  0  0  0
  5 34  1  0  0  0  0
  6  7  1  0  0  0  0
  6  8  1  0  0  0  0
  7 35  1  0  0  0  0
  8  9  1  0  0  0  0
  8 36  1  0  0  0  0
  8 37  1  0  0  0  0
  9 26  1  0  0  0  0
  9 10  1  0  0  0  0
 10 11  2  0  0  0  0
 10 38  1  0  0  0  0
 11 12  1  0  0  0  0
 12 26  2  0  0  0  0
 12 13  1  0  0  0  0
 13 14  1  0  0  0  0
 13 23  2  0  0  0  0
 14 18  1  0  0  0  0
 14 15  1  0  0  0  0
 15 22  1  0  0  0  0
 15 16  1  0  0  0  0
 15 39  1  0  0  0  0
 16 17  1  0  0  0  0
 16 40  1  0  0  0  0
 16 41  1  0  0  0  0
 17 18  1  0  0  0  0
 17 42  1  0  0  0  0
 17 43  1  0  0  0  0
 18 19  1  0  0  0  0
 18 44  1  0  0  0  0
 19 20  1  0  0  0  0
 19 22  1  0  0  0  0
 19 45  1  0  0  0  0
 20 21  1  0  0  0  0
 20 46  1  0  0  0  0
 20 47  1  0  0  0  0
 21 48  1  0  0  0  0
 22 49  1  0  0  0  0
 22 50  1  0  0  0  0
 23 24  1  0  0  0  0
 24 25  2  0  0  0  0
 24 51  1  0  0  0  0
 25 26  1  0  0  0  0
M  END
> <s_m_source_file>
AV-unprocessed.smi

> <i_m_source_file_index>
199

> <i_lp_mmshare_version>
43012

> <i_f3d_flags>
0

> <s_epik_input>
W0NIMl0xW0NIMl1PW0NAQEhdKFtDSDNdKVtDQEBdMShbT0hdKVtDSDJdbihbY0hdbjIpYyhjMjMpbltjSF1uYzNOKFtDQEBIXTQ1KVtDQEhdKFtDSDJdW0NIMl00KVtDQEhdKFtDSDJdNSlbQ0gyXVtPSF0=

> <s_epik_cmdline>
J2VwaWtfcHl0aG9uJywgJy1waCcsICc3LjAnLCAnLXRuJywgJzgnLCAnLW1hJywgJzIwMCcsICctbWV0YWxfYmluZGluZycsICctaW1hZScsICc8aW5maWxlLm1hZT4nLCAnLW9tYWUnLCAnPG91dGZpbGUubWFlPic=

> <r_lp_tautomer_probability>
1

> <r_epik_Ionization_Penalty>
0.00583903

> <r_epik_Ionization_Penalty_Charging>
0

> <r_epik_Ionization_Penalty_Neutral>
0.00583903

> <r_epik_State_Penalty>
-0

> <r_epik_Charging_Adjusted_Penalty>
0

> <i_epik_Tot_Q>
0

> <i_epik_Tot_abs_Q>
0

> <r_epik_Metal_State_Penalty>
-0

> <b_epik_Metal_Only>
0

> <s_lp_Force_Field>
OPLS_2005

> <r_lp_Energy>
84.6661

> <b_lp_Chiralities_Consistent>
1

> <s_lp_Variant>
AV-unprocessed.smi:199-7

> <Gold.Version>
5.8.1

> <Gold.Id.Protein>
6NUR|6NUR_protein|mol2

> <Gold.PLP.Fitness>
42.4380

> <Gold.PLP.PLP>
-37.2664

> <Gold.PLP.part.hbond>
-2.0000

> <Gold.PLP.part.metal>
0.0000

> <Gold.PLP.part.buried>
-6.0141

> <Gold.PLP.part.nonpolar>
-29.5533

> <Gold.PLP.part.repulsive>
1.0640

> <Gold.PLP.ligand.clash>
0.0000

> <Gold.PLP.ligand.torsion>
0.4264

> <Gold.PLP.Chemscore.Hbond>
2.0000

> <Gold.PLP.Chemscore.CHOScore>
0.0000

> <Gold.PLP.Chemscore.Metal>
0.0000

> <Gold.Chemscore.Hbonds>
donor molecule, donor type, donor heavy atom, donor atom, acceptor molecule, acceptor atom, score
      L1  H    21    48       P1 10171  0.88
      P1  H  6896  6908       L1     7  0.42

> <Gold.PLP.Chemscore.Internal.Correction>
0.0245

> <Gold.Rescore>
     Score         DG    S(hbond)    S(metal)    S(lipo)     H(rot)  DE(clash)    DE(int)     intcor
      7.72     -11.77       1.89        0.00      67.04       3.07       0.01       4.05       ----

> <Gold.Chemscore.Fitness>
7.7195

> <Gold.Chemscore.DG>
-11.7740

> <Gold.Chemscore.ZeroCoef>
-5.4800

> <Gold.Chemscore.Hbond>
1.8914

> <Gold.Chemscore.Metal>
0.0000

> <Gold.Chemscore.Lipo>
67.0379

> <Gold.Chemscore.Internal_Hbond>
0.0000

> <Gold.Chemscore.DEClash>
0.0082

> <Gold.Chemscore.DEInternal>
4.0463

> <Gold.Chemscore.Rot>
3.0729

> <Gold.Chemscore.Internal.Correction>
   9.000000E+99

> <Gold.Chemscore.Hbonds>
donor molecule, donor type, donor heavy atom, donor atom, acceptor molecule, acceptor atom, score
      L1  H    21    48       P1 10171  0.86
      P1  H  6896  6908       L1     7  0.26

> <Gold.Chemscore.Hbond.Weighted>
-6.3173

> <Gold.Chemscore.Metal.Weighted>
-0.0000

> <Gold.Chemscore.Lipo.Weighted>
-7.8434

> <Gold.Chemscore.Internal_Hbond.Weighted>
0.0000

> <Gold.Chemscore.DEClash.Weighted>
0.0082

> <Gold.Chemscore.DEInternal.Weighted>
4.0463

> <Gold.Chemscore.Rot.Weighted>
7.8667

> <Gold.Chemscore.Internal.Correction.Weighted>
   9.000000E+99

> <Gold.Protein.RotatedTorsions>
[ 6907 6896 6895 6894 ] final   89.48 input  -60.11 | X-H torsion
[ 7974 7965 7964 7962 ] final   14.21 input  175.53 | X-H torsion
[ 8008 7997 7996 7995 ] final   82.98 input   59.86 | X-H torsion
[ 10167 10162 10161 10158 ] final  -42.62 input  -65.29 | X-H torsion
[ 10718 10713 10712 10709 ] final  -17.29 input   66.30 | X-H torsion
[ 10763 10752 10751 10750 ] final   64.23 input  -60.55 | X-H torsion
[ 11005 11000 10999 10996 ] final  -16.44 input  -57.11 | X-H torsion

> <Gold.Protein.ActiveResidues>
 VAL166  LYS551  ARG553  GLY616  TRP617  ASP618  TYR619  PRO620  LYS621  CYS622 
 ASP623  PHE694  ASN695  SER759  ASP760  ASP761  ALA762  ILE779  LEU786  VAL792 
 PHE793  MET794  SER795  GLU796  ALA797  LYS798  CYS799  TRP800  GLU811  SER814 

> <Gold.Protein.RotatedAtoms>
  152.5436  134.1960  159.8692 H   0  0  0  0  0  0  0  0  0  0  0  0  # atno 6907 bound_to 6896
  151.1952  133.4636  159.2603 H   0  0  0  0  0  0  0  0  0  0  0  0  # atno 6908 bound_to 6896
  151.1044  135.0003  159.8519 H   0  0  0  0  0  0  0  0  0  0  0  0  # atno 6909 bound_to 6896
  146.2311  139.9075  142.8529 H   0  0  0  0  0  0  0  0  0  0  0  0  # atno 7974 bound_to 7965
  155.9178  140.3423  155.6149 H   0  0  0  0  0  0  0  0  0  0  0  0  # atno 8008 bound_to 7997
  155.7310  140.0795  157.2308 H   0  0  0  0  0  0  0  0  0  0  0  0  # atno 8009 bound_to 7997
  154.4065  140.1588  156.2495 H   0  0  0  0  0  0  0  0  0  0  0  0  # atno 8010 bound_to 7997
  140.6962  143.3027  151.3236 H   0  0  0  0  0  0  0  0  0  0  0  0  # atno 10167 bound_to 10162
  156.5756  130.4761  149.6343 H   0  0  0  0  0  0  0  0  0  0  0  0  # atno 10718 bound_to 10713
  153.0048  135.5400  154.6478 H   0  0  0  0  0  0  0  0  0  0  0  0  # atno 10763 bound_to 10752
  154.5717  135.2842  155.0822 H   0  0  0  0  0  0  0  0  0  0  0  0  # atno 10764 bound_to 10752
  154.1985  135.6488  153.5133 H   0  0  0  0  0  0  0  0  0  0  0  0  # atno 10765 bound_to 10752
  140.8068  133.8171  155.9524 H   0  0  0  0  0  0  0  0  0  0  0  0  # atno 11005 bound_to 11000
  145.2262  140.9955  143.4017 LP  0  0  0  0  0  0  0  0  0  0  0  0  # atno 17320 bound_to 7965
  144.9568  139.4022  143.6375 LP  0  0  0  0  0  0  0  0  0  0  0  0  # atno 17321 bound_to 7965
  139.6421  144.0519  152.2563 LP  0  0  0  0  0  0  0  0  0  0  0  0  # atno 17342 bound_to 10162
  140.0028  144.6281  150.7715 LP  0  0  0  0  0  0  0  0  0  0  0  0  # atno 17343 bound_to 10162
  156.2676  130.6998  151.1786 LP  0  0  0  0  0  0  0  0  0  0  0  0  # atno 17370 bound_to 10713
  157.7338  131.0587  150.5556 LP  0  0  0  0  0  0  0  0  0  0  0  0  # atno 17371 bound_to 10713
  140.9239  134.2107  157.4909 LP  0  0  0  0  0  0  0  0  0  0  0  0  # atno 17394 bound_to 11000
  139.8717  134.9804  156.5074 LP  0  0  0  0  0  0  0  0  0  0  0  0  # atno 17395 bound_to 11000

$$$$
