AV-unprocessed.smi:850|AV-procd|sdf|3948|dock3
  -GOLD-   22720 1413D 1   1.00000     0.00000
 Structure written by MMmdl.
 40 42  0  0  0  0  0  0  0  0  1 V2000
  153.6159  140.8925  160.7590 C   0  0  0  0  0  0  0  0  0  0  0  0
  152.8645  141.6613  159.7740 N   0  0  0  0  0  0  0  0  0  0  0  0
  152.5556  141.2870  158.5101 C   0  0  0  0  0  0  0  0  0  0  0  0
  152.8652  140.2234  157.9733 O   0  0  0  0  0  0  0  0  0  0  0  0
  151.8499  142.2905  157.9371 N   0  0  0  0  0  0  0  0  0  0  0  0
  151.3331  142.3195  156.5707 C   0  0  0  0  0  0  0  0  0  0  0  0
  150.0416  141.4883  156.4328 C   0  0  1  0  0  0  0  0  0  0  0  0
  148.9655  142.1317  157.0846 O   0  0  0  0  0  0  0  0  0  0  0  0
  149.6312  141.2503  154.9700 C   0  0  0  0  0  0  0  0  0  0  0  0
  150.5388  140.3434  154.3555 O   0  0  0  0  0  0  0  0  0  0  0  0
  150.3322  138.9918  154.5289 C   0  0  0  0  0  0  0  0  0  0  0  0
  149.0112  138.5768  154.7970 C   0  0  0  0  0  0  0  0  0  0  0  0
  148.7071  137.2148  154.9852 C   0  0  0  0  0  0  0  0  0  0  0  0
  149.7275  136.2492  154.9070 C   0  0  0  0  0  0  0  0  0  0  0  0
  151.0505  136.6491  154.6421 C   0  0  0  0  0  0  0  0  0  0  0  0
  151.3544  138.0117  154.4536 C   0  0  0  0  0  0  0  0  0  0  0  0
  151.7166  143.3417  158.8559 C   0  0  0  0  0  0  0  0  0  0  0  0
  151.0908  144.5956  158.7446 C   0  0  0  0  0  0  0  0  0  0  0  0
  151.1405  145.4447  159.8751 C   0  0  0  0  0  0  0  0  0  0  0  0
  151.7989  145.0356  161.0641 C   0  0  0  0  0  0  0  0  0  0  0  0
  152.4218  143.7682  161.1482 C   0  0  0  0  0  0  0  0  0  0  0  0
  152.3561  142.9448  160.0111 C   0  0  0  0  0  0  0  0  0  0  0  0
  153.8087  139.8730  160.4225 H   0  0  0  0  0  0  0  0  0  0  0  0
  153.0624  140.8359  161.6965 H   0  0  0  0  0  0  0  0  0  0  0  0
  154.5752  141.3714  160.9561 H   0  0  0  0  0  0  0  0  0  0  0  0
  151.1768  143.3456  156.2330 H   0  0  0  0  0  0  0  0  0  0  0  0
  152.1043  141.9090  155.9180 H   0  0  0  0  0  0  0  0  0  0  0  0
  150.1738  140.5146  156.9061 H   0  0  0  0  0  0  0  0  0  0  0  0
  148.7110  142.8832  156.5707 H   0  0  0  0  0  0  0  0  0  0  0  0
  148.6302  140.8159  154.9556 H   0  0  0  0  0  0  0  0  0  0  0  0
  149.5901  142.1962  154.4266 H   0  0  0  0  0  0  0  0  0  0  0  0
  148.2220  139.3118  154.8585 H   0  0  0  0  0  0  0  0  0  0  0  0
  147.6908  136.9118  155.1892 H   0  0  0  0  0  0  0  0  0  0  0  0
  149.4959  135.2041  155.0506 H   0  0  0  0  0  0  0  0  0  0  0  0
  151.8352  135.9092  154.5832 H   0  0  0  0  0  0  0  0  0  0  0  0
  152.3805  138.2790  154.2521 H   0  0  0  0  0  0  0  0  0  0  0  0
  150.5936  144.9025  157.8362 H   0  0  0  0  0  0  0  0  0  0  0  0
  150.6725  146.4173  159.8323 H   0  0  0  0  0  0  0  0  0  0  0  0
  151.8258  145.7008  161.9146 H   0  0  0  0  0  0  0  0  0  0  0  0
  152.9268  143.4500  162.0484 H   0  0  0  0  0  0  0  0  0  0  0  0
  1  2  1  0  0  0  0
  1 23  1  0  0  0  0
  1 24  1  0  0  0  0
  1 25  1  0  0  0  0
  2 22  1  0  0  0  0
  2  3  1  0  0  0  0
  3  4  2  0  0  0  0
  3  5  1  0  0  0  0
  5  6  1  0  0  0  0
  5 17  1  0  0  0  0
  6  7  1  0  0  0  0
  6 26  1  0  0  0  0
  6 27  1  0  0  0  0
  7  8  1  0  0  0  0
  7  9  1  0  0  0  0
  7 28  1  0  0  0  0
  8 29  1  0  0  0  0
  9 10  1  0  0  0  0
  9 30  1  0  0  0  0
  9 31  1  0  0  0  0
 10 11  1  0  0  0  0
 11 16  1  0  0  0  0
 11 12  2  0  0  0  0
 12 13  1  0  0  0  0
 12 32  1  0  0  0  0
 13 14  2  0  0  0  0
 13 33  1  0  0  0  0
 14 15  1  0  0  0  0
 14 34  1  0  0  0  0
 15 16  2  0  0  0  0
 15 35  1  0  0  0  0
 16 36  1  0  0  0  0
 17 22  2  0  0  0  0
 17 18  1  0  0  0  0
 18 19  2  0  0  0  0
 18 37  1  0  0  0  0
 19 20  1  0  0  0  0
 19 38  1  0  0  0  0
 20 21  2  0  0  0  0
 20 39  1  0  0  0  0
 21 22  1  0  0  0  0
 21 40  1  0  0  0  0
M  END
> <s_m_source_file>
AV-unprocessed.smi

> <i_m_source_file_index>
850

> <i_lp_mmshare_version>
43012

> <i_f3d_flags>
0

> <s_epik_input>
W2NIXTFbY0hdW2NIXVtjSF1jKGMxMiluKFtDSDNdKWMoPU8pbjJbQ0gyXVtDQEhdKFtPSF0pW0NIMl1PYzNbY0hdW2NIXVtjSF1bY0hdW2NIXTM=

> <s_epik_cmdline>
J2VwaWtfcHl0aG9uJywgJy1waCcsICc3LjAnLCAnLXRuJywgJzgnLCAnLW1hJywgJzIwMCcsICctbWV0YWxfYmluZGluZycsICctaW1hZScsICc8aW5maWxlLm1hZT4nLCAnLW9tYWUnLCAnPG91dGZpbGUubWFlPic=

> <r_lp_tautomer_probability>
1

> <r_epik_Ionization_Penalty>
2.40205e-06

> <r_epik_Ionization_Penalty_Charging>
2.75209e-09

> <r_epik_Ionization_Penalty_Neutral>
2.3993e-06

> <r_epik_State_Penalty>
-0

> <r_epik_Charging_Adjusted_Penalty>
2.75209e-09

> <i_epik_Tot_Q>
0

> <i_epik_Tot_abs_Q>
0

> <r_epik_Metal_State_Penalty>
-0

> <b_epik_Metal_Only>
0

> <s_lp_Force_Field>
OPLS_2005

> <r_lp_Energy>
47.9965

> <b_lp_Chiralities_Consistent>
1

> <s_lp_Variant>
AV-unprocessed.smi:850-2

> <Gold.Version>
5.8.1

> <Gold.Id.Protein>
6NUR|6NUR_protein|mol2

> <Gold.PLP.Fitness>
55.4896

> <Gold.PLP.PLP>
-48.1078

> <Gold.PLP.part.hbond>
-2.9051

> <Gold.PLP.part.metal>
0.0000

> <Gold.PLP.part.buried>
-4.0002

> <Gold.PLP.part.nonpolar>
-40.3502

> <Gold.PLP.part.repulsive>
0.1101

> <Gold.PLP.ligand.clash>
0.0042

> <Gold.PLP.ligand.torsion>
0.8624

> <Gold.PLP.Chemscore.Hbond>
3.0000

> <Gold.PLP.Chemscore.CHOScore>
0.0000

> <Gold.PLP.Chemscore.Metal>
0.0000

> <Gold.Chemscore.Hbonds>
donor molecule, donor type, donor heavy atom, donor atom, acceptor molecule, acceptor atom, score
      L1  H     8    29       P1  8028  0.94
      P1  H  7989  7998       L1    10  0.88
      P1  H  7997  8009       L1     4  0.98

> <Gold.PLP.Chemscore.Internal.Correction>
0.1108

> <Gold.Rescore>
     Score         DG    S(hbond)    S(metal)    S(lipo)     H(rot)  DE(clash)    DE(int)     intcor
     21.39     -24.61       2.64        0.00     134.37       2.12       2.34       0.87       ----

> <Gold.Chemscore.Fitness>
21.3921

> <Gold.Chemscore.DG>
-24.6089

> <Gold.Chemscore.ZeroCoef>
-5.4800

> <Gold.Chemscore.Hbond>
2.6438

> <Gold.Chemscore.Metal>
0.0000

> <Gold.Chemscore.Lipo>
134.3731

> <Gold.Chemscore.Internal_Hbond>
0.0000

> <Gold.Chemscore.DEClash>
2.3424

> <Gold.Chemscore.DEInternal>
0.8743

> <Gold.Chemscore.Rot>
2.1184

> <Gold.Chemscore.Internal.Correction>
   9.000000E+99

> <Gold.Chemscore.Hbonds>
donor molecule, donor type, donor heavy atom, donor atom, acceptor molecule, acceptor atom, score
      L1  H     8    29       P1  8028  0.84
      P1  H  7989  7998       L1    10  0.80
      P1  H  7997  8009       L1     4  0.91

> <Gold.Chemscore.Hbond.Weighted>
-8.8304

> <Gold.Chemscore.Metal.Weighted>
-0.0000

> <Gold.Chemscore.Lipo.Weighted>
-15.7216

> <Gold.Chemscore.Internal_Hbond.Weighted>
0.0000

> <Gold.Chemscore.DEClash.Weighted>
2.3424

> <Gold.Chemscore.DEInternal.Weighted>
0.8743

> <Gold.Chemscore.Rot.Weighted>
5.4231

> <Gold.Chemscore.Internal.Correction.Weighted>
   9.000000E+99

> <Gold.Protein.RotatedTorsions>
[ 6907 6896 6895 6894 ] final  -87.64 input  -60.11 | X-H torsion
[ 7974 7965 7964 7962 ] final    5.11 input  175.53 | X-H torsion
[ 8008 7997 7996 7995 ] final  164.18 input   59.86 | X-H torsion
[ 10167 10162 10161 10158 ] final   76.25 input  -65.29 | X-H torsion
[ 10718 10713 10712 10709 ] final  167.87 input   66.30 | X-H torsion
[ 10763 10752 10751 10750 ] final  -95.64 input  -60.55 | X-H torsion
[ 11005 11000 10999 10996 ] final  173.46 input  -57.11 | X-H torsion

> <Gold.Protein.ActiveResidues>
 VAL166  LYS551  ARG553  GLY616  TRP617  ASP618  TYR619  PRO620  LYS621  CYS622 
 ASP623  PHE694  ASN695  SER759  ASP760  ASP761  ALA762  ILE779  LEU786  VAL792 
 PHE793  MET794  SER795  GLU796  ALA797  LYS798  CYS799  TRP800  GLU811  SER814 

> <Gold.Protein.RotatedAtoms>
  150.6867  134.2865  159.4648 H   0  0  0  0  0  0  0  0  0  0  0  0  # atno 6907 bound_to 6896
  152.0774  134.9491  160.0583 H   0  0  0  0  0  0  0  0  0  0  0  0  # atno 6908 bound_to 6896
  152.0857  133.4140  159.4558 H   0  0  0  0  0  0  0  0  0  0  0  0  # atno 6909 bound_to 6896
  146.2442  140.0433  142.8380 H   0  0  0  0  0  0  0  0  0  0  0  0  # atno 7974 bound_to 7965
  156.1900  140.1703  156.8111 H   0  0  0  0  0  0  0  0  0  0  0  0  # atno 8008 bound_to 7997
  154.5459  140.0727  156.8621 H   0  0  0  0  0  0  0  0  0  0  0  0  # atno 8009 bound_to 7997
  155.3122  140.3368  155.4246 H   0  0  0  0  0  0  0  0  0  0  0  0  # atno 8010 bound_to 7997
  139.9943  144.5734  150.7791 H   0  0  0  0  0  0  0  0  0  0  0  0  # atno 10167 bound_to 10162
  157.0453  131.0298  151.2699 H   0  0  0  0  0  0  0  0  0  0  0  0  # atno 10718 bound_to 10713
  154.7167  135.5113  153.8749 H   0  0  0  0  0  0  0  0  0  0  0  0  # atno 10763 bound_to 10752
  153.0827  135.6636  154.0021 H   0  0  0  0  0  0  0  0  0  0  0  0  # atno 10764 bound_to 10752
  153.9852  135.3025  155.3396 H   0  0  0  0  0  0  0  0  0  0  0  0  # atno 10765 bound_to 10752
  140.3408  134.7278  157.4200 H   0  0  0  0  0  0  0  0  0  0  0  0  # atno 11005 bound_to 11000
  145.1050  140.9369  143.4690 LP  0  0  0  0  0  0  0  0  0  0  0  0  # atno 17320 bound_to 7965
  145.0634  139.3087  143.5869 LP  0  0  0  0  0  0  0  0  0  0  0  0  # atno 17321 bound_to 7965
  140.7443  143.2859  151.3466 LP  0  0  0  0  0  0  0  0  0  0  0  0  # atno 17342 bound_to 10162
  139.6317  144.0707  152.2482 LP  0  0  0  0  0  0  0  0  0  0  0  0  # atno 17343 bound_to 10162
  157.5073  130.7916  149.7667 LP  0  0  0  0  0  0  0  0  0  0  0  0  # atno 17370 bound_to 10713
  156.0025  130.3872  150.2553 LP  0  0  0  0  0  0  0  0  0  0  0  0  # atno 17371 bound_to 10713
  140.0783  134.5766  155.8567 LP  0  0  0  0  0  0  0  0  0  0  0  0  # atno 17394 bound_to 11000
  141.2039  133.6635  156.6090 LP  0  0  0  0  0  0  0  0  0  0  0  0  # atno 17395 bound_to 11000

$$$$
