AV-unprocessed.smi:3024|AV-procd|sdf|11504|dock2
  -GOLD-   2272016443D 1   1.00000     0.00000
 Structure written by MMmdl.
 31 32  0  0  0  0  0  0  0  0  1 V2000
  145.4354  137.9711  153.7577 O   0  0  0  0  0  0  0  0  0  0  0  0
  146.4384  137.4487  153.2723 C   0  0  0  0  0  0  0  0  0  0  0  0
  146.4349  136.2367  152.7008 N   0  0  0  0  0  0  0  0  0  0  0  0
  145.2686  135.3693  152.5803 C   0  0  0  0  0  0  0  0  0  0  0  0
  145.3922  134.4157  151.3801 C   0  0  1  0  0  0  0  0  0  0  0  0
  146.5356  133.4086  151.5032 C   0  0  0  0  0  0  0  0  0  0  0  0
  146.0583  132.2133  150.6897 C   0  0  0  0  0  0  0  0  0  0  0  0
  144.5908  132.5259  150.3866 C   0  0  0  0  0  0  0  0  0  0  0  0
  144.2534  133.5750  151.2813 O   0  0  0  0  0  0  0  0  0  0  0  0
  147.6696  137.9878  153.2539 N   0  0  0  0  0  0  0  0  0  0  0  0
  148.1034  139.2442  153.7583 C   0  0  0  0  0  0  0  0  0  0  0  0
  147.2590  140.3623  153.9667 C   0  0  0  0  0  0  0  0  0  0  0  0
  147.8210  141.5556  154.4603 C   0  0  0  0  0  0  0  0  0  0  0  0
  149.2046  141.5912  154.7204 C   0  0  0  0  0  0  0  0  0  0  0  0
  150.0230  140.5381  154.5153 N   0  0  0  0  0  0  0  0  0  0  0  0
  149.4772  139.3974  154.0425 C   0  0  0  0  0  0  0  0  0  0  0  0
  147.3051  135.8792  152.3349 H   0  0  0  0  0  0  0  0  0  0  0  0
  145.1348  134.8010  153.5023 H   0  0  0  0  0  0  0  0  0  0  0  0
  144.3838  135.9973  152.4717 H   0  0  0  0  0  0  0  0  0  0  0  0
  145.5007  134.9768  150.4499 H   0  0  0  0  0  0  0  0  0  0  0  0
  147.4839  133.8124  151.1471 H   0  0  0  0  0  0  0  0  0  0  0  0
  146.6696  133.1091  152.5438 H   0  0  0  0  0  0  0  0  0  0  0  0
  146.6297  132.0915  149.7690 H   0  0  0  0  0  0  0  0  0  0  0  0
  146.1555  131.2947  151.2693 H   0  0  0  0  0  0  0  0  0  0  0  0
  144.4776  132.8807  149.3611 H   0  0  0  0  0  0  0  0  0  0  0  0
  143.9393  131.6624  150.5220 H   0  0  0  0  0  0  0  0  0  0  0  0
  148.3997  137.4026  152.8750 H   0  0  0  0  0  0  0  0  0  0  0  0
  146.2031  140.3383  153.7492 H   0  0  0  0  0  0  0  0  0  0  0  0
  147.2051  142.4261  154.6313 H   0  0  0  0  0  0  0  0  0  0  0  0
  149.6671  142.4910  155.0978 H   0  0  0  0  0  0  0  0  0  0  0  0
  150.1630  138.5768  153.8891 H   0  0  0  0  0  0  0  0  0  0  0  0
  1  2  2  0  0  0  0
  2  3  1  0  0  0  0
  2 10  1  0  0  0  0
  3  4  1  0  0  0  0
  3 17  1  0  0  0  0
  4  5  1  0  0  0  0
  4 18  1  0  0  0  0
  4 19  1  0  0  0  0
  5  9  1  0  0  0  0
  5  6  1  0  0  0  0
  5 20  1  0  0  0  0
  6  7  1  0  0  0  0
  6 21  1  0  0  0  0
  6 22  1  0  0  0  0
  7  8  1  0  0  0  0
  7 23  1  0  0  0  0
  7 24  1  0  0  0  0
  8  9  1  0  0  0  0
  8 25  1  0  0  0  0
  8 26  1  0  0  0  0
 10 11  1  0  0  0  0
 10 27  1  0  0  0  0
 11 16  1  0  0  0  0
 11 12  2  0  0  0  0
 12 13  1  0  0  0  0
 12 28  1  0  0  0  0
 13 14  2  0  0  0  0
 13 29  1  0  0  0  0
 14 15  1  0  0  0  0
 14 30  1  0  0  0  0
 15 16  2  0  0  0  0
 16 31  1  0  0  0  0
M  END
> <s_m_source_file>
AV-unprocessed.smi

> <i_m_source_file_index>
3024

> <i_lp_mmshare_version>
43012

> <i_f3d_flags>
0

> <s_epik_input>
W2NIXTFuW2NIXVtjSF1bY0hdYzFbTkhdQyg9TylbTkhdW0NIMl1bQ0BASF0yW0NIMl1bQ0gyXVtDSDJdTzI=

> <s_epik_cmdline>
J2VwaWtfcHl0aG9uJywgJy1waCcsICc3LjAnLCAnLXRuJywgJzgnLCAnLW1hJywgJzIwMCcsICctbWV0YWxfYmluZGluZycsICctaW1hZScsICc8aW5maWxlLm1hZT4nLCAnLW9tYWUnLCAnPG91dGZpbGUubWFlPic=

> <r_epik_Ionization_Penalty>
0.00471982

> <r_epik_Ionization_Penalty_Charging>
0

> <r_epik_Ionization_Penalty_Neutral>
0.00471982

> <r_epik_State_Penalty>
0.00339234

> <r_epik_Charging_Adjusted_Penalty>
0.00339234

> <i_epik_Tot_Q>
0

> <i_epik_Tot_abs_Q>
0

> <r_epik_Metal_State_Penalty>
-0

> <b_epik_Metal_Only>
0

> <s_lp_Force_Field>
OPLS_2005

> <r_lp_Energy>
19.1473

> <b_lp_Chiralities_Consistent>
1

> <s_lp_Variant>
AV-unprocessed.smi:3024-2

> <Gold.Version>
5.8.1

> <Gold.Id.Protein>
6NUR|6NUR_protein|mol2

> <Gold.PLP.Fitness>
38.6302

> <Gold.PLP.PLP>
-27.4513

> <Gold.PLP.part.hbond>
-3.0000

> <Gold.PLP.part.metal>
0.0000

> <Gold.PLP.part.buried>
-2.4799

> <Gold.PLP.part.nonpolar>
-23.9047

> <Gold.PLP.part.repulsive>
1.2456

> <Gold.PLP.ligand.clash>
0.0000

> <Gold.PLP.ligand.torsion>
0.2948

> <Gold.PLP.Chemscore.Hbond>
2.9200

> <Gold.PLP.Chemscore.CHOScore>
1.0000

> <Gold.PLP.Chemscore.Metal>
0.0000

> <Gold.Chemscore.Hbonds>
donor molecule, donor type, donor heavy atom, donor atom, acceptor molecule, acceptor atom, score
      L1  H     3    17       P1  7948  0.96
      L1  H    10    27       P1  7948  1.00
      P1  H  7989  7998       L1    15  0.85
      L1  C    14    30       P1  8028  1.00

> <Gold.PLP.Chemscore.Internal.Correction>
0.0084

> <Gold.Rescore>
     Score         DG    S(hbond)    S(metal)    S(lipo)     H(rot)  DE(clash)    DE(int)     intcor
     16.28     -17.69       2.35        0.00      64.52       1.24       0.20       1.21       ----

> <Gold.Chemscore.Fitness>
16.2839

> <Gold.Chemscore.DG>
-17.6911

> <Gold.Chemscore.ZeroCoef>
-5.4800

> <Gold.Chemscore.Hbond>
2.3455

> <Gold.Chemscore.Metal>
0.0000

> <Gold.Chemscore.Lipo>
64.5202

> <Gold.Chemscore.Internal_Hbond>
0.0000

> <Gold.Chemscore.DEClash>
0.1999

> <Gold.Chemscore.DEInternal>
1.2073

> <Gold.Chemscore.Rot>
1.2390

> <Gold.Chemscore.Internal.Correction>
   9.000000E+99

> <Gold.Chemscore.Hbonds>
donor molecule, donor type, donor heavy atom, donor atom, acceptor molecule, acceptor atom, score
      L1  H     3    17       P1  7948  0.92
      L1  H    10    27       P1  7948  0.96
      P1  H  7989  7998       L1    15  0.47

> <Gold.Chemscore.Hbond.Weighted>
-7.8340

> <Gold.Chemscore.Metal.Weighted>
-0.0000

> <Gold.Chemscore.Lipo.Weighted>
-7.5489

> <Gold.Chemscore.Internal_Hbond.Weighted>
0.0000

> <Gold.Chemscore.DEClash.Weighted>
0.1999

> <Gold.Chemscore.DEInternal.Weighted>
1.2073

> <Gold.Chemscore.Rot.Weighted>
3.1718

> <Gold.Chemscore.Internal.Correction.Weighted>
   9.000000E+99

> <Gold.Protein.RotatedTorsions>
[ 6907 6896 6895 6894 ] final -130.58 input  -60.11 | X-H torsion
[ 7974 7965 7964 7962 ] final  103.25 input  175.53 | X-H torsion
[ 8008 7997 7996 7995 ] final   49.65 input   59.86 | X-H torsion
[ 10167 10162 10161 10158 ] final -138.54 input  -65.29 | X-H torsion
[ 10718 10713 10712 10709 ] final  167.57 input   66.30 | X-H torsion
[ 10763 10752 10751 10750 ] final  -47.97 input  -60.55 | X-H torsion
[ 11005 11000 10999 10996 ] final -156.02 input  -57.11 | X-H torsion

> <Gold.Protein.ActiveResidues>
 VAL166  LYS551  ARG553  GLY616  TRP617  ASP618  TYR619  PRO620  LYS621  CYS622 
 ASP623  PHE694  ASN695  SER759  ASP760  ASP761  ALA762  ILE779  LEU786  VAL792 
 PHE793  MET794  SER795  GLU796  ALA797  LYS798  CYS799  TRP800  GLU811  SER814 

> <Gold.Protein.RotatedAtoms>
  150.9413  133.6653  159.2789 H   0  0  0  0  0  0  0  0  0  0  0  0  # atno 6907 bound_to 6896
  151.4041  135.0974  159.9575 H   0  0  0  0  0  0  0  0  0  0  0  0  # atno 6908 bound_to 6896
  152.5070  133.8900  159.7444 H   0  0  0  0  0  0  0  0  0  0  0  0  # atno 6909 bound_to 6896
  145.3484  139.2445  143.3571 H   0  0  0  0  0  0  0  0  0  0  0  0  # atno 7974 bound_to 7965
  155.4057  140.3440  155.4260 H   0  0  0  0  0  0  0  0  0  0  0  0  # atno 8008 bound_to 7997
  156.1478  140.1561  156.8850 H   0  0  0  0  0  0  0  0  0  0  0  0  # atno 8009 bound_to 7997
  154.5026  140.0811  156.7809 H   0  0  0  0  0  0  0  0  0  0  0  0  # atno 8010 bound_to 7997
  139.8468  143.7250  152.2660 H   0  0  0  0  0  0  0  0  0  0  0  0  # atno 10167 bound_to 10162
  157.0495  131.0309  151.2685 H   0  0  0  0  0  0  0  0  0  0  0  0  # atno 10718 bound_to 10713
  154.0701  135.6606  153.4823 H   0  0  0  0  0  0  0  0  0  0  0  0  # atno 10763 bound_to 10752
  153.0394  135.5155  154.7575 H   0  0  0  0  0  0  0  0  0  0  0  0  # atno 10764 bound_to 10752
  154.6638  135.3019  154.9799 H   0  0  0  0  0  0  0  0  0  0  0  0  # atno 10765 bound_to 10752
  140.6802  134.4153  157.5227 H   0  0  0  0  0  0  0  0  0  0  0  0  # atno 11005 bound_to 11000
  146.2978  140.4095  142.8715 LP  0  0  0  0  0  0  0  0  0  0  0  0  # atno 17320 bound_to 7965
  144.8737  140.7307  143.6031 LP  0  0  0  0  0  0  0  0  0  0  0  0  # atno 17321 bound_to 7965
  139.7504  144.7535  151.0515 LP  0  0  0  0  0  0  0  0  0  0  0  0  # atno 17342 bound_to 10162
  140.7792  143.4867  150.9947 LP  0  0  0  0  0  0  0  0  0  0  0  0  # atno 17343 bound_to 10162
  157.5041  130.7898  149.7635 LP  0  0  0  0  0  0  0  0  0  0  0  0  # atno 17370 bound_to 10713
  156.0012  130.3879  150.2599 LP  0  0  0  0  0  0  0  0  0  0  0  0  # atno 17371 bound_to 10713
  139.8954  134.8683  156.2133 LP  0  0  0  0  0  0  0  0  0  0  0  0  # atno 17394 bound_to 11000
  141.0324  133.6982  156.1453 LP  0  0  0  0  0  0  0  0  0  0  0  0  # atno 17395 bound_to 11000

$$$$
