AV-unprocessed.smi:1047|AV-procd|sdf|4593|dock2
  -GOLD-   22720 3 73D 1   1.00000     0.00000
 Structure written by MMmdl.
 55 57  0  0  0  0  0  0  0  0  1 V2000
  144.6947  132.3714  149.4057 C   0  0  0  0  0  0  0  0  0  0  0  0
  145.9958  132.1628  150.1937 C   0  0  0  0  0  0  0  0  0  0  0  0
  146.0331  132.8101  151.5039 N   0  0  0  0  0  0  0  0  0  0  0  0
  145.9368  134.2594  151.3735 C   0  0  0  0  0  0  0  0  0  0  0  0
  145.9807  134.9630  152.7400 C   0  0  0  0  0  0  0  0  0  0  0  0
  147.1703  134.5885  153.4265 O   0  0  0  0  0  0  0  0  0  0  0  0
  147.2753  133.1813  153.6320 C   0  0  2  0  0  0  0  0  0  0  0  0
  148.5859  132.9026  154.3818 C   0  0  0  0  0  0  0  0  0  0  0  0
  148.8379  133.9237  155.3931 N   0  0  0  0  0  0  0  0  0  0  0  0
  150.1311  134.5834  155.2459 C   0  0  0  0  0  0  0  0  0  0  0  0
  150.0079  136.1013  155.4588 C   0  0  2  0  0  0  0  0  0  0  0  0
  149.0982  136.6164  154.5049 O   0  0  0  0  0  0  0  0  0  0  0  0
  151.3643  136.8132  155.2929 C   0  0  0  0  0  0  0  0  0  0  0  0
  151.2531  138.2553  155.4224 N   0  0  0  0  0  0  0  0  0  0  0  0
  150.7581  139.1192  154.5149 C   0  0  0  0  0  0  0  0  0  0  0  0
  150.7453  140.4076  154.8443 N   0  0  0  0  0  0  0  0  0  0  0  0
  151.2969  140.3759  156.1138 C   0  0  0  0  0  0  0  0  0  0  0  0
  151.5607  141.4217  157.0252 C   0  0  0  0  0  0  0  0  0  0  0  0
  152.1396  141.1550  158.2866 C   0  0  0  0  0  0  0  0  0  0  0  0
  152.4034  142.3098  159.2371 C   0  0  0  0  0  0  0  0  0  0  0  0
  152.4659  139.8240  158.6518 C   0  0  0  0  0  0  0  0  0  0  0  0
  153.0945  139.5145  159.9989 C   0  0  0  0  0  0  0  0  0  0  0  0
  152.2060  138.7671  157.7542 C   0  0  0  0  0  0  0  0  0  0  0  0
  151.6283  139.0452  156.5030 C   0  0  0  0  0  0  0  0  0  0  0  0
  147.2414  132.4817  152.2582 C   0  0  0  0  0  0  0  0  0  0  0  0
  144.7831  131.9491  148.4046 H   0  0  0  0  0  0  0  0  0  0  0  0
  144.4662  133.4321  149.2979 H   0  0  0  0  0  0  0  0  0  0  0  0
  143.8440  131.8884  149.8856 H   0  0  0  0  0  0  0  0  0  0  0  0
  146.1894  131.0946  150.3011 H   0  0  0  0  0  0  0  0  0  0  0  0
  146.8115  132.5549  149.5845 H   0  0  0  0  0  0  0  0  0  0  0  0
  146.7535  134.6299  150.7518 H   0  0  0  0  0  0  0  0  0  0  0  0
  145.0109  134.5248  150.8620 H   0  0  0  0  0  0  0  0  0  0  0  0
  145.9689  136.0452  152.6105 H   0  0  0  0  0  0  0  0  0  0  0  0
  145.1072  134.7014  153.3393 H   0  0  0  0  0  0  0  0  0  0  0  0
  146.4303  132.8338  154.2301 H   0  0  0  0  0  0  0  0  0  0  0  0
  148.5278  131.9266  154.8648 H   0  0  0  0  0  0  0  0  0  0  0  0
  149.4128  132.8521  153.6720 H   0  0  0  0  0  0  0  0  0  0  0  0
  148.0971  134.6180  155.3675 H   0  0  0  0  0  0  0  0  0  0  0  0
  150.8210  134.1715  155.9835 H   0  0  0  0  0  0  0  0  0  0  0  0
  150.5648  134.3732  154.2671 H   0  0  0  0  0  0  0  0  0  0  0  0
  149.6219  136.3062  156.4589 H   0  0  0  0  0  0  0  0  0  0  0  0
  149.4848  136.5358  153.6466 H   0  0  0  0  0  0  0  0  0  0  0  0
  152.0697  136.4593  156.0457 H   0  0  0  0  0  0  0  0  0  0  0  0
  151.8034  136.5816  154.3213 H   0  0  0  0  0  0  0  0  0  0  0  0
  150.3819  138.7825  153.5598 H   0  0  0  0  0  0  0  0  0  0  0  0
  151.3129  142.4352  156.7460 H   0  0  0  0  0  0  0  0  0  0  0  0
  153.4692  142.3923  159.4508 H   0  0  0  0  0  0  0  0  0  0  0  0
  151.8712  142.1606  160.1769 H   0  0  0  0  0  0  0  0  0  0  0  0
  152.0726  143.2584  158.8133 H   0  0  0  0  0  0  0  0  0  0  0  0
  153.3036  138.4495  160.1047 H   0  0  0  0  0  0  0  0  0  0  0  0
  152.4265  139.8076  160.8091 H   0  0  0  0  0  0  0  0  0  0  0  0
  154.0358  140.0526  160.1137 H   0  0  0  0  0  0  0  0  0  0  0  0
  152.4459  137.7483  158.0202 H   0  0  0  0  0  0  0  0  0  0  0  0
  147.3048  131.4053  152.4150 H   0  0  0  0  0  0  0  0  0  0  0  0
  148.1242  132.7664  151.6833 H   0  0  0  0  0  0  0  0  0  0  0  0
  1  2  1  0  0  0  0
  1 26  1  0  0  0  0
  1 27  1  0  0  0  0
  1 28  1  0  0  0  0
  2  3  1  0  0  0  0
  2 29  1  0  0  0  0
  2 30  1  0  0  0  0
  3 25  1  0  0  0  0
  3  4  1  0  0  0  0
  4  5  1  0  0  0  0
  4 31  1  0  0  0  0
  4 32  1  0  0  0  0
  5  6  1  0  0  0  0
  5 33  1  0  0  0  0
  5 34  1  0  0  0  0
  6  7  1  0  0  0  0
  7  8  1  0  0  0  0
  7 25  1  0  0  0  0
  7 35  1  0  0  0  0
  8  9  1  0  0  0  0
  8 36  1  0  0  0  0
  8 37  1  0  0  0  0
  9 10  1  0  0  0  0
  9 38  1  0  0  0  0
 10 11  1  0  0  0  0
 10 39  1  0  0  0  0
 10 40  1  0  0  0  0
 11 12  1  0  0  0  0
 11 13  1  0  0  0  0
 11 41  1  0  0  0  0
 12 42  1  0  0  0  0
 13 14  1  0  0  0  0
 13 43  1  0  0  0  0
 13 44  1  0  0  0  0
 14 24  1  0  0  0  0
 14 15  1  0  0  0  0
 15 16  2  0  0  0  0
 15 45  1  0  0  0  0
 16 17  1  0  0  0  0
 17 24  2  0  0  0  0
 17 18  1  0  0  0  0
 18 19  2  0  0  0  0
 18 46  1  0  0  0  0
 19 20  1  0  0  0  0
 19 21  1  0  0  0  0
 20 47  1  0  0  0  0
 20 48  1  0  0  0  0
 20 49  1  0  0  0  0
 21 22  1  0  0  0  0
 21 23  2  0  0  0  0
 22 50  1  0  0  0  0
 22 51  1  0  0  0  0
 22 52  1  0  0  0  0
 23 24  1  0  0  0  0
 23 53  1  0  0  0  0
 25 54  1  0  0  0  0
 25 55  1  0  0  0  0
M  END
> <s_m_source_file>
AV-unprocessed.smi

> <i_m_source_file_index>
1047

> <i_lp_mmshare_version>
43012

> <i_f3d_flags>
0

> <s_epik_input>
W0NIM11bQ0gyXU4xW0NIMl1bQ0gyXU9bQ0BIXShbQ0gyXTEpW0NIMl1bTkhdW0NIMl1bQ0BIXShbT0hdKVtDSDJdbihbY0hdbjIpYyhjMjMpW2NIXWMoW0NIM10pYyhbY0hdMylbQ0gzXQ==

> <s_epik_cmdline>
J2VwaWtfcHl0aG9uJywgJy1waCcsICc3LjAnLCAnLXRuJywgJzgnLCAnLW1hJywgJzIwMCcsICctbWV0YWxfYmluZGluZycsICctaW1hZScsICc8aW5maWxlLm1hZT4nLCAnLW9tYWUnLCAnPG91dGZpbGUubWFlPic=

> <r_epik_Ionization_Penalty>
2.74124

> <r_epik_Ionization_Penalty_Charging>
0

> <r_epik_Ionization_Penalty_Neutral>
2.74124

> <r_epik_State_Penalty>
2.37482

> <r_epik_Charging_Adjusted_Penalty>
2.37482

> <i_epik_Tot_Q>
0

> <i_epik_Tot_abs_Q>
0

> <r_epik_Metal_State_Penalty>
2.25944

> <b_epik_Metal_Only>
0

> <s_lp_Force_Field>
OPLS_2005

> <r_lp_Energy>
33.9666

> <b_lp_Chiralities_Consistent>
1

> <s_lp_Variant>
AV-unprocessed.smi:1047-34

> <Gold.Version>
5.8.1

> <Gold.Id.Protein>
6NUR|6NUR_protein|mol2

> <Gold.PLP.Fitness>
48.6447

> <Gold.PLP.PLP>
-44.7296

> <Gold.PLP.part.hbond>
-2.0000

> <Gold.PLP.part.metal>
0.0000

> <Gold.PLP.part.buried>
-5.6383

> <Gold.PLP.part.nonpolar>
-38.3946

> <Gold.PLP.part.repulsive>
1.3906

> <Gold.PLP.ligand.clash>
0.0000

> <Gold.PLP.ligand.torsion>
1.0939

> <Gold.PLP.Chemscore.Hbond>
1.0000

> <Gold.PLP.Chemscore.CHOScore>
1.0000

> <Gold.PLP.Chemscore.Metal>
0.0000

> <Gold.Chemscore.Hbonds>
donor molecule, donor type, donor heavy atom, donor atom, acceptor molecule, acceptor atom, score
      L1  H    12    42       P1  7948  0.82
      P1  H  7989  7998       L1    16  0.70
      L1  C    15    45       P1  7957  0.32

> <Gold.PLP.Chemscore.Internal.Correction>
0.1030

> <Gold.Rescore>
     Score         DG    S(hbond)    S(metal)    S(lipo)     H(rot)  DE(clash)    DE(int)     intcor
     14.69     -16.01       0.99        0.00     116.85       2.52       0.06       1.25       ----

> <Gold.Chemscore.Fitness>
14.6937

> <Gold.Chemscore.DG>
-16.0075

> <Gold.Chemscore.ZeroCoef>
-5.4800

> <Gold.Chemscore.Hbond>
0.9929

> <Gold.Chemscore.Metal>
0.0000

> <Gold.Chemscore.Lipo>
116.8527

> <Gold.Chemscore.Internal_Hbond>
0.0000

> <Gold.Chemscore.DEClash>
0.0626

> <Gold.Chemscore.DEInternal>
1.2512

> <Gold.Chemscore.Rot>
2.5237

> <Gold.Chemscore.Internal.Correction>
   9.000000E+99

> <Gold.Chemscore.Hbonds>
donor molecule, donor type, donor heavy atom, donor atom, acceptor molecule, acceptor atom, score
      L1  H    12    42       P1  7948  0.64
      P1  H  7989  7998       L1    16  0.07

> <Gold.Chemscore.Hbond.Weighted>
-3.3164

> <Gold.Chemscore.Metal.Weighted>
-0.0000

> <Gold.Chemscore.Lipo.Weighted>
-13.6718

> <Gold.Chemscore.Internal_Hbond.Weighted>
0.0000

> <Gold.Chemscore.DEClash.Weighted>
0.0626

> <Gold.Chemscore.DEInternal.Weighted>
1.2512

> <Gold.Chemscore.Rot.Weighted>
6.4607

> <Gold.Chemscore.Internal.Correction.Weighted>
   9.000000E+99

> <Gold.Protein.RotatedTorsions>
[ 6907 6896 6895 6894 ] final -124.57 input  -60.11 | X-H torsion
[ 7974 7965 7964 7962 ] final  130.25 input  175.53 | X-H torsion
[ 8008 7997 7996 7995 ] final -102.56 input   59.86 | X-H torsion
[ 10167 10162 10161 10158 ] final   31.02 input  -65.29 | X-H torsion
[ 10718 10713 10712 10709 ] final -141.72 input   66.30 | X-H torsion
[ 10763 10752 10751 10750 ] final   70.98 input  -60.55 | X-H torsion
[ 11005 11000 10999 10996 ] final  127.34 input  -57.11 | X-H torsion

> <Gold.Protein.ActiveResidues>
 VAL166  LYS551  ARG553  GLY616  TRP617  ASP618  TYR619  PRO620  LYS621  CYS622 
 ASP623  PHE694  ASN695  SER759  ASP760  ASP761  ALA762  ILE779  LEU786  VAL792 
 PHE793  MET794  SER795  GLU796  ALA797  LYS798  CYS799  TRP800  GLU811  SER814 

> <Gold.Protein.RotatedAtoms>
  150.8781  133.7410  159.2940 H   0  0  0  0  0  0  0  0  0  0  0  0  # atno 6907 bound_to 6896
  151.5000  135.1060  159.9836 H   0  0  0  0  0  0  0  0  0  0  0  0  # atno 6908 bound_to 6896
  152.4741  133.8053  159.7030 H   0  0  0  0  0  0  0  0  0  0  0  0  # atno 6909 bound_to 6896
  145.0199  139.4141  143.5202 H   0  0  0  0  0  0  0  0  0  0  0  0  # atno 7974 bound_to 7965
  154.8583  140.0428  157.1649 H   0  0  0  0  0  0  0  0  0  0  0  0  # atno 8008 bound_to 7997
  154.8867  140.2980  155.5373 H   0  0  0  0  0  0  0  0  0  0  0  0  # atno 8009 bound_to 7997
  156.2998  140.2401  156.3877 H   0  0  0  0  0  0  0  0  0  0  0  0  # atno 8010 bound_to 7997
  140.4626  144.0883  150.6216 H   0  0  0  0  0  0  0  0  0  0  0  0  # atno 10167 bound_to 10162
  156.3374  130.7619  151.1749 H   0  0  0  0  0  0  0  0  0  0  0  0  # atno 10718 bound_to 10713
  153.0372  135.5154  154.7523 H   0  0  0  0  0  0  0  0  0  0  0  0  # atno 10763 bound_to 10752
  154.6490  135.2922  155.0013 H   0  0  0  0  0  0  0  0  0  0  0  0  # atno 10764 bound_to 10752
  154.0904  135.6651  153.4904 H   0  0  0  0  0  0  0  0  0  0  0  0  # atno 10765 bound_to 10752
  139.9503  134.9623  156.8841 H   0  0  0  0  0  0  0  0  0  0  0  0  # atno 11005 bound_to 11000
  146.3484  139.9691  142.8708 LP  0  0  0  0  0  0  0  0  0  0  0  0  # atno 17320 bound_to 7965
  145.1910  140.9811  143.4211 LP  0  0  0  0  0  0  0  0  0  0  0  0  # atno 17321 bound_to 7965
  140.4075  143.2673  151.9873 LP  0  0  0  0  0  0  0  0  0  0  0  0  # atno 17342 bound_to 10162
  139.4808  144.5944  151.7715 LP  0  0  0  0  0  0  0  0  0  0  0  0  # atno 17343 bound_to 10162
  157.7441  131.0464  150.4892 LP  0  0  0  0  0  0  0  0  0  0  0  0  # atno 17370 bound_to 10713
  156.5067  130.4130  149.6323 LP  0  0  0  0  0  0  0  0  0  0  0  0  # atno 17371 bound_to 10713
  140.5736  134.0420  155.7439 LP  0  0  0  0  0  0  0  0  0  0  0  0  # atno 17394 bound_to 11000
  141.1164  133.9534  157.2815 LP  0  0  0  0  0  0  0  0  0  0  0  0  # atno 17395 bound_to 11000

$$$$
