AV-unprocessed.smi:2438|AV-procd|sdf|9601|dock7
  -GOLD-   2272013233D 1   1.00000     0.00000
 Structure written by MMmdl.
 44 45  0  0  0  0  0  0  0  0  2 V2000
  147.5616  135.3959  159.2040 C   0  0  0  0  0  0  0  0  0  0  0  0
  147.4841  136.7054  158.5679 N   0  0  0  0  0  0  0  0  0  0  0  0
  146.3460  137.5345  158.9403 C   0  0  0  0  0  0  0  0  0  0  0  0
  147.7913  136.7565  157.1935 C   0  0  0  0  0  0  0  0  0  0  0  0
  146.9701  136.1083  156.3354 N   0  0  0  0  0  0  0  0  0  0  0  0
  147.2175  136.1453  155.0225 C   0  0  0  0  0  0  0  0  0  0  0  0
  148.2600  136.8015  154.4977 N   0  3  0  0  0  0  0  0  0  0  0  0
  149.1147  137.4639  155.3132 C   0  0  0  0  0  0  0  0  0  0  0  0
  148.9134  137.4756  156.7148 C   0  0  0  0  0  0  0  0  0  0  0  0
  149.7893  138.1171  157.6389 N   0  0  0  0  0  0  0  0  0  0  0  0
  150.6124  139.1610  157.4438 C   0  0  0  0  0  0  0  0  0  0  0  0
  150.7461  139.7719  156.3843 O   0  0  0  0  0  0  0  0  0  0  0  0
  151.2746  139.4659  158.5687 N   0  0  0  0  0  0  0  0  0  0  0  0
  152.2571  140.5358  158.7223 C   0  0  2  0  0  0  0  0  0  0  0  0
  152.8654  140.4837  160.1352 C   0  0  0  0  0  0  0  0  0  0  0  0
  153.8439  141.6452  160.3632 C   0  0  0  0  0  0  0  0  0  0  0  0
  153.1710  143.0015  160.0995 C   0  0  0  0  0  0  0  0  0  0  0  0
  152.5682  143.0725  158.6803 C   0  0  2  0  0  0  0  0  0  0  0  0
  151.9068  144.4377  158.4002 C   0  0  0  0  0  0  0  0  0  0  0  0
  150.8681  144.6377  159.2120 F   0  0  0  0  0  0  0  0  0  0  0  0
  152.7904  145.4191  158.5816 F   0  0  0  0  0  0  0  0  0  0  0  0
  151.4829  144.4889  157.1374 F   0  0  0  0  0  0  0  0  0  0  0  0
  151.5890  141.8988  158.4606 C   0  0  0  0  0  0  0  0  0  0  0  0
  148.4758  134.8755  158.9149 H   0  0  0  0  0  0  0  0  0  0  0  0
  146.7068  134.7765  158.9293 H   0  0  0  0  0  0  0  0  0  0  0  0
  147.5680  135.5042  160.2888 H   0  0  0  0  0  0  0  0  0  0  0  0
  146.4391  138.5498  158.5546 H   0  0  0  0  0  0  0  0  0  0  0  0
  146.2623  137.5968  160.0257 H   0  0  0  0  0  0  0  0  0  0  0  0
  145.4207  137.1064  158.5528 H   0  0  0  0  0  0  0  0  0  0  0  0
  146.5683  135.6293  154.3304 H   0  0  0  0  0  0  0  0  0  0  0  0
  149.9326  137.9416  154.7972 H   0  0  0  0  0  0  0  0  0  0  0  0
  149.7551  137.7536  158.5806 H   0  0  0  0  0  0  0  0  0  0  0  0
  151.0906  138.9068  159.3890 H   0  0  0  0  0  0  0  0  0  0  0  0
  153.0665  140.4142  158.0000 H   0  0  0  0  0  0  0  0  0  0  0  0
  152.0719  140.5286  160.8829 H   0  0  0  0  0  0  0  0  0  0  0  0
  153.3799  139.5341  160.2873 H   0  0  0  0  0  0  0  0  0  0  0  0
  154.2266  141.6127  161.3837 H   0  0  0  0  0  0  0  0  0  0  0  0
  154.7068  141.5308  159.7060 H   0  0  0  0  0  0  0  0  0  0  0  0
  152.3900  143.1689  160.8424 H   0  0  0  0  0  0  0  0  0  0  0  0
  153.9018  143.7988  160.2376 H   0  0  0  0  0  0  0  0  0  0  0  0
  153.3867  142.9570  157.9677 H   0  0  0  0  0  0  0  0  0  0  0  0
  151.2047  141.9234  157.4402 H   0  0  0  0  0  0  0  0  0  0  0  0
  150.7256  142.0166  159.1170 H   0  0  0  0  0  0  0  0  0  0  0  0
  148.4222  136.8024  153.4903 H   0  0  0  0  0  0  0  0  0  0  0  0
  1  2  1  0  0  0  0
  1 24  1  0  0  0  0
  1 25  1  0  0  0  0
  1 26  1  0  0  0  0
  2  3  1  0  0  0  0
  2  4  1  0  0  0  0
  3 27  1  0  0  0  0
  3 28  1  0  0  0  0
  3 29  1  0  0  0  0
  4  9  1  0  0  0  0
  4  5  2  0  0  0  0
  5  6  1  0  0  0  0
  6  7  2  0  0  0  0
  6 30  1  0  0  0  0
  7  8  1  0  0  0  0
  7 44  1  0  0  0  0
  8  9  2  0  0  0  0
  8 31  1  0  0  0  0
  9 10  1  0  0  0  0
 10 11  1  0  0  0  0
 10 32  1  0  0  0  0
 11 12  2  0  0  0  0
 11 13  1  0  0  0  0
 13 14  1  0  0  0  0
 13 33  1  0  0  0  0
 14 23  1  0  0  0  0
 14 15  1  0  0  0  0
 14 34  1  0  0  0  0
 15 16  1  0  0  0  0
 15 35  1  0  0  0  0
 15 36  1  0  0  0  0
 16 17  1  0  0  0  0
 16 37  1  0  0  0  0
 16 38  1  0  0  0  0
 17 18  1  0  0  0  0
 17 39  1  0  0  0  0
 17 40  1  0  0  0  0
 18 19  1  0  0  0  0
 18 23  1  0  0  0  0
 18 41  1  0  0  0  0
 19 20  1  0  0  0  0
 19 21  1  0  0  0  0
 19 22  1  0  0  0  0
 23 42  1  0  0  0  0
 23 43  1  0  0  0  0
M  CHG  1   7   1
M  END
> <s_m_source_file>
AV-unprocessed.smi

> <i_m_source_file_index>
2438

> <i_lp_mmshare_version>
43012

> <i_f3d_flags>
0

> <s_epik_input>
W0NIM11OKFtDSDNdKWMxbltjSF1uW2NIXWMxW05IXUMoPU8pW05IXVtDQEBIXTJbQ0gyXVtDSDJdW0NIMl1bQ0BASF0oQyhGKShGKUYpW0NIMl0y

> <s_epik_cmdline>
J2VwaWtfcHl0aG9uJywgJy1waCcsICc3LjAnLCAnLXRuJywgJzgnLCAnLW1hJywgJzIwMCcsICctbWV0YWxfYmluZGluZycsICctaW1hZScsICc8aW5maWxlLm1hZT4nLCAnLW9tYWUnLCAnPG91dGZpbGUubWFlPic=

> <r_lp_tautomer_probability>
0.999336

> <r_epik_Ionization_Penalty>
2.11643

> <r_epik_Ionization_Penalty_Charging>
2.11639

> <r_epik_Ionization_Penalty_Neutral>
4.47523e-05

> <r_epik_State_Penalty>
2.25369

> <r_epik_Charging_Adjusted_Penalty>
4.37008

> <i_epik_Tot_Q>
1

> <i_epik_Tot_abs_Q>
1

> <r_epik_Metal_State_Penalty>
2.27019

> <b_epik_Metal_Only>
0

> <s_lp_Force_Field>
OPLS_2005

> <r_lp_Energy>
18.5992

> <b_lp_Chiralities_Consistent>
1

> <s_lp_Variant>
AV-unprocessed.smi:2438-7

> <Gold.Version>
5.8.1

> <Gold.Id.Protein>
6NUR|6NUR_protein|mol2

> <Gold.PLP.Fitness>
38.8654

> <Gold.PLP.PLP>
-33.2090

> <Gold.PLP.part.hbond>
-1.0000

> <Gold.PLP.part.metal>
0.0000

> <Gold.PLP.part.buried>
-3.3287

> <Gold.PLP.part.nonpolar>
-28.9276

> <Gold.PLP.part.repulsive>
0.1704

> <Gold.PLP.ligand.clash>
0.0000

> <Gold.PLP.ligand.torsion>
0.3532

> <Gold.PLP.Chemscore.Hbond>
2.0000

> <Gold.PLP.Chemscore.CHOScore>
0.0000

> <Gold.PLP.Chemscore.Metal>
0.0000

> <Gold.Chemscore.Hbonds>
donor molecule, donor type, donor heavy atom, donor atom, acceptor molecule, acceptor atom, score
      L1  H     7    44       P1  7948  2.00

> <Gold.PLP.Chemscore.Internal.Correction>
0.3629

> <Gold.Rescore>
     Score         DG    S(hbond)    S(metal)    S(lipo)     H(rot)  DE(clash)    DE(int)     intcor
     12.98     -14.61       1.00        0.00      78.14       1.31       0.43       1.21       ----

> <Gold.Chemscore.Fitness>
12.9805

> <Gold.Chemscore.DG>
-14.6142

> <Gold.Chemscore.ZeroCoef>
-5.4800

> <Gold.Chemscore.Hbond>
0.9999

> <Gold.Chemscore.Metal>
0.0000

> <Gold.Chemscore.Lipo>
78.1432

> <Gold.Chemscore.Internal_Hbond>
0.0000

> <Gold.Chemscore.DEClash>
0.4278

> <Gold.Chemscore.DEInternal>
1.2059

> <Gold.Chemscore.Rot>
1.3078

> <Gold.Chemscore.Internal.Correction>
   9.000000E+99

> <Gold.Chemscore.Hbonds>
donor molecule, donor type, donor heavy atom, donor atom, acceptor molecule, acceptor atom, score
      L1  H     7    44       P1  7948  0.99

> <Gold.Chemscore.Hbond.Weighted>
-3.3395

> <Gold.Chemscore.Metal.Weighted>
-0.0000

> <Gold.Chemscore.Lipo.Weighted>
-9.1428

> <Gold.Chemscore.Internal_Hbond.Weighted>
0.0000

> <Gold.Chemscore.DEClash.Weighted>
0.4278

> <Gold.Chemscore.DEInternal.Weighted>
1.2059

> <Gold.Chemscore.Rot.Weighted>
3.3481

> <Gold.Chemscore.Internal.Correction.Weighted>
   9.000000E+99

> <Gold.Protein.RotatedTorsions>
[ 6907 6896 6895 6894 ] final   84.82 input  -60.11 | X-H torsion
[ 7974 7965 7964 7962 ] final -132.41 input  175.53 | X-H torsion
[ 8008 7997 7996 7995 ] final -126.26 input   59.86 | X-H torsion
[ 10167 10162 10161 10158 ] final   -1.09 input  -65.29 | X-H torsion
[ 10718 10713 10712 10709 ] final  -97.08 input   66.30 | X-H torsion
[ 10763 10752 10751 10750 ] final -106.86 input  -60.55 | X-H torsion
[ 11005 11000 10999 10996 ] final  -43.06 input  -57.11 | X-H torsion

> <Gold.Protein.ActiveResidues>
 VAL166  LYS551  ARG553  GLY616  TRP617  ASP618  TYR619  PRO620  LYS621  CYS622 
 ASP623  PHE694  ASN695  SER759  ASP760  ASP761  ALA762  ILE779  LEU786  VAL792 
 PHE793  MET794  SER795  GLU796  ALA797  LYS798  CYS799  TRP800  GLU811  SER814 

> <Gold.Protein.RotatedAtoms>
  152.5361  134.2681  159.8960 H   0  0  0  0  0  0  0  0  0  0  0  0  # atno 6907 bound_to 6896
  151.2639  133.4282  159.2625 H   0  0  0  0  0  0  0  0  0  0  0  0  # atno 6908 bound_to 6896
  151.0428  134.9634  159.8227 H   0  0  0  0  0  0  0  0  0  0  0  0  # atno 6909 bound_to 6896
  144.9288  140.7103  143.4919 H   0  0  0  0  0  0  0  0  0  0  0  0  # atno 7974 bound_to 7965
  155.2268  140.0424  157.2956 H   0  0  0  0  0  0  0  0  0  0  0  0  # atno 8008 bound_to 7997
  154.5914  140.2428  155.7886 H   0  0  0  0  0  0  0  0  0  0  0  0  # atno 8009 bound_to 7997
  156.2262  140.2954  156.0080 H   0  0  0  0  0  0  0  0  0  0  0  0  # atno 8010 bound_to 7997
  140.6795  143.6817  150.8100 H   0  0  0  0  0  0  0  0  0  0  0  0  # atno 10167 bound_to 10162
  156.0076  130.5179  150.6322 H   0  0  0  0  0  0  0  0  0  0  0  0  # atno 10718 bound_to 10713
  154.8039  135.4696  154.0343 H   0  0  0  0  0  0  0  0  0  0  0  0  # atno 10763 bound_to 10752
  153.1827  135.6843  153.8463 H   0  0  0  0  0  0  0  0  0  0  0  0  # atno 10764 bound_to 10752
  153.8008  135.3230  155.3367 H   0  0  0  0  0  0  0  0  0  0  0  0  # atno 10765 bound_to 10752
  141.0358  133.6800  156.2681 H   0  0  0  0  0  0  0  0  0  0  0  0  # atno 11005 bound_to 11000
  145.3176  139.1798  143.4605 LP  0  0  0  0  0  0  0  0  0  0  0  0  # atno 17320 bound_to 7965
  146.3238  140.3189  142.8632 LP  0  0  0  0  0  0  0  0  0  0  0  0  # atno 17321 bound_to 7965
  140.0515  143.5245  152.2671 LP  0  0  0  0  0  0  0  0  0  0  0  0  # atno 17342 bound_to 10162
  139.6109  144.7608  151.2955 LP  0  0  0  0  0  0  0  0  0  0  0  0  # atno 17343 bound_to 10162
  157.4118  131.0824  151.1214 LP  0  0  0  0  0  0  0  0  0  0  0  0  # atno 17370 bound_to 10713
  157.1843  130.6323  149.5682 LP  0  0  0  0  0  0  0  0  0  0  0  0  # atno 17371 bound_to 10713
  140.6324  134.5250  157.5561 LP  0  0  0  0  0  0  0  0  0  0  0  0  # atno 17394 bound_to 11000
  139.9240  134.8093  156.1125 LP  0  0  0  0  0  0  0  0  0  0  0  0  # atno 17395 bound_to 11000

$$$$
