AV-unprocessed.smi:932|AV-procd|sdf|4199|dock1
  -GOLD-   22720 2103D 1   1.00000     0.00000
 Structure written by MMmdl.
 44 45  0  0  0  0  0  0  0  0  2 V2000
  151.4639  139.8091  156.5745 O   0  0  0  0  0  0  0  0  0  0  0  0
  150.3941  140.1729  157.0595 C   0  0  0  0  0  0  0  0  0  0  0  0
  149.2068  139.6522  156.7045 N   0  0  0  0  0  0  0  0  0  0  0  0
  149.0048  138.6151  155.6973 C   0  0  0  0  0  0  0  0  0  0  0  0
  149.1419  139.1643  154.2646 C   0  0  0  0  0  0  0  0  0  0  0  0
  148.1355  140.1803  153.9426 N   0  0  0  0  0  0  0  0  0  0  0  0
  148.2593  141.5412  154.0605 C   0  0  0  0  0  0  0  0  0  0  0  0
  147.0732  142.0795  153.6326 C   0  0  0  0  0  0  0  0  0  0  0  0
  146.2744  141.0255  153.2777 N   0  3  0  0  0  0  0  0  0  0  0  0
  146.9209  139.8712  153.4705 C   0  0  0  0  0  0  0  0  0  0  0  0
  150.3324  141.1360  157.9968 N   0  0  0  0  0  0  0  0  0  0  0  0
  151.4272  141.9023  158.6004 C   0  0  0  0  0  0  0  0  0  0  0  0
  151.4044  141.6254  160.1224 C   0  0  0  0  0  0  0  0  0  0  0  0
  152.6271  142.1449  160.9058 C   0  0  0  0  0  0  0  0  0  0  0  0
  152.4024  143.4425  161.7061 C   0  0  0  0  0  0  0  0  0  0  0  0
  151.6137  144.5648  161.0078 C   0  0  0  0  0  0  0  0  0  0  0  0
  152.2746  145.2014  159.7722 C   0  0  0  0  0  0  0  0  0  0  0  0
  152.4860  144.2899  158.5479 C   0  0  0  0  0  0  0  0  0  0  0  0
  151.2914  143.3874  158.1777 C   0  0  0  0  0  0  0  0  0  0  0  0
  148.3811  140.0045  157.1668 H   0  0  0  0  0  0  0  0  0  0  0  0
  149.6813  137.7739  155.8585 H   0  0  0  0  0  0  0  0  0  0  0  0
  147.9974  138.2212  155.8337 H   0  0  0  0  0  0  0  0  0  0  0  0
  150.1237  139.6193  154.1282 H   0  0  0  0  0  0  0  0  0  0  0  0
  149.0616  138.3595  153.5326 H   0  0  0  0  0  0  0  0  0  0  0  0
  149.1612  142.0128  154.4229 H   0  0  0  0  0  0  0  0  0  0  0  0
  146.7468  143.1064  153.5555 H   0  0  0  0  0  0  0  0  0  0  0  0
  146.5407  138.8847  153.2736 H   0  0  0  0  0  0  0  0  0  0  0  0
  149.4128  141.3419  158.3600 H   0  0  0  0  0  0  0  0  0  0  0  0
  152.3766  141.5187  158.2235 H   0  0  0  0  0  0  0  0  0  0  0  0
  150.4738  141.9732  160.5712 H   0  0  0  0  0  0  0  0  0  0  0  0
  151.3863  140.5419  160.2524 H   0  0  0  0  0  0  0  0  0  0  0  0
  152.9209  141.3781  161.6237 H   0  0  0  0  0  0  0  0  0  0  0  0
  153.4923  142.2369  160.2518 H   0  0  0  0  0  0  0  0  0  0  0  0
  151.8608  143.1832  162.6167 H   0  0  0  0  0  0  0  0  0  0  0  0
  153.3667  143.8269  162.0401 H   0  0  0  0  0  0  0  0  0  0  0  0
  150.6059  144.2292  160.7684 H   0  0  0  0  0  0  0  0  0  0  0  0
  151.4659  145.3594  161.7400 H   0  0  0  0  0  0  0  0  0  0  0  0
  151.6471  146.0379  159.4622 H   0  0  0  0  0  0  0  0  0  0  0  0
  153.2302  145.6432  160.0572 H   0  0  0  0  0  0  0  0  0  0  0  0
  152.6925  144.9439  157.6998 H   0  0  0  0  0  0  0  0  0  0  0  0
  153.3952  143.7011  158.6538 H   0  0  0  0  0  0  0  0  0  0  0  0
  151.2055  143.4150  157.0906 H   0  0  0  0  0  0  0  0  0  0  0  0
  150.3539  143.8116  158.5379 H   0  0  0  0  0  0  0  0  0  0  0  0
  145.3315  141.1054  152.9180 H   0  0  0  0  0  0  0  0  0  0  0  0
  1  2  2  0  0  0  0
  2  3  1  0  0  0  0
  2 11  1  0  0  0  0
  3  4  1  0  0  0  0
  3 20  1  0  0  0  0
  4  5  1  0  0  0  0
  4 21  1  0  0  0  0
  4 22  1  0  0  0  0
  5  6  1  0  0  0  0
  5 23  1  0  0  0  0
  5 24  1  0  0  0  0
  6 10  1  0  0  0  0
  6  7  1  0  0  0  0
  7  8  2  0  0  0  0
  7 25  1  0  0  0  0
  8  9  1  0  0  0  0
  8 26  1  0  0  0  0
  9 10  2  0  0  0  0
  9 44  1  0  0  0  0
 10 27  1  0  0  0  0
 11 12  1  0  0  0  0
 11 28  1  0  0  0  0
 12 19  1  0  0  0  0
 12 13  1  0  0  0  0
 12 29  1  0  0  0  0
 13 14  1  0  0  0  0
 13 30  1  0  0  0  0
 13 31  1  0  0  0  0
 14 15  1  0  0  0  0
 14 32  1  0  0  0  0
 14 33  1  0  0  0  0
 15 16  1  0  0  0  0
 15 34  1  0  0  0  0
 15 35  1  0  0  0  0
 16 17  1  0  0  0  0
 16 36  1  0  0  0  0
 16 37  1  0  0  0  0
 17 18  1  0  0  0  0
 17 38  1  0  0  0  0
 17 39  1  0  0  0  0
 18 19  1  0  0  0  0
 18 40  1  0  0  0  0
 18 41  1  0  0  0  0
 19 42  1  0  0  0  0
 19 43  1  0  0  0  0
M  CHG  1   9   1
M  END
> <s_m_source_file>
AV-unprocessed.smi

> <i_m_source_file_index>
932

> <i_lp_mmshare_version>
43012

> <i_f3d_flags>
0

> <s_epik_input>
W2NIXTFuW2NIXVtjSF1uMVtDSDJdW0NIMl1bTkhdQyg9TylbTkhdW0NIXTJbQ0gyXVtDSDJdW0NIMl1bQ0gyXVtDSDJdW0NIMl1bQ0gyXTI=

> <s_epik_cmdline>
J2VwaWtfcHl0aG9uJywgJy1waCcsICc3LjAnLCAnLXRuJywgJzgnLCAnLW1hJywgJzIwMCcsICctbWV0YWxfYmluZGluZycsICctaW1hZScsICc8aW5maWxlLm1hZT4nLCAnLW9tYWUnLCAnPG91dGZpbGUubWFlPic=

> <r_lp_tautomer_probability>
1

> <r_epik_Ionization_Penalty>
0.254654

> <r_epik_Ionization_Penalty_Charging>
0

> <r_epik_Ionization_Penalty_Neutral>
0.254654

> <r_epik_State_Penalty>
0.246077

> <r_epik_Charging_Adjusted_Penalty>
0.246077

> <i_epik_Tot_Q>
1

> <i_epik_Tot_abs_Q>
1

> <r_epik_Metal_State_Penalty>
0.536041

> <b_epik_Metal_Only>
0

> <s_lp_Force_Field>
OPLS_2005

> <r_lp_Energy>
30.2565

> <b_lp_Chiralities_Consistent>
1

> <s_lp_Variant>
AV-unprocessed.smi:932-1

> <Gold.Version>
5.8.1

> <Gold.Id.Protein>
6NUR|6NUR_protein|mol2

> <Gold.PLP.Fitness>
50.6864

> <Gold.PLP.PLP>
-41.3122

> <Gold.PLP.part.hbond>
-1.7655

> <Gold.PLP.part.metal>
0.0000

> <Gold.PLP.part.buried>
1.1347

> <Gold.PLP.part.nonpolar>
-39.7248

> <Gold.PLP.part.repulsive>
0.1176

> <Gold.PLP.ligand.clash>
0.0000

> <Gold.PLP.ligand.torsion>
0.4832

> <Gold.PLP.Chemscore.Hbond>
2.6500

> <Gold.PLP.Chemscore.CHOScore>
0.7855

> <Gold.PLP.Chemscore.Metal>
0.0000

> <Gold.Chemscore.Hbonds>
donor molecule, donor type, donor heavy atom, donor atom, acceptor molecule, acceptor atom, score
      L1  H     9    44       P1 10175  1.70

> <Gold.PLP.Chemscore.Internal.Correction>
0.0340

> <Gold.Rescore>
     Score         DG    S(hbond)    S(metal)    S(lipo)     H(rot)  DE(clash)    DE(int)     intcor
     18.15     -19.22       1.52        0.00     115.51       1.90       0.61       0.47       ----

> <Gold.Chemscore.Fitness>
18.1458

> <Gold.Chemscore.DG>
-19.2249

> <Gold.Chemscore.ZeroCoef>
-5.4800

> <Gold.Chemscore.Hbond>
1.5240

> <Gold.Chemscore.Metal>
0.0000

> <Gold.Chemscore.Lipo>
115.5062

> <Gold.Chemscore.Internal_Hbond>
0.0000

> <Gold.Chemscore.DEClash>
0.6054

> <Gold.Chemscore.DEInternal>
0.4737

> <Gold.Chemscore.Rot>
1.8982

> <Gold.Chemscore.Internal.Correction>
   9.000000E+99

> <Gold.Chemscore.Hbonds>
donor molecule, donor type, donor heavy atom, donor atom, acceptor molecule, acceptor atom, score
      L1  H     9    44       P1 10175  0.14

> <Gold.Chemscore.Hbond.Weighted>
-5.0901

> <Gold.Chemscore.Metal.Weighted>
-0.0000

> <Gold.Chemscore.Lipo.Weighted>
-13.5142

> <Gold.Chemscore.Internal_Hbond.Weighted>
0.0000

> <Gold.Chemscore.DEClash.Weighted>
0.6054

> <Gold.Chemscore.DEInternal.Weighted>
0.4737

> <Gold.Chemscore.Rot.Weighted>
4.8594

> <Gold.Chemscore.Internal.Correction.Weighted>
   9.000000E+99

> <Gold.Protein.RotatedTorsions>
[ 6907 6896 6895 6894 ] final   77.97 input  -60.11 | X-H torsion
[ 7974 7965 7964 7962 ] final   77.88 input  175.53 | X-H torsion
[ 8008 7997 7996 7995 ] final  -39.72 input   59.86 | X-H torsion
[ 10167 10162 10161 10158 ] final   68.31 input  -65.29 | X-H torsion
[ 10718 10713 10712 10709 ] final   15.48 input   66.30 | X-H torsion
[ 10763 10752 10751 10750 ] final  -94.73 input  -60.55 | X-H torsion
[ 11005 11000 10999 10996 ] final   14.68 input  -57.11 | X-H torsion

> <Gold.Protein.ActiveResidues>
 VAL166  LYS551  ARG553  GLY616  TRP617  ASP618  TYR619  PRO620  LYS621  CYS622 
 ASP623  PHE694  ASN695  SER759  ASP760  ASP761  ALA762  ILE779  LEU786  VAL792 
 PHE793  MET794  SER795  GLU796  ALA797  LYS798  CYS799  TRP800  GLU811  SER814 

> <Gold.Protein.RotatedAtoms>
  152.5140  134.3736  159.9326 H   0  0  0  0  0  0  0  0  0  0  0  0  # atno 6907 bound_to 6896
  151.3691  133.3855  159.2705 H   0  0  0  0  0  0  0  0  0  0  0  0  # atno 6908 bound_to 6896
  150.9592  134.9002  159.7778 H   0  0  0  0  0  0  0  0  0  0  0  0  # atno 6909 bound_to 6896
  145.6844  139.2533  143.1796 H   0  0  0  0  0  0  0  0  0  0  0  0  # atno 7974 bound_to 7965
  154.4020  140.1544  156.2910 H   0  0  0  0  0  0  0  0  0  0  0  0  # atno 8008 bound_to 7997
  155.8785  140.3445  155.5849 H   0  0  0  0  0  0  0  0  0  0  0  0  # atno 8009 bound_to 7997
  155.7694  140.0828  157.2106 H   0  0  0  0  0  0  0  0  0  0  0  0  # atno 8010 bound_to 7997
  140.0801  144.5079  150.7168 H   0  0  0  0  0  0  0  0  0  0  0  0  # atno 10167 bound_to 10162
  157.0541  130.6282  149.5773 H   0  0  0  0  0  0  0  0  0  0  0  0  # atno 10718 bound_to 10713
  154.7082  135.5147  153.8627 H   0  0  0  0  0  0  0  0  0  0  0  0  # atno 10763 bound_to 10752
  153.0759  135.6616  154.0156 H   0  0  0  0  0  0  0  0  0  0  0  0  # atno 10764 bound_to 10752
  154.0003  135.3011  155.3383 H   0  0  0  0  0  0  0  0  0  0  0  0  # atno 10765 bound_to 10752
  140.4668  134.1071  155.7725 H   0  0  0  0  0  0  0  0  0  0  0  0  # atno 11005 bound_to 11000
  146.0936  140.7626  142.9583 LP  0  0  0  0  0  0  0  0  0  0  0  0  # atno 17320 bound_to 7965
  144.7016  140.3677  143.7151 LP  0  0  0  0  0  0  0  0  0  0  0  0  # atno 17321 bound_to 7965
  140.7082  143.2484  151.4661 LP  0  0  0  0  0  0  0  0  0  0  0  0  # atno 17342 bound_to 10162
  139.5785  144.1764  152.1936 LP  0  0  0  0  0  0  0  0  0  0  0  0  # atno 17343 bound_to 10162
  155.9998  130.5075  150.7621 LP  0  0  0  0  0  0  0  0  0  0  0  0  # atno 17370 bound_to 10713
  157.5007  131.0918  151.0318 LP  0  0  0  0  0  0  0  0  0  0  0  0  # atno 17371 bound_to 10713
  141.1595  133.8819  157.1885 LP  0  0  0  0  0  0  0  0  0  0  0  0  # atno 17394 bound_to 11000
  139.9910  135.0064  156.9975 LP  0  0  0  0  0  0  0  0  0  0  0  0  # atno 17395 bound_to 11000

$$$$
