AV-unprocessed.smi:283|AV-procd|sdf|2145|dock4
  -GOLD-   2262021473D 1   1.00000     0.00000
 Structure written by MMmdl.
 48 51  0  0  0  0  0  0  0  0  1 V2000
  148.4879  132.0480  159.0993 C   0  0  0  0  0  0  0  0  0  0  0  0
  147.9224  133.4632  158.9198 C   0  0  2  0  0  0  0  0  0  0  0  0
  148.8313  134.2629  158.1003 N   0  0  0  0  0  0  0  0  0  0  0  0
  148.7863  134.1971  156.7508 C   0  0  0  0  0  0  0  0  0  0  0  0
  149.9054  134.3720  156.0004 N   0  0  0  0  0  0  0  0  0  0  0  0
  149.8342  134.3015  154.6681 C   0  0  0  0  0  0  0  0  0  0  0  0
  148.7655  134.0746  153.9011 N   0  0  0  0  0  0  0  0  0  0  0  0
  147.6375  133.9015  154.6503 C   0  0  0  0  0  0  0  0  0  0  0  0
  147.5665  133.9509  156.0703 C   0  0  0  0  0  0  0  0  0  0  0  0
  146.2590  133.7342  156.4852 N   0  0  0  0  0  0  0  0  0  0  0  0
  145.5980  133.5683  155.3711 C   0  0  0  0  0  0  0  0  0  0  0  0
  146.3485  133.6556  154.2199 N   0  0  0  0  0  0  0  0  0  0  0  0
  145.8693  133.5113  152.8092 C   0  0  2  0  0  0  0  0  0  0  0  0
  146.9067  133.0357  152.0208 O   0  0  0  0  0  0  0  0  0  0  0  0
  146.6134  133.3310  150.6617 C   0  0  1  0  0  0  0  0  0  0  0  0
  145.9343  132.0856  150.0505 C   0  0  0  0  0  0  0  0  0  0  0  0
  146.7502  131.5006  149.0573 O   0  0  0  0  0  0  0  0  0  0  0  0
  145.7845  134.6407  150.7046 C   0  0  1  0  0  0  0  0  0  0  0  0
  144.6134  134.5817  149.9115 O   0  0  0  0  0  0  0  0  0  0  0  0
  145.4096  134.8320  152.1757 C   0  0  2  0  0  0  0  0  0  0  0  0
  146.0463  135.9747  152.7180 O   0  0  0  0  0  0  0  0  0  0  0  0
  147.5892  134.0829  160.2789 C   0  0  0  0  0  0  0  0  0  0  0  0
  146.8704  133.3298  161.2363 C   0  0  0  0  0  0  0  0  0  0  0  0
  146.5529  133.8804  162.4919 C   0  0  0  0  0  0  0  0  0  0  0  0
  146.9450  135.1949  162.8019 C   0  0  0  0  0  0  0  0  0  0  0  0
  147.6508  135.9574  161.8532 C   0  0  0  0  0  0  0  0  0  0  0  0
  147.9725  135.4107  160.5945 C   0  0  0  0  0  0  0  0  0  0  0  0
  148.8318  136.3978  159.4646 Cl  0  0  0  0  0  0  0  0  0  0  0  0
  145.0730  132.7665  152.8534 H   0  0  0  0  0  0  0  0  0  0  0  0
  147.5632  133.5015  150.1529 H   0  0  0  0  0  0  0  0  0  0  0  0
  146.3903  135.4760  150.3495 H   0  0  0  0  0  0  0  0  0  0  0  0
  144.3348  134.9373  152.3318 H   0  0  0  0  0  0  0  0  0  0  0  0
  147.7841  131.4111  159.6356 H   0  0  0  0  0  0  0  0  0  0  0  0
  149.4213  132.0610  159.6632 H   0  0  0  0  0  0  0  0  0  0  0  0
  148.6863  131.5782  158.1355 H   0  0  0  0  0  0  0  0  0  0  0  0
  147.0039  133.3696  158.3414 H   0  0  0  0  0  0  0  0  0  0  0  0
  149.3455  134.9792  158.5925 H   0  0  0  0  0  0  0  0  0  0  0  0
  150.7656  134.4492  154.1417 H   0  0  0  0  0  0  0  0  0  0  0  0
  144.5347  133.3780  155.3582 H   0  0  0  0  0  0  0  0  0  0  0  0
  145.7829  131.3347  150.8266 H   0  0  0  0  0  0  0  0  0  0  0  0
  144.9505  132.3183  149.6419 H   0  0  0  0  0  0  0  0  0  0  0  0
  147.6522  131.5719  149.3283 H   0  0  0  0  0  0  0  0  0  0  0  0
  144.8664  134.6123  149.0017 H   0  0  0  0  0  0  0  0  0  0  0  0
  146.9375  135.9968  152.4046 H   0  0  0  0  0  0  0  0  0  0  0  0
  146.5582  132.3202  161.0130 H   0  0  0  0  0  0  0  0  0  0  0  0
  146.0075  133.2934  163.2162 H   0  0  0  0  0  0  0  0  0  0  0  0
  146.7021  135.6195  163.7649 H   0  0  0  0  0  0  0  0  0  0  0  0
  147.9455  136.9684  162.0929 H   0  0  0  0  0  0  0  0  0  0  0  0
  1  2  1  0  0  0  0
  1 33  1  0  0  0  0
  1 34  1  0  0  0  0
  1 35  1  0  0  0  0
  2  3  1  0  0  0  0
  2 22  1  0  0  0  0
  2 36  1  0  0  0  0
  3  4  1  0  0  0  0
  3 37  1  0  0  0  0
  4  9  1  0  0  0  0
  4  5  2  0  0  0  0
  5  6  1  0  0  0  0
  6  7  2  0  0  0  0
  6 38  1  0  0  0  0
  7  8  1  0  0  0  0
  8 12  1  0  0  0  0
  8  9  2  0  0  0  0
  9 10  1  0  0  0  0
 10 11  2  0  0  0  0
 11 12  1  0  0  0  0
 11 39  1  0  0  0  0
 12 13  1  0  0  0  0
 13 29  1  0  0  0  0
 13 20  1  0  0  0  0
 13 14  1  0  0  0  0
 14 15  1  0  0  0  0
 15 30  1  0  0  0  0
 15 16  1  0  0  0  0
 15 18  1  0  0  0  0
 16 17  1  0  0  0  0
 16 40  1  0  0  0  0
 16 41  1  0  0  0  0
 17 42  1  0  0  0  0
 18 31  1  0  0  0  0
 18 19  1  0  0  0  0
 18 20  1  0  0  0  0
 19 43  1  0  0  0  0
 20 32  1  0  0  0  0
 20 21  1  0  0  0  0
 21 44  1  0  0  0  0
 22 27  1  0  0  0  0
 22 23  2  0  0  0  0
 23 24  1  0  0  0  0
 23 45  1  0  0  0  0
 24 25  2  0  0  0  0
 24 46  1  0  0  0  0
 25 26  1  0  0  0  0
 25 47  1  0  0  0  0
 26 27  2  0  0  0  0
 26 48  1  0  0  0  0
 27 28  1  0  0  0  0
M  END
> <s_m_source_file>
AV-unprocessed.smi

> <i_m_source_file_index>
283

> <i_lp_mmshare_version>
43012

> <i_f3d_flags>
0

> <s_epik_input>
Q2xjMVtjSF1bY0hdW2NIXVtjSF1jMVtDQEhdKFtDSDNdKVtOSF1jKG5bY0hdbjIpYyhjMjMpbltjSF1uM1tDQEBIXTRPW0NASF0oW0NIMl1bT0hdKVtDQEBIXShbT0hdKVtDQEhdNFtPSF0=

> <s_epik_cmdline>
J2VwaWtfcHl0aG9uJywgJy1waCcsICc3LjAnLCAnLXRuJywgJzgnLCAnLW1hJywgJzIwMCcsICctbWV0YWxfYmluZGluZycsICctaW1hZScsICc8aW5maWxlLm1hZT4nLCAnLW9tYWUnLCAnPG91dGZpbGUubWFlPic=

> <r_lp_tautomer_probability>
1

> <r_epik_Ionization_Penalty>
0.000266407

> <r_epik_Ionization_Penalty_Charging>
0

> <r_epik_Ionization_Penalty_Neutral>
0.000266407

> <r_epik_State_Penalty>
-0

> <r_epik_Charging_Adjusted_Penalty>
0

> <i_epik_Tot_Q>
0

> <i_epik_Tot_abs_Q>
0

> <r_epik_Metal_State_Penalty>
-0

> <b_epik_Metal_Only>
0

> <s_epik_Chemistry_Notes>
This compound contains an acetal/aminal-like group ( X-CH(R)-Y where X, Y are N, S, or O) that may be acid/base labile, releasing an aldehyde.

> <s_lp_Force_Field>
OPLS_2005

> <r_lp_Energy>
49.3255

> <b_lp_Chiralities_Consistent>
1

> <s_lp_Variant>
AV-unprocessed.smi:283-21

> <Gold.Version>
5.8.1

> <Gold.Id.Protein>
6NUR|6NUR_protein|mol2

> <Gold.PLP.Fitness>
47.3307

> <Gold.PLP.PLP>
-39.9172

> <Gold.PLP.part.hbond>
-3.0000

> <Gold.PLP.part.metal>
0.0000

> <Gold.PLP.part.buried>
-7.2336

> <Gold.PLP.part.nonpolar>
-31.1148

> <Gold.PLP.part.repulsive>
1.3390

> <Gold.PLP.ligand.clash>
0.0000

> <Gold.PLP.ligand.torsion>
2.2650

> <Gold.PLP.Chemscore.Hbond>
3.0000

> <Gold.PLP.Chemscore.CHOScore>
0.9650

> <Gold.PLP.Chemscore.Metal>
0.0000

> <Gold.Chemscore.Hbonds>
donor molecule, donor type, donor heavy atom, donor atom, acceptor molecule, acceptor atom, score
      L1  H    17    42       P1 10747  0.94
      L1  H    19    43       P1  7921  1.00
      L1  H    21    44       P1  7948  0.86
      L1  C    11    39       P1 10957  1.00

> <Gold.PLP.Chemscore.Internal.Correction>
0.0485

> <Gold.Rescore>
     Score         DG    S(hbond)    S(metal)    S(lipo)     H(rot)  DE(clash)    DE(int)     intcor
      8.63     -15.06       2.99        0.00      86.16       4.10       0.03       6.41       ----

> <Gold.Chemscore.Fitness>
8.6251

> <Gold.Chemscore.DG>
-15.0648

> <Gold.Chemscore.ZeroCoef>
-5.4800

> <Gold.Chemscore.Hbond>
2.9916

> <Gold.Chemscore.Metal>
0.0000

> <Gold.Chemscore.Lipo>
86.1608

> <Gold.Chemscore.Internal_Hbond>
0.0000

> <Gold.Chemscore.DEClash>
0.0308

> <Gold.Chemscore.DEInternal>
6.4090

> <Gold.Chemscore.Rot>
4.0968

> <Gold.Chemscore.Internal.Correction>
   9.000000E+99

> <Gold.Chemscore.Hbonds>
donor molecule, donor type, donor heavy atom, donor atom, acceptor molecule, acceptor atom, score
      L1  H    17    42       P1 10747  0.91
      L1  H    19    43       P1  7921  0.97
      L1  H    21    44       P1  7948  0.84

> <Gold.Chemscore.Hbond.Weighted>
-9.9920

> <Gold.Chemscore.Metal.Weighted>
-0.0000

> <Gold.Chemscore.Lipo.Weighted>
-10.0808

> <Gold.Chemscore.Internal_Hbond.Weighted>
0.0000

> <Gold.Chemscore.DEClash.Weighted>
0.0308

> <Gold.Chemscore.DEInternal.Weighted>
6.4090

> <Gold.Chemscore.Rot.Weighted>
10.4879

> <Gold.Chemscore.Internal.Correction.Weighted>
   9.000000E+99

> <Gold.Protein.RotatedTorsions>
[ 6907 6896 6895 6894 ] final -161.61 input  -60.11 | X-H torsion
[ 7974 7965 7964 7962 ] final  -94.88 input  175.53 | X-H torsion
[ 8008 7997 7996 7995 ] final  161.33 input   59.86 | X-H torsion
[ 10167 10162 10161 10158 ] final   53.25 input  -65.29 | X-H torsion
[ 10718 10713 10712 10709 ] final  104.22 input   66.30 | X-H torsion
[ 10763 10752 10751 10750 ] final   79.29 input  -60.55 | X-H torsion
[ 11005 11000 10999 10996 ] final   -6.34 input  -57.11 | X-H torsion

> <Gold.Protein.ActiveResidues>
 VAL166  LYS551  ARG553  GLY616  TRP617  ASP618  TYR619  PRO620  LYS621  CYS622 
 ASP623  PHE694  ASN695  SER759  ASP760  ASP761  ALA762  ILE779  LEU786  VAL792 
 PHE793  MET794  SER795  GLU796  ALA797  LYS798  CYS799  TRP800  GLU811  SER814 

> <Gold.Protein.RotatedAtoms>
  151.3674  133.3867  159.2695 H   0  0  0  0  0  0  0  0  0  0  0  0  # atno 6907 bound_to 6896
  150.9678  134.9057  159.7780 H   0  0  0  0  0  0  0  0  0  0  0  0  # atno 6908 bound_to 6896
  152.5173  134.3635  159.9345 H   0  0  0  0  0  0  0  0  0  0  0  0  # atno 6909 bound_to 6896
  145.3675  140.9500  143.2466 H   0  0  0  0  0  0  0  0  0  0  0  0  # atno 7974 bound_to 7965
  156.2111  140.1780  156.7694 H   0  0  0  0  0  0  0  0  0  0  0  0  # atno 8008 bound_to 7997
  154.5723  140.0680  156.9012 H   0  0  0  0  0  0  0  0  0  0  0  0  # atno 8009 bound_to 7997
  155.2650  140.3338  155.4272 H   0  0  0  0  0  0  0  0  0  0  0  0  # atno 8010 bound_to 7997
  140.2428  144.3565  150.6374 H   0  0  0  0  0  0  0  0  0  0  0  0  # atno 10167 bound_to 10162
  157.6747  131.0798  150.5673 H   0  0  0  0  0  0  0  0  0  0  0  0  # atno 10718 bound_to 10713
  153.0941  135.4845  154.8745 H   0  0  0  0  0  0  0  0  0  0  0  0  # atno 10763 bound_to 10752
  154.7303  135.3059  154.8904 H   0  0  0  0  0  0  0  0  0  0  0  0  # atno 10764 bound_to 10752
  153.9541  135.6820  153.4797 H   0  0  0  0  0  0  0  0  0  0  0  0  # atno 10765 bound_to 10752
  140.7009  133.8990  155.8683 H   0  0  0  0  0  0  0  0  0  0  0  0  # atno 11005 bound_to 11000
  144.8601  139.5190  143.6816 LP  0  0  0  0  0  0  0  0  0  0  0  0  # atno 17320 bound_to 7965
  146.2900  139.7112  142.9168 LP  0  0  0  0  0  0  0  0  0  0  0  0  # atno 17321 bound_to 7965
  140.6101  143.2169  151.6904 LP  0  0  0  0  0  0  0  0  0  0  0  0  # atno 17342 bound_to 10162
  139.5072  144.3656  152.0520 LP  0  0  0  0  0  0  0  0  0  0  0  0  # atno 17343 bound_to 10162
  156.5975  130.4345  149.5911 LP  0  0  0  0  0  0  0  0  0  0  0  0  # atno 17370 bound_to 10713
  156.2533  130.6920  151.1665 LP  0  0  0  0  0  0  0  0  0  0  0  0  # atno 17371 bound_to 10713
  141.0164  134.0949  157.4167 LP  0  0  0  0  0  0  0  0  0  0  0  0  # atno 17394 bound_to 11000
  139.8897  135.0107  156.6694 LP  0  0  0  0  0  0  0  0  0  0  0  0  # atno 17395 bound_to 11000

$$$$
