AV-unprocessed.smi:1429|AV-procd|sdf|5820|dock6
  -GOLD-   22720 5473D 1   1.00000     0.00000
 Structure written by MMmdl.
 29 30  0  0  0  0  0  0  0  0  2 V2000
  148.3418  141.8399  154.3238 C   0  0  0  0  0  0  0  0  0  0  0  0
  149.5340  141.0670  154.7738 C   0  0  0  0  0  0  0  0  0  0  0  0
  150.1051  140.1151  154.0345 N   0  0  0  0  0  0  0  0  0  0  0  0
  151.1957  139.5450  154.6727 N   0  0  0  0  0  0  0  0  0  0  0  0
  151.4436  140.0672  155.8886 C   0  0  0  0  0  0  0  0  0  0  0  0
  152.4395  139.7062  156.7290 N   0  5  0  0  0  0  0  0  0  0  0  0
  152.3351  139.6083  158.0791 C   0  0  0  0  0  0  0  0  0  0  0  0
  151.7587  138.7321  158.7268 O   0  0  0  0  0  0  0  0  0  0  0  0
  152.9486  140.6069  158.7283 N   0  0  0  0  0  0  0  0  0  0  0  0
  153.0013  140.7617  160.1769 C   0  0  0  0  0  0  0  0  0  0  0  0
  153.0901  142.2454  160.5696 C   0  0  2  0  0  0  0  0  0  0  0  0
  152.6292  142.5578  161.9799 C   0  0  0  0  0  0  0  0  0  0  0  0
  152.3715  144.0595  161.9014 C   0  0  0  0  0  0  0  0  0  0  0  0
  151.9727  144.3186  160.5579 O   0  0  0  0  0  0  0  0  0  0  0  0
  152.1758  143.1593  159.7550 C   0  0  0  0  0  0  0  0  0  0  0  0
  150.3017  141.3380  156.3270 S   0  0  0  0  0  0  0  0  0  0  0  0
  148.0201  141.5109  153.3351 H   0  0  0  0  0  0  0  0  0  0  0  0
  148.5822  142.9021  154.2776 H   0  0  0  0  0  0  0  0  0  0  0  0
  147.5192  141.6961  155.0245 H   0  0  0  0  0  0  0  0  0  0  0  0
  153.4134  141.3098  158.1728 H   0  0  0  0  0  0  0  0  0  0  0  0
  152.1081  140.3161  160.6171 H   0  0  0  0  0  0  0  0  0  0  0  0
  153.8595  140.2134  160.5689 H   0  0  0  0  0  0  0  0  0  0  0  0
  154.1190  142.5908  160.4527 H   0  0  0  0  0  0  0  0  0  0  0  0
  151.7006  142.0297  162.2023 H   0  0  0  0  0  0  0  0  0  0  0  0
  153.3629  142.2933  162.7417 H   0  0  0  0  0  0  0  0  0  0  0  0
  151.6144  144.3892  162.6133 H   0  0  0  0  0  0  0  0  0  0  0  0
  153.2890  144.6136  162.1027 H   0  0  0  0  0  0  0  0  0  0  0  0
  152.6002  143.4165  158.7841 H   0  0  0  0  0  0  0  0  0  0  0  0
  151.2077  142.6860  159.5853 H   0  0  0  0  0  0  0  0  0  0  0  0
  1  2  1  0  0  0  0
  1 17  1  0  0  0  0
  1 18  1  0  0  0  0
  1 19  1  0  0  0  0
  2 16  1  0  0  0  0
  2  3  2  0  0  0  0
  3  4  1  0  0  0  0
  4  5  2  0  0  0  0
  5  6  1  0  0  0  0
  5 16  1  0  0  0  0
  6  7  1  0  0  0  0
  7  8  2  0  0  0  0
  7  9  1  0  0  0  0
  9 10  1  0  0  0  0
  9 20  1  0  0  0  0
 10 11  1  0  0  0  0
 10 21  1  0  0  0  0
 10 22  1  0  0  0  0
 11 15  1  0  0  0  0
 11 12  1  0  0  0  0
 11 23  1  0  0  0  0
 12 13  1  0  0  0  0
 12 24  1  0  0  0  0
 12 25  1  0  0  0  0
 13 14  1  0  0  0  0
 13 26  1  0  0  0  0
 13 27  1  0  0  0  0
 14 15  1  0  0  0  0
 15 28  1  0  0  0  0
 15 29  1  0  0  0  0
M  CHG  1   6  -1
M  END
> <s_m_source_file>
AV-unprocessed.smi

> <i_m_source_file_index>
1429

> <i_lp_mmshare_version>
43012

> <i_f3d_flags>
0

> <s_epik_input>
W0NIM11jMW5uYyhzMSlbTkhdQyg9TylbTkhdW0NIMl1bQ0BASF0yW0NIMl1bQ0gyXU9bQ0gyXTI=

> <s_epik_cmdline>
J2VwaWtfcHl0aG9uJywgJy1waCcsICc3LjAnLCAnLXRuJywgJzgnLCAnLW1hJywgJzIwMCcsICctbWV0YWxfYmluZGluZycsICctaW1hZScsICc8aW5maWxlLm1hZT4nLCAnLW9tYWUnLCAnPG91dGZpbGUubWFlPic=

> <r_lp_tautomer_probability>
1

> <r_epik_Ionization_Penalty>
4.4122

> <r_epik_Ionization_Penalty_Charging>
4.26477

> <r_epik_Ionization_Penalty_Neutral>
0.147429

> <r_epik_State_Penalty>
4.26433

> <r_epik_Charging_Adjusted_Penalty>
8.5291

> <i_epik_Tot_Q>
-1

> <i_epik_Tot_abs_Q>
1

> <r_epik_Metal_State_Penalty>
0.713483

> <b_epik_Metal_Only>
1

> <s_lp_Force_Field>
OPLS_2005

> <r_lp_Energy>
20.5351

> <b_lp_Chiralities_Consistent>
1

> <s_lp_Variant>
AV-unprocessed.smi:1429-3

> <Gold.Version>
5.8.1

> <Gold.Id.Protein>
6NUR|6NUR_protein|mol2

> <Gold.PLP.Fitness>
40.0434

> <Gold.PLP.PLP>
-36.7548

> <Gold.PLP.part.hbond>
-3.0000

> <Gold.PLP.part.metal>
0.0000

> <Gold.PLP.part.buried>
-5.1769

> <Gold.PLP.part.nonpolar>
-28.3970

> <Gold.PLP.part.repulsive>
1.3791

> <Gold.PLP.ligand.clash>
0.0000

> <Gold.PLP.ligand.torsion>
1.3629

> <Gold.PLP.Chemscore.Hbond>
2.0000

> <Gold.PLP.Chemscore.CHOScore>
0.0000

> <Gold.PLP.Chemscore.Metal>
0.0000

> <Gold.Chemscore.Hbonds>
donor molecule, donor type, donor heavy atom, donor atom, acceptor molecule, acceptor atom, score
      P1  H  7997  8009       L1     6  2.00

> <Gold.PLP.Chemscore.Internal.Correction>
0.0143

> <Gold.Rescore>
     Score         DG    S(hbond)    S(metal)    S(lipo)     H(rot)  DE(clash)    DE(int)     intcor
     12.11     -13.77       0.70        0.00      79.24       1.30       0.03       1.63       ----

> <Gold.Chemscore.Fitness>
12.1127

> <Gold.Chemscore.DG>
-13.7696

> <Gold.Chemscore.ZeroCoef>
-5.4800

> <Gold.Chemscore.Hbond>
0.7009

> <Gold.Chemscore.Metal>
0.0000

> <Gold.Chemscore.Lipo>
79.2439

> <Gold.Chemscore.Internal_Hbond>
0.0000

> <Gold.Chemscore.DEClash>
0.0270

> <Gold.Chemscore.DEInternal>
1.6300

> <Gold.Chemscore.Rot>
1.2980

> <Gold.Chemscore.Internal.Correction>
   9.000000E+99

> <Gold.Chemscore.Hbonds>
donor molecule, donor type, donor heavy atom, donor atom, acceptor molecule, acceptor atom, score
      P1  H  7997  8009       L1     6  0.65

> <Gold.Chemscore.Hbond.Weighted>
-2.3410

> <Gold.Chemscore.Metal.Weighted>
-0.0000

> <Gold.Chemscore.Lipo.Weighted>
-9.2715

> <Gold.Chemscore.Internal_Hbond.Weighted>
0.0000

> <Gold.Chemscore.DEClash.Weighted>
0.0270

> <Gold.Chemscore.DEInternal.Weighted>
1.6300

> <Gold.Chemscore.Rot.Weighted>
3.3229

> <Gold.Chemscore.Internal.Correction.Weighted>
   9.000000E+99

> <Gold.Protein.RotatedTorsions>
[ 6907 6896 6895 6894 ] final  104.48 input  -60.11 | X-H torsion
[ 7974 7965 7964 7962 ] final  176.41 input  175.53 | X-H torsion
[ 8008 7997 7996 7995 ] final -156.86 input   59.86 | X-H torsion
[ 10167 10162 10161 10158 ] final -112.29 input  -65.29 | X-H torsion
[ 10718 10713 10712 10709 ] final  125.32 input   66.30 | X-H torsion
[ 10763 10752 10751 10750 ] final -142.16 input  -60.55 | X-H torsion
[ 11005 11000 10999 10996 ] final  135.36 input  -57.11 | X-H torsion

> <Gold.Protein.ActiveResidues>
 VAL166  LYS551  ARG553  GLY616  TRP617  ASP618  TYR619  PRO620  LYS621  CYS622 
 ASP623  PHE694  ASN695  SER759  ASP760  ASP761  ALA762  ILE779  LEU786  VAL792 
 PHE793  MET794  SER795  GLU796  ALA797  LYS798  CYS799  TRP800  GLU811  SER814 

> <Gold.Protein.RotatedAtoms>
  152.5263  133.9670  159.7743 H   0  0  0  0  0  0  0  0  0  0  0  0  # atno 6907 bound_to 6896
  150.9950  133.6104  159.2710 H   0  0  0  0  0  0  0  0  0  0  0  0  # atno 6908 bound_to 6896
  151.3234  135.0830  159.9367 H   0  0  0  0  0  0  0  0  0  0  0  0  # atno 6909 bound_to 6896
  144.7185  140.0093  143.6440 H   0  0  0  0  0  0  0  0  0  0  0  0  # atno 7974 bound_to 7965
  155.7237  140.0793  157.2319 H   0  0  0  0  0  0  0  0  0  0  0  0  # atno 8008 bound_to 7997
  154.4042  140.1608  156.2485 H   0  0  0  0  0  0  0  0  0  0  0  0  # atno 8009 bound_to 7997
  155.9173  140.3400  155.6148 H   0  0  0  0  0  0  0  0  0  0  0  0  # atno 8010 bound_to 7997
  140.1243  143.4416  152.1670 H   0  0  0  0  0  0  0  0  0  0  0  0  # atno 10167 bound_to 10162
  157.5512  131.1094  150.8698 H   0  0  0  0  0  0  0  0  0  0  0  0  # atno 10718 bound_to 10713
  154.8519  135.3504  154.5983 H   0  0  0  0  0  0  0  0  0  0  0  0  # atno 10763 bound_to 10752
  153.6592  135.6990  153.5188 H   0  0  0  0  0  0  0  0  0  0  0  0  # atno 10764 bound_to 10752
  153.2831  135.4257  155.1055 H   0  0  0  0  0  0  0  0  0  0  0  0  # atno 10765 bound_to 10752
  139.9975  134.9491  156.9997 H   0  0  0  0  0  0  0  0  0  0  0  0  # atno 11005 bound_to 11000
  146.0272  139.3302  143.0777 LP  0  0  0  0  0  0  0  0  0  0  0  0  # atno 17320 bound_to 7965
  145.8497  140.9535  143.0756 LP  0  0  0  0  0  0  0  0  0  0  0  0  # atno 17321 bound_to 7965
  139.5552  144.7367  151.4315 LP  0  0  0  0  0  0  0  0  0  0  0  0  # atno 17342 bound_to 10162
  140.6854  143.7986  150.7178 LP  0  0  0  0  0  0  0  0  0  0  0  0  # atno 17343 bound_to 10162
  156.9222  130.5319  149.5279 LP  0  0  0  0  0  0  0  0  0  0  0  0  # atno 17370 bound_to 10713
  156.0579  130.5637  150.9130 LP  0  0  0  0  0  0  0  0  0  0  0  0  # atno 17371 bound_to 10713
  140.4791  134.1308  155.7214 LP  0  0  0  0  0  0  0  0  0  0  0  0  # atno 17394 bound_to 11000
  141.1616  133.8783  157.1833 LP  0  0  0  0  0  0  0  0  0  0  0  0  # atno 17395 bound_to 11000

$$$$
