AV-unprocessed.smi:573|AV-procd|sdf|2967|dock9
  -GOLD-   2262023473D 1   1.00000     0.00000
 Structure written by MMmdl.
 45 47  0  0  0  0  0  0  0  0  2 V2000
  147.0724  140.0599  153.3971 C   0  0  0  0  0  0  0  0  0  0  0  0
  147.7413  141.3981  153.7443 C   0  0  2  0  0  0  0  0  0  0  0  0
  149.1020  141.3222  153.3776 O   0  0  0  0  0  0  0  0  0  0  0  0
  147.6703  141.7362  155.2448 C   0  0  0  0  0  0  0  0  0  0  0  0
  148.5208  140.8757  156.0546 N   0  0  0  0  0  0  0  0  0  0  0  0
  149.4418  141.4390  156.9457 C   0  0  0  0  0  0  0  0  0  0  0  0
  149.7795  142.7541  157.0257 N   0  3  0  0  0  0  0  0  0  0  0  0
  150.7406  142.9012  158.0298 C   0  0  0  0  0  0  0  0  0  0  0  0
  151.4004  144.0347  158.4944 C   0  0  0  0  0  0  0  0  0  0  0  0
  152.3362  143.8428  159.5320 C   0  0  0  0  0  0  0  0  0  0  0  0
  152.5882  142.5630  160.0674 C   0  0  0  0  0  0  0  0  0  0  0  0
  151.9129  141.4197  159.5923 C   0  0  0  0  0  0  0  0  0  0  0  0
  150.9858  141.6149  158.5686 C   0  0  0  0  0  0  0  0  0  0  0  0
  150.1489  140.7362  157.8674 N   0  0  0  0  0  0  0  0  0  0  0  0
  150.1501  139.3007  158.1859 C   0  0  0  0  0  0  0  0  0  0  0  0
  150.8991  138.4693  157.1312 C   0  0  2  0  0  0  0  0  0  0  0  0
  152.1845  139.1710  156.6529 C   0  0  0  0  0  0  0  0  0  0  0  0
  152.8727  138.3485  155.5576 C   0  0  0  0  0  0  0  0  0  0  0  0
  151.8717  138.0347  154.4404 C   0  0  0  0  0  0  0  0  0  0  0  0
  150.6021  137.3951  155.0242 C   0  0  0  0  0  0  0  0  0  0  0  0
  150.0390  138.2496  156.0144 O   0  0  0  0  0  0  0  0  0  0  0  0
  146.0069  140.0790  153.6283 H   0  0  0  0  0  0  0  0  0  0  0  0
  147.5184  139.2360  153.9554 H   0  0  0  0  0  0  0  0  0  0  0  0
  147.1712  139.8348  152.3346 H   0  0  0  0  0  0  0  0  0  0  0  0
  147.2866  142.1964  153.1567 H   0  0  0  0  0  0  0  0  0  0  0  0
  149.2428  140.5160  152.9045 H   0  0  0  0  0  0  0  0  0  0  0  0
  147.9748  142.7705  155.4080 H   0  0  0  0  0  0  0  0  0  0  0  0
  146.6419  141.6633  155.6011 H   0  0  0  0  0  0  0  0  0  0  0  0
  148.3175  139.8872  156.0980 H   0  0  0  0  0  0  0  0  0  0  0  0
  151.2127  145.0161  158.0838 H   0  0  0  0  0  0  0  0  0  0  0  0
  152.8736  144.6943  159.9233 H   0  0  0  0  0  0  0  0  0  0  0  0
  153.3157  142.4550  160.8591 H   0  0  0  0  0  0  0  0  0  0  0  0
  152.1193  140.4438  160.0064 H   0  0  0  0  0  0  0  0  0  0  0  0
  150.5751  139.1547  159.1791 H   0  0  0  0  0  0  0  0  0  0  0  0
  149.1104  138.9777  158.2483 H   0  0  0  0  0  0  0  0  0  0  0  0
  151.1566  137.5042  157.5717 H   0  0  0  0  0  0  0  0  0  0  0  0
  151.9409  140.1608  156.2646 H   0  0  0  0  0  0  0  0  0  0  0  0
  152.8678  139.3225  157.4891 H   0  0  0  0  0  0  0  0  0  0  0  0
  153.7321  138.8883  155.1585 H   0  0  0  0  0  0  0  0  0  0  0  0
  153.2542  137.4187  155.9813 H   0  0  0  0  0  0  0  0  0  0  0  0
  151.6081  138.9537  153.9153 H   0  0  0  0  0  0  0  0  0  0  0  0
  152.3247  137.3712  153.7033 H   0  0  0  0  0  0  0  0  0  0  0  0
  149.8658  137.2385  154.2357 H   0  0  0  0  0  0  0  0  0  0  0  0
  150.8201  136.4166  155.4546 H   0  0  0  0  0  0  0  0  0  0  0  0
  149.3905  143.4833  156.4421 H   0  0  0  0  0  0  0  0  0  0  0  0
  1  2  1  0  0  0  0
  1 22  1  0  0  0  0
  1 23  1  0  0  0  0
  1 24  1  0  0  0  0
  2  3  1  0  0  0  0
  2  4  1  0  0  0  0
  2 25  1  0  0  0  0
  3 26  1  0  0  0  0
  4  5  1  0  0  0  0
  4 27  1  0  0  0  0
  4 28  1  0  0  0  0
  5  6  1  0  0  0  0
  5 29  1  0  0  0  0
  6 14  1  0  0  0  0
  6  7  2  0  0  0  0
  7  8  1  0  0  0  0
  7 45  1  0  0  0  0
  8 13  2  0  0  0  0
  8  9  1  0  0  0  0
  9 10  2  0  0  0  0
  9 30  1  0  0  0  0
 10 11  1  0  0  0  0
 10 31  1  0  0  0  0
 11 12  2  0  0  0  0
 11 32  1  0  0  0  0
 12 13  1  0  0  0  0
 12 33  1  0  0  0  0
 13 14  1  0  0  0  0
 14 15  1  0  0  0  0
 15 16  1  0  0  0  0
 15 34  1  0  0  0  0
 15 35  1  0  0  0  0
 16 21  1  0  0  0  0
 16 17  1  0  0  0  0
 16 36  1  0  0  0  0
 17 18  1  0  0  0  0
 17 37  1  0  0  0  0
 17 38  1  0  0  0  0
 18 19  1  0  0  0  0
 18 39  1  0  0  0  0
 18 40  1  0  0  0  0
 19 20  1  0  0  0  0
 19 41  1  0  0  0  0
 19 42  1  0  0  0  0
 20 21  1  0  0  0  0
 20 43  1  0  0  0  0
 20 44  1  0  0  0  0
M  CHG  1   7   1
M  END
> <s_m_source_file>
AV-unprocessed.smi

> <i_m_source_file_index>
573

> <i_lp_mmshare_version>
43012

> <i_f3d_flags>
0

> <s_epik_input>
W0NIM11bQ0BIXShbT0hdKVtDSDJdW05IXWMobjEpbihjKGMxMilbY0hdW2NIXVtjSF1bY0hdMilbQ0gyXVtDQEBIXTNbQ0gyXVtDSDJdW0NIMl1bQ0gyXU8z

> <s_epik_cmdline>
J2VwaWtfcHl0aG9uJywgJy1waCcsICc3LjAnLCAnLXRuJywgJzgnLCAnLW1hJywgJzIwMCcsICctbWV0YWxfYmluZGluZycsICctaW1hZScsICc8aW5maWxlLm1hZT4nLCAnLW9tYWUnLCAnPG91dGZpbGUubWFlPic=

> <r_epik_Ionization_Penalty>
0.0692245

> <r_epik_Ionization_Penalty_Charging>
0.0692223

> <r_epik_Ionization_Penalty_Neutral>
2.1869e-06

> <r_epik_State_Penalty>
0.0606215

> <r_epik_Charging_Adjusted_Penalty>
0.129844

> <i_epik_Tot_Q>
1

> <i_epik_Tot_abs_Q>
1

> <r_epik_Metal_State_Penalty>
2.77811

> <b_epik_Metal_Only>
0

> <s_lp_Force_Field>
OPLS_2005

> <r_lp_Energy>
19.8097

> <b_lp_Chiralities_Consistent>
1

> <s_lp_Variant>
AV-unprocessed.smi:573-1

> <Gold.Version>
5.8.1

> <Gold.Id.Protein>
6NUR|6NUR_protein|mol2

> <Gold.PLP.Fitness>
52.0926

> <Gold.PLP.PLP>
-41.7809

> <Gold.PLP.part.hbond>
-3.9638

> <Gold.PLP.part.metal>
0.0000

> <Gold.PLP.part.buried>
-5.5253

> <Gold.PLP.part.nonpolar>
-34.0198

> <Gold.PLP.part.repulsive>
0.0312

> <Gold.PLP.ligand.clash>
0.0000

> <Gold.PLP.ligand.torsion>
0.4635

> <Gold.PLP.Chemscore.Hbond>
3.7440

> <Gold.PLP.Chemscore.CHOScore>
0.0000

> <Gold.PLP.Chemscore.Metal>
0.0000

> <Gold.Chemscore.Hbonds>
donor molecule, donor type, donor heavy atom, donor atom, acceptor molecule, acceptor atom, score
      L1  H     3    26       P1  7957  0.72
      L1  H     7    45       P1  8028  2.00
      P1  H  8011  8017       L1     3  0.98

> <Gold.PLP.Chemscore.Internal.Correction>
0.0066

> <Gold.Rescore>
     Score         DG    S(hbond)    S(metal)    S(lipo)     H(rot)  DE(clash)    DE(int)     intcor
     21.01     -21.59       2.35        0.00     115.95       2.07       0.02       0.56       ----

> <Gold.Chemscore.Fitness>
21.0144

> <Gold.Chemscore.DG>
-21.5873

> <Gold.Chemscore.ZeroCoef>
-5.4800

> <Gold.Chemscore.Hbond>
2.3473

> <Gold.Chemscore.Metal>
0.0000

> <Gold.Chemscore.Lipo>
115.9527

> <Gold.Chemscore.Internal_Hbond>
0.0000

> <Gold.Chemscore.DEClash>
0.0174

> <Gold.Chemscore.DEInternal>
0.5555

> <Gold.Chemscore.Rot>
2.0699

> <Gold.Chemscore.Internal.Correction>
   9.000000E+99

> <Gold.Chemscore.Hbonds>
donor molecule, donor type, donor heavy atom, donor atom, acceptor molecule, acceptor atom, score
      L1  H     3    26       P1  7957  0.72
      L1  H     7    45       P1  8028  0.94
      P1  H  8011  8017       L1     3  0.28

> <Gold.Chemscore.Hbond.Weighted>
-7.8399

> <Gold.Chemscore.Metal.Weighted>
-0.0000

> <Gold.Chemscore.Lipo.Weighted>
-13.5665

> <Gold.Chemscore.Internal_Hbond.Weighted>
0.0000

> <Gold.Chemscore.DEClash.Weighted>
0.0174

> <Gold.Chemscore.DEInternal.Weighted>
0.5555

> <Gold.Chemscore.Rot.Weighted>
5.2991

> <Gold.Chemscore.Internal.Correction.Weighted>
   9.000000E+99

> <Gold.Protein.RotatedTorsions>
[ 6907 6896 6895 6894 ] final  -92.10 input  -60.11 | X-H torsion
[ 7974 7965 7964 7962 ] final  -51.75 input  175.53 | X-H torsion
[ 8008 7997 7996 7995 ] final   79.43 input   59.86 | X-H torsion
[ 10167 10162 10161 10158 ] final  -33.08 input  -65.29 | X-H torsion
[ 10718 10713 10712 10709 ] final -137.28 input   66.30 | X-H torsion
[ 10763 10752 10751 10750 ] final  105.51 input  -60.55 | X-H torsion
[ 11005 11000 10999 10996 ] final  -51.01 input  -57.11 | X-H torsion

> <Gold.Protein.ActiveResidues>
 VAL166  LYS551  ARG553  GLY616  TRP617  ASP618  TYR619  PRO620  LYS621  CYS622 
 ASP623  PHE694  ASN695  SER759  ASP760  ASP761  ALA762  ILE779  LEU786  VAL792 
 PHE793  MET794  SER795  GLU796  ALA797  LYS798  CYS799  TRP800  GLU811  SER814 

> <Gold.Protein.RotatedAtoms>
  150.6901  134.2174  159.4382 H   0  0  0  0  0  0  0  0  0  0  0  0  # atno 6907 bound_to 6896
  152.0132  134.9862  160.0578 H   0  0  0  0  0  0  0  0  0  0  0  0  # atno 6908 bound_to 6896
  152.1468  133.4463  159.4831 H   0  0  0  0  0  0  0  0  0  0  0  0  # atno 6909 bound_to 6896
  145.9155  140.7878  142.9673 H   0  0  0  0  0  0  0  0  0  0  0  0  # atno 7974 bound_to 7965
  155.8696  140.3449  155.5812 H   0  0  0  0  0  0  0  0  0  0  0  0  # atno 8008 bound_to 7997
  155.7842  140.0862  157.2062 H   0  0  0  0  0  0  0  0  0  0  0  0  # atno 8009 bound_to 7997
  154.4016  140.1495  156.3075 H   0  0  0  0  0  0  0  0  0  0  0  0  # atno 8010 bound_to 7997
  140.7210  143.3646  151.1895 H   0  0  0  0  0  0  0  0  0  0  0  0  # atno 10167 bound_to 10162
  156.2863  130.7349  151.1362 H   0  0  0  0  0  0  0  0  0  0  0  0  # atno 10718 bound_to 10713
  153.3804  135.3907  155.1852 H   0  0  0  0  0  0  0  0  0  0  0  0  # atno 10763 bound_to 10752
  154.8707  135.3724  154.4865 H   0  0  0  0  0  0  0  0  0  0  0  0  # atno 10764 bound_to 10752
  153.5341  135.7085  153.5730 H   0  0  0  0  0  0  0  0  0  0  0  0  # atno 10765 bound_to 10752
  141.0847  133.6645  156.3815 H   0  0  0  0  0  0  0  0  0  0  0  0  # atno 11005 bound_to 11000
  144.6747  140.1893  143.7398 LP  0  0  0  0  0  0  0  0  0  0  0  0  # atno 17320 bound_to 7965
  145.8617  139.2226  143.1713 LP  0  0  0  0  0  0  0  0  0  0  0  0  # atno 17321 bound_to 7965
  139.7205  143.9230  152.2983 LP  0  0  0  0  0  0  0  0  0  0  0  0  # atno 17342 bound_to 10162
  139.8986  144.6925  150.8691 LP  0  0  0  0  0  0  0  0  0  0  0  0  # atno 17343 bound_to 10162
  157.7329  131.0595  150.5602 LP  0  0  0  0  0  0  0  0  0  0  0  0  # atno 17370 bound_to 10713
  156.5713  130.4280  149.6018 LP  0  0  0  0  0  0  0  0  0  0  0  0  # atno 17371 bound_to 10713
  140.5389  134.6140  157.5373 LP  0  0  0  0  0  0  0  0  0  0  0  0  # atno 17394 bound_to 11000
  139.9665  134.7365  156.0129 LP  0  0  0  0  0  0  0  0  0  0  0  0  # atno 17395 bound_to 11000

$$$$
