AV-unprocessed.smi:69|AV-procd|sdf|653|dock3
  -GOLD-   2262016553D 1   1.00000     0.00000
 Structure written by MMmdl.
 32 34  0  0  0  0  0  0  0  0  1 V2000
  142.5928  137.3341  155.3675 N   0  0  0  0  0  0  0  0  0  0  0  0
  142.6870  136.4944  154.3272 C   0  0  0  0  0  0  0  0  0  0  0  0
  141.5484  135.9580  153.8295 N   0  0  0  0  0  0  0  0  0  0  0  0
  141.6166  135.1174  152.7923 C   0  0  0  0  0  0  0  0  0  0  0  0
  142.6960  134.6965  152.1283 N   0  0  0  0  0  0  0  0  0  0  0  0
  143.8443  135.2378  152.6305 C   0  0  0  0  0  0  0  0  0  0  0  0
  143.9219  136.1419  153.7263 C   0  0  0  0  0  0  0  0  0  0  0  0
  145.2454  136.4842  153.9656 N   0  0  0  0  0  0  0  0  0  0  0  0
  145.9097  135.8170  153.0607 C   0  0  0  0  0  0  0  0  0  0  0  0
  145.1479  135.0376  152.2172 N   0  0  0  0  0  0  0  0  0  0  0  0
  145.6405  134.1701  151.0963 C   0  0  2  0  0  0  0  0  0  0  0  0
  144.7071  134.1743  150.0574 O   0  0  0  0  0  0  0  0  0  0  0  0
  144.2248  132.8552  149.8069 C   0  0  1  0  0  0  0  0  0  0  0  0
  143.8402  132.6809  148.3272 C   0  0  0  0  0  0  0  0  0  0  0  0
  143.8009  133.9370  147.6844 O   0  0  0  0  0  0  0  0  0  0  0  0
  145.3519  131.9428  150.3118 C   0  0  1  0  0  0  0  0  0  0  0  0
  146.3683  131.7894  149.3371 O   0  0  0  0  0  0  0  0  0  0  0  0
  145.8845  132.7055  151.5143 C   0  0  2  0  0  0  0  0  0  0  0  0
  145.2013  132.3195  152.6940 O   0  0  0  0  0  0  0  0  0  0  0  0
  146.5488  134.6616  150.7447 H   0  0  0  0  0  0  0  0  0  0  0  0
  143.3521  132.6764  150.4363 H   0  0  0  0  0  0  0  0  0  0  0  0
  144.9853  130.9495  150.5749 H   0  0  0  0  0  0  0  0  0  0  0  0
  146.9509  132.5419  151.6752 H   0  0  0  0  0  0  0  0  0  0  0  0
  143.4280  137.7466  155.7573 H   0  0  0  0  0  0  0  0  0  0  0  0
  141.6874  137.5545  155.7561 H   0  0  0  0  0  0  0  0  0  0  0  0
  140.6724  134.7251  152.4449 H   0  0  0  0  0  0  0  0  0  0  0  0
  146.9857  135.8740  152.9843 H   0  0  0  0  0  0  0  0  0  0  0  0
  144.5323  132.0145  147.8114 H   0  0  0  0  0  0  0  0  0  0  0  0
  142.8443  132.2440  148.2473 H   0  0  0  0  0  0  0  0  0  0  0  0
  144.6861  134.2523  147.5850 H   0  0  0  0  0  0  0  0  0  0  0  0
  147.1352  131.4311  149.7570 H   0  0  0  0  0  0  0  0  0  0  0  0
  145.8423  132.0813  153.3463 H   0  0  0  0  0  0  0  0  0  0  0  0
  1  2  1  0  0  0  0
  1 24  1  0  0  0  0
  1 25  1  0  0  0  0
  2  7  1  0  0  0  0
  2  3  2  0  0  0  0
  3  4  1  0  0  0  0
  4  5  2  0  0  0  0
  4 26  1  0  0  0  0
  5  6  1  0  0  0  0
  6 10  1  0  0  0  0
  6  7  2  0  0  0  0
  7  8  1  0  0  0  0
  8  9  2  0  0  0  0
  9 10  1  0  0  0  0
  9 27  1  0  0  0  0
 10 11  1  0  0  0  0
 11 20  1  0  0  0  0
 11 18  1  0  0  0  0
 11 12  1  0  0  0  0
 12 13  1  0  0  0  0
 13 21  1  0  0  0  0
 13 14  1  0  0  0  0
 13 16  1  0  0  0  0
 14 15  1  0  0  0  0
 14 28  1  0  0  0  0
 14 29  1  0  0  0  0
 15 30  1  0  0  0  0
 16 22  1  0  0  0  0
 16 17  1  0  0  0  0
 16 18  1  0  0  0  0
 17 31  1  0  0  0  0
 18 23  1  0  0  0  0
 18 19  1  0  0  0  0
 19 32  1  0  0  0  0
M  END
> <s_m_source_file>
AV-unprocessed.smi

> <i_m_source_file_index>
69

> <i_lp_mmshare_version>
43012

> <i_f3d_flags>
0

> <s_epik_input>
bjFbY0hdbmMoW05IMl0pYyhjMTIpbltjSF1uMltDQEBIXTNPW0NASF0oW0NIMl1bT0hdKVtDQEBIXShbT0hdKVtDQEhdM1tPSF0=

> <s_epik_cmdline>
J2VwaWtfcHl0aG9uJywgJy1waCcsICc3LjAnLCAnLXRuJywgJzgnLCAnLW1hJywgJzIwMCcsICctbWV0YWxfYmluZGluZycsICctaW1hZScsICc8aW5maWxlLm1hZT4nLCAnLW9tYWUnLCAnPG91dGZpbGUubWFlPic=

> <r_lp_tautomer_probability>
1

> <r_epik_Ionization_Penalty>
0.000428445

> <r_epik_Ionization_Penalty_Charging>
0

> <r_epik_Ionization_Penalty_Neutral>
0.000428445

> <r_epik_State_Penalty>
-0

> <r_epik_Charging_Adjusted_Penalty>
0

> <i_epik_Tot_Q>
0

> <i_epik_Tot_abs_Q>
0

> <r_epik_Metal_State_Penalty>
-0

> <b_epik_Metal_Only>
0

> <s_epik_Chemistry_Notes>
This compound contains an acetal/aminal-like group ( X-CH(R)-Y where X, Y are N, S, or O) that may be acid/base labile, releasing an aldehyde.

> <s_lp_Force_Field>
OPLS_2005

> <r_lp_Energy>
40.109

> <b_lp_Chiralities_Consistent>
1

> <s_lp_Variant>
AV-unprocessed.smi:69-11

> <Gold.Version>
5.8.1

> <Gold.Id.Protein>
6NUR|6NUR_protein|mol2

> <Gold.PLP.Fitness>
43.9720

> <Gold.PLP.PLP>
-32.1228

> <Gold.PLP.part.hbond>
-7.2232

> <Gold.PLP.part.metal>
0.0000

> <Gold.PLP.part.buried>
-5.8470

> <Gold.PLP.part.nonpolar>
-20.5263

> <Gold.PLP.part.repulsive>
1.1434

> <Gold.PLP.ligand.clash>
0.0000

> <Gold.PLP.ligand.torsion>
1.4049

> <Gold.PLP.Chemscore.Hbond>
3.7661

> <Gold.PLP.Chemscore.CHOScore>
1.1197

> <Gold.PLP.Chemscore.Metal>
0.0000

> <Gold.Chemscore.Hbonds>
donor molecule, donor type, donor heavy atom, donor atom, acceptor molecule, acceptor atom, score
      L1  H    15    30       P1  7921  0.98
      L1  H    17    31       P1 10747  1.00
      P1  H 10192 10197       L1    15  0.52
      L1  C     4    26       P1 10187  0.07
      L1  C     9    27       P1  7948  1.00

> <Gold.PLP.Chemscore.Internal.Correction>
0.0019

> <Gold.Rescore>
     Score         DG    S(hbond)    S(metal)    S(lipo)     H(rot)  DE(clash)    DE(int)     intcor
      8.35     -10.89       3.14        0.00      44.69       4.03       0.12       2.41       ----

> <Gold.Chemscore.Fitness>
8.3528

> <Gold.Chemscore.DG>
-10.8864

> <Gold.Chemscore.ZeroCoef>
-5.4800

> <Gold.Chemscore.Hbond>
3.1404

> <Gold.Chemscore.Metal>
0.0000

> <Gold.Chemscore.Lipo>
44.6876

> <Gold.Chemscore.Internal_Hbond>
0.0000

> <Gold.Chemscore.DEClash>
0.1215

> <Gold.Chemscore.DEInternal>
2.4122

> <Gold.Chemscore.Rot>
4.0277

> <Gold.Chemscore.Internal.Correction>
   9.000000E+99

> <Gold.Chemscore.Hbonds>
donor molecule, donor type, donor heavy atom, donor atom, acceptor molecule, acceptor atom, score
      L1  H    15    30       P1  7921  0.91
      L1  H    17    31       P1 10747  0.98
      P1  H 10192 10197       L1    15  0.52

> <Gold.Chemscore.Hbond.Weighted>
-10.4890

> <Gold.Chemscore.Metal.Weighted>
-0.0000

> <Gold.Chemscore.Lipo.Weighted>
-5.2284

> <Gold.Chemscore.Internal_Hbond.Weighted>
0.0000

> <Gold.Chemscore.DEClash.Weighted>
0.1215

> <Gold.Chemscore.DEInternal.Weighted>
2.4122

> <Gold.Chemscore.Rot.Weighted>
10.3110

> <Gold.Chemscore.Internal.Correction.Weighted>
   9.000000E+99

> <Gold.Protein.RotatedTorsions>
[ 6907 6896 6895 6894 ] final   72.06 input  -60.11 | X-H torsion
[ 7974 7965 7964 7962 ] final  -16.40 input  175.53 | X-H torsion
[ 8008 7997 7996 7995 ] final  -25.71 input   59.86 | X-H torsion
[ 10167 10162 10161 10158 ] final  -77.41 input  -65.29 | X-H torsion
[ 10718 10713 10712 10709 ] final  112.34 input   66.30 | X-H torsion
[ 10763 10752 10751 10750 ] final  162.10 input  -60.55 | X-H torsion
[ 11005 11000 10999 10996 ] final   19.83 input  -57.11 | X-H torsion

> <Gold.Protein.ActiveResidues>
 VAL166  LYS551  ARG553  GLY616  TRP617  ASP618  TYR619  PRO620  LYS621  CYS622 
 ASP623  PHE694  ASN695  SER759  ASP760  ASP761  ALA762  ILE779  LEU786  VAL792 
 PHE793  MET794  SER795  GLU796  ALA797  LYS798  CYS799  TRP800  GLU811  SER814 

> <Gold.Protein.RotatedAtoms>
  152.4846  134.4628  159.9610 H   0  0  0  0  0  0  0  0  0  0  0  0  # atno 6907 bound_to 6896
  151.4626  133.3583  159.2819 H   0  0  0  0  0  0  0  0  0  0  0  0  # atno 6908 bound_to 6896
  150.8946  134.8378  159.7378 H   0  0  0  0  0  0  0  0  0  0  0  0  # atno 6909 bound_to 6896
  146.1989  140.3631  142.8430 H   0  0  0  0  0  0  0  0  0  0  0  0  # atno 7974 bound_to 7965
  154.4462  140.1919  156.0662 H   0  0  0  0  0  0  0  0  0  0  0  0  # atno 8008 bound_to 7997
  156.0546  140.3304  155.7363 H   0  0  0  0  0  0  0  0  0  0  0  0  # atno 8009 bound_to 7997
  155.5505  140.0594  157.2841 H   0  0  0  0  0  0  0  0  0  0  0  0  # atno 8010 bound_to 7997
  140.4773  143.2411  151.8113 H   0  0  0  0  0  0  0  0  0  0  0  0  # atno 10167 bound_to 10162
  157.6398  131.0966  150.6880 H   0  0  0  0  0  0  0  0  0  0  0  0  # atno 10718 bound_to 10713
  154.2731  135.2765  155.2729 H   0  0  0  0  0  0  0  0  0  0  0  0  # atno 10763 bound_to 10752
  154.5284  135.5736  153.6742 H   0  0  0  0  0  0  0  0  0  0  0  0  # atno 10764 bound_to 10752
  152.9941  135.6221  154.2887 H   0  0  0  0  0  0  0  0  0  0  0  0  # atno 10765 bound_to 10752
  140.4094  134.1634  155.7666 H   0  0  0  0  0  0  0  0  0  0  0  0  # atno 11005 bound_to 11000
  144.8640  140.7180  143.6089 LP  0  0  0  0  0  0  0  0  0  0  0  0  # atno 17320 bound_to 7965
  145.3550  139.1696  143.4414 LP  0  0  0  0  0  0  0  0  0  0  0  0  # atno 17321 bound_to 7965
  139.4827  144.4817  151.9298 LP  0  0  0  0  0  0  0  0  0  0  0  0  # atno 17342 bound_to 10162
  140.3902  144.2625  150.5900 LP  0  0  0  0  0  0  0  0  0  0  0  0  # atno 17343 bound_to 10162
  156.7206  130.4679  149.5524 LP  0  0  0  0  0  0  0  0  0  0  0  0  # atno 17370 bound_to 10713
  156.1668  130.6411  151.0788 LP  0  0  0  0  0  0  0  0  0  0  0  0  # atno 17371 bound_to 10713
  141.1827  133.8380  157.1201 LP  0  0  0  0  0  0  0  0  0  0  0  0  # atno 17394 bound_to 11000
  140.0278  134.9915  157.0721 LP  0  0  0  0  0  0  0  0  0  0  0  0  # atno 17395 bound_to 11000

$$$$
