AV-unprocessed.smi:630|AV-procd|sdf|3121|dock3
  -GOLD-   22720 0 43D 1   1.00000     0.00000
 Structure written by MMmdl.
 36 37  0  0  0  0  0  0  0  0  2 V2000
  150.3821  144.4871  158.0368 N   0  0  0  0  0  0  0  0  0  0  0  0
  151.2478  144.7267  159.0255 C   0  0  0  0  0  0  0  0  0  0  0  0
  151.7334  145.8414  159.2110 O   0  0  0  0  0  0  0  0  0  0  0  0
  151.6181  143.5444  159.9423 C   0  0  2  0  0  0  0  0  0  0  0  0
  152.5508  144.0501  161.0705 C   0  0  0  0  0  0  0  0  0  0  0  0
  152.6162  143.0994  162.2771 C   0  0  0  0  0  0  0  0  0  0  0  0
  153.6898  142.0029  162.1848 C   0  0  0  0  0  0  0  0  0  0  0  0
  153.9194  141.3969  160.7903 C   0  0  0  0  0  0  0  0  0  0  0  0
  152.6464  141.1448  159.9666 C   0  0  0  0  0  0  0  0  0  0  0  0
  152.2015  142.3590  159.1205 C   0  0  1  0  0  0  0  0  0  0  0  0
  151.2030  141.8892  158.1536 N   0  0  0  0  0  0  0  0  0  0  0  0
  151.3418  140.8926  157.2663 C   0  0  0  0  0  0  0  0  0  0  0  0
  152.3933  140.2512  157.2118 O   0  0  0  0  0  0  0  0  0  0  0  0
  150.2494  140.7050  156.4910 N   0  5  0  0  0  0  0  0  0  0  0  0
  150.1533  139.6074  155.7229 C   0  0  0  0  0  0  0  0  0  0  0  0
  150.9543  139.3740  154.6767 N   0  0  0  0  0  0  0  0  0  0  0  0
  150.6780  138.1712  154.0239 C   0  0  0  0  0  0  0  0  0  0  0  0
  149.6501  137.4672  154.5930 C   0  0  0  0  0  0  0  0  0  0  0  0
  148.9933  138.2998  155.9734 S   0  0  0  0  0  0  0  0  0  0  0  0
  150.1378  145.2274  157.3956 H   0  0  0  0  0  0  0  0  0  0  0  0
  149.9998  143.5607  157.9155 H   0  0  0  0  0  0  0  0  0  0  0  0
  150.6928  143.2030  160.4102 H   0  0  0  0  0  0  0  0  0  0  0  0
  153.5519  144.2605  160.6910 H   0  0  0  0  0  0  0  0  0  0  0  0
  152.1711  145.0060  161.4360 H   0  0  0  0  0  0  0  0  0  0  0  0
  152.8103  143.6819  163.1784 H   0  0  0  0  0  0  0  0  0  0  0  0
  151.6384  142.6439  162.4378 H   0  0  0  0  0  0  0  0  0  0  0  0
  154.6404  142.4023  162.5402 H   0  0  0  0  0  0  0  0  0  0  0  0
  153.4265  141.2082  162.8837 H   0  0  0  0  0  0  0  0  0  0  0  0
  154.6026  142.0280  160.2208 H   0  0  0  0  0  0  0  0  0  0  0  0
  154.4479  140.4519  160.9212 H   0  0  0  0  0  0  0  0  0  0  0  0
  152.8644  140.3217  159.2842 H   0  0  0  0  0  0  0  0  0  0  0  0
  151.8345  140.7913  160.6034 H   0  0  0  0  0  0  0  0  0  0  0  0
  153.0790  142.7264  158.5855 H   0  0  0  0  0  0  0  0  0  0  0  0
  150.3177  142.3740  158.1537 H   0  0  0  0  0  0  0  0  0  0  0  0
  151.2648  137.8938  153.1609 H   0  0  0  0  0  0  0  0  0  0  0  0
  149.2413  136.5161  154.2875 H   0  0  0  0  0  0  0  0  0  0  0  0
  1  2  1  0  0  0  0
  1 20  1  0  0  0  0
  1 21  1  0  0  0  0
  2  3  2  0  0  0  0
  2  4  1  0  0  0  0
  4 10  1  0  0  0  0
  4  5  1  0  0  0  0
  4 22  1  0  0  0  0
  5  6  1  0  0  0  0
  5 23  1  0  0  0  0
  5 24  1  0  0  0  0
  6  7  1  0  0  0  0
  6 25  1  0  0  0  0
  6 26  1  0  0  0  0
  7  8  1  0  0  0  0
  7 27  1  0  0  0  0
  7 28  1  0  0  0  0
  8  9  1  0  0  0  0
  8 29  1  0  0  0  0
  8 30  1  0  0  0  0
  9 10  1  0  0  0  0
  9 31  1  0  0  0  0
  9 32  1  0  0  0  0
 10 11  1  0  0  0  0
 10 33  1  0  0  0  0
 11 12  1  0  0  0  0
 11 34  1  0  0  0  0
 12 13  2  0  0  0  0
 12 14  1  0  0  0  0
 14 15  1  0  0  0  0
 15 19  1  0  0  0  0
 15 16  2  0  0  0  0
 16 17  1  0  0  0  0
 17 18  2  0  0  0  0
 17 35  1  0  0  0  0
 18 19  1  0  0  0  0
 18 36  1  0  0  0  0
M  CHG  1  14  -1
M  END
> <s_m_source_file>
AV-unprocessed.smi

> <i_m_source_file_index>
630

> <i_lp_mmshare_version>
43012

> <i_f3d_flags>
0

> <s_epik_input>
W05IMl1DKD1PKVtDQEBIXTFbQ0gyXVtDSDJdW0NIMl1bQ0gyXVtDSDJdW0NASF0xW05IXUMoPU8pW05IXWMybltjSF1bY0hdczI=

> <s_epik_cmdline>
J2VwaWtfcHl0aG9uJywgJy1waCcsICc3LjAnLCAnLXRuJywgJzgnLCAnLW1hJywgJzIwMCcsICctbWV0YWxfYmluZGluZycsICctaW1hZScsICc8aW5maWxlLm1hZT4nLCAnLW9tYWUnLCAnPG91dGZpbGUubWFlPic=

> <r_lp_tautomer_probability>
0.999

> <r_epik_Ionization_Penalty>
8.29606

> <r_epik_Ionization_Penalty_Charging>
6.67551

> <r_epik_Ionization_Penalty_Neutral>
1.62055

> <r_epik_State_Penalty>
6.67568

> <r_epik_Charging_Adjusted_Penalty>
13.3512

> <i_epik_Tot_Q>
-1

> <i_epik_Tot_abs_Q>
1

> <r_epik_Metal_State_Penalty>
2.59802

> <b_epik_Metal_Only>
1

> <s_lp_Force_Field>
OPLS_2005

> <r_lp_Energy>
8.76486

> <b_lp_Chiralities_Consistent>
1

> <s_lp_Variant>
AV-unprocessed.smi:630-5

> <Gold.Version>
5.8.1

> <Gold.Id.Protein>
6NUR|6NUR_protein|mol2

> <Gold.PLP.Fitness>
48.2789

> <Gold.PLP.PLP>
-37.9823

> <Gold.PLP.part.hbond>
-5.0000

> <Gold.PLP.part.metal>
0.0000

> <Gold.PLP.part.buried>
-3.4253

> <Gold.PLP.part.nonpolar>
-30.4314

> <Gold.PLP.part.repulsive>
0.4134

> <Gold.PLP.ligand.clash>
0.0000

> <Gold.PLP.ligand.torsion>
0.7048

> <Gold.PLP.Chemscore.Hbond>
2.1815

> <Gold.PLP.Chemscore.CHOScore>
1.6921

> <Gold.PLP.Chemscore.Metal>
0.0000

> <Gold.Chemscore.Hbonds>
donor molecule, donor type, donor heavy atom, donor atom, acceptor molecule, acceptor atom, score
      L1  H     1    20       P1  8028  0.13
      P1  H  7989  7998       L1    16  1.00
      P1  H  7997  8008       L1    13  0.91
      L1  C    17    35       P1  7949  1.00
      L1  C    18    36       P1  7948  0.70

> <Gold.PLP.Chemscore.Internal.Correction>
0.0857

> <Gold.Rescore>
     Score         DG    S(hbond)    S(metal)    S(lipo)     H(rot)  DE(clash)    DE(int)     intcor
     13.94     -18.54       1.92        0.00      89.70       1.50       0.97       3.63       ----

> <Gold.Chemscore.Fitness>
13.9354

> <Gold.Chemscore.DG>
-18.5409

> <Gold.Chemscore.ZeroCoef>
-5.4800

> <Gold.Chemscore.Hbond>
1.9213

> <Gold.Chemscore.Metal>
0.0000

> <Gold.Chemscore.Lipo>
89.6991

> <Gold.Chemscore.Internal_Hbond>
0.0000

> <Gold.Chemscore.DEClash>
0.9705

> <Gold.Chemscore.DEInternal>
3.6350

> <Gold.Chemscore.Rot>
1.5044

> <Gold.Chemscore.Internal.Correction>
   9.000000E+99

> <Gold.Chemscore.Hbonds>
donor molecule, donor type, donor heavy atom, donor atom, acceptor molecule, acceptor atom, score
      P1  H  7989  7998       L1    16  0.85
      P1  H  7997  8008       L1    13  0.84

> <Gold.Chemscore.Hbond.Weighted>
-6.4173

> <Gold.Chemscore.Metal.Weighted>
-0.0000

> <Gold.Chemscore.Lipo.Weighted>
-10.4948

> <Gold.Chemscore.Internal_Hbond.Weighted>
0.0000

> <Gold.Chemscore.DEClash.Weighted>
0.9705

> <Gold.Chemscore.DEInternal.Weighted>
3.6350

> <Gold.Chemscore.Rot.Weighted>
3.8512

> <Gold.Chemscore.Internal.Correction.Weighted>
   9.000000E+99

> <Gold.Protein.RotatedTorsions>
[ 6907 6896 6895 6894 ] final  -91.84 input  -60.11 | X-H torsion
[ 7974 7965 7964 7962 ] final  128.99 input  175.53 | X-H torsion
[ 8008 7997 7996 7995 ] final  -58.43 input   59.86 | X-H torsion
[ 10167 10162 10161 10158 ] final   38.07 input  -65.29 | X-H torsion
[ 10718 10713 10712 10709 ] final  103.25 input   66.30 | X-H torsion
[ 10763 10752 10751 10750 ] final   16.34 input  -60.55 | X-H torsion
[ 11005 11000 10999 10996 ] final  -65.56 input  -57.11 | X-H torsion

> <Gold.Protein.ActiveResidues>
 VAL166  LYS551  ARG553  GLY616  TRP617  ASP618  TYR619  PRO620  LYS621  CYS622 
 ASP623  PHE694  ASN695  SER759  ASP760  ASP761  ALA762  ILE779  LEU786  VAL792 
 PHE793  MET794  SER795  GLU796  ALA797  LYS798  CYS799  TRP800  GLU811  SER814 

> <Gold.Protein.RotatedAtoms>
  150.6898  134.2214  159.4398 H   0  0  0  0  0  0  0  0  0  0  0  0  # atno 6907 bound_to 6896
  152.0170  134.9841  160.0579 H   0  0  0  0  0  0  0  0  0  0  0  0  # atno 6908 bound_to 6896
  152.1433  133.4442  159.4814 H   0  0  0  0  0  0  0  0  0  0  0  0  # atno 6909 bound_to 6896
  145.0336  139.4025  143.5137 H   0  0  0  0  0  0  0  0  0  0  0  0  # atno 7974 bound_to 7965
  154.4309  140.1084  156.5956 H   0  0  0  0  0  0  0  0  0  0  0  0  # atno 8008 bound_to 7997
  155.5965  140.3493  155.4563 H   0  0  0  0  0  0  0  0  0  0  0  0  # atno 8009 bound_to 7997
  156.0206  140.1239  157.0351 H   0  0  0  0  0  0  0  0  0  0  0  0  # atno 8010 bound_to 7997
  140.3971  144.1773  150.6132 H   0  0  0  0  0  0  0  0  0  0  0  0  # atno 10167 bound_to 10162
  157.6778  131.0774  150.5527 H   0  0  0  0  0  0  0  0  0  0  0  0  # atno 10718 bound_to 10713
  153.1440  135.6765  153.8983 H   0  0  0  0  0  0  0  0  0  0  0  0  # atno 10763 bound_to 10752
  153.8431  135.3103  155.3428 H   0  0  0  0  0  0  0  0  0  0  0  0  # atno 10764 bound_to 10752
  154.7810  135.4888  153.9929 H   0  0  0  0  0  0  0  0  0  0  0  0  # atno 10765 bound_to 10752
  141.1458  133.6684  156.6005 H   0  0  0  0  0  0  0  0  0  0  0  0  # atno 11005 bound_to 11000
  146.3501  139.9899  142.8687 LP  0  0  0  0  0  0  0  0  0  0  0  0  # atno 17320 bound_to 7965
  145.1739  140.9734  143.4306 LP  0  0  0  0  0  0  0  0  0  0  0  0  # atno 17321 bound_to 7965
  140.4778  143.2389  151.8998 LP  0  0  0  0  0  0  0  0  0  0  0  0  # atno 17342 bound_to 10162
  139.4786  144.5301  151.8678 LP  0  0  0  0  0  0  0  0  0  0  0  0  # atno 17343 bound_to 10162
  156.5831  130.4309  149.5968 LP  0  0  0  0  0  0  0  0  0  0  0  0  # atno 17370 bound_to 10713
  156.2645  130.6981  151.1760 LP  0  0  0  0  0  0  0  0  0  0  0  0  # atno 17371 bound_to 10713
  140.3692  134.7620  157.4587 LP  0  0  0  0  0  0  0  0  0  0  0  0  # atno 17394 bound_to 11000
  140.0724  134.5844  155.8628 LP  0  0  0  0  0  0  0  0  0  0  0  0  # atno 17395 bound_to 11000

$$$$
