AV-unprocessed.smi:2939|AV-procd|sdf|11261|dock10
  -GOLD-   2272016153D 1   1.00000     0.00000
 Structure written by MMmdl.
 30 31  0  0  0  0  0  0  0  0  2 V2000
  151.4874  136.3430  154.7678 O   0  0  0  0  0  0  0  0  0  0  0  0
  150.8138  137.3914  154.6644 C   0  0  0  0  0  0  0  0  0  0  0  0
  149.5652  137.4559  154.6555 O   0  5  0  0  0  0  0  0  0  0  0  0
  151.5839  138.7095  154.5402 C   0  0  0  0  0  0  0  0  0  0  0  0
  151.1373  139.7146  155.4949 N   0  0  0  0  0  0  0  0  0  0  0  0
  149.9589  140.4411  155.1842 C   0  0  0  0  0  0  0  0  0  0  0  0
  149.2456  140.1589  154.2204 O   0  0  0  0  0  0  0  0  0  0  0  0
  149.6576  141.5409  156.0930 C   0  0  0  0  0  0  0  0  0  0  0  0
  150.4717  141.8269  157.1311 C   0  0  0  0  0  0  0  0  0  0  0  0
  151.6255  141.1164  157.3980 N   0  0  0  0  0  0  0  0  0  0  0  0
  152.4874  141.4455  158.5055 C   0  0  0  0  0  0  0  0  0  0  0  0
  152.2827  142.8266  159.1167 C   0  0  0  0  0  0  0  0  0  0  0  0
  152.1323  142.9475  160.5143 C   0  0  0  0  0  0  0  0  0  0  0  0
  151.9369  144.2124  161.1023 C   0  0  0  0  0  0  0  0  0  0  0  0
  151.8850  145.3645  160.2947 C   0  0  0  0  0  0  0  0  0  0  0  0
  152.0271  145.2505  158.8987 C   0  0  0  0  0  0  0  0  0  0  0  0
  152.2230  143.9859  158.3103 C   0  0  0  0  0  0  0  0  0  0  0  0
  152.0026  140.0332  156.5706 C   0  0  0  0  0  0  0  0  0  0  0  0
  153.0383  139.3972  156.7864 O   0  0  0  0  0  0  0  0  0  0  0  0
  152.6548  138.5516  154.6783 H   0  0  0  0  0  0  0  0  0  0  0  0
  151.4916  139.1223  153.5343 H   0  0  0  0  0  0  0  0  0  0  0  0
  148.7718  142.1364  155.9288 H   0  0  0  0  0  0  0  0  0  0  0  0
  150.2087  142.6535  157.7751 H   0  0  0  0  0  0  0  0  0  0  0  0
  152.3054  140.6857  159.2665 H   0  0  0  0  0  0  0  0  0  0  0  0
  153.5123  141.3012  158.1571 H   0  0  0  0  0  0  0  0  0  0  0  0
  152.1709  142.0686  161.1411 H   0  0  0  0  0  0  0  0  0  0  0  0
  151.8264  144.2984  162.1733 H   0  0  0  0  0  0  0  0  0  0  0  0
  151.7350  146.3344  160.7454 H   0  0  0  0  0  0  0  0  0  0  0  0
  151.9854  146.1333  158.2779 H   0  0  0  0  0  0  0  0  0  0  0  0
  152.3274  143.9141  157.2379 H   0  0  0  0  0  0  0  0  0  0  0  0
  1  2  2  0  0  0  0
  2  3  1  0  0  0  0
  2  4  1  0  0  0  0
  4  5  1  0  0  0  0
  4 20  1  0  0  0  0
  4 21  1  0  0  0  0
  5 18  1  0  0  0  0
  5  6  1  0  0  0  0
  6  7  2  0  0  0  0
  6  8  1  0  0  0  0
  8  9  2  0  0  0  0
  8 22  1  0  0  0  0
  9 10  1  0  0  0  0
  9 23  1  0  0  0  0
 10 11  1  0  0  0  0
 10 18  1  0  0  0  0
 11 12  1  0  0  0  0
 11 24  1  0  0  0  0
 11 25  1  0  0  0  0
 12 17  1  0  0  0  0
 12 13  2  0  0  0  0
 13 14  1  0  0  0  0
 13 26  1  0  0  0  0
 14 15  2  0  0  0  0
 14 27  1  0  0  0  0
 15 16  1  0  0  0  0
 15 28  1  0  0  0  0
 16 17  2  0  0  0  0
 16 29  1  0  0  0  0
 17 30  1  0  0  0  0
 18 19  2  0  0  0  0
M  CHG  1   3  -1
M  END
> <s_m_source_file>
AV-unprocessed.smi

> <i_m_source_file_index>
2939

> <i_lp_mmshare_version>
43012

> <i_f3d_flags>
0

> <s_epik_input>
Tz1DKFtPSF0pW0NIMl1uMWMoPU8pW2NIXVtjSF1uKGMxPU8pW0NIMl1jMltjSF1bY0hdW2NIXVtjSF1bY0hdMg==

> <s_epik_cmdline>
J2VwaWtfcHl0aG9uJywgJy1waCcsICc3LjAnLCAnLXRuJywgJzgnLCAnLW1hJywgJzIwMCcsICctbWV0YWxfYmluZGluZycsICctaW1hZScsICc8aW5maWxlLm1hZT4nLCAnLW9tYWUnLCAnPG91dGZpbGUubWFlPic=

> <r_lp_tautomer_probability>
1

> <r_epik_Ionization_Penalty>
0.00125818

> <r_epik_Ionization_Penalty_Charging>
0.00125818

> <r_epik_Ionization_Penalty_Neutral>
0

> <r_epik_State_Penalty>
0.000832915

> <r_epik_Charging_Adjusted_Penalty>
0.00209109

> <i_epik_Tot_Q>
-1

> <i_epik_Tot_abs_Q>
1

> <r_epik_Metal_State_Penalty>
-0

> <b_epik_Metal_Only>
0

> <s_lp_Force_Field>
OPLS_2005

> <r_lp_Energy>
10.7616

> <b_lp_Chiralities_Consistent>
1

> <s_lp_Variant>
AV-unprocessed.smi:2939-1

> <Gold.Version>
5.8.1

> <Gold.Id.Protein>
6NUR|6NUR_protein|mol2

> <Gold.PLP.Fitness>
54.1381

> <Gold.PLP.PLP>
-46.2909

> <Gold.PLP.part.hbond>
-2.0000

> <Gold.PLP.part.metal>
0.0000

> <Gold.PLP.part.buried>
-6.8235

> <Gold.PLP.part.nonpolar>
-39.3961

> <Gold.PLP.part.repulsive>
0.6141

> <Gold.PLP.ligand.clash>
0.0000

> <Gold.PLP.ligand.torsion>
0.5983

> <Gold.PLP.Chemscore.Hbond>
3.0000

> <Gold.PLP.Chemscore.CHOScore>
0.0000

> <Gold.PLP.Chemscore.Metal>
0.0000

> <Gold.Chemscore.Hbonds>
donor molecule, donor type, donor heavy atom, donor atom, acceptor molecule, acceptor atom, score
      P1  H  7997  8009       L1    19  0.94
      P1  H 10752 10765       L1     1  2.00

> <Gold.PLP.Chemscore.Internal.Correction>
0.0439

> <Gold.Rescore>
     Score         DG    S(hbond)    S(metal)    S(lipo)     H(rot)  DE(clash)    DE(int)     intcor
     18.05     -18.73       1.99        0.00     102.97       2.13       0.05       0.63       ----

> <Gold.Chemscore.Fitness>
18.0536

> <Gold.Chemscore.DG>
-18.7288

> <Gold.Chemscore.ZeroCoef>
-5.4800

> <Gold.Chemscore.Hbond>
1.9907

> <Gold.Chemscore.Metal>
0.0000

> <Gold.Chemscore.Lipo>
102.9746

> <Gold.Chemscore.Internal_Hbond>
0.0000

> <Gold.Chemscore.DEClash>
0.0460

> <Gold.Chemscore.DEInternal>
0.6291

> <Gold.Chemscore.Rot>
2.1282

> <Gold.Chemscore.Internal.Correction>
   9.000000E+99

> <Gold.Chemscore.Hbonds>
donor molecule, donor type, donor heavy atom, donor atom, acceptor molecule, acceptor atom, score
      P1  H  7997  8009       L1    19  0.88
      P1  H 10752 10765       L1     1  1.00

> <Gold.Chemscore.Hbond.Weighted>
-6.6488

> <Gold.Chemscore.Metal.Weighted>
-0.0000

> <Gold.Chemscore.Lipo.Weighted>
-12.0480

> <Gold.Chemscore.Internal_Hbond.Weighted>
0.0000

> <Gold.Chemscore.DEClash.Weighted>
0.0460

> <Gold.Chemscore.DEInternal.Weighted>
0.6291

> <Gold.Chemscore.Rot.Weighted>
5.4481

> <Gold.Chemscore.Internal.Correction.Weighted>
   9.000000E+99

> <Gold.Protein.RotatedTorsions>
[ 6907 6896 6895 6894 ] final -166.42 input  -60.11 | X-H torsion
[ 7974 7965 7964 7962 ] final  -85.01 input  175.53 | X-H torsion
[ 8008 7997 7996 7995 ] final  179.58 input   59.86 | X-H torsion
[ 10167 10162 10161 10158 ] final  127.36 input  -65.29 | X-H torsion
[ 10718 10713 10712 10709 ] final  105.26 input   66.30 | X-H torsion
[ 10763 10752 10751 10750 ] final  176.20 input  -60.55 | X-H torsion
[ 11005 11000 10999 10996 ] final   61.47 input  -57.11 | X-H torsion

> <Gold.Protein.ActiveResidues>
 VAL166  LYS551  ARG553  GLY616  TRP617  ASP618  TYR619  PRO620  LYS621  CYS622 
 ASP623  PHE694  ASN695  SER759  ASP760  ASP761  ALA762  ILE779  LEU786  VAL792 
 PHE793  MET794  SER795  GLU796  ALA797  LYS798  CYS799  TRP800  GLU811  SER814 

> <Gold.Protein.RotatedAtoms>
  151.4434  133.3637  159.2784 H   0  0  0  0  0  0  0  0  0  0  0  0  # atno 6907 bound_to 6896
  150.9142  134.8560  159.7456 H   0  0  0  0  0  0  0  0  0  0  0  0  # atno 6908 bound_to 6896
  152.4948  134.4366  159.9582 H   0  0  0  0  0  0  0  0  0  0  0  0  # atno 6909 bound_to 6896
  145.4989  140.9548  143.1770 H   0  0  0  0  0  0  0  0  0  0  0  0  # atno 7974 bound_to 7965
  156.0418  140.1305  157.0147 H   0  0  0  0  0  0  0  0  0  0  0  0  # atno 8008 bound_to 7997
  154.4394  140.1028  156.6318 H   0  0  0  0  0  0  0  0  0  0  0  0  # atno 8009 bound_to 7997
  155.5655  140.3465  155.4504 H   0  0  0  0  0  0  0  0  0  0  0  0  # atno 8010 bound_to 7997
  139.5582  144.6864  151.4119 H   0  0  0  0  0  0  0  0  0  0  0  0  # atno 10167 bound_to 10162
  157.6712  131.0823  150.5829 H   0  0  0  0  0  0  0  0  0  0  0  0  # atno 10718 bound_to 10713
  154.4779  135.2773  155.1593 H   0  0  0  0  0  0  0  0  0  0  0  0  # atno 10763 bound_to 10752
  154.3315  135.6189  153.5557 H   0  0  0  0  0  0  0  0  0  0  0  0  # atno 10764 bound_to 10752
  152.9872  135.5766  154.5174 H   0  0  0  0  0  0  0  0  0  0  0  0  # atno 10765 bound_to 10752
  140.0159  134.6225  155.9710 H   0  0  0  0  0  0  0  0  0  0  0  0  # atno 11005 bound_to 11000
  144.7791  139.6565  143.7162 LP  0  0  0  0  0  0  0  0  0  0  0  0  # atno 17320 bound_to 7965
  146.2238  139.5685  142.9601 LP  0  0  0  0  0  0  0  0  0  0  0  0  # atno 17321 bound_to 7965
  140.6859  143.7976  150.7185 LP  0  0  0  0  0  0  0  0  0  0  0  0  # atno 17342 bound_to 10162
  140.1443  143.4413  152.2173 LP  0  0  0  0  0  0  0  0  0  0  0  0  # atno 17343 bound_to 10162
  156.6130  130.4385  149.5852 LP  0  0  0  0  0  0  0  0  0  0  0  0  # atno 17370 bound_to 10713
  156.2415  130.6854  151.1560 LP  0  0  0  0  0  0  0  0  0  0  0  0  # atno 17371 bound_to 10713
  141.1742  133.6539  156.4766 LP  0  0  0  0  0  0  0  0  0  0  0  0  # atno 17394 bound_to 11000
  140.4472  134.6962  157.5021 LP  0  0  0  0  0  0  0  0  0  0  0  0  # atno 17395 bound_to 11000

$$$$
