AV-unprocessed.smi:54|AV-procd|sdf|536|dock9
  -GOLD-   2262016423D 1   1.00000     0.00000
 Structure written by MMmdl.
 44 46  0  0  0  0  0  0  0  0  1 V2000
  152.1855  138.5716  154.7435 C   0  0  0  0  0  0  0  0  0  0  0  0
  150.8345  138.4314  155.4629 C   0  0  0  0  0  0  0  0  0  0  0  0
  150.8416  139.1679  156.8125 C   0  0  0  0  0  0  0  0  0  0  0  0
  150.4780  136.9526  155.6521 C   0  0  0  0  0  0  0  0  0  0  0  0
  151.2071  136.1802  156.2754 O   0  0  0  0  0  0  0  0  0  0  0  0
  149.2304  136.5307  155.0404 N   0  0  0  0  0  0  0  0  0  0  0  0
  148.6875  135.2910  155.0486 C   0  0  0  0  0  0  0  0  0  0  0  0
  148.0501  134.7695  154.0098 N   0  0  0  0  0  0  0  0  0  0  0  0
  147.5752  133.5039  154.2126 C   0  0  0  0  0  0  0  0  0  0  0  0
  147.7008  132.7504  155.3609 C   0  0  0  0  0  0  0  0  0  0  0  0
  147.0861  131.5143  155.1921 N   0  0  0  0  0  0  0  0  0  0  0  0
  146.6173  131.5569  153.9758 C   0  0  0  0  0  0  0  0  0  0  0  0
  146.8748  132.7331  153.3122 N   0  0  0  0  0  0  0  0  0  0  0  0
  146.4956  133.1423  151.9269 C   0  0  1  0  0  0  0  0  0  0  0  0
  145.6717  132.1692  151.3777 O   0  0  0  0  0  0  0  0  0  0  0  0
  144.8948  132.7532  150.3365 C   0  0  1  0  0  0  0  0  0  0  0  0
  143.4944  132.1229  150.3744 C   0  0  0  0  0  0  0  0  0  0  0  0
  142.9199  132.1270  149.0846 O   0  0  0  0  0  0  0  0  0  0  0  0
  144.9040  134.2761  150.5967 C   0  0  2  0  0  0  0  0  0  0  0  0
  145.5848  134.9255  149.5403 O   0  0  0  0  0  0  0  0  0  0  0  0
  145.6871  134.4411  151.8938 C   0  0  1  0  0  0  0  0  0  0  0  0
  144.8129  134.5755  153.0007 O   0  0  0  0  0  0  0  0  0  0  0  0
  148.3948  133.2976  156.4909 C   0  0  0  0  0  0  0  0  0  0  0  0
  148.6040  132.7746  157.5833 O   0  0  0  0  0  0  0  0  0  0  0  0
  148.8647  134.5944  156.2444 N   0  0  0  0  0  0  0  0  0  0  0  0
  147.4313  133.2022  151.3684 H   0  0  0  0  0  0  0  0  0  0  0  0
  145.3817  132.5125  149.3895 H   0  0  0  0  0  0  0  0  0  0  0  0
  143.9013  134.7007  150.6670 H   0  0  0  0  0  0  0  0  0  0  0  0
  146.3621  135.2984  151.8835 H   0  0  0  0  0  0  0  0  0  0  0  0
  152.1797  138.0509  153.7850 H   0  0  0  0  0  0  0  0  0  0  0  0
  153.0025  138.1627  155.3396 H   0  0  0  0  0  0  0  0  0  0  0  0
  152.4138  139.6189  154.5443 H   0  0  0  0  0  0  0  0  0  0  0  0
  150.0680  138.8883  154.8353 H   0  0  0  0  0  0  0  0  0  0  0  0
  149.8852  139.0635  157.3264 H   0  0  0  0  0  0  0  0  0  0  0  0
  151.0230  140.2339  156.6731 H   0  0  0  0  0  0  0  0  0  0  0  0
  151.6192  138.7855  157.4753 H   0  0  0  0  0  0  0  0  0  0  0  0
  148.7259  137.2418  154.5323 H   0  0  0  0  0  0  0  0  0  0  0  0
  146.0713  130.7354  153.5356 H   0  0  0  0  0  0  0  0  0  0  0  0
  143.5564  131.0895  150.7165 H   0  0  0  0  0  0  0  0  0  0  0  0
  142.8453  132.6552  151.0703 H   0  0  0  0  0  0  0  0  0  0  0  0
  142.5265  132.9729  148.9335 H   0  0  0  0  0  0  0  0  0  0  0  0
  145.8394  134.2748  148.9038 H   0  0  0  0  0  0  0  0  0  0  0  0
  145.3149  134.8768  153.7421 H   0  0  0  0  0  0  0  0  0  0  0  0
  149.3624  135.0439  156.9985 H   0  0  0  0  0  0  0  0  0  0  0  0
  1  2  1  0  0  0  0
  1 30  1  0  0  0  0
  1 31  1  0  0  0  0
  1 32  1  0  0  0  0
  2  3  1  0  0  0  0
  2  4  1  0  0  0  0
  2 33  1  0  0  0  0
  3 34  1  0  0  0  0
  3 35  1  0  0  0  0
  3 36  1  0  0  0  0
  4  5  2  0  0  0  0
  4  6  1  0  0  0  0
  6 37  1  0  0  0  0
  6  7  1  0  0  0  0
  7 25  1  0  0  0  0
  7  8  2  0  0  0  0
  8  9  1  0  0  0  0
  9 13  1  0  0  0  0
  9 10  2  0  0  0  0
 10 11  1  0  0  0  0
 10 23  1  0  0  0  0
 11 12  2  0  0  0  0
 12 13  1  0  0  0  0
 12 38  1  0  0  0  0
 13 14  1  0  0  0  0
 14 26  1  0  0  0  0
 14 21  1  0  0  0  0
 14 15  1  0  0  0  0
 15 16  1  0  0  0  0
 16 27  1  0  0  0  0
 16 17  1  0  0  0  0
 16 19  1  0  0  0  0
 17 18  1  0  0  0  0
 17 39  1  0  0  0  0
 17 40  1  0  0  0  0
 18 41  1  0  0  0  0
 19 28  1  0  0  0  0
 19 20  1  0  0  0  0
 19 21  1  0  0  0  0
 20 42  1  0  0  0  0
 21 29  1  0  0  0  0
 21 22  1  0  0  0  0
 22 43  1  0  0  0  0
 23 24  2  0  0  0  0
 23 25  1  0  0  0  0
 25 44  1  0  0  0  0
M  END
> <s_m_source_file>
AV-unprocessed.smi

> <i_m_source_file_index>
54

> <i_lp_mmshare_version>
43012

> <i_f3d_flags>
0

> <s_epik_input>
W0NIM11bQ0hdKFtDSDNdKUMoPU8pW05IXWMobjEpW25IXWMoPU8pYyhjMTIpbltjSF1uMltDQEBIXTNPW0NASF0oW0NIMl1bT0hdKVtDQEBIXShbT0hdKVtDQEhdM1tPSF0=

> <s_epik_cmdline>
J2VwaWtfcHl0aG9uJywgJy1waCcsICc3LjAnLCAnLXRuJywgJzgnLCAnLW1hJywgJzIwMCcsICctbWV0YWxfYmluZGluZycsICctaW1hZScsICc8aW5maWxlLm1hZT4nLCAnLW9tYWUnLCAnPG91dGZpbGUubWFlPic=

> <r_lp_tautomer_probability>
0.85571

> <r_epik_Ionization_Penalty>
0.0316551

> <r_epik_Ionization_Penalty_Charging>
0.0316043

> <r_epik_Ionization_Penalty_Neutral>
5.07097e-05

> <r_epik_State_Penalty>
3.15494e-07

> <r_epik_Charging_Adjusted_Penalty>
0.0316047

> <i_epik_Tot_Q>
0

> <i_epik_Tot_abs_Q>
0

> <r_epik_Metal_State_Penalty>
0.421206

> <b_epik_Metal_Only>
0

> <s_epik_Chemistry_Notes>
This compound contains an acetal/aminal-like group ( X-CH(R)-Y where X, Y are N, S, or O) that may be acid/base labile, releasing an aldehyde.

> <s_lp_Force_Field>
OPLS_2005

> <r_lp_Energy>
42.5501

> <b_lp_Chiralities_Consistent>
1

> <s_lp_Variant>
AV-unprocessed.smi:54-8

> <Gold.Version>
5.8.1

> <Gold.Id.Protein>
6NUR|6NUR_protein|mol2

> <Gold.PLP.Fitness>
44.9252

> <Gold.PLP.PLP>
-36.0186

> <Gold.PLP.part.hbond>
-4.7900

> <Gold.PLP.part.metal>
0.0000

> <Gold.PLP.part.buried>
-7.6389

> <Gold.PLP.part.nonpolar>
-27.5902

> <Gold.PLP.part.repulsive>
3.7570

> <Gold.PLP.ligand.clash>
0.0000

> <Gold.PLP.ligand.torsion>
0.7253

> <Gold.PLP.Chemscore.Hbond>
3.4430

> <Gold.PLP.Chemscore.CHOScore>
0.0000

> <Gold.PLP.Chemscore.Metal>
0.0000

> <Gold.Chemscore.Hbonds>
donor molecule, donor type, donor heavy atom, donor atom, acceptor molecule, acceptor atom, score
      L1  H    18    41       P1 10186  0.60
      L1  H    20    42       P1  7921  0.20
      P1  H 10752 10763       L1     5  0.02
      P1  H 10785 10796       L1    18  0.79

> <Gold.PLP.Chemscore.Internal.Correction>
0.0281

> <Gold.Rescore>
     Score         DG    S(hbond)    S(metal)    S(lipo)     H(rot)  DE(clash)    DE(int)     intcor
      8.78     -10.84       2.99        0.00      49.19       4.05       1.45       0.62       ----

> <Gold.Chemscore.Fitness>
8.7762

> <Gold.Chemscore.DG>
-10.8442

> <Gold.Chemscore.ZeroCoef>
-5.4800

> <Gold.Chemscore.Hbond>
2.9867

> <Gold.Chemscore.Metal>
0.0000

> <Gold.Chemscore.Lipo>
49.1858

> <Gold.Chemscore.Internal_Hbond>
0.0000

> <Gold.Chemscore.DEClash>
1.4501

> <Gold.Chemscore.DEInternal>
0.6179

> <Gold.Chemscore.Rot>
4.0493

> <Gold.Chemscore.Internal.Correction>
   9.000000E+99

> <Gold.Chemscore.Hbonds>
donor molecule, donor type, donor heavy atom, donor atom, acceptor molecule, acceptor atom, score
      L1  H    18    41       P1 10186  0.57
      L1  H    20    42       P1  7921  0.11
      P1  H 10752 10763       L1     5  0.07
      P1  H 10785 10796       L1    18  0.11

> <Gold.Chemscore.Hbond.Weighted>
-9.9757

> <Gold.Chemscore.Metal.Weighted>
-0.0000

> <Gold.Chemscore.Lipo.Weighted>
-5.7547

> <Gold.Chemscore.Internal_Hbond.Weighted>
0.0000

> <Gold.Chemscore.DEClash.Weighted>
1.4501

> <Gold.Chemscore.DEInternal.Weighted>
0.6179

> <Gold.Chemscore.Rot.Weighted>
10.3662

> <Gold.Chemscore.Internal.Correction.Weighted>
   9.000000E+99

> <Gold.Protein.RotatedTorsions>
[ 6907 6896 6895 6894 ] final   52.31 input  -60.11 | X-H torsion
[ 7974 7965 7964 7962 ] final   52.95 input  175.53 | X-H torsion
[ 8008 7997 7996 7995 ] final -100.28 input   59.86 | X-H torsion
[ 10167 10162 10161 10158 ] final   52.16 input  -65.29 | X-H torsion
[ 10718 10713 10712 10709 ] final   15.92 input   66.30 | X-H torsion
[ 10763 10752 10751 10750 ] final   96.98 input  -60.55 | X-H torsion
[ 11005 11000 10999 10996 ] final  128.09 input  -57.11 | X-H torsion

> <Gold.Protein.ActiveResidues>
 VAL166  LYS551  ARG553  GLY616  TRP617  ASP618  TYR619  PRO620  LYS621  CYS622 
 ASP623  PHE694  ASN695  SER759  ASP760  ASP761  ALA762  ILE779  LEU786  VAL792 
 PHE793  MET794  SER795  GLU796  ALA797  LYS798  CYS799  TRP800  GLU811  SER814 

> <Gold.Protein.RotatedAtoms>
  152.3219  134.7369  160.0311 H   0  0  0  0  0  0  0  0  0  0  0  0  # atno 6907 bound_to 6896
  151.7814  133.3345  159.3481 H   0  0  0  0  0  0  0  0  0  0  0  0  # atno 6908 bound_to 6896
  150.7375  134.5858  159.6006 H   0  0  0  0  0  0  0  0  0  0  0  0  # atno 6909 bound_to 6896
  145.9761  139.4197  143.0160 H   0  0  0  0  0  0  0  0  0  0  0  0  # atno 7974 bound_to 7965
  154.8264  140.0442  157.1447 H   0  0  0  0  0  0  0  0  0  0  0  0  # atno 8008 bound_to 7997
  154.9201  140.3025  155.5200 H   0  0  0  0  0  0  0  0  0  0  0  0  # atno 8009 bound_to 7997
  156.2984  140.2342  156.4250 H   0  0  0  0  0  0  0  0  0  0  0  0  # atno 8010 bound_to 7997
  140.2543  144.3444  150.6338 H   0  0  0  0  0  0  0  0  0  0  0  0  # atno 10167 bound_to 10162
  157.0604  130.6306  149.5785 H   0  0  0  0  0  0  0  0  0  0  0  0  # atno 10718 bound_to 10713
  153.2714  135.4199  155.0991 H   0  0  0  0  0  0  0  0  0  0  0  0  # atno 10763 bound_to 10752
  154.8457  135.3473  154.6238 H   0  0  0  0  0  0  0  0  0  0  0  0  # atno 10764 bound_to 10752
  153.6658  135.7046  153.5220 H   0  0  0  0  0  0  0  0  0  0  0  0  # atno 10765 bound_to 10752
  139.9542  134.9616  156.8951 H   0  0  0  0  0  0  0  0  0  0  0  0  # atno 11005 bound_to 11000
  145.7836  140.9845  143.1086 LP  0  0  0  0  0  0  0  0  0  0  0  0  # atno 17320 bound_to 7965
  144.6849  139.9595  143.7480 LP  0  0  0  0  0  0  0  0  0  0  0  0  # atno 17321 bound_to 7965
  140.6016  143.2167  151.7061 LP  0  0  0  0  0  0  0  0  0  0  0  0  # atno 17342 bound_to 10162
  139.5036  144.3784  152.0400 LP  0  0  0  0  0  0  0  0  0  0  0  0  # atno 17343 bound_to 10162
  155.9980  130.5053  150.7555 LP  0  0  0  0  0  0  0  0  0  0  0  0  # atno 17370 bound_to 10713
  157.4959  131.0914  151.0372 LP  0  0  0  0  0  0  0  0  0  0  0  0  # atno 17371 bound_to 10713
  140.5647  134.0500  155.7410 LP  0  0  0  0  0  0  0  0  0  0  0  0  # atno 17394 bound_to 11000
  141.1211  133.9460  157.2728 LP  0  0  0  0  0  0  0  0  0  0  0  0  # atno 17395 bound_to 11000

$$$$
