AV-unprocessed.smi:2252|AV-procd|sdf|9112|dock7
  -GOLD-   2272012313D 1   1.00000     0.00000
 Structure written by MMmdl.
 44 46  0  0  0  0  0  0  0  0  3 V2000
  153.2377  141.7624  160.2795 C   0  0  0  0  0  0  0  0  0  0  0  0
  152.5821  142.7111  159.3993 N   0  0  0  0  0  0  0  0  0  0  0  0
  152.3919  144.0617  159.6606 C   0  0  0  0  0  0  0  0  0  0  0  0
  151.7392  144.5862  158.5720 C   0  0  0  0  0  0  0  0  0  0  0  0
  151.5211  143.5809  157.6368 N   0  0  0  0  0  0  0  0  0  0  0  0
  152.0411  142.4823  158.1834 C   0  0  0  0  0  0  0  0  0  0  0  0
  152.0400  141.1320  157.5173 C   0  0  0  0  0  0  0  0  0  0  0  0
  150.6667  140.6964  156.9580 C   0  0  0  0  0  0  0  0  0  0  0  0
  150.7822  139.4066  156.2805 N   0  5  0  0  0  0  0  0  0  0  0  0
  150.4938  139.2107  154.9618 C   0  0  0  0  0  0  0  0  0  0  0  0
  151.2293  139.2395  153.9703 O   0  0  0  0  0  0  0  0  0  0  0  0
  148.9973  138.9116  154.7466 C   0  0  1  0  0  0  0  0  0  0  0  0
  148.3822  139.9564  153.7858 C   0  0  0  0  0  0  0  0  0  0  0  0
  148.2211  141.3997  154.2135 C   0  0  0  0  0  0  0  0  0  0  0  0
  147.0033  140.5322  154.0275 C   0  0  0  0  0  0  0  0  0  0  0  0
  148.7639  137.5162  154.2759 N   0  3  0  0  0  0  0  0  0  0  0  0
  149.5386  136.4692  154.9759 C   0  0  0  0  0  0  0  0  0  0  0  0
  148.8328  135.1659  154.6207 C   0  0  0  0  0  0  0  0  0  0  0  0
  147.3582  135.5600  154.5780 C   0  0  0  0  0  0  0  0  0  0  0  0
  147.3512  137.0666  154.2782 C   0  0  0  0  0  0  0  0  0  0  0  0
  153.5184  142.2479  161.2143 H   0  0  0  0  0  0  0  0  0  0  0  0
  154.1366  141.3745  159.8002 H   0  0  0  0  0  0  0  0  0  0  0  0
  152.5628  140.9357  160.5021 H   0  0  0  0  0  0  0  0  0  0  0  0
  152.7289  144.5265  160.5754 H   0  0  0  0  0  0  0  0  0  0  0  0
  151.4136  145.5997  158.3904 H   0  0  0  0  0  0  0  0  0  0  0  0
  152.7707  141.1613  156.7079 H   0  0  0  0  0  0  0  0  0  0  0  0
  152.4105  140.3855  158.2205 H   0  0  0  0  0  0  0  0  0  0  0  0
  149.9568  140.6328  157.7830 H   0  0  0  0  0  0  0  0  0  0  0  0
  150.2772  141.4743  156.3000 H   0  0  0  0  0  0  0  0  0  0  0  0
  148.5048  139.0122  155.7156 H   0  0  0  0  0  0  0  0  0  0  0  0
  148.6648  139.8140  152.7439 H   0  0  0  0  0  0  0  0  0  0  0  0
  148.4997  141.6612  155.2327 H   0  0  0  0  0  0  0  0  0  0  0  0
  148.4144  142.1668  153.4665 H   0  0  0  0  0  0  0  0  0  0  0  0
  146.3795  140.7195  153.1560 H   0  0  0  0  0  0  0  0  0  0  0  0
  146.4704  140.2222  154.9242 H   0  0  0  0  0  0  0  0  0  0  0  0
  150.5872  136.4626  154.6764 H   0  0  0  0  0  0  0  0  0  0  0  0
  149.4932  136.6342  156.0537 H   0  0  0  0  0  0  0  0  0  0  0  0
  149.1547  134.8315  153.6335 H   0  0  0  0  0  0  0  0  0  0  0  0
  149.0389  134.3646  155.3309 H   0  0  0  0  0  0  0  0  0  0  0  0
  146.8037  134.9862  153.8346 H   0  0  0  0  0  0  0  0  0  0  0  0
  146.8957  135.3760  155.5487 H   0  0  0  0  0  0  0  0  0  0  0  0
  146.7775  137.5833  155.0483 H   0  0  0  0  0  0  0  0  0  0  0  0
  146.8918  137.2866  153.3141 H   0  0  0  0  0  0  0  0  0  0  0  0
  149.0717  137.4893  153.3139 H   0  0  0  0  0  0  0  0  0  0  0  0
  1  2  1  0  0  0  0
  1 21  1  0  0  0  0
  1 22  1  0  0  0  0
  1 23  1  0  0  0  0
  2  6  1  0  0  0  0
  2  3  1  0  0  0  0
  3  4  2  0  0  0  0
  3 24  1  0  0  0  0
  4  5  1  0  0  0  0
  4 25  1  0  0  0  0
  5  6  2  0  0  0  0
  6  7  1  0  0  0  0
  7  8  1  0  0  0  0
  7 26  1  0  0  0  0
  7 27  1  0  0  0  0
  8  9  1  0  0  0  0
  8 28  1  0  0  0  0
  8 29  1  0  0  0  0
  9 10  1  0  0  0  0
 10 11  2  0  0  0  0
 10 12  1  0  0  0  0
 12 13  1  0  0  0  0
 12 16  1  0  0  0  0
 12 30  1  0  0  0  0
 13 15  1  0  0  0  0
 13 14  1  0  0  0  0
 13 31  1  0  0  0  0
 14 15  1  0  0  0  0
 14 32  1  0  0  0  0
 14 33  1  0  0  0  0
 15 34  1  0  0  0  0
 15 35  1  0  0  0  0
 16 20  1  0  0  0  0
 16 17  1  0  0  0  0
 16 44  1  0  0  0  0
 17 18  1  0  0  0  0
 17 36  1  0  0  0  0
 17 37  1  0  0  0  0
 18 19  1  0  0  0  0
 18 38  1  0  0  0  0
 18 39  1  0  0  0  0
 19 20  1  0  0  0  0
 19 40  1  0  0  0  0
 19 41  1  0  0  0  0
 20 42  1  0  0  0  0
 20 43  1  0  0  0  0
M  CHG  1   9  -1
M  CHG  1  16   1
M  END
> <s_m_source_file>
AV-unprocessed.smi

> <i_m_source_file_index>
2252

> <i_lp_mmshare_version>
43012

> <i_f3d_flags>
0

> <s_epik_input>
W0NIM11uMVtjSF1bY0hdbmMxW0NIMl1bQ0gyXVtOSF1DKD1PKVtDQEhdKFtDSF0yW0NIMl1bQ0gyXTIpTjNbQ0gyXVtDSDJdW0NIMl1bQ0gyXTM=

> <s_epik_cmdline>
J2VwaWtfcHl0aG9uJywgJy1waCcsICc3LjAnLCAnLXRuJywgJzgnLCAnLW1hJywgJzIwMCcsICctbWV0YWxfYmluZGluZycsICctaW1hZScsICc8aW5maWxlLm1hZT4nLCAnLW9tYWUnLCAnPG91dGZpbGUubWFlPic=

> <r_lp_tautomer_probability>
1

> <r_epik_Ionization_Penalty>
7.86289

> <r_epik_Ionization_Penalty_Charging>
7.86289

> <r_epik_Ionization_Penalty_Neutral>
4.79398e-13

> <r_epik_State_Penalty>
7.18546

> <r_epik_Charging_Adjusted_Penalty>
15.0484

> <i_epik_Tot_Q>
0

> <i_epik_Tot_abs_Q>
2

> <r_epik_Metal_State_Penalty>
3.4294

> <b_epik_Metal_Only>
1

> <s_lp_Force_Field>
OPLS_2005

> <r_lp_Energy>
30.1163

> <b_lp_Chiralities_Consistent>
1

> <s_lp_Variant>
AV-unprocessed.smi:2252-10

> <Gold.Version>
5.8.1

> <Gold.Id.Protein>
6NUR|6NUR_protein|mol2

> <Gold.PLP.Fitness>
41.0178

> <Gold.PLP.PLP>
-34.3405

> <Gold.PLP.part.hbond>
-2.0000

> <Gold.PLP.part.metal>
0.0000

> <Gold.PLP.part.buried>
-1.8542

> <Gold.PLP.part.nonpolar>
-31.1087

> <Gold.PLP.part.repulsive>
0.2994

> <Gold.PLP.ligand.clash>
0.0000

> <Gold.PLP.ligand.torsion>
1.6387

> <Gold.PLP.Chemscore.Hbond>
2.9200

> <Gold.PLP.Chemscore.CHOScore>
0.0000

> <Gold.PLP.Chemscore.Metal>
0.0000

> <Gold.Chemscore.Hbonds>
donor molecule, donor type, donor heavy atom, donor atom, acceptor molecule, acceptor atom, score
      L1  H    16    44       P1  7948  1.47
      P1  H  7989  7998       L1    11  1.00

> <Gold.PLP.Chemscore.Internal.Correction>
1.1948

> <Gold.Rescore>
     Score         DG    S(hbond)    S(metal)    S(lipo)     H(rot)  DE(clash)    DE(int)     intcor
     13.50     -15.29       1.51        0.00      81.76       1.88       0.27       1.52       ----

> <Gold.Chemscore.Fitness>
13.5024

> <Gold.Chemscore.DG>
-15.2884

> <Gold.Chemscore.ZeroCoef>
-5.4800

> <Gold.Chemscore.Hbond>
1.5147

> <Gold.Chemscore.Metal>
0.0000

> <Gold.Chemscore.Lipo>
81.7570

> <Gold.Chemscore.Internal_Hbond>
0.0000

> <Gold.Chemscore.DEClash>
0.2684

> <Gold.Chemscore.DEInternal>
1.5176

> <Gold.Chemscore.Rot>
1.8814

> <Gold.Chemscore.Internal.Correction>
   9.000000E+99

> <Gold.Chemscore.Hbonds>
donor molecule, donor type, donor heavy atom, donor atom, acceptor molecule, acceptor atom, score
      L1  H    16    44       P1  7948  0.74
      P1  H  7989  7998       L1    11  0.85

> <Gold.Chemscore.Hbond.Weighted>
-5.0591

> <Gold.Chemscore.Metal.Weighted>
-0.0000

> <Gold.Chemscore.Lipo.Weighted>
-9.5656

> <Gold.Chemscore.Internal_Hbond.Weighted>
0.0000

> <Gold.Chemscore.DEClash.Weighted>
0.2684

> <Gold.Chemscore.DEInternal.Weighted>
1.5176

> <Gold.Chemscore.Rot.Weighted>
4.8163

> <Gold.Chemscore.Internal.Correction.Weighted>
   9.000000E+99

> <Gold.Protein.RotatedTorsions>
[ 6907 6896 6895 6894 ] final  128.84 input  -60.11 | X-H torsion
[ 7974 7965 7964 7962 ] final -164.13 input  175.53 | X-H torsion
[ 8008 7997 7996 7995 ] final  -42.18 input   59.86 | X-H torsion
[ 10167 10162 10161 10158 ] final  -40.22 input  -65.29 | X-H torsion
[ 10718 10713 10712 10709 ] final  102.80 input   66.30 | X-H torsion
[ 10763 10752 10751 10750 ] final  -10.89 input  -60.55 | X-H torsion
[ 11005 11000 10999 10996 ] final    5.71 input  -57.11 | X-H torsion

> <Gold.Protein.ActiveResidues>
 VAL166  LYS551  ARG553  GLY616  TRP617  ASP618  TYR619  PRO620  LYS621  CYS622 
 ASP623  PHE694  ASN695  SER759  ASP760  ASP761  ALA762  ILE779  LEU786  VAL792 
 PHE793  MET794  SER795  GLU796  ALA797  LYS798  CYS799  TRP800  GLU811  SER814 

> <Gold.Protein.RotatedAtoms>
  152.3681  133.6383  159.6065 H   0  0  0  0  0  0  0  0  0  0  0  0  # atno 6907 bound_to 6896
  150.7648  133.9315  159.3437 H   0  0  0  0  0  0  0  0  0  0  0  0  # atno 6908 bound_to 6896
  151.7142  135.0908  160.0324 H   0  0  0  0  0  0  0  0  0  0  0  0  # atno 6909 bound_to 6896
  144.7305  140.3005  143.6205 H   0  0  0  0  0  0  0  0  0  0  0  0  # atno 7974 bound_to 7965
  154.4000  140.1480  156.3313 H   0  0  0  0  0  0  0  0  0  0  0  0  # atno 8008 bound_to 7997
  155.8441  140.3460  155.5629 H   0  0  0  0  0  0  0  0  0  0  0  0  # atno 8009 bound_to 7997
  155.8055  140.0876  157.1923 H   0  0  0  0  0  0  0  0  0  0  0  0  # atno 8010 bound_to 7997
  140.7041  143.3167  151.2893 H   0  0  0  0  0  0  0  0  0  0  0  0  # atno 10167 bound_to 10162
  157.6791  131.0762  150.5459 H   0  0  0  0  0  0  0  0  0  0  0  0  # atno 10718 bound_to 10713
  153.4758  135.7017  153.5967 H   0  0  0  0  0  0  0  0  0  0  0  0  # atno 10763 bound_to 10752
  153.4201  135.3827  155.2106 H   0  0  0  0  0  0  0  0  0  0  0  0  # atno 10764 bound_to 10752
  154.8723  135.3925  154.4202 H   0  0  0  0  0  0  0  0  0  0  0  0  # atno 10765 bound_to 10752
  140.5677  134.0132  155.7996 H   0  0  0  0  0  0  0  0  0  0  0  0  # atno 11005 bound_to 11000
  145.7765  139.1876  143.2182 LP  0  0  0  0  0  0  0  0  0  0  0  0  # atno 17320 bound_to 7965
  146.0869  140.7701  142.9614 LP  0  0  0  0  0  0  0  0  0  0  0  0  # atno 17321 bound_to 7965
  139.6607  144.0194  152.2690 LP  0  0  0  0  0  0  0  0  0  0  0  0  # atno 17342 bound_to 10162
  139.9760  144.6461  150.7944 LP  0  0  0  0  0  0  0  0  0  0  0  0  # atno 17343 bound_to 10162
  156.5765  130.4293  149.5996 LP  0  0  0  0  0  0  0  0  0  0  0  0  # atno 17370 bound_to 10713
  156.2697  130.7010  151.1803 LP  0  0  0  0  0  0  0  0  0  0  0  0  # atno 17371 bound_to 10713
  141.1075  133.9669  157.2969 LP  0  0  0  0  0  0  0  0  0  0  0  0  # atno 17394 bound_to 11000
  139.9377  135.0195  156.8608 LP  0  0  0  0  0  0  0  0  0  0  0  0  # atno 17395 bound_to 11000

$$$$
