AV-unprocessed.smi:1952|AV-procd|sdf|7883|dock9
  -GOLD-   2272010 33D 1   1.00000     0.00000
 Structure written by MMmdl.
 39 40  0  0  0  0  0  0  0  0  1 V2000
  153.6195  141.8108  160.9477 C   0  0  0  0  0  0  0  0  0  0  0  0
  152.8310  142.4190  159.8390 C   0  0  0  0  0  0  0  0  0  0  0  0
  151.9892  141.8942  158.8990 C   0  0  0  0  0  0  0  0  0  0  0  0
  151.5834  143.0366  158.1593 C   0  0  0  0  0  0  0  0  0  0  0  0
  150.6832  142.9158  157.0701 N   0  0  0  0  0  0  0  0  0  0  0  0
  150.3748  141.8037  156.3819 C   0  0  0  0  0  0  0  0  0  0  0  0
  150.8386  140.6844  156.6014 O   0  0  0  0  0  0  0  0  0  0  0  0
  149.4829  142.0648  155.4142 N   0  0  0  0  0  0  0  0  0  0  0  0
  148.9062  141.0854  154.4943 C   0  0  2  0  0  0  0  0  0  0  0  0
  147.7320  141.7330  153.7484 C   0  0  0  0  0  0  0  0  0  0  0  0
  148.4492  139.8291  155.2674 C   0  0  0  0  0  0  0  0  0  0  0  0
  149.4945  138.8472  155.5592 N   0  0  0  0  0  0  0  0  0  0  0  0
  148.9410  137.5010  155.6534 C   0  0  0  0  0  0  0  0  0  0  0  0
  150.0244  136.4562  155.9725 C   0  0  0  0  0  0  0  0  0  0  0  0
  151.0485  136.5135  154.9851 O   0  0  0  0  0  0  0  0  0  0  0  0
  151.6456  137.8025  154.8877 C   0  0  0  0  0  0  0  0  0  0  0  0
  150.5653  138.8488  154.5645 C   0  0  0  0  0  0  0  0  0  0  0  0
  152.1291  144.1574  158.6064 N   0  0  0  0  0  0  0  0  0  0  0  0
  152.9311  143.7672  159.6853 O   0  0  0  0  0  0  0  0  0  0  0  0
  153.5301  140.7245  160.9392 H   0  0  0  0  0  0  0  0  0  0  0  0
  153.2685  142.1717  161.9145 H   0  0  0  0  0  0  0  0  0  0  0  0
  154.6758  142.0635  160.8549 H   0  0  0  0  0  0  0  0  0  0  0  0
  151.7104  140.8595  158.7653 H   0  0  0  0  0  0  0  0  0  0  0  0
  150.2238  143.7678  156.7849 H   0  0  0  0  0  0  0  0  0  0  0  0
  149.1609  143.0163  155.3152 H   0  0  0  0  0  0  0  0  0  0  0  0
  149.6375  140.8025  153.7365 H   0  0  0  0  0  0  0  0  0  0  0  0
  147.2894  141.0363  153.0360 H   0  0  0  0  0  0  0  0  0  0  0  0
  148.0577  142.6110  153.1895 H   0  0  0  0  0  0  0  0  0  0  0  0
  146.9472  142.0480  154.4370 H   0  0  0  0  0  0  0  0  0  0  0  0
  148.0075  140.1623  156.2079 H   0  0  0  0  0  0  0  0  0  0  0  0
  147.6413  139.3423  154.7191 H   0  0  0  0  0  0  0  0  0  0  0  0
  148.1732  137.4693  156.4269 H   0  0  0  0  0  0  0  0  0  0  0  0
  148.4501  137.2362  154.7156 H   0  0  0  0  0  0  0  0  0  0  0  0
  150.4520  136.6324  156.9606 H   0  0  0  0  0  0  0  0  0  0  0  0
  149.5940  135.4548  155.9824 H   0  0  0  0  0  0  0  0  0  0  0  0
  152.1522  138.0485  155.8223 H   0  0  0  0  0  0  0  0  0  0  0  0
  152.4050  137.7862  154.1058 H   0  0  0  0  0  0  0  0  0  0  0  0
  150.1522  138.6481  153.5749 H   0  0  0  0  0  0  0  0  0  0  0  0
  151.0375  139.8287  154.5118 H   0  0  0  0  0  0  0  0  0  0  0  0
  1  2  1  0  0  0  0
  1 20  1  0  0  0  0
  1 21  1  0  0  0  0
  1 22  1  0  0  0  0
  2 19  1  0  0  0  0
  2  3  2  0  0  0  0
  3  4  1  0  0  0  0
  3 23  1  0  0  0  0
  4  5  1  0  0  0  0
  4 18  2  0  0  0  0
  5  6  1  0  0  0  0
  5 24  1  0  0  0  0
  6  7  2  0  0  0  0
  6  8  1  0  0  0  0
  8  9  1  0  0  0  0
  8 25  1  0  0  0  0
  9 10  1  0  0  0  0
  9 11  1  0  0  0  0
  9 26  1  0  0  0  0
 10 27  1  0  0  0  0
 10 28  1  0  0  0  0
 10 29  1  0  0  0  0
 11 12  1  0  0  0  0
 11 30  1  0  0  0  0
 11 31  1  0  0  0  0
 12 17  1  0  0  0  0
 12 13  1  0  0  0  0
 13 14  1  0  0  0  0
 13 32  1  0  0  0  0
 13 33  1  0  0  0  0
 14 15  1  0  0  0  0
 14 34  1  0  0  0  0
 14 35  1  0  0  0  0
 15 16  1  0  0  0  0
 16 17  1  0  0  0  0
 16 36  1  0  0  0  0
 16 37  1  0  0  0  0
 17 38  1  0  0  0  0
 17 39  1  0  0  0  0
 18 19  1  0  0  0  0
M  END
> <s_m_source_file>
AV-unprocessed.smi

> <i_m_source_file_index>
1952

> <i_lp_mmshare_version>
43012

> <i_f3d_flags>
0

> <s_epik_input>
W0NIM11jMVtjSF1jKG5vMSlbTkhdQyg9TylbTkhdW0NASF0oW0NIM10pW0NIMl1OMltDSDJdW0NIMl1PW0NIMl1bQ0gyXTI=

> <s_epik_cmdline>
J2VwaWtfcHl0aG9uJywgJy1waCcsICc3LjAnLCAnLXRuJywgJzgnLCAnLW1hJywgJzIwMCcsICctbWV0YWxfYmluZGluZycsICctaW1hZScsICc8aW5maWxlLm1hZT4nLCAnLW9tYWUnLCAnPG91dGZpbGUubWFlPic=

> <r_epik_Ionization_Penalty>
0.214075

> <r_epik_Ionization_Penalty_Charging>
0

> <r_epik_Ionization_Penalty_Neutral>
0.214075

> <r_epik_State_Penalty>
0.204211

> <r_epik_Charging_Adjusted_Penalty>
0.204211

> <i_epik_Tot_Q>
0

> <i_epik_Tot_abs_Q>
0

> <r_epik_Metal_State_Penalty>
0.218782

> <b_epik_Metal_Only>
0

> <s_lp_Force_Field>
OPLS_2005

> <r_lp_Energy>
23.1599

> <b_lp_Chiralities_Consistent>
1

> <s_lp_Variant>
AV-unprocessed.smi:1952-1

> <Gold.Version>
5.8.1

> <Gold.Id.Protein>
6NUR|6NUR_protein|mol2

> <Gold.PLP.Fitness>
43.6584

> <Gold.PLP.PLP>
-36.2990

> <Gold.PLP.part.hbond>
-3.0000

> <Gold.PLP.part.metal>
0.0000

> <Gold.PLP.part.buried>
-7.9429

> <Gold.PLP.part.nonpolar>
-26.6317

> <Gold.PLP.part.repulsive>
0.4762

> <Gold.PLP.ligand.clash>
0.0000

> <Gold.PLP.ligand.torsion>
0.8255

> <Gold.PLP.Chemscore.Hbond>
3.0000

> <Gold.PLP.Chemscore.CHOScore>
0.0000

> <Gold.PLP.Chemscore.Metal>
0.0000

> <Gold.Chemscore.Hbonds>
donor molecule, donor type, donor heavy atom, donor atom, acceptor molecule, acceptor atom, score
      L1  H     5    24       P1  8028  1.00
      L1  H     8    25       P1  8028  1.00
      P1  H 10752 10764       L1    15  0.40

> <Gold.PLP.Chemscore.Internal.Correction>
0.0105

> <Gold.Rescore>
     Score         DG    S(hbond)    S(metal)    S(lipo)     H(rot)  DE(clash)    DE(int)     intcor
     12.77     -19.82       2.89        0.00      74.15       1.56       0.00       7.05       ----

> <Gold.Chemscore.Fitness>
12.7660

> <Gold.Chemscore.DG>
-19.8195

> <Gold.Chemscore.ZeroCoef>
-5.4800

> <Gold.Chemscore.Hbond>
2.8911

> <Gold.Chemscore.Metal>
0.0000

> <Gold.Chemscore.Lipo>
74.1538

> <Gold.Chemscore.Internal_Hbond>
0.0000

> <Gold.Chemscore.DEClash>
0.0038

> <Gold.Chemscore.DEInternal>
7.0497

> <Gold.Chemscore.Rot>
1.5597

> <Gold.Chemscore.Internal.Correction>
   9.000000E+99

> <Gold.Chemscore.Hbonds>
donor molecule, donor type, donor heavy atom, donor atom, acceptor molecule, acceptor atom, score
      L1  H     5    24       P1  8028  0.94
      L1  H     8    25       P1  8028  1.00
      P1  H 10752 10764       L1    15  0.02

> <Gold.Chemscore.Hbond.Weighted>
-9.6563

> <Gold.Chemscore.Metal.Weighted>
-0.0000

> <Gold.Chemscore.Lipo.Weighted>
-8.6760

> <Gold.Chemscore.Internal_Hbond.Weighted>
0.0000

> <Gold.Chemscore.DEClash.Weighted>
0.0038

> <Gold.Chemscore.DEInternal.Weighted>
7.0497

> <Gold.Chemscore.Rot.Weighted>
3.9928

> <Gold.Chemscore.Internal.Correction.Weighted>
   9.000000E+99

> <Gold.Protein.RotatedTorsions>
[ 6907 6896 6895 6894 ] final  176.45 input  -60.11 | X-H torsion
[ 7974 7965 7964 7962 ] final   59.83 input  175.53 | X-H torsion
[ 8008 7997 7996 7995 ] final  -32.28 input   59.86 | X-H torsion
[ 10167 10162 10161 10158 ] final  -18.81 input  -65.29 | X-H torsion
[ 10718 10713 10712 10709 ] final -109.17 input   66.30 | X-H torsion
[ 10763 10752 10751 10750 ] final  -57.38 input  -60.55 | X-H torsion
[ 11005 11000 10999 10996 ] final  -80.25 input  -57.11 | X-H torsion

> <Gold.Protein.ActiveResidues>
 VAL166  LYS551  ARG553  GLY616  TRP617  ASP618  TYR619  PRO620  LYS621  CYS622 
 ASP623  PHE694  ASN695  SER759  ASP760  ASP761  ALA762  ILE779  LEU786  VAL792 
 PHE793  MET794  SER795  GLU796  ALA797  LYS798  CYS799  TRP800  GLU811  SER814 

> <Gold.Protein.RotatedAtoms>
  151.7199  133.3314  159.3312 H   0  0  0  0  0  0  0  0  0  0  0  0  # atno 6907 bound_to 6896
  150.7657  134.6458  159.6270 H   0  0  0  0  0  0  0  0  0  0  0  0  # atno 6908 bound_to 6896
  152.3659  134.6808  160.0244 H   0  0  0  0  0  0  0  0  0  0  0  0  # atno 6909 bound_to 6896
  145.9027  139.3594  143.0582 H   0  0  0  0  0  0  0  0  0  0  0  0  # atno 7974 bound_to 7965
  154.4185  140.1742  156.1702 H   0  0  0  0  0  0  0  0  0  0  0  0  # atno 8008 bound_to 7997
  155.9767  140.3381  155.6601 H   0  0  0  0  0  0  0  0  0  0  0  0  # atno 8009 bound_to 7997
  155.6554  140.0695  157.2563 H   0  0  0  0  0  0  0  0  0  0  0  0  # atno 8010 bound_to 7997
  140.7262  143.4880  151.0030 H   0  0  0  0  0  0  0  0  0  0  0  0  # atno 10167 bound_to 10162
  156.0523  130.5750  150.8063 H   0  0  0  0  0  0  0  0  0  0  0  0  # atno 10718 bound_to 10713
  154.2215  135.6377  153.5146 H   0  0  0  0  0  0  0  0  0  0  0  0  # atno 10763 bound_to 10752
  152.9968  135.5498  154.6109 H   0  0  0  0  0  0  0  0  0  0  0  0  # atno 10764 bound_to 10752
  154.5570  135.2906  155.0929 H   0  0  0  0  0  0  0  0  0  0  0  0  # atno 10765 bound_to 10752
  141.1668  133.7142  156.8245 H   0  0  0  0  0  0  0  0  0  0  0  0  # atno 11005 bound_to 11000
  145.8770  140.9385  143.0621 LP  0  0  0  0  0  0  0  0  0  0  0  0  # atno 17320 bound_to 7965
  144.6737  140.0730  143.7472 LP  0  0  0  0  0  0  0  0  0  0  0  0  # atno 17321 bound_to 7965
  139.8582  143.7349  152.3175 LP  0  0  0  0  0  0  0  0  0  0  0  0  # atno 17342 bound_to 10162
  139.7555  144.7522  151.0442 LP  0  0  0  0  0  0  0  0  0  0  0  0  # atno 17343 bound_to 10162
  157.5461  131.0942  150.9761 LP  0  0  0  0  0  0  0  0  0  0  0  0  # atno 17370 bound_to 10713
  157.0032  130.5608  149.5313 LP  0  0  0  0  0  0  0  0  0  0  0  0  # atno 17371 bound_to 10713
  140.2095  134.8838  157.3259 LP  0  0  0  0  0  0  0  0  0  0  0  0  # atno 17394 bound_to 11000
  140.2101  134.4148  155.7617 LP  0  0  0  0  0  0  0  0  0  0  0  0  # atno 17395 bound_to 11000

$$$$
