AV-unprocessed.smi:923|AV-procd|sdf|4178|dock9
  -GOLD-   22720 2 83D 1   1.00000     0.00000
 Structure written by MMmdl.
 34 35  0  0  0  0  0  0  0  0  2 V2000
  146.9851  140.5872  152.6108 C   0  0  0  0  0  0  0  0  0  0  0  0
  148.1286  140.4243  153.5527 C   0  0  0  0  0  0  0  0  0  0  0  0
  149.0092  141.3983  153.7946 N   0  0  0  0  0  0  0  0  0  0  0  0
  149.9788  141.0111  154.7083 N   0  0  0  0  0  0  0  0  0  0  0  0
  149.8122  139.7570  155.1524 C   0  0  0  0  0  0  0  0  0  0  0  0
  150.6426  139.1907  156.0436 N   0  5  0  0  0  0  0  0  0  0  0  0
  151.6049  139.9341  156.6366 C   0  0  0  0  0  0  0  0  0  0  0  0
  152.8160  139.7020  156.6255 O   0  0  0  0  0  0  0  0  0  0  0  0
  151.1335  141.0126  157.2803 N   0  0  0  0  0  0  0  0  0  0  0  0
  151.9248  142.0066  158.0043 C   0  0  0  0  0  0  0  0  0  0  0  0
  152.4417  141.3830  159.3171 C   0  0  0  0  0  0  0  0  0  0  0  0
  153.2601  142.3262  160.2159 C   0  0  0  0  0  0  0  0  0  0  0  0
  152.3880  143.3646  160.9397 C   0  0  0  0  0  0  0  0  0  0  0  0
  152.1069  144.6547  160.1500 C   0  0  0  0  0  0  0  0  0  0  0  0
  151.8878  144.5002  158.6345 C   0  0  0  0  0  0  0  0  0  0  0  0
  151.0669  143.2736  158.2016 C   0  0  0  0  0  0  0  0  0  0  0  0
  148.4245  138.9371  154.4374 S   0  0  0  0  0  0  0  0  0  0  0  0
  146.2060  141.1934  153.0732 H   0  0  0  0  0  0  0  0  0  0  0  0
  146.5657  139.6147  152.3525 H   0  0  0  0  0  0  0  0  0  0  0  0
  147.3166  141.0781  151.6955 H   0  0  0  0  0  0  0  0  0  0  0  0
  150.1345  141.1561  157.2632 H   0  0  0  0  0  0  0  0  0  0  0  0
  152.7830  142.2804  157.3879 H   0  0  0  0  0  0  0  0  0  0  0  0
  151.6064  140.9727  159.8864 H   0  0  0  0  0  0  0  0  0  0  0  0
  153.0707  140.5277  159.0663 H   0  0  0  0  0  0  0  0  0  0  0  0
  153.7490  141.7134  160.9741 H   0  0  0  0  0  0  0  0  0  0  0  0
  154.0647  142.8057  159.6573 H   0  0  0  0  0  0  0  0  0  0  0  0
  151.4442  142.9031  161.2324 H   0  0  0  0  0  0  0  0  0  0  0  0
  152.8714  143.6439  161.8765 H   0  0  0  0  0  0  0  0  0  0  0  0
  151.2341  145.1381  160.5901 H   0  0  0  0  0  0  0  0  0  0  0  0
  152.9325  145.3513  160.3009 H   0  0  0  0  0  0  0  0  0  0  0  0
  151.3882  145.4014  158.2778 H   0  0  0  0  0  0  0  0  0  0  0  0
  152.8516  144.4898  158.1243 H   0  0  0  0  0  0  0  0  0  0  0  0
  150.5996  143.5167  157.2461 H   0  0  0  0  0  0  0  0  0  0  0  0
  150.2451  143.0901  158.8953 H   0  0  0  0  0  0  0  0  0  0  0  0
  1  2  1  0  0  0  0
  1 18  1  0  0  0  0
  1 19  1  0  0  0  0
  1 20  1  0  0  0  0
  2 17  1  0  0  0  0
  2  3  2  0  0  0  0
  3  4  1  0  0  0  0
  4  5  2  0  0  0  0
  5  6  1  0  0  0  0
  5 17  1  0  0  0  0
  6  7  1  0  0  0  0
  7  8  2  0  0  0  0
  7  9  1  0  0  0  0
  9 10  1  0  0  0  0
  9 21  1  0  0  0  0
 10 16  1  0  0  0  0
 10 11  1  0  0  0  0
 10 22  1  0  0  0  0
 11 12  1  0  0  0  0
 11 23  1  0  0  0  0
 11 24  1  0  0  0  0
 12 13  1  0  0  0  0
 12 25  1  0  0  0  0
 12 26  1  0  0  0  0
 13 14  1  0  0  0  0
 13 27  1  0  0  0  0
 13 28  1  0  0  0  0
 14 15  1  0  0  0  0
 14 29  1  0  0  0  0
 14 30  1  0  0  0  0
 15 16  1  0  0  0  0
 15 31  1  0  0  0  0
 15 32  1  0  0  0  0
 16 33  1  0  0  0  0
 16 34  1  0  0  0  0
M  CHG  1   6  -1
M  END
> <s_m_source_file>
AV-unprocessed.smi

> <i_m_source_file_index>
923

> <i_lp_mmshare_version>
43012

> <i_f3d_flags>
0

> <s_epik_input>
W0NIM11jMW5uYyhzMSlbTkhdQyg9TylbTkhdW0NIXTJbQ0gyXVtDSDJdW0NIMl1bQ0gyXVtDSDJdW0NIMl0y

> <s_epik_cmdline>
J2VwaWtfcHl0aG9uJywgJy1waCcsICc3LjAnLCAnLXRuJywgJzgnLCAnLW1hJywgJzIwMCcsICctbWV0YWxfYmluZGluZycsICctaW1hZScsICc8aW5maWxlLm1hZT4nLCAnLW9tYWUnLCAnPG91dGZpbGUubWFlPic=

> <r_lp_tautomer_probability>
1

> <r_epik_Ionization_Penalty>
4.57867

> <r_epik_Ionization_Penalty_Charging>
4.42407

> <r_epik_Ionization_Penalty_Neutral>
0.154599

> <r_epik_State_Penalty>
4.42373

> <r_epik_Charging_Adjusted_Penalty>
8.84779

> <i_epik_Tot_Q>
-1

> <i_epik_Tot_abs_Q>
1

> <r_epik_Metal_State_Penalty>
0.782603

> <b_epik_Metal_Only>
1

> <s_lp_Force_Field>
OPLS_2005

> <r_lp_Energy>
12.5708

> <b_lp_Chiralities_Consistent>
1

> <s_lp_Variant>
AV-unprocessed.smi:923-2

> <Gold.Version>
5.8.1

> <Gold.Id.Protein>
6NUR|6NUR_protein|mol2

> <Gold.PLP.Fitness>
39.6860

> <Gold.PLP.PLP>
-33.7897

> <Gold.PLP.part.hbond>
-3.5677

> <Gold.PLP.part.metal>
0.0000

> <Gold.PLP.part.buried>
-0.9331

> <Gold.PLP.part.nonpolar>
-29.0545

> <Gold.PLP.part.repulsive>
1.0736

> <Gold.PLP.ligand.clash>
0.0000

> <Gold.PLP.ligand.torsion>
0.7189

> <Gold.PLP.Chemscore.Hbond>
2.4396

> <Gold.PLP.Chemscore.CHOScore>
0.0000

> <Gold.PLP.Chemscore.Metal>
0.0000

> <Gold.Chemscore.Hbonds>
donor molecule, donor type, donor heavy atom, donor atom, acceptor molecule, acceptor atom, score
      P1  H  7989  7998       L1     4  0.62
      P1  H  7997  8009       L1     8  1.00
      P1  H  8011  8017       L1     3  0.78

> <Gold.PLP.Chemscore.Internal.Correction>
0.0154

> <Gold.Rescore>
     Score         DG    S(hbond)    S(metal)    S(lipo)     H(rot)  DE(clash)    DE(int)     intcor
     18.48     -19.53       1.55        0.00      97.63       1.00       0.34       0.72       ----

> <Gold.Chemscore.Fitness>
18.4778

> <Gold.Chemscore.DG>
-19.5350

> <Gold.Chemscore.ZeroCoef>
-5.4800

> <Gold.Chemscore.Hbond>
1.5545

> <Gold.Chemscore.Metal>
0.0000

> <Gold.Chemscore.Lipo>
97.6324

> <Gold.Chemscore.Internal_Hbond>
0.0000

> <Gold.Chemscore.DEClash>
0.3364

> <Gold.Chemscore.DEInternal>
0.7207

> <Gold.Chemscore.Rot>
1.0000

> <Gold.Chemscore.Internal.Correction>
   9.000000E+99

> <Gold.Chemscore.Hbonds>
donor molecule, donor type, donor heavy atom, donor atom, acceptor molecule, acceptor atom, score
      P1  H  7989  7998       L1     4  0.07
      P1  H  7997  8009       L1     8  0.99
      P1  H  8011  8017       L1     3  0.59

> <Gold.Chemscore.Hbond.Weighted>
-5.1920

> <Gold.Chemscore.Metal.Weighted>
-0.0000

> <Gold.Chemscore.Lipo.Weighted>
-11.4230

> <Gold.Chemscore.Internal_Hbond.Weighted>
0.0000

> <Gold.Chemscore.DEClash.Weighted>
0.3364

> <Gold.Chemscore.DEInternal.Weighted>
0.7207

> <Gold.Chemscore.Rot.Weighted>
2.5600

> <Gold.Chemscore.Internal.Correction.Weighted>
   9.000000E+99

> <Gold.Protein.RotatedTorsions>
[ 6907 6896 6895 6894 ] final  179.62 input  -60.11 | X-H torsion
[ 7974 7965 7964 7962 ] final   82.67 input  175.53 | X-H torsion
[ 8008 7997 7996 7995 ] final -158.37 input   59.86 | X-H torsion
[ 10167 10162 10161 10158 ] final  157.86 input  -65.29 | X-H torsion
[ 10718 10713 10712 10709 ] final   13.31 input   66.30 | X-H torsion
[ 10763 10752 10751 10750 ] final -140.38 input  -60.55 | X-H torsion
[ 11005 11000 10999 10996 ] final  141.69 input  -57.11 | X-H torsion

> <Gold.Protein.ActiveResidues>
 VAL166  LYS551  ARG553  GLY616  TRP617  ASP618  TYR619  PRO620  LYS621  CYS622 
 ASP623  PHE694  ASN695  SER759  ASP760  ASP761  ALA762  ILE779  LEU786  VAL792 
 PHE793  MET794  SER795  GLU796  ALA797  LYS798  CYS799  TRP800  GLU811  SER814 

> <Gold.Protein.RotatedAtoms>
  151.6688  133.3314  159.3191 H   0  0  0  0  0  0  0  0  0  0  0  0  # atno 6907 bound_to 6896
  150.7878  134.6881  159.6490 H   0  0  0  0  0  0  0  0  0  0  0  0  # atno 6908 bound_to 6896
  152.3951  134.6382  160.0144 H   0  0  0  0  0  0  0  0  0  0  0  0  # atno 6909 bound_to 6896
  145.6220  139.2387  143.2133 H   0  0  0  0  0  0  0  0  0  0  0  0  # atno 7974 bound_to 7965
  155.7465  140.0821  157.2221 H   0  0  0  0  0  0  0  0  0  0  0  0  # atno 8008 bound_to 7997
  154.4016  140.1568  156.2731 H   0  0  0  0  0  0  0  0  0  0  0  0  # atno 8009 bound_to 7997
  155.8971  140.3412  155.6001 H   0  0  0  0  0  0  0  0  0  0  0  0  # atno 8010 bound_to 7997
  139.4824  144.4878  151.8351 H   0  0  0  0  0  0  0  0  0  0  0  0  # atno 10167 bound_to 10162
  157.0227  130.6161  149.5723 H   0  0  0  0  0  0  0  0  0  0  0  0  # atno 10718 bound_to 10713
  154.8580  135.3555  154.5699 H   0  0  0  0  0  0  0  0  0  0  0  0  # atno 10763 bound_to 10752
  153.6312  135.7002  153.5279 H   0  0  0  0  0  0  0  0  0  0  0  0  # atno 10764 bound_to 10752
  153.3048  135.4196  155.1244 H   0  0  0  0  0  0  0  0  0  0  0  0  # atno 10765 bound_to 10752
  140.0420  134.9300  157.0860 H   0  0  0  0  0  0  0  0  0  0  0  0  # atno 11005 bound_to 11000
  146.1424  140.7039  142.9361 LP  0  0  0  0  0  0  0  0  0  0  0  0  # atno 17320 bound_to 7965
  144.7227  140.4427  143.6996 LP  0  0  0  0  0  0  0  0  0  0  0  0  # atno 17321 bound_to 7965
  140.4360  144.2051  150.5889 LP  0  0  0  0  0  0  0  0  0  0  0  0  # atno 17342 bound_to 10162
  140.4731  143.2405  151.9060 LP  0  0  0  0  0  0  0  0  0  0  0  0  # atno 17343 bound_to 10162
  156.0096  130.5187  150.7946 LP  0  0  0  0  0  0  0  0  0  0  0  0  # atno 17370 bound_to 10713
  157.5237  131.0933  151.0045 LP  0  0  0  0  0  0  0  0  0  0  0  0  # atno 17371 bound_to 10713
  140.4054  134.2038  155.7163 LP  0  0  0  0  0  0  0  0  0  0  0  0  # atno 17394 bound_to 11000
  141.1888  133.8253  157.0982 LP  0  0  0  0  0  0  0  0  0  0  0  0  # atno 17395 bound_to 11000

$$$$
