AV-unprocessed.smi:3200|AV-procd|sdf|12235|dock6
  -GOLD-   2272018 73D 1   1.00000     0.00000
 Structure written by MMmdl.
 38 39  0  0  0  0  0  0  0  0  2 V2000
  153.3206  138.5073  154.4142 C   0  0  0  0  0  0  0  0  0  0  0  0
  152.3999  139.3366  155.2431 C   0  0  0  0  0  0  0  0  0  0  0  0
  152.7053  139.6752  156.4901 N   0  0  0  0  0  0  0  0  0  0  0  0
  151.6023  140.4389  156.8978 O   0  0  0  0  0  0  0  0  0  0  0  0
  150.7520  140.4505  155.8436 C   0  0  0  0  0  0  0  0  0  0  0  0
  149.4854  141.2321  155.9473 C   0  0  0  0  0  0  0  0  0  0  0  0
  149.3540  141.9569  157.2929 C   0  0  0  0  0  0  0  0  0  0  0  0
  150.4030  142.9856  157.4447 N   0  3  0  0  0  0  0  0  0  0  0  0
  150.7064  143.3644  158.8435 C   0  0  2  0  0  0  0  0  0  0  0  0
  149.8851  144.5592  159.3479 C   0  0  0  0  0  0  0  0  0  0  0  0
  150.7296  145.1956  160.4596 C   0  0  0  0  0  0  0  0  0  0  0  0
  152.0939  144.4905  160.4247 C   0  0  0  0  0  0  0  0  0  0  0  0
  152.1792  143.7705  159.0665 C   0  0  0  0  0  0  0  0  0  0  0  0
  153.1071  142.5436  159.1434 C   0  0  0  0  0  0  0  0  0  0  0  0
  152.7038  144.7478  157.9887 C   0  0  0  0  0  0  0  0  0  0  0  0
  151.2063  139.7971  154.7774 N   0  0  0  0  0  0  0  0  0  0  0  0
  154.2349  138.2722  154.9605 H   0  0  0  0  0  0  0  0  0  0  0  0
  153.5918  139.0418  153.5036 H   0  0  0  0  0  0  0  0  0  0  0  0
  152.8356  137.5719  154.1354 H   0  0  0  0  0  0  0  0  0  0  0  0
  149.4538  141.9512  155.1276 H   0  0  0  0  0  0  0  0  0  0  0  0
  148.6450  140.5520  155.8013 H   0  0  0  0  0  0  0  0  0  0  0  0
  148.3713  142.4241  157.3663 H   0  0  0  0  0  0  0  0  0  0  0  0
  149.4329  141.2383  158.1100 H   0  0  0  0  0  0  0  0  0  0  0  0
  151.2520  142.6259  157.0322 H   0  0  0  0  0  0  0  0  0  0  0  0
  150.4863  142.5078  159.4838 H   0  0  0  0  0  0  0  0  0  0  0  0
  149.7323  145.2848  158.5477 H   0  0  0  0  0  0  0  0  0  0  0  0
  148.9001  144.2567  159.7053 H   0  0  0  0  0  0  0  0  0  0  0  0
  150.8424  146.2650  160.2792 H   0  0  0  0  0  0  0  0  0  0  0  0
  150.2589  145.0789  161.4363 H   0  0  0  0  0  0  0  0  0  0  0  0
  152.9207  145.1825  160.5913 H   0  0  0  0  0  0  0  0  0  0  0  0
  152.1272  143.7606  161.2351 H   0  0  0  0  0  0  0  0  0  0  0  0
  154.1288  142.8380  159.3857 H   0  0  0  0  0  0  0  0  0  0  0  0
  153.1351  142.0080  158.1937 H   0  0  0  0  0  0  0  0  0  0  0  0
  152.7799  141.8379  159.9077 H   0  0  0  0  0  0  0  0  0  0  0  0
  153.7086  145.0942  158.2328 H   0  0  0  0  0  0  0  0  0  0  0  0
  152.0727  145.6315  157.8924 H   0  0  0  0  0  0  0  0  0  0  0  0
  152.7600  144.2747  157.0081 H   0  0  0  0  0  0  0  0  0  0  0  0
  150.1270  143.8150  156.9384 H   0  0  0  0  0  0  0  0  0  0  0  0
  1  2  1  0  0  0  0
  1 17  1  0  0  0  0
  1 18  1  0  0  0  0
  1 19  1  0  0  0  0
  2 16  1  0  0  0  0
  2  3  2  0  0  0  0
  3  4  1  0  0  0  0
  4  5  1  0  0  0  0
  5  6  1  0  0  0  0
  5 16  2  0  0  0  0
  6  7  1  0  0  0  0
  6 20  1  0  0  0  0
  6 21  1  0  0  0  0
  7  8  1  0  0  0  0
  7 22  1  0  0  0  0
  7 23  1  0  0  0  0
  8  9  1  0  0  0  0
  8 24  1  0  0  0  0
  8 38  1  0  0  0  0
  9 13  1  0  0  0  0
  9 10  1  0  0  0  0
  9 25  1  0  0  0  0
 10 11  1  0  0  0  0
 10 26  1  0  0  0  0
 10 27  1  0  0  0  0
 11 12  1  0  0  0  0
 11 28  1  0  0  0  0
 11 29  1  0  0  0  0
 12 13  1  0  0  0  0
 12 30  1  0  0  0  0
 12 31  1  0  0  0  0
 13 14  1  0  0  0  0
 13 15  1  0  0  0  0
 14 32  1  0  0  0  0
 14 33  1  0  0  0  0
 14 34  1  0  0  0  0
 15 35  1  0  0  0  0
 15 36  1  0  0  0  0
 15 37  1  0  0  0  0
M  CHG  1   8   1
M  END
> <s_m_source_file>
AV-unprocessed.smi

> <i_m_source_file_index>
3200

> <i_lp_mmshare_version>
43012

> <i_f3d_flags>
0

> <s_epik_input>
W0NIM11jMW5vYyhuMSlbQ0gyXVtDSDJdW05IXVtDQEBIXShDMihbQ0gzXSlbQ0gzXSlbQ0gyXVtDSDJdW0NIMl0y

> <s_epik_cmdline>
J2VwaWtfcHl0aG9uJywgJy1waCcsICc3LjAnLCAnLXRuJywgJzgnLCAnLW1hJywgJzIwMCcsICctbWV0YWxfYmluZGluZycsICctaW1hZScsICc8aW5maWxlLm1hZT4nLCAnLW9tYWUnLCAnPG91dGZpbGUubWFlPic=

> <r_lp_tautomer_probability>
1

> <r_epik_Ionization_Penalty>
0.000953161

> <r_epik_Ionization_Penalty_Charging>
0.000953161

> <r_epik_Ionization_Penalty_Neutral>
4.23223e-13

> <r_epik_State_Penalty>
0.000619331

> <r_epik_Charging_Adjusted_Penalty>
0.00157249

> <i_epik_Tot_Q>
1

> <i_epik_Tot_abs_Q>
1

> <r_epik_Metal_State_Penalty>
-0

> <b_epik_Metal_Only>
0

> <s_lp_Force_Field>
OPLS_2005

> <r_lp_Energy>
25.4915

> <b_lp_Chiralities_Consistent>
1

> <s_lp_Variant>
AV-unprocessed.smi:3200-1

> <Gold.Version>
5.8.1

> <Gold.Id.Protein>
6NUR|6NUR_protein|mol2

> <Gold.PLP.Fitness>
48.3675

> <Gold.PLP.PLP>
-37.4944

> <Gold.PLP.part.hbond>
-3.0000

> <Gold.PLP.part.metal>
0.0000

> <Gold.PLP.part.buried>
-3.9752

> <Gold.PLP.part.nonpolar>
-31.2766

> <Gold.PLP.part.repulsive>
0.0727

> <Gold.PLP.ligand.clash>
0.0000

> <Gold.PLP.ligand.torsion>
0.5501

> <Gold.PLP.Chemscore.Hbond>
3.9840

> <Gold.PLP.Chemscore.CHOScore>
0.0000

> <Gold.PLP.Chemscore.Metal>
0.0000

> <Gold.Chemscore.Hbonds>
donor molecule, donor type, donor heavy atom, donor atom, acceptor molecule, acceptor atom, score
      L1  H     8    38       P1  8028  2.00
      P1  H  7989  7998       L1    16  1.00
      P1  H  7997  8010       L1     3  1.00

> <Gold.PLP.Chemscore.Internal.Correction>
0.0213

> <Gold.Rescore>
     Score         DG    S(hbond)    S(metal)    S(lipo)     H(rot)  DE(clash)    DE(int)     intcor
     18.50     -19.09       2.03        0.00      97.51       1.79       0.14       0.46       ----

> <Gold.Chemscore.Fitness>
18.4954

> <Gold.Chemscore.DG>
-19.0938

> <Gold.Chemscore.ZeroCoef>
-5.4800

> <Gold.Chemscore.Hbond>
2.0302

> <Gold.Chemscore.Metal>
0.0000

> <Gold.Chemscore.Lipo>
97.5055

> <Gold.Chemscore.Internal_Hbond>
0.0000

> <Gold.Chemscore.DEClash>
0.1379

> <Gold.Chemscore.DEInternal>
0.4605

> <Gold.Chemscore.Rot>
1.7872

> <Gold.Chemscore.Internal.Correction>
   9.000000E+99

> <Gold.Chemscore.Hbonds>
donor molecule, donor type, donor heavy atom, donor atom, acceptor molecule, acceptor atom, score
      L1  H     8    38       P1  8028  0.92
      P1  H  7989  7998       L1    16  0.37
      P1  H  7997  8010       L1     3  0.35

> <Gold.Chemscore.Hbond.Weighted>
-6.7810

> <Gold.Chemscore.Metal.Weighted>
-0.0000

> <Gold.Chemscore.Lipo.Weighted>
-11.4081

> <Gold.Chemscore.Internal_Hbond.Weighted>
0.0000

> <Gold.Chemscore.DEClash.Weighted>
0.1379

> <Gold.Chemscore.DEInternal.Weighted>
0.4605

> <Gold.Chemscore.Rot.Weighted>
4.5753

> <Gold.Chemscore.Internal.Correction.Weighted>
   9.000000E+99

> <Gold.Protein.RotatedTorsions>
[ 6907 6896 6895 6894 ] final  -74.27 input  -60.11 | X-H torsion
[ 7974 7965 7964 7962 ] final -120.52 input  175.53 | X-H torsion
[ 8008 7997 7996 7995 ] final   77.60 input   59.86 | X-H torsion
[ 10167 10162 10161 10158 ] final -127.29 input  -65.29 | X-H torsion
[ 10718 10713 10712 10709 ] final    9.45 input   66.30 | X-H torsion
[ 10763 10752 10751 10750 ] final -161.99 input  -60.55 | X-H torsion
[ 11005 11000 10999 10996 ] final -177.20 input  -57.11 | X-H torsion

> <Gold.Protein.ActiveResidues>
 VAL166  LYS551  ARG553  GLY616  TRP617  ASP618  TYR619  PRO620  LYS621  CYS622 
 ASP623  PHE694  ASN695  SER759  ASP760  ASP761  ALA762  ILE779  LEU786  VAL792 
 PHE793  MET794  SER795  GLU796  ALA797  LYS798  CYS799  TRP800  GLU811  SER814 

> <Gold.Protein.RotatedAtoms>
  150.7099  134.4893  159.5507 H   0  0  0  0  0  0  0  0  0  0  0  0  # atno 6907 bound_to 6896
  152.2514  134.8126  160.0454 H   0  0  0  0  0  0  0  0  0  0  0  0  # atno 6908 bound_to 6896
  151.8872  133.3473  159.3823 H   0  0  0  0  0  0  0  0  0  0  0  0  # atno 6909 bound_to 6896
  145.0504  140.8214  143.4212 H   0  0  0  0  0  0  0  0  0  0  0  0  # atno 7974 bound_to 7965
  155.8438  140.3461  155.5649 H   0  0  0  0  0  0  0  0  0  0  0  0  # atno 8008 bound_to 7997
  155.8112  140.0899  157.1922 H   0  0  0  0  0  0  0  0  0  0  0  0  # atno 8009 bound_to 7997
  154.4005  140.1447  156.3376 H   0  0  0  0  0  0  0  0  0  0  0  0  # atno 8010 bound_to 7997
  139.9624  143.5935  152.2440 H   0  0  0  0  0  0  0  0  0  0  0  0  # atno 10167 bound_to 10162
  156.9666  130.5953  149.5666 H   0  0  0  0  0  0  0  0  0  0  0  0  # atno 10718 bound_to 10713
  154.7254  135.3035  154.8979 H   0  0  0  0  0  0  0  0  0  0  0  0  # atno 10763 bound_to 10752
  153.9838  135.6727  153.4755 H   0  0  0  0  0  0  0  0  0  0  0  0  # atno 10764 bound_to 10752
  153.0870  135.4979  154.8536 H   0  0  0  0  0  0  0  0  0  0  0  0  # atno 10765 bound_to 10752
  140.4436  134.6409  157.4769 H   0  0  0  0  0  0  0  0  0  0  0  0  # atno 11005 bound_to 11000
  145.1534  139.2501  143.5429 LP  0  0  0  0  0  0  0  0  0  0  0  0  # atno 17320 bound_to 7965
  146.3517  140.1242  142.8599 LP  0  0  0  0  0  0  0  0  0  0  0  0  # atno 17321 bound_to 7965
  139.6544  144.7662  151.2085 LP  0  0  0  0  0  0  0  0  0  0  0  0  # atno 17342 bound_to 10162
  140.7549  143.6109  150.8606 LP  0  0  0  0  0  0  0  0  0  0  0  0  # atno 17343 bound_to 10162
  156.0300  130.5392  150.8509 LP  0  0  0  0  0  0  0  0  0  0  0  0  # atno 17370 bound_to 10713
  157.5621  131.0946  150.9543 LP  0  0  0  0  0  0  0  0  0  0  0  0  # atno 17371 bound_to 10713
  140.0053  134.6773  155.9464 LP  0  0  0  0  0  0  0  0  0  0  0  0  # atno 17394 bound_to 11000
  141.1695  133.6537  156.4599 LP  0  0  0  0  0  0  0  0  0  0  0  0  # atno 17395 bound_to 11000

$$$$
