AV-unprocessed.smi:2813|AV-procd|sdf|10838|dock8
  -GOLD-   2272015283D 1   1.00000     0.00000
 Structure written by MMmdl.
 41 42  0  0  0  0  0  0  0  0  1 V2000
  151.8917  132.8386  155.8162 C   0  0  0  0  0  0  0  0  0  0  0  0
  151.3736  134.2642  155.8879 C   0  0  0  0  0  0  0  0  0  0  0  0
  152.2456  135.1951  156.4600 N   0  0  0  0  0  0  0  0  0  0  0  0
  151.8893  136.4336  156.5634 C   0  0  0  0  0  0  0  0  0  0  0  0
  150.6384  136.8824  156.1085 N   0  0  0  0  0  0  0  0  0  0  0  0
  150.3569  138.3175  156.2832 C   0  0  0  0  0  0  0  0  0  0  0  0
  151.3408  139.2053  155.4874 C   0  0  1  0  0  0  0  0  0  0  0  0
  150.6906  139.6169  154.3006 O   0  0  0  0  0  0  0  0  0  0  0  0
  151.7207  140.4795  156.2612 C   0  0  0  0  0  0  0  0  0  0  0  0
  152.5523  140.1200  157.3569 O   0  0  0  0  0  0  0  0  0  0  0  0
  152.6960  141.0177  158.3931 C   0  0  0  0  0  0  0  0  0  0  0  0
  153.5764  140.6563  159.4326 C   0  0  0  0  0  0  0  0  0  0  0  0
  153.7818  141.5111  160.5312 C   0  0  0  0  0  0  0  0  0  0  0  0
  153.1083  142.7443  160.5994 C   0  0  0  0  0  0  0  0  0  0  0  0
  152.2270  143.1291  159.5667 C   0  0  0  0  0  0  0  0  0  0  0  0
  151.4880  144.4576  159.6355 C   0  0  0  0  0  0  0  0  0  0  0  0
  151.7217  145.1824  158.5408 F   0  0  0  0  0  0  0  0  0  0  0  0
  150.1789  144.2270  159.7259 F   0  0  0  0  0  0  0  0  0  0  0  0
  151.8717  145.1699  160.6954 F   0  0  0  0  0  0  0  0  0  0  0  0
  152.0193  142.2613  158.4721 C   0  0  0  0  0  0  0  0  0  0  0  0
  149.7245  136.0391  155.5468 C   0  0  0  0  0  0  0  0  0  0  0  0
  148.6237  136.4408  155.1645 O   0  0  0  0  0  0  0  0  0  0  0  0
  150.1444  134.6327  155.4344 C   0  0  0  0  0  0  0  0  0  0  0  0
  149.1522  133.6630  154.8045 C   0  0  0  0  0  0  0  0  0  0  0  0
  151.9224  132.4938  154.7822 H   0  0  0  0  0  0  0  0  0  0  0  0
  151.2481  132.1701  156.3889 H   0  0  0  0  0  0  0  0  0  0  0  0
  152.9008  132.7615  156.2233 H   0  0  0  0  0  0  0  0  0  0  0  0
  152.5294  137.1974  157.0083 H   0  0  0  0  0  0  0  0  0  0  0  0
  149.3238  138.5681  156.0325 H   0  0  0  0  0  0  0  0  0  0  0  0
  150.4338  138.5491  157.3469 H   0  0  0  0  0  0  0  0  0  0  0  0
  152.2454  138.6470  155.2424 H   0  0  0  0  0  0  0  0  0  0  0  0
  149.7833  139.7916  154.4988 H   0  0  0  0  0  0  0  0  0  0  0  0
  152.2067  141.2025  155.6034 H   0  0  0  0  0  0  0  0  0  0  0  0
  150.8191  140.9457  156.6617 H   0  0  0  0  0  0  0  0  0  0  0  0
  154.0987  139.7116  159.3884 H   0  0  0  0  0  0  0  0  0  0  0  0
  154.4564  141.2194  161.3226 H   0  0  0  0  0  0  0  0  0  0  0  0
  153.2710  143.3903  161.4495 H   0  0  0  0  0  0  0  0  0  0  0  0
  151.3310  142.5707  157.7008 H   0  0  0  0  0  0  0  0  0  0  0  0
  148.2285  133.6416  155.3835 H   0  0  0  0  0  0  0  0  0  0  0  0
  149.5266  132.6423  154.7463 H   0  0  0  0  0  0  0  0  0  0  0  0
  148.9090  133.9805  153.7899 H   0  0  0  0  0  0  0  0  0  0  0  0
  1  2  1  0  0  0  0
  1 25  1  0  0  0  0
  1 26  1  0  0  0  0
  1 27  1  0  0  0  0
  2 23  2  0  0  0  0
  2  3  1  0  0  0  0
  3  4  2  0  0  0  0
  4  5  1  0  0  0  0
  4 28  1  0  0  0  0
  5  6  1  0  0  0  0
  5 21  1  0  0  0  0
  6  7  1  0  0  0  0
  6 29  1  0  0  0  0
  6 30  1  0  0  0  0
  7  8  1  0  0  0  0
  7  9  1  0  0  0  0
  7 31  1  0  0  0  0
  8 32  1  0  0  0  0
  9 10  1  0  0  0  0
  9 33  1  0  0  0  0
  9 34  1  0  0  0  0
 10 11  1  0  0  0  0
 11 20  1  0  0  0  0
 11 12  2  0  0  0  0
 12 13  1  0  0  0  0
 12 35  1  0  0  0  0
 13 14  2  0  0  0  0
 13 36  1  0  0  0  0
 14 15  1  0  0  0  0
 14 37  1  0  0  0  0
 15 16  1  0  0  0  0
 15 20  2  0  0  0  0
 16 17  1  0  0  0  0
 16 18  1  0  0  0  0
 16 19  1  0  0  0  0
 20 38  1  0  0  0  0
 21 22  2  0  0  0  0
 21 23  1  0  0  0  0
 23 24  1  0  0  0  0
 24 39  1  0  0  0  0
 24 40  1  0  0  0  0
 24 41  1  0  0  0  0
M  END
> <s_m_source_file>
AV-unprocessed.smi

> <i_m_source_file_index>
2813

> <i_lp_mmshare_version>
43012

> <i_f3d_flags>
0

> <s_epik_input>
W0NIM11jMW5bY0hdbihjKD1PKWMxW0NIM10pW0NIMl1bQ0BIXShbT0hdKVtDSDJdT2MyW2NIXVtjSF1bY0hdYyhDKEYpKEYpRilbY0hdMg==

> <s_epik_cmdline>
J2VwaWtfcHl0aG9uJywgJy1waCcsICc3LjAnLCAnLXRuJywgJzgnLCAnLW1hJywgJzIwMCcsICctbWV0YWxfYmluZGluZycsICctaW1hZScsICc8aW5maWxlLm1hZT4nLCAnLW9tYWUnLCAnPG91dGZpbGUubWFlPic=

> <r_lp_tautomer_probability>
1

> <r_epik_Ionization_Penalty>
3.72236e-05

> <r_epik_Ionization_Penalty_Charging>
8.38864e-08

> <r_epik_Ionization_Penalty_Neutral>
3.71397e-05

> <r_epik_State_Penalty>
-0

> <r_epik_Charging_Adjusted_Penalty>
8.38864e-08

> <i_epik_Tot_Q>
0

> <i_epik_Tot_abs_Q>
0

> <r_epik_Metal_State_Penalty>
-0

> <b_epik_Metal_Only>
0

> <s_lp_Force_Field>
OPLS_2005

> <r_lp_Energy>
24.625

> <b_lp_Chiralities_Consistent>
1

> <s_lp_Variant>
AV-unprocessed.smi:2813-2

> <Gold.Version>
5.8.1

> <Gold.Id.Protein>
6NUR|6NUR_protein|mol2

> <Gold.PLP.Fitness>
53.9579

> <Gold.PLP.PLP>
-46.9969

> <Gold.PLP.part.hbond>
-3.1911

> <Gold.PLP.part.metal>
0.0000

> <Gold.PLP.part.buried>
-6.5212

> <Gold.PLP.part.nonpolar>
-35.6197

> <Gold.PLP.part.repulsive>
0.1193

> <Gold.PLP.ligand.clash>
0.9301

> <Gold.PLP.ligand.torsion>
0.7410

> <Gold.PLP.Chemscore.Hbond>
2.7750

> <Gold.PLP.Chemscore.CHOScore>
0.0000

> <Gold.PLP.Chemscore.Metal>
0.0000

> <Gold.Chemscore.Hbonds>
donor molecule, donor type, donor heavy atom, donor atom, acceptor molecule, acceptor atom, score
      P1  H  7989  7998       L1     8  1.00
      P1  H  7997  8010       L1    10  1.00
      P1  H 10752 10764       L1     3  0.90

> <Gold.PLP.Chemscore.Internal.Correction>
1.0481

> <Gold.Rescore>
     Score         DG    S(hbond)    S(metal)    S(lipo)     H(rot)  DE(clash)    DE(int)     intcor
     14.01     -14.87       1.14        0.00     107.49       2.73       0.23       0.63       ----

> <Gold.Chemscore.Fitness>
14.0106

> <Gold.Chemscore.DG>
-14.8712

> <Gold.Chemscore.ZeroCoef>
-5.4800

> <Gold.Chemscore.Hbond>
1.1388

> <Gold.Chemscore.Metal>
0.0000

> <Gold.Chemscore.Lipo>
107.4894

> <Gold.Chemscore.Internal_Hbond>
0.0000

> <Gold.Chemscore.DEClash>
0.2275

> <Gold.Chemscore.DEInternal>
0.6330

> <Gold.Chemscore.Rot>
2.7300

> <Gold.Chemscore.Internal.Correction>
   9.000000E+99

> <Gold.Chemscore.Hbonds>
donor molecule, donor type, donor heavy atom, donor atom, acceptor molecule, acceptor atom, score
      P1  H  7989  7998       L1     8  0.76
      P1  H  7997  8010       L1    10  0.13
      P1  H 10752 10764       L1     3  0.06

> <Gold.Chemscore.Hbond.Weighted>
-3.8037

> <Gold.Chemscore.Metal.Weighted>
-0.0000

> <Gold.Chemscore.Lipo.Weighted>
-12.5763

> <Gold.Chemscore.Internal_Hbond.Weighted>
0.0000

> <Gold.Chemscore.DEClash.Weighted>
0.2275

> <Gold.Chemscore.DEInternal.Weighted>
0.6330

> <Gold.Chemscore.Rot.Weighted>
6.9888

> <Gold.Chemscore.Internal.Correction.Weighted>
   9.000000E+99

> <Gold.Protein.RotatedTorsions>
[ 6907 6896 6895 6894 ] final   -1.13 input  -60.11 | X-H torsion
[ 7974 7965 7964 7962 ] final -157.52 input  175.53 | X-H torsion
[ 8008 7997 7996 7995 ] final   63.06 input   59.86 | X-H torsion
[ 10167 10162 10161 10158 ] final  144.81 input  -65.29 | X-H torsion
[ 10718 10713 10712 10709 ] final   42.55 input   66.30 | X-H torsion
[ 10763 10752 10751 10750 ] final  -10.50 input  -60.55 | X-H torsion
[ 11005 11000 10999 10996 ] final   73.32 input  -57.11 | X-H torsion

> <Gold.Protein.ActiveResidues>
 VAL166  LYS551  ARG553  GLY616  TRP617  ASP618  TYR619  PRO620  LYS621  CYS622 
 ASP623  PHE694  ASN695  SER759  ASP760  ASP761  ALA762  ILE779  LEU786  VAL792 
 PHE793  MET794  SER795  GLU796  ALA797  LYS798  CYS799  TRP800  GLU811  SER814 

> <Gold.Protein.RotatedAtoms>
  151.5511  135.1067  159.9949 H   0  0  0  0  0  0  0  0  0  0  0  0  # atno 6907 bound_to 6896
  152.4491  133.7590  159.6746 H   0  0  0  0  0  0  0  0  0  0  0  0  # atno 6908 bound_to 6896
  150.8414  133.7862  159.3083 H   0  0  0  0  0  0  0  0  0  0  0  0  # atno 6909 bound_to 6896
  144.7545  140.3957  143.6023 H   0  0  0  0  0  0  0  0  0  0  0  0  # atno 7974 bound_to 7965
  155.6243  140.3496  155.4662 H   0  0  0  0  0  0  0  0  0  0  0  0  # atno 8008 bound_to 7997
  156.0054  140.1222  157.0530 H   0  0  0  0  0  0  0  0  0  0  0  0  # atno 8009 bound_to 7997
  154.4263  140.1092  156.5742 H   0  0  0  0  0  0  0  0  0  0  0  0  # atno 8010 bound_to 7997
  139.4939  144.5946  151.6610 H   0  0  0  0  0  0  0  0  0  0  0  0  # atno 10167 bound_to 10162
  157.4060  130.7887  149.7389 H   0  0  0  0  0  0  0  0  0  0  0  0  # atno 10718 bound_to 10713
  153.4701  135.7016  153.5998 H   0  0  0  0  0  0  0  0  0  0  0  0  # atno 10763 bound_to 10752
  153.4256  135.3815  155.2139 H   0  0  0  0  0  0  0  0  0  0  0  0  # atno 10764 bound_to 10752
  154.8725  135.3938  154.4138 H   0  0  0  0  0  0  0  0  0  0  0  0  # atno 10765 bound_to 10752
  139.9446  134.7336  156.1012 H   0  0  0  0  0  0  0  0  0  0  0  0  # atno 11005 bound_to 11000
  145.6828  139.1622  143.2691 LP  0  0  0  0  0  0  0  0  0  0  0  0  # atno 17320 bound_to 7965
  146.1537  140.6888  142.9310 LP  0  0  0  0  0  0  0  0  0  0  0  0  # atno 17321 bound_to 7965
  140.5580  144.0315  150.6156 LP  0  0  0  0  0  0  0  0  0  0  0  0  # atno 17342 bound_to 10162
  140.3392  143.3030  152.0606 LP  0  0  0  0  0  0  0  0  0  0  0  0  # atno 17343 bound_to 10162
  155.9837  130.3998  150.3352 LP  0  0  0  0  0  0  0  0  0  0  0  0  # atno 17370 bound_to 10713
  157.1484  131.0314  151.2896 LP  0  0  0  0  0  0  0  0  0  0  0  0  # atno 17371 bound_to 10713
  141.1092  133.6649  156.2938 LP  0  0  0  0  0  0  0  0  0  0  0  0  # atno 17394 bound_to 11000
  140.5867  134.5692  157.5491 LP  0  0  0  0  0  0  0  0  0  0  0  0  # atno 17395 bound_to 11000

$$$$
