AV-unprocessed.smi:341|AV-procd|sdf|2382|dock1
  -GOLD-   2262022303D 1   1.00000     0.00000
 Structure written by MMmdl.
 44 46  0  0  0  0  0  0  0  0  1 V2000
  152.7720  138.5700  159.7563 C   0  0  0  0  0  0  0  0  0  0  0  0
  153.4628  139.9278  159.5810 C   0  0  0  0  0  0  0  0  0  0  0  0
  152.5857  140.8843  158.9104 N   0  0  0  0  0  0  0  0  0  0  0  0
  152.1080  140.7940  157.6466 C   0  0  0  0  0  0  0  0  0  0  0  0
  152.3255  139.8772  156.8549 O   0  0  0  0  0  0  0  0  0  0  0  0
  151.3427  141.8847  157.4074 N   0  0  0  0  0  0  0  0  0  0  0  0
  150.6151  142.1835  156.1753 C   0  0  0  0  0  0  0  0  0  0  0  0
  149.8995  140.9330  155.6234 C   0  0  2  0  0  0  0  0  0  0  0  0
  150.8277  140.2186  154.8310 O   0  0  0  0  0  0  0  0  0  0  0  0
  148.7165  141.3012  154.7115 C   0  0  0  0  0  0  0  0  0  0  0  0
  147.5176  141.2522  155.4744 O   0  0  0  0  0  0  0  0  0  0  0  0
  146.5358  142.1827  155.2101 C   0  0  0  0  0  0  0  0  0  0  0  0
  146.4517  142.6649  153.8876 C   0  0  0  0  0  0  0  0  0  0  0  0
  145.4787  143.6169  153.5263 C   0  0  0  0  0  0  0  0  0  0  0  0
  144.5726  144.0992  154.4910 C   0  0  0  0  0  0  0  0  0  0  0  0
  143.5656  145.0799  154.1213 C   0  0  0  0  0  0  0  0  0  0  0  0
  142.7641  145.8605  153.8266 N   0  0  0  0  0  0  0  0  0  0  0  0
  144.6462  143.6257  155.8160 C   0  0  0  0  0  0  0  0  0  0  0  0
  145.6204  142.6735  156.1754 C   0  0  0  0  0  0  0  0  0  0  0  0
  151.3252  142.6935  158.5531 C   0  0  0  0  0  0  0  0  0  0  0  0
  150.6770  143.9132  158.8156 C   0  0  0  0  0  0  0  0  0  0  0  0
  150.8676  144.4841  160.0958 C   0  0  0  0  0  0  0  0  0  0  0  0
  151.6818  143.8416  161.0645 C   0  0  0  0  0  0  0  0  0  0  0  0
  152.3202  142.6130  160.7749 C   0  0  0  0  0  0  0  0  0  0  0  0
  152.1116  142.0663  159.4968 C   0  0  0  0  0  0  0  0  0  0  0  0
  153.4340  137.8602  160.2527 H   0  0  0  0  0  0  0  0  0  0  0  0
  152.4894  138.1438  158.7932 H   0  0  0  0  0  0  0  0  0  0  0  0
  151.8694  138.6617  160.3612 H   0  0  0  0  0  0  0  0  0  0  0  0
  153.7648  140.3184  160.5540 H   0  0  0  0  0  0  0  0  0  0  0  0
  154.3816  139.8080  159.0064 H   0  0  0  0  0  0  0  0  0  0  0  0
  149.8859  142.9597  156.4087 H   0  0  0  0  0  0  0  0  0  0  0  0
  151.2761  142.6242  155.4264 H   0  0  0  0  0  0  0  0  0  0  0  0
  149.5459  140.3079  156.4449 H   0  0  0  0  0  0  0  0  0  0  0  0
  150.5194  139.3307  154.7320 H   0  0  0  0  0  0  0  0  0  0  0  0
  148.8419  142.3217  154.3462 H   0  0  0  0  0  0  0  0  0  0  0  0
  148.6732  140.6392  153.8446 H   0  0  0  0  0  0  0  0  0  0  0  0
  147.1420  142.3005  153.1409 H   0  0  0  0  0  0  0  0  0  0  0  0
  145.4334  143.9719  152.5066 H   0  0  0  0  0  0  0  0  0  0  0  0
  143.9567  143.9886  156.5647 H   0  0  0  0  0  0  0  0  0  0  0  0
  145.6429  142.3345  157.1997 H   0  0  0  0  0  0  0  0  0  0  0  0
  150.0582  144.3977  158.0750 H   0  0  0  0  0  0  0  0  0  0  0  0
  150.3882  145.4210  160.3382 H   0  0  0  0  0  0  0  0  0  0  0  0
  151.8147  144.2951  162.0358 H   0  0  0  0  0  0  0  0  0  0  0  0
  152.9403  142.1193  161.5084 H   0  0  0  0  0  0  0  0  0  0  0  0
  1  2  1  0  0  0  0
  1 26  1  0  0  0  0
  1 27  1  0  0  0  0
  1 28  1  0  0  0  0
  2  3  1  0  0  0  0
  2 29  1  0  0  0  0
  2 30  1  0  0  0  0
  3 25  1  0  0  0  0
  3  4  1  0  0  0  0
  4  5  2  0  0  0  0
  4  6  1  0  0  0  0
  6  7  1  0  0  0  0
  6 20  1  0  0  0  0
  7  8  1  0  0  0  0
  7 31  1  0  0  0  0
  7 32  1  0  0  0  0
  8  9  1  0  0  0  0
  8 10  1  0  0  0  0
  8 33  1  0  0  0  0
  9 34  1  0  0  0  0
 10 11  1  0  0  0  0
 10 35  1  0  0  0  0
 10 36  1  0  0  0  0
 11 12  1  0  0  0  0
 12 19  1  0  0  0  0
 12 13  2  0  0  0  0
 13 14  1  0  0  0  0
 13 37  1  0  0  0  0
 14 15  2  0  0  0  0
 14 38  1  0  0  0  0
 15 16  1  0  0  0  0
 15 18  1  0  0  0  0
 16 17  3  0  0  0  0
 18 19  2  0  0  0  0
 18 39  1  0  0  0  0
 19 40  1  0  0  0  0
 20 25  2  0  0  0  0
 20 21  1  0  0  0  0
 21 22  2  0  0  0  0
 21 41  1  0  0  0  0
 22 23  1  0  0  0  0
 22 42  1  0  0  0  0
 23 24  2  0  0  0  0
 23 43  1  0  0  0  0
 24 25  1  0  0  0  0
 24 44  1  0  0  0  0
M  END
> <s_m_source_file>
AV-unprocessed.smi

> <i_m_source_file_index>
341

> <i_lp_mmshare_version>
43012

> <i_f3d_flags>
0

> <s_epik_input>
W2NIXTFbY0hdW2NIXVtjSF1jKGMxMiluKFtDSDJdW0NIM10pYyg9TyluMltDSDJdW0NASF0oW09IXSlbQ0gyXU9jM1tjSF1bY0hdYyhDI04pW2NIXVtjSF0z

> <s_epik_cmdline>
J2VwaWtfcHl0aG9uJywgJy1waCcsICc3LjAnLCAnLXRuJywgJzgnLCAnLW1hJywgJzIwMCcsICctbWV0YWxfYmluZGluZycsICctaW1hZScsICc8aW5maWxlLm1hZT4nLCAnLW9tYWUnLCAnPG91dGZpbGUubWFlPic=

> <r_lp_tautomer_probability>
1

> <r_epik_Ionization_Penalty>
2.40146e-06

> <r_epik_Ionization_Penalty_Charging>
2.16099e-09

> <r_epik_Ionization_Penalty_Neutral>
2.3993e-06

> <r_epik_State_Penalty>
-0

> <r_epik_Charging_Adjusted_Penalty>
2.16099e-09

> <i_epik_Tot_Q>
0

> <i_epik_Tot_abs_Q>
0

> <r_epik_Metal_State_Penalty>
-0

> <b_epik_Metal_Only>
0

> <s_lp_Force_Field>
OPLS_2005

> <r_lp_Energy>
48.2045

> <b_lp_Chiralities_Consistent>
1

> <s_lp_Variant>
AV-unprocessed.smi:341-1

> <Gold.Version>
5.8.1

> <Gold.Id.Protein>
6NUR|6NUR_protein|mol2

> <Gold.PLP.Fitness>
58.0925

> <Gold.PLP.PLP>
-54.9707

> <Gold.PLP.part.hbond>
-3.0000

> <Gold.PLP.part.metal>
0.0000

> <Gold.PLP.part.buried>
-9.4391

> <Gold.PLP.part.nonpolar>
-42.2164

> <Gold.PLP.part.repulsive>
0.1539

> <Gold.PLP.ligand.clash>
0.0000

> <Gold.PLP.ligand.torsion>
1.6040

> <Gold.PLP.Chemscore.Hbond>
2.0000

> <Gold.PLP.Chemscore.CHOScore>
0.0000

> <Gold.PLP.Chemscore.Metal>
0.0000

> <Gold.Chemscore.Hbonds>
donor molecule, donor type, donor heavy atom, donor atom, acceptor molecule, acceptor atom, score
      P1  H  7989  7998       L1     9  1.00
      P1  H  7997  8008       L1     5  0.89

> <Gold.PLP.Chemscore.Internal.Correction>
0.3300

> <Gold.Rescore>
     Score         DG    S(hbond)    S(metal)    S(lipo)     H(rot)  DE(clash)    DE(int)     intcor
     14.64     -17.04       1.01        0.00     124.11       2.48       0.03       2.37       ----

> <Gold.Chemscore.Fitness>
14.6400

> <Gold.Chemscore.DG>
-17.0416

> <Gold.Chemscore.ZeroCoef>
-5.4800

> <Gold.Chemscore.Hbond>
1.0123

> <Gold.Chemscore.Metal>
0.0000

> <Gold.Chemscore.Lipo>
124.1141

> <Gold.Chemscore.Internal_Hbond>
0.0000

> <Gold.Chemscore.DEClash>
0.0287

> <Gold.Chemscore.DEInternal>
2.3729

> <Gold.Chemscore.Rot>
2.4768

> <Gold.Chemscore.Internal.Correction>
   9.000000E+99

> <Gold.Chemscore.Hbonds>
donor molecule, donor type, donor heavy atom, donor atom, acceptor molecule, acceptor atom, score
      P1  H  7989  7998       L1     9  0.92
      P1  H  7997  8008       L1     5  0.34

> <Gold.Chemscore.Hbond.Weighted>
-3.3809

> <Gold.Chemscore.Metal.Weighted>
-0.0000

> <Gold.Chemscore.Lipo.Weighted>
-14.5213

> <Gold.Chemscore.Internal_Hbond.Weighted>
0.0000

> <Gold.Chemscore.DEClash.Weighted>
0.0287

> <Gold.Chemscore.DEInternal.Weighted>
2.3729

> <Gold.Chemscore.Rot.Weighted>
6.3407

> <Gold.Chemscore.Internal.Correction.Weighted>
   9.000000E+99

> <Gold.Protein.RotatedTorsions>
[ 6907 6896 6895 6894 ] final -166.68 input  -60.11 | X-H torsion
[ 7974 7965 7964 7962 ] final -112.82 input  175.53 | X-H torsion
[ 8008 7997 7996 7995 ] final  -45.71 input   59.86 | X-H torsion
[ 10167 10162 10161 10158 ] final  124.28 input  -65.29 | X-H torsion
[ 10718 10713 10712 10709 ] final  -31.84 input   66.30 | X-H torsion
[ 10763 10752 10751 10750 ] final -148.48 input  -60.55 | X-H torsion
[ 11005 11000 10999 10996 ] final  -81.53 input  -57.11 | X-H torsion

> <Gold.Protein.ActiveResidues>
 VAL166  LYS551  ARG553  GLY616  TRP617  ASP618  TYR619  PRO620  LYS621  CYS622 
 ASP623  PHE694  ASN695  SER759  ASP760  ASP761  ALA762  ILE779  LEU786  VAL792 
 PHE793  MET794  SER795  GLU796  ALA797  LYS798  CYS799  TRP800  GLU811  SER814 

> <Gold.Protein.RotatedAtoms>
  151.4475  133.3626  159.2790 H   0  0  0  0  0  0  0  0  0  0  0  0  # atno 6907 bound_to 6896
  150.9114  134.8532  159.7438 H   0  0  0  0  0  0  0  0  0  0  0  0  # atno 6908 bound_to 6896
  152.4934  134.4405  159.9594 H   0  0  0  0  0  0  0  0  0  0  0  0  # atno 6909 bound_to 6896
  145.1394  140.8769  143.3711 H   0  0  0  0  0  0  0  0  0  0  0  0  # atno 7974 bound_to 7965
  154.4002  140.1390  156.3891 H   0  0  0  0  0  0  0  0  0  0  0  0  # atno 8008 bound_to 7997
  155.7931  140.3478  155.5340 H   0  0  0  0  0  0  0  0  0  0  0  0  # atno 8009 bound_to 7997
  155.8559  140.0949  157.1635 H   0  0  0  0  0  0  0  0  0  0  0  0  # atno 8010 bound_to 7997
  139.5751  144.6959  151.3676 H   0  0  0  0  0  0  0  0  0  0  0  0  # atno 10167 bound_to 10162
  156.3822  130.4358  149.7460 H   0  0  0  0  0  0  0  0  0  0  0  0  # atno 10718 bound_to 10713
  154.8231  135.3333  154.6980 H   0  0  0  0  0  0  0  0  0  0  0  0  # atno 10763 bound_to 10752
  153.7610  135.6932  153.4930 H   0  0  0  0  0  0  0  0  0  0  0  0  # atno 10764 bound_to 10752
  153.2110  135.4482  155.0329 H   0  0  0  0  0  0  0  0  0  0  0  0  # atno 10765 bound_to 10752
  141.1666  133.7201  156.8437 H   0  0  0  0  0  0  0  0  0  0  0  0  # atno 11005 bound_to 11000
  145.0549  139.3152  143.5910 LP  0  0  0  0  0  0  0  0  0  0  0  0  # atno 17320 bound_to 7965
  146.3506  139.9970  142.8680 LP  0  0  0  0  0  0  0  0  0  0  0  0  # atno 17321 bound_to 7965
  140.7033  143.7576  150.7440 LP  0  0  0  0  0  0  0  0  0  0  0  0  # atno 17342 bound_to 10162
  140.1093  143.4714  152.2379 LP  0  0  0  0  0  0  0  0  0  0  0  0  # atno 17343 bound_to 10162
  156.4546  130.7923  151.2944 LP  0  0  0  0  0  0  0  0  0  0  0  0  # atno 17370 bound_to 10713
  157.7493  131.0085  150.3230 LP  0  0  0  0  0  0  0  0  0  0  0  0  # atno 17371 bound_to 10713
  140.1965  134.8928  157.3120 LP  0  0  0  0  0  0  0  0  0  0  0  0  # atno 17394 bound_to 11000
  140.2233  134.3996  155.7555 LP  0  0  0  0  0  0  0  0  0  0  0  0  # atno 17395 bound_to 11000

$$$$
