AV-unprocessed.smi:1554|AV-procd|sdf|6247|dock2
  -GOLD-   22720 6433D 1   1.00000     0.00000
 Structure written by MMmdl.
 48 50  0  0  0  0  0  0  0  0  2 V2000
  151.0018  143.7581  159.6444 C   0  0  0  0  0  0  0  0  0  0  0  0
  151.1283  142.5956  158.6754 C   0  0  0  0  0  0  0  0  0  0  0  0
  150.3317  142.5839  157.5084 C   0  0  0  0  0  0  0  0  0  0  0  0
  150.4220  141.5236  156.5801 C   0  0  0  0  0  0  0  0  0  0  0  0
  149.7492  141.3123  155.3888 N   0  0  0  0  0  0  0  0  0  0  0  0
  150.2703  140.1567  154.9877 C   0  0  0  0  0  0  0  0  0  0  0  0
  151.2041  139.5938  155.7783 N   0  0  0  0  0  0  0  0  0  0  0  0
  151.9090  138.3466  155.5415 C   0  0  0  0  0  0  0  0  0  0  0  0
  151.1109  137.3811  154.6442 C   0  0  1  0  0  0  0  0  0  0  0  0
  151.9964  136.7183  153.7614 O   0  0  0  0  0  0  0  0  0  0  0  0
  150.3501  136.3254  155.4700 C   0  0  0  0  0  0  0  0  0  0  0  0
  149.4451  135.4953  154.6295 N   0  3  2  0  0  0  0  0  0  0  0  0
  148.0843  135.2957  155.1912 C   0  0  0  0  0  0  0  0  0  0  0  0
  148.0789  134.2189  156.2941 C   0  0  0  0  0  0  0  0  0  0  0  0
  148.6439  133.0124  155.7960 O   0  0  0  0  0  0  0  0  0  0  0  0
  149.9939  133.1745  155.3747 C   0  0  1  0  0  0  0  0  0  0  0  0
  150.5288  131.8028  154.9486 C   0  0  0  0  0  0  0  0  0  0  0  0
  150.0345  134.1969  154.2206 C   0  0  0  0  0  0  0  0  0  0  0  0
  151.3384  140.4662  156.8535 C   0  0  0  0  0  0  0  0  0  0  0  0
  152.1359  140.4662  158.0118 C   0  0  0  0  0  0  0  0  0  0  0  0
  152.0330  141.5334  158.9285 C   0  0  0  0  0  0  0  0  0  0  0  0
  152.8982  141.5239  160.1763 C   0  0  0  0  0  0  0  0  0  0  0  0
  150.2351  144.4637  159.3226 H   0  0  0  0  0  0  0  0  0  0  0  0
  151.9459  144.2987  159.7152 H   0  0  0  0  0  0  0  0  0  0  0  0
  150.7311  143.4017  160.6386 H   0  0  0  0  0  0  0  0  0  0  0  0
  149.6431  143.3933  157.3152 H   0  0  0  0  0  0  0  0  0  0  0  0
  149.9577  139.6927  154.0636 H   0  0  0  0  0  0  0  0  0  0  0  0
  152.8803  138.5709  155.0990 H   0  0  0  0  0  0  0  0  0  0  0  0
  152.1087  137.8823  156.5082 H   0  0  0  0  0  0  0  0  0  0  0  0
  150.4130  137.9649  154.0445 H   0  0  0  0  0  0  0  0  0  0  0  0
  151.6593  136.7903  152.8813 H   0  0  0  0  0  0  0  0  0  0  0  0
  151.0807  135.6873  155.9696 H   0  0  0  0  0  0  0  0  0  0  0  0
  149.7806  136.8056  156.2657 H   0  0  0  0  0  0  0  0  0  0  0  0
  147.6693  136.2301  155.5674 H   0  0  0  0  0  0  0  0  0  0  0  0
  147.4283  134.9770  154.3802 H   0  0  0  0  0  0  0  0  0  0  0  0
  148.6222  134.5498  157.1798 H   0  0  0  0  0  0  0  0  0  0  0  0
  147.0558  134.0189  156.6125 H   0  0  0  0  0  0  0  0  0  0  0  0
  150.5939  133.5311  156.2138 H   0  0  0  0  0  0  0  0  0  0  0  0
  151.5670  131.8708  154.6223 H   0  0  0  0  0  0  0  0  0  0  0  0
  149.9456  131.3888  154.1256 H   0  0  0  0  0  0  0  0  0  0  0  0
  150.4873  131.0939  155.7758 H   0  0  0  0  0  0  0  0  0  0  0  0
  149.4603  133.8150  153.3753 H   0  0  0  0  0  0  0  0  0  0  0  0
  151.0534  134.3369  153.8576 H   0  0  0  0  0  0  0  0  0  0  0  0
  152.8223  139.6528  158.1930 H   0  0  0  0  0  0  0  0  0  0  0  0
  153.5443  140.6461  160.2056 H   0  0  0  0  0  0  0  0  0  0  0  0
  152.2761  141.5112  161.0716 H   0  0  0  0  0  0  0  0  0  0  0  0
  153.5342  142.4087  160.2077 H   0  0  0  0  0  0  0  0  0  0  0  0
  149.3302  136.0251  153.7766 H   0  0  0  0  0  0  0  0  0  0  0  0
  1  2  1  0  0  0  0
  1 23  1  0  0  0  0
  1 24  1  0  0  0  0
  1 25  1  0  0  0  0
  2 21  1  0  0  0  0
  2  3  2  0  0  0  0
  3  4  1  0  0  0  0
  3 26  1  0  0  0  0
  4 19  2  0  0  0  0
  4  5  1  0  0  0  0
  5  6  2  0  0  0  0
  6  7  1  0  0  0  0
  6 27  1  0  0  0  0
  7  8  1  0  0  0  0
  7 19  1  0  0  0  0
  8  9  1  0  0  0  0
  8 28  1  0  0  0  0
  8 29  1  0  0  0  0
  9 10  1  0  0  0  0
  9 11  1  0  0  0  0
  9 30  1  0  0  0  0
 10 31  1  0  0  0  0
 11 12  1  0  0  0  0
 11 32  1  0  0  0  0
 11 33  1  0  0  0  0
 12 18  1  0  0  0  0
 12 13  1  0  0  0  0
 12 48  1  0  0  0  0
 13 14  1  0  0  0  0
 13 34  1  0  0  0  0
 13 35  1  0  0  0  0
 14 15  1  0  0  0  0
 14 36  1  0  0  0  0
 14 37  1  0  0  0  0
 15 16  1  0  0  0  0
 16 17  1  0  0  0  0
 16 18  1  0  0  0  0
 16 38  1  0  0  0  0
 17 39  1  0  0  0  0
 17 40  1  0  0  0  0
 17 41  1  0  0  0  0
 18 42  1  0  0  0  0
 18 43  1  0  0  0  0
 19 20  1  0  0  0  0
 20 21  2  0  0  0  0
 20 44  1  0  0  0  0
 21 22  1  0  0  0  0
 22 45  1  0  0  0  0
 22 46  1  0  0  0  0
 22 47  1  0  0  0  0
M  CHG  1  12   1
M  END
> <s_m_source_file>
AV-unprocessed.smi

> <i_m_source_file_index>
1554

> <i_lp_mmshare_version>
43012

> <i_f3d_flags>
0

> <s_epik_input>
W0NIM11jKFtjSF0xKWMoW0NIM10pW2NIXWMoYzEyKW4oW2NIXW4yKVtDSDJdW0NASF0oW09IXSlbQ0gyXU4zW0NIMl1bQ0gyXU9bQ0BASF0oW0NIM10pW0NIMl0z

> <s_epik_cmdline>
J2VwaWtfcHl0aG9uJywgJy1waCcsICc3LjAnLCAnLXRuJywgJzgnLCAnLW1hJywgJzIwMCcsICctbWV0YWxfYmluZGluZycsICctaW1hZScsICc8aW5maWxlLm1hZT4nLCAnLW9tYWUnLCAnPG91dGZpbGUubWFlPic=

> <r_epik_Ionization_Penalty>
0.695251

> <r_epik_Ionization_Penalty_Charging>
0.608065

> <r_epik_Ionization_Penalty_Neutral>
0.0871863

> <r_epik_State_Penalty>
0.731955

> <r_epik_Charging_Adjusted_Penalty>
1.34002

> <i_epik_Tot_Q>
1

> <i_epik_Tot_abs_Q>
1

> <r_epik_Metal_State_Penalty>
0.652186

> <b_epik_Metal_Only>
0

> <s_lp_Force_Field>
OPLS_2005

> <r_lp_Energy>
22.6642

> <b_lp_Chiralities_Consistent>
1

> <s_lp_Variant>
AV-unprocessed.smi:1554-8

> <Gold.Version>
5.8.1

> <Gold.Id.Protein>
6NUR|6NUR_protein|mol2

> <Gold.PLP.Fitness>
48.9160

> <Gold.PLP.PLP>
-37.8933

> <Gold.PLP.part.hbond>
-3.8772

> <Gold.PLP.part.metal>
0.0000

> <Gold.PLP.part.buried>
2.0596

> <Gold.PLP.part.nonpolar>
-35.9963

> <Gold.PLP.part.repulsive>
0.1635

> <Gold.PLP.ligand.clash>
0.0000

> <Gold.PLP.ligand.torsion>
1.4863

> <Gold.PLP.Chemscore.Hbond>
4.0000

> <Gold.PLP.Chemscore.CHOScore>
0.6365

> <Gold.PLP.Chemscore.Metal>
0.0000

> <Gold.Chemscore.Hbonds>
donor molecule, donor type, donor heavy atom, donor atom, acceptor molecule, acceptor atom, score
      L1  H    10    31       P1  7949  0.94
      L1  H    12    48       P1  7948  2.00
      P1  H 10752 10765       L1    10  0.98

> <Gold.PLP.Chemscore.Internal.Correction>
0.0860

> <Gold.Rescore>
     Score         DG    S(hbond)    S(metal)    S(lipo)     H(rot)  DE(clash)    DE(int)     intcor
     19.55     -21.19       2.53        0.00     106.89       2.05       0.33       1.31       ----

> <Gold.Chemscore.Fitness>
19.5479

> <Gold.Chemscore.DG>
-21.1928

> <Gold.Chemscore.ZeroCoef>
-5.4800

> <Gold.Chemscore.Hbond>
2.5347

> <Gold.Chemscore.Metal>
0.0000

> <Gold.Chemscore.Lipo>
106.8928

> <Gold.Chemscore.Internal_Hbond>
0.0000

> <Gold.Chemscore.DEClash>
0.3342

> <Gold.Chemscore.DEInternal>
1.3107

> <Gold.Chemscore.Rot>
2.0546

> <Gold.Chemscore.Internal.Correction>
   9.000000E+99

> <Gold.Chemscore.Hbonds>
donor molecule, donor type, donor heavy atom, donor atom, acceptor molecule, acceptor atom, score
      L1  H    10    31       P1  7949  0.90
      L1  H    12    48       P1  7948  0.72
      P1  H 10752 10765       L1    10  0.68

> <Gold.Chemscore.Hbond.Weighted>
-8.4660

> <Gold.Chemscore.Metal.Weighted>
-0.0000

> <Gold.Chemscore.Lipo.Weighted>
-12.5065

> <Gold.Chemscore.Internal_Hbond.Weighted>
0.0000

> <Gold.Chemscore.DEClash.Weighted>
0.3342

> <Gold.Chemscore.DEInternal.Weighted>
1.3107

> <Gold.Chemscore.Rot.Weighted>
5.2597

> <Gold.Chemscore.Internal.Correction.Weighted>
   9.000000E+99

> <Gold.Protein.RotatedTorsions>
[ 6907 6896 6895 6894 ] final   11.21 input  -60.11 | X-H torsion
[ 7974 7965 7964 7962 ] final -175.19 input  175.53 | X-H torsion
[ 8008 7997 7996 7995 ] final  116.32 input   59.86 | X-H torsion
[ 10167 10162 10161 10158 ] final  -70.09 input  -65.29 | X-H torsion
[ 10718 10713 10712 10709 ] final   10.25 input   66.30 | X-H torsion
[ 10763 10752 10751 10750 ] final  130.59 input  -60.55 | X-H torsion
[ 11005 11000 10999 10996 ] final  -62.72 input  -57.11 | X-H torsion

> <Gold.Protein.ActiveResidues>
 VAL166  LYS551  ARG553  GLY616  TRP617  ASP618  TYR619  PRO620  LYS621  CYS622 
 ASP623  PHE694  ASN695  SER759  ASP760  ASP761  ALA762  ILE779  LEU786  VAL792 
 PHE793  MET794  SER795  GLU796  ALA797  LYS798  CYS799  TRP800  GLU811  SER814 

> <Gold.Protein.RotatedAtoms>
  151.7507  135.0833  160.0330 H   0  0  0  0  0  0  0  0  0  0  0  0  # atno 6907 bound_to 6896
  152.3419  133.6072  159.5891 H   0  0  0  0  0  0  0  0  0  0  0  0  # atno 6908 bound_to 6896
  150.7484  133.9626  159.3562 H   0  0  0  0  0  0  0  0  0  0  0  0  # atno 6909 bound_to 6896
  144.7129  140.1357  143.6395 H   0  0  0  0  0  0  0  0  0  0  0  0  # atno 7974 bound_to 7965
  156.2433  140.2920  156.0506 H   0  0  0  0  0  0  0  0  0  0  0  0  # atno 8008 bound_to 7997
  155.1886  140.0406  157.2913 H   0  0  0  0  0  0  0  0  0  0  0  0  # atno 8009 bound_to 7997
  154.6210  140.2476  155.7556 H   0  0  0  0  0  0  0  0  0  0  0  0  # atno 8010 bound_to 7997
  140.5380  143.2316  151.7141 H   0  0  0  0  0  0  0  0  0  0  0  0  # atno 10167 bound_to 10162
  156.9782  130.5995  149.5674 H   0  0  0  0  0  0  0  0  0  0  0  0  # atno 10718 bound_to 10713
  153.7605  135.3196  155.3336 H   0  0  0  0  0  0  0  0  0  0  0  0  # atno 10763 bound_to 10752
  154.8232  135.4589  154.0842 H   0  0  0  0  0  0  0  0  0  0  0  0  # atno 10764 bound_to 10752
  153.2072  135.6930  153.8242 H   0  0  0  0  0  0  0  0  0  0  0  0  # atno 10765 bound_to 10752
  141.1369  133.6643  156.5571 H   0  0  0  0  0  0  0  0  0  0  0  0  # atno 11005 bound_to 11000
  145.9246  139.2567  143.1361 LP  0  0  0  0  0  0  0  0  0  0  0  0  # atno 17320 bound_to 7965
  145.9585  140.8854  143.0223 LP  0  0  0  0  0  0  0  0  0  0  0  0  # atno 17321 bound_to 7965
  139.4978  144.4013  152.0178 LP  0  0  0  0  0  0  0  0  0  0  0  0  # atno 17342 bound_to 10162
  140.3119  144.3527  150.6031 LP  0  0  0  0  0  0  0  0  0  0  0  0  # atno 17343 bound_to 10162
  156.0255  130.5349  150.8395 LP  0  0  0  0  0  0  0  0  0  0  0  0  # atno 17370 bound_to 10713
  157.5545  131.0944  150.9648 LP  0  0  0  0  0  0  0  0  0  0  0  0  # atno 17371 bound_to 10713
  140.4018  134.7350  157.4784 LP  0  0  0  0  0  0  0  0  0  0  0  0  # atno 17394 bound_to 11000
  140.0491  134.6157  155.8884 LP  0  0  0  0  0  0  0  0  0  0  0  0  # atno 17395 bound_to 11000

$$$$
