AV-unprocessed.smi:2557|AV-procd|sdf|10031|dock4
  -GOLD-   2272014 73D 1   1.00000     0.00000
 Structure written by MMmdl.
 39 41  0  0  0  0  0  0  0  0  3 V2000
  145.3356  139.7617  155.3056 O   0  5  0  0  0  0  0  0  0  0  0  0
  146.0686  139.1600  154.4861 C   0  0  0  0  0  0  0  0  0  0  0  0
  145.8343  138.0925  153.6166 C   0  0  0  0  0  0  0  0  0  0  0  0
  144.4992  137.4871  153.5414 C   0  0  0  0  0  0  0  0  0  0  0  0
  143.4918  137.8194  154.1636 O   0  0  0  0  0  0  0  0  0  0  0  0
  144.3837  136.3863  152.6373 N   0  0  0  0  0  0  0  0  0  0  0  0
  145.4229  135.9397  151.9049 C   0  0  0  0  0  0  0  0  0  0  0  0
  145.1954  134.7681  150.9932 C   0  0  0  0  0  0  0  0  0  0  0  0
  143.9439  133.9899  151.4420 C   0  0  0  0  0  0  0  0  0  0  0  0
  143.7127  132.7574  150.5525 C   0  0  0  0  0  0  0  0  0  0  0  0
  144.9529  131.8478  150.5265 C   0  0  0  0  0  0  0  0  0  0  0  0
  146.2074  132.6236  150.0908 C   0  0  0  0  0  0  0  0  0  0  0  0
  146.4371  133.8550  150.9819 C   0  0  0  0  0  0  0  0  0  0  0  0
  146.6434  136.5066  151.9707 N   0  3  0  0  0  0  0  0  0  0  0  0
  146.8524  137.6045  152.7989 N   0  0  0  0  0  0  0  0  0  0  0  0
  147.4272  139.7280  154.5576 C   0  0  0  0  0  0  0  0  0  0  0  0
  148.5314  138.9210  154.9079 C   0  0  0  0  0  0  0  0  0  0  0  0
  149.8081  139.5127  154.9736 C   0  0  0  0  0  0  0  0  0  0  0  0
  150.0349  140.8187  154.7167 N   0  0  0  0  0  0  0  0  0  0  0  0
  148.9751  141.5887  154.3891 C   0  0  0  0  0  0  0  0  0  0  0  0
  147.6586  141.0962  154.2981 C   0  0  0  0  0  0  0  0  0  0  0  0
  145.0293  135.1379  149.9795 H   0  0  0  0  0  0  0  0  0  0  0  0
  144.0522  133.6697  152.4785 H   0  0  0  0  0  0  0  0  0  0  0  0
  143.0716  134.6431  151.4096 H   0  0  0  0  0  0  0  0  0  0  0  0
  142.8480  132.1973  150.9094 H   0  0  0  0  0  0  0  0  0  0  0  0
  143.4750  133.0786  149.5376 H   0  0  0  0  0  0  0  0  0  0  0  0
  145.1133  131.4212  151.5177 H   0  0  0  0  0  0  0  0  0  0  0  0
  144.7833  131.0073  149.8530 H   0  0  0  0  0  0  0  0  0  0  0  0
  147.0800  131.9707  150.1263 H   0  0  0  0  0  0  0  0  0  0  0  0
  146.0996  132.9388  149.0521 H   0  0  0  0  0  0  0  0  0  0  0  0
  147.3040  134.4145  150.6299 H   0  0  0  0  0  0  0  0  0  0  0  0
  146.6724  133.5234  151.9936 H   0  0  0  0  0  0  0  0  0  0  0  0
  147.4052  136.1481  151.4119 H   0  0  0  0  0  0  0  0  0  0  0  0
  147.8128  137.9143  152.8521 H   0  0  0  0  0  0  0  0  0  0  0  0
  148.4000  137.8712  155.1244 H   0  0  0  0  0  0  0  0  0  0  0  0
  150.6711  138.9204  155.2383 H   0  0  0  0  0  0  0  0  0  0  0  0
  149.1828  142.6300  154.1919 H   0  0  0  0  0  0  0  0  0  0  0  0
  146.8430  141.7530  154.0331 H   0  0  0  0  0  0  0  0  0  0  0  0
  143.5160  135.8878  152.5048 H   0  0  0  0  0  0  0  0  0  0  0  0
  1  2  1  0  0  0  0
  2  3  2  0  0  0  0
  2 16  1  0  0  0  0
  3 15  1  0  0  0  0
  3  4  1  0  0  0  0
  4  5  2  0  0  0  0
  4  6  1  0  0  0  0
  6  7  1  0  0  0  0
  6 39  1  0  0  0  0
  7  8  1  0  0  0  0
  7 14  2  0  0  0  0
  8 13  1  0  0  0  0
  8  9  1  0  0  0  0
  8 22  1  0  0  0  0
  9 10  1  0  0  0  0
  9 23  1  0  0  0  0
  9 24  1  0  0  0  0
 10 11  1  0  0  0  0
 10 25  1  0  0  0  0
 10 26  1  0  0  0  0
 11 12  1  0  0  0  0
 11 27  1  0  0  0  0
 11 28  1  0  0  0  0
 12 13  1  0  0  0  0
 12 29  1  0  0  0  0
 12 30  1  0  0  0  0
 13 31  1  0  0  0  0
 13 32  1  0  0  0  0
 14 15  1  0  0  0  0
 14 33  1  0  0  0  0
 15 34  1  0  0  0  0
 16 21  1  0  0  0  0
 16 17  2  0  0  0  0
 17 18  1  0  0  0  0
 17 35  1  0  0  0  0
 18 19  2  0  0  0  0
 18 36  1  0  0  0  0
 19 20  1  0  0  0  0
 20 21  2  0  0  0  0
 20 37  1  0  0  0  0
 21 38  1  0  0  0  0
M  CHG  1   1  -1
M  CHG  1  14   1
M  END
> <s_m_source_file>
AV-unprocessed.smi

> <i_m_source_file_index>
2557

> <i_lp_mmshare_version>
43012

> <i_f3d_flags>
0

> <s_epik_input>
W2NIXTFbY0hdbltjSF1bY0hdYzFDKD1PKUMyPUMoW09IXSlOPUMoW05IXVtOSF0yKVtDSF0zW0NIMl1bQ0gyXVtDSDJdW0NIMl1bQ0gyXTM=

> <s_epik_cmdline>
J2VwaWtfcHl0aG9uJywgJy1waCcsICc3LjAnLCAnLXRuJywgJzgnLCAnLW1hJywgJzIwMCcsICctbWV0YWxfYmluZGluZycsICctaW1hZScsICc8aW5maWxlLm1hZT4nLCAnLW9tYWUnLCAnPG91dGZpbGUubWFlPic=

> <r_epik_Ionization_Penalty>
2.4889

> <r_epik_Ionization_Penalty_Charging>
1.64109

> <r_epik_Ionization_Penalty_Neutral>
0.84781

> <r_epik_State_Penalty>
2.44612

> <r_epik_Charging_Adjusted_Penalty>
4.08721

> <i_epik_Tot_Q>
0

> <i_epik_Tot_abs_Q>
2

> <r_epik_Metal_State_Penalty>
1.55557

> <b_epik_Metal_Only>
0

> <s_epik_Chemistry_Notes>
This compound has an imine and may undergo hydrolysis.

> <s_lp_Force_Field>
OPLS_2005

> <r_lp_Energy>
23.4412

> <b_lp_Chiralities_Consistent>
1

> <s_lp_Variant>
AV-unprocessed.smi:2557-5

> <Gold.Version>
5.8.1

> <Gold.Id.Protein>
6NUR|6NUR_protein|mol2

> <Gold.PLP.Fitness>
38.6095

> <Gold.PLP.PLP>
-32.7405

> <Gold.PLP.part.hbond>
-2.2782

> <Gold.PLP.part.metal>
0.0000

> <Gold.PLP.part.buried>
-5.4480

> <Gold.PLP.part.nonpolar>
-25.6531

> <Gold.PLP.part.repulsive>
0.4313

> <Gold.PLP.ligand.clash>
1.3082

> <Gold.PLP.ligand.torsion>
1.7110

> <Gold.PLP.Chemscore.Hbond>
1.8124

> <Gold.PLP.Chemscore.CHOScore>
0.9745

> <Gold.PLP.Chemscore.Metal>
0.0000

> <Gold.Chemscore.Hbonds>
donor molecule, donor type, donor heavy atom, donor atom, acceptor molecule, acceptor atom, score
      L1  H    14    33       P1  7948  1.02
      L1  H    15    34       P1  7948  0.04
      P1  H  7989  7998       L1    19  0.75
      L1  C    20    37       P1  8028  0.96

> <Gold.PLP.Chemscore.Internal.Correction>
2.2386

> <Gold.Rescore>
     Score         DG    S(hbond)    S(metal)    S(lipo)     H(rot)  DE(clash)    DE(int)     intcor
     14.57     -17.30       1.35        0.00      84.27       1.00       0.01       2.73       ----

> <Gold.Chemscore.Fitness>
14.5673

> <Gold.Chemscore.DG>
-17.3049

> <Gold.Chemscore.ZeroCoef>
-5.4800

> <Gold.Chemscore.Hbond>
1.3548

> <Gold.Chemscore.Metal>
0.0000

> <Gold.Chemscore.Lipo>
84.2732

> <Gold.Chemscore.Internal_Hbond>
0.0000

> <Gold.Chemscore.DEClash>
0.0106

> <Gold.Chemscore.DEInternal>
2.7269

> <Gold.Chemscore.Rot>
1.0000

> <Gold.Chemscore.Internal.Correction>
   9.000000E+99

> <Gold.Chemscore.Hbonds>
donor molecule, donor type, donor heavy atom, donor atom, acceptor molecule, acceptor atom, score
      L1  H    14    33       P1  7948  0.50
      L1  H    15    34       P1  7948  0.05
      P1  H  7989  7998       L1    19  0.40

> <Gold.Chemscore.Hbond.Weighted>
-4.5249

> <Gold.Chemscore.Metal.Weighted>
-0.0000

> <Gold.Chemscore.Lipo.Weighted>
-9.8600

> <Gold.Chemscore.Internal_Hbond.Weighted>
0.0000

> <Gold.Chemscore.DEClash.Weighted>
0.0106

> <Gold.Chemscore.DEInternal.Weighted>
2.7269

> <Gold.Chemscore.Rot.Weighted>
2.5600

> <Gold.Chemscore.Internal.Correction.Weighted>
   9.000000E+99

> <Gold.Protein.RotatedTorsions>
[ 6907 6896 6895 6894 ] final   34.67 input  -60.11 | X-H torsion
[ 7974 7965 7964 7962 ] final  -67.20 input  175.53 | X-H torsion
[ 8008 7997 7996 7995 ] final   73.54 input   59.86 | X-H torsion
[ 10167 10162 10161 10158 ] final  -17.60 input  -65.29 | X-H torsion
[ 10718 10713 10712 10709 ] final -163.35 input   66.30 | X-H torsion
[ 10763 10752 10751 10750 ] final  130.06 input  -60.55 | X-H torsion
[ 11005 11000 10999 10996 ] final   78.39 input  -57.11 | X-H torsion

> <Gold.Protein.ActiveResidues>
 VAL166  LYS551  ARG553  GLY616  TRP617  ASP618  TYR619  PRO620  LYS621  CYS622 
 ASP623  PHE694  ASN695  SER759  ASP760  ASP761  ALA762  ILE779  LEU786  VAL792 
 PHE793  MET794  SER795  GLU796  ALA797  LYS798  CYS799  TRP800  GLU811  SER814 

> <Gold.Protein.RotatedAtoms>
  152.1057  134.9310  160.0568 H   0  0  0  0  0  0  0  0  0  0  0  0  # atno 6907 bound_to 6896
  152.0508  133.4013  159.4384 H   0  0  0  0  0  0  0  0  0  0  0  0  # atno 6908 bound_to 6896
  150.6841  134.3231  159.4838 H   0  0  0  0  0  0  0  0  0  0  0  0  # atno 6909 bound_to 6896
  145.7321  140.8992  143.0574 H   0  0  0  0  0  0  0  0  0  0  0  0  # atno 7974 bound_to 7965
  155.7852  140.3481  155.5319 H   0  0  0  0  0  0  0  0  0  0  0  0  # atno 8008 bound_to 7997
  155.8689  140.0983  157.1584 H   0  0  0  0  0  0  0  0  0  0  0  0  # atno 8009 bound_to 7997
  154.4016  140.1344  156.4040 H   0  0  0  0  0  0  0  0  0  0  0  0  # atno 8010 bound_to 7997
  140.7249  143.4999  150.9882 H   0  0  0  0  0  0  0  0  0  0  0  0  # atno 10167 bound_to 10162
  156.6234  130.8900  151.2962 H   0  0  0  0  0  0  0  0  0  0  0  0  # atno 10718 bound_to 10713
  153.7518  135.3209  155.3322 H   0  0  0  0  0  0  0  0  0  0  0  0  # atno 10763 bound_to 10752
  154.8260  135.4569  154.0924 H   0  0  0  0  0  0  0  0  0  0  0  0  # atno 10764 bound_to 10752
  153.2129  135.6938  153.8174 H   0  0  0  0  0  0  0  0  0  0  0  0  # atno 10765 bound_to 10752
  139.9214  134.7760  156.1644 H   0  0  0  0  0  0  0  0  0  0  0  0  # atno 11005 bound_to 11000
  144.6890  139.9345  143.7473 LP  0  0  0  0  0  0  0  0  0  0  0  0  # atno 17320 bound_to 7965
  146.0527  139.3527  143.0629 LP  0  0  0  0  0  0  0  0  0  0  0  0  # atno 17321 bound_to 7965
  139.8708  143.7195  152.3166 LP  0  0  0  0  0  0  0  0  0  0  0  0  # atno 17342 bound_to 10162
  139.7443  144.7551  151.0604 LP  0  0  0  0  0  0  0  0  0  0  0  0  # atno 17343 bound_to 10162
  157.7221  130.9572  150.1481 LP  0  0  0  0  0  0  0  0  0  0  0  0  # atno 17370 bound_to 10713
  156.2293  130.3680  149.8464 LP  0  0  0  0  0  0  0  0  0  0  0  0  # atno 17371 bound_to 10713
  141.0738  133.6784  156.2195 LP  0  0  0  0  0  0  0  0  0  0  0  0  # atno 17394 bound_to 11000
  140.6462  134.5114  157.5574 LP  0  0  0  0  0  0  0  0  0  0  0  0  # atno 17395 bound_to 11000

$$$$
