AV-unprocessed.smi:2892|AV-procd|sdf|11121|dock10
  -GOLD-   2272015593D 1   1.00000     0.00000
 Structure written by MMmdl.
 42 42  0  0  0  0  0  0  0  0  2 V2000
  147.9912  131.8579  161.4756 C   0  0  0  0  0  0  0  0  0  0  0  0
  147.2970  132.7217  160.4124 C   0  0  0  0  0  0  0  0  0  0  0  0
  146.8556  134.1239  160.9102 C   0  0  1  0  0  0  0  0  0  0  0  0
  146.7423  134.1351  162.4525 C   0  0  0  0  0  0  0  0  0  0  0  0
  147.8062  135.2440  160.3845 C   0  0  1  0  0  0  0  0  0  0  0  0
  147.6327  135.3876  158.9400 N   0  0  0  0  0  0  0  0  0  0  0  0
  148.6128  135.4880  158.0275 C   0  0  0  0  0  0  0  0  0  0  0  0
  149.8102  135.5093  158.3115 O   0  0  0  0  0  0  0  0  0  0  0  0
  148.1729  135.5717  156.5633 C   0  0  0  0  0  0  0  0  0  0  0  0
  148.9594  136.6298  155.8329 C   0  0  0  0  0  0  0  0  0  0  0  0
  150.3501  136.6331  155.5253 C   0  0  0  0  0  0  0  0  0  0  0  0
  150.5457  137.8274  154.8939 C   0  0  0  0  0  0  0  0  0  0  0  0
  149.3261  138.4678  154.8352 N   0  0  0  0  0  0  0  0  0  0  0  0
  149.0227  139.7771  154.2773 C   0  0  0  0  0  0  0  0  0  0  0  0
  149.8492  140.8738  154.9676 C   0  0  0  0  0  0  0  0  0  0  0  0
  147.5148  140.0733  154.3308 C   0  0  0  0  0  0  0  0  0  0  0  0
  148.3509  137.7279  155.4078 N   0  0  0  0  0  0  0  0  0  0  0  0
  147.4900  136.6078  161.0225 C   0  0  0  0  0  0  0  0  0  0  0  0
  146.8422  137.4229  160.3301 O   0  0  0  0  0  0  0  0  0  0  0  0
  147.9005  136.8146  162.1870 O   0  5  0  0  0  0  0  0  0  0  0  0
  148.1865  130.8582  161.0881 H   0  0  0  0  0  0  0  0  0  0  0  0
  147.3692  131.7515  162.3645 H   0  0  0  0  0  0  0  0  0  0  0  0
  148.9501  132.2754  161.7797 H   0  0  0  0  0  0  0  0  0  0  0  0
  147.9483  132.8267  159.5438 H   0  0  0  0  0  0  0  0  0  0  0  0
  146.4340  132.1534  160.0661 H   0  0  0  0  0  0  0  0  0  0  0  0
  145.8590  134.3134  160.5078 H   0  0  0  0  0  0  0  0  0  0  0  0
  147.7112  133.9551  162.9191 H   0  0  0  0  0  0  0  0  0  0  0  0
  146.0530  133.3737  162.8142 H   0  0  0  0  0  0  0  0  0  0  0  0
  146.3651  135.0846  162.8315 H   0  0  0  0  0  0  0  0  0  0  0  0
  148.8362  134.9727  160.6244 H   0  0  0  0  0  0  0  0  0  0  0  0
  146.6794  135.4043  158.6084 H   0  0  0  0  0  0  0  0  0  0  0  0
  148.3180  134.5968  156.0968 H   0  0  0  0  0  0  0  0  0  0  0  0
  147.1043  135.7856  156.5134 H   0  0  0  0  0  0  0  0  0  0  0  0
  151.0912  135.8799  155.7477 H   0  0  0  0  0  0  0  0  0  0  0  0
  151.4437  138.2711  154.4896 H   0  0  0  0  0  0  0  0  0  0  0  0
  149.3166  139.7530  153.2269 H   0  0  0  0  0  0  0  0  0  0  0  0
  149.6723  141.8461  154.5074 H   0  0  0  0  0  0  0  0  0  0  0  0
  150.9163  140.6632  154.8935 H   0  0  0  0  0  0  0  0  0  0  0  0
  149.5998  140.9580  156.0260 H   0  0  0  0  0  0  0  0  0  0  0  0
  147.2855  141.0187  153.8386 H   0  0  0  0  0  0  0  0  0  0  0  0
  147.1539  140.1405  155.3577 H   0  0  0  0  0  0  0  0  0  0  0  0
  146.9445  139.2927  153.8264 H   0  0  0  0  0  0  0  0  0  0  0  0
  1  2  1  0  0  0  0
  1 21  1  0  0  0  0
  1 22  1  0  0  0  0
  1 23  1  0  0  0  0
  2  3  1  0  0  0  0
  2 24  1  0  0  0  0
  2 25  1  0  0  0  0
  3  4  1  0  0  0  0
  3  5  1  0  0  0  0
  3 26  1  0  0  0  0
  4 27  1  0  0  0  0
  4 28  1  0  0  0  0
  4 29  1  0  0  0  0
  5  6  1  0  0  0  0
  5 18  1  0  0  0  0
  5 30  1  0  0  0  0
  6  7  1  0  0  0  0
  6 31  1  0  0  0  0
  7  8  2  0  0  0  0
  7  9  1  0  0  0  0
  9 10  1  0  0  0  0
  9 32  1  0  0  0  0
  9 33  1  0  0  0  0
 10 17  2  0  0  0  0
 10 11  1  0  0  0  0
 11 12  2  0  0  0  0
 11 34  1  0  0  0  0
 12 13  1  0  0  0  0
 12 35  1  0  0  0  0
 13 14  1  0  0  0  0
 13 17  1  0  0  0  0
 14 15  1  0  0  0  0
 14 16  1  0  0  0  0
 14 36  1  0  0  0  0
 15 37  1  0  0  0  0
 15 38  1  0  0  0  0
 15 39  1  0  0  0  0
 16 40  1  0  0  0  0
 16 41  1  0  0  0  0
 16 42  1  0  0  0  0
 18 19  2  0  0  0  0
 18 20  1  0  0  0  0
M  CHG  1  20  -1
M  END
> <s_m_source_file>
AV-unprocessed.smi

> <i_m_source_file_index>
2892

> <i_lp_mmshare_version>
43012

> <i_f3d_flags>
0

> <s_epik_input>
W0NIM11bQ0gyXVtDQEhdKFtDSDNdKVtDQEBIXShDKD1PKVtPSF0pW05IXUMoPU8pW0NIMl1jMVtjSF1bY0hdbihuMSlbQ0hdKFtDSDNdKVtDSDNd

> <s_epik_cmdline>
J2VwaWtfcHl0aG9uJywgJy1waCcsICc3LjAnLCAnLXRuJywgJzgnLCAnLW1hJywgJzIwMCcsICctbWV0YWxfYmluZGluZycsICctaW1hZScsICc8aW5maWxlLm1hZT4nLCAnLW9tYWUnLCAnPG91dGZpbGUubWFlPic=

> <r_lp_tautomer_probability>
1

> <r_epik_Ionization_Penalty>
0.000286846

> <r_epik_Ionization_Penalty_Charging>
0.000224481

> <r_epik_Ionization_Penalty_Neutral>
6.23655e-05

> <r_epik_State_Penalty>
-0

> <r_epik_Charging_Adjusted_Penalty>
0.000224481

> <i_epik_Tot_Q>
-1

> <i_epik_Tot_abs_Q>
1

> <r_epik_Metal_State_Penalty>
-0

> <b_epik_Metal_Only>
0

> <s_lp_Force_Field>
OPLS_2005

> <r_lp_Energy>
13.265

> <b_lp_Chiralities_Consistent>
1

> <s_lp_Variant>
AV-unprocessed.smi:2892-4

> <Gold.Version>
5.8.1

> <Gold.Id.Protein>
6NUR|6NUR_protein|mol2

> <Gold.PLP.Fitness>
41.2066

> <Gold.PLP.PLP>
-29.3967

> <Gold.PLP.part.hbond>
-3.1337

> <Gold.PLP.part.metal>
0.0000

> <Gold.PLP.part.buried>
-3.0290

> <Gold.PLP.part.nonpolar>
-23.2565

> <Gold.PLP.part.repulsive>
0.1063

> <Gold.PLP.ligand.clash>
0.0000

> <Gold.PLP.ligand.torsion>
1.6642

> <Gold.PLP.Chemscore.Hbond>
5.0000

> <Gold.PLP.Chemscore.CHOScore>
0.0000

> <Gold.PLP.Chemscore.Metal>
0.0000

> <Gold.Chemscore.Hbonds>
donor molecule, donor type, donor heavy atom, donor atom, acceptor molecule, acceptor atom, score
      P1  H  6896  6908       L1     8  1.00
      P1  H  6931  6943       L1    20  2.00
      P1  H  6934  6947       L1    19  2.00

> <Gold.PLP.Chemscore.Internal.Correction>
0.1383

> <Gold.Rescore>
     Score         DG    S(hbond)    S(metal)    S(lipo)     H(rot)  DE(clash)    DE(int)     intcor
     13.47     -15.34       2.60        0.00      62.12       2.39       0.05       1.82       ----

> <Gold.Chemscore.Fitness>
13.4668

> <Gold.Chemscore.DG>
-15.3358

> <Gold.Chemscore.ZeroCoef>
-5.4800

> <Gold.Chemscore.Hbond>
2.6038

> <Gold.Chemscore.Metal>
0.0000

> <Gold.Chemscore.Lipo>
62.1248

> <Gold.Chemscore.Internal_Hbond>
0.0000

> <Gold.Chemscore.DEClash>
0.0504

> <Gold.Chemscore.DEInternal>
1.8186

> <Gold.Chemscore.Rot>
2.3865

> <Gold.Chemscore.Internal.Correction>
   9.000000E+99

> <Gold.Chemscore.Hbonds>
donor molecule, donor type, donor heavy atom, donor atom, acceptor molecule, acceptor atom, score
      P1  H  6896  6908       L1     8  0.98
      P1  H  6931  6943       L1    20  0.34
      P1  H  6934  6947       L1    19  0.70

> <Gold.Chemscore.Hbond.Weighted>
-8.6965

> <Gold.Chemscore.Metal.Weighted>
-0.0000

> <Gold.Chemscore.Lipo.Weighted>
-7.2686

> <Gold.Chemscore.Internal_Hbond.Weighted>
0.0000

> <Gold.Chemscore.DEClash.Weighted>
0.0504

> <Gold.Chemscore.DEInternal.Weighted>
1.8186

> <Gold.Chemscore.Rot.Weighted>
6.1093

> <Gold.Chemscore.Internal.Correction.Weighted>
   9.000000E+99

> <Gold.Protein.RotatedTorsions>
[ 6907 6896 6895 6894 ] final  172.86 input  -60.11 | X-H torsion
[ 7974 7965 7964 7962 ] final  119.44 input  175.53 | X-H torsion
[ 8008 7997 7996 7995 ] final   82.42 input   59.86 | X-H torsion
[ 10167 10162 10161 10158 ] final  -45.86 input  -65.29 | X-H torsion
[ 10718 10713 10712 10709 ] final   52.12 input   66.30 | X-H torsion
[ 10763 10752 10751 10750 ] final   50.28 input  -60.55 | X-H torsion
[ 11005 11000 10999 10996 ] final   80.92 input  -57.11 | X-H torsion

> <Gold.Protein.ActiveResidues>
 VAL166  LYS551  ARG553  GLY616  TRP617  ASP618  TYR619  PRO620  LYS621  CYS622 
 ASP623  PHE694  ASN695  SER759  ASP760  ASP761  ALA762  ILE779  LEU786  VAL792 
 PHE793  MET794  SER795  GLU796  ALA797  LYS798  CYS799  TRP800  GLU811  SER814 

> <Gold.Protein.RotatedAtoms>
  151.7775  133.3346  159.3461 H   0  0  0  0  0  0  0  0  0  0  0  0  # atno 6907 bound_to 6896
  150.7438  134.5961  159.6022 H   0  0  0  0  0  0  0  0  0  0  0  0  # atno 6908 bound_to 6896
  152.3299  134.7275  160.0343 H   0  0  0  0  0  0  0  0  0  0  0  0  # atno 6909 bound_to 6896
  145.1432  139.3255  143.4605 H   0  0  0  0  0  0  0  0  0  0  0  0  # atno 7974 bound_to 7965
  155.9104  140.3428  155.6094 H   0  0  0  0  0  0  0  0  0  0  0  0  # atno 8008 bound_to 7997
  155.7395  140.0806  157.2271 H   0  0  0  0  0  0  0  0  0  0  0  0  # atno 8009 bound_to 7997
  154.4055  140.1573  156.2587 H   0  0  0  0  0  0  0  0  0  0  0  0  # atno 8010 bound_to 7997
  140.6841  143.2858  151.3700 H   0  0  0  0  0  0  0  0  0  0  0  0  # atno 10167 bound_to 10162
  157.5045  130.8460  149.8357 H   0  0  0  0  0  0  0  0  0  0  0  0  # atno 10718 bound_to 10713
  152.9785  135.5884  154.4226 H   0  0  0  0  0  0  0  0  0  0  0  0  # atno 10763 bound_to 10752
  154.3849  135.2767  155.2191 H   0  0  0  0  0  0  0  0  0  0  0  0  # atno 10764 bound_to 10752
  154.4089  135.6086  153.5995 H   0  0  0  0  0  0  0  0  0  0  0  0  # atno 10765 bound_to 10752
  139.9117  134.7957  156.1973 H   0  0  0  0  0  0  0  0  0  0  0  0  # atno 11005 bound_to 11000
  146.3503  140.1477  142.8593 LP  0  0  0  0  0  0  0  0  0  0  0  0  # atno 17320 bound_to 7965
  145.0510  140.9018  143.4995 LP  0  0  0  0  0  0  0  0  0  0  0  0  # atno 17321 bound_to 7965
  139.6185  144.0954  152.2369 LP  0  0  0  0  0  0  0  0  0  0  0  0  # atno 17342 bound_to 10162
  140.0391  144.6021  150.7425 LP  0  0  0  0  0  0  0  0  0  0  0  0  # atno 17343 bound_to 10162
  156.0250  130.3782  150.1851 LP  0  0  0  0  0  0  0  0  0  0  0  0  # atno 17370 bound_to 10713
  157.0041  130.9931  151.3383 LP  0  0  0  0  0  0  0  0  0  0  0  0  # atno 17371 bound_to 10713
  141.0547  133.6871  156.1837 LP  0  0  0  0  0  0  0  0  0  0  0  0  # atno 17394 bound_to 11000
  140.6756  134.4821  157.5588 LP  0  0  0  0  0  0  0  0  0  0  0  0  # atno 17395 bound_to 11000

$$$$
