AV-unprocessed.smi:2379|AV-procd|sdf|9451|dock5
  -GOLD-   2272013 83D 1   1.00000     0.00000
 Structure written by MMmdl.
 53 55  0  0  0  0  0  0  0  0  2 V2000
  151.7864  145.9122  160.4397 C   0  0  0  0  0  0  0  0  0  0  0  0
  151.8510  144.5389  159.8047 C   0  0  0  0  0  0  0  0  0  0  0  0
  152.6980  143.5413  160.3239 C   0  0  0  0  0  0  0  0  0  0  0  0
  152.7128  142.2845  159.6876 C   0  0  0  0  0  0  0  0  0  0  0  0
  153.6013  141.1664  160.1914 C   0  0  0  0  0  0  0  0  0  0  0  0
  151.9553  141.9966  158.6074 N   0  0  0  0  0  0  0  0  0  0  0  0
  151.1366  142.9502  158.0985 C   0  0  0  0  0  0  0  0  0  0  0  0
  150.3012  142.7500  156.9677 N   0  0  0  0  0  0  0  0  0  0  0  0
  150.1222  141.6235  156.2557 C   0  0  0  0  0  0  0  0  0  0  0  0
  150.6724  140.5439  156.4755 O   0  0  0  0  0  0  0  0  0  0  0  0
  149.2471  141.8150  155.2577 N   0  0  0  0  0  0  0  0  0  0  0  0
  148.8181  140.7925  154.3078 C   0  0  2  0  0  0  0  0  0  0  0  0
  147.5481  141.2611  153.5784 C   0  0  0  0  0  0  0  0  0  0  0  0
  146.9990  140.1668  152.6473 C   0  0  0  0  0  0  0  0  0  0  0  0
  146.7406  138.9097  153.3954 N   0  3  1  0  0  0  0  0  0  0  0  0
  146.0584  137.8745  152.5768 C   0  0  0  0  0  0  0  0  0  0  0  0
  144.6846  137.4964  153.1623 C   0  0  2  0  0  0  0  0  0  0  0  0
  144.7215  136.6619  154.4287 C   0  0  0  0  0  0  0  0  0  0  0  0
  143.3222  136.0529  154.4564 C   0  0  0  0  0  0  0  0  0  0  0  0
  142.9128  135.9493  153.0956 O   0  0  0  0  0  0  0  0  0  0  0  0
  143.8656  136.5840  152.2498 C   0  0  0  0  0  0  0  0  0  0  0  0
  147.9731  138.4104  154.0583 C   0  0  0  0  0  0  0  0  0  0  0  0
  148.5404  139.4594  155.0281 C   0  0  0  0  0  0  0  0  0  0  0  0
  151.0623  144.2376  158.6761 C   0  0  0  0  0  0  0  0  0  0  0  0
  152.3301  145.9373  161.3847 H   0  0  0  0  0  0  0  0  0  0  0  0
  150.7510  146.1918  160.6361 H   0  0  0  0  0  0  0  0  0  0  0  0
  152.2237  146.6556  159.7730 H   0  0  0  0  0  0  0  0  0  0  0  0
  153.3202  143.7340  161.1860 H   0  0  0  0  0  0  0  0  0  0  0  0
  154.0816  141.4365  161.1321 H   0  0  0  0  0  0  0  0  0  0  0  0
  154.3803  140.9456  159.4613 H   0  0  0  0  0  0  0  0  0  0  0  0
  153.0177  140.2603  160.3565 H   0  0  0  0  0  0  0  0  0  0  0  0
  149.7734  143.5577  156.6721 H   0  0  0  0  0  0  0  0  0  0  0  0
  148.8463  142.7354  155.1495 H   0  0  0  0  0  0  0  0  0  0  0  0
  149.6039  140.6406  153.5649 H   0  0  0  0  0  0  0  0  0  0  0  0
  146.7808  141.5318  154.3058 H   0  0  0  0  0  0  0  0  0  0  0  0
  147.7585  142.1627  153.0020 H   0  0  0  0  0  0  0  0  0  0  0  0
  146.0735  140.5213  152.1917 H   0  0  0  0  0  0  0  0  0  0  0  0
  147.7009  139.9727  151.8347 H   0  0  0  0  0  0  0  0  0  0  0  0
  145.8922  138.2583  151.5689 H   0  0  0  0  0  0  0  0  0  0  0  0
  146.6926  136.9948  152.4539 H   0  0  0  0  0  0  0  0  0  0  0  0
  144.1045  138.4017  153.3502 H   0  0  0  0  0  0  0  0  0  0  0  0
  145.4690  135.8715  154.3438 H   0  0  0  0  0  0  0  0  0  0  0  0
  144.9397  137.2454  155.3238 H   0  0  0  0  0  0  0  0  0  0  0  0
  143.3030  135.0822  154.9528 H   0  0  0  0  0  0  0  0  0  0  0  0
  142.6277  136.7136  154.9772 H   0  0  0  0  0  0  0  0  0  0  0  0
  143.3777  137.1291  151.4414 H   0  0  0  0  0  0  0  0  0  0  0  0
  144.4975  135.8139  151.8047 H   0  0  0  0  0  0  0  0  0  0  0  0
  147.7612  137.4931  154.6064 H   0  0  0  0  0  0  0  0  0  0  0  0
  148.7190  138.1585  153.3025 H   0  0  0  0  0  0  0  0  0  0  0  0
  149.4553  139.0776  155.4832 H   0  0  0  0  0  0  0  0  0  0  0  0
  147.8333  139.6176  155.8439 H   0  0  0  0  0  0  0  0  0  0  0  0
  150.4067  144.9894  158.2606 H   0  0  0  0  0  0  0  0  0  0  0  0
  146.0927  139.1549  154.1305 H   0  0  0  0  0  0  0  0  0  0  0  0
  1  2  1  0  0  0  0
  1 25  1  0  0  0  0
  1 26  1  0  0  0  0
  1 27  1  0  0  0  0
  2 24  1  0  0  0  0
  2  3  2  0  0  0  0
  3  4  1  0  0  0  0
  3 28  1  0  0  0  0
  4  5  1  0  0  0  0
  4  6  2  0  0  0  0
  5 29  1  0  0  0  0
  5 30  1  0  0  0  0
  5 31  1  0  0  0  0
  6  7  1  0  0  0  0
  7  8  1  0  0  0  0
  7 24  2  0  0  0  0
  8  9  1  0  0  0  0
  8 32  1  0  0  0  0
  9 10  2  0  0  0  0
  9 11  1  0  0  0  0
 11 12  1  0  0  0  0
 11 33  1  0  0  0  0
 12 23  1  0  0  0  0
 12 13  1  0  0  0  0
 12 34  1  0  0  0  0
 13 14  1  0  0  0  0
 13 35  1  0  0  0  0
 13 36  1  0  0  0  0
 14 15  1  0  0  0  0
 14 37  1  0  0  0  0
 14 38  1  0  0  0  0
 15 16  1  0  0  0  0
 15 22  1  0  0  0  0
 15 53  1  0  0  0  0
 16 17  1  0  0  0  0
 16 39  1  0  0  0  0
 16 40  1  0  0  0  0
 17 21  1  0  0  0  0
 17 18  1  0  0  0  0
 17 41  1  0  0  0  0
 18 19  1  0  0  0  0
 18 42  1  0  0  0  0
 18 43  1  0  0  0  0
 19 20  1  0  0  0  0
 19 44  1  0  0  0  0
 19 45  1  0  0  0  0
 20 21  1  0  0  0  0
 21 46  1  0  0  0  0
 21 47  1  0  0  0  0
 22 23  1  0  0  0  0
 22 48  1  0  0  0  0
 22 49  1  0  0  0  0
 23 50  1  0  0  0  0
 23 51  1  0  0  0  0
 24 52  1  0  0  0  0
M  CHG  1  15   1
M  END
> <s_m_source_file>
AV-unprocessed.smi

> <i_m_source_file_index>
2379

> <i_lp_mmshare_version>
43012

> <i_f3d_flags>
0

> <s_epik_input>
W0NIM11jMVtjSF1jKFtDSDNdKW5jKFtjSF0xKVtOSF1DKD1PKVtOSF1bQ0hdMltDSDJdW0NIMl1OKFtDSDJdW0NIMl0yKVtDSDJdW0NAQEhdM1tDSDJdW0NIMl1PW0NIMl0z

> <s_epik_cmdline>
J2VwaWtfcHl0aG9uJywgJy1waCcsICc3LjAnLCAnLXRuJywgJzgnLCAnLW1hJywgJzIwMCcsICctbWV0YWxfYmluZGluZycsICctaW1hZScsICc8aW5maWxlLm1hZT4nLCAnLW9tYWUnLCAnPG91dGZpbGUubWFlPic=

> <r_epik_Ionization_Penalty>
0.00766556

> <r_epik_Ionization_Penalty_Charging>
0.00747775

> <r_epik_Ionization_Penalty_Neutral>
0.00018781

> <r_epik_State_Penalty>
0.00558817

> <r_epik_Charging_Adjusted_Penalty>
0.0130659

> <i_epik_Tot_Q>
1

> <i_epik_Tot_abs_Q>
1

> <r_epik_Metal_State_Penalty>
-0

> <b_epik_Metal_Only>
0

> <s_lp_Force_Field>
OPLS_2005

> <r_lp_Energy>
36.075

> <b_lp_Chiralities_Consistent>
1

> <s_lp_Variant>
AV-unprocessed.smi:2379-1

> <Gold.Version>
5.8.1

> <Gold.Id.Protein>
6NUR|6NUR_protein|mol2

> <Gold.PLP.Fitness>
47.9454

> <Gold.PLP.PLP>
-43.9684

> <Gold.PLP.part.hbond>
-2.0000

> <Gold.PLP.part.metal>
0.0000

> <Gold.PLP.part.buried>
-4.2002

> <Gold.PLP.part.nonpolar>
-39.6940

> <Gold.PLP.part.repulsive>
0.3617

> <Gold.PLP.ligand.clash>
0.0000

> <Gold.PLP.ligand.torsion>
1.0111

> <Gold.PLP.Chemscore.Hbond>
1.9833

> <Gold.PLP.Chemscore.CHOScore>
0.0000

> <Gold.PLP.Chemscore.Metal>
0.0000

> <Gold.Chemscore.Hbonds>
donor molecule, donor type, donor heavy atom, donor atom, acceptor molecule, acceptor atom, score
      L1  H     8    32       P1  8028  1.00
      L1  H    11    33       P1  8028  0.95

> <Gold.PLP.Chemscore.Internal.Correction>
0.0492

> <Gold.Rescore>
     Score         DG    S(hbond)    S(metal)    S(lipo)     H(rot)  DE(clash)    DE(int)     intcor
     18.55     -22.23       1.87        0.00     119.68       1.37       0.19       3.48       ----

> <Gold.Chemscore.Fitness>
18.5545

> <Gold.Chemscore.DG>
-22.2267

> <Gold.Chemscore.ZeroCoef>
-5.4800

> <Gold.Chemscore.Hbond>
1.8737

> <Gold.Chemscore.Metal>
0.0000

> <Gold.Chemscore.Lipo>
119.6774

> <Gold.Chemscore.Internal_Hbond>
0.0000

> <Gold.Chemscore.DEClash>
0.1911

> <Gold.Chemscore.DEInternal>
3.4811

> <Gold.Chemscore.Rot>
1.3725

> <Gold.Chemscore.Internal.Correction>
   9.000000E+99

> <Gold.Chemscore.Hbonds>
donor molecule, donor type, donor heavy atom, donor atom, acceptor molecule, acceptor atom, score
      L1  H     8    32       P1  8028  1.00
      L1  H    11    33       P1  8028  0.86

> <Gold.Chemscore.Hbond.Weighted>
-6.2580

> <Gold.Chemscore.Metal.Weighted>
-0.0000

> <Gold.Chemscore.Lipo.Weighted>
-14.0023

> <Gold.Chemscore.Internal_Hbond.Weighted>
0.0000

> <Gold.Chemscore.DEClash.Weighted>
0.1911

> <Gold.Chemscore.DEInternal.Weighted>
3.4811

> <Gold.Chemscore.Rot.Weighted>
3.5136

> <Gold.Chemscore.Internal.Correction.Weighted>
   9.000000E+99

> <Gold.Protein.RotatedTorsions>
[ 6907 6896 6895 6894 ] final  -45.82 input  -60.11 | X-H torsion
[ 7974 7965 7964 7962 ] final  -23.21 input  175.53 | X-H torsion
[ 8008 7997 7996 7995 ] final   83.21 input   59.86 | X-H torsion
[ 10167 10162 10161 10158 ] final   11.07 input  -65.29 | X-H torsion
[ 10718 10713 10712 10709 ] final -104.14 input   66.30 | X-H torsion
[ 10763 10752 10751 10750 ] final   26.83 input  -60.55 | X-H torsion
[ 11005 11000 10999 10996 ] final   37.16 input  -57.11 | X-H torsion

> <Gold.Protein.ActiveResidues>
 VAL166  LYS551  ARG553  GLY616  TRP617  ASP618  TYR619  PRO620  LYS621  CYS622 
 ASP623  PHE694  ASN695  SER759  ASP760  ASP761  ALA762  ILE779  LEU786  VAL792 
 PHE793  MET794  SER795  GLU796  ALA797  LYS798  CYS799  TRP800  GLU811  SER814 

> <Gold.Protein.RotatedAtoms>
  150.9179  134.8596  159.7468 H   0  0  0  0  0  0  0  0  0  0  0  0  # atno 6907 bound_to 6896
  152.4978  134.4262  159.9507 H   0  0  0  0  0  0  0  0  0  0  0  0  # atno 6908 bound_to 6896
  151.4299  133.3634  159.2802 H   0  0  0  0  0  0  0  0  0  0  0  0  # atno 6909 bound_to 6896
  146.1630  140.4585  142.8563 H   0  0  0  0  0  0  0  0  0  0  0  0  # atno 7974 bound_to 7965
  155.9209  140.3421  155.6172 H   0  0  0  0  0  0  0  0  0  0  0  0  # atno 8008 bound_to 7997
  155.7274  140.0791  157.2323 H   0  0  0  0  0  0  0  0  0  0  0  0  # atno 8009 bound_to 7997
  154.4069  140.1594  156.2457 H   0  0  0  0  0  0  0  0  0  0  0  0  # atno 8010 bound_to 7997
  140.6155  143.8318  150.7113 H   0  0  0  0  0  0  0  0  0  0  0  0  # atno 10167 bound_to 10162
  156.0292  130.5501  150.7354 H   0  0  0  0  0  0  0  0  0  0  0  0  # atno 10718 bound_to 10713
  153.0596  135.6551  154.0495 H   0  0  0  0  0  0  0  0  0  0  0  0  # atno 10763 bound_to 10752
  154.0165  135.2923  155.3387 H   0  0  0  0  0  0  0  0  0  0  0  0  # atno 10764 bound_to 10752
  154.6928  135.5276  153.8484 H   0  0  0  0  0  0  0  0  0  0  0  0  # atno 10765 bound_to 10752
  140.2253  134.3592  155.7987 H   0  0  0  0  0  0  0  0  0  0  0  0  # atno 11005 bound_to 11000
  144.8053  140.6287  143.6451 LP  0  0  0  0  0  0  0  0  0  0  0  0  # atno 17320 bound_to 7965
  145.4540  139.1520  143.3902 LP  0  0  0  0  0  0  0  0  0  0  0  0  # atno 17321 bound_to 7965
  140.1896  143.4047  152.1873 LP  0  0  0  0  0  0  0  0  0  0  0  0  # atno 17342 bound_to 10162
  139.5395  144.7242  151.4781 LP  0  0  0  0  0  0  0  0  0  0  0  0  # atno 17343 bound_to 10162
  157.4936  131.0913  151.0398 LP  0  0  0  0  0  0  0  0  0  0  0  0  # atno 17370 bound_to 10713
  157.0798  130.5898  149.5418 LP  0  0  0  0  0  0  0  0  0  0  0  0  # atno 17371 bound_to 10713
  141.2221  133.7216  156.8643 LP  0  0  0  0  0  0  0  0  0  0  0  0  # atno 17394 bound_to 11000
  140.1807  134.9035  157.2945 LP  0  0  0  0  0  0  0  0  0  0  0  0  # atno 17395 bound_to 11000

$$$$
