AV-unprocessed.smi:480|AV-procd|sdf|2678|dock7
  -GOLD-   2262023103D 1   1.00000     0.00000
 Structure written by MMmdl.
 47 49  0  0  0  0  0  0  0  0  2 V2000
  151.7668  144.2878  157.3490 C   0  0  0  0  0  0  0  0  0  0  0  0
  151.8172  142.7652  157.5363 C   0  0  0  0  0  0  0  0  0  0  0  0
  150.8860  142.0372  156.6153 C   0  0  0  0  0  0  0  0  0  0  0  0
  149.6557  142.4688  156.2142 N   0  3  0  0  0  0  0  0  0  0  0  0
  149.0712  141.5243  155.3707 C   0  0  0  0  0  0  0  0  0  0  0  0
  147.8470  141.5262  154.7095 C   0  0  0  0  0  0  0  0  0  0  0  0
  147.5523  140.3942  153.9216 C   0  0  0  0  0  0  0  0  0  0  0  0
  148.4565  139.3173  153.8160 C   0  0  0  0  0  0  0  0  0  0  0  0
  149.6942  139.3270  154.4925 C   0  0  0  0  0  0  0  0  0  0  0  0
  149.9790  140.4517  155.2660 C   0  0  0  0  0  0  0  0  0  0  0  0
  151.0823  140.8090  156.0487 N   0  0  0  0  0  0  0  0  0  0  0  0
  152.2235  139.8826  156.1302 C   0  0  0  0  0  0  0  0  0  0  0  0
  151.8928  138.5535  156.8479 C   0  0  2  0  0  0  0  0  0  0  0  0
  150.9370  138.8234  157.8512 O   0  0  0  0  0  0  0  0  0  0  0  0
  153.1042  137.8547  157.4926 C   0  0  0  0  0  0  0  0  0  0  0  0
  153.7938  138.7920  158.3103 O   0  0  0  0  0  0  0  0  0  0  0  0
  154.0744  138.4435  159.6119 C   0  0  0  0  0  0  0  0  0  0  0  0
  154.7588  139.3955  160.3945 C   0  0  0  0  0  0  0  0  0  0  0  0
  155.0712  139.1295  161.7409 C   0  0  0  0  0  0  0  0  0  0  0  0
  154.7072  137.8981  162.3199 C   0  0  0  0  0  0  0  0  0  0  0  0
  155.0458  137.6110  163.7682 C   0  0  0  0  0  0  0  0  0  0  0  0
  154.6702  136.2447  164.1628 C   0  0  0  0  0  0  0  0  0  0  0  0
  154.3747  135.1698  164.4723 N   0  0  0  0  0  0  0  0  0  0  0  0
  154.0325  136.9354  161.5433 C   0  0  0  0  0  0  0  0  0  0  0  0
  153.7181  137.2032  160.1969 C   0  0  0  0  0  0  0  0  0  0  0  0
  152.4714  144.7813  158.0184 H   0  0  0  0  0  0  0  0  0  0  0  0
  150.7750  144.6859  157.5649 H   0  0  0  0  0  0  0  0  0  0  0  0
  152.0285  144.5694  156.3289 H   0  0  0  0  0  0  0  0  0  0  0  0
  152.8373  142.4213  157.3690 H   0  0  0  0  0  0  0  0  0  0  0  0
  151.5627  142.5073  158.5644 H   0  0  0  0  0  0  0  0  0  0  0  0
  147.1525  142.3495  154.7899 H   0  0  0  0  0  0  0  0  0  0  0  0
  146.6134  140.3504  153.3887 H   0  0  0  0  0  0  0  0  0  0  0  0
  148.1963  138.4663  153.2033 H   0  0  0  0  0  0  0  0  0  0  0  0
  150.3805  138.4978  154.4052 H   0  0  0  0  0  0  0  0  0  0  0  0
  152.5593  139.6859  155.1118 H   0  0  0  0  0  0  0  0  0  0  0  0
  153.0493  140.3962  156.6246 H   0  0  0  0  0  0  0  0  0  0  0  0
  151.4255  137.8631  156.1452 H   0  0  0  0  0  0  0  0  0  0  0  0
  151.0128  139.7311  158.1032 H   0  0  0  0  0  0  0  0  0  0  0  0
  152.7659  136.9870  158.0607 H   0  0  0  0  0  0  0  0  0  0  0  0
  153.7920  137.5021  156.7223 H   0  0  0  0  0  0  0  0  0  0  0  0
  155.0392  140.3438  159.9595 H   0  0  0  0  0  0  0  0  0  0  0  0
  155.5925  139.8711  162.3283 H   0  0  0  0  0  0  0  0  0  0  0  0
  156.1171  137.7346  163.9295 H   0  0  0  0  0  0  0  0  0  0  0  0
  154.5315  138.3133  164.4250 H   0  0  0  0  0  0  0  0  0  0  0  0
  153.7554  135.9858  161.9777 H   0  0  0  0  0  0  0  0  0  0  0  0
  153.2069  136.4396  159.6304 H   0  0  0  0  0  0  0  0  0  0  0  0
  149.2510  143.3527  156.4953 H   0  0  0  0  0  0  0  0  0  0  0  0
  1  2  1  0  0  0  0
  1 26  1  0  0  0  0
  1 27  1  0  0  0  0
  1 28  1  0  0  0  0
  2  3  1  0  0  0  0
  2 29  1  0  0  0  0
  2 30  1  0  0  0  0
  3 11  1  0  0  0  0
  3  4  2  0  0  0  0
  4  5  1  0  0  0  0
  4 47  1  0  0  0  0
  5 10  2  0  0  0  0
  5  6  1  0  0  0  0
  6  7  2  0  0  0  0
  6 31  1  0  0  0  0
  7  8  1  0  0  0  0
  7 32  1  0  0  0  0
  8  9  2  0  0  0  0
  8 33  1  0  0  0  0
  9 10  1  0  0  0  0
  9 34  1  0  0  0  0
 10 11  1  0  0  0  0
 11 12  1  0  0  0  0
 12 13  1  0  0  0  0
 12 35  1  0  0  0  0
 12 36  1  0  0  0  0
 13 14  1  0  0  0  0
 13 15  1  0  0  0  0
 13 37  1  0  0  0  0
 14 38  1  0  0  0  0
 15 16  1  0  0  0  0
 15 39  1  0  0  0  0
 15 40  1  0  0  0  0
 16 17  1  0  0  0  0
 17 25  1  0  0  0  0
 17 18  2  0  0  0  0
 18 19  1  0  0  0  0
 18 41  1  0  0  0  0
 19 20  2  0  0  0  0
 19 42  1  0  0  0  0
 20 21  1  0  0  0  0
 20 24  1  0  0  0  0
 21 22  1  0  0  0  0
 21 43  1  0  0  0  0
 21 44  1  0  0  0  0
 22 23  3  0  0  0  0
 24 25  2  0  0  0  0
 24 45  1  0  0  0  0
 25 46  1  0  0  0  0
M  CHG  1   4   1
M  END
> <s_m_source_file>
AV-unprocessed.smi

> <i_m_source_file_index>
480

> <i_lp_mmshare_version>
43012

> <i_f3d_flags>
0

> <s_epik_input>
W2NIXTFbY0hdW2NIXVtjSF1jKGMxMiluKGMobjIpW0NIMl1bQ0gzXSlbQ0gyXVtDQEhdKFtPSF0pW0NIMl1PYzNbY0hdW2NIXWMoW0NIMl1DI04pW2NIXVtjSF0z

> <s_epik_cmdline>
J2VwaWtfcHl0aG9uJywgJy1waCcsICc3LjAnLCAnLXRuJywgJzgnLCAnLW1hJywgJzIwMCcsICctbWV0YWxfYmluZGluZycsICctaW1hZScsICc8aW5maWxlLm1hZT4nLCAnLW9tYWUnLCAnPG91dGZpbGUubWFlPic=

> <r_lp_tautomer_probability>
1

> <r_epik_Ionization_Penalty>
1.03158

> <r_epik_Ionization_Penalty_Charging>
1.03158

> <r_epik_Ionization_Penalty_Neutral>
2.3994e-06

> <r_epik_State_Penalty>
1.08278

> <r_epik_Charging_Adjusted_Penalty>
2.11436

> <i_epik_Tot_Q>
1

> <i_epik_Tot_abs_Q>
1

> <r_epik_Metal_State_Penalty>
5.07177

> <b_epik_Metal_Only>
0

> <s_lp_Force_Field>
OPLS_2005

> <r_lp_Energy>
18.4444

> <b_lp_Chiralities_Consistent>
1

> <s_lp_Variant>
AV-unprocessed.smi:480-3

> <Gold.Version>
5.8.1

> <Gold.Id.Protein>
6NUR|6NUR_protein|mol2

> <Gold.PLP.Fitness>
50.7709

> <Gold.PLP.PLP>
-45.4518

> <Gold.PLP.part.hbond>
-1.7364

> <Gold.PLP.part.metal>
0.0000

> <Gold.PLP.part.buried>
-0.5869

> <Gold.PLP.part.nonpolar>
-43.3717

> <Gold.PLP.part.repulsive>
0.2035

> <Gold.PLP.ligand.clash>
0.0000

> <Gold.PLP.ligand.torsion>
1.1052

> <Gold.PLP.Chemscore.Hbond>
2.4720

> <Gold.PLP.Chemscore.CHOScore>
0.0000

> <Gold.PLP.Chemscore.Metal>
0.0000

> <Gold.Chemscore.Hbonds>
donor molecule, donor type, donor heavy atom, donor atom, acceptor molecule, acceptor atom, score
      L1  H     4    47       P1  8028  1.31
      P1  H  7997  8010       L1    16  1.00

> <Gold.PLP.Chemscore.Internal.Correction>
0.1134

> <Gold.Rescore>
     Score         DG    S(hbond)    S(metal)    S(lipo)     H(rot)  DE(clash)    DE(int)     intcor
     16.36     -18.52       1.68        0.00     122.01       2.67       1.04       1.12       ----

> <Gold.Chemscore.Fitness>
16.3575

> <Gold.Chemscore.DG>
-18.5199

> <Gold.Chemscore.ZeroCoef>
-5.4800

> <Gold.Chemscore.Hbond>
1.6773

> <Gold.Chemscore.Metal>
0.0000

> <Gold.Chemscore.Lipo>
122.0124

> <Gold.Chemscore.Internal_Hbond>
0.0000

> <Gold.Chemscore.DEClash>
1.0432

> <Gold.Chemscore.DEInternal>
1.1192

> <Gold.Chemscore.Rot>
2.6710

> <Gold.Chemscore.Internal.Correction>
   9.000000E+99

> <Gold.Chemscore.Hbonds>
donor molecule, donor type, donor heavy atom, donor atom, acceptor molecule, acceptor atom, score
      L1  H     4    47       P1  8028  0.66
      P1  H  7997  8010       L1    16  0.70

> <Gold.Chemscore.Hbond.Weighted>
-5.6021

> <Gold.Chemscore.Metal.Weighted>
-0.0000

> <Gold.Chemscore.Lipo.Weighted>
-14.2754

> <Gold.Chemscore.Internal_Hbond.Weighted>
0.0000

> <Gold.Chemscore.DEClash.Weighted>
1.0432

> <Gold.Chemscore.DEInternal.Weighted>
1.1192

> <Gold.Chemscore.Rot.Weighted>
6.8377

> <Gold.Chemscore.Internal.Correction.Weighted>
   9.000000E+99

> <Gold.Protein.RotatedTorsions>
[ 6907 6896 6895 6894 ] final -148.93 input  -60.11 | X-H torsion
[ 7974 7965 7964 7962 ] final -166.36 input  175.53 | X-H torsion
[ 8008 7997 7996 7995 ] final   19.88 input   59.86 | X-H torsion
[ 10167 10162 10161 10158 ] final -120.66 input  -65.29 | X-H torsion
[ 10718 10713 10712 10709 ] final  139.06 input   66.30 | X-H torsion
[ 10763 10752 10751 10750 ] final  -33.82 input  -60.55 | X-H torsion
[ 11005 11000 10999 10996 ] final    5.90 input  -57.11 | X-H torsion

> <Gold.Protein.ActiveResidues>
 VAL166  LYS551  ARG553  GLY616  TRP617  ASP618  TYR619  PRO620  LYS621  CYS622 
 ASP623  PHE694  ASN695  SER759  ASP760  ASP761  ALA762  ILE779  LEU786  VAL792 
 PHE793  MET794  SER795  GLU796  ALA797  LYS798  CYS799  TRP800  GLU811  SER814 

> <Gold.Protein.RotatedAtoms>
  151.1769  133.4749  159.2593 H   0  0  0  0  0  0  0  0  0  0  0  0  # atno 6907 bound_to 6896
  151.1298  135.0124  159.8587 H   0  0  0  0  0  0  0  0  0  0  0  0  # atno 6908 bound_to 6896
  152.5459  134.1673  159.8635 H   0  0  0  0  0  0  0  0  0  0  0  0  # atno 6909 bound_to 6896
  144.7247  140.2678  143.6255 H   0  0  0  0  0  0  0  0  0  0  0  0  # atno 7974 bound_to 7965
  154.9274  140.3035  155.5185 H   0  0  0  0  0  0  0  0  0  0  0  0  # atno 8008 bound_to 7997
  156.3006  140.2360  156.4267 H   0  0  0  0  0  0  0  0  0  0  0  0  # atno 8009 bound_to 7997
  154.8271  140.0420  157.1440 H   0  0  0  0  0  0  0  0  0  0  0  0  # atno 8010 bound_to 7997
  140.0334  143.5225  152.2165 H   0  0  0  0  0  0  0  0  0  0  0  0  # atno 10167 bound_to 10162
  157.4185  131.1036  151.0379 H   0  0  0  0  0  0  0  0  0  0  0  0  # atno 10718 bound_to 10713
  153.8365  135.6861  153.4808 H   0  0  0  0  0  0  0  0  0  0  0  0  # atno 10763 bound_to 10752
  153.1479  135.4630  154.9592 H   0  0  0  0  0  0  0  0  0  0  0  0  # atno 10764 bound_to 10752
  154.7864  135.3286  154.7823 H   0  0  0  0  0  0  0  0  0  0  0  0  # atno 10765 bound_to 10752
  140.5655  134.0151  155.7988 H   0  0  0  0  0  0  0  0  0  0  0  0  # atno 11005 bound_to 11000
  145.8072  139.1988  143.2013 LP  0  0  0  0  0  0  0  0  0  0  0  0  # atno 17320 bound_to 7965
  146.0626  140.7954  142.9727 LP  0  0  0  0  0  0  0  0  0  0  0  0  # atno 17321 bound_to 7965
  139.6061  144.7596  151.3058 LP  0  0  0  0  0  0  0  0  0  0  0  0  # atno 17342 bound_to 10162
  140.7292  143.6914  150.7919 LP  0  0  0  0  0  0  0  0  0  0  0  0  # atno 17343 bound_to 10162
  157.1317  130.6105  149.5531 LP  0  0  0  0  0  0  0  0  0  0  0  0  # atno 17370 bound_to 10713
  155.9873  130.4911  150.7118 LP  0  0  0  0  0  0  0  0  0  0  0  0  # atno 17371 bound_to 10713
  141.1088  133.9650  157.2948 LP  0  0  0  0  0  0  0  0  0  0  0  0  # atno 17394 bound_to 11000
  139.9387  135.0193  156.8638 LP  0  0  0  0  0  0  0  0  0  0  0  0  # atno 17395 bound_to 11000

$$$$
