AV-unprocessed.smi:198|AV-procd|sdf|1553|dock5
  -GOLD-   2262019423D 1   1.00000     0.00000
 Structure written by MMmdl.
 59 63  0  0  0  0  0  0  0  0  2 V2000
  151.8847  138.6603  155.6667 C   0  0  0  0  0  0  0  0  0  0  0  0
  151.2761  139.7636  156.4462 N   0  3  2  0  0  0  0  0  0  0  0  0
  150.3853  139.3026  157.5408 C   0  0  0  0  0  0  0  0  0  0  0  0
  149.0395  138.7848  157.0059 C   0  0  0  0  0  0  0  0  0  0  0  0
  148.3415  139.8518  156.1325 C   0  0  1  0  0  0  0  0  0  0  0  0
  149.2879  140.3499  155.0144 C   0  0  1  0  0  0  0  0  0  0  0  0
  148.6083  141.4842  154.2232 C   0  0  0  0  0  0  0  0  0  0  0  0
  147.2456  141.0331  153.6753 C   0  0  0  0  0  0  0  0  0  0  0  0
  146.3523  140.4588  154.7939 C   0  0  0  0  0  0  0  0  0  0  0  0
  147.0412  139.4384  155.5859 N   0  0  0  0  0  0  0  0  0  0  0  0
  146.9135  138.1631  155.1462 C   0  0  0  0  0  0  0  0  0  0  0  0
  147.0862  137.1224  156.0015 N   0  0  0  0  0  0  0  0  0  0  0  0
  146.9298  135.8676  155.5695 C   0  0  0  0  0  0  0  0  0  0  0  0
  146.6039  135.4402  154.3476 N   0  0  0  0  0  0  0  0  0  0  0  0
  146.4330  136.4837  153.4856 C   0  0  0  0  0  0  0  0  0  0  0  0
  146.5674  137.8641  153.8015 C   0  0  0  0  0  0  0  0  0  0  0  0
  146.3053  138.6384  152.6794 N   0  0  0  0  0  0  0  0  0  0  0  0
  146.0256  137.7641  151.7514 C   0  0  0  0  0  0  0  0  0  0  0  0
  146.0918  136.4445  152.1445 N   0  0  0  0  0  0  0  0  0  0  0  0
  145.8100  135.2817  151.3506 C   0  0  0  0  0  0  0  0  0  0  0  0
  144.4514  135.0536  150.6827 C   0  0  0  0  0  0  0  0  0  0  0  0
  144.6275  133.5287  150.8759 C   0  0  0  0  0  0  0  0  0  0  0  0
  143.3842  132.7529  151.3452 C   0  0  0  0  0  0  0  0  0  0  0  0
  142.5781  132.3378  150.2614 O   0  0  0  0  0  0  0  0  0  0  0  0
  145.2979  132.7606  149.7172 C   0  0  0  0  0  0  0  0  0  0  0  0
  144.5412  132.8284  148.5263 O   0  0  0  0  0  0  0  0  0  0  0  0
  145.6001  133.9203  152.0124 C   0  0  0  0  0  0  0  0  0  0  0  0
  150.6387  140.8091  155.6056 C   0  0  0  0  0  0  0  0  0  0  0  0
  151.1390  138.0902  155.1128 H   0  0  0  0  0  0  0  0  0  0  0  0
  152.4131  137.9725  156.3273 H   0  0  0  0  0  0  0  0  0  0  0  0
  152.6088  139.0532  154.9522 H   0  0  0  0  0  0  0  0  0  0  0  0
  150.8847  138.5320  158.1294 H   0  0  0  0  0  0  0  0  0  0  0  0
  150.2092  140.1396  158.2176 H   0  0  0  0  0  0  0  0  0  0  0  0
  149.2108  137.8683  156.4408 H   0  0  0  0  0  0  0  0  0  0  0  0
  148.3982  138.5144  157.8452 H   0  0  0  0  0  0  0  0  0  0  0  0
  148.1288  140.6997  156.7858 H   0  0  0  0  0  0  0  0  0  0  0  0
  149.4792  139.5289  154.3226 H   0  0  0  0  0  0  0  0  0  0  0  0
  148.4676  142.3520  154.8691 H   0  0  0  0  0  0  0  0  0  0  0  0
  149.2477  141.8086  153.4015 H   0  0  0  0  0  0  0  0  0  0  0  0
  146.7414  141.8727  153.1962 H   0  0  0  0  0  0  0  0  0  0  0  0
  147.3978  140.2898  152.8931 H   0  0  0  0  0  0  0  0  0  0  0  0
  146.0500  141.2614  155.4679 H   0  0  0  0  0  0  0  0  0  0  0  0
  145.4329  140.0521  154.3699 H   0  0  0  0  0  0  0  0  0  0  0  0
  147.0871  135.0956  156.3083 H   0  0  0  0  0  0  0  0  0  0  0  0
  145.7582  138.0679  150.7503 H   0  0  0  0  0  0  0  0  0  0  0  0
  146.5996  135.2236  150.5996 H   0  0  0  0  0  0  0  0  0  0  0  0
  143.6113  135.4490  151.2548 H   0  0  0  0  0  0  0  0  0  0  0  0
  144.4015  135.3852  149.6453 H   0  0  0  0  0  0  0  0  0  0  0  0
  143.6617  131.8785  151.9348 H   0  0  0  0  0  0  0  0  0  0  0  0
  142.7636  133.3732  151.9926 H   0  0  0  0  0  0  0  0  0  0  0  0
  141.8805  132.9653  150.1485 H   0  0  0  0  0  0  0  0  0  0  0  0
  146.2881  133.1608  149.4980 H   0  0  0  0  0  0  0  0  0  0  0  0
  145.4487  131.7121  149.9767 H   0  0  0  0  0  0  0  0  0  0  0  0
  144.9970  133.3883  147.9156 H   0  0  0  0  0  0  0  0  0  0  0  0
  146.5009  133.3096  152.0793 H   0  0  0  0  0  0  0  0  0  0  0  0
  145.1152  134.0049  152.9868 H   0  0  0  0  0  0  0  0  0  0  0  0
  150.4856  141.6936  156.2258 H   0  0  0  0  0  0  0  0  0  0  0  0
  151.3226  141.1090  154.8106 H   0  0  0  0  0  0  0  0  0  0  0  0
  152.0552  140.2173  156.9020 H   0  0  0  0  0  0  0  0  0  0  0  0
  1  2  1  0  0  0  0
  1 29  1  0  0  0  0
  1 30  1  0  0  0  0
  1 31  1  0  0  0  0
  2 28  1  0  0  0  0
  2  3  1  0  0  0  0
  2 59  1  0  0  0  0
  3  4  1  0  0  0  0
  3 32  1  0  0  0  0
  3 33  1  0  0  0  0
  4  5  1  0  0  0  0
  4 34  1  0  0  0  0
  4 35  1  0  0  0  0
  5 10  1  0  0  0  0
  5  6  1  0  0  0  0
  5 36  1  0  0  0  0
  6  7  1  0  0  0  0
  6 28  1  0  0  0  0
  6 37  1  0  0  0  0
  7  8  1  0  0  0  0
  7 38  1  0  0  0  0
  7 39  1  0  0  0  0
  8  9  1  0  0  0  0
  8 40  1  0  0  0  0
  8 41  1  0  0  0  0
  9 10  1  0  0  0  0
  9 42  1  0  0  0  0
  9 43  1  0  0  0  0
 10 11  1  0  0  0  0
 11 16  1  0  0  0  0
 11 12  2  0  0  0  0
 12 13  1  0  0  0  0
 13 14  2  0  0  0  0
 13 44  1  0  0  0  0
 14 15  1  0  0  0  0
 15 19  1  0  0  0  0
 15 16  2  0  0  0  0
 16 17  1  0  0  0  0
 17 18  2  0  0  0  0
 18 19  1  0  0  0  0
 18 45  1  0  0  0  0
 19 20  1  0  0  0  0
 20 27  1  0  0  0  0
 20 21  1  0  0  0  0
 20 46  1  0  0  0  0
 21 22  1  0  0  0  0
 21 47  1  0  0  0  0
 21 48  1  0  0  0  0
 22 23  1  0  0  0  0
 22 25  1  0  0  0  0
 22 27  1  0  0  0  0
 23 24  1  0  0  0  0
 23 49  1  0  0  0  0
 23 50  1  0  0  0  0
 24 51  1  0  0  0  0
 25 26  1  0  0  0  0
 25 52  1  0  0  0  0
 25 53  1  0  0  0  0
 26 54  1  0  0  0  0
 27 55  1  0  0  0  0
 27 56  1  0  0  0  0
 28 57  1  0  0  0  0
 28 58  1  0  0  0  0
M  CHG  1   2   1
M  END
> <s_m_source_file>
AV-unprocessed.smi

> <i_m_source_file_index>
198

> <i_lp_mmshare_version>
43012

> <i_f3d_flags>
0

> <s_epik_input>
W0NIMl0xW0NIMl1OKFtDSDNdKVtDSDJdW0NAQEhdKFtDQEhdMTIpW0NIMl1bQ0gyXVtDSDJdTjJjKG5bY0hdbjMpYyhjMzQpbltjSF1uNFtDSF0oW0NIMl01KVtDSDJdQzUoW0NIMl1bT0hdKVtDSDJdW09IXQ==

> <s_epik_cmdline>
J2VwaWtfcHl0aG9uJywgJy1waCcsICc3LjAnLCAnLXRuJywgJzgnLCAnLW1hJywgJzIwMCcsICctbWV0YWxfYmluZGluZycsICctaW1hZScsICc8aW5maWxlLm1hZT4nLCAnLW9tYWUnLCAnPG91dGZpbGUubWFlPic=

> <r_lp_tautomer_probability>
1

> <r_epik_Ionization_Penalty>
0.00239938

> <r_epik_Ionization_Penalty_Charging>
0.00138697

> <r_epik_Ionization_Penalty_Neutral>
0.00101241

> <r_epik_State_Penalty>
-0

> <r_epik_Charging_Adjusted_Penalty>
0.00138697

> <i_epik_Tot_Q>
1

> <i_epik_Tot_abs_Q>
1

> <r_epik_Metal_State_Penalty>
-0

> <b_epik_Metal_Only>
0

> <s_lp_Force_Field>
OPLS_2005

> <r_lp_Energy>
59.1545

> <b_lp_Chiralities_Consistent>
1

> <s_lp_Variant>
AV-unprocessed.smi:198-2

> <Gold.Version>
5.8.1

> <Gold.Id.Protein>
6NUR|6NUR_protein|mol2

> <Gold.PLP.Fitness>
43.8064

> <Gold.PLP.PLP>
-35.5613

> <Gold.PLP.part.hbond>
-3.9544

> <Gold.PLP.part.metal>
0.0000

> <Gold.PLP.part.buried>
1.0003

> <Gold.PLP.part.nonpolar>
-33.2515

> <Gold.PLP.part.repulsive>
0.5002

> <Gold.PLP.ligand.clash>
0.0000

> <Gold.PLP.ligand.torsion>
0.8199

> <Gold.PLP.Chemscore.Hbond>
1.9920

> <Gold.PLP.Chemscore.CHOScore>
1.0000

> <Gold.PLP.Chemscore.Metal>
0.0000

> <Gold.Chemscore.Hbonds>
donor molecule, donor type, donor heavy atom, donor atom, acceptor molecule, acceptor atom, score
      L1  H    24    51       P1 10186  1.00
      L1  H    26    54       P1  7921  1.00
      L1  C    18    45       P1 10171  1.00

> <Gold.PLP.Chemscore.Internal.Correction>
0.9090

> <Gold.Rescore>
     Score         DG    S(hbond)    S(metal)    S(lipo)     H(rot)  DE(clash)    DE(int)     intcor
      6.54     -13.69       1.93        0.00      82.40       3.08       0.71       6.44       ----

> <Gold.Chemscore.Fitness>
6.5407

> <Gold.Chemscore.DG>
-13.6880

> <Gold.Chemscore.ZeroCoef>
-5.4800

> <Gold.Chemscore.Hbond>
1.9302

> <Gold.Chemscore.Metal>
0.0000

> <Gold.Chemscore.Lipo>
82.4024

> <Gold.Chemscore.Internal_Hbond>
0.0000

> <Gold.Chemscore.DEClash>
0.7120

> <Gold.Chemscore.DEInternal>
6.4354

> <Gold.Chemscore.Rot>
3.0781

> <Gold.Chemscore.Internal.Correction>
   9.000000E+99

> <Gold.Chemscore.Hbonds>
donor molecule, donor type, donor heavy atom, donor atom, acceptor molecule, acceptor atom, score
      L1  H    24    51       P1 10186  1.00
      L1  H    26    54       P1  7921  0.47

> <Gold.Chemscore.Hbond.Weighted>
-6.4470

> <Gold.Chemscore.Metal.Weighted>
-0.0000

> <Gold.Chemscore.Lipo.Weighted>
-9.6411

> <Gold.Chemscore.Internal_Hbond.Weighted>
0.0000

> <Gold.Chemscore.DEClash.Weighted>
0.7120

> <Gold.Chemscore.DEInternal.Weighted>
6.4354

> <Gold.Chemscore.Rot.Weighted>
7.8800

> <Gold.Chemscore.Internal.Correction.Weighted>
   9.000000E+99

> <Gold.Protein.RotatedTorsions>
[ 6907 6896 6895 6894 ] final  110.00 input  -60.11 | X-H torsion
[ 7974 7965 7964 7962 ] final  117.48 input  175.53 | X-H torsion
[ 8008 7997 7996 7995 ] final -166.74 input   59.86 | X-H torsion
[ 10167 10162 10161 10158 ] final  -60.32 input  -65.29 | X-H torsion
[ 10718 10713 10712 10709 ] final   70.70 input   66.30 | X-H torsion
[ 10763 10752 10751 10750 ] final   52.34 input  -60.55 | X-H torsion
[ 11005 11000 10999 10996 ] final  -36.02 input  -57.11 | X-H torsion

> <Gold.Protein.ActiveResidues>
 VAL166  LYS551  ARG553  GLY616  TRP617  ASP618  TYR619  PRO620  LYS621  CYS622 
 ASP623  PHE694  ASN695  SER759  ASP760  ASP761  ALA762  ILE779  LEU786  VAL792 
 PHE793  MET794  SER795  GLU796  ALA797  LYS798  CYS799  TRP800  GLU811  SER814 

> <Gold.Protein.RotatedAtoms>
  152.5041  133.8863  159.7371 H   0  0  0  0  0  0  0  0  0  0  0  0  # atno 6907 bound_to 6896
  150.9313  133.6755  159.2817 H   0  0  0  0  0  0  0  0  0  0  0  0  # atno 6908 bound_to 6896
  151.4098  135.0988  159.9634 H   0  0  0  0  0  0  0  0  0  0  0  0  # atno 6909 bound_to 6896
  145.1669  139.3123  143.4488 H   0  0  0  0  0  0  0  0  0  0  0  0  # atno 7974 bound_to 7965
  155.8680  140.0989  157.1569 H   0  0  0  0  0  0  0  0  0  0  0  0  # atno 8008 bound_to 7997
  154.3995  140.1352  156.4105 H   0  0  0  0  0  0  0  0  0  0  0  0  # atno 8009 bound_to 7997
  155.7783  140.3459  155.5286 H   0  0  0  0  0  0  0  0  0  0  0  0  # atno 8010 bound_to 7997
  140.6079  143.2378  151.5778 H   0  0  0  0  0  0  0  0  0  0  0  0  # atno 10167 bound_to 10162
  157.6413  130.9490  150.0687 H   0  0  0  0  0  0  0  0  0  0  0  0  # atno 10718 bound_to 10713
  152.9788  135.5816  154.4563 H   0  0  0  0  0  0  0  0  0  0  0  0  # atno 10763 bound_to 10752
  154.4145  135.2770  155.2018 H   0  0  0  0  0  0  0  0  0  0  0  0  # atno 10764 bound_to 10752
  154.3793  135.6150  153.5836 H   0  0  0  0  0  0  0  0  0  0  0  0  # atno 10765 bound_to 10752
  140.9842  133.7040  156.1736 H   0  0  0  0  0  0  0  0  0  0  0  0  # atno 11005 bound_to 11000
  146.3474  140.1800  142.8589 LP  0  0  0  0  0  0  0  0  0  0  0  0  # atno 17320 bound_to 7965
  145.0273  140.8842  143.5131 LP  0  0  0  0  0  0  0  0  0  0  0  0  # atno 17321 bound_to 7965
  139.5339  144.2838  152.1208 LP  0  0  0  0  0  0  0  0  0  0  0  0  # atno 17342 bound_to 10162
  140.2031  144.4638  150.6422 LP  0  0  0  0  0  0  0  0  0  0  0  0  # atno 17343 bound_to 10162
  156.1697  130.3646  149.9182 LP  0  0  0  0  0  0  0  0  0  0  0  0  # atno 17370 bound_to 10713
  156.7160  130.8988  151.3614 LP  0  0  0  0  0  0  0  0  0  0  0  0  # atno 17371 bound_to 10713
  140.7140  134.4430  157.5580 LP  0  0  0  0  0  0  0  0  0  0  0  0  # atno 17394 bound_to 11000
  139.8963  134.8662  156.2093 LP  0  0  0  0  0  0  0  0  0  0  0  0  # atno 17395 bound_to 11000

$$$$
