AV-unprocessed.smi:875|AV-procd|sdf|4018|dock9
  -GOLD-   22720 1503D 1   1.00000     0.00000
 Structure written by MMmdl.
 37 38  0  0  0  0  0  0  0  0  1 V2000
  146.4523  138.1738  152.1176 C   0  0  0  0  0  0  0  0  0  0  0  0
  147.1417  139.3983  152.4931 N   0  0  0  0  0  0  0  0  0  0  0  0
  147.0589  139.9716  153.7032 C   0  0  0  0  0  0  0  0  0  0  0  0
  146.3720  139.5186  154.6187 O   0  0  0  0  0  0  0  0  0  0  0  0
  147.8610  141.2586  153.9144 C   0  0  0  0  0  0  0  0  0  0  0  0
  149.1378  140.9839  154.6445 C   0  0  0  0  0  0  0  0  0  0  0  0
  150.0235  140.1071  154.1849 N   0  0  0  0  0  0  0  0  0  0  0  0
  151.0514  140.1550  155.1376 O   0  0  0  0  0  0  0  0  0  0  0  0
  150.6561  141.0594  156.0654 C   0  0  0  0  0  0  0  0  0  0  0  0
  151.5501  141.3302  157.2303 C   0  0  0  0  0  0  0  0  0  0  0  0
  151.1301  142.5577  157.8102 O   0  0  0  0  0  0  0  0  0  0  0  0
  152.0169  143.0816  158.7900 C   0  0  0  0  0  0  0  0  0  0  0  0
  152.4715  141.9844  159.7765 C   0  0  0  0  0  0  0  0  0  0  0  0
  153.3203  142.5722  160.9160 C   0  0  0  0  0  0  0  0  0  0  0  0
  152.5716  143.6954  161.6505 C   0  0  0  0  0  0  0  0  0  0  0  0
  152.1149  144.7891  160.6723 C   0  0  0  0  0  0  0  0  0  0  0  0
  151.2648  144.1980  159.5359 C   0  0  0  0  0  0  0  0  0  0  0  0
  149.4658  141.6011  155.8137 N   0  0  0  0  0  0  0  0  0  0  0  0
  146.7101  137.9010  151.0943 H   0  0  0  0  0  0  0  0  0  0  0  0
  145.3710  138.3045  152.1745 H   0  0  0  0  0  0  0  0  0  0  0  0
  146.7391  137.3494  152.7720 H   0  0  0  0  0  0  0  0  0  0  0  0
  147.7278  139.8326  151.7942 H   0  0  0  0  0  0  0  0  0  0  0  0
  148.0787  141.7141  152.9475 H   0  0  0  0  0  0  0  0  0  0  0  0
  147.2660  141.9793  154.4770 H   0  0  0  0  0  0  0  0  0  0  0  0
  151.4718  140.5015  157.9336 H   0  0  0  0  0  0  0  0  0  0  0  0
  152.5835  141.3970  156.8870 H   0  0  0  0  0  0  0  0  0  0  0  0
  152.8876  143.5223  158.3006 H   0  0  0  0  0  0  0  0  0  0  0  0
  151.5974  141.4835  160.1948 H   0  0  0  0  0  0  0  0  0  0  0  0
  153.0503  141.2176  159.2625 H   0  0  0  0  0  0  0  0  0  0  0  0
  153.5926  141.7856  161.6202 H   0  0  0  0  0  0  0  0  0  0  0  0
  154.2552  142.9616  160.5109 H   0  0  0  0  0  0  0  0  0  0  0  0
  151.7045  143.2801  162.1660 H   0  0  0  0  0  0  0  0  0  0  0  0
  153.2110  144.1280  162.4204 H   0  0  0  0  0  0  0  0  0  0  0  0
  151.5447  145.5498  161.2061 H   0  0  0  0  0  0  0  0  0  0  0  0
  152.9867  145.2928  160.2528 H   0  0  0  0  0  0  0  0  0  0  0  0
  150.9825  144.9869  158.8379 H   0  0  0  0  0  0  0  0  0  0  0  0
  150.3347  143.8028  159.9469 H   0  0  0  0  0  0  0  0  0  0  0  0
  1  2  1  0  0  0  0
  1 19  1  0  0  0  0
  1 20  1  0  0  0  0
  1 21  1  0  0  0  0
  2  3  1  0  0  0  0
  2 22  1  0  0  0  0
  3  4  2  0  0  0  0
  3  5  1  0  0  0  0
  5  6  1  0  0  0  0
  5 23  1  0  0  0  0
  5 24  1  0  0  0  0
  6 18  1  0  0  0  0
  6  7  2  0  0  0  0
  7  8  1  0  0  0  0
  8  9  1  0  0  0  0
  9 10  1  0  0  0  0
  9 18  2  0  0  0  0
 10 11  1  0  0  0  0
 10 25  1  0  0  0  0
 10 26  1  0  0  0  0
 11 12  1  0  0  0  0
 12 17  1  0  0  0  0
 12 13  1  0  0  0  0
 12 27  1  0  0  0  0
 13 14  1  0  0  0  0
 13 28  1  0  0  0  0
 13 29  1  0  0  0  0
 14 15  1  0  0  0  0
 14 30  1  0  0  0  0
 14 31  1  0  0  0  0
 15 16  1  0  0  0  0
 15 32  1  0  0  0  0
 15 33  1  0  0  0  0
 16 17  1  0  0  0  0
 16 34  1  0  0  0  0
 16 35  1  0  0  0  0
 17 36  1  0  0  0  0
 17 37  1  0  0  0  0
M  END
> <s_m_source_file>
AV-unprocessed.smi

> <i_m_source_file_index>
875

> <i_lp_mmshare_version>
43012

> <i_f3d_flags>
0

> <s_epik_input>
W0NIM11bTkhdQyg9TylbQ0gyXWMxbm9jKG4xKVtDSDJdT1tDSF0yW0NIMl1bQ0gyXVtDSDJdW0NIMl1bQ0gyXTI=

> <s_epik_cmdline>
J2VwaWtfcHl0aG9uJywgJy1waCcsICc3LjAnLCAnLXRuJywgJzgnLCAnLW1hJywgJzIwMCcsICctbWV0YWxfYmluZGluZycsICctaW1hZScsICc8aW5maWxlLm1hZT4nLCAnLW9tYWUnLCAnPG91dGZpbGUubWFlPic=

> <r_lp_tautomer_probability>
1

> <r_epik_Ionization_Penalty>
1.02915e-07

> <r_epik_Ionization_Penalty_Charging>
0

> <r_epik_Ionization_Penalty_Neutral>
1.02915e-07

> <r_epik_State_Penalty>
-0

> <r_epik_Charging_Adjusted_Penalty>
0

> <i_epik_Tot_Q>
0

> <i_epik_Tot_abs_Q>
0

> <r_epik_Metal_State_Penalty>
-0

> <b_epik_Metal_Only>
0

> <s_lp_Force_Field>
OPLS_2005

> <r_lp_Energy>
10.4582

> <b_lp_Chiralities_Consistent>
1

> <s_lp_Variant>
AV-unprocessed.smi:875-1

> <Gold.Version>
5.8.1

> <Gold.Id.Protein>
6NUR|6NUR_protein|mol2

> <Gold.PLP.Fitness>
44.6559

> <Gold.PLP.PLP>
-43.2079

> <Gold.PLP.part.hbond>
-3.0000

> <Gold.PLP.part.metal>
0.0000

> <Gold.PLP.part.buried>
-7.6808

> <Gold.PLP.part.nonpolar>
-33.7203

> <Gold.PLP.part.repulsive>
1.6635

> <Gold.PLP.ligand.clash>
0.0000

> <Gold.PLP.ligand.torsion>
0.6527

> <Gold.PLP.Chemscore.Hbond>
0.9120

> <Gold.PLP.Chemscore.CHOScore>
0.0000

> <Gold.PLP.Chemscore.Metal>
0.0000

> <Gold.Chemscore.Hbonds>
donor molecule, donor type, donor heavy atom, donor atom, acceptor molecule, acceptor atom, score
      L1  H     2    22       P1  7957  0.91

> <Gold.PLP.Chemscore.Internal.Correction>
0.0175

> <Gold.Rescore>
     Score         DG    S(hbond)    S(metal)    S(lipo)     H(rot)  DE(clash)    DE(int)     intcor
     13.08     -13.78       0.98        0.00      90.70       2.18       0.02       0.67       ----

> <Gold.Chemscore.Fitness>
13.0843

> <Gold.Chemscore.DG>
-13.7791

> <Gold.Chemscore.ZeroCoef>
-5.4800

> <Gold.Chemscore.Hbond>
0.9755

> <Gold.Chemscore.Metal>
0.0000

> <Gold.Chemscore.Lipo>
90.7032

> <Gold.Chemscore.Internal_Hbond>
0.0000

> <Gold.Chemscore.DEClash>
0.0202

> <Gold.Chemscore.DEInternal>
0.6746

> <Gold.Chemscore.Rot>
2.1763

> <Gold.Chemscore.Internal.Correction>
   9.000000E+99

> <Gold.Chemscore.Hbonds>
donor molecule, donor type, donor heavy atom, donor atom, acceptor molecule, acceptor atom, score
      L1  H     2    22       P1  7957  0.88

> <Gold.Chemscore.Hbond.Weighted>
-3.2581

> <Gold.Chemscore.Metal.Weighted>
-0.0000

> <Gold.Chemscore.Lipo.Weighted>
-10.6123

> <Gold.Chemscore.Internal_Hbond.Weighted>
0.0000

> <Gold.Chemscore.DEClash.Weighted>
0.0202

> <Gold.Chemscore.DEInternal.Weighted>
0.6746

> <Gold.Chemscore.Rot.Weighted>
5.5712

> <Gold.Chemscore.Internal.Correction.Weighted>
   9.000000E+99

> <Gold.Protein.RotatedTorsions>
[ 6907 6896 6895 6894 ] final  -11.84 input  -60.11 | X-H torsion
[ 7974 7965 7964 7962 ] final -167.20 input  175.53 | X-H torsion
[ 8008 7997 7996 7995 ] final -173.31 input   59.86 | X-H torsion
[ 10167 10162 10161 10158 ] final -116.03 input  -65.29 | X-H torsion
[ 10718 10713 10712 10709 ] final -141.00 input   66.30 | X-H torsion
[ 10763 10752 10751 10750 ] final -179.60 input  -60.55 | X-H torsion
[ 11005 11000 10999 10996 ] final  153.48 input  -57.11 | X-H torsion

> <Gold.Protein.ActiveResidues>
 VAL166  LYS551  ARG553  GLY616  TRP617  ASP618  TYR619  PRO620  LYS621  CYS622 
 ASP623  PHE694  ASN695  SER759  ASP760  ASP761  ALA762  ILE779  LEU786  VAL792 
 PHE793  MET794  SER795  GLU796  ALA797  LYS798  CYS799  TRP800  GLU811  SER814 

> <Gold.Protein.RotatedAtoms>
  151.3798  135.0938  159.9492 H   0  0  0  0  0  0  0  0  0  0  0  0  # atno 6907 bound_to 6896
  152.5111  133.9083  159.7485 H   0  0  0  0  0  0  0  0  0  0  0  0  # atno 6908 bound_to 6896
  150.9514  133.6490  159.2800 H   0  0  0  0  0  0  0  0  0  0  0  0  # atno 6909 bound_to 6896
  144.7228  140.2554  143.6272 H   0  0  0  0  0  0  0  0  0  0  0  0  # atno 7974 bound_to 7965
  155.9558  140.1135  157.0938 H   0  0  0  0  0  0  0  0  0  0  0  0  # atno 8008 bound_to 7997
  154.4120  140.1191  156.5180 H   0  0  0  0  0  0  0  0  0  0  0  0  # atno 8009 bound_to 7997
  155.6783  140.3473  155.4847 H   0  0  0  0  0  0  0  0  0  0  0  0  # atno 8010 bound_to 7997
  140.0836  143.4765  152.1911 H   0  0  0  0  0  0  0  0  0  0  0  0  # atno 10167 bound_to 10162
  156.3289  130.7575  151.1689 H   0  0  0  0  0  0  0  0  0  0  0  0  # atno 10718 bound_to 10713
  154.5330  135.2801  155.1163 H   0  0  0  0  0  0  0  0  0  0  0  0  # atno 10763 bound_to 10752
  154.2675  135.6310  153.5301 H   0  0  0  0  0  0  0  0  0  0  0  0  # atno 10764 bound_to 10752
  152.9961  135.5620  154.5849 H   0  0  0  0  0  0  0  0  0  0  0  0  # atno 10765 bound_to 10752
  140.1402  134.8744  157.2321 H   0  0  0  0  0  0  0  0  0  0  0  0  # atno 11005 bound_to 11000
  145.8188  139.2034  143.1950 LP  0  0  0  0  0  0  0  0  0  0  0  0  # atno 17320 bound_to 7965
  146.0532  140.8047  142.9771 LP  0  0  0  0  0  0  0  0  0  0  0  0  # atno 17321 bound_to 7965
  139.5765  144.7490  151.3751 LP  0  0  0  0  0  0  0  0  0  0  0  0  # atno 17342 bound_to 10162
  140.7065  143.7501  150.7491 LP  0  0  0  0  0  0  0  0  0  0  0  0  # atno 17343 bound_to 10162
  157.7426  131.0487  150.5008 LP  0  0  0  0  0  0  0  0  0  0  0  0  # atno 17370 bound_to 10713
  156.5171  130.4153  149.6270 LP  0  0  0  0  0  0  0  0  0  0  0  0  # atno 17371 bound_to 10713
  140.2732  134.3436  155.7367 LP  0  0  0  0  0  0  0  0  0  0  0  0  # atno 17394 bound_to 11000
  141.2184  133.7435  156.9253 LP  0  0  0  0  0  0  0  0  0  0  0  0  # atno 17395 bound_to 11000

$$$$
