AV-unprocessed.smi:1911|AV-procd|sdf|7745|dock4
  -GOLD-   22720 9483D 1   1.00000     0.00000
 Structure written by MMmdl.
 51 53  0  0  0  0  0  0  0  0  3 V2000
  143.7853  133.3266  148.7516 N   0  5  0  0  0  0  0  0  0  0  0  0
  144.3186  132.5021  149.6753 C   0  0  0  0  0  0  0  0  0  0  0  0
  143.8299  131.4771  150.1444 O   0  0  0  0  0  0  0  0  0  0  0  0
  145.7006  132.9682  150.1473 C   0  0  0  0  0  0  0  0  0  0  0  0
  145.7226  133.1739  151.6187 N   0  3  2  0  0  0  0  0  0  0  0  0
  145.1824  134.5009  152.0091 C   0  0  0  0  0  0  0  0  0  0  0  0
  145.0803  134.6360  153.5392 C   0  0  0  0  0  0  0  0  0  0  0  0
  146.4286  134.3666  154.2350 C   0  0  2  0  0  0  0  0  0  0  0  0
  147.3913  135.4387  153.9837 N   0  0  0  0  0  0  0  0  0  0  0  0
  147.7813  136.3582  154.8779 C   0  0  0  0  0  0  0  0  0  0  0  0
  147.3436  136.4170  156.0265 O   0  0  0  0  0  0  0  0  0  0  0  0
  148.6806  137.2022  154.3438 N   0  0  0  0  0  0  0  0  0  0  0  0
  149.3854  138.2590  154.9802 C   0  0  0  0  0  0  0  0  0  0  0  0
  149.8029  138.0714  156.3119 C   0  0  0  0  0  0  0  0  0  0  0  0
  150.4797  139.1120  156.9758 C   0  0  0  0  0  0  0  0  0  0  0  0
  150.7167  140.3258  156.2881 C   0  0  0  0  0  0  0  0  0  0  0  0
  151.3814  141.3998  156.9130 N   0  0  0  0  0  0  0  0  0  0  0  0
  150.9945  142.7848  156.6994 C   0  0  0  0  0  0  0  0  0  0  0  0
  151.8787  143.5876  157.6537 C   0  0  0  0  0  0  0  0  0  0  0  0
  152.0910  142.6283  158.8250 C   0  0  0  0  0  0  0  0  0  0  0  0
  152.0949  141.2410  158.1740 C   0  0  0  0  0  0  0  0  0  0  0  0
  150.3009  140.5128  155.0131 N   0  0  0  0  0  0  0  0  0  0  0  0
  149.6547  139.5115  154.3795 C   0  0  0  0  0  0  0  0  0  0  0  0
  146.9938  133.0160  153.7638 C   0  0  0  0  0  0  0  0  0  0  0  0
  147.0555  132.9201  152.2287 C   0  0  0  0  0  0  0  0  0  0  0  0
  142.8807  133.7700  148.9525 H   0  0  0  0  0  0  0  0  0  0  0  0
  146.4692  132.2516  149.8531 H   0  0  0  0  0  0  0  0  0  0  0  0
  145.9314  133.9016  149.6311 H   0  0  0  0  0  0  0  0  0  0  0  0
  145.8165  135.2884  151.5989 H   0  0  0  0  0  0  0  0  0  0  0  0
  144.1912  134.6350  151.5739 H   0  0  0  0  0  0  0  0  0  0  0  0
  144.7022  135.6241  153.8038 H   0  0  0  0  0  0  0  0  0  0  0  0
  144.3414  133.9235  153.9082 H   0  0  0  0  0  0  0  0  0  0  0  0
  146.2625  134.3040  155.3120 H   0  0  0  0  0  0  0  0  0  0  0  0
  147.8044  135.4716  153.0633 H   0  0  0  0  0  0  0  0  0  0  0  0
  148.8651  137.0920  153.3577 H   0  0  0  0  0  0  0  0  0  0  0  0
  149.6100  137.1394  156.8231 H   0  0  0  0  0  0  0  0  0  0  0  0
  150.8005  138.9644  157.9959 H   0  0  0  0  0  0  0  0  0  0  0  0
  151.1430  143.0922  155.6637 H   0  0  0  0  0  0  0  0  0  0  0  0
  149.9410  142.9096  156.9527 H   0  0  0  0  0  0  0  0  0  0  0  0
  152.8361  143.8029  157.1769 H   0  0  0  0  0  0  0  0  0  0  0  0
  151.4296  144.5350  157.9525 H   0  0  0  0  0  0  0  0  0  0  0  0
  153.0028  142.8348  159.3860 H   0  0  0  0  0  0  0  0  0  0  0  0
  151.2491  142.7045  159.5146 H   0  0  0  0  0  0  0  0  0  0  0  0
  151.6280  140.5027  158.8270 H   0  0  0  0  0  0  0  0  0  0  0  0
  153.1135  140.9148  157.9619 H   0  0  0  0  0  0  0  0  0  0  0  0
  149.3324  139.7468  153.3773 H   0  0  0  0  0  0  0  0  0  0  0  0
  147.9842  132.8507  154.1903 H   0  0  0  0  0  0  0  0  0  0  0  0
  146.3631  132.2112  154.1439 H   0  0  0  0  0  0  0  0  0  0  0  0
  147.4137  131.9280  151.9528 H   0  0  0  0  0  0  0  0  0  0  0  0
  147.7790  133.6344  151.8327 H   0  0  0  0  0  0  0  0  0  0  0  0
  145.0879  132.4823  151.9938 H   0  0  0  0  0  0  0  0  0  0  0  0
  1  2  1  0  0  0  0
  1 26  1  0  0  0  0
  2  3  2  0  0  0  0
  2  4  1  0  0  0  0
  4  5  1  0  0  0  0
  4 27  1  0  0  0  0
  4 28  1  0  0  0  0
  5 25  1  0  0  0  0
  5  6  1  0  0  0  0
  5 51  1  0  0  0  0
  6  7  1  0  0  0  0
  6 29  1  0  0  0  0
  6 30  1  0  0  0  0
  7  8  1  0  0  0  0
  7 31  1  0  0  0  0
  7 32  1  0  0  0  0
  8  9  1  0  0  0  0
  8 24  1  0  0  0  0
  8 33  1  0  0  0  0
  9 10  1  0  0  0  0
  9 34  1  0  0  0  0
 10 11  2  0  0  0  0
 10 12  1  0  0  0  0
 12 13  1  0  0  0  0
 12 35  1  0  0  0  0
 13 23  1  0  0  0  0
 13 14  2  0  0  0  0
 14 15  1  0  0  0  0
 14 36  1  0  0  0  0
 15 16  2  0  0  0  0
 15 37  1  0  0  0  0
 16 17  1  0  0  0  0
 16 22  1  0  0  0  0
 17 21  1  0  0  0  0
 17 18  1  0  0  0  0
 18 19  1  0  0  0  0
 18 38  1  0  0  0  0
 18 39  1  0  0  0  0
 19 20  1  0  0  0  0
 19 40  1  0  0  0  0
 19 41  1  0  0  0  0
 20 21  1  0  0  0  0
 20 42  1  0  0  0  0
 20 43  1  0  0  0  0
 21 44  1  0  0  0  0
 21 45  1  0  0  0  0
 22 23  2  0  0  0  0
 23 46  1  0  0  0  0
 24 25  1  0  0  0  0
 24 47  1  0  0  0  0
 24 48  1  0  0  0  0
 25 49  1  0  0  0  0
 25 50  1  0  0  0  0
M  CHG  1   1  -1
M  CHG  1   5   1
M  END
> <s_m_source_file>
AV-unprocessed.smi

> <i_m_source_file_index>
1911

> <i_lp_mmshare_version>
43012

> <i_f3d_flags>
0

> <s_epik_input>
W05IMl1DKD1PKVtDSDJdTjFbQ0gyXVtDSDJdW0NIXShbQ0gyXVtDSDJdMSlbTkhdQyg9TylbTkhdYzJbY0hdW2NIXWMobltjSF0yKU4zW0NIMl1bQ0gyXVtDSDJdW0NIMl0z

> <s_epik_cmdline>
J2VwaWtfcHl0aG9uJywgJy1waCcsICc3LjAnLCAnLXRuJywgJzgnLCAnLW1hJywgJzIwMCcsICctbWV0YWxfYmluZGluZycsICctaW1hZScsICc8aW5maWxlLm1hZT4nLCAnLW9tYWUnLCAnPG91dGZpbGUubWFlPic=

> <r_lp_tautomer_probability>
1

> <r_epik_Ionization_Penalty>
5.80652

> <r_epik_Ionization_Penalty_Charging>
5.7288

> <r_epik_Ionization_Penalty_Neutral>
0.0777157

> <r_epik_State_Penalty>
6.60246

> <r_epik_Charging_Adjusted_Penalty>
12.3313

> <i_epik_Tot_Q>
0

> <i_epik_Tot_abs_Q>
2

> <r_epik_Metal_State_Penalty>
2.64988

> <b_epik_Metal_Only>
1

> <s_lp_Force_Field>
OPLS_2005

> <r_lp_Energy>
33.5084

> <b_lp_Chiralities_Consistent>
1

> <s_lp_Variant>
AV-unprocessed.smi:1911-8

> <Gold.Version>
5.8.1

> <Gold.Id.Protein>
6NUR|6NUR_protein|mol2

> <Gold.PLP.Fitness>
50.6218

> <Gold.PLP.PLP>
-35.9207

> <Gold.PLP.part.hbond>
-5.9358

> <Gold.PLP.part.metal>
0.0000

> <Gold.PLP.part.buried>
-4.9253

> <Gold.PLP.part.nonpolar>
-24.7287

> <Gold.PLP.part.repulsive>
0.2774

> <Gold.PLP.ligand.clash>
0.0000

> <Gold.PLP.ligand.torsion>
1.0361

> <Gold.PLP.Chemscore.Hbond>
4.5257

> <Gold.PLP.Chemscore.CHOScore>
1.0000

> <Gold.PLP.Chemscore.Metal>
0.0000

> <Gold.Chemscore.Hbonds>
donor molecule, donor type, donor heavy atom, donor atom, acceptor molecule, acceptor atom, score
      L1  H     1    26       P1 10186  0.93
      L1  H     9    34       P1  7948  1.00
      L1  H    12    35       P1  7948  1.00
      P1  H  7989  7998       L1    22  0.76
      P1  H 10785 10796       L1     3  0.77
      L1  C    23    46       P1  7957  1.00

> <Gold.PLP.Chemscore.Internal.Correction>
0.1961

> <Gold.Rescore>
     Score         DG    S(hbond)    S(metal)    S(lipo)     H(rot)  DE(clash)    DE(int)     intcor
     20.11     -22.86       3.73        0.00      83.12       1.88       0.60       2.15       ----

> <Gold.Chemscore.Fitness>
20.1123

> <Gold.Chemscore.DG>
-22.8645

> <Gold.Chemscore.ZeroCoef>
-5.4800

> <Gold.Chemscore.Hbond>
3.7337

> <Gold.Chemscore.Metal>
0.0000

> <Gold.Chemscore.Lipo>
83.1170

> <Gold.Chemscore.Internal_Hbond>
0.0000

> <Gold.Chemscore.DEClash>
0.6013

> <Gold.Chemscore.DEInternal>
2.1510

> <Gold.Chemscore.Rot>
1.8793

> <Gold.Chemscore.Internal.Correction>
   9.000000E+99

> <Gold.Chemscore.Hbonds>
donor molecule, donor type, donor heavy atom, donor atom, acceptor molecule, acceptor atom, score
      L1  H     1    26       P1 10186  0.89
      L1  H     9    34       P1  7948  0.96
      L1  H    12    35       P1  7948  0.98
      P1  H  7989  7998       L1    22  0.10
      P1  H 10785 10796       L1     3  0.64

> <Gold.Chemscore.Hbond.Weighted>
-12.4707

> <Gold.Chemscore.Metal.Weighted>
-0.0000

> <Gold.Chemscore.Lipo.Weighted>
-9.7247

> <Gold.Chemscore.Internal_Hbond.Weighted>
0.0000

> <Gold.Chemscore.DEClash.Weighted>
0.6013

> <Gold.Chemscore.DEInternal.Weighted>
2.1510

> <Gold.Chemscore.Rot.Weighted>
4.8109

> <Gold.Chemscore.Internal.Correction.Weighted>
   9.000000E+99

> <Gold.Protein.RotatedTorsions>
[ 6907 6896 6895 6894 ] final  -29.78 input  -60.11 | X-H torsion
[ 7974 7965 7964 7962 ] final -103.85 input  175.53 | X-H torsion
[ 8008 7997 7996 7995 ] final    8.02 input   59.86 | X-H torsion
[ 10167 10162 10161 10158 ] final  125.90 input  -65.29 | X-H torsion
[ 10718 10713 10712 10709 ] final   51.32 input   66.30 | X-H torsion
[ 10763 10752 10751 10750 ] final -108.96 input  -60.55 | X-H torsion
[ 11005 11000 10999 10996 ] final -132.07 input  -57.11 | X-H torsion

> <Gold.Protein.ActiveResidues>
 VAL166  LYS551  ARG553  GLY616  TRP617  ASP618  TYR619  PRO620  LYS621  CYS622 
 ASP623  PHE694  ASN695  SER759  ASP760  ASP761  ALA762  ILE779  LEU786  VAL792 
 PHE793  MET794  SER795  GLU796  ALA797  LYS798  CYS799  TRP800  GLU811  SER814 

> <Gold.Protein.RotatedAtoms>
  151.1145  135.0045  159.8509 H   0  0  0  0  0  0  0  0  0  0  0  0  # atno 6907 bound_to 6896
  152.5445  134.1796  159.8640 H   0  0  0  0  0  0  0  0  0  0  0  0  # atno 6908 bound_to 6896
  151.1849  133.4658  159.2627 H   0  0  0  0  0  0  0  0  0  0  0  0  # atno 6909 bound_to 6896
  145.2507  140.9237  143.3097 H   0  0  0  0  0  0  0  0  0  0  0  0  # atno 7974 bound_to 7965
  154.7614  140.2785  155.6211 H   0  0  0  0  0  0  0  0  0  0  0  0  # atno 8008 bound_to 7997
  156.2916  140.2659  156.2321 H   0  0  0  0  0  0  0  0  0  0  0  0  # atno 8009 bound_to 7997
  155.0012  140.0373  157.2350 H   0  0  0  0  0  0  0  0  0  0  0  0  # atno 8010 bound_to 7997
  139.5660  144.6911  151.3909 H   0  0  0  0  0  0  0  0  0  0  0  0  # atno 10167 bound_to 10162
  157.4969  130.8412  149.8270 H   0  0  0  0  0  0  0  0  0  0  0  0  # atno 10718 bound_to 10713
  154.8166  135.4618  154.0661 H   0  0  0  0  0  0  0  0  0  0  0  0  # atno 10763 bound_to 10752
  153.2048  135.6874  153.8192 H   0  0  0  0  0  0  0  0  0  0  0  0  # atno 10764 bound_to 10752
  153.7664  135.3276  155.3322 H   0  0  0  0  0  0  0  0  0  0  0  0  # atno 10765 bound_to 10752
  140.9202  134.1454  157.4320 H   0  0  0  0  0  0  0  0  0  0  0  0  # atno 11005 bound_to 11000
  144.9506  139.4087  143.6404 LP  0  0  0  0  0  0  0  0  0  0  0  0  # atno 17320 bound_to 7965
  146.3303  139.8511  142.8873 LP  0  0  0  0  0  0  0  0  0  0  0  0  # atno 17321 bound_to 7965
  140.6943  143.7786  150.7303 LP  0  0  0  0  0  0  0  0  0  0  0  0  # atno 17342 bound_to 10162
  140.1277  143.4554  152.2274 LP  0  0  0  0  0  0  0  0  0  0  0  0  # atno 17343 bound_to 10162
  156.0206  130.3797  150.1974 LP  0  0  0  0  0  0  0  0  0  0  0  0  # atno 17370 bound_to 10713
  157.0163  130.9966  151.3352 LP  0  0  0  0  0  0  0  0  0  0  0  0  # atno 17371 bound_to 10713
  139.8774  134.9969  156.5817 LP  0  0  0  0  0  0  0  0  0  0  0  0  # atno 17394 bound_to 11000
  140.7997  133.8515  155.8716 LP  0  0  0  0  0  0  0  0  0  0  0  0  # atno 17395 bound_to 11000

$$$$
