AV-unprocessed.smi:3117|AV-procd|sdf|11882|dock8
  -GOLD-   2272017273D 1   1.00000     0.00000
 Structure written by MMmdl.
 36 36  0  0  0  0  0  0  0  0  1 V2000
  150.5788  139.3183  157.3882 C   0  0  0  0  0  0  0  0  0  0  0  0
  150.6513  140.8535  157.4662 C   0  0  2  0  0  0  0  0  0  0  0  0
  150.4501  141.3760  156.1087 N   0  0  0  0  0  0  0  0  0  0  0  0
  149.0550  141.5483  155.6928 C   0  0  0  0  0  0  0  0  0  0  0  0
  148.6844  140.6491  154.4943 C   0  0  0  0  0  0  0  0  0  0  0  0
  149.0498  139.1888  154.8077 C   0  0  0  0  0  0  0  0  0  0  0  0
  147.1953  140.7516  154.1122 C   0  0  0  0  0  0  0  0  0  0  0  0
  149.4738  141.0312  153.3843 O   0  0  0  0  0  0  0  0  0  0  0  0
  151.9963  141.3453  158.0847 C   0  0  2  0  0  0  0  0  0  0  0  0
  152.4273  140.5465  159.3316 C   0  0  0  0  0  0  0  0  0  0  0  0
  151.9826  142.7679  158.4021 N   0  0  0  0  0  0  0  0  0  0  0  0
  151.4812  143.8044  157.6411 C   0  0  0  0  0  0  0  0  0  0  0  0
  151.6743  144.9591  158.3440 C   0  0  0  0  0  0  0  0  0  0  0  0
  152.3101  144.5240  159.5399 C   0  0  0  0  0  0  0  0  0  0  0  0
  152.4920  143.2140  159.5737 N   0  0  0  0  0  0  0  0  0  0  0  0
  150.5662  138.8629  158.3782 H   0  0  0  0  0  0  0  0  0  0  0  0
  151.4244  138.9055  156.8370 H   0  0  0  0  0  0  0  0  0  0  0  0
  149.6664  138.9954  156.8856 H   0  0  0  0  0  0  0  0  0  0  0  0
  149.8263  141.1758  158.1032 H   0  0  0  0  0  0  0  0  0  0  0  0
  150.9135  140.7676  155.4406 H   0  0  0  0  0  0  0  0  0  0  0  0
  148.3923  141.3327  156.5321 H   0  0  0  0  0  0  0  0  0  0  0  0
  148.8607  142.5811  155.4160 H   0  0  0  0  0  0  0  0  0  0  0  0
  148.4804  138.8158  155.6599 H   0  0  0  0  0  0  0  0  0  0  0  0
  150.1086  139.0857  155.0500 H   0  0  0  0  0  0  0  0  0  0  0  0
  148.8406  138.5332  153.9613 H   0  0  0  0  0  0  0  0  0  0  0  0
  146.5563  140.4877  154.9557 H   0  0  0  0  0  0  0  0  0  0  0  0
  146.9499  140.0786  153.2899 H   0  0  0  0  0  0  0  0  0  0  0  0
  146.9238  141.7592  153.7960 H   0  0  0  0  0  0  0  0  0  0  0  0
  149.4437  140.3387  152.7421 H   0  0  0  0  0  0  0  0  0  0  0  0
  152.7767  141.2012  157.3356 H   0  0  0  0  0  0  0  0  0  0  0  0
  152.6708  139.5132  159.0854 H   0  0  0  0  0  0  0  0  0  0  0  0
  151.6444  140.5349  160.0905 H   0  0  0  0  0  0  0  0  0  0  0  0
  153.3207  140.9799  159.7827 H   0  0  0  0  0  0  0  0  0  0  0  0
  151.0288  143.6348  156.6752 H   0  0  0  0  0  0  0  0  0  0  0  0
  151.4014  145.9612  158.0490 H   0  0  0  0  0  0  0  0  0  0  0  0
  152.6407  145.1171  160.3798 H   0  0  0  0  0  0  0  0  0  0  0  0
  1  2  1  0  0  0  0
  1 16  1  0  0  0  0
  1 17  1  0  0  0  0
  1 18  1  0  0  0  0
  2  3  1  0  0  0  0
  2  9  1  0  0  0  0
  2 19  1  0  0  0  0
  3  4  1  0  0  0  0
  3 20  1  0  0  0  0
  4  5  1  0  0  0  0
  4 21  1  0  0  0  0
  4 22  1  0  0  0  0
  5  6  1  0  0  0  0
  5  7  1  0  0  0  0
  5  8  1  0  0  0  0
  6 23  1  0  0  0  0
  6 24  1  0  0  0  0
  6 25  1  0  0  0  0
  7 26  1  0  0  0  0
  7 27  1  0  0  0  0
  7 28  1  0  0  0  0
  8 29  1  0  0  0  0
  9 10  1  0  0  0  0
  9 11  1  0  0  0  0
  9 30  1  0  0  0  0
 10 31  1  0  0  0  0
 10 32  1  0  0  0  0
 10 33  1  0  0  0  0
 11 15  1  0  0  0  0
 11 12  1  0  0  0  0
 12 13  2  0  0  0  0
 12 34  1  0  0  0  0
 13 14  1  0  0  0  0
 13 35  1  0  0  0  0
 14 15  2  0  0  0  0
 14 36  1  0  0  0  0
M  END
> <s_m_source_file>
AV-unprocessed.smi

> <i_m_source_file_index>
3117

> <i_lp_mmshare_version>
43012

> <i_f3d_flags>
0

> <s_epik_input>
W0NIM11DKFtDSDNdKShbT0hdKVtDSDJdW05IXVtDQEBIXShbQ0gzXSlbQ0BIXShbQ0gzXSluMVtjSF1bY0hdW2NIXW4x

> <s_epik_cmdline>
J2VwaWtfcHl0aG9uJywgJy1waCcsICc3LjAnLCAnLXRuJywgJzgnLCAnLW1hJywgJzIwMCcsICctbWV0YWxfYmluZGluZycsICctaW1hZScsICc8aW5maWxlLm1hZT4nLCAnLW9tYWUnLCAnPG91dGZpbGUubWFlPic=

> <r_lp_tautomer_probability>
1

> <r_epik_Ionization_Penalty>
2.13419

> <r_epik_Ionization_Penalty_Charging>
0

> <r_epik_Ionization_Penalty_Neutral>
2.13419

> <r_epik_State_Penalty>
2.27148

> <r_epik_Charging_Adjusted_Penalty>
2.27148

> <i_epik_Tot_Q>
0

> <i_epik_Tot_abs_Q>
0

> <r_epik_Metal_State_Penalty>
2.27029

> <b_epik_Metal_Only>
0

> <s_lp_Force_Field>
OPLS_2005

> <r_lp_Energy>
19.9089

> <b_lp_Chiralities_Consistent>
1

> <s_lp_Variant>
AV-unprocessed.smi:3117-5

> <Gold.Version>
5.8.1

> <Gold.Id.Protein>
6NUR|6NUR_protein|mol2

> <Gold.PLP.Fitness>
38.6738

> <Gold.PLP.PLP>
-32.2437

> <Gold.PLP.part.hbond>
-2.6232

> <Gold.PLP.part.metal>
0.0000

> <Gold.PLP.part.buried>
-5.2872

> <Gold.PLP.part.nonpolar>
-24.5102

> <Gold.PLP.part.repulsive>
0.0000

> <Gold.PLP.ligand.clash>
0.0000

> <Gold.PLP.ligand.torsion>
1.1827

> <Gold.PLP.Chemscore.Hbond>
1.9015

> <Gold.PLP.Chemscore.CHOScore>
1.0000

> <Gold.PLP.Chemscore.Metal>
0.0000

> <Gold.Chemscore.Hbonds>
donor molecule, donor type, donor heavy atom, donor atom, acceptor molecule, acceptor atom, score
      L1  H     8    29       P1  7957  0.85
      P1  H  7989  7998       L1     8  0.09
      P1  H  8011  8017       L1     8  1.00
      L1  C    12    34       P1  8028  0.82

> <Gold.PLP.Chemscore.Internal.Correction>
0.0911

> <Gold.Rescore>
     Score         DG    S(hbond)    S(metal)    S(lipo)     H(rot)  DE(clash)    DE(int)     intcor
     13.25     -14.55       1.37        0.00      86.25       2.19       0.03       1.27       ----

> <Gold.Chemscore.Fitness>
13.2507

> <Gold.Chemscore.DG>
-14.5461

> <Gold.Chemscore.ZeroCoef>
-5.4800

> <Gold.Chemscore.Hbond>
1.3703

> <Gold.Chemscore.Metal>
0.0000

> <Gold.Chemscore.Lipo>
86.2499

> <Gold.Chemscore.Internal_Hbond>
0.0000

> <Gold.Chemscore.DEClash>
0.0275

> <Gold.Chemscore.DEInternal>
1.2679

> <Gold.Chemscore.Rot>
2.1882

> <Gold.Chemscore.Internal.Correction>
   9.000000E+99

> <Gold.Chemscore.Hbonds>
donor molecule, donor type, donor heavy atom, donor atom, acceptor molecule, acceptor atom, score
      L1  H     8    29       P1  7957  0.82
      P1  H  7989  7998       L1     8  0.01
      P1  H  8011  8017       L1     8  0.25

> <Gold.Chemscore.Hbond.Weighted>
-4.5767

> <Gold.Chemscore.Metal.Weighted>
-0.0000

> <Gold.Chemscore.Lipo.Weighted>
-10.0912

> <Gold.Chemscore.Internal_Hbond.Weighted>
0.0000

> <Gold.Chemscore.DEClash.Weighted>
0.0275

> <Gold.Chemscore.DEInternal.Weighted>
1.2679

> <Gold.Chemscore.Rot.Weighted>
5.6018

> <Gold.Chemscore.Internal.Correction.Weighted>
   9.000000E+99

> <Gold.Protein.RotatedTorsions>
[ 6907 6896 6895 6894 ] final  -37.79 input  -60.11 | X-H torsion
[ 7974 7965 7964 7962 ] final -126.70 input  175.53 | X-H torsion
[ 8008 7997 7996 7995 ] final -163.35 input   59.86 | X-H torsion
[ 10167 10162 10161 10158 ] final -105.37 input  -65.29 | X-H torsion
[ 10718 10713 10712 10709 ] final    0.51 input   66.30 | X-H torsion
[ 10763 10752 10751 10750 ] final   13.83 input  -60.55 | X-H torsion
[ 11005 11000 10999 10996 ] final  -65.54 input  -57.11 | X-H torsion

> <Gold.Protein.ActiveResidues>
 VAL166  LYS551  ARG553  GLY616  TRP617  ASP618  TYR619  PRO620  LYS621  CYS622 
 ASP623  PHE694  ASN695  SER759  ASP760  ASP761  ALA762  ILE779  LEU786  VAL792 
 PHE793  MET794  SER795  GLU796  ALA797  LYS798  CYS799  TRP800  GLU811  SER814 

> <Gold.Protein.RotatedAtoms>
  151.0103  134.9392  159.8003 H   0  0  0  0  0  0  0  0  0  0  0  0  # atno 6907 bound_to 6896
  152.5301  134.3037  159.9098 H   0  0  0  0  0  0  0  0  0  0  0  0  # atno 6908 bound_to 6896
  151.3043  133.4067  159.2676 H   0  0  0  0  0  0  0  0  0  0  0  0  # atno 6909 bound_to 6896
  144.9845  140.7673  143.4591 H   0  0  0  0  0  0  0  0  0  0  0  0  # atno 7974 bound_to 7965
  155.8200  140.0918  157.1854 H   0  0  0  0  0  0  0  0  0  0  0  0  # atno 8008 bound_to 7997
  154.3979  140.1438  156.3548 H   0  0  0  0  0  0  0  0  0  0  0  0  # atno 8009 bound_to 7997
  155.8276  140.3444  155.5555 H   0  0  0  0  0  0  0  0  0  0  0  0  # atno 8010 bound_to 7997
  140.1993  143.3831  152.1142 H   0  0  0  0  0  0  0  0  0  0  0  0  # atno 10167 bound_to 10162
  156.8344  130.5499  149.5683 H   0  0  0  0  0  0  0  0  0  0  0  0  # atno 10718 bound_to 10713
  153.1682  135.6808  153.8645 H   0  0  0  0  0  0  0  0  0  0  0  0  # atno 10763 bound_to 10752
  153.8018  135.3155  155.3392 H   0  0  0  0  0  0  0  0  0  0  0  0  # atno 10764 bound_to 10752
  154.7980  135.4795  154.0298 H   0  0  0  0  0  0  0  0  0  0  0  0  # atno 10765 bound_to 10752
  141.1457  133.6683  156.6002 H   0  0  0  0  0  0  0  0  0  0  0  0  # atno 11005 bound_to 11000
  145.2373  139.2088  143.5011 LP  0  0  0  0  0  0  0  0  0  0  0  0  # atno 17320 bound_to 7965
  146.3416  140.2261  142.8592 LP  0  0  0  0  0  0  0  0  0  0  0  0  # atno 17321 bound_to 7965
  139.5224  144.7058  151.5359 LP  0  0  0  0  0  0  0  0  0  0  0  0  # atno 17342 bound_to 10162
  140.6401  143.8905  150.6684 LP  0  0  0  0  0  0  0  0  0  0  0  0  # atno 17343 bound_to 10162
  156.0916  130.5900  150.9742 LP  0  0  0  0  0  0  0  0  0  0  0  0  # atno 17370 bound_to 10713
  157.6389  131.0912  150.8291 LP  0  0  0  0  0  0  0  0  0  0  0  0  # atno 17371 bound_to 10713
  140.3694  134.7618  157.4588 LP  0  0  0  0  0  0  0  0  0  0  0  0  # atno 17394 bound_to 11000
  140.0722  134.5847  155.8630 LP  0  0  0  0  0  0  0  0  0  0  0  0  # atno 17395 bound_to 11000

$$$$
