AV-unprocessed.smi:55|AV-procd|sdf|576|dock1
  -GOLD-   2262016483D 1   1.00000     0.00000
 Structure written by MMmdl.
 30 31  0  0  0  0  0  0  0  0  2 V2000
  150.8086  143.1756  158.2656 C   0  0  0  0  0  0  0  0  0  0  0  0
  151.1108  141.9562  157.4122 C   0  0  0  0  0  0  0  0  0  0  0  0
  150.4502  141.6996  156.2615 C   0  0  0  0  0  0  0  0  0  0  0  0
  150.7279  140.5868  155.4863 N   0  0  0  0  0  0  0  0  0  0  0  0
  149.9681  140.3135  154.2046 C   0  0  1  0  0  0  0  0  0  0  0  0
  149.0078  139.1370  154.3961 C   0  0  0  0  0  0  0  0  0  0  0  0
  147.7073  139.8482  154.7060 C   0  0  2  0  0  0  0  0  0  0  0  0
  146.5979  139.0377  154.3766 O   0  0  0  0  0  0  0  0  0  0  0  0
  147.8116  141.0895  153.8165 C   0  0  1  0  0  0  0  0  0  0  0  0
  146.9516  142.2681  154.2986 C   0  0  0  0  0  0  0  0  0  0  0  0
  145.5880  141.9037  154.2956 O   0  0  0  0  0  0  0  0  0  0  0  0
  149.1964  141.4331  153.8722 O   0  0  0  0  0  0  0  0  0  0  0  0
  151.7206  139.6663  155.9143 C   0  0  0  0  0  0  0  0  0  0  0  0
  151.9226  138.6685  155.2216 O   0  0  0  0  0  0  0  0  0  0  0  0
  152.3973  139.9202  157.0705 N   0  5  0  0  0  0  0  0  0  0  0  0
  152.1527  141.0167  157.8437 C   0  0  0  0  0  0  0  0  0  0  0  0
  152.7742  141.2361  158.8829 O   0  0  0  0  0  0  0  0  0  0  0  0
  150.7216  140.1499  153.4329 H   0  0  0  0  0  0  0  0  0  0  0  0
  147.6717  140.1267  155.7604 H   0  0  0  0  0  0  0  0  0  0  0  0
  147.5638  140.8175  152.7882 H   0  0  0  0  0  0  0  0  0  0  0  0
  150.0100  143.7768  157.8301 H   0  0  0  0  0  0  0  0  0  0  0  0
  151.6943  143.8051  158.3564 H   0  0  0  0  0  0  0  0  0  0  0  0
  150.4966  142.8730  159.2657 H   0  0  0  0  0  0  0  0  0  0  0  0
  149.6807  142.3874  155.9483 H   0  0  0  0  0  0  0  0  0  0  0  0
  148.9431  138.5949  153.4513 H   0  0  0  0  0  0  0  0  0  0  0  0
  149.3375  138.4485  155.1753 H   0  0  0  0  0  0  0  0  0  0  0  0
  146.7759  138.6073  153.5541 H   0  0  0  0  0  0  0  0  0  0  0  0
  147.2169  142.5311  155.3228 H   0  0  0  0  0  0  0  0  0  0  0  0
  147.1074  143.1564  153.6866 H   0  0  0  0  0  0  0  0  0  0  0  0
  145.4660  141.2158  153.6588 H   0  0  0  0  0  0  0  0  0  0  0  0
  1  2  1  0  0  0  0
  1 21  1  0  0  0  0
  1 22  1  0  0  0  0
  1 23  1  0  0  0  0
  2 16  1  0  0  0  0
  2  3  2  0  0  0  0
  3  4  1  0  0  0  0
  3 24  1  0  0  0  0
  4  5  1  0  0  0  0
  4 13  1  0  0  0  0
  5 18  1  0  0  0  0
  5 12  1  0  0  0  0
  5  6  1  0  0  0  0
  6  7  1  0  0  0  0
  6 25  1  0  0  0  0
  6 26  1  0  0  0  0
  7 19  1  0  0  0  0
  7  8  1  0  0  0  0
  7  9  1  0  0  0  0
  8 27  1  0  0  0  0
  9 20  1  0  0  0  0
  9 10  1  0  0  0  0
  9 12  1  0  0  0  0
 10 11  1  0  0  0  0
 10 28  1  0  0  0  0
 10 29  1  0  0  0  0
 11 30  1  0  0  0  0
 13 14  2  0  0  0  0
 13 15  1  0  0  0  0
 15 16  1  0  0  0  0
 16 17  2  0  0  0  0
M  CHG  1  15  -1
M  END
> <s_m_source_file>
AV-unprocessed.smi

> <i_m_source_file_index>
55

> <i_lp_mmshare_version>
43012

> <i_f3d_flags>
0

> <s_epik_input>
Tz1jMVtuSF1jKD1PKW4oW2NIXWMxW0NIM10pW0NAQEhdMltDSDJdW0NAQEhdKFtPSF0pW0NAQEhdKE8yKVtDSDJdW09IXQ==

> <s_epik_cmdline>
J2VwaWtfcHl0aG9uJywgJy1waCcsICc3LjAnLCAnLXRuJywgJzgnLCAnLW1hJywgJzIwMCcsICctbWV0YWxfYmluZGluZycsICctaW1hZScsICc8aW5maWxlLm1hZT4nLCAnLW9tYWUnLCAnPG91dGZpbGUubWFlPic=

> <r_lp_tautomer_probability>
0.999537

> <r_epik_Ionization_Penalty>
3.66603

> <r_epik_Ionization_Penalty_Charging>
1.09773e-07

> <r_epik_Ionization_Penalty_Neutral>
3.66603

> <r_epik_State_Penalty>
3.66562

> <r_epik_Charging_Adjusted_Penalty>
3.66562

> <i_epik_Tot_Q>
-1

> <i_epik_Tot_abs_Q>
1

> <r_epik_Metal_State_Penalty>
0.234536

> <b_epik_Metal_Only>
1

> <s_epik_Chemistry_Notes>
This compound contains an acetal/aminal-like group ( X-CH(R)-Y where X, Y are N, S, or O) that may be acid/base labile, releasing an aldehyde.

> <s_lp_Force_Field>
OPLS_2005

> <r_lp_Energy>
34.1834

> <b_lp_Chiralities_Consistent>
1

> <s_lp_Variant>
AV-unprocessed.smi:55-16

> <Gold.Version>
5.8.1

> <Gold.Id.Protein>
6NUR|6NUR_protein|mol2

> <Gold.PLP.Fitness>
39.6190

> <Gold.PLP.PLP>
-27.8488

> <Gold.PLP.part.hbond>
-4.0000

> <Gold.PLP.part.metal>
0.0000

> <Gold.PLP.part.buried>
-0.2442

> <Gold.PLP.part.nonpolar>
-24.3334

> <Gold.PLP.part.repulsive>
0.6258

> <Gold.PLP.ligand.clash>
0.0000

> <Gold.PLP.ligand.torsion>
0.2148

> <Gold.PLP.Chemscore.Hbond>
3.0628

> <Gold.PLP.Chemscore.CHOScore>
1.0000

> <Gold.PLP.Chemscore.Metal>
0.0000

> <Gold.Chemscore.Hbonds>
donor molecule, donor type, donor heavy atom, donor atom, acceptor molecule, acceptor atom, score
      L1  H    11    30       P1 10175  0.30
      P1  H  7997  8010       L1    15  2.00
      P1  H  8011  8017       L1    12  0.75
      L1  C     3    24       P1  8028  1.00

> <Gold.PLP.Chemscore.Internal.Correction>
0.0113

> <Gold.Rescore>
     Score         DG    S(hbond)    S(metal)    S(lipo)     H(rot)  DE(clash)    DE(int)     intcor
      6.83      -7.74       1.24        0.00      42.70       2.69       0.53       0.38       ----

> <Gold.Chemscore.Fitness>
6.8319

> <Gold.Chemscore.DG>
-7.7429

> <Gold.Chemscore.ZeroCoef>
-5.4800

> <Gold.Chemscore.Hbond>
1.2413

> <Gold.Chemscore.Metal>
0.0000

> <Gold.Chemscore.Lipo>
42.7012

> <Gold.Chemscore.Internal_Hbond>
0.0000

> <Gold.Chemscore.DEClash>
0.5270

> <Gold.Chemscore.DEInternal>
0.3840

> <Gold.Chemscore.Rot>
2.6871

> <Gold.Chemscore.Internal.Correction>
   9.000000E+99

> <Gold.Chemscore.Hbonds>
donor molecule, donor type, donor heavy atom, donor atom, acceptor molecule, acceptor atom, score
      L1  H    11    30       P1 10175  0.15
      P1  H  7997  8010       L1    15  0.23
      P1  H  8011  8017       L1    12  0.58

> <Gold.Chemscore.Hbond.Weighted>
-4.1459

> <Gold.Chemscore.Metal.Weighted>
-0.0000

> <Gold.Chemscore.Lipo.Weighted>
-4.9960

> <Gold.Chemscore.Internal_Hbond.Weighted>
0.0000

> <Gold.Chemscore.DEClash.Weighted>
0.5270

> <Gold.Chemscore.DEInternal.Weighted>
0.3840

> <Gold.Chemscore.Rot.Weighted>
6.8791

> <Gold.Chemscore.Internal.Correction.Weighted>
   9.000000E+99

> <Gold.Protein.RotatedTorsions>
[ 6907 6896 6895 6894 ] final -178.13 input  -60.11 | X-H torsion
[ 7974 7965 7964 7962 ] final -149.91 input  175.53 | X-H torsion
[ 8008 7997 7996 7995 ] final   65.98 input   59.86 | X-H torsion
[ 10167 10162 10161 10158 ] final  166.86 input  -65.29 | X-H torsion
[ 10718 10713 10712 10709 ] final   58.01 input   66.30 | X-H torsion
[ 10763 10752 10751 10750 ] final -133.16 input  -60.55 | X-H torsion
[ 11005 11000 10999 10996 ] final  122.31 input  -57.11 | X-H torsion

> <Gold.Protein.ActiveResidues>
 VAL166  LYS551  ARG553  GLY616  TRP617  ASP618  TYR619  PRO620  LYS621  CYS622 
 ASP623  PHE694  ASN695  SER759  ASP760  ASP761  ALA762  ILE779  LEU786  VAL792 
 PHE793  MET794  SER795  GLU796  ALA797  LYS798  CYS799  TRP800  GLU811  SER814 

> <Gold.Protein.RotatedAtoms>
  151.6322  133.3331  159.3111 H   0  0  0  0  0  0  0  0  0  0  0  0  # atno 6907 bound_to 6896
  150.8050  134.7174  159.6648 H   0  0  0  0  0  0  0  0  0  0  0  0  # atno 6908 bound_to 6896
  152.4145  134.6070  160.0067 H   0  0  0  0  0  0  0  0  0  0  0  0  # atno 6909 bound_to 6896
  144.7939  140.5002  143.5754 H   0  0  0  0  0  0  0  0  0  0  0  0  # atno 7974 bound_to 7965
  155.6703  140.3497  155.4816 H   0  0  0  0  0  0  0  0  0  0  0  0  # atno 8008 bound_to 7997
  155.9694  140.1153  157.0849 H   0  0  0  0  0  0  0  0  0  0  0  0  # atno 8009 bound_to 7997
  154.4162  140.1160  156.5272 H   0  0  0  0  0  0  0  0  0  0  0  0  # atno 8010 bound_to 7997
  139.4933  144.3983  151.9439 H   0  0  0  0  0  0  0  0  0  0  0  0  # atno 10167 bound_to 10162
  157.5561  130.8801  149.9038 H   0  0  0  0  0  0  0  0  0  0  0  0  # atno 10718 bound_to 10713
  154.8735  135.3775  154.4528 H   0  0  0  0  0  0  0  0  0  0  0  0  # atno 10763 bound_to 10752
  153.5202  135.7029  153.5740 H   0  0  0  0  0  0  0  0  0  0  0  0  # atno 10764 bound_to 10752
  153.3990  135.3953  155.1941 H   0  0  0  0  0  0  0  0  0  0  0  0  # atno 10765 bound_to 10752
  139.9263  134.9641  156.8090 H   0  0  0  0  0  0  0  0  0  0  0  0  # atno 11005 bound_to 11000
  145.5724  139.1484  143.3281 LP  0  0  0  0  0  0  0  0  0  0  0  0  # atno 17320 bound_to 7965
  146.2200  140.5857  142.9021 LP  0  0  0  0  0  0  0  0  0  0  0  0  # atno 17321 bound_to 7965
  140.3421  144.3190  150.5965 LP  0  0  0  0  0  0  0  0  0  0  0  0  # atno 17342 bound_to 10162
  140.5557  143.2199  151.7852 LP  0  0  0  0  0  0  0  0  0  0  0  0  # atno 17343 bound_to 10162
  156.0620  130.3698  150.0961 LP  0  0  0  0  0  0  0  0  0  0  0  0  # atno 17370 bound_to 10713
  156.9130  130.9658  151.3560 LP  0  0  0  0  0  0  0  0  0  0  0  0  # atno 17371 bound_to 10713
  140.6328  133.9890  155.7670 LP  0  0  0  0  0  0  0  0  0  0  0  0  # atno 17394 bound_to 11000
  141.0822  134.0045  157.3368 LP  0  0  0  0  0  0  0  0  0  0  0  0  # atno 17395 bound_to 11000

$$$$
