AV-unprocessed.smi:226|AV-procd|sdf|1726|dock8
  -GOLD-   2262020213D 1   1.00000     0.00000
 Structure written by MMmdl.
 54 58  0  0  0  0  0  0  0  0  1 V2000
  152.8980  140.2347  158.4041 O   0  0  0  0  0  0  0  0  0  0  0  0
  152.0602  141.0381  158.8137 C   0  0  0  0  0  0  0  0  0  0  0  0
  152.3321  141.9558  159.7562 N   0  0  0  0  0  0  0  0  0  0  0  0
  153.5879  142.1413  160.4052 C   0  0  0  0  0  0  0  0  0  0  0  0
  154.1358  140.9849  161.2130 C   0  0  0  0  0  0  0  0  0  0  0  0
  153.5905  142.1966  161.9174 C   0  0  0  0  0  0  0  0  0  0  0  0
  150.6366  141.0116  158.2154 C   0  0  1  0  0  0  0  0  0  0  0  0
  150.3470  142.2632  157.3688 C   0  0  0  0  0  0  0  0  0  0  0  0
  150.7496  141.8583  155.9517 C   0  0  0  0  0  0  0  0  0  0  0  0
  150.3687  140.3787  155.8896 C   0  0  0  0  0  0  0  0  0  0  0  0
  150.4044  139.9135  157.2696 N   0  0  0  0  0  0  0  0  0  0  0  0
  150.1149  138.6363  157.6430 C   0  0  0  0  0  0  0  0  0  0  0  0
  149.9398  138.3771  158.9660 N   0  0  0  0  0  0  0  0  0  0  0  0
  149.6643  137.1418  159.3902 C   0  0  0  0  0  0  0  0  0  0  0  0
  149.5262  136.0274  158.6728 N   0  0  0  0  0  0  0  0  0  0  0  0
  149.7027  136.2706  157.3431 C   0  0  0  0  0  0  0  0  0  0  0  0
  149.9893  137.5331  156.7451 C   0  0  0  0  0  0  0  0  0  0  0  0
  150.0807  137.3786  155.3655 N   0  0  0  0  0  0  0  0  0  0  0  0
  149.8576  136.1097  155.1622 C   0  0  0  0  0  0  0  0  0  0  0  0
  149.6544  135.3628  156.2990 N   0  0  0  0  0  0  0  0  0  0  0  0
  149.3544  133.9617  156.3619 C   0  0  0  0  0  0  0  0  0  0  0  0
  150.2268  132.9331  155.6363 C   0  0  0  0  0  0  0  0  0  0  0  0
  148.9773  132.0914  155.2963 C   0  0  0  0  0  0  0  0  0  0  0  0
  148.8912  131.6114  153.8394 C   0  0  0  0  0  0  0  0  0  0  0  0
  148.6704  132.6898  152.9532 O   0  0  0  0  0  0  0  0  0  0  0  0
  148.6847  130.8689  156.1947 C   0  0  0  0  0  0  0  0  0  0  0  0
  148.7616  131.1579  157.5756 O   0  0  0  0  0  0  0  0  0  0  0  0
  148.1655  133.3716  155.5962 C   0  0  0  0  0  0  0  0  0  0  0  0
  151.5852  142.5779  160.0290 H   0  0  0  0  0  0  0  0  0  0  0  0
  154.3264  142.7627  159.9006 H   0  0  0  0  0  0  0  0  0  0  0  0
  153.5473  140.0702  161.2562 H   0  0  0  0  0  0  0  0  0  0  0  0
  155.2150  140.8442  161.2186 H   0  0  0  0  0  0  0  0  0  0  0  0
  154.3047  142.8659  162.3928 H   0  0  0  0  0  0  0  0  0  0  0  0
  152.6360  142.0944  162.4307 H   0  0  0  0  0  0  0  0  0  0  0  0
  149.9231  140.9710  159.0398 H   0  0  0  0  0  0  0  0  0  0  0  0
  149.2786  142.4822  157.3954 H   0  0  0  0  0  0  0  0  0  0  0  0
  150.8687  143.1582  157.7107 H   0  0  0  0  0  0  0  0  0  0  0  0
  150.2613  142.4552  155.1810 H   0  0  0  0  0  0  0  0  0  0  0  0
  151.8280  141.9697  155.8311 H   0  0  0  0  0  0  0  0  0  0  0  0
  149.3594  140.2590  155.4934 H   0  0  0  0  0  0  0  0  0  0  0  0
  151.0621  139.8256  155.2556 H   0  0  0  0  0  0  0  0  0  0  0  0
  149.5398  137.0308  160.4573 H   0  0  0  0  0  0  0  0  0  0  0  0
  149.8438  135.6812  154.1706 H   0  0  0  0  0  0  0  0  0  0  0  0
  149.2851  133.7232  157.4239 H   0  0  0  0  0  0  0  0  0  0  0  0
  150.7087  133.3521  154.7511 H   0  0  0  0  0  0  0  0  0  0  0  0
  150.9556  132.4335  156.2754 H   0  0  0  0  0  0  0  0  0  0  0  0
  149.8009  131.0890  153.5411 H   0  0  0  0  0  0  0  0  0  0  0  0
  148.0724  130.9030  153.7094 H   0  0  0  0  0  0  0  0  0  0  0  0
  148.6997  132.3609  152.0675 H   0  0  0  0  0  0  0  0  0  0  0  0
  147.6882  130.4733  155.9956 H   0  0  0  0  0  0  0  0  0  0  0  0
  149.3869  130.0595  155.9934 H   0  0  0  0  0  0  0  0  0  0  0  0
  148.6475  130.3529  158.0574 H   0  0  0  0  0  0  0  0  0  0  0  0
  147.2729  133.2180  156.2036 H   0  0  0  0  0  0  0  0  0  0  0  0
  147.9276  133.9422  154.6968 H   0  0  0  0  0  0  0  0  0  0  0  0
  1  2  2  0  0  0  0
  2  3  1  0  0  0  0
  2  7  1  0  0  0  0
  3  4  1  0  0  0  0
  3 29  1  0  0  0  0
  4  6  1  0  0  0  0
  4  5  1  0  0  0  0
  4 30  1  0  0  0  0
  5  6  1  0  0  0  0
  5 31  1  0  0  0  0
  5 32  1  0  0  0  0
  6 33  1  0  0  0  0
  6 34  1  0  0  0  0
  7 11  1  0  0  0  0
  7  8  1  0  0  0  0
  7 35  1  0  0  0  0
  8  9  1  0  0  0  0
  8 36  1  0  0  0  0
  8 37  1  0  0  0  0
  9 10  1  0  0  0  0
  9 38  1  0  0  0  0
  9 39  1  0  0  0  0
 10 11  1  0  0  0  0
 10 40  1  0  0  0  0
 10 41  1  0  0  0  0
 11 12  1  0  0  0  0
 12 17  1  0  0  0  0
 12 13  2  0  0  0  0
 13 14  1  0  0  0  0
 14 15  2  0  0  0  0
 14 42  1  0  0  0  0
 15 16  1  0  0  0  0
 16 20  1  0  0  0  0
 16 17  2  0  0  0  0
 17 18  1  0  0  0  0
 18 19  2  0  0  0  0
 19 20  1  0  0  0  0
 19 43  1  0  0  0  0
 20 21  1  0  0  0  0
 21 28  1  0  0  0  0
 21 22  1  0  0  0  0
 21 44  1  0  0  0  0
 22 23  1  0  0  0  0
 22 45  1  0  0  0  0
 22 46  1  0  0  0  0
 23 24  1  0  0  0  0
 23 26  1  0  0  0  0
 23 28  1  0  0  0  0
 24 25  1  0  0  0  0
 24 47  1  0  0  0  0
 24 48  1  0  0  0  0
 25 49  1  0  0  0  0
 26 27  1  0  0  0  0
 26 50  1  0  0  0  0
 26 51  1  0  0  0  0
 27 52  1  0  0  0  0
 28 53  1  0  0  0  0
 28 54  1  0  0  0  0
M  END
> <s_m_source_file>
AV-unprocessed.smi

> <i_m_source_file_index>
226

> <i_lp_mmshare_version>
43012

> <i_f3d_flags>
0

> <s_epik_input>
W0NIMl0xW0NIMl1bQ0hdMVtOSF1DKD1PKVtDQEBIXTJbQ0gyXVtDSDJdW0NIMl1OMmMobltjSF1uMyljKGMzNCluW2NIXW40W0NIXShbQ0gyXTUpW0NIMl1DNShbQ0gyXVtPSF0pW0NIMl1bT0hd

> <s_epik_cmdline>
J2VwaWtfcHl0aG9uJywgJy1waCcsICc3LjAnLCAnLXRuJywgJzgnLCAnLW1hJywgJzIwMCcsICctbWV0YWxfYmluZGluZycsICctaW1hZScsICc8aW5maWxlLm1hZT4nLCAnLW9tYWUnLCAnPG91dGZpbGUubWFlPic=

> <r_lp_tautomer_probability>
1

> <r_epik_Ionization_Penalty>
0.000818715

> <r_epik_Ionization_Penalty_Charging>
0

> <r_epik_Ionization_Penalty_Neutral>
0.000818715

> <r_epik_State_Penalty>
0.000426447

> <r_epik_Charging_Adjusted_Penalty>
0.000426447

> <i_epik_Tot_Q>
0

> <i_epik_Tot_abs_Q>
0

> <r_epik_Metal_State_Penalty>
-0

> <b_epik_Metal_Only>
0

> <s_lp_Force_Field>
OPLS_2005

> <r_lp_Energy>
62.928

> <b_lp_Chiralities_Consistent>
1

> <s_lp_Variant>
AV-unprocessed.smi:226-2

> <Gold.Version>
5.8.1

> <Gold.Id.Protein>
6NUR|6NUR_protein|mol2

> <Gold.PLP.Fitness>
47.9558

> <Gold.PLP.PLP>
-37.9928

> <Gold.PLP.part.hbond>
-3.0000

> <Gold.PLP.part.metal>
0.0000

> <Gold.PLP.part.buried>
-5.3382

> <Gold.PLP.part.nonpolar>
-30.0300

> <Gold.PLP.part.repulsive>
0.2292

> <Gold.PLP.ligand.clash>
0.0000

> <Gold.PLP.ligand.torsion>
0.6678

> <Gold.PLP.Chemscore.Hbond>
2.8037

> <Gold.PLP.Chemscore.CHOScore>
0.7726

> <Gold.PLP.Chemscore.Metal>
0.0000

> <Gold.Chemscore.Hbonds>
donor molecule, donor type, donor heavy atom, donor atom, acceptor molecule, acceptor atom, score
      L1  H    25    49       P1 10747  0.23
      P1  H  6896  6908       L1    15  0.81
      P1  H  7997  8008       L1     1  0.59
      L1  C    19    43       P1  7948  0.92

> <Gold.PLP.Chemscore.Internal.Correction>
0.5695

> <Gold.Rescore>
     Score         DG    S(hbond)    S(metal)    S(lipo)     H(rot)  DE(clash)    DE(int)     intcor
     12.95     -14.54       2.46        0.00      84.17       3.52       0.18       1.40       ----

> <Gold.Chemscore.Fitness>
12.9536

> <Gold.Chemscore.DG>
-14.5350

> <Gold.Chemscore.ZeroCoef>
-5.4800

> <Gold.Chemscore.Hbond>
2.4640

> <Gold.Chemscore.Metal>
0.0000

> <Gold.Chemscore.Lipo>
84.1687

> <Gold.Chemscore.Internal_Hbond>
0.0000

> <Gold.Chemscore.DEClash>
0.1837

> <Gold.Chemscore.DEInternal>
1.3977

> <Gold.Chemscore.Rot>
3.5244

> <Gold.Chemscore.Internal.Correction>
   9.000000E+99

> <Gold.Chemscore.Hbonds>
donor molecule, donor type, donor heavy atom, donor atom, acceptor molecule, acceptor atom, score
      L1  H    25    49       P1 10747  0.24
      P1  H  6896  6908       L1    15  0.56
      P1  H  7997  8008       L1     1  0.56

> <Gold.Chemscore.Hbond.Weighted>
-8.2299

> <Gold.Chemscore.Metal.Weighted>
-0.0000

> <Gold.Chemscore.Lipo.Weighted>
-9.8477

> <Gold.Chemscore.Internal_Hbond.Weighted>
0.0000

> <Gold.Chemscore.DEClash.Weighted>
0.1837

> <Gold.Chemscore.DEInternal.Weighted>
1.3977

> <Gold.Chemscore.Rot.Weighted>
9.0225

> <Gold.Chemscore.Internal.Correction.Weighted>
   9.000000E+99

> <Gold.Protein.RotatedTorsions>
[ 6907 6896 6895 6894 ] final  160.18 input  -60.11 | X-H torsion
[ 7974 7965 7964 7962 ] final    6.05 input  175.53 | X-H torsion
[ 8008 7997 7996 7995 ] final  -80.32 input   59.86 | X-H torsion
[ 10167 10162 10161 10158 ] final  139.76 input  -65.29 | X-H torsion
[ 10718 10713 10712 10709 ] final -169.70 input   66.30 | X-H torsion
[ 10763 10752 10751 10750 ] final  163.28 input  -60.55 | X-H torsion
[ 11005 11000 10999 10996 ] final  -63.87 input  -57.11 | X-H torsion

> <Gold.Protein.ActiveResidues>
 VAL166  LYS551  ARG553  GLY616  TRP617  ASP618  TYR619  PRO620  LYS621  CYS622 
 ASP623  PHE694  ASN695  SER759  ASP760  ASP761  ALA762  ILE779  LEU786  VAL792 
 PHE793  MET794  SER795  GLU796  ALA797  LYS798  CYS799  TRP800  GLU811  SER814 

> <Gold.Protein.RotatedAtoms>
  151.9745  133.3737  159.4083 H   0  0  0  0  0  0  0  0  0  0  0  0  # atno 6907 bound_to 6896
  150.6944  134.4105  159.5169 H   0  0  0  0  0  0  0  0  0  0  0  0  # atno 6908 bound_to 6896
  152.1814  134.8751  160.0577 H   0  0  0  0  0  0  0  0  0  0  0  0  # atno 6909 bound_to 6896
  146.2437  140.0292  142.8391 H   0  0  0  0  0  0  0  0  0  0  0  0  # atno 7974 bound_to 7965
  154.5872  140.0665  156.9187 H   0  0  0  0  0  0  0  0  0  0  0  0  # atno 8008 bound_to 7997
  155.2359  140.3341  155.4279 H   0  0  0  0  0  0  0  0  0  0  0  0  # atno 8009 bound_to 7997
  156.2231  140.1807  156.7414 H   0  0  0  0  0  0  0  0  0  0  0  0  # atno 8010 bound_to 7997
  139.5069  144.6275  151.5899 H   0  0  0  0  0  0  0  0  0  0  0  0  # atno 10167 bound_to 10162
  156.7154  130.9249  151.3093 H   0  0  0  0  0  0  0  0  0  0  0  0  # atno 10718 bound_to 10713
  154.2912  135.2761  155.2654 H   0  0  0  0  0  0  0  0  0  0  0  0  # atno 10763 bound_to 10752
  154.5132  135.5777  153.6624 H   0  0  0  0  0  0  0  0  0  0  0  0  # atno 10764 bound_to 10752
  152.9914  135.6186  154.3077 H   0  0  0  0  0  0  0  0  0  0  0  0  # atno 10765 bound_to 10752
  141.1407  133.6658  156.5746 H   0  0  0  0  0  0  0  0  0  0  0  0  # atno 11005 bound_to 11000
  145.1170  140.9440  143.4622 LP  0  0  0  0  0  0  0  0  0  0  0  0  # atno 17320 bound_to 7965
  145.0519  139.3175  143.5924 LP  0  0  0  0  0  0  0  0  0  0  0  0  # atno 17321 bound_to 7965
  140.5997  143.9631  150.6378 LP  0  0  0  0  0  0  0  0  0  0  0  0  # atno 17342 bound_to 10162
  140.2839  143.3370  152.1125 LP  0  0  0  0  0  0  0  0  0  0  0  0  # atno 17343 bound_to 10162
  157.6919  130.9242  150.0538 LP  0  0  0  0  0  0  0  0  0  0  0  0  # atno 17370 bound_to 10713
  156.1632  130.3644  149.9270 LP  0  0  0  0  0  0  0  0  0  0  0  0  # atno 17371 bound_to 10713
  140.3885  134.7461  157.4707 LP  0  0  0  0  0  0  0  0  0  0  0  0  # atno 17394 bound_to 11000
  140.0584  134.6031  155.8778 LP  0  0  0  0  0  0  0  0  0  0  0  0  # atno 17395 bound_to 11000

$$$$
