AV-unprocessed.smi:2424|AV-procd|sdf|9560|dock8
  -GOLD-   2272013193D 1   1.00000     0.00000
 Structure written by MMmdl.
 50 51  0  0  0  0  0  0  0  0  1 V2000
  150.2038  138.9238  154.4230 C   0  0  0  0  0  0  0  0  0  0  0  0
  149.1109  139.4898  155.3436 C   0  0  0  0  0  0  0  0  0  0  0  0
  147.6658  139.3607  154.8091 C   0  0  0  0  0  0  0  0  0  0  0  0
  147.5752  140.0606  153.4271 C   0  0  0  0  0  0  0  0  0  0  0  0
  147.6352  141.5967  153.4636 C   0  0  0  0  0  0  0  0  0  0  0  0
  147.0673  137.9312  154.9063 C   0  0  2  0  0  0  0  0  0  0  0  0
  146.9985  137.2167  153.6341 N   0  0  0  0  0  0  0  0  0  0  0  0
  146.1074  136.2637  153.3305 C   0  0  0  0  0  0  0  0  0  0  0  0
  145.2200  135.8989  154.1005 O   0  0  0  0  0  0  0  0  0  0  0  0
  146.3259  135.7843  152.0926 N   0  0  0  0  0  0  0  0  0  0  0  0
  145.6553  134.7615  151.4076 C   0  0  0  0  0  0  0  0  0  0  0  0
  144.6358  135.1112  150.6043 C   0  0  0  0  0  0  0  0  0  0  0  0
  143.9124  134.1600  149.8813 N   0  0  0  0  0  0  0  0  0  0  0  0
  144.1602  132.8310  149.9133 C   0  0  0  0  0  0  0  0  0  0  0  0
  143.4762  132.0539  149.2496 O   0  0  0  0  0  0  0  0  0  0  0  0
  145.2785  132.4164  150.7760 C   0  0  0  0  0  0  0  0  0  0  0  0
  145.6159  130.9374  150.8441 C   0  0  0  0  0  0  0  0  0  0  0  0
  145.9774  133.3394  151.4770 C   0  0  0  0  0  0  0  0  0  0  0  0
  145.7189  138.5348  155.3080 C   0  0  1  0  0  0  0  0  0  0  0  0
  144.8054  137.7826  156.2677 C   0  0  0  0  0  0  0  0  0  0  0  0
  146.5239  139.7504  155.7953 C   0  0  1  0  0  0  0  0  0  0  0  0
  146.8645  139.6052  157.1694 O   0  0  0  0  0  0  0  0  0  0  0  0
  147.6006  140.7059  157.6759 C   0  0  0  0  0  0  0  0  0  0  0  0
  143.1566  134.4993  149.3040 H   0  0  0  0  0  0  0  0  0  0  0  0
  151.1763  138.9739  154.9127 H   0  0  0  0  0  0  0  0  0  0  0  0
  150.2860  139.4824  153.4915 H   0  0  0  0  0  0  0  0  0  0  0  0
  150.0177  137.8792  154.1776 H   0  0  0  0  0  0  0  0  0  0  0  0
  149.1972  138.9587  156.2916 H   0  0  0  0  0  0  0  0  0  0  0  0
  149.3477  140.5246  155.5860 H   0  0  0  0  0  0  0  0  0  0  0  0
  148.3475  139.6926  152.7523 H   0  0  0  0  0  0  0  0  0  0  0  0
  146.6395  139.7928  152.9368 H   0  0  0  0  0  0  0  0  0  0  0  0
  147.4446  142.0075  152.4720 H   0  0  0  0  0  0  0  0  0  0  0  0
  148.6150  141.9583  153.7741 H   0  0  0  0  0  0  0  0  0  0  0  0
  146.8900  142.0151  154.1399 H   0  0  0  0  0  0  0  0  0  0  0  0
  147.5020  137.3569  155.7280 H   0  0  0  0  0  0  0  0  0  0  0  0
  147.6908  137.4589  152.9407 H   0  0  0  0  0  0  0  0  0  0  0  0
  147.0801  136.2130  151.5766 H   0  0  0  0  0  0  0  0  0  0  0  0
  144.2958  136.1259  150.4558 H   0  0  0  0  0  0  0  0  0  0  0  0
  146.4641  130.7512  151.5036 H   0  0  0  0  0  0  0  0  0  0  0  0
  145.8699  130.5586  149.8536 H   0  0  0  0  0  0  0  0  0  0  0  0
  144.7648  130.3697  151.2216 H   0  0  0  0  0  0  0  0  0  0  0  0
  146.7935  132.9852  152.0847 H   0  0  0  0  0  0  0  0  0  0  0  0
  145.1588  138.8255  154.4174 H   0  0  0  0  0  0  0  0  0  0  0  0
  145.3495  137.4179  157.1392 H   0  0  0  0  0  0  0  0  0  0  0  0
  144.3533  136.9188  155.7805 H   0  0  0  0  0  0  0  0  0  0  0  0
  143.9978  138.4214  156.6255 H   0  0  0  0  0  0  0  0  0  0  0  0
  146.0144  140.6895  155.5727 H   0  0  0  0  0  0  0  0  0  0  0  0
  147.8768  140.5155  158.7128 H   0  0  0  0  0  0  0  0  0  0  0  0
  147.0037  141.6181  157.6498 H   0  0  0  0  0  0  0  0  0  0  0  0
  148.5161  140.8747  157.1088 H   0  0  0  0  0  0  0  0  0  0  0  0
  1  2  1  0  0  0  0
  1 25  1  0  0  0  0
  1 26  1  0  0  0  0
  1 27  1  0  0  0  0
  2  3  1  0  0  0  0
  2 28  1  0  0  0  0
  2 29  1  0  0  0  0
  3 21  1  0  0  0  0
  3  4  1  0  0  0  0
  3  6  1  0  0  0  0
  4  5  1  0  0  0  0
  4 30  1  0  0  0  0
  4 31  1  0  0  0  0
  5 32  1  0  0  0  0
  5 33  1  0  0  0  0
  5 34  1  0  0  0  0
  6  7  1  0  0  0  0
  6 19  1  0  0  0  0
  6 35  1  0  0  0  0
  7  8  1  0  0  0  0
  7 36  1  0  0  0  0
  8  9  2  0  0  0  0
  8 10  1  0  0  0  0
 10 11  1  0  0  0  0
 10 37  1  0  0  0  0
 11 18  1  0  0  0  0
 11 12  2  0  0  0  0
 12 13  1  0  0  0  0
 12 38  1  0  0  0  0
 13 24  1  0  0  0  0
 13 14  1  0  0  0  0
 14 15  2  0  0  0  0
 14 16  1  0  0  0  0
 16 17  1  0  0  0  0
 16 18  2  0  0  0  0
 17 39  1  0  0  0  0
 17 40  1  0  0  0  0
 17 41  1  0  0  0  0
 18 42  1  0  0  0  0
 19 20  1  0  0  0  0
 19 21  1  0  0  0  0
 19 43  1  0  0  0  0
 20 44  1  0  0  0  0
 20 45  1  0  0  0  0
 20 46  1  0  0  0  0
 21 22  1  0  0  0  0
 21 47  1  0  0  0  0
 22 23  1  0  0  0  0
 23 48  1  0  0  0  0
 23 49  1  0  0  0  0
 23 50  1  0  0  0  0
M  END
> <s_m_source_file>
AV-unprocessed.smi

> <i_m_source_file_index>
2424

> <i_lp_mmshare_version>
43012

> <i_f3d_flags>
0

> <s_epik_input>
W0NIM11PW0NAQEhdMVtDQEhdKFtDSDNdKVtDQEBIXShDMShbQ0gyXVtDSDNdKVtDSDJdW0NIM10pW05IXUMoPU8pW05IXWMyW2NIXVtuSF1jKD1PKWMoW0NIM10pW2NIXTI=

> <s_epik_cmdline>
J2VwaWtfcHl0aG9uJywgJy1waCcsICc3LjAnLCAnLXRuJywgJzgnLCAnLW1hJywgJzIwMCcsICctbWV0YWxfYmluZGluZycsICctaW1hZScsICc8aW5maWxlLm1hZT4nLCAnLW9tYWUnLCAnPG91dGZpbGUubWFlPic=

> <r_lp_tautomer_probability>
1

> <r_epik_Ionization_Penalty>
4.7326e-05

> <r_epik_Ionization_Penalty_Charging>
2.70169e-05

> <r_epik_Ionization_Penalty_Neutral>
2.0309e-05

> <r_epik_State_Penalty>
-0

> <r_epik_Charging_Adjusted_Penalty>
2.70169e-05

> <i_epik_Tot_Q>
0

> <i_epik_Tot_abs_Q>
0

> <r_epik_Metal_State_Penalty>
0.0198736

> <b_epik_Metal_Only>
0

> <s_lp_Force_Field>
OPLS_2005

> <r_lp_Energy>
37.5965

> <b_lp_Chiralities_Consistent>
1

> <s_lp_Variant>
AV-unprocessed.smi:2424-2

> <Gold.Version>
5.8.1

> <Gold.Id.Protein>
6NUR|6NUR_protein|mol2

> <Gold.PLP.Fitness>
38.8057

> <Gold.PLP.PLP>
-29.6519

> <Gold.PLP.part.hbond>
-4.3669

> <Gold.PLP.part.metal>
0.0000

> <Gold.PLP.part.buried>
-5.3882

> <Gold.PLP.part.nonpolar>
-21.1701

> <Gold.PLP.part.repulsive>
0.3893

> <Gold.PLP.ligand.clash>
0.0000

> <Gold.PLP.ligand.torsion>
1.3093

> <Gold.PLP.Chemscore.Hbond>
2.6884

> <Gold.PLP.Chemscore.CHOScore>
1.0000

> <Gold.PLP.Chemscore.Metal>
0.0000

> <Gold.Chemscore.Hbonds>
donor molecule, donor type, donor heavy atom, donor atom, acceptor molecule, acceptor atom, score
      L1  H     7    36       P1  7948  0.56
      L1  H    10    37       P1  7948  0.66
      L1  H    13    24       P1 10186  0.46
      P1  H 10785 10796       L1    15  0.98
      L1  C    12    38       P1 10171  0.92

> <Gold.PLP.Chemscore.Internal.Correction>
0.7072

> <Gold.Rescore>
     Score         DG    S(hbond)    S(metal)    S(lipo)     H(rot)  DE(clash)    DE(int)     intcor
     16.42     -20.54       3.32        0.00      67.90       1.55       0.47       3.65       ----

> <Gold.Chemscore.Fitness>
16.4199

> <Gold.Chemscore.DG>
-20.5410

> <Gold.Chemscore.ZeroCoef>
-5.4800

> <Gold.Chemscore.Hbond>
3.3190

> <Gold.Chemscore.Metal>
0.0000

> <Gold.Chemscore.Lipo>
67.8986

> <Gold.Chemscore.Internal_Hbond>
0.0000

> <Gold.Chemscore.DEClash>
0.4732

> <Gold.Chemscore.DEInternal>
3.6479

> <Gold.Chemscore.Rot>
1.5502

> <Gold.Chemscore.Internal.Correction>
   9.000000E+99

> <Gold.Chemscore.Hbonds>
donor molecule, donor type, donor heavy atom, donor atom, acceptor molecule, acceptor atom, score
      L1  H     7    36       P1  7948  0.53
      L1  H    10    37       P1  7948  0.66
      L1  H    13    24       P1 10186  0.45
      P1  H 10785 10796       L1    15  0.90

> <Gold.Chemscore.Hbond.Weighted>
-11.0853

> <Gold.Chemscore.Metal.Weighted>
-0.0000

> <Gold.Chemscore.Lipo.Weighted>
-7.9441

> <Gold.Chemscore.Internal_Hbond.Weighted>
0.0000

> <Gold.Chemscore.DEClash.Weighted>
0.4732

> <Gold.Chemscore.DEInternal.Weighted>
3.6479

> <Gold.Chemscore.Rot.Weighted>
3.9685

> <Gold.Chemscore.Internal.Correction.Weighted>
   9.000000E+99

> <Gold.Protein.RotatedTorsions>
[ 6907 6896 6895 6894 ] final -149.68 input  -60.11 | X-H torsion
[ 7974 7965 7964 7962 ] final -154.59 input  175.53 | X-H torsion
[ 8008 7997 7996 7995 ] final   31.41 input   59.86 | X-H torsion
[ 10167 10162 10161 10158 ] final  -11.55 input  -65.29 | X-H torsion
[ 10718 10713 10712 10709 ] final  -37.81 input   66.30 | X-H torsion
[ 10763 10752 10751 10750 ] final   -4.80 input  -60.55 | X-H torsion
[ 11005 11000 10999 10996 ] final  -64.69 input  -57.11 | X-H torsion

> <Gold.Protein.ActiveResidues>
 VAL166  LYS551  ARG553  GLY616  TRP617  ASP618  TYR619  PRO620  LYS621  CYS622 
 ASP623  PHE694  ASN695  SER759  ASP760  ASP761  ALA762  ILE779  LEU786  VAL792 
 PHE793  MET794  SER795  GLU796  ALA797  LYS798  CYS799  TRP800  GLU811  SER814 

> <Gold.Protein.RotatedAtoms>
  151.1876  133.4687  159.2594 H   0  0  0  0  0  0  0  0  0  0  0  0  # atno 6907 bound_to 6896
  151.1196  135.0072  159.8542 H   0  0  0  0  0  0  0  0  0  0  0  0  # atno 6908 bound_to 6896
  152.5455  134.1788  159.8680 H   0  0  0  0  0  0  0  0  0  0  0  0  # atno 6909 bound_to 6896
  144.7682  140.4367  143.5927 H   0  0  0  0  0  0  0  0  0  0  0  0  # atno 7974 bound_to 7965
  155.1060  140.3234  155.4534 H   0  0  0  0  0  0  0  0  0  0  0  0  # atno 8008 bound_to 7997
  156.2704  140.2052  156.6132 H   0  0  0  0  0  0  0  0  0  0  0  0  # atno 8009 bound_to 7997
  154.6792  140.0528  157.0235 H   0  0  0  0  0  0  0  0  0  0  0  0  # atno 8010 bound_to 7997
  140.7141  143.5628  150.9177 H   0  0  0  0  0  0  0  0  0  0  0  0  # atno 10167 bound_to 10162
  156.3109  130.4252  149.8051 H   0  0  0  0  0  0  0  0  0  0  0  0  # atno 10718 bound_to 10713
  153.3897  135.7001  153.6504 H   0  0  0  0  0  0  0  0  0  0  0  0  # atno 10763 bound_to 10752
  153.5081  135.3638  155.2573 H   0  0  0  0  0  0  0  0  0  0  0  0  # atno 10764 bound_to 10752
  154.8701  135.4128  154.3212 H   0  0  0  0  0  0  0  0  0  0  0  0  # atno 10765 bound_to 10752
  141.1432  133.6669  156.5872 H   0  0  0  0  0  0  0  0  0  0  0  0  # atno 11005 bound_to 11000
  145.6406  139.1549  143.2918 LP  0  0  0  0  0  0  0  0  0  0  0  0  # atno 17320 bound_to 7965
  146.1807  140.6502  142.9191 LP  0  0  0  0  0  0  0  0  0  0  0  0  # atno 17321 bound_to 7965
  139.9353  143.6445  152.3067 LP  0  0  0  0  0  0  0  0  0  0  0  0  # atno 17342 bound_to 10162
  139.6910  144.7647  151.1438 LP  0  0  0  0  0  0  0  0  0  0  0  0  # atno 17343 bound_to 10162
  156.5394  130.8293  151.3264 LP  0  0  0  0  0  0  0  0  0  0  0  0  # atno 17370 bound_to 10713
  157.7391  130.9825  150.2291 LP  0  0  0  0  0  0  0  0  0  0  0  0  # atno 17371 bound_to 10713
  140.3792  134.7538  157.4650 LP  0  0  0  0  0  0  0  0  0  0  0  0  # atno 17394 bound_to 11000
  140.0651  134.5941  155.8705 LP  0  0  0  0  0  0  0  0  0  0  0  0  # atno 17395 bound_to 11000

$$$$
