AV-unprocessed.smi:215|AV-procd|sdf|1653|dock6
  -GOLD-   2262020 43D 1   1.00000     0.00000
 Structure written by MMmdl.
 59 62  0  0  0  0  0  0  0  0  2 V2000
  146.3782  133.7996  151.0884 C   0  0  0  0  0  0  0  0  0  0  0  0
  145.2903  132.9993  151.8435 C   0  0  1  0  0  0  0  0  0  0  0  0
  143.9701  132.8446  151.0583 C   0  0  1  0  0  0  0  0  0  0  0  0
  143.4764  134.0970  150.4107 N   0  3  2  0  0  0  0  0  0  0  0  0
  143.9508  134.2185  149.0077 C   0  0  0  0  0  0  0  0  0  0  0  0
  143.7567  135.3354  151.1911 C   0  0  0  0  0  0  0  0  0  0  0  0
  143.1938  135.2686  152.6217 C   0  0  0  0  0  0  0  0  0  0  0  0
  142.6623  136.5233  152.9928 O   0  0  0  0  0  0  0  0  0  0  0  0
  144.2991  131.6795  150.1077 C   0  0  0  0  0  0  0  0  0  0  0  0
  145.2595  130.7967  150.9158 C   0  0  0  0  0  0  0  0  0  0  0  0
  145.7026  131.6163  152.0386 N   0  0  0  0  0  0  0  0  0  0  0  0
  146.7189  131.2273  152.8563 C   0  0  0  0  0  0  0  0  0  0  0  0
  147.0439  129.9077  152.8882 N   0  0  0  0  0  0  0  0  0  0  0  0
  148.0327  129.4667  153.6699 C   0  0  0  0  0  0  0  0  0  0  0  0
  148.8151  130.1626  154.4944 N   0  0  0  0  0  0  0  0  0  0  0  0
  148.4933  131.4876  154.4816 C   0  0  0  0  0  0  0  0  0  0  0  0
  147.4669  132.1002  153.7037 C   0  0  0  0  0  0  0  0  0  0  0  0
  147.4344  133.4640  153.9754 N   0  0  0  0  0  0  0  0  0  0  0  0
  148.3831  133.6461  154.8514 C   0  0  0  0  0  0  0  0  0  0  0  0
  149.0775  132.5128  155.2065 N   0  0  0  0  0  0  0  0  0  0  0  0
  150.1560  132.4280  156.1503 C   0  0  0  0  0  0  0  0  0  0  0  0
  150.8532  131.0952  156.4238 C   0  0  0  0  0  0  0  0  0  0  0  0
  151.0882  131.5280  157.8887 C   0  0  0  0  0  0  0  0  0  0  0  0
  150.8554  130.4298  158.9396 C   0  0  0  0  0  0  0  0  0  0  0  0
  151.8456  129.4248  158.8574 O   0  0  0  0  0  0  0  0  0  0  0  0
  152.4444  132.2095  158.1611 C   0  0  0  0  0  0  0  0  0  0  0  0
  152.4469  132.8773  159.4069 O   0  0  0  0  0  0  0  0  0  0  0  0
  149.9015  132.4921  157.6578 C   0  0  0  0  0  0  0  0  0  0  0  0
  145.0760  133.4691  152.8022 H   0  0  0  0  0  0  0  0  0  0  0  0
  143.1985  132.4986  151.7497 H   0  0  0  0  0  0  0  0  0  0  0  0
  146.0776  134.8330  150.9198 H   0  0  0  0  0  0  0  0  0  0  0  0
  146.6075  133.3612  150.1172 H   0  0  0  0  0  0  0  0  0  0  0  0
  147.3092  133.8321  151.6545 H   0  0  0  0  0  0  0  0  0  0  0  0
  145.0379  134.2983  148.9716 H   0  0  0  0  0  0  0  0  0  0  0  0
  143.5334  135.0953  148.5151 H   0  0  0  0  0  0  0  0  0  0  0  0
  143.6604  133.3591  148.4048 H   0  0  0  0  0  0  0  0  0  0  0  0
  144.8245  135.5278  151.2764 H   0  0  0  0  0  0  0  0  0  0  0  0
  143.3436  136.1959  150.6626 H   0  0  0  0  0  0  0  0  0  0  0  0
  142.3910  134.5323  152.6697 H   0  0  0  0  0  0  0  0  0  0  0  0
  143.9430  134.9589  153.3489 H   0  0  0  0  0  0  0  0  0  0  0  0
  142.9495  137.1723  152.3681 H   0  0  0  0  0  0  0  0  0  0  0  0
  143.4169  131.1213  149.7936 H   0  0  0  0  0  0  0  0  0  0  0  0
  144.8014  132.0462  149.2114 H   0  0  0  0  0  0  0  0  0  0  0  0
  144.7434  129.9154  151.2984 H   0  0  0  0  0  0  0  0  0  0  0  0
  146.0973  130.4643  150.3014 H   0  0  0  0  0  0  0  0  0  0  0  0
  148.2248  128.4044  153.6278 H   0  0  0  0  0  0  0  0  0  0  0  0
  148.6009  134.6195  155.2665 H   0  0  0  0  0  0  0  0  0  0  0  0
  150.8880  133.1855  155.8658 H   0  0  0  0  0  0  0  0  0  0  0  0
  150.1781  130.2418  156.3355 H   0  0  0  0  0  0  0  0  0  0  0  0
  151.7614  130.9340  155.8420 H   0  0  0  0  0  0  0  0  0  0  0  0
  150.8442  130.8362  159.9513 H   0  0  0  0  0  0  0  0  0  0  0  0
  149.8859  129.9528  158.7923 H   0  0  0  0  0  0  0  0  0  0  0  0
  152.6878  129.8410  158.7547 H   0  0  0  0  0  0  0  0  0  0  0  0
  153.2631  131.4896  158.1478 H   0  0  0  0  0  0  0  0  0  0  0  0
  152.6779  132.9444  157.3905 H   0  0  0  0  0  0  0  0  0  0  0  0
  153.2962  132.7646  159.8058 H   0  0  0  0  0  0  0  0  0  0  0  0
  150.0224  133.4861  158.0895 H   0  0  0  0  0  0  0  0  0  0  0  0
  148.9419  132.0604  157.9469 H   0  0  0  0  0  0  0  0  0  0  0  0
  142.4701  134.0118  150.3780 H   0  0  0  0  0  0  0  0  0  0  0  0
  1  2  1  0  0  0  0
  1 31  1  0  0  0  0
  1 32  1  0  0  0  0
  1 33  1  0  0  0  0
  2 29  1  0  0  0  0
  2 11  1  0  0  0  0
  2  3  1  0  0  0  0
  3 30  1  0  0  0  0
  3  4  1  0  0  0  0
  3  9  1  0  0  0  0
  4  5  1  0  0  0  0
  4  6  1  0  0  0  0
  4 59  1  0  0  0  0
  5 34  1  0  0  0  0
  5 35  1  0  0  0  0
  5 36  1  0  0  0  0
  6  7  1  0  0  0  0
  6 37  1  0  0  0  0
  6 38  1  0  0  0  0
  7  8  1  0  0  0  0
  7 39  1  0  0  0  0
  7 40  1  0  0  0  0
  8 41  1  0  0  0  0
  9 10  1  0  0  0  0
  9 42  1  0  0  0  0
  9 43  1  0  0  0  0
 10 11  1  0  0  0  0
 10 44  1  0  0  0  0
 10 45  1  0  0  0  0
 11 12  1  0  0  0  0
 12 17  1  0  0  0  0
 12 13  2  0  0  0  0
 13 14  1  0  0  0  0
 14 15  2  0  0  0  0
 14 46  1  0  0  0  0
 15 16  1  0  0  0  0
 16 20  1  0  0  0  0
 16 17  2  0  0  0  0
 17 18  1  0  0  0  0
 18 19  2  0  0  0  0
 19 20  1  0  0  0  0
 19 47  1  0  0  0  0
 20 21  1  0  0  0  0
 21 28  1  0  0  0  0
 21 22  1  0  0  0  0
 21 48  1  0  0  0  0
 22 23  1  0  0  0  0
 22 49  1  0  0  0  0
 22 50  1  0  0  0  0
 23 24  1  0  0  0  0
 23 26  1  0  0  0  0
 23 28  1  0  0  0  0
 24 25  1  0  0  0  0
 24 51  1  0  0  0  0
 24 52  1  0  0  0  0
 25 53  1  0  0  0  0
 26 27  1  0  0  0  0
 26 54  1  0  0  0  0
 26 55  1  0  0  0  0
 27 56  1  0  0  0  0
 28 57  1  0  0  0  0
 28 58  1  0  0  0  0
M  CHG  1   4   1
M  END
> <s_m_source_file>
AV-unprocessed.smi

> <i_m_source_file_index>
215

> <i_lp_mmshare_version>
43012

> <i_f3d_flags>
0

> <s_epik_input>
W09IXVtDSDJdW0NIMl1OKFtDSDNdKVtDQEBIXShbQ0BIXTFbQ0gzXSlbQ0gyXVtDSDJdTjFjKG5bY0hdbjIpYyhjMjMpbltjSF1uM1tDSF0oW0NIMl00KVtDSDJdQzQoW0NIMl1bT0hdKVtDSDJdW09IXQ==

> <s_epik_cmdline>
J2VwaWtfcHl0aG9uJywgJy1waCcsICc3LjAnLCAnLXRuJywgJzgnLCAnLW1hJywgJzIwMCcsICctbWV0YWxfYmluZGluZycsICctaW1hZScsICc8aW5maWxlLm1hZT4nLCAnLW9tYWUnLCAnPG91dGZpbGUubWFlPic=

> <r_lp_tautomer_probability>
1

> <r_epik_Ionization_Penalty>
0.0036237

> <r_epik_Ionization_Penalty_Charging>
0.0032725

> <r_epik_Ionization_Penalty_Neutral>
0.000351196

> <r_epik_State_Penalty>
-0

> <r_epik_Charging_Adjusted_Penalty>
0.0032725

> <i_epik_Tot_Q>
1

> <i_epik_Tot_abs_Q>
1

> <r_epik_Metal_State_Penalty>
-0

> <b_epik_Metal_Only>
0

> <s_lp_Force_Field>
OPLS_2005

> <r_lp_Energy>
66.6502

> <b_lp_Chiralities_Consistent>
1

> <s_lp_Variant>
AV-unprocessed.smi:215-4

> <Gold.Version>
5.8.1

> <Gold.Id.Protein>
6NUR|6NUR_protein|mol2

> <Gold.PLP.Fitness>
53.3955

> <Gold.PLP.PLP>
-43.2950

> <Gold.PLP.part.hbond>
-3.0000

> <Gold.PLP.part.metal>
0.0000

> <Gold.PLP.part.buried>
-1.6063

> <Gold.PLP.part.nonpolar>
-38.9222

> <Gold.PLP.part.repulsive>
0.3773

> <Gold.PLP.ligand.clash>
0.0000

> <Gold.PLP.ligand.torsion>
1.4651

> <Gold.PLP.Chemscore.Hbond>
3.9920

> <Gold.PLP.Chemscore.CHOScore>
0.0881

> <Gold.PLP.Chemscore.Metal>
0.0000

> <Gold.Chemscore.Hbonds>
donor molecule, donor type, donor heavy atom, donor atom, acceptor molecule, acceptor atom, score
      L1  H     4    59       P1 10186  1.89

> <Gold.PLP.Chemscore.Internal.Correction>
0.7904

> <Gold.Rescore>
     Score         DG    S(hbond)    S(metal)    S(lipo)     H(rot)  DE(clash)    DE(int)     intcor
      5.02     -10.48       1.84        0.00      88.33       4.48       1.48       3.98       ----

> <Gold.Chemscore.Fitness>
5.0159

> <Gold.Chemscore.DG>
-10.4787

> <Gold.Chemscore.ZeroCoef>
-5.4800

> <Gold.Chemscore.Hbond>
1.8352

> <Gold.Chemscore.Metal>
0.0000

> <Gold.Chemscore.Lipo>
88.3302

> <Gold.Chemscore.Internal_Hbond>
0.0000

> <Gold.Chemscore.DEClash>
1.4778

> <Gold.Chemscore.DEInternal>
3.9850

> <Gold.Chemscore.Rot>
4.4787

> <Gold.Chemscore.Internal.Correction>
   9.000000E+99

> <Gold.Chemscore.Hbonds>
donor molecule, donor type, donor heavy atom, donor atom, acceptor molecule, acceptor atom, score
      L1  H     4    59       P1 10186  0.82

> <Gold.Chemscore.Hbond.Weighted>
-6.1296

> <Gold.Chemscore.Metal.Weighted>
-0.0000

> <Gold.Chemscore.Lipo.Weighted>
-10.3346

> <Gold.Chemscore.Internal_Hbond.Weighted>
0.0000

> <Gold.Chemscore.DEClash.Weighted>
1.4778

> <Gold.Chemscore.DEInternal.Weighted>
3.9850

> <Gold.Chemscore.Rot.Weighted>
11.4655

> <Gold.Chemscore.Internal.Correction.Weighted>
   9.000000E+99

> <Gold.Protein.RotatedTorsions>
[ 6907 6896 6895 6894 ] final  127.15 input  -60.11 | X-H torsion
[ 7974 7965 7964 7962 ] final  -19.14 input  175.53 | X-H torsion
[ 8008 7997 7996 7995 ] final -152.85 input   59.86 | X-H torsion
[ 10167 10162 10161 10158 ] final  147.49 input  -65.29 | X-H torsion
[ 10718 10713 10712 10709 ] final  124.75 input   66.30 | X-H torsion
[ 10763 10752 10751 10750 ] final  -15.74 input  -60.55 | X-H torsion
[ 11005 11000 10999 10996 ] final   22.30 input  -57.11 | X-H torsion

> <Gold.Protein.ActiveResidues>
 VAL166  LYS551  ARG553  GLY616  TRP617  ASP618  TYR619  PRO620  LYS621  CYS622 
 ASP623  PHE694  ASN695  SER759  ASP760  ASP761  ALA762  ILE779  LEU786  VAL792 
 PHE793  MET794  SER795  GLU796  ALA797  LYS798  CYS799  TRP800  GLU811  SER814 

> <Gold.Protein.RotatedAtoms>
  152.3839  133.6583  159.6182 H   0  0  0  0  0  0  0  0  0  0  0  0  # atno 6907 bound_to 6896
  150.7763  133.9068  159.3366 H   0  0  0  0  0  0  0  0  0  0  0  0  # atno 6908 bound_to 6896
  151.6869  135.0954  160.0277 H   0  0  0  0  0  0  0  0  0  0  0  0  # atno 6909 bound_to 6896
  146.1856  140.4020  142.8477 H   0  0  0  0  0  0  0  0  0  0  0  0  # atno 7974 bound_to 7965
  155.6616  140.0723  157.2552 H   0  0  0  0  0  0  0  0  0  0  0  0  # atno 8008 bound_to 7997
  154.4141  140.1715  156.1833 H   0  0  0  0  0  0  0  0  0  0  0  0  # atno 8009 bound_to 7997
  155.9692  140.3363  155.6564 H   0  0  0  0  0  0  0  0  0  0  0  0  # atno 8010 bound_to 7997
  139.4889  144.5752  151.6980 H   0  0  0  0  0  0  0  0  0  0  0  0  # atno 10167 bound_to 10162
  157.5560  131.1092  150.8621 H   0  0  0  0  0  0  0  0  0  0  0  0  # atno 10718 bound_to 10713
  153.5480  135.7012  153.5605 H   0  0  0  0  0  0  0  0  0  0  0  0  # atno 10763 bound_to 10752
  153.3542  135.3987  155.1669 H   0  0  0  0  0  0  0  0  0  0  0  0  # atno 10764 bound_to 10752
  154.8665  135.3773  154.4989 H   0  0  0  0  0  0  0  0  0  0  0  0  # atno 10765 bound_to 10752
  140.3821  134.1910  155.7663 H   0  0  0  0  0  0  0  0  0  0  0  0  # atno 11005 bound_to 11000
  144.8392  140.6830  143.6240 LP  0  0  0  0  0  0  0  0  0  0  0  0  # atno 17320 bound_to 7965
  145.3947  139.1609  143.4210 LP  0  0  0  0  0  0  0  0  0  0  0  0  # atno 17321 bound_to 7965
  140.5346  144.0676  150.6066 LP  0  0  0  0  0  0  0  0  0  0  0  0  # atno 17342 bound_to 10162
  140.3677  143.2872  152.0313 LP  0  0  0  0  0  0  0  0  0  0  0  0  # atno 17343 bound_to 10162
  156.9133  130.5288  149.5280 LP  0  0  0  0  0  0  0  0  0  0  0  0  # atno 17370 bound_to 10713
  156.0619  130.5670  150.9209 LP  0  0  0  0  0  0  0  0  0  0  0  0  # atno 17371 bound_to 10713
  141.1920  133.8183  157.0857 LP  0  0  0  0  0  0  0  0  0  0  0  0  # atno 17394 bound_to 11000
  140.0471  134.9825  157.1068 LP  0  0  0  0  0  0  0  0  0  0  0  0  # atno 17395 bound_to 11000

$$$$
