AV-unprocessed.smi:1336|AV-procd|sdf|5497|dock3
  -GOLD-   22720 5 73D 1   1.00000     0.00000
 Structure written by MMmdl.
 43 43  0  0  0  0  0  0  0  0  1 V2000
  150.5929  145.1643  159.8793 C   0  0  0  0  0  0  0  0  0  0  0  0
  151.8660  144.8065  159.1053 C   0  0  0  0  0  0  0  0  0  0  0  0
  151.6114  144.6505  157.5973 C   0  0  0  0  0  0  0  0  0  0  0  0
  150.8026  143.4725  157.3074 N   0  0  0  0  0  0  0  0  0  0  0  0
  151.0553  142.2334  157.7559 C   0  0  0  0  0  0  0  0  0  0  0  0
  152.0256  141.9565  158.4634 O   0  0  0  0  0  0  0  0  0  0  0  0
  150.0663  141.1394  157.3204 C   0  0  1  0  0  0  0  0  0  0  0  0
  150.3048  140.8440  155.8303 C   0  0  0  0  0  0  0  0  0  0  0  0
  150.2962  139.9045  158.0693 N   0  0  0  0  0  0  0  0  0  0  0  0
  151.4522  139.2215  158.1013 C   0  0  0  0  0  0  0  0  0  0  0  0
  152.4634  139.5787  157.4958 O   0  0  0  0  0  0  0  0  0  0  0  0
  151.4661  137.9396  158.9385 C   0  0  0  0  0  0  0  0  0  0  0  0
  150.1344  137.2498  158.8697 C   0  0  0  0  0  0  0  0  0  0  0  0
  149.4658  136.8574  157.7363 C   0  0  0  0  0  0  0  0  0  0  0  0
  147.9456  136.0926  158.1099 S   0  0  0  0  0  0  0  0  0  0  0  0
  148.2797  136.3302  159.8219 C   0  0  0  0  0  0  0  0  0  0  0  0
  147.3457  135.8988  160.9086 C   0  0  0  0  0  0  0  0  0  0  0  0
  145.9896  136.6141  160.8207 C   0  0  0  0  0  0  0  0  0  0  0  0
  147.9902  136.0007  162.2985 C   0  0  0  0  0  0  0  0  0  0  0  0
  149.4491  136.9360  160.0478 N   0  0  0  0  0  0  0  0  0  0  0  0
  150.8026  145.2726  160.9436 H   0  0  0  0  0  0  0  0  0  0  0  0
  149.8336  144.3898  159.7668 H   0  0  0  0  0  0  0  0  0  0  0  0
  150.1682  146.1044  159.5262 H   0  0  0  0  0  0  0  0  0  0  0  0
  152.6172  145.5792  159.2725 H   0  0  0  0  0  0  0  0  0  0  0  0
  152.2794  143.8819  159.5097 H   0  0  0  0  0  0  0  0  0  0  0  0
  151.1301  145.5436  157.1951 H   0  0  0  0  0  0  0  0  0  0  0  0
  152.5597  144.5457  157.0695 H   0  0  0  0  0  0  0  0  0  0  0  0
  149.9852  143.6108  156.7308 H   0  0  0  0  0  0  0  0  0  0  0  0
  149.0382  141.4769  157.4666 H   0  0  0  0  0  0  0  0  0  0  0  0
  150.1355  141.7312  155.2187 H   0  0  0  0  0  0  0  0  0  0  0  0
  149.6242  140.0704  155.4730 H   0  0  0  0  0  0  0  0  0  0  0  0
  151.3228  140.4993  155.6414 H   0  0  0  0  0  0  0  0  0  0  0  0
  149.5123  139.5349  158.5870 H   0  0  0  0  0  0  0  0  0  0  0  0
  152.2564  137.2722  158.5918 H   0  0  0  0  0  0  0  0  0  0  0  0
  151.7153  138.2010  159.9676 H   0  0  0  0  0  0  0  0  0  0  0  0
  149.7726  136.9751  156.7077 H   0  0  0  0  0  0  0  0  0  0  0  0
  147.1462  134.8400  160.7393 H   0  0  0  0  0  0  0  0  0  0  0  0
  145.5233  136.4525  159.8483 H   0  0  0  0  0  0  0  0  0  0  0  0
  146.0991  137.6897  160.9631 H   0  0  0  0  0  0  0  0  0  0  0  0
  145.3016  136.2464  161.5822 H   0  0  0  0  0  0  0  0  0  0  0  0
  148.9061  135.4114  162.3506 H   0  0  0  0  0  0  0  0  0  0  0  0
  147.3158  135.6322  163.0721 H   0  0  0  0  0  0  0  0  0  0  0  0
  148.2429  137.0328  162.5435 H   0  0  0  0  0  0  0  0  0  0  0  0
  1  2  1  0  0  0  0
  1 21  1  0  0  0  0
  1 22  1  0  0  0  0
  1 23  1  0  0  0  0
  2  3  1  0  0  0  0
  2 24  1  0  0  0  0
  2 25  1  0  0  0  0
  3  4  1  0  0  0  0
  3 26  1  0  0  0  0
  3 27  1  0  0  0  0
  4  5  1  0  0  0  0
  4 28  1  0  0  0  0
  5  6  2  0  0  0  0
  5  7  1  0  0  0  0
  7  8  1  0  0  0  0
  7  9  1  0  0  0  0
  7 29  1  0  0  0  0
  8 30  1  0  0  0  0
  8 31  1  0  0  0  0
  8 32  1  0  0  0  0
  9 10  1  0  0  0  0
  9 33  1  0  0  0  0
 10 11  2  0  0  0  0
 10 12  1  0  0  0  0
 12 13  1  0  0  0  0
 12 34  1  0  0  0  0
 12 35  1  0  0  0  0
 13 20  1  0  0  0  0
 13 14  2  0  0  0  0
 14 15  1  0  0  0  0
 14 36  1  0  0  0  0
 15 16  1  0  0  0  0
 16 17  1  0  0  0  0
 16 20  2  0  0  0  0
 17 18  1  0  0  0  0
 17 19  1  0  0  0  0
 17 37  1  0  0  0  0
 18 38  1  0  0  0  0
 18 39  1  0  0  0  0
 18 40  1  0  0  0  0
 19 41  1  0  0  0  0
 19 42  1  0  0  0  0
 19 43  1  0  0  0  0
M  END
> <s_m_source_file>
AV-unprocessed.smi

> <i_m_source_file_index>
1336

> <i_lp_mmshare_version>
43012

> <i_f3d_flags>
0

> <s_epik_input>
W0NIM11bQ0gyXVtDSDJdW05IXUMoPU8pW0NASF0oW0NIM10pW05IXUMoPU8pW0NIMl1jMVtjSF1zYyhuMSlbQ0hdKFtDSDNdKVtDSDNd

> <s_epik_cmdline>
J2VwaWtfcHl0aG9uJywgJy1waCcsICc3LjAnLCAnLXRuJywgJzgnLCAnLW1hJywgJzIwMCcsICctbWV0YWxfYmluZGluZycsICctaW1hZScsICc8aW5maWxlLm1hZT4nLCAnLW9tYWUnLCAnPG91dGZpbGUubWFlPic=

> <r_lp_tautomer_probability>
1

> <r_epik_Ionization_Penalty>
3.10785e-05

> <r_epik_Ionization_Penalty_Charging>
0

> <r_epik_Ionization_Penalty_Neutral>
3.10785e-05

> <r_epik_State_Penalty>
-0

> <r_epik_Charging_Adjusted_Penalty>
0

> <i_epik_Tot_Q>
0

> <i_epik_Tot_abs_Q>
0

> <r_epik_Metal_State_Penalty>
-0

> <b_epik_Metal_Only>
0

> <s_lp_Force_Field>
OPLS_2005

> <r_lp_Energy>
-5.85781

> <b_lp_Chiralities_Consistent>
1

> <s_lp_Variant>
AV-unprocessed.smi:1336-2

> <Gold.Version>
5.8.1

> <Gold.Id.Protein>
6NUR|6NUR_protein|mol2

> <Gold.PLP.Fitness>
45.0673

> <Gold.PLP.PLP>
-39.2600

> <Gold.PLP.part.hbond>
-2.9969

> <Gold.PLP.part.metal>
0.0000

> <Gold.PLP.part.buried>
-7.0129

> <Gold.PLP.part.nonpolar>
-30.0121

> <Gold.PLP.part.repulsive>
0.1476

> <Gold.PLP.ligand.clash>
0.0000

> <Gold.PLP.ligand.torsion>
0.8037

> <Gold.PLP.Chemscore.Hbond>
2.3983

> <Gold.PLP.Chemscore.CHOScore>
0.0000

> <Gold.PLP.Chemscore.Metal>
0.0000

> <Gold.Chemscore.Hbonds>
donor molecule, donor type, donor heavy atom, donor atom, acceptor molecule, acceptor atom, score
      L1  H     4    28       P1  8028  0.99
      P1  H  6931  6943       L1    20  0.17
      P1  H  7997  8008       L1    11  0.70

> <Gold.PLP.Chemscore.Internal.Correction>
0.2199

> <Gold.Rescore>
     Score         DG    S(hbond)    S(metal)    S(lipo)     H(rot)  DE(clash)    DE(int)     intcor
     11.43     -16.75       1.95        0.00      85.14       2.04       0.03       5.28       ----

> <Gold.Chemscore.Fitness>
11.4335

> <Gold.Chemscore.DG>
-16.7453

> <Gold.Chemscore.ZeroCoef>
-5.4800

> <Gold.Chemscore.Hbond>
1.9504

> <Gold.Chemscore.Metal>
0.0000

> <Gold.Chemscore.Lipo>
85.1400

> <Gold.Chemscore.Internal_Hbond>
0.0000

> <Gold.Chemscore.DEClash>
0.0310

> <Gold.Chemscore.DEInternal>
5.2809

> <Gold.Chemscore.Rot>
2.0353

> <Gold.Chemscore.Internal.Correction>
   9.000000E+99

> <Gold.Chemscore.Hbonds>
donor molecule, donor type, donor heavy atom, donor atom, acceptor molecule, acceptor atom, score
      L1  H     4    28       P1  8028  0.94
      P1  H  6931  6943       L1    20  0.09
      P1  H  7997  8008       L1    11  0.69

> <Gold.Chemscore.Hbond.Weighted>
-6.5143

> <Gold.Chemscore.Metal.Weighted>
-0.0000

> <Gold.Chemscore.Lipo.Weighted>
-9.9614

> <Gold.Chemscore.Internal_Hbond.Weighted>
0.0000

> <Gold.Chemscore.DEClash.Weighted>
0.0310

> <Gold.Chemscore.DEInternal.Weighted>
5.2809

> <Gold.Chemscore.Rot.Weighted>
5.2104

> <Gold.Chemscore.Internal.Correction.Weighted>
   9.000000E+99

> <Gold.Protein.RotatedTorsions>
[ 6907 6896 6895 6894 ] final   58.22 input  -60.11 | X-H torsion
[ 7974 7965 7964 7962 ] final  -43.42 input  175.53 | X-H torsion
[ 8008 7997 7996 7995 ] final  -71.42 input   59.86 | X-H torsion
[ 10167 10162 10161 10158 ] final -112.16 input  -65.29 | X-H torsion
[ 10718 10713 10712 10709 ] final -101.72 input   66.30 | X-H torsion
[ 10763 10752 10751 10750 ] final  -70.95 input  -60.55 | X-H torsion
[ 11005 11000 10999 10996 ] final   61.18 input  -57.11 | X-H torsion

> <Gold.Protein.ActiveResidues>
 VAL166  LYS551  ARG553  GLY616  TRP617  ASP618  TYR619  PRO620  LYS621  CYS622 
 ASP623  PHE694  ASN695  SER759  ASP760  ASP761  ALA762  ILE779  LEU786  VAL792 
 PHE793  MET794  SER795  GLU796  ALA797  LYS798  CYS799  TRP800  GLU811  SER814 

> <Gold.Protein.RotatedAtoms>
  152.3804  134.6599  160.0144 H   0  0  0  0  0  0  0  0  0  0  0  0  # atno 6907 bound_to 6896
  151.6864  133.3306  159.3240 H   0  0  0  0  0  0  0  0  0  0  0  0  # atno 6908 bound_to 6896
  150.7743  134.6672  159.6417 H   0  0  0  0  0  0  0  0  0  0  0  0  # atno 6909 bound_to 6896
  146.0021  140.7062  142.9265 H   0  0  0  0  0  0  0  0  0  0  0  0  # atno 7974 bound_to 7965
  154.5087  140.0816  156.7946 H   0  0  0  0  0  0  0  0  0  0  0  0  # atno 8008 bound_to 7997
  155.3835  140.3429  155.4229 H   0  0  0  0  0  0  0  0  0  0  0  0  # atno 8009 bound_to 7997
  156.1547  140.1569  156.8700 H   0  0  0  0  0  0  0  0  0  0  0  0  # atno 8010 bound_to 7997
  140.1257  143.4404  152.1661 H   0  0  0  0  0  0  0  0  0  0  0  0  # atno 10167 bound_to 10162
  156.0204  130.5387  150.7004 H   0  0  0  0  0  0  0  0  0  0  0  0  # atno 10718 bound_to 10713
  154.4248  135.5978  153.6032 H   0  0  0  0  0  0  0  0  0  0  0  0  # atno 10763 bound_to 10752
  152.9795  135.5961  154.3910 H   0  0  0  0  0  0  0  0  0  0  0  0  # atno 10764 bound_to 10752
  154.3741  135.2841  155.2228 H   0  0  0  0  0  0  0  0  0  0  0  0  # atno 10765 bound_to 10752
  140.0179  134.6196  155.9682 H   0  0  0  0  0  0  0  0  0  0  0  0  # atno 11005 bound_to 11000
  144.6923  140.3251  143.7226 LP  0  0  0  0  0  0  0  0  0  0  0  0  # atno 17320 bound_to 7965
  145.7472  139.1782  143.2342 LP  0  0  0  0  0  0  0  0  0  0  0  0  # atno 17321 bound_to 7965
  139.5545  144.7363  151.4334 LP  0  0  0  0  0  0  0  0  0  0  0  0  # atno 17342 bound_to 10162
  140.6846  143.8003  150.7168 LP  0  0  0  0  0  0  0  0  0  0  0  0  # atno 17343 bound_to 10162
  157.4666  131.0889  151.0688 LP  0  0  0  0  0  0  0  0  0  0  0  0  # atno 17370 bound_to 10713
  157.1161  130.6042  149.5493 LP  0  0  0  0  0  0  0  0  0  0  0  0  # atno 17371 bound_to 10713
  141.1755  133.6540  156.4812 LP  0  0  0  0  0  0  0  0  0  0  0  0  # atno 17394 bound_to 11000
  140.4438  134.6991  157.5005 LP  0  0  0  0  0  0  0  0  0  0  0  0  # atno 17395 bound_to 11000

$$$$
