AV-unprocessed.smi:2226|AV-procd|sdf|9017|dock5
  -GOLD-   2272012223D 1   1.00000     0.00000
 Structure written by MMmdl.
 39 41  0  0  0  0  0  0  0  0  3 V2000
  147.0946  140.0429  152.1778 C   0  0  0  0  0  0  0  0  0  0  0  0
  146.4892  140.5872  153.4166 N   0  3  2  0  0  0  0  0  0  0  0  0
  147.0652  141.8722  153.8794 C   0  0  2  0  0  0  0  0  0  0  0  0
  148.5049  141.6846  154.4213 C   0  0  0  0  0  0  0  0  0  0  0  0
  148.6443  140.5664  155.4703 C   0  0  0  0  0  0  0  0  0  0  0  0
  147.8146  139.3177  155.1223 C   0  0  0  0  0  0  0  0  0  0  0  0
  146.4114  139.6289  154.5444 C   0  0  1  0  0  0  0  0  0  0  0  0
  145.3743  140.1413  155.5698 C   0  0  0  0  0  0  0  0  0  0  0  0
  145.5056  141.6363  155.9736 C   0  0  1  0  0  0  0  0  0  0  0  0
  146.2216  141.8283  157.2323 N   0  0  0  0  0  0  0  0  0  0  0  0
  145.7284  142.3583  158.3612 C   0  0  0  0  0  0  0  0  0  0  0  0
  144.5615  142.7553  158.3967 O   0  0  0  0  0  0  0  0  0  0  0  0
  146.6172  142.3857  159.3787 N   0  5  0  0  0  0  0  0  0  0  0  0
  146.8245  143.5287  160.0523 C   0  0  0  0  0  0  0  0  0  0  0  0
  146.3503  144.7338  159.7316 N   0  0  0  0  0  0  0  0  0  0  0  0
  146.8246  145.5989  160.7055 C   0  0  0  0  0  0  0  0  0  0  0  0
  147.5822  144.8704  161.5811 C   0  0  0  0  0  0  0  0  0  0  0  0
  147.5923  143.5637  161.1782 O   0  0  0  0  0  0  0  0  0  0  0  0
  146.0724  142.5469  154.8548 C   0  0  0  0  0  0  0  0  0  0  0  0
  148.1439  139.7805  152.3103 H   0  0  0  0  0  0  0  0  0  0  0  0
  147.0284  140.7736  151.3714 H   0  0  0  0  0  0  0  0  0  0  0  0
  146.5614  139.1482  151.8555 H   0  0  0  0  0  0  0  0  0  0  0  0
  147.1365  142.5334  153.0147 H   0  0  0  0  0  0  0  0  0  0  0  0
  149.1652  141.4524  153.5855 H   0  0  0  0  0  0  0  0  0  0  0  0
  148.8782  142.6235  154.8314 H   0  0  0  0  0  0  0  0  0  0  0  0
  149.6942  140.2886  155.5671 H   0  0  0  0  0  0  0  0  0  0  0  0
  148.3745  140.9344  156.4542 H   0  0  0  0  0  0  0  0  0  0  0  0
  148.3711  138.7300  154.3919 H   0  0  0  0  0  0  0  0  0  0  0  0
  147.7260  138.6774  156.0006 H   0  0  0  0  0  0  0  0  0  0  0  0
  146.0142  138.6904  154.1548 H   0  0  0  0  0  0  0  0  0  0  0  0
  144.3910  140.0215  155.1130 H   0  0  0  0  0  0  0  0  0  0  0  0
  145.3560  139.4912  156.4452 H   0  0  0  0  0  0  0  0  0  0  0  0
  144.4961  142.0014  156.1728 H   0  0  0  0  0  0  0  0  0  0  0  0
  147.1844  141.5252  157.2563 H   0  0  0  0  0  0  0  0  0  0  0  0
  146.5893  146.6528  160.6980 H   0  0  0  0  0  0  0  0  0  0  0  0
  148.1403  145.1091  162.4739 H   0  0  0  0  0  0  0  0  0  0  0  0
  146.5048  143.4565  155.2743 H   0  0  0  0  0  0  0  0  0  0  0  0
  145.2241  142.8872  154.2591 H   0  0  0  0  0  0  0  0  0  0  0  0
  145.5322  140.7914  153.1664 H   0  0  0  0  0  0  0  0  0  0  0  0
  1  2  1  0  0  0  0
  1 20  1  0  0  0  0
  1 21  1  0  0  0  0
  1 22  1  0  0  0  0
  2  7  1  0  0  0  0
  2  3  1  0  0  0  0
  2 39  1  0  0  0  0
  3 19  1  0  0  0  0
  3  4  1  0  0  0  0
  3 23  1  0  0  0  0
  4  5  1  0  0  0  0
  4 24  1  0  0  0  0
  4 25  1  0  0  0  0
  5  6  1  0  0  0  0
  5 26  1  0  0  0  0
  5 27  1  0  0  0  0
  6  7  1  0  0  0  0
  6 28  1  0  0  0  0
  6 29  1  0  0  0  0
  7  8  1  0  0  0  0
  7 30  1  0  0  0  0
  8  9  1  0  0  0  0
  8 31  1  0  0  0  0
  8 32  1  0  0  0  0
  9 10  1  0  0  0  0
  9 19  1  0  0  0  0
  9 33  1  0  0  0  0
 10 34  1  0  0  0  0
 10 11  1  0  0  0  0
 11 13  1  0  0  0  0
 11 12  2  0  0  0  0
 13 14  1  0  0  0  0
 14 18  1  0  0  0  0
 14 15  2  0  0  0  0
 15 16  1  0  0  0  0
 16 35  1  0  0  0  0
 16 17  2  0  0  0  0
 17 36  1  0  0  0  0
 17 18  1  0  0  0  0
 19 37  1  0  0  0  0
 19 38  1  0  0  0  0
M  CHG  1   2   1
M  CHG  1  13  -1
M  END
> <s_m_source_file>
AV-unprocessed.smi

> <i_m_source_file_index>
2226

> <i_lp_mmshare_version>
43012

> <i_f3d_flags>
0

> <s_epik_input>
W0NIMl0xW0NIMl1bQ0gyXVtDQEhdKE4oW0NIM10pW0NIXTEyKVtDSDJdW0NASF0oW0NIMl0yKVtOSF1DKD1PKVtOSF1jM25bY0hdW2NIXW8z

> <s_epik_cmdline>
J2VwaWtfcHl0aG9uJywgJy1waCcsICc3LjAnLCAnLXRuJywgJzgnLCAnLW1hJywgJzIwMCcsICctbWV0YWxfYmluZGluZycsICctaW1hZScsICc8aW5maWxlLm1hZT4nLCAnLW9tYWUnLCAnPG91dGZpbGUubWFlPic=

> <r_lp_tautomer_probability>
0.107061

> <r_epik_Ionization_Penalty>
10.5612

> <r_epik_Ionization_Penalty_Charging>
7.48913

> <r_epik_Ionization_Penalty_Neutral>
3.07202

> <r_epik_State_Penalty>
5.6431

> <r_epik_Charging_Adjusted_Penalty>
13.1322

> <i_epik_Tot_Q>
0

> <i_epik_Tot_abs_Q>
2

> <r_epik_Metal_State_Penalty>
1.58163

> <b_epik_Metal_Only>
1

> <s_lp_Force_Field>
OPLS_2005

> <r_lp_Energy>
26.2411

> <b_lp_Chiralities_Consistent>
1

> <s_lp_Variant>
AV-unprocessed.smi:2226-17

> <Gold.Version>
5.8.1

> <Gold.Id.Protein>
6NUR|6NUR_protein|mol2

> <Gold.PLP.Fitness>
40.4701

> <Gold.PLP.PLP>
-26.4642

> <Gold.PLP.part.hbond>
-3.0000

> <Gold.PLP.part.metal>
0.0000

> <Gold.PLP.part.buried>
-2.5523

> <Gold.PLP.part.nonpolar>
-21.9617

> <Gold.PLP.part.repulsive>
0.3120

> <Gold.PLP.ligand.clash>
0.0000

> <Gold.PLP.ligand.torsion>
0.4975

> <Gold.PLP.Chemscore.Hbond>
4.9825

> <Gold.PLP.Chemscore.CHOScore>
0.0000

> <Gold.PLP.Chemscore.Metal>
0.0000

> <Gold.Chemscore.Hbonds>
donor molecule, donor type, donor heavy atom, donor atom, acceptor molecule, acceptor atom, score
      L1  H     2    39       P1 10175  2.00
      P1  H  6933  6944       L1    18  0.99
      P1  H  6934  6946       L1    13  1.93

> <Gold.PLP.Chemscore.Internal.Correction>
0.0533

> <Gold.Rescore>
     Score         DG    S(hbond)    S(metal)    S(lipo)     H(rot)  DE(clash)    DE(int)     intcor
     15.43     -17.26       2.59        0.00      48.62       1.00       0.27       1.57       ----

> <Gold.Chemscore.Fitness>
15.4265

> <Gold.Chemscore.DG>
-17.2615

> <Gold.Chemscore.ZeroCoef>
-5.4800

> <Gold.Chemscore.Hbond>
2.5909

> <Gold.Chemscore.Metal>
0.0000

> <Gold.Chemscore.Lipo>
48.6157

> <Gold.Chemscore.Internal_Hbond>
0.0000

> <Gold.Chemscore.DEClash>
0.2674

> <Gold.Chemscore.DEInternal>
1.5676

> <Gold.Chemscore.Rot>
1.0000

> <Gold.Chemscore.Internal.Correction>
   9.000000E+99

> <Gold.Chemscore.Hbonds>
donor molecule, donor type, donor heavy atom, donor atom, acceptor molecule, acceptor atom, score
      L1  H     2    39       P1 10175  0.63
      P1  H  6933  6944       L1    18  0.88
      P1  H  6934  6946       L1    13  0.52

> <Gold.Chemscore.Hbond.Weighted>
-8.6535

> <Gold.Chemscore.Metal.Weighted>
-0.0000

> <Gold.Chemscore.Lipo.Weighted>
-5.6880

> <Gold.Chemscore.Internal_Hbond.Weighted>
0.0000

> <Gold.Chemscore.DEClash.Weighted>
0.2674

> <Gold.Chemscore.DEInternal.Weighted>
1.5676

> <Gold.Chemscore.Rot.Weighted>
2.5600

> <Gold.Chemscore.Internal.Correction.Weighted>
   9.000000E+99

> <Gold.Protein.RotatedTorsions>
[ 6907 6896 6895 6894 ] final  135.95 input  -60.11 | X-H torsion
[ 7974 7965 7964 7962 ] final   82.65 input  175.53 | X-H torsion
[ 8008 7997 7996 7995 ] final -167.92 input   59.86 | X-H torsion
[ 10167 10162 10161 10158 ] final -103.47 input  -65.29 | X-H torsion
[ 10718 10713 10712 10709 ] final  107.28 input   66.30 | X-H torsion
[ 10763 10752 10751 10750 ] final -162.26 input  -60.55 | X-H torsion
[ 11005 11000 10999 10996 ] final  -47.21 input  -57.11 | X-H torsion

> <Gold.Protein.ActiveResidues>
 VAL166  LYS551  ARG553  GLY616  TRP617  ASP618  TYR619  PRO620  LYS621  CYS622 
 ASP623  PHE694  ASN695  SER759  ASP760  ASP761  ALA762  ILE779  LEU786  VAL792 
 PHE793  MET794  SER795  GLU796  ALA797  LYS798  CYS799  TRP800  GLU811  SER814 

> <Gold.Protein.RotatedAtoms>
  152.2948  133.5597  159.5580 H   0  0  0  0  0  0  0  0  0  0  0  0  # atno 6907 bound_to 6896
  150.7251  134.0376  159.3764 H   0  0  0  0  0  0  0  0  0  0  0  0  # atno 6908 bound_to 6896
  151.8280  135.0631  160.0484 H   0  0  0  0  0  0  0  0  0  0  0  0  # atno 6909 bound_to 6896
  145.6222  139.2388  143.2132 H   0  0  0  0  0  0  0  0  0  0  0  0  # atno 7974 bound_to 7965
  155.8843  140.1014  157.1463 H   0  0  0  0  0  0  0  0  0  0  0  0  # atno 8008 bound_to 7997
  154.4008  140.1323  156.4299 H   0  0  0  0  0  0  0  0  0  0  0  0  # atno 8009 bound_to 7997
  155.7607  140.3463  155.5199 H   0  0  0  0  0  0  0  0  0  0  0  0  # atno 8010 bound_to 7997
  140.2196  143.3685  152.0981 H   0  0  0  0  0  0  0  0  0  0  0  0  # atno 10167 bound_to 10162
  157.6635  131.0869  150.6133 H   0  0  0  0  0  0  0  0  0  0  0  0  # atno 10718 bound_to 10713
  154.7230  135.3030  154.9016 H   0  0  0  0  0  0  0  0  0  0  0  0  # atno 10763 bound_to 10752
  153.9882  135.6722  153.4757 H   0  0  0  0  0  0  0  0  0  0  0  0  # atno 10764 bound_to 10752
  153.0851  135.4988  154.8498 H   0  0  0  0  0  0  0  0  0  0  0  0  # atno 10765 bound_to 10752
  141.0626  133.6704  156.3264 H   0  0  0  0  0  0  0  0  0  0  0  0  # atno 11005 bound_to 11000
  146.1422  140.7042  142.9361 LP  0  0  0  0  0  0  0  0  0  0  0  0  # atno 17320 bound_to 7965
  144.7226  140.4424  143.6996 LP  0  0  0  0  0  0  0  0  0  0  0  0  # atno 17321 bound_to 7965
  139.5149  144.6955  151.5643 LP  0  0  0  0  0  0  0  0  0  0  0  0  # atno 17342 bound_to 10162
  140.6264  143.9160  150.6568 LP  0  0  0  0  0  0  0  0  0  0  0  0  # atno 17343 bound_to 10162
  156.6434  130.4465  149.5744 LP  0  0  0  0  0  0  0  0  0  0  0  0  # atno 17370 bound_to 10713
  156.2192  130.6726  151.1350 LP  0  0  0  0  0  0  0  0  0  0  0  0  # atno 17371 bound_to 10713
  140.5837  134.5720  157.5485 LP  0  0  0  0  0  0  0  0  0  0  0  0  # atno 17394 bound_to 11000
  139.9447  134.7724  156.0592 LP  0  0  0  0  0  0  0  0  0  0  0  0  # atno 17395 bound_to 11000

$$$$
