AV-unprocessed.smi:232|AV-procd|sdf|1771|dock4
  -GOLD-   2262020313D 1   1.00000     0.00000
 Structure written by MMmdl.
 52 55  0  0  0  0  0  0  0  0  1 V2000
  141.7813  134.6848  153.0819 C   0  0  0  0  0  0  0  0  0  0  0  0
  142.8318  133.9801  152.2135 C   0  0  0  0  0  0  0  0  0  0  0  0
  144.1554  134.7632  152.1125 C   0  0  2  0  0  0  0  0  0  0  0  0
  144.7198  134.7746  150.6735 C   0  0  0  0  0  0  0  0  0  0  0  0
  146.0504  134.0184  150.7444 C   0  0  0  0  0  0  0  0  0  0  0  0
  145.9561  133.2744  152.0746 C   0  0  1  0  0  0  0  0  0  0  0  0
  147.3033  132.7709  152.6279 C   0  0  0  0  0  0  0  0  0  0  0  0
  145.1953  134.1633  152.9514 N   0  0  0  0  0  0  0  0  0  0  0  0
  145.9056  135.0258  153.7206 C   0  0  0  0  0  0  0  0  0  0  0  0
  146.6068  134.5827  154.7986 N   0  0  0  0  0  0  0  0  0  0  0  0
  147.2831  135.4492  155.5589 C   0  0  0  0  0  0  0  0  0  0  0  0
  147.3877  136.7734  155.4246 N   0  0  0  0  0  0  0  0  0  0  0  0
  146.6842  137.2187  154.3443 C   0  0  0  0  0  0  0  0  0  0  0  0
  145.9230  136.4188  153.4476 C   0  0  0  0  0  0  0  0  0  0  0  0
  145.3416  137.2171  152.4706 N   0  0  0  0  0  0  0  0  0  0  0  0
  145.7354  138.4242  152.7743 C   0  0  0  0  0  0  0  0  0  0  0  0
  146.5421  138.5164  153.8860 N   0  0  0  0  0  0  0  0  0  0  0  0
  147.1113  139.7306  154.4439 C   0  0  0  0  0  0  0  0  0  0  0  0
  148.6348  139.8186  154.2272 C   0  0  1  0  0  0  0  0  0  0  0  0
  148.9376  141.0020  153.5134 O   0  0  0  0  0  0  0  0  0  0  0  0
  149.4120  139.8278  155.5563 C   0  0  2  0  0  0  0  0  0  0  0  0
  149.2039  141.0819  156.4082 C   0  0  0  0  0  0  0  0  0  0  0  0
  150.4783  141.1764  157.2335 C   0  0  0  0  0  0  0  0  0  0  0  0
  151.4412  140.2057  156.5454 C   0  0  0  0  0  0  0  0  0  0  0  0
  150.8106  139.8698  155.3179 O   0  0  0  0  0  0  0  0  0  0  0  0
  140.8524  134.1149  153.1045 H   0  0  0  0  0  0  0  0  0  0  0  0
  141.5532  135.6779  152.6944 H   0  0  0  0  0  0  0  0  0  0  0  0
  142.1247  134.7969  154.1107 H   0  0  0  0  0  0  0  0  0  0  0  0
  143.0120  132.9764  152.6000 H   0  0  0  0  0  0  0  0  0  0  0  0
  142.4176  133.8498  151.2132 H   0  0  0  0  0  0  0  0  0  0  0  0
  143.9566  135.7913  152.4208 H   0  0  0  0  0  0  0  0  0  0  0  0
  144.0388  134.2844  149.9766 H   0  0  0  0  0  0  0  0  0  0  0  0
  144.8723  135.7926  150.3136 H   0  0  0  0  0  0  0  0  0  0  0  0
  146.2008  133.3470  149.8988 H   0  0  0  0  0  0  0  0  0  0  0  0
  146.8796  134.7270  150.7619 H   0  0  0  0  0  0  0  0  0  0  0  0
  145.3283  132.3952  151.9237 H   0  0  0  0  0  0  0  0  0  0  0  0
  147.7583  132.0588  151.9393 H   0  0  0  0  0  0  0  0  0  0  0  0
  147.1711  132.2636  153.5839 H   0  0  0  0  0  0  0  0  0  0  0  0
  148.0161  133.5838  152.7720 H   0  0  0  0  0  0  0  0  0  0  0  0
  147.8141  135.0209  156.3962 H   0  0  0  0  0  0  0  0  0  0  0  0
  145.4441  139.2875  152.1936 H   0  0  0  0  0  0  0  0  0  0  0  0
  146.6091  140.5918  154.0008 H   0  0  0  0  0  0  0  0  0  0  0  0
  146.8797  139.7516  155.5093 H   0  0  0  0  0  0  0  0  0  0  0  0
  148.9621  138.9702  153.6245 H   0  0  0  0  0  0  0  0  0  0  0  0
  149.4611  140.7723  152.7610 H   0  0  0  0  0  0  0  0  0  0  0  0
  149.1801  138.9361  156.1426 H   0  0  0  0  0  0  0  0  0  0  0  0
  149.1185  141.9627  155.7702 H   0  0  0  0  0  0  0  0  0  0  0  0
  148.3051  141.0259  157.0229 H   0  0  0  0  0  0  0  0  0  0  0  0
  150.8654  142.1959  157.2324 H   0  0  0  0  0  0  0  0  0  0  0  0
  150.3091  140.8822  158.2700 H   0  0  0  0  0  0  0  0  0  0  0  0
  152.4260  140.6410  156.3757 H   0  0  0  0  0  0  0  0  0  0  0  0
  151.5663  139.3016  157.1429 H   0  0  0  0  0  0  0  0  0  0  0  0
  1  2  1  0  0  0  0
  1 26  1  0  0  0  0
  1 27  1  0  0  0  0
  1 28  1  0  0  0  0
  2  3  1  0  0  0  0
  2 29  1  0  0  0  0
  2 30  1  0  0  0  0
  3  8  1  0  0  0  0
  3  4  1  0  0  0  0
  3 31  1  0  0  0  0
  4  5  1  0  0  0  0
  4 32  1  0  0  0  0
  4 33  1  0  0  0  0
  5  6  1  0  0  0  0
  5 34  1  0  0  0  0
  5 35  1  0  0  0  0
  6  7  1  0  0  0  0
  6  8  1  0  0  0  0
  6 36  1  0  0  0  0
  7 37  1  0  0  0  0
  7 38  1  0  0  0  0
  7 39  1  0  0  0  0
  8  9  1  0  0  0  0
  9 14  1  0  0  0  0
  9 10  2  0  0  0  0
 10 11  1  0  0  0  0
 11 12  2  0  0  0  0
 11 40  1  0  0  0  0
 12 13  1  0  0  0  0
 13 17  1  0  0  0  0
 13 14  2  0  0  0  0
 14 15  1  0  0  0  0
 15 16  2  0  0  0  0
 16 17  1  0  0  0  0
 16 41  1  0  0  0  0
 17 18  1  0  0  0  0
 18 19  1  0  0  0  0
 18 42  1  0  0  0  0
 18 43  1  0  0  0  0
 19 20  1  0  0  0  0
 19 21  1  0  0  0  0
 19 44  1  0  0  0  0
 20 45  1  0  0  0  0
 21 25  1  0  0  0  0
 21 22  1  0  0  0  0
 21 46  1  0  0  0  0
 22 23  1  0  0  0  0
 22 47  1  0  0  0  0
 22 48  1  0  0  0  0
 23 24  1  0  0  0  0
 23 49  1  0  0  0  0
 23 50  1  0  0  0  0
 24 25  1  0  0  0  0
 24 51  1  0  0  0  0
 24 52  1  0  0  0  0
M  END
> <s_m_source_file>
AV-unprocessed.smi

> <i_m_source_file_index>
232

> <i_lp_mmshare_version>
43012

> <i_f3d_flags>
0

> <s_epik_input>
W0NIM11bQ0gyXVtDQEBIXTFbQ0gyXVtDSDJdW0NAQEhdKFtDSDNdKU4xYyhuW2NIXW4yKWMoYzIzKW5bY0hdbjNbQ0gyXVtDQEhdKFtPSF0pW0NAQEhdNFtDSDJdW0NIMl1bQ0gyXU80

> <s_epik_cmdline>
J2VwaWtfcHl0aG9uJywgJy1waCcsICc3LjAnLCAnLXRuJywgJzgnLCAnLW1hJywgJzIwMCcsICctbWV0YWxfYmluZGluZycsICctaW1hZScsICc8aW5maWxlLm1hZT4nLCAnLW9tYWUnLCAnPG91dGZpbGUubWFlPic=

> <r_lp_tautomer_probability>
1

> <r_epik_Ionization_Penalty>
0.00258048

> <r_epik_Ionization_Penalty_Charging>
0

> <r_epik_Ionization_Penalty_Neutral>
0.00258048

> <r_epik_State_Penalty>
0.00168551

> <r_epik_Charging_Adjusted_Penalty>
0.00168551

> <i_epik_Tot_Q>
0

> <i_epik_Tot_abs_Q>
0

> <r_epik_Metal_State_Penalty>
-0

> <b_epik_Metal_Only>
0

> <s_lp_Force_Field>
OPLS_2005

> <r_lp_Energy>
56.5001

> <b_lp_Chiralities_Consistent>
1

> <s_lp_Variant>
AV-unprocessed.smi:232-5

> <Gold.Version>
5.8.1

> <Gold.Id.Protein>
6NUR|6NUR_protein|mol2

> <Gold.PLP.Fitness>
37.6955

> <Gold.PLP.PLP>
-32.6830

> <Gold.PLP.part.hbond>
-3.4781

> <Gold.PLP.part.metal>
0.0000

> <Gold.PLP.part.buried>
-2.0903

> <Gold.PLP.part.nonpolar>
-28.9779

> <Gold.PLP.part.repulsive>
0.4908

> <Gold.PLP.ligand.clash>
0.0375

> <Gold.PLP.ligand.torsion>
1.8892

> <Gold.PLP.Chemscore.Hbond>
1.9516

> <Gold.PLP.Chemscore.CHOScore>
0.9618

> <Gold.PLP.Chemscore.Metal>
0.0000

> <Gold.Chemscore.Hbonds>
donor molecule, donor type, donor heavy atom, donor atom, acceptor molecule, acceptor atom, score
      L1  H    20    45       P1  7957  1.00
      P1  H  7989  7998       L1    25  0.49
      L1  C    16    41       P1 10171  0.02
      L1  C    16    41       P1 10175  0.94

> <Gold.PLP.Chemscore.Internal.Correction>
0.0881

> <Gold.Rescore>
     Score         DG    S(hbond)    S(metal)    S(lipo)     H(rot)  DE(clash)    DE(int)     intcor
      8.84     -14.33       1.97        0.00      72.53       2.43       0.90       4.60       ----

> <Gold.Chemscore.Fitness>
8.8370

> <Gold.Chemscore.DG>
-14.3336

> <Gold.Chemscore.ZeroCoef>
-5.4800

> <Gold.Chemscore.Hbond>
1.9695

> <Gold.Chemscore.Metal>
0.0000

> <Gold.Chemscore.Lipo>
72.5313

> <Gold.Chemscore.Internal_Hbond>
0.0000

> <Gold.Chemscore.DEClash>
0.8989

> <Gold.Chemscore.DEInternal>
4.5977

> <Gold.Chemscore.Rot>
2.4260

> <Gold.Chemscore.Internal.Correction>
   9.000000E+99

> <Gold.Chemscore.Hbonds>
donor molecule, donor type, donor heavy atom, donor atom, acceptor molecule, acceptor atom, score
      L1  H    20    45       P1  7957  0.95
      P1  H  7989  7998       L1    25  0.45

> <Gold.Chemscore.Hbond.Weighted>
-6.5781

> <Gold.Chemscore.Metal.Weighted>
-0.0000

> <Gold.Chemscore.Lipo.Weighted>
-8.4862

> <Gold.Chemscore.Internal_Hbond.Weighted>
0.0000

> <Gold.Chemscore.DEClash.Weighted>
0.8989

> <Gold.Chemscore.DEInternal.Weighted>
4.5977

> <Gold.Chemscore.Rot.Weighted>
6.2107

> <Gold.Chemscore.Internal.Correction.Weighted>
   9.000000E+99

> <Gold.Protein.RotatedTorsions>
[ 6907 6896 6895 6894 ] final   21.71 input  -60.11 | X-H torsion
[ 7974 7965 7964 7962 ] final -167.51 input  175.53 | X-H torsion
[ 8008 7997 7996 7995 ] final -151.80 input   59.86 | X-H torsion
[ 10167 10162 10161 10158 ] final   12.56 input  -65.29 | X-H torsion
[ 10718 10713 10712 10709 ] final   62.50 input   66.30 | X-H torsion
[ 10763 10752 10751 10750 ] final   60.35 input  -60.55 | X-H torsion
[ 11005 11000 10999 10996 ] final -121.41 input  -57.11 | X-H torsion

> <Gold.Protein.ActiveResidues>
 VAL166  LYS551  ARG553  GLY616  TRP617  ASP618  TYR619  PRO620  LYS621  CYS622 
 ASP623  PHE694  ASN695  SER759  ASP760  ASP761  ALA762  ILE779  LEU786  VAL792 
 PHE793  MET794  SER795  GLU796  ALA797  LYS798  CYS799  TRP800  GLU811  SER814 

> <Gold.Protein.RotatedAtoms>
  151.9160  135.0318  160.0518 H   0  0  0  0  0  0  0  0  0  0  0  0  # atno 6907 bound_to 6896
  152.2239  133.5000  159.5186 H   0  0  0  0  0  0  0  0  0  0  0  0  # atno 6908 bound_to 6896
  150.7007  134.1222  159.4082 H   0  0  0  0  0  0  0  0  0  0  0  0  # atno 6909 bound_to 6896
  144.7221  140.2507  143.6279 H   0  0  0  0  0  0  0  0  0  0  0  0  # atno 7974 bound_to 7965
  155.6451  140.0706  157.2605 H   0  0  0  0  0  0  0  0  0  0  0  0  # atno 8008 bound_to 7997
  154.4175  140.1743  156.1664 H   0  0  0  0  0  0  0  0  0  0  0  0  # atno 8009 bound_to 7997
  155.9823  140.3352  155.6678 H   0  0  0  0  0  0  0  0  0  0  0  0  # atno 8010 bound_to 7997
  140.6060  143.8507  150.7014 H   0  0  0  0  0  0  0  0  0  0  0  0  # atno 10167 bound_to 10162
  157.5905  130.9053  149.9595 H   0  0  0  0  0  0  0  0  0  0  0  0  # atno 10718 bound_to 10713
  152.9919  135.5539  154.5860 H   0  0  0  0  0  0  0  0  0  0  0  0  # atno 10763 bound_to 10752
  154.5231  135.2809  155.1247 H   0  0  0  0  0  0  0  0  0  0  0  0  # atno 10764 bound_to 10752
  154.2592  135.6384  153.5321 H   0  0  0  0  0  0  0  0  0  0  0  0  # atno 10765 bound_to 10752
  141.0072  134.0317  157.3462 H   0  0  0  0  0  0  0  0  0  0  0  0  # atno 11005 bound_to 11000
  145.8230  139.2052  143.1926 LP  0  0  0  0  0  0  0  0  0  0  0  0  # atno 17320 bound_to 7965
  146.0497  140.8082  142.9788 LP  0  0  0  0  0  0  0  0  0  0  0  0  # atno 17321 bound_to 7965
  140.2064  143.3918  152.1752 LP  0  0  0  0  0  0  0  0  0  0  0  0  # atno 17342 bound_to 10162
  139.5325  144.7175  151.5005 LP  0  0  0  0  0  0  0  0  0  0  0  0  # atno 17343 bound_to 10162
  156.0959  130.3659  150.0308 LP  0  0  0  0  0  0  0  0  0  0  0  0  # atno 17370 bound_to 10713
  156.8431  130.9433  151.3630 LP  0  0  0  0  0  0  0  0  0  0  0  0  # atno 17371 bound_to 10713
  139.9070  135.0182  156.7527 LP  0  0  0  0  0  0  0  0  0  0  0  0  # atno 17394 bound_to 11000
  140.6793  133.9489  155.7901 LP  0  0  0  0  0  0  0  0  0  0  0  0  # atno 17395 bound_to 11000

$$$$
