AV-unprocessed.smi:1244|AV-procd|sdf|5226|dock2
  -GOLD-   22720 4323D 1   1.00000     0.00000
 Structure written by MMmdl.
 55 57  0  0  0  0  0  0  0  0  2 V2000
  144.2212  147.5626  155.3488 C   0  0  0  0  0  0  0  0  0  0  0  0
  143.9865  146.0508  155.2616 C   0  0  2  0  0  0  0  0  0  0  0  0
  144.1104  145.5280  153.8159 C   0  0  0  0  0  0  0  0  0  0  0  0
  143.8013  144.0795  153.7385 N   0  3  1  0  0  0  0  0  0  0  0  0
  144.9064  143.2084  154.2184 C   0  0  0  0  0  0  0  0  0  0  0  0
  146.1392  143.2680  153.2971 C   0  0  0  0  0  0  0  0  0  0  0  0
  147.3757  143.1057  154.0527 N   0  0  0  0  0  0  0  0  0  0  0  0
  148.0377  141.9487  154.1939 C   0  0  0  0  0  0  0  0  0  0  0  0
  147.6620  140.8889  153.6922 O   0  0  0  0  0  0  0  0  0  0  0  0
  149.1483  142.1107  154.9322 N   0  0  0  0  0  0  0  0  0  0  0  0
  150.1434  141.1450  155.2570 C   0  0  0  0  0  0  0  0  0  0  0  0
  150.3017  139.9536  154.5068 C   0  0  0  0  0  0  0  0  0  0  0  0
  151.2568  139.0052  154.9109 C   0  0  0  0  0  0  0  0  0  0  0  0
  152.0125  139.2727  156.0645 C   0  0  0  0  0  0  0  0  0  0  0  0
  151.8637  140.3933  156.7985 N   0  0  0  0  0  0  0  0  0  0  0  0
  150.9566  141.3242  156.4129 C   0  0  0  0  0  0  0  0  0  0  0  0
  150.8555  142.4871  157.2100 N   0  0  0  0  0  0  0  0  0  0  0  0
  150.5125  142.3874  158.6247 C   0  0  0  0  0  0  0  0  0  0  0  0
  150.8802  143.7456  159.2152 C   0  0  0  0  0  0  0  0  0  0  0  0
  152.1299  144.1165  158.4224 C   0  0  0  0  0  0  0  0  0  0  0  0
  151.8684  143.5238  157.0334 C   0  0  0  0  0  0  0  0  0  0  0  0
  142.4789  143.8000  154.3548 C   0  0  0  0  0  0  0  0  0  0  0  0
  142.3763  144.3870  155.7799 C   0  0  2  0  0  0  0  0  0  0  0  0
  140.9724  144.2183  156.3707 C   0  0  0  0  0  0  0  0  0  0  0  0
  142.6727  145.7788  155.7370 O   0  0  0  0  0  0  0  0  0  0  0  0
  145.2215  147.8250  155.0036 H   0  0  0  0  0  0  0  0  0  0  0  0
  144.1223  147.9135  156.3764 H   0  0  0  0  0  0  0  0  0  0  0  0
  143.5018  148.1104  154.7394 H   0  0  0  0  0  0  0  0  0  0  0  0
  144.7141  145.5532  155.9049 H   0  0  0  0  0  0  0  0  0  0  0  0
  143.4062  146.0607  153.1751 H   0  0  0  0  0  0  0  0  0  0  0  0
  145.1028  145.7299  153.4106 H   0  0  0  0  0  0  0  0  0  0  0  0
  145.2166  143.5388  155.2108 H   0  0  0  0  0  0  0  0  0  0  0  0
  144.5579  142.1827  154.3380 H   0  0  0  0  0  0  0  0  0  0  0  0
  146.0952  142.5080  152.5165 H   0  0  0  0  0  0  0  0  0  0  0  0
  146.1762  144.2315  152.7880 H   0  0  0  0  0  0  0  0  0  0  0  0
  147.7564  143.9309  154.4931 H   0  0  0  0  0  0  0  0  0  0  0  0
  149.3660  143.0581  155.2055 H   0  0  0  0  0  0  0  0  0  0  0  0
  149.6927  139.7391  153.6420 H   0  0  0  0  0  0  0  0  0  0  0  0
  151.3978  138.0891  154.3566 H   0  0  0  0  0  0  0  0  0  0  0  0
  152.7515  138.5658  156.4115 H   0  0  0  0  0  0  0  0  0  0  0  0
  149.4551  142.1581  158.7615 H   0  0  0  0  0  0  0  0  0  0  0  0
  151.0996  141.6092  159.1137 H   0  0  0  0  0  0  0  0  0  0  0  0
  150.0861  144.4672  159.0180 H   0  0  0  0  0  0  0  0  0  0  0  0
  151.0496  143.7097  160.2917 H   0  0  0  0  0  0  0  0  0  0  0  0
  152.3164  145.1905  158.3972 H   0  0  0  0  0  0  0  0  0  0  0  0
  153.0011  143.6348  158.8683 H   0  0  0  0  0  0  0  0  0  0  0  0
  152.7846  143.1329  156.5884 H   0  0  0  0  0  0  0  0  0  0  0  0
  151.4723  144.2935  156.3707 H   0  0  0  0  0  0  0  0  0  0  0  0
  141.7138  144.2534  153.7229 H   0  0  0  0  0  0  0  0  0  0  0  0
  142.2676  142.7313  154.3641 H   0  0  0  0  0  0  0  0  0  0  0  0
  143.0837  143.8915  156.4461 H   0  0  0  0  0  0  0  0  0  0  0  0
  140.6972  143.1651  156.4338 H   0  0  0  0  0  0  0  0  0  0  0  0
  140.2228  144.7245  155.7616 H   0  0  0  0  0  0  0  0  0  0  0  0
  140.9207  144.6352  157.3769 H   0  0  0  0  0  0  0  0  0  0  0  0
  143.7117  143.8709  152.7541 H   0  0  0  0  0  0  0  0  0  0  0  0
  1  2  1  0  0  0  0
  1 26  1  0  0  0  0
  1 27  1  0  0  0  0
  1 28  1  0  0  0  0
  2 25  1  0  0  0  0
  2  3  1  0  0  0  0
  2 29  1  0  0  0  0
  3  4  1  0  0  0  0
  3 30  1  0  0  0  0
  3 31  1  0  0  0  0
  4  5  1  0  0  0  0
  4 22  1  0  0  0  0
  4 55  1  0  0  0  0
  5  6  1  0  0  0  0
  5 32  1  0  0  0  0
  5 33  1  0  0  0  0
  6  7  1  0  0  0  0
  6 34  1  0  0  0  0
  6 35  1  0  0  0  0
  7  8  1  0  0  0  0
  7 36  1  0  0  0  0
  8  9  2  0  0  0  0
  8 10  1  0  0  0  0
 10 11  1  0  0  0  0
 10 37  1  0  0  0  0
 11 16  1  0  0  0  0
 11 12  2  0  0  0  0
 12 13  1  0  0  0  0
 12 38  1  0  0  0  0
 13 14  2  0  0  0  0
 13 39  1  0  0  0  0
 14 15  1  0  0  0  0
 14 40  1  0  0  0  0
 15 16  2  0  0  0  0
 16 17  1  0  0  0  0
 17 21  1  0  0  0  0
 17 18  1  0  0  0  0
 18 19  1  0  0  0  0
 18 41  1  0  0  0  0
 18 42  1  0  0  0  0
 19 20  1  0  0  0  0
 19 43  1  0  0  0  0
 19 44  1  0  0  0  0
 20 21  1  0  0  0  0
 20 45  1  0  0  0  0
 20 46  1  0  0  0  0
 21 47  1  0  0  0  0
 21 48  1  0  0  0  0
 22 23  1  0  0  0  0
 22 49  1  0  0  0  0
 22 50  1  0  0  0  0
 23 24  1  0  0  0  0
 23 25  1  0  0  0  0
 23 51  1  0  0  0  0
 24 52  1  0  0  0  0
 24 53  1  0  0  0  0
 24 54  1  0  0  0  0
M  CHG  1   4   1
M  END
> <s_m_source_file>
AV-unprocessed.smi

> <i_m_source_file_index>
1244

> <i_lp_mmshare_version>
43012

> <i_f3d_flags>
0

> <s_epik_input>
W0NIM11bQ0BASF0xW0NIMl1OKFtDSDJdW0NASF0oTzEpW0NIM10pW0NIMl1bQ0gyXVtOSF1DKD1PKVtOSF1jMltjSF1bY0hdW2NIXW5jMk4zW0NIMl1bQ0gyXVtDSDJdW0NIMl0z

> <s_epik_cmdline>
J2VwaWtfcHl0aG9uJywgJy1waCcsICc3LjAnLCAnLXRuJywgJzgnLCAnLW1hJywgJzIwMCcsICctbWV0YWxfYmluZGluZycsICctaW1hZScsICc8aW5maWxlLm1hZT4nLCAnLW9tYWUnLCAnPG91dGZpbGUubWFlPic=

> <r_lp_tautomer_probability>
1

> <r_epik_Ionization_Penalty>
0.684913

> <r_epik_Ionization_Penalty_Charging>
0.602531

> <r_epik_Ionization_Penalty_Neutral>
0.0823829

> <r_epik_State_Penalty>
0.678827

> <r_epik_Charging_Adjusted_Penalty>
1.28136

> <i_epik_Tot_Q>
1

> <i_epik_Tot_abs_Q>
1

> <r_epik_Metal_State_Penalty>
0.67806

> <b_epik_Metal_Only>
0

> <s_lp_Force_Field>
OPLS_2005

> <r_lp_Energy>
44.826

> <b_lp_Chiralities_Consistent>
1

> <s_lp_Variant>
AV-unprocessed.smi:1244-6

> <Gold.Version>
5.8.1

> <Gold.Id.Protein>
6NUR|6NUR_protein|mol2

> <Gold.PLP.Fitness>
53.7660

> <Gold.PLP.PLP>
-43.9356

> <Gold.PLP.part.hbond>
-3.2996

> <Gold.PLP.part.metal>
0.0000

> <Gold.PLP.part.buried>
-3.3579

> <Gold.PLP.part.nonpolar>
-37.7983

> <Gold.PLP.part.repulsive>
0.6288

> <Gold.PLP.ligand.clash>
0.0000

> <Gold.PLP.ligand.torsion>
0.8123

> <Gold.PLP.Chemscore.Hbond>
3.7000

> <Gold.PLP.Chemscore.CHOScore>
0.0000

> <Gold.PLP.Chemscore.Metal>
0.0000

> <Gold.Chemscore.Hbonds>
donor molecule, donor type, donor heavy atom, donor atom, acceptor molecule, acceptor atom, score
      L1  H     4    55       P1 10174  0.96
      L1  H     7    36       P1  8028  0.90
      L1  H    10    37       P1  8028  1.00

> <Gold.PLP.Chemscore.Internal.Correction>
0.3550

> <Gold.Rescore>
     Score         DG    S(hbond)    S(metal)    S(lipo)     H(rot)  DE(clash)    DE(int)     intcor
     16.81     -20.15       1.95        0.00     104.69       1.60       1.42       1.93       ----

> <Gold.Chemscore.Fitness>
16.8073

> <Gold.Chemscore.DG>
-20.1488

> <Gold.Chemscore.ZeroCoef>
-5.4800

> <Gold.Chemscore.Hbond>
1.9493

> <Gold.Chemscore.Metal>
0.0000

> <Gold.Chemscore.Lipo>
104.6896

> <Gold.Chemscore.Internal_Hbond>
0.0000

> <Gold.Chemscore.DEClash>
1.4164

> <Gold.Chemscore.DEInternal>
1.9252

> <Gold.Chemscore.Rot>
1.5978

> <Gold.Chemscore.Internal.Correction>
   9.000000E+99

> <Gold.Chemscore.Hbonds>
donor molecule, donor type, donor heavy atom, donor atom, acceptor molecule, acceptor atom, score
      L1  H     4    55       P1 10174  0.41
      L1  H     7    36       P1  8028  0.17
      L1  H    10    37       P1  8028  0.96

> <Gold.Chemscore.Hbond.Weighted>
-6.5106

> <Gold.Chemscore.Metal.Weighted>
-0.0000

> <Gold.Chemscore.Lipo.Weighted>
-12.2487

> <Gold.Chemscore.Internal_Hbond.Weighted>
0.0000

> <Gold.Chemscore.DEClash.Weighted>
1.4164

> <Gold.Chemscore.DEInternal.Weighted>
1.9252

> <Gold.Chemscore.Rot.Weighted>
4.0905

> <Gold.Chemscore.Internal.Correction.Weighted>
   9.000000E+99

> <Gold.Protein.RotatedTorsions>
[ 6907 6896 6895 6894 ] final -132.59 input  -60.11 | X-H torsion
[ 7974 7965 7964 7962 ] final  -74.20 input  175.53 | X-H torsion
[ 8008 7997 7996 7995 ] final  170.82 input   59.86 | X-H torsion
[ 10167 10162 10161 10158 ] final -156.48 input  -65.29 | X-H torsion
[ 10718 10713 10712 10709 ] final  -24.20 input   66.30 | X-H torsion
[ 10763 10752 10751 10750 ] final -136.22 input  -60.55 | X-H torsion
[ 11005 11000 10999 10996 ] final   87.82 input  -57.11 | X-H torsion

> <Gold.Protein.ActiveResidues>
 VAL166  LYS551  ARG553  GLY616  TRP617  ASP618  TYR619  PRO620  LYS621  CYS622 
 ASP623  PHE694  ASN695  SER759  ASP760  ASP761  ALA762  ILE779  LEU786  VAL792 
 PHE793  MET794  SER795  GLU796  ALA797  LYS798  CYS799  TRP800  GLU811  SER814 

> <Gold.Protein.RotatedAtoms>
  150.9641  133.6413  159.2748 H   0  0  0  0  0  0  0  0  0  0  0  0  # atno 6907 bound_to 6896
  151.3725  135.0924  159.9480 H   0  0  0  0  0  0  0  0  0  0  0  0  # atno 6908 bound_to 6896
  152.5159  133.9193  159.7581 H   0  0  0  0  0  0  0  0  0  0  0  0  # atno 6909 bound_to 6896
  145.6422  140.9308  143.1030 H   0  0  0  0  0  0  0  0  0  0  0  0  # atno 7974 bound_to 7965
  156.1329  140.1528  156.9038 H   0  0  0  0  0  0  0  0  0  0  0  0  # atno 8008 bound_to 7997
  154.4924  140.0847  156.7662 H   0  0  0  0  0  0  0  0  0  0  0  0  # atno 8009 bound_to 7997
  155.4222  140.3423  155.4274 H   0  0  0  0  0  0  0  0  0  0  0  0  # atno 8010 bound_to 7997
  139.6846  143.9522  152.2355 H   0  0  0  0  0  0  0  0  0  0  0  0  # atno 10167 bound_to 10162
  156.4808  130.4545  149.6813 H   0  0  0  0  0  0  0  0  0  0  0  0  # atno 10718 bound_to 10713
  154.8688  135.3679  154.5026 H   0  0  0  0  0  0  0  0  0  0  0  0  # atno 10763 bound_to 10752
  153.5665  135.7021  153.5528 H   0  0  0  0  0  0  0  0  0  0  0  0  # atno 10764 bound_to 10752
  153.3580  135.4054  155.1660 H   0  0  0  0  0  0  0  0  0  0  0  0  # atno 10765 bound_to 10752
  139.8910  134.8447  156.2913 H   0  0  0  0  0  0  0  0  0  0  0  0  # atno 11005 bound_to 11000
  144.7153  139.8219  143.7401 LP  0  0  0  0  0  0  0  0  0  0  0  0  # atno 17320 bound_to 7965
  146.1272  139.4300  143.0191 LP  0  0  0  0  0  0  0  0  0  0  0  0  # atno 17321 bound_to 7965
  139.9322  144.6734  150.8351 LP  0  0  0  0  0  0  0  0  0  0  0  0  # atno 17342 bound_to 10162
  140.7663  143.3301  151.2429 LP  0  0  0  0  0  0  0  0  0  0  0  0  # atno 17343 bound_to 10162
  156.3523  130.7438  151.2400 LP  0  0  0  0  0  0  0  0  0  0  0  0  # atno 17370 bound_to 10713
  157.7483  131.0373  150.4451 LP  0  0  0  0  0  0  0  0  0  0  0  0  # atno 17371 bound_to 10713
  140.9974  133.7172  156.0907 LP  0  0  0  0  0  0  0  0  0  0  0  0  # atno 17394 bound_to 11000
  140.7543  134.4009  157.5536 LP  0  0  0  0  0  0  0  0  0  0  0  0  # atno 17395 bound_to 11000

$$$$
