AV-unprocessed.smi:1320|AV-procd|sdf|5461|dock6
  -GOLD-   22720 5 33D 1   1.00000     0.00000
 Structure written by MMmdl.
 37 38  0  0  0  0  0  0  0  0  2 V2000
  146.8016  141.9517  159.3095 O   0  0  0  0  0  0  0  0  0  0  0  0
  147.1256  142.8596  158.5463 C   0  0  0  0  0  0  0  0  0  0  0  0
  148.0046  142.7042  157.5407 N   0  0  0  0  0  0  0  0  0  0  0  0
  148.6872  141.4603  157.1936 C   0  0  0  0  0  0  0  0  0  0  0  0
  150.1229  141.6853  156.6787 C   0  0  0  0  0  0  0  0  0  0  0  0
  150.9995  142.4858  157.6262 C   0  0  0  0  0  0  0  0  0  0  0  0
  151.9656  141.8690  158.4501 C   0  0  0  0  0  0  0  0  0  0  0  0
  152.7283  142.6630  159.3316 C   0  0  0  0  0  0  0  0  0  0  0  0
  152.5086  144.0555  159.3720 C   0  0  0  0  0  0  0  0  0  0  0  0
  151.5305  144.6195  158.5281 C   0  0  0  0  0  0  0  0  0  0  0  0
  150.8213  143.8255  157.6964 N   0  3  0  0  0  0  0  0  0  0  0  0
  146.6226  144.1008  158.6666 N   0  0  0  0  0  0  0  0  0  0  0  0
  145.6534  144.5922  159.6490 C   0  0  0  0  0  0  0  0  0  0  0  0
  146.2743  144.6177  161.0589 C   0  0  0  0  0  0  0  0  0  0  0  0
  145.2428  143.9755  161.9870 C   0  0  0  0  0  0  0  0  0  0  0  0
  144.5146  142.9718  161.0997 C   0  0  0  0  0  0  0  0  0  0  0  0
  144.4194  143.6708  159.7431 C   0  0  0  0  0  0  0  0  0  0  0  0
  148.2000  143.5068  156.9597 H   0  0  0  0  0  0  0  0  0  0  0  0
  148.6974  140.7778  158.0450 H   0  0  0  0  0  0  0  0  0  0  0  0
  148.1007  140.9658  156.4192 H   0  0  0  0  0  0  0  0  0  0  0  0
  150.5982  140.7203  156.4984 H   0  0  0  0  0  0  0  0  0  0  0  0
  150.0916  142.1895  155.7117 H   0  0  0  0  0  0  0  0  0  0  0  0
  152.1149  140.7997  158.4148 H   0  0  0  0  0  0  0  0  0  0  0  0
  153.4697  142.2085  159.9718 H   0  0  0  0  0  0  0  0  0  0  0  0
  153.0802  144.6804  160.0427 H   0  0  0  0  0  0  0  0  0  0  0  0
  151.2931  145.6729  158.4956 H   0  0  0  0  0  0  0  0  0  0  0  0
  146.9382  144.7797  157.9887 H   0  0  0  0  0  0  0  0  0  0  0  0
  145.3358  145.6031  159.3871 H   0  0  0  0  0  0  0  0  0  0  0  0
  147.1899  144.0245  161.0872 H   0  0  0  0  0  0  0  0  0  0  0  0
  146.5361  145.6273  161.3768 H   0  0  0  0  0  0  0  0  0  0  0  0
  145.6977  143.5115  162.8625 H   0  0  0  0  0  0  0  0  0  0  0  0
  144.5406  144.7332  162.3378 H   0  0  0  0  0  0  0  0  0  0  0  0
  145.1128  142.0647  161.0048 H   0  0  0  0  0  0  0  0  0  0  0  0
  143.5392  142.6888  161.4962 H   0  0  0  0  0  0  0  0  0  0  0  0
  143.5148  144.2797  159.7156 H   0  0  0  0  0  0  0  0  0  0  0  0
  144.3458  142.9546  158.9234 H   0  0  0  0  0  0  0  0  0  0  0  0
  150.1135  144.2543  157.0999 H   0  0  0  0  0  0  0  0  0  0  0  0
  1  2  2  0  0  0  0
  2  3  1  0  0  0  0
  2 12  1  0  0  0  0
  3  4  1  0  0  0  0
  3 18  1  0  0  0  0
  4  5  1  0  0  0  0
  4 19  1  0  0  0  0
  4 20  1  0  0  0  0
  5  6  1  0  0  0  0
  5 21  1  0  0  0  0
  5 22  1  0  0  0  0
  6 11  1  0  0  0  0
  6  7  2  0  0  0  0
  7  8  1  0  0  0  0
  7 23  1  0  0  0  0
  8  9  2  0  0  0  0
  8 24  1  0  0  0  0
  9 10  1  0  0  0  0
  9 25  1  0  0  0  0
 10 11  2  0  0  0  0
 10 26  1  0  0  0  0
 11 37  1  0  0  0  0
 12 13  1  0  0  0  0
 12 27  1  0  0  0  0
 13 17  1  0  0  0  0
 13 14  1  0  0  0  0
 13 28  1  0  0  0  0
 14 15  1  0  0  0  0
 14 29  1  0  0  0  0
 14 30  1  0  0  0  0
 15 16  1  0  0  0  0
 15 31  1  0  0  0  0
 15 32  1  0  0  0  0
 16 17  1  0  0  0  0
 16 33  1  0  0  0  0
 16 34  1  0  0  0  0
 17 35  1  0  0  0  0
 17 36  1  0  0  0  0
M  CHG  1  11   1
M  END
> <s_m_source_file>
AV-unprocessed.smi

> <i_m_source_file_index>
1320

> <i_lp_mmshare_version>
43012

> <i_f3d_flags>
0

> <s_epik_input>
W0NIMl0xW0NIMl1bQ0gyXVtDSDJdW0NIXTFbTkhdQyg9TylbTkhdW0NIMl1bQ0gyXWMyW2NIXVtjSF1bY0hdW2NIXW4y

> <s_epik_cmdline>
J2VwaWtfcHl0aG9uJywgJy1waCcsICc3LjAnLCAnLXRuJywgJzgnLCAnLW1hJywgJzIwMCcsICctbWV0YWxfYmluZGluZycsICctaW1hZScsICc8aW5maWxlLm1hZT4nLCAnLW9tYWUnLCAnPG91dGZpbGUubWFlPic=

> <r_epik_Ionization_Penalty>
1.56194

> <r_epik_Ionization_Penalty_Charging>
1.56188

> <r_epik_Ionization_Penalty_Neutral>
5.76468e-05

> <r_epik_State_Penalty>
1.65696

> <r_epik_Charging_Adjusted_Penalty>
3.21884

> <i_epik_Tot_Q>
1

> <i_epik_Tot_abs_Q>
1

> <r_epik_Metal_State_Penalty>
1.69837

> <b_epik_Metal_Only>
0

> <s_lp_Force_Field>
OPLS_2005

> <r_lp_Energy>
32.6171

> <b_lp_Chiralities_Consistent>
1

> <s_lp_Variant>
AV-unprocessed.smi:1320-2

> <Gold.Version>
5.8.1

> <Gold.Id.Protein>
6NUR|6NUR_protein|mol2

> <Gold.PLP.Fitness>
48.2206

> <Gold.PLP.PLP>
-35.8990

> <Gold.PLP.part.hbond>
-4.3965

> <Gold.PLP.part.metal>
0.0000

> <Gold.PLP.part.buried>
-4.6158

> <Gold.PLP.part.nonpolar>
-26.6430

> <Gold.PLP.part.repulsive>
0.1020

> <Gold.PLP.ligand.clash>
0.0000

> <Gold.PLP.ligand.torsion>
0.4965

> <Gold.PLP.Chemscore.Hbond>
4.4340

> <Gold.PLP.Chemscore.CHOScore>
0.0000

> <Gold.PLP.Chemscore.Metal>
0.0000

> <Gold.Chemscore.Hbonds>
donor molecule, donor type, donor heavy atom, donor atom, acceptor molecule, acceptor atom, score
      L1  H     3    18       P1  8028  0.60
      L1  H    11    37       P1  8028  2.00
      L1  H    12    27       P1  8029  1.00
      P1  H  6934  6946       L1     1  0.80

> <Gold.PLP.Chemscore.Internal.Correction>
0.0125

> <Gold.Rescore>
     Score         DG    S(hbond)    S(metal)    S(lipo)     H(rot)  DE(clash)    DE(int)     intcor
     20.26     -21.50       2.83        0.00      91.09       1.59       0.17       1.07       ----

> <Gold.Chemscore.Fitness>
20.2591

> <Gold.Chemscore.DG>
-21.5022

> <Gold.Chemscore.ZeroCoef>
-5.4800

> <Gold.Chemscore.Hbond>
2.8271

> <Gold.Chemscore.Metal>
0.0000

> <Gold.Chemscore.Lipo>
91.0948

> <Gold.Chemscore.Internal_Hbond>
0.0000

> <Gold.Chemscore.DEClash>
0.1701

> <Gold.Chemscore.DEInternal>
1.0729

> <Gold.Chemscore.Rot>
1.5932

> <Gold.Chemscore.Internal.Correction>
   9.000000E+99

> <Gold.Chemscore.Hbonds>
donor molecule, donor type, donor heavy atom, donor atom, acceptor molecule, acceptor atom, score
      L1  H     3    18       P1  8028  0.04
      L1  H    11    37       P1  8028  0.78
      L1  H    12    27       P1  8029  0.69
      P1  H  6934  6946       L1     1  0.80

> <Gold.Chemscore.Hbond.Weighted>
-9.4426

> <Gold.Chemscore.Metal.Weighted>
-0.0000

> <Gold.Chemscore.Lipo.Weighted>
-10.6581

> <Gold.Chemscore.Internal_Hbond.Weighted>
0.0000

> <Gold.Chemscore.DEClash.Weighted>
0.1701

> <Gold.Chemscore.DEInternal.Weighted>
1.0729

> <Gold.Chemscore.Rot.Weighted>
4.0785

> <Gold.Chemscore.Internal.Correction.Weighted>
   9.000000E+99

> <Gold.Protein.RotatedTorsions>
[ 6907 6896 6895 6894 ] final -112.82 input  -60.11 | X-H torsion
[ 7974 7965 7964 7962 ] final   26.13 input  175.53 | X-H torsion
[ 8008 7997 7996 7995 ] final  -49.62 input   59.86 | X-H torsion
[ 10167 10162 10161 10158 ] final  -88.76 input  -65.29 | X-H torsion
[ 10718 10713 10712 10709 ] final -127.02 input   66.30 | X-H torsion
[ 10763 10752 10751 10750 ] final   67.63 input  -60.55 | X-H torsion
[ 11005 11000 10999 10996 ] final   67.84 input  -57.11 | X-H torsion

> <Gold.Protein.ActiveResidues>
 VAL166  LYS551  ARG553  GLY616  TRP617  ASP618  TYR619  PRO620  LYS621  CYS622 
 ASP623  PHE694  ASN695  SER759  ASP760  ASP761  ALA762  ILE779  LEU786  VAL792 
 PHE793  MET794  SER795  GLU796  ALA797  LYS798  CYS799  TRP800  GLU811  SER814 

> <Gold.Protein.RotatedAtoms>
  150.7785  133.9033  159.3347 H   0  0  0  0  0  0  0  0  0  0  0  0  # atno 6907 bound_to 6896
  151.6902  135.0946  160.0241 H   0  0  0  0  0  0  0  0  0  0  0  0  # atno 6908 bound_to 6896
  152.3829  133.6533  159.6211 H   0  0  0  0  0  0  0  0  0  0  0  0  # atno 6909 bound_to 6896
  146.1853  139.7370  142.8871 H   0  0  0  0  0  0  0  0  0  0  0  0  # atno 7974 bound_to 7965
  154.4047  140.1292  156.4532 H   0  0  0  0  0  0  0  0  0  0  0  0  # atno 8008 bound_to 7997
  155.7345  140.3491  155.5055 H   0  0  0  0  0  0  0  0  0  0  0  0  # atno 8009 bound_to 7997
  155.9096  140.1033  157.1279 H   0  0  0  0  0  0  0  0  0  0  0  0  # atno 8010 bound_to 7997
  140.3716  143.2792  151.9494 H   0  0  0  0  0  0  0  0  0  0  0  0  # atno 10167 bound_to 10162
  156.1819  130.6737  151.0315 H   0  0  0  0  0  0  0  0  0  0  0  0  # atno 10718 bound_to 10713
  153.0195  135.5277  154.7009 H   0  0  0  0  0  0  0  0  0  0  0  0  # atno 10763 bound_to 10752
  154.6118  135.2879  155.0426 H   0  0  0  0  0  0  0  0  0  0  0  0  # atno 10764 bound_to 10752
  154.1445  135.6573  153.5002 H   0  0  0  0  0  0  0  0  0  0  0  0  # atno 10765 bound_to 10752
  139.9747  134.6842  156.0378 H   0  0  0  0  0  0  0  0  0  0  0  0  # atno 11005 bound_to 11000
  145.3956  141.0378  143.3099 LP  0  0  0  0  0  0  0  0  0  0  0  0  # atno 17320 bound_to 7965
  144.8387  139.5508  143.6910 LP  0  0  0  0  0  0  0  0  0  0  0  0  # atno 17321 bound_to 7965
  139.4803  144.5902  151.7785 LP  0  0  0  0  0  0  0  0  0  0  0  0  # atno 17342 bound_to 10162
  140.5028  144.1143  150.5975 LP  0  0  0  0  0  0  0  0  0  0  0  0  # atno 17343 bound_to 10162
  157.6873  131.0821  150.7206 LP  0  0  0  0  0  0  0  0  0  0  0  0  # atno 17370 bound_to 10713
  156.7263  130.4696  149.5510 LP  0  0  0  0  0  0  0  0  0  0  0  0  # atno 17371 bound_to 10713
  141.1424  133.6562  156.3769 LP  0  0  0  0  0  0  0  0  0  0  0  0  # atno 17394 bound_to 11000
  140.5220  134.6295  157.5321 LP  0  0  0  0  0  0  0  0  0  0  0  0  # atno 17395 bound_to 11000

$$$$
