AV-unprocessed.smi:2482|AV-procd|sdf|9775|dock7
  -GOLD-   2272013413D 1   1.00000     0.00000
 Structure written by MMmdl.
 35 36  0  0  0  0  0  0  0  0  2 V2000
  153.3484  142.2912  160.3051 C   0  0  0  0  0  0  0  0  0  0  0  0
  152.5127  142.2486  159.0394 C   0  0  0  0  0  0  0  0  0  0  0  0
  152.1365  143.4487  158.5462 N   0  0  0  0  0  0  0  0  0  0  0  0
  151.3962  143.4682  157.4191 C   0  0  0  0  0  0  0  0  0  0  0  0
  150.9923  142.3047  156.7370 C   0  0  0  0  0  0  0  0  0  0  0  0
  151.3715  141.0449  157.2595 C   0  0  0  0  0  0  0  0  0  0  0  0
  151.0387  139.8072  156.6429 N   0  0  0  0  0  0  0  0  0  0  0  0
  150.5032  139.5802  155.4287 C   0  0  0  0  0  0  0  0  0  0  0  0
  150.2191  140.4625  154.6186 O   0  0  0  0  0  0  0  0  0  0  0  0
  150.2510  138.1058  155.0755 C   0  0  2  0  0  0  0  0  0  0  0  0
  148.7459  137.7518  155.0230 C   0  0  0  0  0  0  0  0  0  0  0  0
  148.5584  136.3077  154.7536 N   0  3  2  0  0  0  0  0  0  0  0  0
  147.1333  135.9266  154.6558 C   0  0  0  0  0  0  0  0  0  0  0  0
  149.3032  135.4850  155.7326 C   0  0  0  0  0  0  0  0  0  0  0  0
  150.7831  135.8982  155.7563 C   0  0  0  0  0  0  0  0  0  0  0  0
  150.8846  137.2846  156.0559 O   0  0  0  0  0  0  0  0  0  0  0  0
  152.1621  141.0197  158.4323 C   0  0  0  0  0  0  0  0  0  0  0  0
  152.6841  139.5157  159.1154 Cl  0  0  0  0  0  0  0  0  0  0  0  0
  152.8437  141.7565  161.1100 H   0  0  0  0  0  0  0  0  0  0  0  0
  153.5206  143.3156  160.6382 H   0  0  0  0  0  0  0  0  0  0  0  0
  154.3193  141.8247  160.1354 H   0  0  0  0  0  0  0  0  0  0  0  0
  151.1220  144.4432  157.0442 H   0  0  0  0  0  0  0  0  0  0  0  0
  150.4180  142.4041  155.8294 H   0  0  0  0  0  0  0  0  0  0  0  0
  151.1451  138.9943  157.2328 H   0  0  0  0  0  0  0  0  0  0  0  0
  150.7087  137.9208  154.1022 H   0  0  0  0  0  0  0  0  0  0  0  0
  148.2616  138.0103  155.9668 H   0  0  0  0  0  0  0  0  0  0  0  0
  148.2498  138.3261  154.2391 H   0  0  0  0  0  0  0  0  0  0  0  0
  146.6150  136.1000  155.5998 H   0  0  0  0  0  0  0  0  0  0  0  0
  147.0341  134.8717  154.3988 H   0  0  0  0  0  0  0  0  0  0  0  0
  146.6333  136.5067  153.8795 H   0  0  0  0  0  0  0  0  0  0  0  0
  148.8653  135.6068  156.7249 H   0  0  0  0  0  0  0  0  0  0  0  0
  149.2166  134.4303  155.4696 H   0  0  0  0  0  0  0  0  0  0  0  0
  151.3197  135.3320  156.5176 H   0  0  0  0  0  0  0  0  0  0  0  0
  151.2644  135.6836  154.8008 H   0  0  0  0  0  0  0  0  0  0  0  0
  148.9696  136.1249  153.8491 H   0  0  0  0  0  0  0  0  0  0  0  0
  1  2  1  0  0  0  0
  1 19  1  0  0  0  0
  1 20  1  0  0  0  0
  1 21  1  0  0  0  0
  2 17  1  0  0  0  0
  2  3  2  0  0  0  0
  3  4  1  0  0  0  0
  4  5  2  0  0  0  0
  4 22  1  0  0  0  0
  5  6  1  0  0  0  0
  5 23  1  0  0  0  0
  6  7  1  0  0  0  0
  6 17  2  0  0  0  0
  7  8  1  0  0  0  0
  7 24  1  0  0  0  0
  8  9  2  0  0  0  0
  8 10  1  0  0  0  0
 10 16  1  0  0  0  0
 10 11  1  0  0  0  0
 10 25  1  0  0  0  0
 11 12  1  0  0  0  0
 11 26  1  0  0  0  0
 11 27  1  0  0  0  0
 12 13  1  0  0  0  0
 12 14  1  0  0  0  0
 12 35  1  0  0  0  0
 13 28  1  0  0  0  0
 13 29  1  0  0  0  0
 13 30  1  0  0  0  0
 14 15  1  0  0  0  0
 14 31  1  0  0  0  0
 14 32  1  0  0  0  0
 15 16  1  0  0  0  0
 15 33  1  0  0  0  0
 15 34  1  0  0  0  0
 17 18  1  0  0  0  0
M  CHG  1  12   1
M  END
> <s_m_source_file>
AV-unprocessed.smi

> <i_m_source_file_index>
2482

> <i_lp_mmshare_version>
43012

> <i_f3d_flags>
0

> <s_epik_input>
W0NIM11jMW5bY0hdW2NIXWMoYzFDbClbTkhdQyg9TylbQ0BASF0yW0NIMl1OKFtDSDNdKVtDSDJdW0NIMl1PMg==

> <s_epik_cmdline>
J2VwaWtfcHl0aG9uJywgJy1waCcsICc3LjAnLCAnLXRuJywgJzgnLCAnLW1hJywgJzIwMCcsICctbWV0YWxfYmluZGluZycsICctaW1hZScsICc8aW5maWxlLm1hZT4nLCAnLW9tYWUnLCAnPG91dGZpbGUubWFlPic=

> <r_epik_Ionization_Penalty>
0.314226

> <r_epik_Ionization_Penalty_Charging>
0.314023

> <r_epik_Ionization_Penalty_Neutral>
0.00020299

> <r_epik_State_Penalty>
0.308208

> <r_epik_Charging_Adjusted_Penalty>
0.62223

> <i_epik_Tot_Q>
1

> <i_epik_Tot_abs_Q>
1

> <r_epik_Metal_State_Penalty>
0.314444

> <b_epik_Metal_Only>
0

> <s_lp_Force_Field>
OPLS_2005

> <r_lp_Energy>
22.3098

> <b_lp_Chiralities_Consistent>
1

> <s_lp_Variant>
AV-unprocessed.smi:2482-1

> <Gold.Version>
5.8.1

> <Gold.Id.Protein>
6NUR|6NUR_protein|mol2

> <Gold.PLP.Fitness>
39.7811

> <Gold.PLP.PLP>
-28.7709

> <Gold.PLP.part.hbond>
-2.0000

> <Gold.PLP.part.metal>
0.0000

> <Gold.PLP.part.buried>
-4.0964

> <Gold.PLP.part.nonpolar>
-23.3469

> <Gold.PLP.part.repulsive>
0.2356

> <Gold.PLP.ligand.clash>
0.0000

> <Gold.PLP.ligand.torsion>
0.2246

> <Gold.PLP.Chemscore.Hbond>
2.9600

> <Gold.PLP.Chemscore.CHOScore>
0.8593

> <Gold.PLP.Chemscore.Metal>
0.0000

> <Gold.Chemscore.Hbonds>
donor molecule, donor type, donor heavy atom, donor atom, acceptor molecule, acceptor atom, score
      L1  H    12    35       P1  7948  2.00
      P1  H  7989  7998       L1     9  0.96
      L1  C     4    22       P1  8028  0.65

> <Gold.PLP.Chemscore.Internal.Correction>
0.0014

> <Gold.Rescore>
     Score         DG    S(hbond)    S(metal)    S(lipo)     H(rot)  DE(clash)    DE(int)     intcor
     16.58     -18.32       1.84        0.00      79.08       1.00       0.16       1.58       ----

> <Gold.Chemscore.Fitness>
16.5763

> <Gold.Chemscore.DG>
-18.3220

> <Gold.Chemscore.ZeroCoef>
-5.4800

> <Gold.Chemscore.Hbond>
1.8413

> <Gold.Chemscore.Metal>
0.0000

> <Gold.Chemscore.Lipo>
79.0786

> <Gold.Chemscore.Internal_Hbond>
0.0000

> <Gold.Chemscore.DEClash>
0.1617

> <Gold.Chemscore.DEInternal>
1.5841

> <Gold.Chemscore.Rot>
1.0000

> <Gold.Chemscore.Internal.Correction>
   9.000000E+99

> <Gold.Chemscore.Hbonds>
donor molecule, donor type, donor heavy atom, donor atom, acceptor molecule, acceptor atom, score
      L1  H    12    35       P1  7948  0.93
      P1  H  7989  7998       L1     9  0.79

> <Gold.Chemscore.Hbond.Weighted>
-6.1498

> <Gold.Chemscore.Metal.Weighted>
-0.0000

> <Gold.Chemscore.Lipo.Weighted>
-9.2522

> <Gold.Chemscore.Internal_Hbond.Weighted>
0.0000

> <Gold.Chemscore.DEClash.Weighted>
0.1617

> <Gold.Chemscore.DEInternal.Weighted>
1.5841

> <Gold.Chemscore.Rot.Weighted>
2.5600

> <Gold.Chemscore.Internal.Correction.Weighted>
   9.000000E+99

> <Gold.Protein.RotatedTorsions>
[ 6907 6896 6895 6894 ] final -100.98 input  -60.11 | X-H torsion
[ 7974 7965 7964 7962 ] final  -19.15 input  175.53 | X-H torsion
[ 8008 7997 7996 7995 ] final  171.93 input   59.86 | X-H torsion
[ 10167 10162 10161 10158 ] final  156.60 input  -65.29 | X-H torsion
[ 10718 10713 10712 10709 ] final  131.98 input   66.30 | X-H torsion
[ 10763 10752 10751 10750 ] final  177.70 input  -60.55 | X-H torsion
[ 11005 11000 10999 10996 ] final   38.15 input  -57.11 | X-H torsion

> <Gold.Protein.ActiveResidues>
 VAL166  LYS551  ARG553  GLY616  TRP617  ASP618  TYR619  PRO620  LYS621  CYS622 
 ASP623  PHE694  ASN695  SER759  ASP760  ASP761  ALA762  ILE779  LEU786  VAL792 
 PHE793  MET794  SER795  GLU796  ALA797  LYS798  CYS799  TRP800  GLU811  SER814 

> <Gold.Protein.RotatedAtoms>
  150.7137  134.0804  159.3895 H   0  0  0  0  0  0  0  0  0  0  0  0  # atno 6907 bound_to 6896
  151.8788  135.0459  160.0496 H   0  0  0  0  0  0  0  0  0  0  0  0  # atno 6908 bound_to 6896
  152.2584  133.5240  159.5404 H   0  0  0  0  0  0  0  0  0  0  0  0  # atno 6909 bound_to 6896
  146.1856  140.4022  142.8478 H   0  0  0  0  0  0  0  0  0  0  0  0  # atno 7974 bound_to 7965
  156.1223  140.1499  156.9186 H   0  0  0  0  0  0  0  0  0  0  0  0  # atno 8008 bound_to 7997
  154.4845  140.0869  156.7496 H   0  0  0  0  0  0  0  0  0  0  0  0  # atno 8009 bound_to 7997
  155.4405  140.3431  155.4291 H   0  0  0  0  0  0  0  0  0  0  0  0  # atno 8010 bound_to 7997
  139.4821  144.4993  151.8192 H   0  0  0  0  0  0  0  0  0  0  0  0  # atno 10167 bound_to 10162
  157.4916  131.1090  150.9549 H   0  0  0  0  0  0  0  0  0  0  0  0  # atno 10718 bound_to 10713
  154.4980  135.2782  155.1444 H   0  0  0  0  0  0  0  0  0  0  0  0  # atno 10763 bound_to 10752
  154.3089  135.6233  153.5460 H   0  0  0  0  0  0  0  0  0  0  0  0  # atno 10764 bound_to 10752
  152.9898  135.5715  154.5416 H   0  0  0  0  0  0  0  0  0  0  0  0  # atno 10765 bound_to 10752
  140.2154  134.3704  155.8029 H   0  0  0  0  0  0  0  0  0  0  0  0  # atno 11005 bound_to 11000
  144.8391  140.6829  143.6241 LP  0  0  0  0  0  0  0  0  0  0  0  0  # atno 17320 bound_to 7965
  145.3949  139.1609  143.4209 LP  0  0  0  0  0  0  0  0  0  0  0  0  # atno 17321 bound_to 7965
  140.4485  144.1888  150.5896 LP  0  0  0  0  0  0  0  0  0  0  0  0  # atno 17342 bound_to 10162
  140.4609  143.2449  151.9220 LP  0  0  0  0  0  0  0  0  0  0  0  0  # atno 17343 bound_to 10162
  157.0249  130.5688  149.5336 LP  0  0  0  0  0  0  0  0  0  0  0  0  # atno 17370 bound_to 10713
  156.0176  130.5271  150.8182 LP  0  0  0  0  0  0  0  0  0  0  0  0  # atno 17371 bound_to 10713
  141.2225  133.7165  156.8488 LP  0  0  0  0  0  0  0  0  0  0  0  0  # atno 17394 bound_to 11000
  140.1906  134.8968  157.3055 LP  0  0  0  0  0  0  0  0  0  0  0  0  # atno 17395 bound_to 11000

$$$$
