AV-unprocessed.smi:1389|AV-procd|sdf|5651|dock10
  -GOLD-   22720 5273D 1   1.00000     0.00000
 Structure written by MMmdl.
 52 54  0  0  0  0  0  0  0  0  2 V2000
  150.3891  134.0447  156.8374 C   0  0  0  0  0  0  0  0  0  0  0  0
  150.2434  135.1217  155.7321 C   0  0  1  0  0  0  0  0  0  0  0  0
  148.7291  135.3717  155.4719 C   0  0  0  0  0  0  0  0  0  0  0  0
  148.1740  134.5264  154.4182 N   0  0  0  0  0  0  0  0  0  0  0  0
  147.9482  133.2100  154.5291 C   0  0  0  0  0  0  0  0  0  0  0  0
  148.1972  132.5591  155.5437 O   0  0  0  0  0  0  0  0  0  0  0  0
  147.3995  132.7141  153.4078 N   0  0  0  0  0  0  0  0  0  0  0  0
  146.9909  131.3750  153.1466 C   0  0  0  0  0  0  0  0  0  0  0  0
  147.5506  130.2689  153.8367 C   0  0  0  0  0  0  0  0  0  0  0  0
  147.1147  128.9636  153.5382 C   0  0  0  0  0  0  0  0  0  0  0  0
  146.1331  128.7819  152.5482 C   0  0  0  0  0  0  0  0  0  0  0  0
  145.6336  129.8530  151.8974 N   0  3  0  0  0  0  0  0  0  0  0  0
  146.0133  131.1315  152.1429 C   0  0  0  0  0  0  0  0  0  0  0  0
  145.4391  132.1718  151.3810 N   0  0  0  0  0  0  0  0  0  0  0  0
  145.7643  132.1189  149.9574 C   0  0  0  0  0  0  0  0  0  0  0  0
  144.4891  132.5017  149.2014 C   0  0  0  0  0  0  0  0  0  0  0  0
  143.3792  132.1422  150.1813 C   0  0  0  0  0  0  0  0  0  0  0  0
  144.0165  132.4735  151.5284 C   0  0  0  0  0  0  0  0  0  0  0  0
  150.9972  136.3600  156.0365 N   0  0  0  0  0  0  0  0  0  0  0  0
  150.8020  136.8197  157.4167 C   0  0  0  0  0  0  0  0  0  0  0  0
  151.5585  138.1234  157.7259 C   0  0  0  0  0  0  0  0  0  0  0  0
  151.1630  139.1374  156.8124 O   0  0  0  0  0  0  0  0  0  0  0  0
  151.4071  138.7641  155.4636 C   0  0  0  0  0  0  0  0  0  0  0  0
  150.6456  137.4673  155.1398 C   0  0  0  0  0  0  0  0  0  0  0  0
  149.7911  133.1567  156.6365 H   0  0  0  0  0  0  0  0  0  0  0  0
  150.0814  134.4334  157.8088 H   0  0  0  0  0  0  0  0  0  0  0  0
  151.4115  133.6811  156.9283 H   0  0  0  0  0  0  0  0  0  0  0  0
  150.6609  134.6958  154.8182 H   0  0  0  0  0  0  0  0  0  0  0  0
  148.1617  135.1911  156.3855 H   0  0  0  0  0  0  0  0  0  0  0  0
  148.5262  136.4023  155.1843 H   0  0  0  0  0  0  0  0  0  0  0  0
  147.9358  134.9832  153.5499 H   0  0  0  0  0  0  0  0  0  0  0  0
  147.1614  133.3886  152.6956 H   0  0  0  0  0  0  0  0  0  0  0  0
  148.3180  130.3987  154.5846 H   0  0  0  0  0  0  0  0  0  0  0  0
  147.5315  128.1138  154.0589 H   0  0  0  0  0  0  0  0  0  0  0  0
  145.7414  127.8196  152.2522 H   0  0  0  0  0  0  0  0  0  0  0  0
  146.5829  132.7976  149.7171 H   0  0  0  0  0  0  0  0  0  0  0  0
  146.0739  131.1107  149.6777 H   0  0  0  0  0  0  0  0  0  0  0  0
  144.4788  133.5764  149.0137 H   0  0  0  0  0  0  0  0  0  0  0  0
  144.3947  131.9911  148.2428 H   0  0  0  0  0  0  0  0  0  0  0  0
  142.4541  132.6905  150.0016 H   0  0  0  0  0  0  0  0  0  0  0  0
  143.1608  131.0751  150.1225 H   0  0  0  0  0  0  0  0  0  0  0  0
  143.5230  131.9547  152.3501 H   0  0  0  0  0  0  0  0  0  0  0  0
  143.9237  133.5412  151.7299 H   0  0  0  0  0  0  0  0  0  0  0  0
  149.7382  136.9634  157.6120 H   0  0  0  0  0  0  0  0  0  0  0  0
  151.1579  136.0761  158.1267 H   0  0  0  0  0  0  0  0  0  0  0  0
  151.3401  138.4552  158.7410 H   0  0  0  0  0  0  0  0  0  0  0  0
  152.6369  137.9679  157.6655 H   0  0  0  0  0  0  0  0  0  0  0  0
  151.0789  139.5698  154.8069 H   0  0  0  0  0  0  0  0  0  0  0  0
  152.4781  138.6349  155.3003 H   0  0  0  0  0  0  0  0  0  0  0  0
  150.8750  137.2135  154.1067 H   0  0  0  0  0  0  0  0  0  0  0  0
  149.5722  137.6567  155.1895 H   0  0  0  0  0  0  0  0  0  0  0  0
  144.9315  129.6900  151.1754 H   0  0  0  0  0  0  0  0  0  0  0  0
  1  2  1  0  0  0  0
  1 25  1  0  0  0  0
  1 26  1  0  0  0  0
  1 27  1  0  0  0  0
  2  3  1  0  0  0  0
  2 19  1  0  0  0  0
  2 28  1  0  0  0  0
  3  4  1  0  0  0  0
  3 29  1  0  0  0  0
  3 30  1  0  0  0  0
  4  5  1  0  0  0  0
  4 31  1  0  0  0  0
  5  6  2  0  0  0  0
  5  7  1  0  0  0  0
  7  8  1  0  0  0  0
  7 32  1  0  0  0  0
  8 13  1  0  0  0  0
  8  9  2  0  0  0  0
  9 10  1  0  0  0  0
  9 33  1  0  0  0  0
 10 11  2  0  0  0  0
 10 34  1  0  0  0  0
 11 12  1  0  0  0  0
 11 35  1  0  0  0  0
 12 13  2  0  0  0  0
 12 52  1  0  0  0  0
 13 14  1  0  0  0  0
 14 18  1  0  0  0  0
 14 15  1  0  0  0  0
 15 16  1  0  0  0  0
 15 36  1  0  0  0  0
 15 37  1  0  0  0  0
 16 17  1  0  0  0  0
 16 38  1  0  0  0  0
 16 39  1  0  0  0  0
 17 18  1  0  0  0  0
 17 40  1  0  0  0  0
 17 41  1  0  0  0  0
 18 42  1  0  0  0  0
 18 43  1  0  0  0  0
 19 24  1  0  0  0  0
 19 20  1  0  0  0  0
 20 21  1  0  0  0  0
 20 44  1  0  0  0  0
 20 45  1  0  0  0  0
 21 22  1  0  0  0  0
 21 46  1  0  0  0  0
 21 47  1  0  0  0  0
 22 23  1  0  0  0  0
 23 24  1  0  0  0  0
 23 48  1  0  0  0  0
 23 49  1  0  0  0  0
 24 50  1  0  0  0  0
 24 51  1  0  0  0  0
M  CHG  1  12   1
M  END
> <s_m_source_file>
AV-unprocessed.smi

> <i_m_source_file_index>
1389

> <i_lp_mmshare_version>
43012

> <i_f3d_flags>
0

> <s_epik_input>
W0NIMl0xW0NIMl1PW0NIMl1bQ0gyXU4xW0NASF0oW0NIM10pW0NIMl1bTkhdQyg9TylbTkhdYzJbY0hdW2NIXVtjSF1uYzJOM1tDSDJdW0NIMl1bQ0gyXVtDSDJdMw==

> <s_epik_cmdline>
J2VwaWtfcHl0aG9uJywgJy1waCcsICc3LjAnLCAnLXRuJywgJzgnLCAnLW1hJywgJzIwMCcsICctbWV0YWxfYmluZGluZycsICctaW1hZScsICc8aW5maWxlLm1hZT4nLCAnLW9tYWUnLCAnPG91dGZpbGUubWFlPic=

> <r_epik_Ionization_Penalty>
1.37675

> <r_epik_Ionization_Penalty_Charging>
1.11074

> <r_epik_Ionization_Penalty_Neutral>
0.26601

> <r_epik_State_Penalty>
1.46015

> <r_epik_Charging_Adjusted_Penalty>
2.57089

> <i_epik_Tot_Q>
1

> <i_epik_Tot_abs_Q>
1

> <r_epik_Metal_State_Penalty>
1.54223

> <b_epik_Metal_Only>
0

> <s_lp_Force_Field>
OPLS_2005

> <r_lp_Energy>
63.8734

> <b_lp_Chiralities_Consistent>
1

> <s_lp_Variant>
AV-unprocessed.smi:1389-6

> <Gold.Version>
5.8.1

> <Gold.Id.Protein>
6NUR|6NUR_protein|mol2

> <Gold.PLP.Fitness>
42.5363

> <Gold.PLP.PLP>
-39.7674

> <Gold.PLP.part.hbond>
-2.0000

> <Gold.PLP.part.metal>
0.0000

> <Gold.PLP.part.buried>
-5.9974

> <Gold.PLP.part.nonpolar>
-32.7082

> <Gold.PLP.part.repulsive>
0.2409

> <Gold.PLP.ligand.clash>
0.0000

> <Gold.PLP.ligand.torsion>
0.9272

> <Gold.PLP.Chemscore.Hbond>
1.4820

> <Gold.PLP.Chemscore.CHOScore>
0.0000

> <Gold.PLP.Chemscore.Metal>
0.0000

> <Gold.Chemscore.Hbonds>
donor molecule, donor type, donor heavy atom, donor atom, acceptor molecule, acceptor atom, score
      L1  H     4    31       P1  7948  0.23

> <Gold.PLP.Chemscore.Internal.Correction>
0.1773

> <Gold.Rescore>
     Score         DG    S(hbond)    S(metal)    S(lipo)     H(rot)  DE(clash)    DE(int)     intcor
     12.27     -15.42       0.76        0.00      98.50       1.60       0.07       3.09       ----

> <Gold.Chemscore.Fitness>
12.2729

> <Gold.Chemscore.DG>
-15.4242

> <Gold.Chemscore.ZeroCoef>
-5.4800

> <Gold.Chemscore.Hbond>
0.7557

> <Gold.Chemscore.Metal>
0.0000

> <Gold.Chemscore.Lipo>
98.5041

> <Gold.Chemscore.Internal_Hbond>
0.0000

> <Gold.Chemscore.DEClash>
0.0657

> <Gold.Chemscore.DEInternal>
3.0856

> <Gold.Chemscore.Rot>
1.6035

> <Gold.Chemscore.Internal.Correction>
   9.000000E+99

> <Gold.Chemscore.Hbonds>
donor molecule, donor type, donor heavy atom, donor atom, acceptor molecule, acceptor atom, score
      L1  H     4    31       P1  7948  0.22

> <Gold.Chemscore.Hbond.Weighted>
-2.5241

> <Gold.Chemscore.Metal.Weighted>
-0.0000

> <Gold.Chemscore.Lipo.Weighted>
-11.5250

> <Gold.Chemscore.Internal_Hbond.Weighted>
0.0000

> <Gold.Chemscore.DEClash.Weighted>
0.0657

> <Gold.Chemscore.DEInternal.Weighted>
3.0856

> <Gold.Chemscore.Rot.Weighted>
4.1049

> <Gold.Chemscore.Internal.Correction.Weighted>
   9.000000E+99

> <Gold.Protein.RotatedTorsions>
[ 6907 6896 6895 6894 ] final   -8.09 input  -60.11 | X-H torsion
[ 7974 7965 7964 7962 ] final  -92.39 input  175.53 | X-H torsion
[ 8008 7997 7996 7995 ] final   36.92 input   59.86 | X-H torsion
[ 10167 10162 10161 10158 ] final   -1.78 input  -65.29 | X-H torsion
[ 10718 10713 10712 10709 ] final  127.47 input   66.30 | X-H torsion
[ 10763 10752 10751 10750 ] final   58.94 input  -60.55 | X-H torsion
[ 11005 11000 10999 10996 ] final   86.62 input  -57.11 | X-H torsion

> <Gold.Protein.ActiveResidues>
 VAL166  LYS551  ARG553  GLY616  TRP617  ASP618  TYR619  PRO620  LYS621  CYS622 
 ASP623  PHE694  ASN695  SER759  ASP760  ASP761  ALA762  ILE779  LEU786  VAL792 
 PHE793  MET794  SER795  GLU796  ALA797  LYS798  CYS799  TRP800  GLU811  SER814 

> <Gold.Protein.RotatedAtoms>
  151.4392  135.1018  159.9664 H   0  0  0  0  0  0  0  0  0  0  0  0  # atno 6907 bound_to 6896
  152.4929  133.8545  159.7229 H   0  0  0  0  0  0  0  0  0  0  0  0  # atno 6908 bound_to 6896
  150.9100  133.6951  159.2884 H   0  0  0  0  0  0  0  0  0  0  0  0  # atno 6909 bound_to 6896
  145.4004  140.9537  143.2290 H   0  0  0  0  0  0  0  0  0  0  0  0  # atno 7974 bound_to 7965
  155.1953  140.3311  155.4352 H   0  0  0  0  0  0  0  0  0  0  0  0  # atno 8008 bound_to 7997
  156.2427  140.1903  156.6993 H   0  0  0  0  0  0  0  0  0  0  0  0  # atno 8009 bound_to 7997
  154.6178  140.0599  156.9562 H   0  0  0  0  0  0  0  0  0  0  0  0  # atno 8010 bound_to 7997
  140.6824  143.6734  150.8165 H   0  0  0  0  0  0  0  0  0  0  0  0  # atno 10167 bound_to 10162
  157.5330  131.1098  150.8979 H   0  0  0  0  0  0  0  0  0  0  0  0  # atno 10718 bound_to 10713
  152.9882  135.5589  154.5633 H   0  0  0  0  0  0  0  0  0  0  0  0  # atno 10763 bound_to 10752
  154.5048  135.2799  155.1393 H   0  0  0  0  0  0  0  0  0  0  0  0  # atno 10764 bound_to 10752
  154.2809  135.6345  153.5399 H   0  0  0  0  0  0  0  0  0  0  0  0  # atno 10765 bound_to 10752
  139.8940  134.8368  156.2747 H   0  0  0  0  0  0  0  0  0  0  0  0  # atno 11005 bound_to 11000
  144.8378  139.5522  143.6914 LP  0  0  0  0  0  0  0  0  0  0  0  0  # atno 17320 bound_to 7965
  146.2754  139.6741  142.9266 LP  0  0  0  0  0  0  0  0  0  0  0  0  # atno 17321 bound_to 7965
  140.0437  143.5320  152.2706 LP  0  0  0  0  0  0  0  0  0  0  0  0  # atno 17342 bound_to 10162
  139.6157  144.7619  151.2852 LP  0  0  0  0  0  0  0  0  0  0  0  0  # atno 17343 bound_to 10162
  156.9555  130.5435  149.5284 LP  0  0  0  0  0  0  0  0  0  0  0  0  # atno 17370 bound_to 10713
  156.0437  130.5516  150.8831 LP  0  0  0  0  0  0  0  0  0  0  0  0  # atno 17371 bound_to 10713
  141.0078  133.7113  156.1063 LP  0  0  0  0  0  0  0  0  0  0  0  0  # atno 17394 bound_to 11000
  140.7409  134.4151  157.5555 LP  0  0  0  0  0  0  0  0  0  0  0  0  # atno 17395 bound_to 11000

$$$$
