AV-unprocessed.smi:102|AV-procd|sdf|963|dock5
  -GOLD-   2262017503D 1   1.00000     0.00000
 Structure written by MMmdl.
 43 44  0  0  0  0  0  0  0  0  2 V2000
  155.1306  133.6956  158.1603 C   0  0  0  0  0  0  0  0  0  0  0  0
  154.7752  135.0227  157.5034 C   0  0  0  0  0  0  0  0  0  0  0  0
  155.4358  135.4768  156.5692 O   0  0  0  0  0  0  0  0  0  0  0  0
  153.7010  135.5960  158.0631 O   0  0  0  0  0  0  0  0  0  0  0  0
  153.2560  136.8643  157.6076 C   0  0  0  0  0  0  0  0  0  0  0  0
  152.6245  137.6712  158.7544 C   0  0  2  0  0  0  0  0  0  0  0  0
  151.5840  136.9115  159.3679 O   0  0  0  0  0  0  0  0  0  0  0  0
  150.3573  137.5726  159.2518 C   0  0  2  0  0  0  0  0  0  0  0  0
  149.2920  136.5845  158.8365 N   0  0  0  0  0  0  0  0  0  0  0  0
  149.3736  135.9199  157.6246 C   0  0  0  0  0  0  0  0  0  0  0  0
  148.4087  135.0658  157.2280 C   0  0  0  0  0  0  0  0  0  0  0  0
  148.5166  134.4381  156.0444 F   0  0  0  0  0  0  0  0  0  0  0  0
  147.2515  134.8321  158.0896 C   0  0  0  0  0  0  0  0  0  0  0  0
  146.3740  134.0521  157.7229 O   0  0  0  0  0  0  0  0  0  0  0  0
  147.1968  135.5003  159.2782 N   0  5  0  0  0  0  0  0  0  0  0  0
  148.1690  136.3703  159.6813 C   0  0  0  0  0  0  0  0  0  0  0  0
  148.1188  136.9864  160.7459 O   0  0  0  0  0  0  0  0  0  0  0  0
  150.5240  138.6600  158.1895 C   0  0  1  0  0  0  0  0  0  0  0  0
  149.6593  139.7618  158.4347 O   0  0  0  0  0  0  0  0  0  0  0  0
  149.7922  140.8931  157.7258 C   0  0  0  0  0  0  0  0  0  0  0  0
  148.7563  141.9408  158.1093 C   0  0  0  0  0  0  0  0  0  0  0  0
  150.6387  141.1107  156.8586 O   0  0  0  0  0  0  0  0  0  0  0  0
  152.0010  139.0050  158.3175 C   0  0  1  0  0  0  0  0  0  0  0  0
  152.2026  139.9838  159.3341 O   0  0  0  0  0  0  0  0  0  0  0  0
  153.4464  140.3469  159.6913 C   0  0  0  0  0  0  0  0  0  0  0  0
  153.4483  141.4623  160.7281 C   0  0  0  0  0  0  0  0  0  0  0  0
  154.4946  139.8616  159.2657 O   0  0  0  0  0  0  0  0  0  0  0  0
  155.0730  133.7806  159.2461 H   0  0  0  0  0  0  0  0  0  0  0  0
  156.1444  133.3972  157.8920 H   0  0  0  0  0  0  0  0  0  0  0  0
  154.4414  132.9159  157.8355 H   0  0  0  0  0  0  0  0  0  0  0  0
  154.0869  137.4275  157.1800 H   0  0  0  0  0  0  0  0  0  0  0  0
  152.5236  136.7146  156.8136 H   0  0  0  0  0  0  0  0  0  0  0  0
  153.4006  137.8383  159.5022 H   0  0  0  0  0  0  0  0  0  0  0  0
  150.0826  137.9535  160.2370 H   0  0  0  0  0  0  0  0  0  0  0  0
  150.2192  136.0779  156.9743 H   0  0  0  0  0  0  0  0  0  0  0  0
  150.3301  138.2093  157.2148 H   0  0  0  0  0  0  0  0  0  0  0  0
  147.7501  141.5387  157.9875 H   0  0  0  0  0  0  0  0  0  0  0  0
  148.8533  142.8253  157.4794 H   0  0  0  0  0  0  0  0  0  0  0  0
  148.8872  142.2394  159.1494 H   0  0  0  0  0  0  0  0  0  0  0  0
  152.3970  139.3592  157.3643 H   0  0  0  0  0  0  0  0  0  0  0  0
  152.8582  142.3079  160.3748 H   0  0  0  0  0  0  0  0  0  0  0  0
  154.4650  141.8058  160.9203 H   0  0  0  0  0  0  0  0  0  0  0  0
  153.0199  141.1075  161.6655 H   0  0  0  0  0  0  0  0  0  0  0  0
  1  2  1  0  0  0  0
  1 28  1  0  0  0  0
  1 29  1  0  0  0  0
  1 30  1  0  0  0  0
  2  3  2  0  0  0  0
  2  4  1  0  0  0  0
  4  5  1  0  0  0  0
  5  6  1  0  0  0  0
  5 31  1  0  0  0  0
  5 32  1  0  0  0  0
  6 23  1  0  0  0  0
  6  7  1  0  0  0  0
  6 33  1  0  0  0  0
  7  8  1  0  0  0  0
  8  9  1  0  0  0  0
  8 18  1  0  0  0  0
  8 34  1  0  0  0  0
  9 16  1  0  0  0  0
  9 10  1  0  0  0  0
 10 11  2  0  0  0  0
 10 35  1  0  0  0  0
 11 12  1  0  0  0  0
 11 13  1  0  0  0  0
 13 14  2  0  0  0  0
 13 15  1  0  0  0  0
 15 16  1  0  0  0  0
 16 17  2  0  0  0  0
 18 19  1  0  0  0  0
 18 23  1  0  0  0  0
 18 36  1  0  0  0  0
 19 20  1  0  0  0  0
 20 21  1  0  0  0  0
 20 22  2  0  0  0  0
 21 37  1  0  0  0  0
 21 38  1  0  0  0  0
 21 39  1  0  0  0  0
 23 24  1  0  0  0  0
 23 40  1  0  0  0  0
 24 25  1  0  0  0  0
 25 26  1  0  0  0  0
 25 27  2  0  0  0  0
 26 41  1  0  0  0  0
 26 42  1  0  0  0  0
 26 43  1  0  0  0  0
M  CHG  1  15  -1
M  END
> <s_m_source_file>
AV-unprocessed.smi

> <i_m_source_file_index>
102

> <i_lp_mmshare_version>
43012

> <i_f3d_flags>
0

> <s_epik_input>
W0NIM11DKD1PKU9bQ0gyXVtDQEBIXTFPW0NASF0oW0NAQEhdKE9DKD1PKVtDSDNdKVtDQEhdMU9DKD1PKVtDSDNdKW4yW2NIXWMoRiljKD1PKVtuSF1jMj1P

> <s_epik_cmdline>
J2VwaWtfcHl0aG9uJywgJy1waCcsICc3LjAnLCAnLXRuJywgJzgnLCAnLW1hJywgJzIwMCcsICctbWV0YWxfYmluZGluZycsICctaW1hZScsICc8aW5maWxlLm1hZT4nLCAnLW9tYWUnLCAnPG91dGZpbGUubWFlPic=

> <r_epik_Ionization_Penalty>
1.40304

> <r_epik_Ionization_Penalty_Charging>
1.43915e-08

> <r_epik_Ionization_Penalty_Neutral>
1.40304

> <r_epik_State_Penalty>
1.48536

> <r_epik_Charging_Adjusted_Penalty>
1.48536

> <i_epik_Tot_Q>
-1

> <i_epik_Tot_abs_Q>
1

> <r_epik_Metal_State_Penalty>
0.00663881

> <b_epik_Metal_Only>
0

> <s_epik_Chemistry_Notes>
This compound has an ester and may undergo hydrolysis at high or low pH. This compound contains an acetal/aminal-like group ( X-CH(R)-Y where X, Y are N, S, or O) that may be acid/base labile, releasing an aldehyde.

> <s_lp_Force_Field>
OPLS_2005

> <r_lp_Energy>
27.0192

> <b_lp_Chiralities_Consistent>
1

> <s_lp_Variant>
AV-unprocessed.smi:102-19

> <Gold.Version>
5.8.1

> <Gold.Id.Protein>
6NUR|6NUR_protein|mol2

> <Gold.PLP.Fitness>
41.6417

> <Gold.PLP.PLP>
-28.1802

> <Gold.PLP.part.hbond>
-6.0000

> <Gold.PLP.part.metal>
0.0000

> <Gold.PLP.part.buried>
-5.6988

> <Gold.PLP.part.nonpolar>
-16.6553

> <Gold.PLP.part.repulsive>
0.0345

> <Gold.PLP.ligand.clash>
0.0000

> <Gold.PLP.ligand.torsion>
0.2942

> <Gold.PLP.Chemscore.Hbond>
4.6480

> <Gold.PLP.Chemscore.CHOScore>
0.0000

> <Gold.PLP.Chemscore.Metal>
0.0000

> <Gold.Chemscore.Hbonds>
donor molecule, donor type, donor heavy atom, donor atom, acceptor molecule, acceptor atom, score
      P1  H  6896  6909       L1     7  0.96
      P1  H  6931  6943       L1    17  0.94
      P1  H  6934  6947       L1    17  0.35
      P1  H  7997  8009       L1    27  1.00
      P1  H 10752 10763       L1     3  1.00

> <Gold.PLP.Chemscore.Internal.Correction>
0.1059

> <Gold.Rescore>
     Score         DG    S(hbond)    S(metal)    S(lipo)     H(rot)  DE(clash)    DE(int)     intcor
     13.77     -14.51       4.57        0.00      34.11       4.00       0.35       0.39       ----

> <Gold.Chemscore.Fitness>
13.7704

> <Gold.Chemscore.DG>
-14.5059

> <Gold.Chemscore.ZeroCoef>
-5.4800

> <Gold.Chemscore.Hbond>
4.5697

> <Gold.Chemscore.Metal>
0.0000

> <Gold.Chemscore.Lipo>
34.1067

> <Gold.Chemscore.Internal_Hbond>
0.0000

> <Gold.Chemscore.DEClash>
0.3489

> <Gold.Chemscore.DEInternal>
0.3867

> <Gold.Chemscore.Rot>
3.9951

> <Gold.Chemscore.Internal.Correction>
   9.000000E+99

> <Gold.Chemscore.Hbonds>
donor molecule, donor type, donor heavy atom, donor atom, acceptor molecule, acceptor atom, score
      P1  H  6896  6909       L1     7  0.60
      P1  H  6931  6943       L1    17  0.90
      P1  H  6934  6947       L1    17  0.35
      P1  H  7997  8009       L1    27  0.91
      P1  H 10752 10763       L1     3  0.74

> <Gold.Chemscore.Hbond.Weighted>
-15.2628

> <Gold.Chemscore.Metal.Weighted>
-0.0000

> <Gold.Chemscore.Lipo.Weighted>
-3.9905

> <Gold.Chemscore.Internal_Hbond.Weighted>
0.0000

> <Gold.Chemscore.DEClash.Weighted>
0.3489

> <Gold.Chemscore.DEInternal.Weighted>
0.3867

> <Gold.Chemscore.Rot.Weighted>
10.2274

> <Gold.Chemscore.Internal.Correction.Weighted>
   9.000000E+99

> <Gold.Protein.RotatedTorsions>
[ 6907 6896 6895 6894 ] final   96.92 input  -60.11 | X-H torsion
[ 7974 7965 7964 7962 ] final   43.13 input  175.53 | X-H torsion
[ 8008 7997 7996 7995 ] final  117.01 input   59.86 | X-H torsion
[ 10167 10162 10161 10158 ] final  179.61 input  -65.29 | X-H torsion
[ 10718 10713 10712 10709 ] final  -82.16 input   66.30 | X-H torsion
[ 10763 10752 10751 10750 ] final -176.04 input  -60.55 | X-H torsion
[ 11005 11000 10999 10996 ] final -121.22 input  -57.11 | X-H torsion

> <Gold.Protein.ActiveResidues>
 VAL166  LYS551  ARG553  GLY616  TRP617  ASP618  TYR619  PRO620  LYS621  CYS622 
 ASP623  PHE694  ASN695  SER759  ASP760  ASP761  ALA762  ILE779  LEU786  VAL792 
 PHE793  MET794  SER795  GLU796  ALA797  LYS798  CYS799  TRP800  GLU811  SER814 

> <Gold.Protein.RotatedAtoms>
  152.5429  134.0812  159.8236 H   0  0  0  0  0  0  0  0  0  0  0  0  # atno 6907 bound_to 6896
  151.0914  133.5306  159.2622 H   0  0  0  0  0  0  0  0  0  0  0  0  # atno 6908 bound_to 6896
  151.2096  135.0484  159.8960 H   0  0  0  0  0  0  0  0  0  0  0  0  # atno 6909 bound_to 6896
  146.0681  139.5221  142.9615 H   0  0  0  0  0  0  0  0  0  0  0  0  # atno 7974 bound_to 7965
  156.2471  140.2905  156.0612 H   0  0  0  0  0  0  0  0  0  0  0  0  # atno 8008 bound_to 7997
  155.1773  140.0403  157.2892 H   0  0  0  0  0  0  0  0  0  0  0  0  # atno 8009 bound_to 7997
  154.6284  140.2493  155.7471 H   0  0  0  0  0  0  0  0  0  0  0  0  # atno 8010 bound_to 7997
  139.5344  144.2540  152.0761 H   0  0  0  0  0  0  0  0  0  0  0  0  # atno 10167 bound_to 10162
  156.0038  130.4626  150.4063 H   0  0  0  0  0  0  0  0  0  0  0  0  # atno 10718 bound_to 10713
  154.5772  135.2833  155.0769 H   0  0  0  0  0  0  0  0  0  0  0  0  # atno 10763 bound_to 10752
  154.2119  135.6406  153.5121 H   0  0  0  0  0  0  0  0  0  0  0  0  # atno 10764 bound_to 10752
  153.0076  135.5493  154.6414 H   0  0  0  0  0  0  0  0  0  0  0  0  # atno 10765 bound_to 10752
  141.0086  134.0298  157.3444 H   0  0  0  0  0  0  0  0  0  0  0  0  # atno 11005 bound_to 11000
  145.6440  141.0278  143.1796 LP  0  0  0  0  0  0  0  0  0  0  0  0  # atno 17320 bound_to 7965
  144.7215  139.8015  143.7380 LP  0  0  0  0  0  0  0  0  0  0  0  0  # atno 17321 bound_to 7965
  140.2009  144.4659  150.6432 LP  0  0  0  0  0  0  0  0  0  0  0  0  # atno 17342 bound_to 10162
  140.6542  143.2233  151.6008 LP  0  0  0  0  0  0  0  0  0  0  0  0  # atno 17343 bound_to 10162
  157.2128  131.0464  151.2589 LP  0  0  0  0  0  0  0  0  0  0  0  0  # atno 17370 bound_to 10713
  157.3872  130.7263  149.6672 LP  0  0  0  0  0  0  0  0  0  0  0  0  # atno 17371 bound_to 10713
  139.9077  135.0183  156.7558 LP  0  0  0  0  0  0  0  0  0  0  0  0  # atno 17394 bound_to 11000
  140.6771  133.9507  155.7889 LP  0  0  0  0  0  0  0  0  0  0  0  0  # atno 17395 bound_to 11000

$$$$
