AV-unprocessed.smi:2661|AV-procd|sdf|10316|dock7
  -GOLD-   2272014333D 1   1.00000     0.00000
 Structure written by MMmdl.
 44 46  0  0  0  0  0  0  0  0  1 V2000
  146.1383  131.3538  151.9119 C   0  0  0  0  0  0  0  0  0  0  0  0
  147.0210  131.9802  152.8866 N   0  0  0  0  0  0  0  0  0  0  0  0
  148.1949  131.2934  153.3873 C   0  0  0  0  0  0  0  0  0  0  0  0
  148.9960  132.3888  154.1008 C   0  0  0  0  0  0  0  0  0  0  0  0
  148.0001  133.5260  154.3921 C   0  0  1  0  0  0  0  0  0  0  0  0
  148.6188  134.8216  154.1179 N   0  0  0  0  0  0  0  0  0  0  0  0
  148.9853  135.7144  155.0487 C   0  0  0  0  0  0  0  0  0  0  0  0
  148.8610  135.5232  156.2580 O   0  0  0  0  0  0  0  0  0  0  0  0
  149.5126  136.8142  154.4839 N   0  0  0  0  0  0  0  0  0  0  0  0
  150.0185  137.9803  155.1195 C   0  0  0  0  0  0  0  0  0  0  0  0
  150.0233  138.0166  156.5271 C   0  0  0  0  0  0  0  0  0  0  0  0
  150.5290  139.1528  157.1859 C   0  0  0  0  0  0  0  0  0  0  0  0
  151.0289  140.2306  156.4178 C   0  0  0  0  0  0  0  0  0  0  0  0
  151.5346  141.3844  157.0559 N   0  0  0  0  0  0  0  0  0  0  0  0
  151.9144  141.2186  158.4571 C   0  0  0  0  0  0  0  0  0  0  0  0
  152.7235  142.4342  158.9416 C   0  0  0  0  0  0  0  0  0  0  0  0
  151.9871  143.6297  158.7059 O   0  0  0  0  0  0  0  0  0  0  0  0
  151.7291  143.8267  157.3196 C   0  0  0  0  0  0  0  0  0  0  0  0
  150.8805  142.6627  156.7806 C   0  0  0  0  0  0  0  0  0  0  0  0
  151.0463  140.1849  155.0632 N   0  0  0  0  0  0  0  0  0  0  0  0
  150.5577  139.0948  154.4344 C   0  0  0  0  0  0  0  0  0  0  0  0
  146.8931  133.2145  153.3839 C   0  0  0  0  0  0  0  0  0  0  0  0
  145.9984  134.0110  153.0999 O   0  0  0  0  0  0  0  0  0  0  0  0
  146.2336  131.8453  150.9432 H   0  0  0  0  0  0  0  0  0  0  0  0
  145.0981  131.4228  152.2322 H   0  0  0  0  0  0  0  0  0  0  0  0
  146.3816  130.2985  151.7839 H   0  0  0  0  0  0  0  0  0  0  0  0
  147.8840  130.5153  154.0860 H   0  0  0  0  0  0  0  0  0  0  0  0
  148.7666  130.8282  152.5834 H   0  0  0  0  0  0  0  0  0  0  0  0
  149.4704  132.0184  155.0102 H   0  0  0  0  0  0  0  0  0  0  0  0
  149.7940  132.7324  153.4397 H   0  0  0  0  0  0  0  0  0  0  0  0
  147.6058  133.4538  155.4073 H   0  0  0  0  0  0  0  0  0  0  0  0
  148.7600  135.0609  153.1477 H   0  0  0  0  0  0  0  0  0  0  0  0
  149.6152  136.7910  153.4800 H   0  0  0  0  0  0  0  0  0  0  0  0
  149.6416  137.1845  157.1006 H   0  0  0  0  0  0  0  0  0  0  0  0
  150.5405  139.1773  158.2654 H   0  0  0  0  0  0  0  0  0  0  0  0
  151.0091  141.1113  159.0562 H   0  0  0  0  0  0  0  0  0  0  0  0
  152.5052  140.3171  158.6126 H   0  0  0  0  0  0  0  0  0  0  0  0
  152.9265  142.3480  160.0090 H   0  0  0  0  0  0  0  0  0  0  0  0
  153.6899  142.4834  158.4370 H   0  0  0  0  0  0  0  0  0  0  0  0
  151.1993  144.7701  157.1868 H   0  0  0  0  0  0  0  0  0  0  0  0
  152.6694  143.9096  156.7716 H   0  0  0  0  0  0  0  0  0  0  0  0
  150.7349  142.7898  155.7071 H   0  0  0  0  0  0  0  0  0  0  0  0
  149.8945  142.6724  157.2474 H   0  0  0  0  0  0  0  0  0  0  0  0
  150.6278  139.1282  153.3587 H   0  0  0  0  0  0  0  0  0  0  0  0
  1  2  1  0  0  0  0
  1 24  1  0  0  0  0
  1 25  1  0  0  0  0
  1 26  1  0  0  0  0
  2 22  1  0  0  0  0
  2  3  1  0  0  0  0
  3  4  1  0  0  0  0
  3 27  1  0  0  0  0
  3 28  1  0  0  0  0
  4  5  1  0  0  0  0
  4 29  1  0  0  0  0
  4 30  1  0  0  0  0
  5  6  1  0  0  0  0
  5 22  1  0  0  0  0
  5 31  1  0  0  0  0
  6  7  1  0  0  0  0
  6 32  1  0  0  0  0
  7  8  2  0  0  0  0
  7  9  1  0  0  0  0
  9 10  1  0  0  0  0
  9 33  1  0  0  0  0
 10 21  1  0  0  0  0
 10 11  2  0  0  0  0
 11 12  1  0  0  0  0
 11 34  1  0  0  0  0
 12 13  2  0  0  0  0
 12 35  1  0  0  0  0
 13 14  1  0  0  0  0
 13 20  1  0  0  0  0
 14 19  1  0  0  0  0
 14 15  1  0  0  0  0
 15 16  1  0  0  0  0
 15 36  1  0  0  0  0
 15 37  1  0  0  0  0
 16 17  1  0  0  0  0
 16 38  1  0  0  0  0
 16 39  1  0  0  0  0
 17 18  1  0  0  0  0
 18 19  1  0  0  0  0
 18 40  1  0  0  0  0
 18 41  1  0  0  0  0
 19 42  1  0  0  0  0
 19 43  1  0  0  0  0
 20 21  2  0  0  0  0
 21 44  1  0  0  0  0
 22 23  2  0  0  0  0
M  END
> <s_m_source_file>
AV-unprocessed.smi

> <i_m_source_file_index>
2661

> <i_lp_mmshare_version>
43012

> <i_f3d_flags>
0

> <s_epik_input>
W0NIM11OMVtDSDJdW0NIMl1bQ0BIXShDMT1PKVtOSF1DKD1PKVtOSF1jMltjSF1bY0hdYyhuW2NIXTIpTjNbQ0gyXVtDSDJdT1tDSDJdW0NIMl0z

> <s_epik_cmdline>
J2VwaWtfcHl0aG9uJywgJy1waCcsICc3LjAnLCAnLXRuJywgJzgnLCAnLW1hJywgJzIwMCcsICctbWV0YWxfYmluZGluZycsICctaW1hZScsICc8aW5maWxlLm1hZT4nLCAnLW9tYWUnLCAnPG91dGZpbGUubWFlPic=

> <r_lp_tautomer_probability>
1

> <r_epik_Ionization_Penalty>
0.00172037

> <r_epik_Ionization_Penalty_Charging>
0

> <r_epik_Ionization_Penalty_Neutral>
0.00172037

> <r_epik_State_Penalty>
0.00114015

> <r_epik_Charging_Adjusted_Penalty>
0.00114015

> <i_epik_Tot_Q>
0

> <i_epik_Tot_abs_Q>
0

> <r_epik_Metal_State_Penalty>
-0

> <b_epik_Metal_Only>
0

> <s_lp_Force_Field>
OPLS_2005

> <r_lp_Energy>
30.3032

> <b_lp_Chiralities_Consistent>
1

> <s_lp_Variant>
AV-unprocessed.smi:2661-1

> <Gold.Version>
5.8.1

> <Gold.Id.Protein>
6NUR|6NUR_protein|mol2

> <Gold.PLP.Fitness>
43.1023

> <Gold.PLP.PLP>
-32.8934

> <Gold.PLP.part.hbond>
-3.0000

> <Gold.PLP.part.metal>
0.0000

> <Gold.PLP.part.buried>
-1.7974

> <Gold.PLP.part.nonpolar>
-27.3794

> <Gold.PLP.part.repulsive>
0.2297

> <Gold.PLP.ligand.clash>
0.0000

> <Gold.PLP.ligand.torsion>
0.4758

> <Gold.PLP.Chemscore.Hbond>
2.6000

> <Gold.PLP.Chemscore.CHOScore>
0.9944

> <Gold.PLP.Chemscore.Metal>
0.0000

> <Gold.Chemscore.Hbonds>
donor molecule, donor type, donor heavy atom, donor atom, acceptor molecule, acceptor atom, score
      L1  H     6    32       P1  7948  1.00
      L1  H     9    33       P1  7948  0.99
      P1  H  7989  7998       L1    20  0.60
      L1  C    21    44       P1  7957  0.89

> <Gold.PLP.Chemscore.Internal.Correction>
0.3770

> <Gold.Rescore>
     Score         DG    S(hbond)    S(metal)    S(lipo)     H(rot)  DE(clash)    DE(int)     intcor
     15.93     -17.70       1.90        0.00      77.96       1.26       0.06       1.72       ----

> <Gold.Chemscore.Fitness>
15.9258

> <Gold.Chemscore.DG>
-17.6995

> <Gold.Chemscore.ZeroCoef>
-5.4800

> <Gold.Chemscore.Hbond>
1.8961

> <Gold.Chemscore.Metal>
0.0000

> <Gold.Chemscore.Lipo>
77.9594

> <Gold.Chemscore.Internal_Hbond>
0.0000

> <Gold.Chemscore.DEClash>
0.0556

> <Gold.Chemscore.DEInternal>
1.7181

> <Gold.Chemscore.Rot>
1.2636

> <Gold.Chemscore.Internal.Correction>
   9.000000E+99

> <Gold.Chemscore.Hbonds>
donor molecule, donor type, donor heavy atom, donor atom, acceptor molecule, acceptor atom, score
      L1  H     6    32       P1  7948  0.48
      L1  H     9    33       P1  7948  0.65
      P1  H  7989  7998       L1    20  0.04

> <Gold.Chemscore.Hbond.Weighted>
-6.3331

> <Gold.Chemscore.Metal.Weighted>
-0.0000

> <Gold.Chemscore.Lipo.Weighted>
-9.1212

> <Gold.Chemscore.Internal_Hbond.Weighted>
0.0000

> <Gold.Chemscore.DEClash.Weighted>
0.0556

> <Gold.Chemscore.DEInternal.Weighted>
1.7181

> <Gold.Chemscore.Rot.Weighted>
3.2348

> <Gold.Chemscore.Internal.Correction.Weighted>
   9.000000E+99

> <Gold.Protein.RotatedTorsions>
[ 6907 6896 6895 6894 ] final  159.91 input  -60.11 | X-H torsion
[ 7974 7965 7964 7962 ] final  129.73 input  175.53 | X-H torsion
[ 8008 7997 7996 7995 ] final    7.02 input   59.86 | X-H torsion
[ 10167 10162 10161 10158 ] final  -98.26 input  -65.29 | X-H torsion
[ 10718 10713 10712 10709 ] final -148.40 input   66.30 | X-H torsion
[ 10763 10752 10751 10750 ] final  148.62 input  -60.55 | X-H torsion
[ 11005 11000 10999 10996 ] final -144.08 input  -57.11 | X-H torsion

> <Gold.Protein.ActiveResidues>
 VAL166  LYS551  ARG553  GLY616  TRP617  ASP618  TYR619  PRO620  LYS621  CYS622 
 ASP623  PHE694  ASN695  SER759  ASP760  ASP761  ALA762  ILE779  LEU786  VAL792 
 PHE793  MET794  SER795  GLU796  ALA797  LYS798  CYS799  TRP800  GLU811  SER814 

> <Gold.Protein.RotatedAtoms>
  151.9785  133.3749  159.4097 H   0  0  0  0  0  0  0  0  0  0  0  0  # atno 6907 bound_to 6896
  150.6938  134.4064  159.5151 H   0  0  0  0  0  0  0  0  0  0  0  0  # atno 6908 bound_to 6896
  152.1780  134.8778  160.0579 H   0  0  0  0  0  0  0  0  0  0  0  0  # atno 6909 bound_to 6896
  145.0255  139.4092  143.5176 H   0  0  0  0  0  0  0  0  0  0  0  0  # atno 7974 bound_to 7965
  154.7484  140.2762  155.6313 H   0  0  0  0  0  0  0  0  0  0  0  0  # atno 8008 bound_to 7997
  156.2890  140.2683  156.2157 H   0  0  0  0  0  0  0  0  0  0  0  0  # atno 8009 bound_to 7997
  155.0168  140.0372  157.2411 H   0  0  0  0  0  0  0  0  0  0  0  0  # atno 8010 bound_to 7997
  140.2748  143.3320  152.0499 H   0  0  0  0  0  0  0  0  0  0  0  0  # atno 10167 bound_to 10162
  156.4198  130.8023  151.2245 H   0  0  0  0  0  0  0  0  0  0  0  0  # atno 10718 bound_to 10713
  154.0577  135.2876  155.3330 H   0  0  0  0  0  0  0  0  0  0  0  0  # atno 10763 bound_to 10752
  154.6828  135.5257  153.8289 H   0  0  0  0  0  0  0  0  0  0  0  0  # atno 10764 bound_to 10752
  153.0535  135.6586  154.0768 H   0  0  0  0  0  0  0  0  0  0  0  0  # atno 10765 bound_to 10752
  140.8060  134.2801  157.4960 H   0  0  0  0  0  0  0  0  0  0  0  0  # atno 11005 bound_to 11000
  146.3491  139.9777  142.8699 LP  0  0  0  0  0  0  0  0  0  0  0  0  # atno 17320 bound_to 7965
  145.1838  140.9780  143.4250 LP  0  0  0  0  0  0  0  0  0  0  0  0  # atno 17321 bound_to 7965
  139.4979  144.6632  151.6416 LP  0  0  0  0  0  0  0  0  0  0  0  0  # atno 17342 bound_to 10162
  140.5860  143.9862  150.6296 LP  0  0  0  0  0  0  0  0  0  0  0  0  # atno 17343 bound_to 10162
  157.7508  131.0232  150.3823 LP  0  0  0  0  0  0  0  0  0  0  0  0  # atno 17370 bound_to 10713
  156.4138  130.3939  149.6873 LP  0  0  0  0  0  0  0  0  0  0  0  0  # atno 17371 bound_to 10713
  139.8718  134.9456  156.3915 LP  0  0  0  0  0  0  0  0  0  0  0  0  # atno 17394 bound_to 11000
  140.9246  133.7621  155.9949 LP  0  0  0  0  0  0  0  0  0  0  0  0  # atno 17395 bound_to 11000

$$$$
