AV-unprocessed.smi:103|AV-procd|sdf|982|dock3
  -GOLD-   2262017543D 1   1.00000     0.00000
 Structure written by MMmdl.
 53 55  0  0  0  0  0  0  0  0  1 V2000
  147.2711  135.3830  161.6850 C   0  0  0  0  0  0  0  0  0  0  0  0
  147.3977  136.3728  160.5345 C   0  0  0  0  0  0  0  0  0  0  0  0
  146.4227  136.9984  160.1174 O   0  0  0  0  0  0  0  0  0  0  0  0
  148.6550  136.4598  160.0704 O   0  0  0  0  0  0  0  0  0  0  0  0
  148.9395  137.2543  158.9289 C   0  0  0  0  0  0  0  0  0  0  0  0
  149.9150  136.4972  158.0116 C   0  0  1  0  0  0  0  0  0  0  0  0
  149.1389  135.9197  156.9604 O   0  0  0  0  0  0  0  0  0  0  0  0
  149.6170  136.3360  155.7239 C   0  0  1  0  0  0  0  0  0  0  0  0
  148.4656  136.5090  154.7856 N   0  0  0  0  0  0  0  0  0  0  0  0
  147.6764  135.5578  154.1701 C   0  0  0  0  0  0  0  0  0  0  0  0
  147.7900  133.7841  154.3746 S   0  0  0  0  0  0  0  0  0  0  0  0
  148.9841  133.3296  153.0525 C   0  0  0  0  0  0  0  0  0  0  0  0
  148.4036  133.5409  155.6895 O   0  0  0  0  0  0  0  0  0  0  0  0
  146.4704  133.2211  154.0515 O   0  0  0  0  0  0  0  0  0  0  0  0
  146.6820  135.9999  153.4488 N   0  0  0  0  0  0  0  0  0  0  0  0
  146.8311  137.3777  153.5175 C   0  0  0  0  0  0  0  0  0  0  0  0
  146.1248  138.4747  152.9631 C   0  0  0  0  0  0  0  0  0  0  0  0
  145.0517  138.3298  152.1732 N   0  0  0  0  0  0  0  0  0  0  0  0
  146.5512  139.7280  153.2453 N   0  0  0  0  0  0  0  0  0  0  0  0
  147.6182  139.8991  154.0322 C   0  0  0  0  0  0  0  0  0  0  0  0
  148.3766  138.9721  154.6224 N   0  0  0  0  0  0  0  0  0  0  0  0
  147.9464  137.7082  154.3395 C   0  0  0  0  0  0  0  0  0  0  0  0
  150.3396  137.6544  155.9526 C   0  0  2  0  0  0  0  0  0  0  0  0
  151.3275  137.8415  154.9501 O   0  0  0  0  0  0  0  0  0  0  0  0
  151.9959  139.0021  154.8672 C   0  0  0  0  0  0  0  0  0  0  0  0
  153.4048  138.8197  154.3196 C   0  0  0  0  0  0  0  0  0  0  0  0
  151.5676  140.1111  155.1864 O   0  0  0  0  0  0  0  0  0  0  0  0
  150.9587  137.3941  157.3126 C   0  0  1  0  0  0  0  0  0  0  0  0
  151.1925  138.6298  157.9778 O   0  0  0  0  0  0  0  0  0  0  0  0
  152.4187  139.1778  157.9775 C   0  0  0  0  0  0  0  0  0  0  0  0
  152.4914  140.4341  158.8346 C   0  0  0  0  0  0  0  0  0  0  0  0
  153.4043  138.7492  157.3775 O   0  0  0  0  0  0  0  0  0  0  0  0
  147.9063  134.5136  161.5143 H   0  0  0  0  0  0  0  0  0  0  0  0
  146.2402  135.0421  161.7829 H   0  0  0  0  0  0  0  0  0  0  0  0
  147.5704  135.8536  162.6215 H   0  0  0  0  0  0  0  0  0  0  0  0
  148.0362  137.5117  158.3758 H   0  0  0  0  0  0  0  0  0  0  0  0
  149.3828  138.1896  159.2711 H   0  0  0  0  0  0  0  0  0  0  0  0
  150.4208  135.7128  158.5755 H   0  0  0  0  0  0  0  0  0  0  0  0
  150.2477  135.5508  155.3103 H   0  0  0  0  0  0  0  0  0  0  0  0
  149.1521  132.2532  153.0708 H   0  0  0  0  0  0  0  0  0  0  0  0
  149.9278  133.8473  153.2237 H   0  0  0  0  0  0  0  0  0  0  0  0
  148.5840  133.6191  152.0814 H   0  0  0  0  0  0  0  0  0  0  0  0
  144.7131  137.4050  151.9495 H   0  0  0  0  0  0  0  0  0  0  0  0
  144.5849  139.1447  151.8022 H   0  0  0  0  0  0  0  0  0  0  0  0
  147.9040  140.9240  154.2189 H   0  0  0  0  0  0  0  0  0  0  0  0
  149.6042  138.4599  155.9967 H   0  0  0  0  0  0  0  0  0  0  0  0
  153.3893  138.1827  153.4350 H   0  0  0  0  0  0  0  0  0  0  0  0
  154.0445  138.3555  155.0704 H   0  0  0  0  0  0  0  0  0  0  0  0
  153.8364  139.7821  154.0442 H   0  0  0  0  0  0  0  0  0  0  0  0
  151.8836  136.8314  157.1711 H   0  0  0  0  0  0  0  0  0  0  0  0
  151.6316  141.0763  158.6428 H   0  0  0  0  0  0  0  0  0  0  0  0
  153.3985  140.9966  158.6131 H   0  0  0  0  0  0  0  0  0  0  0  0
  152.4973  140.1691  159.8919 H   0  0  0  0  0  0  0  0  0  0  0  0
  1  2  1  0  0  0  0
  1 33  1  0  0  0  0
  1 34  1  0  0  0  0
  1 35  1  0  0  0  0
  2  3  2  0  0  0  0
  2  4  1  0  0  0  0
  4  5  1  0  0  0  0
  5  6  1  0  0  0  0
  5 36  1  0  0  0  0
  5 37  1  0  0  0  0
  6 28  1  0  0  0  0
  6  7  1  0  0  0  0
  6 38  1  0  0  0  0
  7  8  1  0  0  0  0
  8  9  1  0  0  0  0
  8 23  1  0  0  0  0
  8 39  1  0  0  0  0
  9 22  1  0  0  0  0
  9 10  1  0  0  0  0
 10 11  1  0  0  0  0
 10 15  2  0  0  0  0
 11 12  1  0  0  0  0
 11 13  2  0  0  0  0
 11 14  2  0  0  0  0
 12 40  1  0  0  0  0
 12 41  1  0  0  0  0
 12 42  1  0  0  0  0
 15 16  1  0  0  0  0
 16 22  2  0  0  0  0
 16 17  1  0  0  0  0
 17 18  1  0  0  0  0
 17 19  2  0  0  0  0
 18 43  1  0  0  0  0
 18 44  1  0  0  0  0
 19 20  1  0  0  0  0
 20 21  2  0  0  0  0
 20 45  1  0  0  0  0
 21 22  1  0  0  0  0
 23 24  1  0  0  0  0
 23 28  1  0  0  0  0
 23 46  1  0  0  0  0
 24 25  1  0  0  0  0
 25 26  1  0  0  0  0
 25 27  2  0  0  0  0
 26 47  1  0  0  0  0
 26 48  1  0  0  0  0
 26 49  1  0  0  0  0
 28 29  1  0  0  0  0
 28 50  1  0  0  0  0
 29 30  1  0  0  0  0
 30 31  1  0  0  0  0
 30 32  2  0  0  0  0
 31 51  1  0  0  0  0
 31 52  1  0  0  0  0
 31 53  1  0  0  0  0
M  END
> <s_m_source_file>
AV-unprocessed.smi

> <i_m_source_file_index>
103

> <i_lp_mmshare_version>
43012

> <i_f3d_flags>
0

> <s_epik_input>
W0NIM11DKD1PKU9bQ0gyXVtDQEBIXTFPW0NASF0oW0NAQEhdKE9DKD1PKVtDSDNdKVtDQEhdMU9DKD1PKVtDSDNdKW4oYyhuMilTKD1PKSg9TylbQ0gzXSljKGMyMyluW2NIXW5jM1tOSDJd

> <s_epik_cmdline>
J2VwaWtfcHl0aG9uJywgJy1waCcsICc3LjAnLCAnLXRuJywgJzgnLCAnLW1hJywgJzIwMCcsICctbWV0YWxfYmluZGluZycsICctaW1hZScsICc8aW5maWxlLm1hZT4nLCAnLW9tYWUnLCAnPG91dGZpbGUubWFlPic=

> <r_lp_tautomer_probability>
1

> <r_epik_Ionization_Penalty>
1.51338e-05

> <r_epik_Ionization_Penalty_Charging>
0

> <r_epik_Ionization_Penalty_Neutral>
1.51338e-05

> <r_epik_State_Penalty>
-0

> <r_epik_Charging_Adjusted_Penalty>
0

> <i_epik_Tot_Q>
0

> <i_epik_Tot_abs_Q>
0

> <r_epik_Metal_State_Penalty>
-0

> <b_epik_Metal_Only>
0

> <s_epik_Chemistry_Notes>
This compound has an ester and may undergo hydrolysis at high or low pH. This compound contains an acetal/aminal-like group ( X-CH(R)-Y where X, Y are N, S, or O) that may be acid/base labile, releasing an aldehyde.

> <s_lp_Force_Field>
OPLS_2005

> <r_lp_Energy>
15.9567

> <b_lp_Chiralities_Consistent>
1

> <s_lp_Variant>
AV-unprocessed.smi:103-6

> <Gold.Version>
5.8.1

> <Gold.Id.Protein>
6NUR|6NUR_protein|mol2

> <Gold.PLP.Fitness>
39.5469

> <Gold.PLP.PLP>
-32.9937

> <Gold.PLP.part.hbond>
-5.9301

> <Gold.PLP.part.metal>
0.0000

> <Gold.PLP.part.buried>
-4.2740

> <Gold.PLP.part.nonpolar>
-22.9489

> <Gold.PLP.part.repulsive>
0.5635

> <Gold.PLP.ligand.clash>
1.3468

> <Gold.PLP.ligand.torsion>
3.1050

> <Gold.PLP.Chemscore.Hbond>
3.9760

> <Gold.PLP.Chemscore.CHOScore>
0.0000

> <Gold.PLP.Chemscore.Metal>
0.0000

> <Gold.Chemscore.Hbonds>
donor molecule, donor type, donor heavy atom, donor atom, acceptor molecule, acceptor atom, score
      L1  H    18    44       P1 10175  0.74
      P1  H  6934  6947       L1     3  0.24
      P1  H  7989  7998       L1    27  0.85
      P1  H  7997  8010       L1    32  1.00

> <Gold.PLP.Chemscore.Internal.Correction>
2.1822

> <Gold.Rescore>
     Score         DG    S(hbond)    S(metal)    S(lipo)     H(rot)  DE(clash)    DE(int)     intcor
      3.85     -10.27       3.02        0.00      47.75       4.25       0.19       6.23       ----

> <Gold.Chemscore.Fitness>
3.8475

> <Gold.Chemscore.DG>
-10.2691

> <Gold.Chemscore.ZeroCoef>
-5.4800

> <Gold.Chemscore.Hbond>
3.0152

> <Gold.Chemscore.Metal>
0.0000

> <Gold.Chemscore.Lipo>
47.7522

> <Gold.Chemscore.Internal_Hbond>
0.0000

> <Gold.Chemscore.DEClash>
0.1941

> <Gold.Chemscore.DEInternal>
6.2275

> <Gold.Chemscore.Rot>
4.2456

> <Gold.Chemscore.Internal.Correction>
   9.000000E+99

> <Gold.Chemscore.Hbonds>
donor molecule, donor type, donor heavy atom, donor atom, acceptor molecule, acceptor atom, score
      L1  H    18    44       P1 10175  0.73
      P1  H  6934  6947       L1     3  0.03
      P1  H  7989  7998       L1    27  0.14
      P1  H  7997  8010       L1    32  0.85

> <Gold.Chemscore.Hbond.Weighted>
-10.0708

> <Gold.Chemscore.Metal.Weighted>
-0.0000

> <Gold.Chemscore.Lipo.Weighted>
-5.5870

> <Gold.Chemscore.Internal_Hbond.Weighted>
0.0000

> <Gold.Chemscore.DEClash.Weighted>
0.1941

> <Gold.Chemscore.DEInternal.Weighted>
6.2275

> <Gold.Chemscore.Rot.Weighted>
10.8687

> <Gold.Chemscore.Internal.Correction.Weighted>
   9.000000E+99

> <Gold.Protein.RotatedTorsions>
[ 6907 6896 6895 6894 ] final   16.60 input  -60.11 | X-H torsion
[ 7974 7965 7964 7962 ] final -164.81 input  175.53 | X-H torsion
[ 8008 7997 7996 7995 ] final   43.20 input   59.86 | X-H torsion
[ 10167 10162 10161 10158 ] final -166.41 input  -65.29 | X-H torsion
[ 10718 10713 10712 10709 ] final  176.72 input   66.30 | X-H torsion
[ 10763 10752 10751 10750 ] final  -22.57 input  -60.55 | X-H torsion
[ 11005 11000 10999 10996 ] final  -26.75 input  -57.11 | X-H torsion

> <Gold.Protein.ActiveResidues>
 VAL166  LYS551  ARG553  GLY616  TRP617  ASP618  TYR619  PRO620  LYS621  CYS622 
 ASP623  PHE694  ASN695  SER759  ASP760  ASP761  ALA762  ILE779  LEU786  VAL792 
 PHE793  MET794  SER795  GLU796  ALA797  LYS798  CYS799  TRP800  GLU811  SER814 

> <Gold.Protein.RotatedAtoms>
  151.8365  135.0604  160.0442 H   0  0  0  0  0  0  0  0  0  0  0  0  # atno 6907 bound_to 6896
  152.2841  133.5494  159.5524 H   0  0  0  0  0  0  0  0  0  0  0  0  # atno 6908 bound_to 6896
  150.7202  134.0438  159.3817 H   0  0  0  0  0  0  0  0  0  0  0  0  # atno 6909 bound_to 6896
  144.7287  140.2906  143.6221 H   0  0  0  0  0  0  0  0  0  0  0  0  # atno 7974 bound_to 7965
  155.2988  140.3383  155.4248 H   0  0  0  0  0  0  0  0  0  0  0  0  # atno 8008 bound_to 7997
  156.2011  140.1733  156.7937 H   0  0  0  0  0  0  0  0  0  0  0  0  # atno 8009 bound_to 7997
  154.5560  140.0696  156.8728 H   0  0  0  0  0  0  0  0  0  0  0  0  # atno 8010 bound_to 7997
  139.6117  144.0801  152.1848 H   0  0  0  0  0  0  0  0  0  0  0  0  # atno 10167 bound_to 10162
  156.9160  130.9925  151.3013 H   0  0  0  0  0  0  0  0  0  0  0  0  # atno 10718 bound_to 10713
  153.6540  135.6979  153.5199 H   0  0  0  0  0  0  0  0  0  0  0  0  # atno 10763 bound_to 10752
  153.2684  135.4223  155.0962 H   0  0  0  0  0  0  0  0  0  0  0  0  # atno 10764 bound_to 10752
  154.8469  135.3572  154.6085 H   0  0  0  0  0  0  0  0  0  0  0  0  # atno 10765 bound_to 10752
  140.9057  133.7494  156.0603 H   0  0  0  0  0  0  0  0  0  0  0  0  # atno 11005 bound_to 11000
  145.7858  139.1908  143.2131 LP  0  0  0  0  0  0  0  0  0  0  0  0  # atno 17320 bound_to 7965
  146.0796  140.7779  142.9648 LP  0  0  0  0  0  0  0  0  0  0  0  0  # atno 17321 bound_to 7965
  140.0422  144.5999  150.7402 LP  0  0  0  0  0  0  0  0  0  0  0  0  # atno 17342 bound_to 10162
  140.7323  143.2704  151.3906 LP  0  0  0  0  0  0  0  0  0  0  0  0  # atno 17343 bound_to 10162
  157.5938  130.8462  149.8698 LP  0  0  0  0  0  0  0  0  0  0  0  0  # atno 17370 bound_to 10713
  156.0513  130.3717  150.1194 LP  0  0  0  0  0  0  0  0  0  0  0  0  # atno 17371 bound_to 10713
  140.8174  134.3329  157.5393 LP  0  0  0  0  0  0  0  0  0  0  0  0  # atno 17394 bound_to 11000
  139.8749  134.9289  156.3463 LP  0  0  0  0  0  0  0  0  0  0  0  0  # atno 17395 bound_to 11000

$$$$
