AV-unprocessed.smi:2721|AV-procd|sdf|10500|dock2
  -GOLD-   2272014543D 1   1.00000     0.00000
 Structure written by MMmdl.
 29 30  0  0  0  0  0  0  0  0  2 V2000
  148.4488  141.2641  154.0487 C   0  0  0  0  0  0  0  0  0  0  0  0
  149.5078  141.2120  155.0338 N   0  0  0  0  0  0  0  0  0  0  0  0
  149.5754  141.8396  156.2588 C   0  0  0  0  0  0  0  0  0  0  0  0
  150.7676  141.4942  156.8320 C   0  0  0  0  0  0  0  0  0  0  0  0
  151.3204  141.8909  158.1760 C   0  0  1  0  0  0  0  0  0  0  0  0
  152.5834  141.2616  158.3856 O   0  0  0  0  0  0  0  0  0  0  0  0
  153.1435  141.4980  159.6729 C   0  0  0  0  0  0  0  0  0  0  0  0
  153.4183  142.9978  159.8492 C   0  0  0  0  0  0  0  0  0  0  0  0
  152.1307  143.7988  159.6351 C   0  0  0  0  0  0  0  0  0  0  0  0
  151.4975  143.4257  158.2860 C   0  0  2  0  0  0  0  0  0  0  0  0
  150.2148  144.1337  158.1116 N   0  3  0  0  0  0  0  0  0  0  0  0
  151.3632  140.6383  155.8616 C   0  0  0  0  0  0  0  0  0  0  0  0
  150.6079  140.4711  154.7893 N   0  0  0  0  0  0  0  0  0  0  0  0
  150.6426  141.5521  158.9620 H   0  0  0  0  0  0  0  0  0  0  0  0
  152.1618  143.7605  157.4877 H   0  0  0  0  0  0  0  0  0  0  0  0
  147.5610  141.7284  154.4787 H   0  0  0  0  0  0  0  0  0  0  0  0
  148.1959  140.2555  153.7200 H   0  0  0  0  0  0  0  0  0  0  0  0
  148.7754  141.8499  153.1890 H   0  0  0  0  0  0  0  0  0  0  0  0
  148.7779  142.4728  156.6197 H   0  0  0  0  0  0  0  0  0  0  0  0
  152.4722  141.1284  160.4494 H   0  0  0  0  0  0  0  0  0  0  0  0
  154.0725  140.9343  159.7609 H   0  0  0  0  0  0  0  0  0  0  0  0
  153.8252  143.1938  160.8416 H   0  0  0  0  0  0  0  0  0  0  0  0
  154.1751  143.3172  159.1314 H   0  0  0  0  0  0  0  0  0  0  0  0
  151.4331  143.5860  160.4468 H   0  0  0  0  0  0  0  0  0  0  0  0
  152.3445  144.8675  159.6768 H   0  0  0  0  0  0  0  0  0  0  0  0
  150.3135  145.0935  158.4104 H   0  0  0  0  0  0  0  0  0  0  0  0
  149.5033  143.6801  158.6672 H   0  0  0  0  0  0  0  0  0  0  0  0
  152.3160  140.1323  155.9079 H   0  0  0  0  0  0  0  0  0  0  0  0
  149.9457  144.1101  157.1384 H   0  0  0  0  0  0  0  0  0  0  0  0
  1  2  1  0  0  0  0
  1 16  1  0  0  0  0
  1 17  1  0  0  0  0
  1 18  1  0  0  0  0
  2 13  1  0  0  0  0
  2  3  1  0  0  0  0
  3  4  2  0  0  0  0
  3 19  1  0  0  0  0
  4  5  1  0  0  0  0
  4 12  1  0  0  0  0
  5 14  1  0  0  0  0
  5 10  1  0  0  0  0
  5  6  1  0  0  0  0
  6  7  1  0  0  0  0
  7  8  1  0  0  0  0
  7 20  1  0  0  0  0
  7 21  1  0  0  0  0
  8  9  1  0  0  0  0
  8 22  1  0  0  0  0
  8 23  1  0  0  0  0
  9 10  1  0  0  0  0
  9 24  1  0  0  0  0
  9 25  1  0  0  0  0
 10 15  1  0  0  0  0
 10 11  1  0  0  0  0
 11 26  1  0  0  0  0
 11 27  1  0  0  0  0
 11 29  1  0  0  0  0
 12 13  2  0  0  0  0
 12 28  1  0  0  0  0
M  CHG  1  11   1
M  END
> <s_m_source_file>
AV-unprocessed.smi

> <i_m_source_file_index>
2721

> <i_lp_mmshare_version>
43012

> <i_f3d_flags>
0

> <s_epik_input>
W0NIM11uMVtjSF1jKFtjSF1uMSlbQ0BIXTJPW0NIMl1bQ0gyXVtDSDJdW0NAQEhdMltOSDJd

> <s_epik_cmdline>
J2VwaWtfcHl0aG9uJywgJy1waCcsICc3LjAnLCAnLXRuJywgJzgnLCAnLW1hJywgJzIwMCcsICctbWV0YWxfYmluZGluZycsICctaW1hZScsICc8aW5maWxlLm1hZT4nLCAnLW9tYWUnLCAnPG91dGZpbGUubWFlPic=

> <r_lp_tautomer_probability>
1

> <r_epik_Ionization_Penalty>
0.0061467

> <r_epik_Ionization_Penalty_Charging>
0.00611941

> <r_epik_Ionization_Penalty_Neutral>
2.72888e-05

> <r_epik_State_Penalty>
0.00451057

> <r_epik_Charging_Adjusted_Penalty>
0.01063

> <i_epik_Tot_Q>
1

> <i_epik_Tot_abs_Q>
1

> <r_epik_Metal_State_Penalty>
-0

> <b_epik_Metal_Only>
0

> <s_lp_Force_Field>
OPLS_2005

> <r_lp_Energy>
11.0235

> <b_lp_Chiralities_Consistent>
1

> <s_lp_Variant>
AV-unprocessed.smi:2721-1

> <Gold.Version>
5.8.1

> <Gold.Id.Protein>
6NUR|6NUR_protein|mol2

> <Gold.PLP.Fitness>
41.6941

> <Gold.PLP.PLP>
-30.6720

> <Gold.PLP.part.hbond>
-2.9212

> <Gold.PLP.part.metal>
0.0000

> <Gold.PLP.part.buried>
-0.3765

> <Gold.PLP.part.nonpolar>
-27.4835

> <Gold.PLP.part.repulsive>
0.1546

> <Gold.PLP.ligand.clash>
0.0000

> <Gold.PLP.ligand.torsion>
0.0027

> <Gold.PLP.Chemscore.Hbond>
2.9200

> <Gold.PLP.Chemscore.CHOScore>
0.7549

> <Gold.PLP.Chemscore.Metal>
0.0000

> <Gold.Chemscore.Hbonds>
donor molecule, donor type, donor heavy atom, donor atom, acceptor molecule, acceptor atom, score
      L1  H    11    29       P1  8028  2.00
      P1  H  7989  7998       L1    13  1.00
      L1  C     3    19       P1  8028  0.65

> <Gold.PLP.Chemscore.Internal.Correction>
0.0029

> <Gold.Rescore>
     Score         DG    S(hbond)    S(metal)    S(lipo)     H(rot)  DE(clash)    DE(int)     intcor
     17.18     -17.57       1.53        0.00      81.51       1.00       0.20       0.19       ----

> <Gold.Chemscore.Fitness>
17.1755

> <Gold.Chemscore.DG>
-17.5746

> <Gold.Chemscore.ZeroCoef>
-5.4800

> <Gold.Chemscore.Hbond>
1.5324

> <Gold.Chemscore.Metal>
0.0000

> <Gold.Chemscore.Lipo>
81.5087

> <Gold.Chemscore.Internal_Hbond>
0.0000

> <Gold.Chemscore.DEClash>
0.2049

> <Gold.Chemscore.DEInternal>
0.1943

> <Gold.Chemscore.Rot>
1.0000

> <Gold.Chemscore.Internal.Correction>
   9.000000E+99

> <Gold.Chemscore.Hbonds>
donor molecule, donor type, donor heavy atom, donor atom, acceptor molecule, acceptor atom, score
      L1  H    11    29       P1  8028  0.75
      P1  H  7989  7998       L1    13  0.42

> <Gold.Chemscore.Hbond.Weighted>
-5.1181

> <Gold.Chemscore.Metal.Weighted>
-0.0000

> <Gold.Chemscore.Lipo.Weighted>
-9.5365

> <Gold.Chemscore.Internal_Hbond.Weighted>
0.0000

> <Gold.Chemscore.DEClash.Weighted>
0.2049

> <Gold.Chemscore.DEInternal.Weighted>
0.1943

> <Gold.Chemscore.Rot.Weighted>
2.5600

> <Gold.Chemscore.Internal.Correction.Weighted>
   9.000000E+99

> <Gold.Protein.RotatedTorsions>
[ 6907 6896 6895 6894 ] final   -0.57 input  -60.11 | X-H torsion
[ 7974 7965 7964 7962 ] final   67.69 input  175.53 | X-H torsion
[ 8008 7997 7996 7995 ] final  178.03 input   59.86 | X-H torsion
[ 10167 10162 10161 10158 ] final  -73.59 input  -65.29 | X-H torsion
[ 10718 10713 10712 10709 ] final -105.68 input   66.30 | X-H torsion
[ 10763 10752 10751 10750 ] final  -88.24 input  -60.55 | X-H torsion
[ 11005 11000 10999 10996 ] final   13.31 input  -57.11 | X-H torsion

> <Gold.Protein.ActiveResidues>
 VAL166  LYS551  ARG553  GLY616  TRP617  ASP618  TYR619  PRO620  LYS621  CYS622 
 ASP623  PHE694  ASN695  SER759  ASP760  ASP761  ALA762  ILE779  LEU786  VAL792 
 PHE793  MET794  SER795  GLU796  ALA797  LYS798  CYS799  TRP800  GLU811  SER814 

> <Gold.Protein.RotatedAtoms>
  151.5601  135.1065  159.9970 H   0  0  0  0  0  0  0  0  0  0  0  0  # atno 6907 bound_to 6896
  152.4450  133.7516  159.6707 H   0  0  0  0  0  0  0  0  0  0  0  0  # atno 6908 bound_to 6896
  150.8364  133.7939  159.3102 H   0  0  0  0  0  0  0  0  0  0  0  0  # atno 6909 bound_to 6896
  145.8116  139.3035  143.1096 H   0  0  0  0  0  0  0  0  0  0  0  0  # atno 7974 bound_to 7965
  156.0592  140.1343  156.9961 H   0  0  0  0  0  0  0  0  0  0  0  0  # atno 8008 bound_to 7997
  154.4473  140.0995  156.6562 H   0  0  0  0  0  0  0  0  0  0  0  0  # atno 8009 bound_to 7997
  155.5404  140.3460  155.4448 H   0  0  0  0  0  0  0  0  0  0  0  0  # atno 8010 bound_to 7997
  140.5098  143.2347  151.7613 H   0  0  0  0  0  0  0  0  0  0  0  0  # atno 10167 bound_to 10162
  156.0356  130.5575  150.7573 H   0  0  0  0  0  0  0  0  0  0  0  0  # atno 10718 bound_to 10713
  154.6423  135.5384  153.7804 H   0  0  0  0  0  0  0  0  0  0  0  0  # atno 10763 bound_to 10752
  153.0340  135.6462  154.1141 H   0  0  0  0  0  0  0  0  0  0  0  0  # atno 10764 bound_to 10752
  154.1064  135.2929  155.3220 H   0  0  0  0  0  0  0  0  0  0  0  0  # atno 10765 bound_to 10752
  140.4822  134.0924  155.7753 H   0  0  0  0  0  0  0  0  0  0  0  0  # atno 11005 bound_to 11000
  145.9771  140.8713  143.0133 LP  0  0  0  0  0  0  0  0  0  0  0  0  # atno 17320 bound_to 7965
  144.6757  140.2028  143.7385 LP  0  0  0  0  0  0  0  0  0  0  0  0  # atno 17321 bound_to 7965
  139.4893  144.4407  151.9768 LP  0  0  0  0  0  0  0  0  0  0  0  0  # atno 17342 bound_to 10162
  140.3499  144.3102  150.5951 LP  0  0  0  0  0  0  0  0  0  0  0  0  # atno 17343 bound_to 10162
  157.5102  131.0925  151.0208 LP  0  0  0  0  0  0  0  0  0  0  0  0  # atno 17370 bound_to 10713
  157.0565  130.5808  149.5379 LP  0  0  0  0  0  0  0  0  0  0  0  0  # atno 17371 bound_to 10713
  141.1525  133.8942  157.2061 LP  0  0  0  0  0  0  0  0  0  0  0  0  # atno 17394 bound_to 11000
  139.9819  135.0095  156.9771 LP  0  0  0  0  0  0  0  0  0  0  0  0  # atno 17395 bound_to 11000

$$$$
