AV-unprocessed.smi:1207|AV-procd|sdf|5057|dock6
  -GOLD-   22720 4 93D 1   1.00000     0.00000
 Structure written by MMmdl.
 53 55  0  0  0  0  0  0  0  0  3 V2000
  152.1244  143.6246  160.1438 C   0  0  0  0  0  0  0  0  0  0  0  0
  151.8633  142.5787  159.0729 C   0  0  0  0  0  0  0  0  0  0  0  0
  150.9934  142.9063  158.0082 C   0  0  0  0  0  0  0  0  0  0  0  0
  150.7744  141.9293  157.0443 C   0  0  0  0  0  0  0  0  0  0  0  0
  149.9847  141.9394  155.8922 N   0  3  0  0  0  0  0  0  0  0  0  0
  150.0885  140.7383  155.2585 C   0  0  0  0  0  0  0  0  0  0  0  0
  150.9382  139.9631  155.9866 N   0  0  0  0  0  0  0  0  0  0  0  0
  151.3927  138.5850  155.7575 C   0  0  0  0  0  0  0  0  0  0  0  0
  150.4384  137.7796  154.8538 C   0  0  2  0  0  0  0  0  0  0  0  0
  150.5788  138.2238  153.5182 O   0  0  0  0  0  0  0  0  0  0  0  0
  148.9670  137.9530  155.2815 C   0  0  0  0  0  0  0  0  0  0  0  0
  148.0674  136.9392  154.6694 N   0  3  1  0  0  0  0  0  0  0  0  0
  148.2367  135.5899  155.2647 C   0  0  0  0  0  0  0  0  0  0  0  0
  146.6492  137.3840  154.6498 C   0  0  0  0  0  0  0  0  0  0  0  0
  145.9107  136.8576  153.4456 C   0  0  0  0  0  0  0  0  0  0  0  0
  145.0593  135.7178  153.3572 C   0  0  0  0  0  0  0  0  0  0  0  0
  144.6750  134.7447  154.4349 C   0  0  0  0  0  0  0  0  0  0  0  0
  144.5763  135.5573  152.1370 N   0  0  0  0  0  0  0  0  0  0  0  0
  145.0988  136.6066  151.3753 O   0  0  0  0  0  0  0  0  0  0  0  0
  145.8868  137.3670  152.1764 C   0  0  0  0  0  0  0  0  0  0  0  0
  146.5392  138.5507  151.5457 C   0  0  0  0  0  0  0  0  0  0  0  0
  151.3866  140.6628  157.1123 C   0  0  0  0  0  0  0  0  0  0  0  0
  152.2450  140.3225  158.1548 C   0  0  0  0  0  0  0  0  0  0  0  0
  152.4809  141.3030  159.1451 C   0  0  0  0  0  0  0  0  0  0  0  0
  153.4137  140.9619  160.2946 C   0  0  0  0  0  0  0  0  0  0  0  0
  151.5677  144.5419  159.9497 H   0  0  0  0  0  0  0  0  0  0  0  0
  153.1838  143.8795  160.1805 H   0  0  0  0  0  0  0  0  0  0  0  0
  151.8228  143.2539  161.1238 H   0  0  0  0  0  0  0  0  0  0  0  0
  150.5187  143.8748  157.9478 H   0  0  0  0  0  0  0  0  0  0  0  0
  149.5884  140.4536  154.3438 H   0  0  0  0  0  0  0  0  0  0  0  0
  152.3963  138.6219  155.3318 H   0  0  0  0  0  0  0  0  0  0  0  0
  151.4885  138.1057  156.7330 H   0  0  0  0  0  0  0  0  0  0  0  0
  150.7267  136.7304  154.8920 H   0  0  0  0  0  0  0  0  0  0  0  0
  150.0007  137.7148  152.9702 H   0  0  0  0  0  0  0  0  0  0  0  0
  148.8747  137.9033  156.3675 H   0  0  0  0  0  0  0  0  0  0  0  0
  148.6505  138.9582  154.9989 H   0  0  0  0  0  0  0  0  0  0  0  0
  147.9150  135.5817  156.3066 H   0  0  0  0  0  0  0  0  0  0  0  0
  149.2740  135.2609  155.2307 H   0  0  0  0  0  0  0  0  0  0  0  0
  147.6558  134.8427  154.7244 H   0  0  0  0  0  0  0  0  0  0  0  0
  146.1657  137.0838  155.5803 H   0  0  0  0  0  0  0  0  0  0  0  0
  146.6149  138.4740  154.6375 H   0  0  0  0  0  0  0  0  0  0  0  0
  145.4825  134.6100  155.1540 H   0  0  0  0  0  0  0  0  0  0  0  0
  144.4383  133.7634  154.0223 H   0  0  0  0  0  0  0  0  0  0  0  0
  143.7991  135.0950  154.9812 H   0  0  0  0  0  0  0  0  0  0  0  0
  147.5370  138.7091  151.9552 H   0  0  0  0  0  0  0  0  0  0  0  0
  145.9533  139.4525  151.7233 H   0  0  0  0  0  0  0  0  0  0  0  0
  146.6362  138.4167  150.4681 H   0  0  0  0  0  0  0  0  0  0  0  0
  152.7134  139.3513  158.2114 H   0  0  0  0  0  0  0  0  0  0  0  0
  153.7981  139.9449  160.2096 H   0  0  0  0  0  0  0  0  0  0  0  0
  152.8913  141.0410  161.2482 H   0  0  0  0  0  0  0  0  0  0  0  0
  154.2673  141.6403  160.3094 H   0  0  0  0  0  0  0  0  0  0  0  0
  148.3482  136.8739  153.7011 H   0  0  0  0  0  0  0  0  0  0  0  0
  149.4131  142.7069  155.5625 H   0  0  0  0  0  0  0  0  0  0  0  0
  1  2  1  0  0  0  0
  1 26  1  0  0  0  0
  1 27  1  0  0  0  0
  1 28  1  0  0  0  0
  2 24  1  0  0  0  0
  2  3  2  0  0  0  0
  3  4  1  0  0  0  0
  3 29  1  0  0  0  0
  4 22  2  0  0  0  0
  4  5  1  0  0  0  0
  5  6  2  0  0  0  0
  5 53  1  0  0  0  0
  6  7  1  0  0  0  0
  6 30  1  0  0  0  0
  7  8  1  0  0  0  0
  7 22  1  0  0  0  0
  8  9  1  0  0  0  0
  8 31  1  0  0  0  0
  8 32  1  0  0  0  0
  9 10  1  0  0  0  0
  9 11  1  0  0  0  0
  9 33  1  0  0  0  0
 10 34  1  0  0  0  0
 11 12  1  0  0  0  0
 11 35  1  0  0  0  0
 11 36  1  0  0  0  0
 12 13  1  0  0  0  0
 12 14  1  0  0  0  0
 12 52  1  0  0  0  0
 13 37  1  0  0  0  0
 13 38  1  0  0  0  0
 13 39  1  0  0  0  0
 14 15  1  0  0  0  0
 14 40  1  0  0  0  0
 14 41  1  0  0  0  0
 15 20  2  0  0  0  0
 15 16  1  0  0  0  0
 16 17  1  0  0  0  0
 16 18  2  0  0  0  0
 17 42  1  0  0  0  0
 17 43  1  0  0  0  0
 17 44  1  0  0  0  0
 18 19  1  0  0  0  0
 19 20  1  0  0  0  0
 20 21  1  0  0  0  0
 21 45  1  0  0  0  0
 21 46  1  0  0  0  0
 21 47  1  0  0  0  0
 22 23  1  0  0  0  0
 23 24  2  0  0  0  0
 23 48  1  0  0  0  0
 24 25  1  0  0  0  0
 25 49  1  0  0  0  0
 25 50  1  0  0  0  0
 25 51  1  0  0  0  0
M  CHG  1   5   1
M  CHG  1  12   1
M  END
> <s_m_source_file>
AV-unprocessed.smi

> <i_m_source_file_index>
1207

> <i_lp_mmshare_version>
43012

> <i_f3d_flags>
0

> <s_epik_input>
W0NIM11jKFtjSF0xKWMoW0NIM10pW2NIXWMoYzEyKW4oW2NIXW4yKVtDSDJdW0NASF0oW09IXSlbQ0gyXU4oW0NIM10pW0NIMl1jM2MoW0NIM10pbm9jM1tDSDNd

> <s_epik_cmdline>
J2VwaWtfcHl0aG9uJywgJy1waCcsICc3LjAnLCAnLXRuJywgJzgnLCAnLW1hJywgJzIwMCcsICctbWV0YWxfYmluZGluZycsICctaW1hZScsICc8aW5maWxlLm1hZT4nLCAnLW9tYWUnLCAnPG91dGZpbGUubWFlPic=

> <r_epik_Ionization_Penalty>
1.77463

> <r_epik_Ionization_Penalty_Charging>
1.77463

> <r_epik_Ionization_Penalty_Neutral>
3.70885e-06

> <r_epik_State_Penalty>
1.85225

> <r_epik_Charging_Adjusted_Penalty>
3.62688

> <i_epik_Tot_Q>
2

> <i_epik_Tot_abs_Q>
2

> <r_epik_Metal_State_Penalty>
1.92674

> <b_epik_Metal_Only>
0

> <s_lp_Force_Field>
OPLS_2005

> <r_lp_Energy>
17.578

> <b_lp_Chiralities_Consistent>
1

> <s_lp_Variant>
AV-unprocessed.smi:1207-9

> <Gold.Version>
5.8.1

> <Gold.Id.Protein>
6NUR|6NUR_protein|mol2

> <Gold.PLP.Fitness>
51.6479

> <Gold.PLP.PLP>
-39.9552

> <Gold.PLP.part.hbond>
-4.9436

> <Gold.PLP.part.metal>
0.0000

> <Gold.PLP.part.buried>
-1.0271

> <Gold.PLP.part.nonpolar>
-35.8216

> <Gold.PLP.part.repulsive>
1.6058

> <Gold.PLP.ligand.clash>
0.0000

> <Gold.PLP.ligand.torsion>
1.3236

> <Gold.PLP.Chemscore.Hbond>
4.7393

> <Gold.PLP.Chemscore.CHOScore>
0.0000

> <Gold.PLP.Chemscore.Metal>
0.0000

> <Gold.Chemscore.Hbonds>
donor molecule, donor type, donor heavy atom, donor atom, acceptor molecule, acceptor atom, score
      L1  H     5    53       P1  8028  1.74
      L1  H    10    34       P1  7948  0.89
      L1  H    12    52       P1  7948  1.98

> <Gold.PLP.Chemscore.Internal.Correction>
0.1221

> <Gold.Rescore>
     Score         DG    S(hbond)    S(metal)    S(lipo)     H(rot)  DE(clash)    DE(int)     intcor
     15.38     -19.04       2.08        0.00     111.95       2.54       1.28       2.38       ----

> <Gold.Chemscore.Fitness>
15.3763

> <Gold.Chemscore.DG>
-19.0415

> <Gold.Chemscore.ZeroCoef>
-5.4800

> <Gold.Chemscore.Hbond>
2.0817

> <Gold.Chemscore.Metal>
0.0000

> <Gold.Chemscore.Lipo>
111.9537

> <Gold.Chemscore.Internal_Hbond>
0.0000

> <Gold.Chemscore.DEClash>
1.2828

> <Gold.Chemscore.DEInternal>
2.3824

> <Gold.Chemscore.Rot>
2.5351

> <Gold.Chemscore.Internal.Correction>
   9.000000E+99

> <Gold.Chemscore.Hbonds>
donor molecule, donor type, donor heavy atom, donor atom, acceptor molecule, acceptor atom, score
      L1  H     5    53       P1  8028  0.81
      L1  H    10    34       P1  7948  0.22
      L1  H    12    52       P1  7948  0.92

> <Gold.Chemscore.Hbond.Weighted>
-6.9529

> <Gold.Chemscore.Metal.Weighted>
-0.0000

> <Gold.Chemscore.Lipo.Weighted>
-13.0986

> <Gold.Chemscore.Internal_Hbond.Weighted>
0.0000

> <Gold.Chemscore.DEClash.Weighted>
1.2828

> <Gold.Chemscore.DEInternal.Weighted>
2.3824

> <Gold.Chemscore.Rot.Weighted>
6.4900

> <Gold.Chemscore.Internal.Correction.Weighted>
   9.000000E+99

> <Gold.Protein.RotatedTorsions>
[ 6907 6896 6895 6894 ] final  157.17 input  -60.11 | X-H torsion
[ 7974 7965 7964 7962 ] final -130.07 input  175.53 | X-H torsion
[ 8008 7997 7996 7995 ] final   84.43 input   59.86 | X-H torsion
[ 10167 10162 10161 10158 ] final -132.34 input  -65.29 | X-H torsion
[ 10718 10713 10712 10709 ] final   74.13 input   66.30 | X-H torsion
[ 10763 10752 10751 10750 ] final  168.11 input  -60.55 | X-H torsion
[ 11005 11000 10999 10996 ] final   31.68 input  -57.11 | X-H torsion

> <Gold.Protein.ActiveResidues>
 VAL166  LYS551  ARG553  GLY616  TRP617  ASP618  TYR619  PRO620  LYS621  CYS622 
 ASP623  PHE694  ASN695  SER759  ASP760  ASP761  ALA762  ILE779  LEU786  VAL792 
 PHE793  MET794  SER795  GLU796  ALA797  LYS798  CYS799  TRP800  GLU811  SER814 

> <Gold.Protein.RotatedAtoms>
  152.0191  133.3891  159.4250 H   0  0  0  0  0  0  0  0  0  0  0  0  # atno 6907 bound_to 6896
  150.6892  134.3646  159.4974 H   0  0  0  0  0  0  0  0  0  0  0  0  # atno 6908 bound_to 6896
  152.1417  134.9057  160.0604 H   0  0  0  0  0  0  0  0  0  0  0  0  # atno 6909 bound_to 6896
  144.9510  140.7345  143.4788 H   0  0  0  0  0  0  0  0  0  0  0  0  # atno 7974 bound_to 7965
  155.9370  140.3411  155.6295 H   0  0  0  0  0  0  0  0  0  0  0  0  # atno 8008 bound_to 7997
  155.7087  140.0769  157.2398 H   0  0  0  0  0  0  0  0  0  0  0  0  # atno 8009 bound_to 7997
  154.4095  140.1626  156.2260 H   0  0  0  0  0  0  0  0  0  0  0  0  # atno 8010 bound_to 7997
  139.9096  143.6510  152.2578 H   0  0  0  0  0  0  0  0  0  0  0  0  # atno 10167 bound_to 10162
  157.6579  130.9663  150.1168 H   0  0  0  0  0  0  0  0  0  0  0  0  # atno 10718 bound_to 10713
  154.3637  135.2753  155.2305 H   0  0  0  0  0  0  0  0  0  0  0  0  # atno 10763 bound_to 10752
  154.4482  135.5937  153.6178 H   0  0  0  0  0  0  0  0  0  0  0  0  # atno 10764 bound_to 10752
  152.9842  135.6035  154.3861 H   0  0  0  0  0  0  0  0  0  0  0  0  # atno 10765 bound_to 10752
  140.2814  134.2969  155.7800 H   0  0  0  0  0  0  0  0  0  0  0  0  # atno 11005 bound_to 11000
  145.2844  139.1906  143.4774 LP  0  0  0  0  0  0  0  0  0  0  0  0  # atno 17320 bound_to 7965
  146.3321  140.2811  142.8610 LP  0  0  0  0  0  0  0  0  0  0  0  0  # atno 17321 bound_to 7965
  139.6954  144.7642  151.1365 LP  0  0  0  0  0  0  0  0  0  0  0  0  # atno 17342 bound_to 10162
  140.7688  143.5531  150.9182 LP  0  0  0  0  0  0  0  0  0  0  0  0  # atno 17343 bound_to 10162
  156.2050  130.3662  149.8741 LP  0  0  0  0  0  0  0  0  0  0  0  0  # atno 17370 bound_to 10713
  156.6635  130.8791  151.3551 LP  0  0  0  0  0  0  0  0  0  0  0  0  # atno 17371 bound_to 10713
  141.2162  133.7527  156.9486 LP  0  0  0  0  0  0  0  0  0  0  0  0  # atno 17394 bound_to 11000
  140.1280  134.9374  157.2297 LP  0  0  0  0  0  0  0  0  0  0  0  0  # atno 17395 bound_to 11000

$$$$
