AV-unprocessed.smi:1036|AV-procd|sdf|4519|dock6
  -GOLD-   22720 2533D 1   1.00000     0.00000
 Structure written by MMmdl.
 41 43  0  0  0  0  0  0  0  0  1 V2000
  153.9547  135.9722  160.5554 O   0  0  0  0  0  0  0  0  0  0  0  0
  153.5702  137.2506  161.0148 C   0  0  0  0  0  0  0  0  0  0  0  0
  154.2393  138.3382  160.1627 C   0  0  0  0  0  0  0  0  0  0  0  0
  153.2814  139.0404  159.3288 N   0  0  0  0  0  0  0  0  0  0  0  0
  152.9353  140.3826  159.2298 C   0  0  0  0  0  0  0  0  0  0  0  0
  153.4915  141.3488  159.9588 N   0  0  0  0  0  0  0  0  0  0  0  0
  152.8376  142.4765  159.4990 C   0  0  0  0  0  0  0  0  0  0  0  0
  152.9729  143.8330  159.8725 C   0  0  0  0  0  0  0  0  0  0  0  0
  152.1865  144.8263  159.2529 C   0  0  0  0  0  0  0  0  0  0  0  0
  151.2555  144.4794  158.2523 C   0  0  0  0  0  0  0  0  0  0  0  0
  151.1036  143.1340  157.8648 C   0  0  0  0  0  0  0  0  0  0  0  0
  151.8895  142.1459  158.4872 C   0  0  0  0  0  0  0  0  0  0  0  0
  151.9847  140.7654  158.3438 N   0  0  0  0  0  0  0  0  0  0  0  0
  151.2137  139.9415  157.4214 C   0  0  0  0  0  0  0  0  0  0  0  0
  151.2929  140.4481  155.9681 C   0  0  1  0  0  0  0  0  0  0  0  0
  152.3722  139.8249  155.2973 O   0  0  0  0  0  0  0  0  0  0  0  0
  149.9664  140.2520  155.2462 C   0  0  0  0  0  0  0  0  0  0  0  0
  149.1317  141.3580  154.9670 C   0  0  0  0  0  0  0  0  0  0  0  0
  147.9096  141.1755  154.2913 C   0  0  0  0  0  0  0  0  0  0  0  0
  147.1153  142.2403  154.0295 F   0  0  0  0  0  0  0  0  0  0  0  0
  147.5148  139.8868  153.8858 C   0  0  0  0  0  0  0  0  0  0  0  0
  148.3447  138.7816  154.1530 C   0  0  0  0  0  0  0  0  0  0  0  0
  149.5678  138.9617  154.8286 C   0  0  0  0  0  0  0  0  0  0  0  0
  150.3585  137.8881  155.0686 F   0  0  0  0  0  0  0  0  0  0  0  0
  154.6738  135.6666  161.0867 H   0  0  0  0  0  0  0  0  0  0  0  0
  152.4872  137.3228  160.9151 H   0  0  0  0  0  0  0  0  0  0  0  0
  153.8027  137.3632  162.0744 H   0  0  0  0  0  0  0  0  0  0  0  0
  154.7837  139.0482  160.7859 H   0  0  0  0  0  0  0  0  0  0  0  0
  154.9725  137.8771  159.5004 H   0  0  0  0  0  0  0  0  0  0  0  0
  152.8320  138.4443  158.6487 H   0  0  0  0  0  0  0  0  0  0  0  0
  153.6837  144.1096  160.6373 H   0  0  0  0  0  0  0  0  0  0  0  0
  152.2987  145.8597  159.5463 H   0  0  0  0  0  0  0  0  0  0  0  0
  150.6575  145.2464  157.7823 H   0  0  0  0  0  0  0  0  0  0  0  0
  150.3918  142.8653  157.0983 H   0  0  0  0  0  0  0  0  0  0  0  0
  151.5473  138.9053  157.4884 H   0  0  0  0  0  0  0  0  0  0  0  0
  150.1761  139.9451  157.7579 H   0  0  0  0  0  0  0  0  0  0  0  0
  151.5231  141.5141  155.9813 H   0  0  0  0  0  0  0  0  0  0  0  0
  152.1474  138.9201  155.1429 H   0  0  0  0  0  0  0  0  0  0  0  0
  149.4261  142.3532  155.2667 H   0  0  0  0  0  0  0  0  0  0  0  0
  146.5778  139.7465  153.3674 H   0  0  0  0  0  0  0  0  0  0  0  0
  148.0440  137.7936  153.8372 H   0  0  0  0  0  0  0  0  0  0  0  0
  1  2  1  0  0  0  0
  1 25  1  0  0  0  0
  2  3  1  0  0  0  0
  2 26  1  0  0  0  0
  2 27  1  0  0  0  0
  3  4  1  0  0  0  0
  3 28  1  0  0  0  0
  3 29  1  0  0  0  0
  4  5  1  0  0  0  0
  4 30  1  0  0  0  0
  5 13  1  0  0  0  0
  5  6  2  0  0  0  0
  6  7  1  0  0  0  0
  7 12  2  0  0  0  0
  7  8  1  0  0  0  0
  8  9  2  0  0  0  0
  8 31  1  0  0  0  0
  9 10  1  0  0  0  0
  9 32  1  0  0  0  0
 10 11  2  0  0  0  0
 10 33  1  0  0  0  0
 11 12  1  0  0  0  0
 11 34  1  0  0  0  0
 12 13  1  0  0  0  0
 13 14  1  0  0  0  0
 14 15  1  0  0  0  0
 14 35  1  0  0  0  0
 14 36  1  0  0  0  0
 15 16  1  0  0  0  0
 15 17  1  0  0  0  0
 15 37  1  0  0  0  0
 16 38  1  0  0  0  0
 17 23  1  0  0  0  0
 17 18  2  0  0  0  0
 18 19  1  0  0  0  0
 18 39  1  0  0  0  0
 19 20  1  0  0  0  0
 19 21  2  0  0  0  0
 21 22  1  0  0  0  0
 21 40  1  0  0  0  0
 22 23  2  0  0  0  0
 22 41  1  0  0  0  0
 23 24  1  0  0  0  0
M  END
> <s_m_source_file>
AV-unprocessed.smi

> <i_m_source_file_index>
1036

> <i_lp_mmshare_version>
43012

> <i_f3d_flags>
0

> <s_epik_input>
W09IXVtDSDJdW0NIMl1bTkhdYyhuMSluKGMoYzEyKVtjSF1bY0hdW2NIXVtjSF0yKVtDSDJdW0NASF0oW09IXSljM1tjSF1jKEYpW2NIXVtjSF1jM0Y=

> <s_epik_cmdline>
J2VwaWtfcHl0aG9uJywgJy1waCcsICc3LjAnLCAnLXRuJywgJzgnLCAnLW1hJywgJzIwMCcsICctbWV0YWxfYmluZGluZycsICctaW1hZScsICc8aW5maWxlLm1hZT4nLCAnLW9tYWUnLCAnPG91dGZpbGUubWFlPic=

> <r_epik_Ionization_Penalty>
1.30972

> <r_epik_Ionization_Penalty_Charging>
0

> <r_epik_Ionization_Penalty_Neutral>
1.30972

> <r_epik_State_Penalty>
1.38438

> <r_epik_Charging_Adjusted_Penalty>
1.38438

> <i_epik_Tot_Q>
0

> <i_epik_Tot_abs_Q>
0

> <r_epik_Metal_State_Penalty>
0.00551145

> <b_epik_Metal_Only>
0

> <s_lp_Force_Field>
OPLS_2005

> <r_lp_Energy>
10.9481

> <b_lp_Chiralities_Consistent>
1

> <s_lp_Variant>
AV-unprocessed.smi:1036-4

> <Gold.Version>
5.8.1

> <Gold.Id.Protein>
6NUR|6NUR_protein|mol2

> <Gold.PLP.Fitness>
57.6244

> <Gold.PLP.PLP>
-53.5857

> <Gold.PLP.part.hbond>
-2.9940

> <Gold.PLP.part.metal>
0.0000

> <Gold.PLP.part.buried>
-5.5150

> <Gold.PLP.part.nonpolar>
-45.5145

> <Gold.PLP.part.repulsive>
0.0807

> <Gold.PLP.ligand.clash>
0.0000

> <Gold.PLP.ligand.torsion>
1.1094

> <Gold.PLP.Chemscore.Hbond>
2.0723

> <Gold.PLP.Chemscore.CHOScore>
0.0000

> <Gold.PLP.Chemscore.Metal>
0.0000

> <Gold.Chemscore.Hbonds>
donor molecule, donor type, donor heavy atom, donor atom, acceptor molecule, acceptor atom, score
      P1  H  6896  6909       L1     1  0.98
      P1  H  7989  7998       L1    16  0.13
      P1  H  7997  8008       L1    16  0.63

> <Gold.PLP.Chemscore.Internal.Correction>
0.0407

> <Gold.Rescore>
     Score         DG    S(hbond)    S(metal)    S(lipo)     H(rot)  DE(clash)    DE(int)     intcor
     14.86     -18.93       1.88        0.00     131.72       3.22       1.82       2.25       ----

> <Gold.Chemscore.Fitness>
14.8586

> <Gold.Chemscore.DG>
-18.9266

> <Gold.Chemscore.ZeroCoef>
-5.4800

> <Gold.Chemscore.Hbond>
1.8794

> <Gold.Chemscore.Metal>
0.0000

> <Gold.Chemscore.Lipo>
131.7178

> <Gold.Chemscore.Internal_Hbond>
0.0000

> <Gold.Chemscore.DEClash>
1.8184

> <Gold.Chemscore.DEInternal>
2.2496

> <Gold.Chemscore.Rot>
3.2194

> <Gold.Chemscore.Internal.Correction>
   9.000000E+99

> <Gold.Chemscore.Hbonds>
donor molecule, donor type, donor heavy atom, donor atom, acceptor molecule, acceptor atom, score
      P1  H  6896  6909       L1     1  0.77
      P1  H  7997  8008       L1    16  0.58

> <Gold.Chemscore.Hbond.Weighted>
-6.2772

> <Gold.Chemscore.Metal.Weighted>
-0.0000

> <Gold.Chemscore.Lipo.Weighted>
-15.4110

> <Gold.Chemscore.Internal_Hbond.Weighted>
0.0000

> <Gold.Chemscore.DEClash.Weighted>
1.8184

> <Gold.Chemscore.DEInternal.Weighted>
2.2496

> <Gold.Chemscore.Rot.Weighted>
8.2416

> <Gold.Chemscore.Internal.Correction.Weighted>
   9.000000E+99

> <Gold.Protein.RotatedTorsions>
[ 6907 6896 6895 6894 ] final  171.31 input  -60.11 | X-H torsion
[ 7974 7965 7964 7962 ] final  -93.95 input  175.53 | X-H torsion
[ 8008 7997 7996 7995 ] final  -22.15 input   59.86 | X-H torsion
[ 10167 10162 10161 10158 ] final  135.09 input  -65.29 | X-H torsion
[ 10718 10713 10712 10709 ] final  174.12 input   66.30 | X-H torsion
[ 10763 10752 10751 10750 ] final -177.08 input  -60.55 | X-H torsion
[ 11005 11000 10999 10996 ] final  -32.00 input  -57.11 | X-H torsion

> <Gold.Protein.ActiveResidues>
 VAL166  LYS551  ARG553  GLY616  TRP617  ASP618  TYR619  PRO620  LYS621  CYS622 
 ASP623  PHE694  ASN695  SER759  ASP760  ASP761  ALA762  ILE779  LEU786  VAL792 
 PHE793  MET794  SER795  GLU796  ALA797  LYS798  CYS799  TRP800  GLU811  SER814 

> <Gold.Protein.RotatedAtoms>
  151.8022  133.3371  159.3530 H   0  0  0  0  0  0  0  0  0  0  0  0  # atno 6907 bound_to 6896
  150.7354  134.5743  159.5915 H   0  0  0  0  0  0  0  0  0  0  0  0  # atno 6908 bound_to 6896
  152.3135  134.7470  160.0382 H   0  0  0  0  0  0  0  0  0  0  0  0  # atno 6909 bound_to 6896
  145.3798  140.9516  143.2400 H   0  0  0  0  0  0  0  0  0  0  0  0  # atno 7974 bound_to 7965
  154.4661  140.2015  156.0114 H   0  0  0  0  0  0  0  0  0  0  0  0  # atno 8008 bound_to 7997
  156.0930  140.3255  155.7811 H   0  0  0  0  0  0  0  0  0  0  0  0  # atno 8009 bound_to 7997
  155.4925  140.0547  157.2942 H   0  0  0  0  0  0  0  0  0  0  0  0  # atno 8010 bound_to 7997
  139.5231  144.6535  151.5233 H   0  0  0  0  0  0  0  0  0  0  0  0  # atno 10167 bound_to 10162
  156.9543  131.0041  151.2942 H   0  0  0  0  0  0  0  0  0  0  0  0  # atno 10718 bound_to 10713
  154.5645  135.2823  155.0887 H   0  0  0  0  0  0  0  0  0  0  0  0  # atno 10763 bound_to 10752
  154.2283  135.6379  153.5171 H   0  0  0  0  0  0  0  0  0  0  0  0  # atno 10764 bound_to 10752
  153.0039  135.5531  154.6250 H   0  0  0  0  0  0  0  0  0  0  0  0  # atno 10765 bound_to 10752
  140.9516  133.7218  156.1228 H   0  0  0  0  0  0  0  0  0  0  0  0  # atno 11005 bound_to 11000
  144.8516  139.5313  143.6854 LP  0  0  0  0  0  0  0  0  0  0  0  0  # atno 17320 bound_to 7965
  146.2847  139.6972  142.9204 LP  0  0  0  0  0  0  0  0  0  0  0  0  # atno 17321 bound_to 7965
  140.6350  143.9002  150.6639 LP  0  0  0  0  0  0  0  0  0  0  0  0  # atno 17342 bound_to 10162
  140.2318  143.3729  152.1559 LP  0  0  0  0  0  0  0  0  0  0  0  0  # atno 17343 bound_to 10162
  157.5701  130.8304  149.8380 LP  0  0  0  0  0  0  0  0  0  0  0  0  # atno 17370 bound_to 10713
  156.0349  130.3754  150.1586 LP  0  0  0  0  0  0  0  0  0  0  0  0  # atno 17371 bound_to 10713
  140.7595  134.3955  157.5528 LP  0  0  0  0  0  0  0  0  0  0  0  0  # atno 17394 bound_to 11000
  139.8849  134.8952  156.2675 LP  0  0  0  0  0  0  0  0  0  0  0  0  # atno 17395 bound_to 11000

$$$$
