AV-unprocessed.smi:2673|AV-procd|sdf|10355|dock2
  -GOLD-   2272014383D 1   1.00000     0.00000
 Structure written by MMmdl.
 31 32  0  0  0  0  0  0  0  0  2 V2000
  150.8865  141.2716  156.7806 O   0  0  0  0  0  0  0  0  0  0  0  0
  151.9290  140.8318  157.2694 C   0  0  0  0  0  0  0  0  0  0  0  0
  152.6008  139.7355  156.8496 N   0  5  0  0  0  0  0  0  0  0  0  0
  152.0565  138.9265  155.9257 C   0  0  0  0  0  0  0  0  0  0  0  0
  152.3670  137.6230  155.8380 N   0  0  0  0  0  0  0  0  0  0  0  0
  151.6953  136.9695  154.8136 N   0  0  0  0  0  0  0  0  0  0  0  0
  150.8987  137.8034  154.1457 C   0  0  0  0  0  0  0  0  0  0  0  0
  150.8973  139.4621  154.7061 S   0  0  0  0  0  0  0  0  0  0  0  0
  152.5144  141.4439  158.3138 N   0  0  0  0  0  0  0  0  0  0  0  0
  152.1318  142.6547  159.0638 C   0  0  0  0  0  0  0  0  0  0  0  0
  152.7222  142.4461  160.4917 C   0  0  0  0  0  0  0  0  0  0  0  0
  152.4496  143.4527  161.3194 F   0  0  0  0  0  0  0  0  0  0  0  0
  152.2328  141.3303  161.0360 F   0  0  0  0  0  0  0  0  0  0  0  0
  154.0494  142.3209  160.4293 F   0  0  0  0  0  0  0  0  0  0  0  0
  152.7516  143.9135  158.3797 C   0  0  0  0  0  0  0  0  0  0  0  0
  152.2032  145.2534  158.9013 C   0  0  0  0  0  0  0  0  0  0  0  0
  150.6710  145.2937  158.8409 C   0  0  0  0  0  0  0  0  0  0  0  0
  150.0563  144.1263  159.6231 C   0  0  0  0  0  0  0  0  0  0  0  0
  150.5762  142.7707  159.1124 C   0  0  0  0  0  0  0  0  0  0  0  0
  150.3099  137.4404  153.3167 H   0  0  0  0  0  0  0  0  0  0  0  0
  153.3619  141.0034  158.6408 H   0  0  0  0  0  0  0  0  0  0  0  0
  153.8377  143.9001  158.4734 H   0  0  0  0  0  0  0  0  0  0  0  0
  152.5571  143.9000  157.3087 H   0  0  0  0  0  0  0  0  0  0  0  0
  152.5407  145.4353  159.9207 H   0  0  0  0  0  0  0  0  0  0  0  0
  152.6125  146.0690  158.3046 H   0  0  0  0  0  0  0  0  0  0  0  0
  150.3077  146.2413  159.2394 H   0  0  0  0  0  0  0  0  0  0  0  0
  150.3448  145.2491  157.8010 H   0  0  0  0  0  0  0  0  0  0  0  0
  150.2629  144.2411  160.6864 H   0  0  0  0  0  0  0  0  0  0  0  0
  148.9705  144.1562  159.5283 H   0  0  0  0  0  0  0  0  0  0  0  0
  150.1537  142.6342  158.1183 H   0  0  0  0  0  0  0  0  0  0  0  0
  150.1548  141.9661  159.7152 H   0  0  0  0  0  0  0  0  0  0  0  0
  1  2  2  0  0  0  0
  2  3  1  0  0  0  0
  2  9  1  0  0  0  0
  3  4  1  0  0  0  0
  4  8  1  0  0  0  0
  4  5  2  0  0  0  0
  5  6  1  0  0  0  0
  6  7  2  0  0  0  0
  7  8  1  0  0  0  0
  7 20  1  0  0  0  0
  9 10  1  0  0  0  0
  9 21  1  0  0  0  0
 10 19  1  0  0  0  0
 10 11  1  0  0  0  0
 10 15  1  0  0  0  0
 11 12  1  0  0  0  0
 11 13  1  0  0  0  0
 11 14  1  0  0  0  0
 15 16  1  0  0  0  0
 15 22  1  0  0  0  0
 15 23  1  0  0  0  0
 16 17  1  0  0  0  0
 16 24  1  0  0  0  0
 16 25  1  0  0  0  0
 17 18  1  0  0  0  0
 17 26  1  0  0  0  0
 17 27  1  0  0  0  0
 18 19  1  0  0  0  0
 18 28  1  0  0  0  0
 18 29  1  0  0  0  0
 19 30  1  0  0  0  0
 19 31  1  0  0  0  0
M  CHG  1   3  -1
M  END
> <s_m_source_file>
AV-unprocessed.smi

> <i_m_source_file_index>
2673

> <i_lp_mmshare_version>
43012

> <i_f3d_flags>
0

> <s_epik_input>
czFbY0hdbm5jMVtOSF1DKD1PKVtOSF1DMihDKEYpKEYpRilbQ0gyXVtDSDJdW0NIMl1bQ0gyXVtDSDJdMg==

> <s_epik_cmdline>
J2VwaWtfcHl0aG9uJywgJy1waCcsICc3LjAnLCAnLXRuJywgJzgnLCAnLW1hJywgJzIwMCcsICctbWV0YWxfYmluZGluZycsICctaW1hZScsICc8aW5maWxlLm1hZT4nLCAnLW9tYWUnLCAnPG91dGZpbGUubWFlPic=

> <r_epik_Ionization_Penalty>
0.0924979

> <r_epik_Ionization_Penalty_Charging>
0.057676

> <r_epik_Ionization_Penalty_Neutral>
0.0348219

> <r_epik_State_Penalty>
0.0765232

> <r_epik_Charging_Adjusted_Penalty>
0.134199

> <i_epik_Tot_Q>
-1

> <i_epik_Tot_abs_Q>
1

> <r_epik_Metal_State_Penalty>
0.0698334

> <b_epik_Metal_Only>
0

> <s_lp_Force_Field>
OPLS_2005

> <r_lp_Energy>
15.8773

> <b_lp_Chiralities_Consistent>
1

> <s_lp_Variant>
AV-unprocessed.smi:2673-1

> <Gold.Version>
5.8.1

> <Gold.Id.Protein>
6NUR|6NUR_protein|mol2

> <Gold.PLP.Fitness>
44.0118

> <Gold.PLP.PLP>
-33.3531

> <Gold.PLP.part.hbond>
-2.4515

> <Gold.PLP.part.metal>
0.0000

> <Gold.PLP.part.buried>
-0.2712

> <Gold.PLP.part.nonpolar>
-30.7209

> <Gold.PLP.part.repulsive>
0.2694

> <Gold.PLP.ligand.clash>
0.0000

> <Gold.PLP.ligand.torsion>
0.7294

> <Gold.PLP.Chemscore.Hbond>
3.0000

> <Gold.PLP.Chemscore.CHOScore>
1.0213

> <Gold.PLP.Chemscore.Metal>
0.0000

> <Gold.Chemscore.Hbonds>
donor molecule, donor type, donor heavy atom, donor atom, acceptor molecule, acceptor atom, score
      P1  H  7997  8009       L1     3  2.00
      P1  H 10752 10765       L1     6  1.00
      L1  C     7    20       P1  7948  0.76
      L1  C     7    20       P1  7949  0.26

> <Gold.PLP.Chemscore.Internal.Correction>
0.0536

> <Gold.Rescore>
     Score         DG    S(hbond)    S(metal)    S(lipo)     H(rot)  DE(clash)    DE(int)     intcor
     11.10     -17.68       1.38        0.00      86.87       1.00       1.04       5.54       ----

> <Gold.Chemscore.Fitness>
11.1050

> <Gold.Chemscore.DG>
-17.6817

> <Gold.Chemscore.ZeroCoef>
-5.4800

> <Gold.Chemscore.Hbond>
1.3767

> <Gold.Chemscore.Metal>
0.0000

> <Gold.Chemscore.Lipo>
86.8671

> <Gold.Chemscore.Internal_Hbond>
0.0000

> <Gold.Chemscore.DEClash>
1.0365

> <Gold.Chemscore.DEInternal>
5.5402

> <Gold.Chemscore.Rot>
1.0000

> <Gold.Chemscore.Internal.Correction>
   9.000000E+99

> <Gold.Chemscore.Hbonds>
donor molecule, donor type, donor heavy atom, donor atom, acceptor molecule, acceptor atom, score
      P1  H  7997  8009       L1     3  0.73
      P1  H 10752 10765       L1     6  0.25

> <Gold.Chemscore.Hbond.Weighted>
-4.5982

> <Gold.Chemscore.Metal.Weighted>
-0.0000

> <Gold.Chemscore.Lipo.Weighted>
-10.1634

> <Gold.Chemscore.Internal_Hbond.Weighted>
0.0000

> <Gold.Chemscore.DEClash.Weighted>
1.0365

> <Gold.Chemscore.DEInternal.Weighted>
5.5402

> <Gold.Chemscore.Rot.Weighted>
2.5600

> <Gold.Chemscore.Internal.Correction.Weighted>
   9.000000E+99

> <Gold.Protein.RotatedTorsions>
[ 6907 6896 6895 6894 ] final   28.72 input  -60.11 | X-H torsion
[ 7974 7965 7964 7962 ] final  103.76 input  175.53 | X-H torsion
[ 8008 7997 7996 7995 ] final  177.85 input   59.86 | X-H torsion
[ 10167 10162 10161 10158 ] final  -33.29 input  -65.29 | X-H torsion
[ 10718 10713 10712 10709 ] final   38.44 input   66.30 | X-H torsion
[ 10763 10752 10751 10750 ] final  169.05 input  -60.55 | X-H torsion
[ 11005 11000 10999 10996 ] final -106.57 input  -57.11 | X-H torsion

> <Gold.Protein.ActiveResidues>
 VAL166  LYS551  ARG553  GLY616  TRP617  ASP618  TYR619  PRO620  LYS621  CYS622 
 ASP623  PHE694  ASN695  SER759  ASP760  ASP761  ALA762  ILE779  LEU786  VAL792 
 PHE793  MET794  SER795  GLU796  ALA797  LYS798  CYS799  TRP800  GLU811  SER814 

> <Gold.Protein.RotatedAtoms>
  152.0210  134.9822  160.0570 H   0  0  0  0  0  0  0  0  0  0  0  0  # atno 6907 bound_to 6896
  152.1337  133.4418  159.4741 H   0  0  0  0  0  0  0  0  0  0  0  0  # atno 6908 bound_to 6896
  150.6858  134.2308  159.4477 H   0  0  0  0  0  0  0  0  0  0  0  0  # atno 6909 bound_to 6896
  145.3417  139.2461  143.3606 H   0  0  0  0  0  0  0  0  0  0  0  0  # atno 7974 bound_to 7965
  156.0612  140.1348  156.9939 H   0  0  0  0  0  0  0  0  0  0  0  0  # atno 8008 bound_to 7997
  154.4482  140.0991  156.6590 H   0  0  0  0  0  0  0  0  0  0  0  0  # atno 8009 bound_to 7997
  155.5375  140.3460  155.4441 H   0  0  0  0  0  0  0  0  0  0  0  0  # atno 8010 bound_to 7997
  140.7207  143.3631  151.1923 H   0  0  0  0  0  0  0  0  0  0  0  0  # atno 10167 bound_to 10162
  157.3589  130.7638  149.7033 H   0  0  0  0  0  0  0  0  0  0  0  0  # atno 10718 bound_to 10713
  154.3776  135.2753  155.2230 H   0  0  0  0  0  0  0  0  0  0  0  0  # atno 10763 bound_to 10752
  154.4351  135.5968  153.6097 H   0  0  0  0  0  0  0  0  0  0  0  0  # atno 10764 bound_to 10752
  152.9836  135.6005  154.4014 H   0  0  0  0  0  0  0  0  0  0  0  0  # atno 10765 bound_to 10752
  141.0998  133.8905  157.1872 H   0  0  0  0  0  0  0  0  0  0  0  0  # atno 11005 bound_to 11000
  146.3005  140.4015  142.8706 LP  0  0  0  0  0  0  0  0  0  0  0  0  # atno 17320 bound_to 7965
  144.8785  140.7369  143.6001 LP  0  0  0  0  0  0  0  0  0  0  0  0  # atno 17321 bound_to 7965
  139.7187  143.9258  152.2977 LP  0  0  0  0  0  0  0  0  0  0  0  0  # atno 17342 bound_to 10162
  139.9007  144.6913  150.8668 LP  0  0  0  0  0  0  0  0  0  0  0  0  # atno 17343 bound_to 10162
  155.9734  130.4119  150.4007 LP  0  0  0  0  0  0  0  0  0  0  0  0  # atno 17370 bound_to 10713
  157.2081  131.0454  151.2614 LP  0  0  0  0  0  0  0  0  0  0  0  0  # atno 17371 bound_to 10713
  139.9845  135.0086  156.9830 LP  0  0  0  0  0  0  0  0  0  0  0  0  # atno 17394 bound_to 11000
  140.5051  134.1058  155.7258 LP  0  0  0  0  0  0  0  0  0  0  0  0  # atno 17395 bound_to 11000

$$$$
