AV-unprocessed.smi:193|AV-procd|sdf|1505|dock10
  -GOLD-   2262019333D 1   1.00000     0.00000
 Structure written by MMmdl.
 62 66  0  0  0  0  0  0  0  0  2 V2000
  145.8622  130.9559  151.1653 C   0  0  0  0  0  0  0  0  0  0  0  0
  146.2860  131.9523  152.2557 C   0  0  1  0  0  0  0  0  0  0  0  0
  147.3098  131.2702  153.1921 C   0  0  0  0  0  0  0  0  0  0  0  0
  147.5890  132.0215  154.4153 N   0  0  0  0  0  0  0  0  0  0  0  0
  146.8689  131.7353  155.5336 C   0  0  0  0  0  0  0  0  0  0  0  0
  145.6351  131.1768  155.4106 N   0  0  0  0  0  0  0  0  0  0  0  0
  144.8996  130.9114  156.4936 C   0  0  0  0  0  0  0  0  0  0  0  0
  145.1990  131.1220  157.7758 N   0  0  0  0  0  0  0  0  0  0  0  0
  146.4381  131.6746  157.9102 C   0  0  0  0  0  0  0  0  0  0  0  0
  147.3332  132.0055  156.8532 C   0  0  0  0  0  0  0  0  0  0  0  0
  148.5093  132.5272  157.3802 N   0  0  0  0  0  0  0  0  0  0  0  0
  148.3154  132.5175  158.6703 C   0  0  0  0  0  0  0  0  0  0  0  0
  147.0921  132.0346  159.0754 N   0  0  0  0  0  0  0  0  0  0  0  0
  146.6107  131.9190  160.4435 C   0  0  0  0  0  0  0  0  0  0  0  0
  146.1862  133.2671  161.0784 C   0  0  0  0  0  0  0  0  0  0  0  0
  144.7761  133.3692  160.9797 O   0  0  0  0  0  0  0  0  0  0  0  0
  146.5744  133.3011  162.5705 C   0  0  0  0  0  0  0  0  0  0  0  0
  146.3301  134.6825  163.2034 C   0  0  0  0  0  0  0  0  0  0  0  0
  147.0223  135.6834  162.4669 O   0  0  0  0  0  0  0  0  0  0  0  0
  146.5596  135.7978  161.1268 C   0  0  0  0  0  0  0  0  0  0  0  0
  146.8122  134.4850  160.3641 C   0  0  0  0  0  0  0  0  0  0  0  0
  148.0628  133.3974  154.2794 C   0  0  0  0  0  0  0  0  0  0  0  0
  146.9236  134.3522  153.8772 C   0  0  0  0  0  0  0  0  0  0  0  0
  146.7153  134.4784  152.4102 N   0  3  2  0  0  0  0  0  0  0  0  0
  145.4470  135.1842  152.1046 C   0  0  2  0  0  0  0  0  0  0  0  0
  145.5022  136.0375  150.8566 C   0  0  0  0  0  0  0  0  0  0  0  0
  145.4948  136.6990  152.2165 C   0  0  2  0  0  0  0  0  0  0  0  0
  146.7103  137.4781  152.6847 C   0  0  0  0  0  0  0  0  0  0  0  0
  146.8742  133.2303  151.6103 C   0  0  0  0  0  0  0  0  0  0  0  0
  146.7110  130.6547  150.5503 H   0  0  0  0  0  0  0  0  0  0  0  0
  145.1086  131.3876  150.5060 H   0  0  0  0  0  0  0  0  0  0  0  0
  145.4317  130.0544  151.6025 H   0  0  0  0  0  0  0  0  0  0  0  0
  145.3822  132.2050  152.8114 H   0  0  0  0  0  0  0  0  0  0  0  0
  146.9674  130.2681  153.4550 H   0  0  0  0  0  0  0  0  0  0  0  0
  148.2514  131.1185  152.6632 H   0  0  0  0  0  0  0  0  0  0  0  0
  143.9320  130.4695  156.3063 H   0  0  0  0  0  0  0  0  0  0  0  0
  149.0614  132.8723  159.3668 H   0  0  0  0  0  0  0  0  0  0  0  0
  145.7777  131.2149  160.4556 H   0  0  0  0  0  0  0  0  0  0  0  0
  147.4023  131.4605  161.0378 H   0  0  0  0  0  0  0  0  0  0  0  0
  144.4933  134.1215  161.4765 H   0  0  0  0  0  0  0  0  0  0  0  0
  146.0330  132.5337  163.1252 H   0  0  0  0  0  0  0  0  0  0  0  0
  147.6334  133.0600  162.6727 H   0  0  0  0  0  0  0  0  0  0  0  0
  145.2649  134.9152  163.2445 H   0  0  0  0  0  0  0  0  0  0  0  0
  146.6936  134.6897  164.2311 H   0  0  0  0  0  0  0  0  0  0  0  0
  145.5010  136.0611  161.1168 H   0  0  0  0  0  0  0  0  0  0  0  0
  147.0913  136.6166  160.6422 H   0  0  0  0  0  0  0  0  0  0  0  0
  147.8892  134.3358  160.2781 H   0  0  0  0  0  0  0  0  0  0  0  0
  146.4326  134.5777  159.3459 H   0  0  0  0  0  0  0  0  0  0  0  0
  148.4878  133.7379  155.2216 H   0  0  0  0  0  0  0  0  0  0  0  0
  148.8836  133.4425  153.5632 H   0  0  0  0  0  0  0  0  0  0  0  0
  145.9925  134.0679  154.3700 H   0  0  0  0  0  0  0  0  0  0  0  0
  147.1610  135.3459  154.2553 H   0  0  0  0  0  0  0  0  0  0  0  0
  144.5346  134.6405  152.3439 H   0  0  0  0  0  0  0  0  0  0  0  0
  146.4306  136.0618  150.2888 H   0  0  0  0  0  0  0  0  0  0  0  0
  144.5946  136.1178  150.2617 H   0  0  0  0  0  0  0  0  0  0  0  0
  144.5562  137.1677  152.5060 H   0  0  0  0  0  0  0  0  0  0  0  0
  147.6366  137.0210  152.3364 H   0  0  0  0  0  0  0  0  0  0  0  0
  146.7290  137.5267  153.7734 H   0  0  0  0  0  0  0  0  0  0  0  0
  146.6678  138.4965  152.2979 H   0  0  0  0  0  0  0  0  0  0  0  0
  147.9355  133.0835  151.4070 H   0  0  0  0  0  0  0  0  0  0  0  0
  146.4276  133.3912  150.6284 H   0  0  0  0  0  0  0  0  0  0  0  0
  147.4477  135.0905  152.0804 H   0  0  0  0  0  0  0  0  0  0  0  0
  1  2  1  0  0  0  0
  1 30  1  0  0  0  0
  1 31  1  0  0  0  0
  1 32  1  0  0  0  0
  2 29  1  0  0  0  0
  2  3  1  0  0  0  0
  2 33  1  0  0  0  0
  3  4  1  0  0  0  0
  3 34  1  0  0  0  0
  3 35  1  0  0  0  0
  4  5  1  0  0  0  0
  4 22  1  0  0  0  0
  5 10  1  0  0  0  0
  5  6  2  0  0  0  0
  6  7  1  0  0  0  0
  7  8  2  0  0  0  0
  7 36  1  0  0  0  0
  8  9  1  0  0  0  0
  9 13  1  0  0  0  0
  9 10  2  0  0  0  0
 10 11  1  0  0  0  0
 11 12  2  0  0  0  0
 12 13  1  0  0  0  0
 12 37  1  0  0  0  0
 13 14  1  0  0  0  0
 14 15  1  0  0  0  0
 14 38  1  0  0  0  0
 14 39  1  0  0  0  0
 15 21  1  0  0  0  0
 15 16  1  0  0  0  0
 15 17  1  0  0  0  0
 16 40  1  0  0  0  0
 17 18  1  0  0  0  0
 17 41  1  0  0  0  0
 17 42  1  0  0  0  0
 18 19  1  0  0  0  0
 18 43  1  0  0  0  0
 18 44  1  0  0  0  0
 19 20  1  0  0  0  0
 20 21  1  0  0  0  0
 20 45  1  0  0  0  0
 20 46  1  0  0  0  0
 21 47  1  0  0  0  0
 21 48  1  0  0  0  0
 22 23  1  0  0  0  0
 22 49  1  0  0  0  0
 22 50  1  0  0  0  0
 23 24  1  0  0  0  0
 23 51  1  0  0  0  0
 23 52  1  0  0  0  0
 24 25  1  0  0  0  0
 24 29  1  0  0  0  0
 24 62  1  0  0  0  0
 25 27  1  0  0  0  0
 25 26  1  0  0  0  0
 25 53  1  0  0  0  0
 26 27  1  0  0  0  0
 26 54  1  0  0  0  0
 26 55  1  0  0  0  0
 27 28  1  0  0  0  0
 27 56  1  0  0  0  0
 28 57  1  0  0  0  0
 28 58  1  0  0  0  0
 28 59  1  0  0  0  0
 29 60  1  0  0  0  0
 29 61  1  0  0  0  0
M  CHG  1  24   1
M  END
> <s_m_source_file>
AV-unprocessed.smi

> <i_m_source_file_index>
193

> <i_lp_mmshare_version>
43012

> <i_f3d_flags>
0

> <s_epik_input>
W0NIM11bQ0BASF0xW0NIMl1bQ0BIXTFOKFtDSDJdMilbQ0gyXVtDSDJdTihbQ0gyXVtDQEhdMltDSDNdKWMobltjSF1uMyljKGMzNCluW2NIXW40W0NIMl1DNShbT0hdKVtDSDJdW0NIMl1PW0NIMl1bQ0gyXTU=

> <s_epik_cmdline>
J2VwaWtfcHl0aG9uJywgJy1waCcsICc3LjAnLCAnLXRuJywgJzgnLCAnLW1hJywgJzIwMCcsICctbWV0YWxfYmluZGluZycsICctaW1hZScsICc8aW5maWxlLm1hZT4nLCAnLW9tYWUnLCAnPG91dGZpbGUubWFlPic=

> <r_lp_tautomer_probability>
1

> <r_epik_Ionization_Penalty>
0.0540825

> <r_epik_Ionization_Penalty_Charging>
0.0538476

> <r_epik_Ionization_Penalty_Neutral>
0.000234891

> <r_epik_State_Penalty>
0.0200719

> <r_epik_Charging_Adjusted_Penalty>
0.0739194

> <i_epik_Tot_Q>
1

> <i_epik_Tot_abs_Q>
1

> <r_epik_Metal_State_Penalty>
0.0199414

> <b_epik_Metal_Only>
0

> <s_lp_Force_Field>
OPLS_2005

> <r_lp_Energy>
56.796

> <b_lp_Chiralities_Consistent>
1

> <s_lp_Variant>
AV-unprocessed.smi:193-10

> <Gold.Version>
5.8.1

> <Gold.Id.Protein>
6NUR|6NUR_protein|mol2

> <Gold.PLP.Fitness>
45.1032

> <Gold.PLP.PLP>
-36.0572

> <Gold.PLP.part.hbond>
-2.0000

> <Gold.PLP.part.metal>
0.0000

> <Gold.PLP.part.buried>
0.9397

> <Gold.PLP.part.nonpolar>
-35.3778

> <Gold.PLP.part.repulsive>
0.2254

> <Gold.PLP.ligand.clash>
0.0013

> <Gold.PLP.ligand.torsion>
2.2307

> <Gold.PLP.Chemscore.Hbond>
2.9840

> <Gold.PLP.Chemscore.CHOScore>
1.0328

> <Gold.PLP.Chemscore.Metal>
0.0000

> <Gold.Chemscore.Hbonds>
donor molecule, donor type, donor heavy atom, donor atom, acceptor molecule, acceptor atom, score
      L1  H    24    62       P1  7948  2.00
      L1  C     7    36       P1 10956  0.41

> <Gold.PLP.Chemscore.Internal.Correction>
1.4584

> <Gold.Rescore>
     Score         DG    S(hbond)    S(metal)    S(lipo)     H(rot)  DE(clash)    DE(int)     intcor
     14.12     -17.93       1.84        0.00      96.14       1.93       0.57       3.23       ----

> <Gold.Chemscore.Fitness>
14.1212

> <Gold.Chemscore.DG>
-17.9257

> <Gold.Chemscore.ZeroCoef>
-5.4800

> <Gold.Chemscore.Hbond>
1.8370

> <Gold.Chemscore.Metal>
0.0000

> <Gold.Chemscore.Lipo>
96.1405

> <Gold.Chemscore.Internal_Hbond>
0.0000

> <Gold.Chemscore.DEClash>
0.5735

> <Gold.Chemscore.DEInternal>
3.2309

> <Gold.Chemscore.Rot>
1.9290

> <Gold.Chemscore.Internal.Correction>
   9.000000E+99

> <Gold.Chemscore.Hbonds>
donor molecule, donor type, donor heavy atom, donor atom, acceptor molecule, acceptor atom, score
      L1  H    24    62       P1  7948  0.97

> <Gold.Chemscore.Hbond.Weighted>
-6.1355

> <Gold.Chemscore.Metal.Weighted>
-0.0000

> <Gold.Chemscore.Lipo.Weighted>
-11.2484

> <Gold.Chemscore.Internal_Hbond.Weighted>
0.0000

> <Gold.Chemscore.DEClash.Weighted>
0.5735

> <Gold.Chemscore.DEInternal.Weighted>
3.2309

> <Gold.Chemscore.Rot.Weighted>
4.9383

> <Gold.Chemscore.Internal.Correction.Weighted>
   9.000000E+99

> <Gold.Protein.RotatedTorsions>
[ 6907 6896 6895 6894 ] final -115.90 input  -60.11 | X-H torsion
[ 7974 7965 7964 7962 ] final  -18.85 input  175.53 | X-H torsion
[ 8008 7997 7996 7995 ] final -103.04 input   59.86 | X-H torsion
[ 10167 10162 10161 10158 ] final -118.62 input  -65.29 | X-H torsion
[ 10718 10713 10712 10709 ] final   20.76 input   66.30 | X-H torsion
[ 10763 10752 10751 10750 ] final    5.41 input  -60.55 | X-H torsion
[ 11005 11000 10999 10996 ] final -156.56 input  -57.11 | X-H torsion

> <Gold.Protein.ActiveResidues>
 VAL166  LYS551  ARG553  GLY616  TRP617  ASP618  TYR619  PRO620  LYS621  CYS622 
 ASP623  PHE694  ASN695  SER759  ASP760  ASP761  ALA762  ILE779  LEU786  VAL792 
 PHE793  MET794  SER795  GLU796  ALA797  LYS798  CYS799  TRP800  GLU811  SER814 

> <Gold.Protein.RotatedAtoms>
  150.8014  133.8592  159.3226 H   0  0  0  0  0  0  0  0  0  0  0  0  # atno 6907 bound_to 6896
  151.6403  135.1011  160.0149 H   0  0  0  0  0  0  0  0  0  0  0  0  # atno 6908 bound_to 6896
  152.4101  133.6911  159.6425 H   0  0  0  0  0  0  0  0  0  0  0  0  # atno 6909 bound_to 6896
  146.1871  140.3979  142.8472 H   0  0  0  0  0  0  0  0  0  0  0  0  # atno 7974 bound_to 7965
  154.8652  140.0425  157.1690 H   0  0  0  0  0  0  0  0  0  0  0  0  # atno 8008 bound_to 7997
  154.8798  140.2971  155.5411 H   0  0  0  0  0  0  0  0  0  0  0  0  # atno 8009 bound_to 7997
  156.2999  140.2413  156.3799 H   0  0  0  0  0  0  0  0  0  0  0  0  # atno 8010 bound_to 7997
  140.0556  143.5018  152.2059 H   0  0  0  0  0  0  0  0  0  0  0  0  # atno 10167 bound_to 10162
  157.1291  130.6583  149.5946 H   0  0  0  0  0  0  0  0  0  0  0  0  # atno 10718 bound_to 10713
  153.2597  135.6922  153.7592 H   0  0  0  0  0  0  0  0  0  0  0  0  # atno 10763 bound_to 10752
  153.6655  135.3353  155.3140 H   0  0  0  0  0  0  0  0  0  0  0  0  # atno 10764 bound_to 10752
  154.8425  135.4487  154.1583 H   0  0  0  0  0  0  0  0  0  0  0  0  # atno 10765 bound_to 10752
  140.6743  134.4214  157.5230 H   0  0  0  0  0  0  0  0  0  0  0  0  # atno 11005 bound_to 11000
  144.8418  140.6868  143.6224 LP  0  0  0  0  0  0  0  0  0  0  0  0  # atno 17320 bound_to 7965
  145.3904  139.1618  143.4232 LP  0  0  0  0  0  0  0  0  0  0  0  0  # atno 17321 bound_to 7965
  139.5926  144.7555  151.3364 LP  0  0  0  0  0  0  0  0  0  0  0  0  # atno 17342 bound_to 10162
  140.7196  143.7171  150.7724 LP  0  0  0  0  0  0  0  0  0  0  0  0  # atno 17343 bound_to 10162
  155.9812  130.4817  150.6814 LP  0  0  0  0  0  0  0  0  0  0  0  0  # atno 17370 bound_to 10713
  157.4409  131.0861  151.0945 LP  0  0  0  0  0  0  0  0  0  0  0  0  # atno 17371 bound_to 10713
  139.8972  134.8643  156.2056 LP  0  0  0  0  0  0  0  0  0  0  0  0  # atno 17394 bound_to 11000
  141.0368  133.6959  156.1526 LP  0  0  0  0  0  0  0  0  0  0  0  0  # atno 17395 bound_to 11000

$$$$
