AV-unprocessed.smi:2482|AV-procd|sdf|9779|dock4
  -GOLD-   2272013423D 1   1.00000     0.00000
 Structure written by MMmdl.
 34 35  0  0  0  0  0  0  0  0  1 V2000
  151.8865  146.1089  160.6174 C   0  0  0  0  0  0  0  0  0  0  0  0
  152.1061  144.6106  160.5212 C   0  0  0  0  0  0  0  0  0  0  0  0
  152.3511  143.9791  161.6901 N   0  0  0  0  0  0  0  0  0  0  0  0
  152.5444  142.6448  161.6622 C   0  0  0  0  0  0  0  0  0  0  0  0
  152.5098  141.8813  160.4800 C   0  0  0  0  0  0  0  0  0  0  0  0
  152.2704  142.5420  159.2512 C   0  0  0  0  0  0  0  0  0  0  0  0
  152.1935  141.8668  158.0018 N   0  0  0  0  0  0  0  0  0  0  0  0
  151.9466  140.5668  157.7539 C   0  0  0  0  0  0  0  0  0  0  0  0
  151.7282  139.7227  158.6233 O   0  0  0  0  0  0  0  0  0  0  0  0
  151.9477  140.1627  156.2723 C   0  0  2  0  0  0  0  0  0  0  0  0
  150.5796  139.6251  155.7934 C   0  0  0  0  0  0  0  0  0  0  0  0
  150.6258  139.1865  154.4042 N   0  0  0  0  0  0  0  0  0  0  0  0
  149.3370  138.6789  153.9593 C   0  0  0  0  0  0  0  0  0  0  0  0
  151.6804  138.1960  154.2370 C   0  0  0  0  0  0  0  0  0  0  0  0
  153.0410  138.7321  154.7119 C   0  0  0  0  0  0  0  0  0  0  0  0
  152.9392  139.1542  156.0683 O   0  0  0  0  0  0  0  0  0  0  0  0
  152.0503  143.9393  159.2771 C   0  0  0  0  0  0  0  0  0  0  0  0
  151.7252  144.8123  157.8165 Cl  0  0  0  0  0  0  0  0  0  0  0  0
  152.6303  146.6400  160.0229 H   0  0  0  0  0  0  0  0  0  0  0  0
  151.9656  146.4609  161.6470 H   0  0  0  0  0  0  0  0  0  0  0  0
  150.8955  146.3719  160.2465 H   0  0  0  0  0  0  0  0  0  0  0  0
  152.7249  142.1678  162.6142 H   0  0  0  0  0  0  0  0  0  0  0  0
  152.6527  140.8137  160.5419 H   0  0  0  0  0  0  0  0  0  0  0  0
  152.4381  142.4239  157.1954 H   0  0  0  0  0  0  0  0  0  0  0  0
  152.2176  141.0462  155.6909 H   0  0  0  0  0  0  0  0  0  0  0  0
  150.2691  138.7953  156.4308 H   0  0  0  0  0  0  0  0  0  0  0  0
  149.8217  140.4022  155.9018 H   0  0  0  0  0  0  0  0  0  0  0  0
  149.3786  138.3859  152.9098 H   0  0  0  0  0  0  0  0  0  0  0  0
  148.5655  139.4428  154.0599 H   0  0  0  0  0  0  0  0  0  0  0  0
  149.0326  137.8095  154.5433 H   0  0  0  0  0  0  0  0  0  0  0  0
  151.4330  137.2937  154.7982 H   0  0  0  0  0  0  0  0  0  0  0  0
  151.7508  137.9031  153.1890 H   0  0  0  0  0  0  0  0  0  0  0  0
  153.8026  137.9559  154.6361 H   0  0  0  0  0  0  0  0  0  0  0  0
  153.3681  139.5653  154.0883 H   0  0  0  0  0  0  0  0  0  0  0  0
  1  2  1  0  0  0  0
  1 19  1  0  0  0  0
  1 20  1  0  0  0  0
  1 21  1  0  0  0  0
  2 17  1  0  0  0  0
  2  3  2  0  0  0  0
  3  4  1  0  0  0  0
  4  5  2  0  0  0  0
  4 22  1  0  0  0  0
  5  6  1  0  0  0  0
  5 23  1  0  0  0  0
  6  7  1  0  0  0  0
  6 17  2  0  0  0  0
  7  8  1  0  0  0  0
  7 24  1  0  0  0  0
  8  9  2  0  0  0  0
  8 10  1  0  0  0  0
 10 16  1  0  0  0  0
 10 11  1  0  0  0  0
 10 25  1  0  0  0  0
 11 12  1  0  0  0  0
 11 26  1  0  0  0  0
 11 27  1  0  0  0  0
 12 13  1  0  0  0  0
 12 14  1  0  0  0  0
 13 28  1  0  0  0  0
 13 29  1  0  0  0  0
 13 30  1  0  0  0  0
 14 15  1  0  0  0  0
 14 31  1  0  0  0  0
 14 32  1  0  0  0  0
 15 16  1  0  0  0  0
 15 33  1  0  0  0  0
 15 34  1  0  0  0  0
 17 18  1  0  0  0  0
M  END
> <s_m_source_file>
AV-unprocessed.smi

> <i_m_source_file_index>
2482

> <i_lp_mmshare_version>
43012

> <i_f3d_flags>
0

> <s_epik_input>
W0NIM11jMW5bY0hdW2NIXWMoYzFDbClbTkhdQyg9TylbQ0BASF0yW0NIMl1OKFtDSDNdKVtDSDJdW0NIMl1PMg==

> <s_epik_cmdline>
J2VwaWtfcHl0aG9uJywgJy1waCcsICc3LjAnLCAnLXRuJywgJzgnLCAnLW1hJywgJzIwMCcsICctbWV0YWxfYmluZGluZycsICctaW1hZScsICc8aW5maWxlLm1hZT4nLCAnLW9tYWUnLCAnPG91dGZpbGUubWFlPic=

> <r_epik_Ionization_Penalty>
0.52656

> <r_epik_Ionization_Penalty_Charging>
0

> <r_epik_Ionization_Penalty_Neutral>
0.52656

> <r_epik_State_Penalty>
0.534659

> <r_epik_Charging_Adjusted_Penalty>
0.534659

> <i_epik_Tot_Q>
0

> <i_epik_Tot_abs_Q>
0

> <r_epik_Metal_State_Penalty>
0.54077

> <b_epik_Metal_Only>
0

> <s_lp_Force_Field>
OPLS_2005

> <r_lp_Energy>
25.1239

> <b_lp_Chiralities_Consistent>
1

> <s_lp_Variant>
AV-unprocessed.smi:2482-5

> <Gold.Version>
5.8.1

> <Gold.Id.Protein>
6NUR|6NUR_protein|mol2

> <Gold.PLP.Fitness>
42.3081

> <Gold.PLP.PLP>
-37.7472

> <Gold.PLP.part.hbond>
-1.6459

> <Gold.PLP.part.metal>
0.0000

> <Gold.PLP.part.buried>
-0.5237

> <Gold.PLP.part.nonpolar>
-35.1807

> <Gold.PLP.part.repulsive>
0.3849

> <Gold.PLP.ligand.clash>
0.0000

> <Gold.PLP.ligand.torsion>
0.1109

> <Gold.PLP.Chemscore.Hbond>
1.5935

> <Gold.PLP.Chemscore.CHOScore>
0.0000

> <Gold.PLP.Chemscore.Metal>
0.0000

> <Gold.Chemscore.Hbonds>
donor molecule, donor type, donor heavy atom, donor atom, acceptor molecule, acceptor atom, score
      P1  H  7989  7998       L1    12  0.63
      P1  H  7997  8008       L1    16  0.95

> <Gold.PLP.Chemscore.Internal.Correction>
0.0022

> <Gold.Rescore>
     Score         DG    S(hbond)    S(metal)    S(lipo)     H(rot)  DE(clash)    DE(int)     intcor
     15.84     -17.17       0.22        0.00     115.55       1.00       0.06       1.27       ----

> <Gold.Chemscore.Fitness>
15.8355

> <Gold.Chemscore.DG>
-17.1743

> <Gold.Chemscore.ZeroCoef>
-5.4800

> <Gold.Chemscore.Hbond>
0.2200

> <Gold.Chemscore.Metal>
0.0000

> <Gold.Chemscore.Lipo>
115.5500

> <Gold.Chemscore.Internal_Hbond>
0.0000

> <Gold.Chemscore.DEClash>
0.0643

> <Gold.Chemscore.DEInternal>
1.2744

> <Gold.Chemscore.Rot>
1.0000

> <Gold.Chemscore.Internal.Correction>
   9.000000E+99

> <Gold.Chemscore.Hbonds>
donor molecule, donor type, donor heavy atom, donor atom, acceptor molecule, acceptor atom, score
      P1  H  7989  7998       L1    12  0.04
      P1  H  7997  8008       L1    16  0.11

> <Gold.Chemscore.Hbond.Weighted>
-0.7349

> <Gold.Chemscore.Metal.Weighted>
-0.0000

> <Gold.Chemscore.Lipo.Weighted>
-13.5193

> <Gold.Chemscore.Internal_Hbond.Weighted>
0.0000

> <Gold.Chemscore.DEClash.Weighted>
0.0643

> <Gold.Chemscore.DEInternal.Weighted>
1.2744

> <Gold.Chemscore.Rot.Weighted>
2.5600

> <Gold.Chemscore.Internal.Correction.Weighted>
   9.000000E+99

> <Gold.Protein.RotatedTorsions>
[ 6907 6896 6895 6894 ] final  141.40 input  -60.11 | X-H torsion
[ 7974 7965 7964 7962 ] final  135.76 input  175.53 | X-H torsion
[ 8008 7997 7996 7995 ] final  -42.67 input   59.86 | X-H torsion
[ 10167 10162 10161 10158 ] final  -30.41 input  -65.29 | X-H torsion
[ 10718 10713 10712 10709 ] final  137.92 input   66.30 | X-H torsion
[ 10763 10752 10751 10750 ] final   -3.79 input  -60.55 | X-H torsion
[ 11005 11000 10999 10996 ] final   96.65 input  -57.11 | X-H torsion

> <Gold.Protein.ActiveResidues>
 VAL166  LYS551  ARG553  GLY616  TRP617  ASP618  TYR619  PRO620  LYS621  CYS622 
 ASP623  PHE694  ASN695  SER759  ASP760  ASP761  ALA762  ILE779  LEU786  VAL792 
 PHE793  MET794  SER795  GLU796  ALA797  LYS798  CYS799  TRP800  GLU811  SER814 

> <Gold.Protein.RotatedAtoms>
  152.2314  133.5061  159.5217 H   0  0  0  0  0  0  0  0  0  0  0  0  # atno 6907 bound_to 6896
  150.7038  134.1211  159.4044 H   0  0  0  0  0  0  0  0  0  0  0  0  # atno 6908 bound_to 6896
  151.9132  135.0330  160.0567 H   0  0  0  0  0  0  0  0  0  0  0  0  # atno 6909 bound_to 6896
  144.9631  139.4687  143.5469 H   0  0  0  0  0  0  0  0  0  0  0  0  # atno 7974 bound_to 7965
  154.3998  140.1467  156.3393 H   0  0  0  0  0  0  0  0  0  0  0  0  # atno 8008 bound_to 7997
  155.8371  140.3463  155.5587 H   0  0  0  0  0  0  0  0  0  0  0  0  # atno 8009 bound_to 7997
  155.8127  140.0886  157.1885 H   0  0  0  0  0  0  0  0  0  0  0  0  # atno 8010 bound_to 7997
  140.7249  143.3851  151.1529 H   0  0  0  0  0  0  0  0  0  0  0  0  # atno 10167 bound_to 10162
  157.4309  131.1048  151.0251 H   0  0  0  0  0  0  0  0  0  0  0  0  # atno 10718 bound_to 10713
  153.3761  135.6996  153.6601 H   0  0  0  0  0  0  0  0  0  0  0  0  # atno 10763 bound_to 10752
  153.5231  135.3608  155.2642 H   0  0  0  0  0  0  0  0  0  0  0  0  # atno 10764 bound_to 10752
  154.8687  135.4162  154.3049 H   0  0  0  0  0  0  0  0  0  0  0  0  # atno 10765 bound_to 10752
  139.8780  134.8961  156.4190 H   0  0  0  0  0  0  0  0  0  0  0  0  # atno 11005 bound_to 11000
  146.3359  139.8795  142.8826 LP  0  0  0  0  0  0  0  0  0  0  0  0  # atno 17320 bound_to 7965
  145.2669  141.0096  143.3794 LP  0  0  0  0  0  0  0  0  0  0  0  0  # atno 17321 bound_to 7965
  139.7447  143.8870  152.3060 LP  0  0  0  0  0  0  0  0  0  0  0  0  # atno 17342 bound_to 10162
  139.8703  144.7071  150.8995 LP  0  0  0  0  0  0  0  0  0  0  0  0  # atno 17343 bound_to 10162
  157.1147  130.6036  149.5490 LP  0  0  0  0  0  0  0  0  0  0  0  0  # atno 17370 bound_to 10713
  155.9913  130.4967  150.7293 LP  0  0  0  0  0  0  0  0  0  0  0  0  # atno 17371 bound_to 10713
  140.9147  133.7687  155.9834 LP  0  0  0  0  0  0  0  0  0  0  0  0  # atno 17394 bound_to 11000
  140.8507  134.2957  157.5276 LP  0  0  0  0  0  0  0  0  0  0  0  0  # atno 17395 bound_to 11000

$$$$
