AV-unprocessed.smi:3115|AV-procd|sdf|11858|dock3
  -GOLD-   2272017243D 1   1.00000     0.00000
 Structure written by MMmdl.
 33 34  0  0  0  0  0  0  0  0  2 V2000
  152.2037  144.7744  160.1923 C   0  0  0  0  0  0  0  0  0  0  0  0
  152.5629  143.4702  159.4729 C   0  0  2  0  0  0  0  0  0  0  0  0
  151.5131  143.0836  158.4127 C   0  0  0  0  0  0  0  0  0  0  0  0
  151.8509  141.7956  157.8190 N   0  0  0  0  0  0  0  0  0  0  0  0
  151.0076  141.4277  156.7610 C   0  0  0  0  0  0  0  0  0  0  0  0
  151.2643  140.2258  156.0679 C   0  0  0  0  0  0  0  0  0  0  0  0
  150.4103  139.8577  155.0080 C   0  0  0  0  0  0  0  0  0  0  0  0
  150.6487  138.5799  154.2307 C   0  0  0  0  0  0  0  0  0  0  0  0
  149.6097  138.3940  153.2052 N   0  3  0  0  0  0  0  0  0  0  0  0
  149.3348  140.7074  154.6799 C   0  0  0  0  0  0  0  0  0  0  0  0
  149.1602  141.8869  155.4299 C   0  0  0  0  0  0  0  0  0  0  0  0
  149.9738  142.2447  156.4458 N   0  0  0  0  0  0  0  0  0  0  0  0
  152.0142  140.7490  158.8203 C   0  0  0  0  0  0  0  0  0  0  0  0
  153.0450  141.1861  159.8748 C   0  0  0  0  0  0  0  0  0  0  0  0
  152.6471  142.4302  160.4447 O   0  0  0  0  0  0  0  0  0  0  0  0
  152.1387  145.6053  159.4894 H   0  0  0  0  0  0  0  0  0  0  0  0
  152.9575  145.0284  160.9378 H   0  0  0  0  0  0  0  0  0  0  0  0
  151.2441  144.6919  160.7033 H   0  0  0  0  0  0  0  0  0  0  0  0
  153.5376  143.5933  158.9970 H   0  0  0  0  0  0  0  0  0  0  0  0
  150.5242  143.0300  158.8707 H   0  0  0  0  0  0  0  0  0  0  0  0
  151.4677  143.8452  157.6333 H   0  0  0  0  0  0  0  0  0  0  0  0
  152.0993  139.5994  156.3476 H   0  0  0  0  0  0  0  0  0  0  0  0
  151.6282  138.6096  153.7524 H   0  0  0  0  0  0  0  0  0  0  0  0
  150.6451  137.7254  154.9083 H   0  0  0  0  0  0  0  0  0  0  0  0
  149.6352  137.4434  152.8652 H   0  0  0  0  0  0  0  0  0  0  0  0
  149.7766  139.0318  152.4399 H   0  0  0  0  0  0  0  0  0  0  0  0
  148.6564  140.4653  153.8749 H   0  0  0  0  0  0  0  0  0  0  0  0
  148.3459  142.5606  155.2077 H   0  0  0  0  0  0  0  0  0  0  0  0
  151.0569  140.5454  159.3026 H   0  0  0  0  0  0  0  0  0  0  0  0
  152.3378  139.8245  158.3404 H   0  0  0  0  0  0  0  0  0  0  0  0
  153.1139  140.4388  160.6654 H   0  0  0  0  0  0  0  0  0  0  0  0
  154.0392  141.2772  159.4342 H   0  0  0  0  0  0  0  0  0  0  0  0
  148.7037  138.5845  153.6087 H   0  0  0  0  0  0  0  0  0  0  0  0
  1  2  1  0  0  0  0
  1 16  1  0  0  0  0
  1 17  1  0  0  0  0
  1 18  1  0  0  0  0
  2 15  1  0  0  0  0
  2  3  1  0  0  0  0
  2 19  1  0  0  0  0
  3  4  1  0  0  0  0
  3 20  1  0  0  0  0
  3 21  1  0  0  0  0
  4  5  1  0  0  0  0
  4 13  1  0  0  0  0
  5 12  1  0  0  0  0
  5  6  2  0  0  0  0
  6  7  1  0  0  0  0
  6 22  1  0  0  0  0
  7  8  1  0  0  0  0
  7 10  2  0  0  0  0
  8  9  1  0  0  0  0
  8 23  1  0  0  0  0
  8 24  1  0  0  0  0
  9 25  1  0  0  0  0
  9 26  1  0  0  0  0
  9 33  1  0  0  0  0
 10 11  1  0  0  0  0
 10 27  1  0  0  0  0
 11 12  2  0  0  0  0
 11 28  1  0  0  0  0
 13 14  1  0  0  0  0
 13 29  1  0  0  0  0
 13 30  1  0  0  0  0
 14 15  1  0  0  0  0
 14 31  1  0  0  0  0
 14 32  1  0  0  0  0
M  CHG  1   9   1
M  END
> <s_m_source_file>
AV-unprocessed.smi

> <i_m_source_file_index>
3115

> <i_lp_mmshare_version>
43012

> <i_f3d_flags>
0

> <s_epik_input>
W0NIM11bQ0BASF0xW0NIMl1OKFtDSDJdW0NIMl1PMSljMltjSF1jKFtDSDJdW05IMl0pW2NIXVtjSF1uMg==

> <s_epik_cmdline>
J2VwaWtfcHl0aG9uJywgJy1waCcsICc3LjAnLCAnLXRuJywgJzgnLCAnLW1hJywgJzIwMCcsICctbWV0YWxfYmluZGluZycsICctaW1hZScsICc8aW5maWxlLm1hZT4nLCAnLW9tYWUnLCAnPG91dGZpbGUubWFlPic=

> <r_lp_tautomer_probability>
1

> <r_epik_Ionization_Penalty>
0.0768907

> <r_epik_Ionization_Penalty_Charging>
0.0768864

> <r_epik_Ionization_Penalty_Neutral>
4.339e-06

> <r_epik_State_Penalty>
0.0093217

> <r_epik_Charging_Adjusted_Penalty>
0.0862081

> <i_epik_Tot_Q>
1

> <i_epik_Tot_abs_Q>
1

> <r_epik_Metal_State_Penalty>
0.0096683

> <b_epik_Metal_Only>
0

> <s_lp_Force_Field>
OPLS_2005

> <r_lp_Energy>
14.5686

> <b_lp_Chiralities_Consistent>
1

> <s_lp_Variant>
AV-unprocessed.smi:3115-1

> <Gold.Version>
5.8.1

> <Gold.Id.Protein>
6NUR|6NUR_protein|mol2

> <Gold.PLP.Fitness>
41.8169

> <Gold.PLP.PLP>
-30.9110

> <Gold.PLP.part.hbond>
-2.0238

> <Gold.PLP.part.metal>
0.0000

> <Gold.PLP.part.buried>
-1.2755

> <Gold.PLP.part.nonpolar>
-28.1838

> <Gold.PLP.part.repulsive>
2.2150

> <Gold.PLP.ligand.clash>
0.0000

> <Gold.PLP.ligand.torsion>
0.0624

> <Gold.PLP.Chemscore.Hbond>
2.9840

> <Gold.PLP.Chemscore.CHOScore>
0.6601

> <Gold.PLP.Chemscore.Metal>
0.0000

> <Gold.Chemscore.Hbonds>
donor molecule, donor type, donor heavy atom, donor atom, acceptor molecule, acceptor atom, score
      L1  H     9    25       P1  7948  1.95
      L1  H     9    26       P1  7957  1.00
      L1  C    11    28       P1  8028  0.66

> <Gold.PLP.Chemscore.Internal.Correction>
0.0986

> <Gold.Rescore>
     Score         DG    S(hbond)    S(metal)    S(lipo)     H(rot)  DE(clash)    DE(int)     intcor
     17.65     -18.05       1.84        0.00      83.33       1.30       0.33       0.07       ----

> <Gold.Chemscore.Fitness>
17.6514

> <Gold.Chemscore.DG>
-18.0463

> <Gold.Chemscore.ZeroCoef>
-5.4800

> <Gold.Chemscore.Hbond>
1.8431

> <Gold.Chemscore.Metal>
0.0000

> <Gold.Chemscore.Lipo>
83.3310

> <Gold.Chemscore.Internal_Hbond>
0.0000

> <Gold.Chemscore.DEClash>
0.3280

> <Gold.Chemscore.DEInternal>
0.0670

> <Gold.Chemscore.Rot>
1.3045

> <Gold.Chemscore.Internal.Correction>
   9.000000E+99

> <Gold.Chemscore.Hbonds>
donor molecule, donor type, donor heavy atom, donor atom, acceptor molecule, acceptor atom, score
      L1  H     9    25       P1  7948  0.56
      L1  H     9    26       P1  7957  0.74

> <Gold.Chemscore.Hbond.Weighted>
-6.1561

> <Gold.Chemscore.Metal.Weighted>
-0.0000

> <Gold.Chemscore.Lipo.Weighted>
-9.7497

> <Gold.Chemscore.Internal_Hbond.Weighted>
0.0000

> <Gold.Chemscore.DEClash.Weighted>
0.3280

> <Gold.Chemscore.DEInternal.Weighted>
0.0670

> <Gold.Chemscore.Rot.Weighted>
3.3395

> <Gold.Chemscore.Internal.Correction.Weighted>
   9.000000E+99

> <Gold.Protein.RotatedTorsions>
[ 6907 6896 6895 6894 ] final -108.60 input  -60.11 | X-H torsion
[ 7974 7965 7964 7962 ] final  -55.96 input  175.53 | X-H torsion
[ 8008 7997 7996 7995 ] final  -86.75 input   59.86 | X-H torsion
[ 10167 10162 10161 10158 ] final  -20.38 input  -65.29 | X-H torsion
[ 10718 10713 10712 10709 ] final -133.65 input   66.30 | X-H torsion
[ 10763 10752 10751 10750 ] final -172.65 input  -60.55 | X-H torsion
[ 11005 11000 10999 10996 ] final  120.43 input  -57.11 | X-H torsion

> <Gold.Protein.ActiveResidues>
 VAL166  LYS551  ARG553  GLY616  TRP617  ASP618  TYR619  PRO620  LYS621  CYS622 
 ASP623  PHE694  ASN695  SER759  ASP760  ASP761  ALA762  ILE779  LEU786  VAL792 
 PHE793  MET794  SER795  GLU796  ALA797  LYS798  CYS799  TRP800  GLU811  SER814 

> <Gold.Protein.RotatedAtoms>
  150.7511  133.9654  159.3528 H   0  0  0  0  0  0  0  0  0  0  0  0  # atno 6907 bound_to 6896
  151.7583  135.0814  160.0351 H   0  0  0  0  0  0  0  0  0  0  0  0  # atno 6908 bound_to 6896
  152.3420  133.6041  159.5919 H   0  0  0  0  0  0  0  0  0  0  0  0  # atno 6909 bound_to 6896
  145.8681  140.8236  142.9902 H   0  0  0  0  0  0  0  0  0  0  0  0  # atno 7974 bound_to 7965
  154.6554  140.0574  157.0002 H   0  0  0  0  0  0  0  0  0  0  0  0  # atno 8008 bound_to 7997
  155.1309  140.3256  155.4456 H   0  0  0  0  0  0  0  0  0  0  0  0  # atno 8009 bound_to 7997
  156.2594  140.1981  156.6428 H   0  0  0  0  0  0  0  0  0  0  0  0  # atno 8010 bound_to 7997
  140.7275  143.4728  151.0223 H   0  0  0  0  0  0  0  0  0  0  0  0  # atno 10167 bound_to 10162
  156.2472  130.7131  151.1016 H   0  0  0  0  0  0  0  0  0  0  0  0  # atno 10718 bound_to 10713
  154.6168  135.2870  155.0370 H   0  0  0  0  0  0  0  0  0  0  0  0  # atno 10763 bound_to 10752
  154.1580  135.6493  153.4983 H   0  0  0  0  0  0  0  0  0  0  0  0  # atno 10764 bound_to 10752
  153.0218  135.5371  154.6943 H   0  0  0  0  0  0  0  0  0  0  0  0  # atno 10765 bound_to 10752
  139.9185  134.9634  156.7806 H   0  0  0  0  0  0  0  0  0  0  0  0  # atno 11005 bound_to 11000
  144.6726  140.1198  143.7450 LP  0  0  0  0  0  0  0  0  0  0  0  0  # atno 17320 bound_to 7965
  145.9169  139.2521  143.1404 LP  0  0  0  0  0  0  0  0  0  0  0  0  # atno 17321 bound_to 7965
  139.8421  143.7550  152.3180 LP  0  0  0  0  0  0  0  0  0  0  0  0  # atno 17342 bound_to 10162
  139.7702  144.7479  151.0235 LP  0  0  0  0  0  0  0  0  0  0  0  0  # atno 17343 bound_to 10162
  157.7199  131.0687  150.6176 LP  0  0  0  0  0  0  0  0  0  0  0  0  # atno 17370 bound_to 10713
  156.6253  130.4417  149.5807 LP  0  0  0  0  0  0  0  0  0  0  0  0  # atno 17371 bound_to 10713
  140.6547  133.9699  155.7773 LP  0  0  0  0  0  0  0  0  0  0  0  0  # atno 17394 bound_to 11000
  141.0684  134.0242  157.3561 LP  0  0  0  0  0  0  0  0  0  0  0  0  # atno 17395 bound_to 11000

$$$$
