AV-unprocessed.smi:2061|AV-procd|sdf|8376|dock7
  -GOLD-   2272011 53D 1   1.00000     0.00000
 Structure written by MMmdl.
 44 45  0  0  0  0  0  0  0  0  2 V2000
  142.9180  135.3472  163.1607 C   0  0  0  0  0  0  0  0  0  0  0  0
  144.3107  135.1447  162.6697 C   0  0  0  0  0  0  0  0  0  0  0  0
  145.0344  135.7249  161.6669 C   0  0  0  0  0  0  0  0  0  0  0  0
  146.2910  135.0650  161.7491 C   0  0  0  0  0  0  0  0  0  0  0  0
  147.3485  135.2800  160.9516 N   0  5  0  0  0  0  0  0  0  0  0  0
  147.5364  136.4920  160.3802 C   0  0  0  0  0  0  0  0  0  0  0  0
  146.7990  137.4745  160.4898 O   0  0  0  0  0  0  0  0  0  0  0  0
  148.6453  136.5689  159.6303 N   0  0  0  0  0  0  0  0  0  0  0  0
  149.0927  137.7403  158.8797 C   0  0  0  0  0  0  0  0  0  0  0  0
  150.4693  137.5415  158.1788 C   0  0  2  0  0  0  0  0  0  0  0  0
  151.5963  137.7806  159.2163 C   0  0  0  0  0  0  0  0  0  0  0  0
  150.6332  138.3651  156.9571 N   0  0  0  0  0  0  0  0  0  0  0  0
  150.6482  139.8032  157.2498 C   0  0  0  0  0  0  0  0  0  0  0  0
  150.8447  140.6884  156.0027 C   0  0  2  0  0  0  0  0  0  0  0  0
  149.5953  140.7693  155.1089 C   0  0  0  0  0  0  0  0  0  0  0  0
  151.9958  140.2714  155.2723 O   0  0  0  0  0  0  0  0  0  0  0  0
  152.0191  138.8880  154.9384 C   0  0  1  0  0  0  0  0  0  0  0  0
  153.3409  138.5960  154.2201 C   0  0  0  0  0  0  0  0  0  0  0  0
  151.8570  138.0451  156.2162 C   0  0  0  0  0  0  0  0  0  0  0  0
  146.3210  134.1525  162.7060 N   0  0  0  0  0  0  0  0  0  0  0  0
  145.0570  134.2021  163.3057 O   0  0  0  0  0  0  0  0  0  0  0  0
  142.1977  134.9341  162.4547 H   0  0  0  0  0  0  0  0  0  0  0  0
  142.7027  136.4087  163.2829 H   0  0  0  0  0  0  0  0  0  0  0  0
  142.7657  134.8592  164.1238 H   0  0  0  0  0  0  0  0  0  0  0  0
  144.7184  136.4997  160.9847 H   0  0  0  0  0  0  0  0  0  0  0  0
  149.2210  135.7420  159.5697 H   0  0  0  0  0  0  0  0  0  0  0  0
  148.2994  137.9738  158.1711 H   0  0  0  0  0  0  0  0  0  0  0  0
  149.1463  138.5828  159.5695 H   0  0  0  0  0  0  0  0  0  0  0  0
  150.5296  136.4932  157.8824 H   0  0  0  0  0  0  0  0  0  0  0  0
  151.4443  137.2149  160.1348 H   0  0  0  0  0  0  0  0  0  0  0  0
  151.6638  138.8342  159.4887 H   0  0  0  0  0  0  0  0  0  0  0  0
  152.5711  137.4625  158.8500 H   0  0  0  0  0  0  0  0  0  0  0  0
  149.7184  140.1137  157.7226 H   0  0  0  0  0  0  0  0  0  0  0  0
  151.4461  140.0168  157.9628 H   0  0  0  0  0  0  0  0  0  0  0  0
  151.0541  141.7024  156.3444 H   0  0  0  0  0  0  0  0  0  0  0  0
  148.7591  141.2102  155.6522 H   0  0  0  0  0  0  0  0  0  0  0  0
  149.2746  139.7875  154.7616 H   0  0  0  0  0  0  0  0  0  0  0  0
  149.7838  141.3900  154.2327 H   0  0  0  0  0  0  0  0  0  0  0  0
  151.2021  138.6659  154.2514 H   0  0  0  0  0  0  0  0  0  0  0  0
  153.4078  137.5462  153.9331 H   0  0  0  0  0  0  0  0  0  0  0  0
  154.1953  138.8243  154.8579 H   0  0  0  0  0  0  0  0  0  0  0  0
  153.4322  139.1943  153.3133 H   0  0  0  0  0  0  0  0  0  0  0  0
  152.7260  138.1815  156.8621 H   0  0  0  0  0  0  0  0  0  0  0  0
  151.8561  137.0039  155.9023 H   0  0  0  0  0  0  0  0  0  0  0  0
  1  2  1  0  0  0  0
  1 22  1  0  0  0  0
  1 23  1  0  0  0  0
  1 24  1  0  0  0  0
  2 21  1  0  0  0  0
  2  3  2  0  0  0  0
  3  4  1  0  0  0  0
  3 25  1  0  0  0  0
  4  5  1  0  0  0  0
  4 20  2  0  0  0  0
  5  6  1  0  0  0  0
  6  7  2  0  0  0  0
  6  8  1  0  0  0  0
  8  9  1  0  0  0  0
  8 26  1  0  0  0  0
  9 10  1  0  0  0  0
  9 27  1  0  0  0  0
  9 28  1  0  0  0  0
 10 11  1  0  0  0  0
 10 12  1  0  0  0  0
 10 29  1  0  0  0  0
 11 30  1  0  0  0  0
 11 31  1  0  0  0  0
 11 32  1  0  0  0  0
 12 19  1  0  0  0  0
 12 13  1  0  0  0  0
 13 14  1  0  0  0  0
 13 33  1  0  0  0  0
 13 34  1  0  0  0  0
 14 15  1  0  0  0  0
 14 16  1  0  0  0  0
 14 35  1  0  0  0  0
 15 36  1  0  0  0  0
 15 37  1  0  0  0  0
 15 38  1  0  0  0  0
 16 17  1  0  0  0  0
 17 18  1  0  0  0  0
 17 19  1  0  0  0  0
 17 39  1  0  0  0  0
 18 40  1  0  0  0  0
 18 41  1  0  0  0  0
 18 42  1  0  0  0  0
 19 43  1  0  0  0  0
 19 44  1  0  0  0  0
 20 21  1  0  0  0  0
M  CHG  1   5  -1
M  END
> <s_m_source_file>
AV-unprocessed.smi

> <i_m_source_file_index>
2061

> <i_lp_mmshare_version>
43012

> <i_f3d_flags>
0

> <s_epik_input>
W0NIM11jMVtjSF1jKG5vMSlbTkhdQyg9TylbTkhdW0NIMl1bQ0BIXShbQ0gzXSlOMltDSDJdW0NAQEhdKFtDSDNdKU9bQ0BASF0oW0NIM10pW0NIMl0y

> <s_epik_cmdline>
J2VwaWtfcHl0aG9uJywgJy1waCcsICc3LjAnLCAnLXRuJywgJzgnLCAnLW1hJywgJzIwMCcsICctbWV0YWxfYmluZGluZycsICctaW1hZScsICc8aW5maWxlLm1hZT4nLCAnLW9tYWUnLCAnPG91dGZpbGUubWFlPic=

> <r_epik_Ionization_Penalty>
6.88367

> <r_epik_Ionization_Penalty_Charging>
6.57198

> <r_epik_Ionization_Penalty_Neutral>
0.311681

> <r_epik_State_Penalty>
6.77619

> <r_epik_Charging_Adjusted_Penalty>
13.3482

> <i_epik_Tot_Q>
-1

> <i_epik_Tot_abs_Q>
1

> <r_epik_Metal_State_Penalty>
2.70524

> <b_epik_Metal_Only>
1

> <s_lp_Force_Field>
OPLS_2005

> <r_lp_Energy>
24.3932

> <b_lp_Chiralities_Consistent>
1

> <s_lp_Variant>
AV-unprocessed.smi:2061-17

> <Gold.Version>
5.8.1

> <Gold.Id.Protein>
6NUR|6NUR_protein|mol2

> <Gold.PLP.Fitness>
36.1322

> <Gold.PLP.PLP>
-32.1474

> <Gold.PLP.part.hbond>
-3.4082

> <Gold.PLP.part.metal>
0.0000

> <Gold.PLP.part.buried>
-5.5661

> <Gold.PLP.part.nonpolar>
-22.7416

> <Gold.PLP.part.repulsive>
0.3070

> <Gold.PLP.ligand.clash>
0.0143

> <Gold.PLP.ligand.torsion>
0.4657

> <Gold.PLP.Chemscore.Hbond>
1.6256

> <Gold.PLP.Chemscore.CHOScore>
0.0000

> <Gold.PLP.Chemscore.Metal>
0.0000

> <Gold.Chemscore.Hbonds>
donor molecule, donor type, donor heavy atom, donor atom, acceptor molecule, acceptor atom, score
      P1  H  6934  6947       L1     7  1.00
      P1  H  7989  7998       L1    16  0.59

> <Gold.PLP.Chemscore.Internal.Correction>
0.0536

> <Gold.Rescore>
     Score         DG    S(hbond)    S(metal)    S(lipo)     H(rot)  DE(clash)    DE(int)     intcor
     10.88     -13.08       1.08        0.00      67.36       1.52       0.18       2.02       ----

> <Gold.Chemscore.Fitness>
10.8806

> <Gold.Chemscore.DG>
-13.0840

> <Gold.Chemscore.ZeroCoef>
-5.4800

> <Gold.Chemscore.Hbond>
1.0813

> <Gold.Chemscore.Metal>
0.0000

> <Gold.Chemscore.Lipo>
67.3605

> <Gold.Chemscore.Internal_Hbond>
0.0000

> <Gold.Chemscore.DEClash>
0.1847

> <Gold.Chemscore.DEInternal>
2.0187

> <Gold.Chemscore.Rot>
1.5190

> <Gold.Chemscore.Internal.Correction>
   9.000000E+99

> <Gold.Chemscore.Hbonds>
donor molecule, donor type, donor heavy atom, donor atom, acceptor molecule, acceptor atom, score
      P1  H  6934  6947       L1     7  1.00
      P1  H  7989  7998       L1    16  0.04

> <Gold.Chemscore.Hbond.Weighted>
-3.6115

> <Gold.Chemscore.Metal.Weighted>
-0.0000

> <Gold.Chemscore.Lipo.Weighted>
-7.8812

> <Gold.Chemscore.Internal_Hbond.Weighted>
0.0000

> <Gold.Chemscore.DEClash.Weighted>
0.1847

> <Gold.Chemscore.DEInternal.Weighted>
2.0187

> <Gold.Chemscore.Rot.Weighted>
3.8886

> <Gold.Chemscore.Internal.Correction.Weighted>
   9.000000E+99

> <Gold.Protein.RotatedTorsions>
[ 6907 6896 6895 6894 ] final  -57.86 input  -60.11 | X-H torsion
[ 7974 7965 7964 7962 ] final -154.71 input  175.53 | X-H torsion
[ 8008 7997 7996 7995 ] final  123.42 input   59.86 | X-H torsion
[ 10167 10162 10161 10158 ] final -113.30 input  -65.29 | X-H torsion
[ 10718 10713 10712 10709 ] final -137.04 input   66.30 | X-H torsion
[ 10763 10752 10751 10750 ] final   26.98 input  -60.55 | X-H torsion
[ 11005 11000 10999 10996 ] final   49.40 input  -57.11 | X-H torsion

> <Gold.Protein.ActiveResidues>
 VAL166  LYS551  ARG553  GLY616  TRP617  ASP618  TYR619  PRO620  LYS621  CYS622 
 ASP623  PHE694  ASN695  SER759  ASP760  ASP761  ALA762  ILE779  LEU786  VAL792 
 PHE793  MET794  SER795  GLU796  ALA797  LYS798  CYS799  TRP800  GLU811  SER814 

> <Gold.Protein.RotatedAtoms>
  150.8053  134.7173  159.6637 H   0  0  0  0  0  0  0  0  0  0  0  0  # atno 6907 bound_to 6896
  152.4172  134.6018  160.0012 H   0  0  0  0  0  0  0  0  0  0  0  0  # atno 6908 bound_to 6896
  151.6244  133.3299  159.3131 H   0  0  0  0  0  0  0  0  0  0  0  0  # atno 6909 bound_to 6896
  144.7676  140.4351  143.5931 H   0  0  0  0  0  0  0  0  0  0  0  0  # atno 7974 bound_to 7965
  156.2765  140.2763  156.1625 H   0  0  0  0  0  0  0  0  0  0  0  0  # atno 8008 bound_to 7997
  155.0738  140.0387  157.2635 H   0  0  0  0  0  0  0  0  0  0  0  0  # atno 8009 bound_to 7997
  154.7018  140.2651  155.6717 H   0  0  0  0  0  0  0  0  0  0  0  0  # atno 8010 bound_to 7997
  140.1133  143.4508  152.1738 H   0  0  0  0  0  0  0  0  0  0  0  0  # atno 10167 bound_to 10162
  156.2837  130.7335  151.1341 H   0  0  0  0  0  0  0  0  0  0  0  0  # atno 10718 bound_to 10713
  153.0586  135.6547  154.0518 H   0  0  0  0  0  0  0  0  0  0  0  0  # atno 10763 bound_to 10752
  154.0190  135.2921  155.3384 H   0  0  0  0  0  0  0  0  0  0  0  0  # atno 10764 bound_to 10752
  154.6913  135.5281  153.8464 H   0  0  0  0  0  0  0  0  0  0  0  0  # atno 10765 bound_to 10752
  140.1107  134.4959  155.8680 H   0  0  0  0  0  0  0  0  0  0  0  0  # atno 11005 bound_to 11000
  145.6422  139.1552  143.2909 LP  0  0  0  0  0  0  0  0  0  0  0  0  # atno 17320 bound_to 7965
  146.1796  140.6518  142.9195 LP  0  0  0  0  0  0  0  0  0  0  0  0  # atno 17321 bound_to 7965
  139.5607  144.7404  151.4162 LP  0  0  0  0  0  0  0  0  0  0  0  0  # atno 17342 bound_to 10162
  140.6913  143.7854  150.7260 LP  0  0  0  0  0  0  0  0  0  0  0  0  # atno 17343 bound_to 10162
  157.7322  131.0601  150.5639 LP  0  0  0  0  0  0  0  0  0  0  0  0  # atno 17370 bound_to 10713
  156.5748  130.4289  149.6003 LP  0  0  0  0  0  0  0  0  0  0  0  0  # atno 17371 bound_to 10713
  141.2129  133.6726  156.6699 LP  0  0  0  0  0  0  0  0  0  0  0  0  # atno 17394 bound_to 11000
  140.3095  134.8098  157.4164 LP  0  0  0  0  0  0  0  0  0  0  0  0  # atno 17395 bound_to 11000

$$$$
