AV-unprocessed.smi:3132|AV-procd|sdf|11934|dock4
  -GOLD-   2272017323D 1   1.00000     0.00000
 Structure written by MMmdl.
 33 34  0  0  0  0  0  0  0  0  1 V2000
  152.4855  138.8278  159.1042 C   0  0  0  0  0  0  0  0  0  0  0  0
  152.2018  140.3335  159.0206 C   0  0  1  0  0  0  0  0  0  0  0  0
  153.4214  141.1609  159.4798 C   0  0  0  0  0  0  0  0  0  0  0  0
  153.1177  142.0355  160.5979 N   0  0  0  0  0  0  0  0  0  0  0  0
  153.6172  141.9478  161.8909 C   0  0  0  0  0  0  0  0  0  0  0  0
  153.0602  142.9887  162.5986 C   0  0  0  0  0  0  0  0  0  0  0  0
  152.2153  143.7213  161.7684 N   0  0  0  0  0  0  0  0  0  0  0  0
  152.2994  143.0966  160.6010 C   0  0  0  0  0  0  0  0  0  0  0  0
  151.8315  140.6707  157.6464 N   0  0  0  0  0  0  0  0  0  0  0  0
  150.5808  140.8511  157.1925 C   0  0  0  0  0  0  0  0  0  0  0  0
  149.5802  140.7189  157.8984 O   0  0  0  0  0  0  0  0  0  0  0  0
  150.4462  141.2489  155.7150 C   0  0  2  0  0  0  0  0  0  0  0  0
  148.9829  141.3865  155.2492 C   0  0  0  0  0  0  0  0  0  0  0  0
  148.8505  140.3793  154.1195 C   0  0  0  0  0  0  0  0  0  0  0  0
  149.9660  139.3873  154.4147 C   0  0  0  0  0  0  0  0  0  0  0  0
  151.0083  140.2191  154.9028 O   0  0  0  0  0  0  0  0  0  0  0  0
  152.7360  138.5321  160.1232 H   0  0  0  0  0  0  0  0  0  0  0  0
  153.3188  138.5432  158.4609 H   0  0  0  0  0  0  0  0  0  0  0  0
  151.6146  138.2466  158.7992 H   0  0  0  0  0  0  0  0  0  0  0  0
  151.3657  140.5396  159.6915 H   0  0  0  0  0  0  0  0  0  0  0  0
  154.2306  140.4970  159.7873 H   0  0  0  0  0  0  0  0  0  0  0  0
  153.8090  141.7637  158.6571 H   0  0  0  0  0  0  0  0  0  0  0  0
  154.3135  141.1784  162.1900 H   0  0  0  0  0  0  0  0  0  0  0  0
  153.2008  143.2643  163.6332 H   0  0  0  0  0  0  0  0  0  0  0  0
  151.7580  143.4226  159.7249 H   0  0  0  0  0  0  0  0  0  0  0  0
  152.5896  140.7934  156.9909 H   0  0  0  0  0  0  0  0  0  0  0  0
  150.9955  142.1722  155.5256 H   0  0  0  0  0  0  0  0  0  0  0  0
  148.2732  141.1543  156.0451 H   0  0  0  0  0  0  0  0  0  0  0  0
  148.7605  142.3970  154.9058 H   0  0  0  0  0  0  0  0  0  0  0  0
  147.8665  139.9116  154.0755 H   0  0  0  0  0  0  0  0  0  0  0  0
  149.0373  140.8690  153.1630 H   0  0  0  0  0  0  0  0  0  0  0  0
  149.6637  138.6762  155.1846 H   0  0  0  0  0  0  0  0  0  0  0  0
  150.2774  138.8274  153.5328 H   0  0  0  0  0  0  0  0  0  0  0  0
  1  2  1  0  0  0  0
  1 17  1  0  0  0  0
  1 18  1  0  0  0  0
  1 19  1  0  0  0  0
  2  3  1  0  0  0  0
  2  9  1  0  0  0  0
  2 20  1  0  0  0  0
  3  4  1  0  0  0  0
  3 21  1  0  0  0  0
  3 22  1  0  0  0  0
  4  8  1  0  0  0  0
  4  5  1  0  0  0  0
  5  6  2  0  0  0  0
  5 23  1  0  0  0  0
  6  7  1  0  0  0  0
  6 24  1  0  0  0  0
  7  8  2  0  0  0  0
  8 25  1  0  0  0  0
  9 10  1  0  0  0  0
  9 26  1  0  0  0  0
 10 11  2  0  0  0  0
 10 12  1  0  0  0  0
 12 16  1  0  0  0  0
 12 13  1  0  0  0  0
 12 27  1  0  0  0  0
 13 14  1  0  0  0  0
 13 28  1  0  0  0  0
 13 29  1  0  0  0  0
 14 15  1  0  0  0  0
 14 30  1  0  0  0  0
 14 31  1  0  0  0  0
 15 16  1  0  0  0  0
 15 32  1  0  0  0  0
 15 33  1  0  0  0  0
M  END
> <s_m_source_file>
AV-unprocessed.smi

> <i_m_source_file_index>
3132

> <i_lp_mmshare_version>
43012

> <i_f3d_flags>
0

> <s_epik_input>
W2NIXTFuW2NIXVtjSF1uMVtDSDJdW0NAQEhdKFtDSDNdKVtOSF1DKD1PKVtDQEBIXTJbQ0gyXVtDSDJdW0NIMl1PMg==

> <s_epik_cmdline>
J2VwaWtfcHl0aG9uJywgJy1waCcsICc3LjAnLCAnLXRuJywgJzgnLCAnLW1hJywgJzIwMCcsICctbWV0YWxfYmluZGluZycsICctaW1hZScsICc8aW5maWxlLm1hZT4nLCAnLW9tYWUnLCAnPG91dGZpbGUubWFlPic=

> <r_lp_tautomer_probability>
1

> <r_epik_Ionization_Penalty>
0.630322

> <r_epik_Ionization_Penalty_Charging>
0.630322

> <r_epik_Ionization_Penalty_Neutral>
3.82652e-08

> <r_epik_State_Penalty>
0.647117

> <r_epik_Charging_Adjusted_Penalty>
1.27744

> <i_epik_Tot_Q>
0

> <i_epik_Tot_abs_Q>
0

> <r_epik_Metal_State_Penalty>
0.309095

> <b_epik_Metal_Only>
0

> <s_lp_Force_Field>
OPLS_2005

> <r_lp_Energy>
20.2845

> <b_lp_Chiralities_Consistent>
1

> <s_lp_Variant>
AV-unprocessed.smi:3132-6

> <Gold.Version>
5.8.1

> <Gold.Id.Protein>
6NUR|6NUR_protein|mol2

> <Gold.PLP.Fitness>
38.3371

> <Gold.PLP.PLP>
-37.4208

> <Gold.PLP.part.hbond>
-1.0000

> <Gold.PLP.part.metal>
0.0000

> <Gold.PLP.part.buried>
-4.9714

> <Gold.PLP.part.nonpolar>
-31.3755

> <Gold.PLP.part.repulsive>
0.3070

> <Gold.PLP.ligand.clash>
0.0000

> <Gold.PLP.ligand.torsion>
1.0503

> <Gold.PLP.Chemscore.Hbond>
1.0000

> <Gold.PLP.Chemscore.CHOScore>
0.0000

> <Gold.PLP.Chemscore.Metal>
0.0000

> <Gold.Chemscore.Hbonds>
donor molecule, donor type, donor heavy atom, donor atom, acceptor molecule, acceptor atom, score
      P1  H  7989  7998       L1    16  1.00

> <Gold.PLP.Chemscore.Internal.Correction>
0.0168

> <Gold.Rescore>
     Score         DG    S(hbond)    S(metal)    S(lipo)     H(rot)  DE(clash)    DE(int)     intcor
     11.01     -12.00       0.90        0.00      70.80       1.86       0.00       0.98       ----

> <Gold.Chemscore.Fitness>
11.0139

> <Gold.Chemscore.DG>
-11.9984

> <Gold.Chemscore.ZeroCoef>
-5.4800

> <Gold.Chemscore.Hbond>
0.8998

> <Gold.Chemscore.Metal>
0.0000

> <Gold.Chemscore.Lipo>
70.8030

> <Gold.Chemscore.Internal_Hbond>
0.0000

> <Gold.Chemscore.DEClash>
0.0009

> <Gold.Chemscore.DEInternal>
0.9837

> <Gold.Chemscore.Rot>
1.8636

> <Gold.Chemscore.Internal.Correction>
   9.000000E+99

> <Gold.Chemscore.Hbonds>
donor molecule, donor type, donor heavy atom, donor atom, acceptor molecule, acceptor atom, score
      P1  H  7989  7998       L1    16  0.29

> <Gold.Chemscore.Hbond.Weighted>
-3.0053

> <Gold.Chemscore.Metal.Weighted>
-0.0000

> <Gold.Chemscore.Lipo.Weighted>
-8.2840

> <Gold.Chemscore.Internal_Hbond.Weighted>
0.0000

> <Gold.Chemscore.DEClash.Weighted>
0.0009

> <Gold.Chemscore.DEInternal.Weighted>
0.9837

> <Gold.Chemscore.Rot.Weighted>
4.7709

> <Gold.Chemscore.Internal.Correction.Weighted>
   9.000000E+99

> <Gold.Protein.RotatedTorsions>
[ 6907 6896 6895 6894 ] final  -85.40 input  -60.11 | X-H torsion
[ 7974 7965 7964 7962 ] final   97.18 input  175.53 | X-H torsion
[ 8008 7997 7996 7995 ] final   97.13 input   59.86 | X-H torsion
[ 10167 10162 10161 10158 ] final -171.35 input  -65.29 | X-H torsion
[ 10718 10713 10712 10709 ] final -149.95 input   66.30 | X-H torsion
[ 10763 10752 10751 10750 ] final   85.05 input  -60.55 | X-H torsion
[ 11005 11000 10999 10996 ] final   90.79 input  -57.11 | X-H torsion

> <Gold.Protein.ActiveResidues>
 VAL166  LYS551  ARG553  GLY616  TRP617  ASP618  TYR619  PRO620  LYS621  CYS622 
 ASP623  PHE694  ASN695  SER759  ASP760  ASP761  ALA762  ILE779  LEU786  VAL792 
 PHE793  MET794  SER795  GLU796  ALA797  LYS798  CYS799  TRP800  GLU811  SER814 

> <Gold.Protein.RotatedAtoms>
  150.6870  134.3210  159.4786 H   0  0  0  0  0  0  0  0  0  0  0  0  # atno 6907 bound_to 6896
  152.1086  134.9288  160.0576 H   0  0  0  0  0  0  0  0  0  0  0  0  # atno 6908 bound_to 6896
  152.0539  133.3997  159.4426 H   0  0  0  0  0  0  0  0  0  0  0  0  # atno 6909 bound_to 6896
  145.4290  139.2313  143.3155 H   0  0  0  0  0  0  0  0  0  0  0  0  # atno 7974 bound_to 7965
  156.0869  140.3263  155.7765 H   0  0  0  0  0  0  0  0  0  0  0  0  # atno 8008 bound_to 7997
  155.5061  140.0573  157.2948 H   0  0  0  0  0  0  0  0  0  0  0  0  # atno 8009 bound_to 7997
  154.4614  140.1968  156.0250 H   0  0  0  0  0  0  0  0  0  0  0  0  # atno 8010 bound_to 7997
  139.5807  144.1429  152.1511 H   0  0  0  0  0  0  0  0  0  0  0  0  # atno 10167 bound_to 10162
  156.4398  130.8116  151.2345 H   0  0  0  0  0  0  0  0  0  0  0  0  # atno 10718 bound_to 10713
  153.1439  135.4631  154.9536 H   0  0  0  0  0  0  0  0  0  0  0  0  # atno 10763 bound_to 10752
  154.7769  135.3176  154.8074 H   0  0  0  0  0  0  0  0  0  0  0  0  # atno 10764 bound_to 10752
  153.8592  135.6914  153.4838 H   0  0  0  0  0  0  0  0  0  0  0  0  # atno 10765 bound_to 10752
  139.8850  134.8635  156.3336 H   0  0  0  0  0  0  0  0  0  0  0  0  # atno 11005 bound_to 11000
  146.2617  140.5024  142.8851 LP  0  0  0  0  0  0  0  0  0  0  0  0  # atno 17320 bound_to 7965
  144.8195  140.6526  143.6362 LP  0  0  0  0  0  0  0  0  0  0  0  0  # atno 17321 bound_to 7965
  140.0982  144.5562  150.7007 LP  0  0  0  0  0  0  0  0  0  0  0  0  # atno 17342 bound_to 10162
  140.7086  143.2487  151.4651 LP  0  0  0  0  0  0  0  0  0  0  0  0  # atno 17343 bound_to 10162
  157.7506  131.0172  150.3574 LP  0  0  0  0  0  0  0  0  0  0  0  0  # atno 17370 bound_to 10713
  156.3930  130.3901  149.7016 LP  0  0  0  0  0  0  0  0  0  0  0  0  # atno 17371 bound_to 10713
  140.9706  133.7329  156.0530 LP  0  0  0  0  0  0  0  0  0  0  0  0  # atno 17394 bound_to 11000
  140.7875  134.3655  157.5473 LP  0  0  0  0  0  0  0  0  0  0  0  0  # atno 17395 bound_to 11000

$$$$
