AV-unprocessed.smi:109|AV-procd|sdf|1044|dock2
  -GOLD-   2262018 83D 1   1.00000     0.00000
 Structure written by MMmdl.
 58 61  0  0  0  0  0  0  0  0  1 V2000
  150.1554  139.8505  153.8725 O   0  0  0  0  0  0  0  0  0  0  0  0
  149.4210  140.6086  154.8093 C   0  0  0  0  0  0  0  0  0  0  0  0
  150.3581  141.5809  155.5470 C   0  0  0  0  0  0  0  0  0  0  0  0
  150.7046  141.1504  156.9935 C   0  0  1  0  0  0  0  0  0  0  0  0
  151.4908  139.9144  156.9566 N   0  0  0  0  0  0  0  0  0  0  0  0
  150.9999  138.7409  157.4146 C   0  0  0  0  0  0  0  0  0  0  0  0
  150.5636  138.6053  158.6937 N   0  0  0  0  0  0  0  0  0  0  0  0
  150.0798  137.4333  159.1154 C   0  0  0  0  0  0  0  0  0  0  0  0
  149.9424  136.2935  158.4339 N   0  0  0  0  0  0  0  0  0  0  0  0
  150.3769  136.4255  157.1470 C   0  0  0  0  0  0  0  0  0  0  0  0
  150.9203  137.6052  156.5679 C   0  0  0  0  0  0  0  0  0  0  0  0
  151.2588  137.3644  155.2438 N   0  0  0  0  0  0  0  0  0  0  0  0
  150.9347  136.1130  155.0577 C   0  0  0  0  0  0  0  0  0  0  0  0
  150.3803  135.4738  156.1495 N   0  0  0  0  0  0  0  0  0  0  0  0
  149.9190  134.0525  156.3088 C   0  0  2  0  0  0  0  0  0  0  0  0
  150.0771  133.4104  155.0848 O   0  0  0  0  0  0  0  0  0  0  0  0
  148.9030  133.5901  154.3063 C   0  0  1  0  0  0  0  0  0  0  0  0
  148.8404  132.5012  153.2241 C   0  0  0  0  0  0  0  0  0  0  0  0
  147.7235  132.7042  152.3850 O   0  0  0  0  0  0  0  0  0  0  0  0
  147.7682  133.5358  155.3437 C   0  0  2  0  0  0  0  0  0  0  0  0
  146.7366  134.4341  154.9848 O   0  0  0  0  0  0  0  0  0  0  0  0
  148.4242  133.9682  156.6604 C   0  0  1  0  0  0  0  0  0  0  0  0
  148.1957  133.0075  157.6714 O   0  0  0  0  0  0  0  0  0  0  0  0
  151.4767  142.2315  157.8029 C   0  0  0  0  0  0  0  0  0  0  0  0
  152.0547  141.6332  159.1114 C   0  0  0  0  0  0  0  0  0  0  0  0
  152.8200  142.6702  159.9485 C   0  0  0  0  0  0  0  0  0  0  0  0
  151.9334  143.8761  160.2810 C   0  0  0  0  0  0  0  0  0  0  0  0
  151.3741  144.5021  158.9982 C   0  0  0  0  0  0  0  0  0  0  0  0
  150.6114  143.4685  158.1526 C   0  0  0  0  0  0  0  0  0  0  0  0
  150.5747  133.6324  157.0724 H   0  0  0  0  0  0  0  0  0  0  0  0
  148.9615  134.5746  153.8391 H   0  0  0  0  0  0  0  0  0  0  0  0
  147.3641  132.5251  155.4214 H   0  0  0  0  0  0  0  0  0  0  0  0
  148.0627  134.9298  157.0277 H   0  0  0  0  0  0  0  0  0  0  0  0
  149.7127  139.8918  153.0385 H   0  0  0  0  0  0  0  0  0  0  0  0
  148.6353  141.1542  154.2858 H   0  0  0  0  0  0  0  0  0  0  0  0
  148.9364  139.9217  155.5029 H   0  0  0  0  0  0  0  0  0  0  0  0
  151.2757  141.7161  154.9726 H   0  0  0  0  0  0  0  0  0  0  0  0
  149.8573  142.5476  155.5602 H   0  0  0  0  0  0  0  0  0  0  0  0
  149.7609  140.9934  157.5150 H   0  0  0  0  0  0  0  0  0  0  0  0
  152.3419  139.9652  156.4152 H   0  0  0  0  0  0  0  0  0  0  0  0
  149.7551  137.4052  160.1451 H   0  0  0  0  0  0  0  0  0  0  0  0
  151.0948  135.6281  154.1067 H   0  0  0  0  0  0  0  0  0  0  0  0
  149.7394  132.5349  152.6080 H   0  0  0  0  0  0  0  0  0  0  0  0
  148.7917  131.5071  153.6694 H   0  0  0  0  0  0  0  0  0  0  0  0
  147.3429  133.5450  152.5886 H   0  0  0  0  0  0  0  0  0  0  0  0
  147.1267  135.2429  154.6922 H   0  0  0  0  0  0  0  0  0  0  0  0
  147.5842  132.3659  157.3431 H   0  0  0  0  0  0  0  0  0  0  0  0
  152.3127  142.5776  157.1927 H   0  0  0  0  0  0  0  0  0  0  0  0
  151.2446  141.2145  159.7100 H   0  0  0  0  0  0  0  0  0  0  0  0
  152.7283  140.8046  158.8923 H   0  0  0  0  0  0  0  0  0  0  0  0
  153.1800  142.2104  160.8692 H   0  0  0  0  0  0  0  0  0  0  0  0
  153.7036  143.0027  159.4024 H   0  0  0  0  0  0  0  0  0  0  0  0
  151.1114  143.5633  160.9261 H   0  0  0  0  0  0  0  0  0  0  0  0
  152.5040  144.6178  160.8407 H   0  0  0  0  0  0  0  0  0  0  0  0
  150.7151  145.3338  159.2486 H   0  0  0  0  0  0  0  0  0  0  0  0
  152.1916  144.9225  158.4111 H   0  0  0  0  0  0  0  0  0  0  0  0
  150.2759  143.9744  157.2488 H   0  0  0  0  0  0  0  0  0  0  0  0
  149.7137  143.1517  158.6852 H   0  0  0  0  0  0  0  0  0  0  0  0
  1  2  1  0  0  0  0
  1 34  1  0  0  0  0
  2  3  1  0  0  0  0
  2 35  1  0  0  0  0
  2 36  1  0  0  0  0
  3  4  1  0  0  0  0
  3 37  1  0  0  0  0
  3 38  1  0  0  0  0
  4  5  1  0  0  0  0
  4 24  1  0  0  0  0
  4 39  1  0  0  0  0
  5  6  1  0  0  0  0
  5 40  1  0  0  0  0
  6 11  1  0  0  0  0
  6  7  2  0  0  0  0
  7  8  1  0  0  0  0
  8  9  2  0  0  0  0
  8 41  1  0  0  0  0
  9 10  1  0  0  0  0
 10 14  1  0  0  0  0
 10 11  2  0  0  0  0
 11 12  1  0  0  0  0
 12 13  2  0  0  0  0
 13 14  1  0  0  0  0
 13 42  1  0  0  0  0
 14 15  1  0  0  0  0
 15 30  1  0  0  0  0
 15 22  1  0  0  0  0
 15 16  1  0  0  0  0
 16 17  1  0  0  0  0
 17 31  1  0  0  0  0
 17 18  1  0  0  0  0
 17 20  1  0  0  0  0
 18 19  1  0  0  0  0
 18 43  1  0  0  0  0
 18 44  1  0  0  0  0
 19 45  1  0  0  0  0
 20 32  1  0  0  0  0
 20 21  1  0  0  0  0
 20 22  1  0  0  0  0
 21 46  1  0  0  0  0
 22 33  1  0  0  0  0
 22 23  1  0  0  0  0
 23 47  1  0  0  0  0
 24 29  1  0  0  0  0
 24 25  1  0  0  0  0
 24 48  1  0  0  0  0
 25 26  1  0  0  0  0
 25 49  1  0  0  0  0
 25 50  1  0  0  0  0
 26 27  1  0  0  0  0
 26 51  1  0  0  0  0
 26 52  1  0  0  0  0
 27 28  1  0  0  0  0
 27 53  1  0  0  0  0
 27 54  1  0  0  0  0
 28 29  1  0  0  0  0
 28 55  1  0  0  0  0
 28 56  1  0  0  0  0
 29 57  1  0  0  0  0
 29 58  1  0  0  0  0
M  END
> <s_m_source_file>
AV-unprocessed.smi

> <i_m_source_file_index>
109

> <i_lp_mmshare_version>
43012

> <i_f3d_flags>
0

> <s_epik_input>
W0NIMl0xW0NIMl1bQ0gyXVtDSDJdW0NIMl1bQ0hdMVtDQEhdKFtDSDJdW0NIMl1bT0hdKVtOSF1jKG5bY0hdbjIpYyhjMjMpbltjSF1uM1tDQEBIXTRPW0NASF0oW0NIMl1bT0hdKVtDQEBIXShbT0hdKVtDQEhdNFtPSF0=

> <s_epik_cmdline>
J2VwaWtfcHl0aG9uJywgJy1waCcsICc3LjAnLCAnLXRuJywgJzgnLCAnLW1hJywgJzIwMCcsICctbWV0YWxfYmluZGluZycsICctaW1hZScsICc8aW5maWxlLm1hZT4nLCAnLW9tYWUnLCAnPG91dGZpbGUubWFlPic=

> <r_lp_tautomer_probability>
1

> <r_epik_Ionization_Penalty>
0.000793976

> <r_epik_Ionization_Penalty_Charging>
0

> <r_epik_Ionization_Penalty_Neutral>
0.000793976

> <r_epik_State_Penalty>
-0

> <r_epik_Charging_Adjusted_Penalty>
0

> <i_epik_Tot_Q>
0

> <i_epik_Tot_abs_Q>
0

> <r_epik_Metal_State_Penalty>
-0

> <b_epik_Metal_Only>
0

> <s_epik_Chemistry_Notes>
This compound contains an acetal/aminal-like group ( X-CH(R)-Y where X, Y are N, S, or O) that may be acid/base labile, releasing an aldehyde.

> <s_lp_Force_Field>
OPLS_2005

> <r_lp_Energy>
47.5037

> <b_lp_Chiralities_Consistent>
1

> <s_lp_Variant>
AV-unprocessed.smi:109-14

> <Gold.Version>
5.8.1

> <Gold.Id.Protein>
6NUR|6NUR_protein|mol2

> <Gold.PLP.Fitness>
53.0433

> <Gold.PLP.PLP>
-43.3697

> <Gold.PLP.part.hbond>
-3.5826

> <Gold.PLP.part.metal>
0.0000

> <Gold.PLP.part.buried>
-6.5512

> <Gold.PLP.part.nonpolar>
-33.0702

> <Gold.PLP.part.repulsive>
0.2536

> <Gold.PLP.ligand.clash>
0.0000

> <Gold.PLP.ligand.torsion>
1.0883

> <Gold.PLP.Chemscore.Hbond>
2.9360

> <Gold.PLP.Chemscore.CHOScore>
0.9805

> <Gold.PLP.Chemscore.Metal>
0.0000

> <Gold.Chemscore.Hbonds>
donor molecule, donor type, donor heavy atom, donor atom, acceptor molecule, acceptor atom, score
      L1  H     1    34       P1  7957  1.00
      P1  H  6896  6909       L1     9  0.81
      P1  H  7989  7998       L1     1  0.88
      L1  C    13    42       P1  7949  0.74

> <Gold.PLP.Chemscore.Internal.Correction>
0.1007

> <Gold.Rescore>
     Score         DG    S(hbond)    S(metal)    S(lipo)     H(rot)  DE(clash)    DE(int)     intcor
      9.12     -10.50       2.00        0.00     105.34       5.47       0.14       1.23       ----

> <Gold.Chemscore.Fitness>
9.1245

> <Gold.Chemscore.DG>
-10.4977

> <Gold.Chemscore.ZeroCoef>
-5.4800

> <Gold.Chemscore.Hbond>
2.0018

> <Gold.Chemscore.Metal>
0.0000

> <Gold.Chemscore.Lipo>
105.3428

> <Gold.Chemscore.Internal_Hbond>
0.0000

> <Gold.Chemscore.DEClash>
0.1431

> <Gold.Chemscore.DEInternal>
1.2301

> <Gold.Chemscore.Rot>
5.4662

> <Gold.Chemscore.Internal.Correction>
   9.000000E+99

> <Gold.Chemscore.Hbonds>
donor molecule, donor type, donor heavy atom, donor atom, acceptor molecule, acceptor atom, score
      L1  H     1    34       P1  7957  0.98
      P1  H  6896  6909       L1     9  0.34
      P1  H  7989  7998       L1     1  0.10

> <Gold.Chemscore.Hbond.Weighted>
-6.6861

> <Gold.Chemscore.Metal.Weighted>
-0.0000

> <Gold.Chemscore.Lipo.Weighted>
-12.3251

> <Gold.Chemscore.Internal_Hbond.Weighted>
0.0000

> <Gold.Chemscore.DEClash.Weighted>
0.1431

> <Gold.Chemscore.DEInternal.Weighted>
1.2301

> <Gold.Chemscore.Rot.Weighted>
13.9935

> <Gold.Chemscore.Internal.Correction.Weighted>
   9.000000E+99

> <Gold.Protein.RotatedTorsions>
[ 6907 6896 6895 6894 ] final   68.40 input  -60.11 | X-H torsion
[ 7974 7965 7964 7962 ] final -179.08 input  175.53 | X-H torsion
[ 8008 7997 7996 7995 ] final  -45.97 input   59.86 | X-H torsion
[ 10167 10162 10161 10158 ] final  -92.91 input  -65.29 | X-H torsion
[ 10718 10713 10712 10709 ] final   58.45 input   66.30 | X-H torsion
[ 10763 10752 10751 10750 ] final  154.30 input  -60.55 | X-H torsion
[ 11005 11000 10999 10996 ] final -146.47 input  -57.11 | X-H torsion

> <Gold.Protein.ActiveResidues>
 VAL166  LYS551  ARG553  GLY616  TRP617  ASP618  TYR619  PRO620  LYS621  CYS622 
 ASP623  PHE694  ASN695  SER759  ASP760  ASP761  ALA762  ILE779  LEU786  VAL792 
 PHE793  MET794  SER795  GLU796  ALA797  LYS798  CYS799  TRP800  GLU811  SER814 

> <Gold.Protein.RotatedAtoms>
  152.4618  134.5167  159.9770 H   0  0  0  0  0  0  0  0  0  0  0  0  # atno 6907 bound_to 6896
  151.5215  133.3460  159.2910 H   0  0  0  0  0  0  0  0  0  0  0  0  # atno 6908 bound_to 6896
  150.8584  134.7958  159.7126 H   0  0  0  0  0  0  0  0  0  0  0  0  # atno 6909 bound_to 6896
  144.7134  140.0771  143.6427 H   0  0  0  0  0  0  0  0  0  0  0  0  # atno 7974 bound_to 7965
  154.4004  140.1383  156.3935 H   0  0  0  0  0  0  0  0  0  0  0  0  # atno 8008 bound_to 7997
  155.7892  140.3479  155.5319 H   0  0  0  0  0  0  0  0  0  0  0  0  # atno 8009 bound_to 7997
  155.8596  140.0954  157.1612 H   0  0  0  0  0  0  0  0  0  0  0  0  # atno 8010 bound_to 7997
  140.3300  143.3000  151.9952 H   0  0  0  0  0  0  0  0  0  0  0  0  # atno 10167 bound_to 10162
  157.5597  130.8826  149.9091 H   0  0  0  0  0  0  0  0  0  0  0  0  # atno 10718 bound_to 10713
  154.1502  135.2815  155.3137 H   0  0  0  0  0  0  0  0  0  0  0  0  # atno 10763 bound_to 10752
  154.6223  135.5463  153.7592 H   0  0  0  0  0  0  0  0  0  0  0  0  # atno 10764 bound_to 10752
  153.0223  135.6442  154.1646 H   0  0  0  0  0  0  0  0  0  0  0  0  # atno 10765 bound_to 10752
  140.7817  134.3071  157.5043 H   0  0  0  0  0  0  0  0  0  0  0  0  # atno 11005 bound_to 11000
  145.9733  139.2886  143.1085 LP  0  0  0  0  0  0  0  0  0  0  0  0  # atno 17320 bound_to 7965
  145.9092  140.9191  143.0463 LP  0  0  0  0  0  0  0  0  0  0  0  0  # atno 17321 bound_to 7965
  139.4858  144.6242  151.7196 LP  0  0  0  0  0  0  0  0  0  0  0  0  # atno 17342 bound_to 10162
  140.5405  144.0586  150.6087 LP  0  0  0  0  0  0  0  0  0  0  0  0  # atno 17343 bound_to 10162
  156.0651  130.3693  150.0896 LP  0  0  0  0  0  0  0  0  0  0  0  0  # atno 17370 bound_to 10713
  156.9061  130.9636  151.3569 LP  0  0  0  0  0  0  0  0  0  0  0  0  # atno 17371 bound_to 10713
  139.8742  134.9322  156.3548 LP  0  0  0  0  0  0  0  0  0  0  0  0  # atno 17394 bound_to 11000
  140.9476  133.7472  156.0229 LP  0  0  0  0  0  0  0  0  0  0  0  0  # atno 17395 bound_to 11000

$$$$
