AV-unprocessed.smi:224|AV-procd|sdf|1707|dock5
  -GOLD-   2262020173D 1   1.00000     0.00000
 Structure written by MMmdl.
 56 59  0  0  0  0  0  0  0  0  2 V2000
  143.0363  138.8752  155.9454 C   0  0  0  0  0  0  0  0  0  0  0  0
  143.0377  140.4110  155.9675 C   0  0  2  0  0  0  0  0  0  0  0  0
  142.4316  140.8701  154.7774 O   0  0  0  0  0  0  0  0  0  0  0  0
  144.4566  141.0116  156.0550 C   0  0  0  0  0  0  0  0  0  0  0  0
  145.2920  140.6995  154.8597 N   0  3  2  0  0  0  0  0  0  0  0  0
  145.8250  139.3080  154.9198 C   0  0  0  0  0  0  0  0  0  0  0  0
  146.6297  138.9429  153.6647 C   0  0  0  0  0  0  0  0  0  0  0  0
  147.6984  139.9085  153.4532 N   0  0  0  0  0  0  0  0  0  0  0  0
  148.8822  139.6513  154.0714 C   0  0  0  0  0  0  0  0  0  0  0  0
  149.5566  138.5047  153.7892 N   0  0  0  0  0  0  0  0  0  0  0  0
  150.7255  138.2421  154.3804 C   0  0  0  0  0  0  0  0  0  0  0  0
  151.3899  138.9747  155.2749 N   0  0  0  0  0  0  0  0  0  0  0  0
  150.7148  140.1203  155.5757 C   0  0  0  0  0  0  0  0  0  0  0  0
  149.4683  140.5335  155.0246 C   0  0  0  0  0  0  0  0  0  0  0  0
  149.0896  141.7505  155.5801 N   0  0  0  0  0  0  0  0  0  0  0  0
  150.0592  142.0431  156.4032 C   0  0  0  0  0  0  0  0  0  0  0  0
  151.0739  141.1154  156.4682 N   0  0  0  0  0  0  0  0  0  0  0  0
  152.2648  141.1852  157.3014 C   0  0  0  0  0  0  0  0  0  0  0  0
  151.9844  141.7116  158.7281 C   0  0  1  0  0  0  0  0  0  0  0  0
  150.8746  141.0127  159.2658 O   0  0  0  0  0  0  0  0  0  0  0  0
  153.1603  141.5676  159.6897 C   0  0  0  0  0  0  0  0  0  0  0  0
  152.9864  142.7612  160.6177 C   0  0  0  0  0  0  0  0  0  0  0  0
  152.5740  143.7847  159.7280 O   0  0  0  0  0  0  0  0  0  0  0  0
  151.6773  143.2219  158.7754 C   0  0  0  0  0  0  0  0  0  0  0  0
  147.2222  141.2851  153.3577 C   0  0  0  0  0  0  0  0  0  0  0  0
  146.3645  141.7077  154.5762 C   0  0  1  0  0  0  0  0  0  0  0  0
  145.8072  143.1191  154.2990 C   0  0  0  0  0  0  0  0  0  0  0  0
  143.4554  138.4662  156.8651 H   0  0  0  0  0  0  0  0  0  0  0  0
  143.6222  138.4867  155.1118 H   0  0  0  0  0  0  0  0  0  0  0  0
  142.0221  138.4854  155.8498 H   0  0  0  0  0  0  0  0  0  0  0  0
  142.4149  140.7617  156.7893 H   0  0  0  0  0  0  0  0  0  0  0  0
  143.0089  140.6903  154.0507 H   0  0  0  0  0  0  0  0  0  0  0  0
  144.3399  142.0837  156.1919 H   0  0  0  0  0  0  0  0  0  0  0  0
  144.9683  140.6565  156.9513 H   0  0  0  0  0  0  0  0  0  0  0  0
  146.4575  139.2012  155.8028 H   0  0  0  0  0  0  0  0  0  0  0  0
  145.0142  138.5893  155.0272 H   0  0  0  0  0  0  0  0  0  0  0  0
  147.0087  137.9261  153.7562 H   0  0  0  0  0  0  0  0  0  0  0  0
  145.9788  138.9492  152.7899 H   0  0  0  0  0  0  0  0  0  0  0  0
  151.1949  137.3115  154.0973 H   0  0  0  0  0  0  0  0  0  0  0  0
  150.0581  142.9464  156.9964 H   0  0  0  0  0  0  0  0  0  0  0  0
  152.7062  140.1890  157.3505 H   0  0  0  0  0  0  0  0  0  0  0  0
  152.9981  141.8191  156.8008 H   0  0  0  0  0  0  0  0  0  0  0  0
  150.1157  141.2041  158.7362 H   0  0  0  0  0  0  0  0  0  0  0  0
  153.1887  140.6117  160.2141 H   0  0  0  0  0  0  0  0  0  0  0  0
  154.1028  141.6806  159.1531 H   0  0  0  0  0  0  0  0  0  0  0  0
  152.2048  142.5756  161.3561 H   0  0  0  0  0  0  0  0  0  0  0  0
  153.9042  143.0277  161.1421 H   0  0  0  0  0  0  0  0  0  0  0  0
  151.8320  143.7084  157.8117 H   0  0  0  0  0  0  0  0  0  0  0  0
  150.6486  143.4234  159.0793 H   0  0  0  0  0  0  0  0  0  0  0  0
  148.0596  141.9704  153.2180 H   0  0  0  0  0  0  0  0  0  0  0  0
  146.6242  141.3606  152.4487 H   0  0  0  0  0  0  0  0  0  0  0  0
  147.0089  141.7610  155.4548 H   0  0  0  0  0  0  0  0  0  0  0  0
  146.5944  143.7790  153.9327 H   0  0  0  0  0  0  0  0  0  0  0  0
  145.4063  143.6007  155.1894 H   0  0  0  0  0  0  0  0  0  0  0  0
  145.0232  143.0952  153.5413 H   0  0  0  0  0  0  0  0  0  0  0  0
  144.6720  140.7347  154.0632 H   0  0  0  0  0  0  0  0  0  0  0  0
  1  2  1  0  0  0  0
  1 28  1  0  0  0  0
  1 29  1  0  0  0  0
  1 30  1  0  0  0  0
  2  3  1  0  0  0  0
  2  4  1  0  0  0  0
  2 31  1  0  0  0  0
  3 32  1  0  0  0  0
  4  5  1  0  0  0  0
  4 33  1  0  0  0  0
  4 34  1  0  0  0  0
  5 26  1  0  0  0  0
  5  6  1  0  0  0  0
  5 56  1  0  0  0  0
  6  7  1  0  0  0  0
  6 35  1  0  0  0  0
  6 36  1  0  0  0  0
  7  8  1  0  0  0  0
  7 37  1  0  0  0  0
  7 38  1  0  0  0  0
  8  9  1  0  0  0  0
  8 25  1  0  0  0  0
  9 14  1  0  0  0  0
  9 10  2  0  0  0  0
 10 11  1  0  0  0  0
 11 12  2  0  0  0  0
 11 39  1  0  0  0  0
 12 13  1  0  0  0  0
 13 17  1  0  0  0  0
 13 14  2  0  0  0  0
 14 15  1  0  0  0  0
 15 16  2  0  0  0  0
 16 17  1  0  0  0  0
 16 40  1  0  0  0  0
 17 18  1  0  0  0  0
 18 19  1  0  0  0  0
 18 41  1  0  0  0  0
 18 42  1  0  0  0  0
 19 24  1  0  0  0  0
 19 20  1  0  0  0  0
 19 21  1  0  0  0  0
 20 43  1  0  0  0  0
 21 22  1  0  0  0  0
 21 44  1  0  0  0  0
 21 45  1  0  0  0  0
 22 23  1  0  0  0  0
 22 46  1  0  0  0  0
 22 47  1  0  0  0  0
 23 24  1  0  0  0  0
 24 48  1  0  0  0  0
 24 49  1  0  0  0  0
 25 26  1  0  0  0  0
 25 50  1  0  0  0  0
 25 51  1  0  0  0  0
 26 27  1  0  0  0  0
 26 52  1  0  0  0  0
 27 53  1  0  0  0  0
 27 54  1  0  0  0  0
 27 55  1  0  0  0  0
M  CHG  1   5   1
M  END
> <s_m_source_file>
AV-unprocessed.smi

> <i_m_source_file_index>
224

> <i_lp_mmshare_version>
43012

> <i_f3d_flags>
0

> <s_epik_input>
W0NIM11bQ0BIXShbT0hdKVtDSDJdTjFbQ0gyXVtDSDJdTihbQ0gyXVtDQEhdMVtDSDNdKWMobltjSF1uMiljKGMyMyluW2NIXW4zW0NIMl1bQ0BAXTQoW09IXSlbQ0gyXVtDSDJdT1tDSDJdNA==

> <s_epik_cmdline>
J2VwaWtfcHl0aG9uJywgJy1waCcsICc3LjAnLCAnLXRuJywgJzgnLCAnLW1hJywgJzIwMCcsICctbWV0YWxfYmluZGluZycsICctaW1hZScsICc8aW5maWxlLm1hZT4nLCAnLW9tYWUnLCAnPG91dGZpbGUubWFlPic=

> <r_lp_tautomer_probability>
1

> <r_epik_Ionization_Penalty>
0.00516958

> <r_epik_Ionization_Penalty_Charging>
0.00509693

> <r_epik_Ionization_Penalty_Neutral>
7.26542e-05

> <r_epik_State_Penalty>
-0

> <r_epik_Charging_Adjusted_Penalty>
0.00509693

> <i_epik_Tot_Q>
1

> <i_epik_Tot_abs_Q>
1

> <r_epik_Metal_State_Penalty>
-0

> <b_epik_Metal_Only>
0

> <s_lp_Force_Field>
OPLS_2005

> <r_lp_Energy>
50.3284

> <b_lp_Chiralities_Consistent>
1

> <s_lp_Variant>
AV-unprocessed.smi:224-1

> <Gold.Version>
5.8.1

> <Gold.Id.Protein>
6NUR|6NUR_protein|mol2

> <Gold.PLP.Fitness>
47.2035

> <Gold.PLP.PLP>
-37.5395

> <Gold.PLP.part.hbond>
-4.0000

> <Gold.PLP.part.metal>
0.0000

> <Gold.PLP.part.buried>
-4.5344

> <Gold.PLP.part.nonpolar>
-30.4405

> <Gold.PLP.part.repulsive>
1.8655

> <Gold.PLP.ligand.clash>
0.0000

> <Gold.PLP.ligand.torsion>
0.9322

> <Gold.PLP.Chemscore.Hbond>
3.0000

> <Gold.PLP.Chemscore.CHOScore>
0.6453

> <Gold.PLP.Chemscore.Metal>
0.0000

> <Gold.Chemscore.Hbonds>
donor molecule, donor type, donor heavy atom, donor atom, acceptor molecule, acceptor atom, score
      L1  H     3    32       P1 10175  1.00
      L1  H     5    56       P1 10175  2.00
      L1  C    11    39       P1  7949  0.02
      L1  C    16    40       P1  8028  0.56

> <Gold.PLP.Chemscore.Internal.Correction>
0.5924

> <Gold.Rescore>
     Score         DG    S(hbond)    S(metal)    S(lipo)     H(rot)  DE(clash)    DE(int)     intcor
      7.71     -12.22       1.81        0.00      79.40       3.36       1.27       3.23       ----

> <Gold.Chemscore.Fitness>
7.7146

> <Gold.Chemscore.DG>
-12.2215

> <Gold.Chemscore.ZeroCoef>
-5.4800

> <Gold.Chemscore.Hbond>
1.8134

> <Gold.Chemscore.Metal>
0.0000

> <Gold.Chemscore.Lipo>
79.3962

> <Gold.Chemscore.Internal_Hbond>
0.0000

> <Gold.Chemscore.DEClash>
1.2730

> <Gold.Chemscore.DEInternal>
3.2339

> <Gold.Chemscore.Rot>
3.3611

> <Gold.Chemscore.Internal.Correction>
   9.000000E+99

> <Gold.Chemscore.Hbonds>
donor molecule, donor type, donor heavy atom, donor atom, acceptor molecule, acceptor atom, score
      L1  H     3    32       P1 10175  0.82
      L1  H     5    56       P1 10175  0.98

> <Gold.Chemscore.Hbond.Weighted>
-6.0567

> <Gold.Chemscore.Metal.Weighted>
-0.0000

> <Gold.Chemscore.Lipo.Weighted>
-9.2894

> <Gold.Chemscore.Internal_Hbond.Weighted>
0.0000

> <Gold.Chemscore.DEClash.Weighted>
1.2730

> <Gold.Chemscore.DEInternal.Weighted>
3.2339

> <Gold.Chemscore.Rot.Weighted>
8.6045

> <Gold.Chemscore.Internal.Correction.Weighted>
   9.000000E+99

> <Gold.Protein.RotatedTorsions>
[ 6907 6896 6895 6894 ] final  -64.11 input  -60.11 | X-H torsion
[ 7974 7965 7964 7962 ] final  -45.60 input  175.53 | X-H torsion
[ 8008 7997 7996 7995 ] final    2.63 input   59.86 | X-H torsion
[ 10167 10162 10161 10158 ] final  -24.13 input  -65.29 | X-H torsion
[ 10718 10713 10712 10709 ] final -130.98 input   66.30 | X-H torsion
[ 10763 10752 10751 10750 ] final   63.76 input  -60.55 | X-H torsion
[ 11005 11000 10999 10996 ] final -172.75 input  -57.11 | X-H torsion

> <Gold.Protein.ActiveResidues>
 VAL166  LYS551  ARG553  GLY616  TRP617  ASP618  TYR619  PRO620  LYS621  CYS622 
 ASP623  PHE694  ASN695  SER759  ASP760  ASP761  ALA762  ILE779  LEU786  VAL792 
 PHE793  MET794  SER795  GLU796  ALA797  LYS798  CYS799  TRP800  GLU811  SER814 

> <Gold.Protein.RotatedAtoms>
  150.7606  134.6343  159.6202 H   0  0  0  0  0  0  0  0  0  0  0  0  # atno 6907 bound_to 6896
  152.3611  134.6867  160.0216 H   0  0  0  0  0  0  0  0  0  0  0  0  # atno 6908 bound_to 6896
  151.7257  133.3280  159.3363 H   0  0  0  0  0  0  0  0  0  0  0  0  # atno 6909 bound_to 6896
  145.9804  140.7289  142.9366 H   0  0  0  0  0  0  0  0  0  0  0  0  # atno 7974 bound_to 7965
  154.6939  140.2659  155.6786 H   0  0  0  0  0  0  0  0  0  0  0  0  # atno 8008 bound_to 7997
  156.2741  140.2785  156.1449 H   0  0  0  0  0  0  0  0  0  0  0  0  # atno 8009 bound_to 7997
  155.0859  140.0373  157.2643 H   0  0  0  0  0  0  0  0  0  0  0  0  # atno 8010 bound_to 7997
  140.7288  143.4381  151.0699 H   0  0  0  0  0  0  0  0  0  0  0  0  # atno 10167 bound_to 10162
  156.2198  130.6971  151.0743 H   0  0  0  0  0  0  0  0  0  0  0  0  # atno 10718 bound_to 10713
  153.0030  135.5417  154.6403 H   0  0  0  0  0  0  0  0  0  0  0  0  # atno 10763 bound_to 10752
  154.5660  135.2837  155.0876 H   0  0  0  0  0  0  0  0  0  0  0  0  # atno 10764 bound_to 10752
  154.2060  135.6475  153.5153 H   0  0  0  0  0  0  0  0  0  0  0  0  # atno 10765 bound_to 10752
  140.4934  134.5963  157.4963 H   0  0  0  0  0  0  0  0  0  0  0  0  # atno 11005 bound_to 11000
  144.6860  140.2899  143.7279 LP  0  0  0  0  0  0  0  0  0  0  0  0  # atno 17320 bound_to 7965
  145.7777  139.1880  143.2175 LP  0  0  0  0  0  0  0  0  0  0  0  0  # atno 17321 bound_to 7965
  139.8045  143.8037  152.3166 LP  0  0  0  0  0  0  0  0  0  0  0  0  # atno 17342 bound_to 10162
  139.8065  144.7353  150.9754 LP  0  0  0  0  0  0  0  0  0  0  0  0  # atno 17343 bound_to 10162
  157.7082  131.0747  150.6595 LP  0  0  0  0  0  0  0  0  0  0  0  0  # atno 17370 bound_to 10713
  156.6658  130.4525  149.5673 LP  0  0  0  0  0  0  0  0  0  0  0  0  # atno 17371 bound_to 10713
  139.9755  134.7222  155.9957 LP  0  0  0  0  0  0  0  0  0  0  0  0  # atno 17394 bound_to 11000
  141.1472  133.6554  156.3904 LP  0  0  0  0  0  0  0  0  0  0  0  0  # atno 17395 bound_to 11000

$$$$
