AV-unprocessed.smi:1512|AV-procd|sdf|6102|dock3
  -GOLD-   22720 6233D 1   1.00000     0.00000
 Structure written by MMmdl.
 44 46  0  0  0  0  0  0  0  0  3 V2000
  150.1863  141.2525  157.9449 C   0  0  0  0  0  0  0  0  0  0  0  0
  149.6587  142.5582  158.5648 C   0  0  2  0  0  0  0  0  0  0  0  0
  148.3793  142.9132  157.9541 N   0  0  0  0  0  0  0  0  0  0  0  0
  147.1768  142.8083  158.5401 C   0  0  0  0  0  0  0  0  0  0  0  0
  147.0179  142.3726  159.6814 O   0  0  0  0  0  0  0  0  0  0  0  0
  145.9799  143.2570  157.6886 C   0  0  0  0  0  0  0  0  0  0  0  0
  144.9397  143.9627  158.4572 N   0  0  0  0  0  0  0  0  0  0  0  0
  144.7139  145.3123  158.1281 C   0  0  0  0  0  0  0  0  0  0  0  0
  143.7869  146.0493  158.7558 C   0  0  0  0  0  0  0  0  0  0  0  0
  143.0100  145.4251  159.7985 C   0  0  0  0  0  0  0  0  0  0  0  0
  143.2070  144.1285  160.1313 C   0  0  0  0  0  0  0  0  0  0  0  0
  142.3960  143.5673  161.1875 N   0  3  0  0  0  0  0  0  0  0  0  0
  142.7122  142.4820  161.6652 O   0  0  0  0  0  0  0  0  0  0  0  0
  141.4231  144.2045  161.5808 O   0  5  0  0  0  0  0  0  0  0  0  0
  144.2232  143.3166  159.4293 C   0  0  0  0  0  0  0  0  0  0  0  0
  144.4214  142.1269  159.6828 O   0  0  0  0  0  0  0  0  0  0  0  0
  150.6483  143.7346  158.3915 C   0  0  1  0  0  0  0  0  0  0  0  0
  150.3721  144.9532  159.3026 C   0  0  0  0  0  0  0  0  0  0  0  0
  151.7533  145.2475  159.9172 C   0  0  1  0  0  0  0  0  0  0  0  0
  152.0724  144.1751  160.9746 C   0  0  0  0  0  0  0  0  0  0  0  0
  152.3672  142.9320  160.1158 C   0  0  0  0  0  0  0  0  0  0  0  0
  152.1433  143.4467  158.6787 C   0  0  2  0  0  0  0  0  0  0  0  0
  152.6990  144.8637  158.7850 C   0  0  0  0  0  0  0  0  0  0  0  0
  151.1167  140.9370  158.4170 H   0  0  0  0  0  0  0  0  0  0  0  0
  150.3763  141.3684  156.8775 H   0  0  0  0  0  0  0  0  0  0  0  0
  149.4718  140.4380  158.0689 H   0  0  0  0  0  0  0  0  0  0  0  0
  149.4884  142.3941  159.6294 H   0  0  0  0  0  0  0  0  0  0  0  0
  148.4144  143.2787  157.0134 H   0  0  0  0  0  0  0  0  0  0  0  0
  146.3397  143.8874  156.8731 H   0  0  0  0  0  0  0  0  0  0  0  0
  145.5602  142.3760  157.2010 H   0  0  0  0  0  0  0  0  0  0  0  0
  145.3320  145.7027  157.3324 H   0  0  0  0  0  0  0  0  0  0  0  0
  143.6237  147.0825  158.4863 H   0  0  0  0  0  0  0  0  0  0  0  0
  142.2691  146.0154  160.3183 H   0  0  0  0  0  0  0  0  0  0  0  0
  150.5790  144.0708  157.3549 H   0  0  0  0  0  0  0  0  0  0  0  0
  150.0176  145.7986  158.7117 H   0  0  0  0  0  0  0  0  0  0  0  0
  149.6247  144.7523  160.0714 H   0  0  0  0  0  0  0  0  0  0  0  0
  151.8604  146.2687  160.2843 H   0  0  0  0  0  0  0  0  0  0  0  0
  152.9499  144.4532  161.5595 H   0  0  0  0  0  0  0  0  0  0  0  0
  151.2450  144.0163  161.6672 H   0  0  0  0  0  0  0  0  0  0  0  0
  153.4045  142.6216  160.2486 H   0  0  0  0  0  0  0  0  0  0  0  0
  151.7423  142.0787  160.3755 H   0  0  0  0  0  0  0  0  0  0  0  0
  152.6245  142.8335  157.9164 H   0  0  0  0  0  0  0  0  0  0  0  0
  152.5558  145.4576  157.8805 H   0  0  0  0  0  0  0  0  0  0  0  0
  153.7521  144.8974  159.0709 H   0  0  0  0  0  0  0  0  0  0  0  0
  1  2  1  0  0  0  0
  1 24  1  0  0  0  0
  1 25  1  0  0  0  0
  1 26  1  0  0  0  0
  2  3  1  0  0  0  0
  2 17  1  0  0  0  0
  2 27  1  0  0  0  0
  3  4  1  0  0  0  0
  3 28  1  0  0  0  0
  4  5  2  0  0  0  0
  4  6  1  0  0  0  0
  6  7  1  0  0  0  0
  6 29  1  0  0  0  0
  6 30  1  0  0  0  0
  7 15  1  0  0  0  0
  7  8  1  0  0  0  0
  8  9  2  0  0  0  0
  8 31  1  0  0  0  0
  9 10  1  0  0  0  0
  9 32  1  0  0  0  0
 10 11  2  0  0  0  0
 10 33  1  0  0  0  0
 11 12  1  0  0  0  0
 11 15  1  0  0  0  0
 12 13  2  0  0  0  0
 12 14  1  0  0  0  0
 15 16  2  0  0  0  0
 17 22  1  0  0  0  0
 17 18  1  0  0  0  0
 17 34  1  0  0  0  0
 18 19  1  0  0  0  0
 18 35  1  0  0  0  0
 18 36  1  0  0  0  0
 19 23  1  0  0  0  0
 19 20  1  0  0  0  0
 19 37  1  0  0  0  0
 20 21  1  0  0  0  0
 20 38  1  0  0  0  0
 20 39  1  0  0  0  0
 21 22  1  0  0  0  0
 21 40  1  0  0  0  0
 21 41  1  0  0  0  0
 22 23  1  0  0  0  0
 22 42  1  0  0  0  0
 23 43  1  0  0  0  0
 23 44  1  0  0  0  0
M  CHG  1  12   1
M  CHG  1  14  -1
M  END
> <s_m_source_file>
AV-unprocessed.smi

> <i_m_source_file_index>
1512

> <i_lp_mmshare_version>
43012

> <i_f3d_flags>
0

> <s_epik_input>
W0NIMl0xW0NIMl1bQ0BIXShbQ0gyXTIpW0NAQEhdKFtDSDJdW0NAQEhdMTIpW0NASF0oW0NIM10pW05IXUMoPU8pW0NIMl1uM1tjSF1bY0hdW2NIXWMoW04rXSg9TylbTy1dKWMzPU8=

> <s_epik_cmdline>
J2VwaWtfcHl0aG9uJywgJy1waCcsICc3LjAnLCAnLXRuJywgJzgnLCAnLW1hJywgJzIwMCcsICctbWV0YWxfYmluZGluZycsICctaW1hZScsICc8aW5maWxlLm1hZT4nLCAnLW9tYWUnLCAnPG91dGZpbGUubWFlPic=

> <r_lp_tautomer_probability>
1

> <r_epik_Ionization_Penalty>
2.17697e-08

> <r_epik_Ionization_Penalty_Charging>
1.42735e-10

> <r_epik_Ionization_Penalty_Neutral>
2.16269e-08

> <r_epik_State_Penalty>
-0

> <r_epik_Charging_Adjusted_Penalty>
1.42735e-10

> <i_epik_Tot_Q>
0

> <i_epik_Tot_abs_Q>
2

> <r_epik_Metal_State_Penalty>
-0

> <b_epik_Metal_Only>
0

> <s_lp_Force_Field>
OPLS_2005

> <r_lp_Energy>
64.3295

> <b_lp_Chiralities_Consistent>
1

> <s_lp_Variant>
AV-unprocessed.smi:1512-3

> <Gold.Version>
5.8.1

> <Gold.Id.Protein>
6NUR|6NUR_protein|mol2

> <Gold.PLP.Fitness>
47.1825

> <Gold.PLP.PLP>
-39.3162

> <Gold.PLP.part.hbond>
-5.7003

> <Gold.PLP.part.metal>
0.0000

> <Gold.PLP.part.buried>
-4.7615

> <Gold.PLP.part.nonpolar>
-30.2726

> <Gold.PLP.part.repulsive>
0.1885

> <Gold.PLP.ligand.clash>
0.0000

> <Gold.PLP.ligand.torsion>
0.7271

> <Gold.PLP.Chemscore.Hbond>
2.1175

> <Gold.PLP.Chemscore.CHOScore>
0.9811

> <Gold.PLP.Chemscore.Metal>
0.0000

> <Gold.Chemscore.Hbonds>
donor molecule, donor type, donor heavy atom, donor atom, acceptor molecule, acceptor atom, score
      L1  H     3    28       P1  8028  0.95
      P1  H  6933  6944       L1     5  0.22
      P1  H  6934  6946       L1     5  0.83
      L1  C     8    31       P1  8029  0.95

> <Gold.PLP.Chemscore.Internal.Correction>
0.0247

> <Gold.Rescore>
     Score         DG    S(hbond)    S(metal)    S(lipo)     H(rot)  DE(clash)    DE(int)     intcor
     15.33     -18.25       1.53        0.00     103.82       1.75       0.27       2.65       ----

> <Gold.Chemscore.Fitness>
15.3324

> <Gold.Chemscore.DG>
-18.2528

> <Gold.Chemscore.ZeroCoef>
-5.4800

> <Gold.Chemscore.Hbond>
1.5268

> <Gold.Chemscore.Metal>
0.0000

> <Gold.Chemscore.Lipo>
103.8181

> <Gold.Chemscore.Internal_Hbond>
0.0000

> <Gold.Chemscore.DEClash>
0.2700

> <Gold.Chemscore.DEInternal>
2.6504

> <Gold.Chemscore.Rot>
1.7474

> <Gold.Chemscore.Internal.Correction>
   9.000000E+99

> <Gold.Chemscore.Hbonds>
donor molecule, donor type, donor heavy atom, donor atom, acceptor molecule, acceptor atom, score
      L1  H     3    28       P1  8028  0.20
      P1  H  6933  6944       L1     5  0.21
      P1  H  6934  6946       L1     5  0.83

> <Gold.Chemscore.Hbond.Weighted>
-5.0994

> <Gold.Chemscore.Metal.Weighted>
-0.0000

> <Gold.Chemscore.Lipo.Weighted>
-12.1467

> <Gold.Chemscore.Internal_Hbond.Weighted>
0.0000

> <Gold.Chemscore.DEClash.Weighted>
0.2700

> <Gold.Chemscore.DEInternal.Weighted>
2.6504

> <Gold.Chemscore.Rot.Weighted>
4.4733

> <Gold.Chemscore.Internal.Correction.Weighted>
   9.000000E+99

> <Gold.Protein.RotatedTorsions>
[ 6907 6896 6895 6894 ] final  -35.20 input  -60.11 | X-H torsion
[ 7974 7965 7964 7962 ] final   79.19 input  175.53 | X-H torsion
[ 8008 7997 7996 7995 ] final   87.73 input   59.86 | X-H torsion
[ 10167 10162 10161 10158 ] final -135.65 input  -65.29 | X-H torsion
[ 10718 10713 10712 10709 ] final  -40.20 input   66.30 | X-H torsion
[ 10763 10752 10751 10750 ] final  -24.96 input  -60.55 | X-H torsion
[ 11005 11000 10999 10996 ] final  105.22 input  -57.11 | X-H torsion

> <Gold.Protein.ActiveResidues>
 VAL166  LYS551  ARG553  GLY616  TRP617  ASP618  TYR619  PRO620  LYS621  CYS622 
 ASP623  PHE694  ASN695  SER759  ASP760  ASP761  ALA762  ILE779  LEU786  VAL792 
 PHE793  MET794  SER795  GLU796  ALA797  LYS798  CYS799  TRP800  GLU811  SER814 

> <Gold.Protein.RotatedAtoms>
  151.0428  134.9619  159.8170 H   0  0  0  0  0  0  0  0  0  0  0  0  # atno 6907 bound_to 6896
  152.5367  134.2636  159.8955 H   0  0  0  0  0  0  0  0  0  0  0  0  # atno 6908 bound_to 6896
  151.2649  133.4241  159.2652 H   0  0  0  0  0  0  0  0  0  0  0  0  # atno 6909 bound_to 6896
  145.6674  139.2487  143.1888 H   0  0  0  0  0  0  0  0  0  0  0  0  # atno 7974 bound_to 7965
  155.9790  140.3379  155.6645 H   0  0  0  0  0  0  0  0  0  0  0  0  # atno 8008 bound_to 7997
  155.6574  140.0712  157.2584 H   0  0  0  0  0  0  0  0  0  0  0  0  # atno 8009 bound_to 7997
  154.4186  140.1715  156.1727 H   0  0  0  0  0  0  0  0  0  0  0  0  # atno 8010 bound_to 7997
  139.8757  143.6901  152.2634 H   0  0  0  0  0  0  0  0  0  0  0  0  # atno 10167 bound_to 10162
  156.2840  130.4220  149.8307 H   0  0  0  0  0  0  0  0  0  0  0  0  # atno 10718 bound_to 10713
  153.6922  135.6961  153.5087 H   0  0  0  0  0  0  0  0  0  0  0  0  # atno 10763 bound_to 10752
  153.2405  135.4307  155.0691 H   0  0  0  0  0  0  0  0  0  0  0  0  # atno 10764 bound_to 10752
  154.8369  135.3506  154.6463 H   0  0  0  0  0  0  0  0  0  0  0  0  # atno 10765 bound_to 10752
  139.8800  134.9328  156.5481 H   0  0  0  0  0  0  0  0  0  0  0  0  # atno 11005 bound_to 11000
  146.1074  140.7470  142.9520 LP  0  0  0  0  0  0  0  0  0  0  0  0  # atno 17320 bound_to 7965
  144.7068  140.3884  143.7112 LP  0  0  0  0  0  0  0  0  0  0  0  0  # atno 17321 bound_to 7965
  139.7242  144.7596  151.0906 LP  0  0  0  0  0  0  0  0  0  0  0  0  # atno 17342 bound_to 10162
  140.7753  143.5169  150.9584 LP  0  0  0  0  0  0  0  0  0  0  0  0  # atno 17343 bound_to 10162
  156.5745  130.8439  151.3366 LP  0  0  0  0  0  0  0  0  0  0  0  0  # atno 17370 bound_to 10713
  157.7323  130.9713  150.1921 LP  0  0  0  0  0  0  0  0  0  0  0  0  # atno 17371 bound_to 10713
  140.8260  133.8316  155.8940 LP  0  0  0  0  0  0  0  0  0  0  0  0  # atno 17394 bound_to 11000
  140.9373  134.1945  157.4822 LP  0  0  0  0  0  0  0  0  0  0  0  0  # atno 17395 bound_to 11000

$$$$
