AV-unprocessed.smi:19|AV-procd|sdf|110|dock10
  -GOLD-   2262015273D 1   1.00000     0.00000
 Structure written by MMmdl.
 57 60  0  0  0  0  0  0  0  0  1 V2000
  152.8508  142.7773  160.6200 C   0  0  0  0  0  0  0  0  0  0  0  0
  152.0121  141.9455  159.8379 O   0  0  0  0  0  0  0  0  0  0  0  0
  152.7331  141.2128  158.8610 C   0  0  0  0  0  0  0  0  0  0  0  0
  151.7421  140.4697  157.9562 C   0  0  1  0  0  0  0  0  0  0  0  0
  150.6486  141.4095  157.4140 C   0  0  0  0  0  0  0  0  0  0  0  0
  149.7913  140.6971  156.4721 N   0  0  0  0  0  0  0  0  0  0  0  0
  148.6389  141.3385  156.1496 C   0  0  0  0  0  0  0  0  0  0  0  0
  148.1746  141.3001  154.8715 N   0  0  0  0  0  0  0  0  0  0  0  0
  147.0492  141.9400  154.5416 C   0  0  0  0  0  0  0  0  0  0  0  0
  146.2410  142.6609  155.3202 N   0  0  0  0  0  0  0  0  0  0  0  0
  146.6905  142.6929  156.6071 C   0  0  0  0  0  0  0  0  0  0  0  0
  147.8710  142.0681  157.1015 C   0  0  0  0  0  0  0  0  0  0  0  0
  148.0020  142.3187  158.4623 N   0  0  0  0  0  0  0  0  0  0  0  0
  146.9680  143.0596  158.7515 C   0  0  0  0  0  0  0  0  0  0  0  0
  146.1166  143.3197  157.7009 N   0  0  0  0  0  0  0  0  0  0  0  0
  144.8960  144.1148  157.7457 C   0  0  0  0  0  0  0  0  0  0  0  0
  144.6010  144.7927  159.1174 C   0  0  0  0  0  0  0  0  0  0  0  0
  145.7571  145.7553  159.5124 C   0  0  0  0  0  0  0  0  0  0  0  0
  145.9566  146.7740  158.5535 O   0  0  0  0  0  0  0  0  0  0  0  0
  143.2711  145.5860  159.0419 C   0  0  0  0  0  0  0  0  0  0  0  0
  142.7383  146.0111  160.4234 C   0  0  0  0  0  0  0  0  0  0  0  0
  142.5993  144.8763  161.2676 O   0  0  0  0  0  0  0  0  0  0  0  0
  143.8336  144.2132  161.5059 C   0  0  0  0  0  0  0  0  0  0  0  0
  144.4028  143.6813  160.1791 C   0  0  0  0  0  0  0  0  0  0  0  0
  150.5393  140.0481  155.3985 C   0  0  0  0  0  0  0  0  0  0  0  0
  151.6423  139.1501  155.9874 C   0  0  1  0  0  0  0  0  0  0  0  0
  152.5315  138.5407  154.8986 C   0  0  0  0  0  0  0  0  0  0  0  0
  152.4636  139.9318  156.8502 O   0  0  0  0  0  0  0  0  0  0  0  0
  152.2504  143.3199  161.3501 H   0  0  0  0  0  0  0  0  0  0  0  0
  153.3702  143.5093  160.0000 H   0  0  0  0  0  0  0  0  0  0  0  0
  153.5920  142.1899  161.1634 H   0  0  0  0  0  0  0  0  0  0  0  0
  153.3270  141.9081  158.2653 H   0  0  0  0  0  0  0  0  0  0  0  0
  153.4235  140.5100  159.3302 H   0  0  0  0  0  0  0  0  0  0  0  0
  151.2769  139.6625  158.5249 H   0  0  0  0  0  0  0  0  0  0  0  0
  150.0746  141.8148  158.2463 H   0  0  0  0  0  0  0  0  0  0  0  0
  151.1041  142.2584  156.9019 H   0  0  0  0  0  0  0  0  0  0  0  0
  146.7547  141.8643  153.5052 H   0  0  0  0  0  0  0  0  0  0  0  0
  146.7928  143.4327  159.7500 H   0  0  0  0  0  0  0  0  0  0  0  0
  144.9737  144.8724  156.9647 H   0  0  0  0  0  0  0  0  0  0  0  0
  144.0624  143.4770  157.4490 H   0  0  0  0  0  0  0  0  0  0  0  0
  145.5610  146.2219  160.4778 H   0  0  0  0  0  0  0  0  0  0  0  0
  146.7020  145.2264  159.6235 H   0  0  0  0  0  0  0  0  0  0  0  0
  146.8039  146.6493  158.1540 H   0  0  0  0  0  0  0  0  0  0  0  0
  143.3859  146.4712  158.4160 H   0  0  0  0  0  0  0  0  0  0  0  0
  142.5092  144.9703  158.5620 H   0  0  0  0  0  0  0  0  0  0  0  0
  143.3839  146.7530  160.8935 H   0  0  0  0  0  0  0  0  0  0  0  0
  141.7608  146.4805  160.3115 H   0  0  0  0  0  0  0  0  0  0  0  0
  144.5351  144.8820  162.0058 H   0  0  0  0  0  0  0  0  0  0  0  0
  143.6542  143.3834  162.1896 H   0  0  0  0  0  0  0  0  0  0  0  0
  143.7081  142.9334  159.7947 H   0  0  0  0  0  0  0  0  0  0  0  0
  145.3359  143.1485  160.3636 H   0  0  0  0  0  0  0  0  0  0  0  0
  149.8665  139.4487  154.7836 H   0  0  0  0  0  0  0  0  0  0  0  0
  150.9814  140.8091  154.7537 H   0  0  0  0  0  0  0  0  0  0  0  0
  151.1896  138.3395  156.5614 H   0  0  0  0  0  0  0  0  0  0  0  0
  151.9481  137.9223  154.2162 H   0  0  0  0  0  0  0  0  0  0  0  0
  153.3075  137.9125  155.3363 H   0  0  0  0  0  0  0  0  0  0  0  0
  153.0229  139.3164  154.3106 H   0  0  0  0  0  0  0  0  0  0  0  0
  1  2  1  0  0  0  0
  1 29  1  0  0  0  0
  1 30  1  0  0  0  0
  1 31  1  0  0  0  0
  2  3  1  0  0  0  0
  3  4  1  0  0  0  0
  3 32  1  0  0  0  0
  3 33  1  0  0  0  0
  4 28  1  0  0  0  0
  4  5  1  0  0  0  0
  4 34  1  0  0  0  0
  5  6  1  0  0  0  0
  5 35  1  0  0  0  0
  5 36  1  0  0  0  0
  6  7  1  0  0  0  0
  6 25  1  0  0  0  0
  7 12  1  0  0  0  0
  7  8  2  0  0  0  0
  8  9  1  0  0  0  0
  9 10  2  0  0  0  0
  9 37  1  0  0  0  0
 10 11  1  0  0  0  0
 11 15  1  0  0  0  0
 11 12  2  0  0  0  0
 12 13  1  0  0  0  0
 13 14  2  0  0  0  0
 14 15  1  0  0  0  0
 14 38  1  0  0  0  0
 15 16  1  0  0  0  0
 16 17  1  0  0  0  0
 16 39  1  0  0  0  0
 16 40  1  0  0  0  0
 17 24  1  0  0  0  0
 17 18  1  0  0  0  0
 17 20  1  0  0  0  0
 18 19  1  0  0  0  0
 18 41  1  0  0  0  0
 18 42  1  0  0  0  0
 19 43  1  0  0  0  0
 20 21  1  0  0  0  0
 20 44  1  0  0  0  0
 20 45  1  0  0  0  0
 21 22  1  0  0  0  0
 21 46  1  0  0  0  0
 21 47  1  0  0  0  0
 22 23  1  0  0  0  0
 23 24  1  0  0  0  0
 23 48  1  0  0  0  0
 23 49  1  0  0  0  0
 24 50  1  0  0  0  0
 24 51  1  0  0  0  0
 25 26  1  0  0  0  0
 25 52  1  0  0  0  0
 25 53  1  0  0  0  0
 26 27  1  0  0  0  0
 26 28  1  0  0  0  0
 26 54  1  0  0  0  0
 27 55  1  0  0  0  0
 27 56  1  0  0  0  0
 27 57  1  0  0  0  0
M  END
> <s_m_source_file>
AV-unprocessed.smi

> <i_m_source_file_index>
19

> <i_lp_mmshare_version>
43012

> <i_f3d_flags>
0

> <s_epik_input>
W0NIM11PW0NIMl1bQ0BASF0xW0NIMl1OKFtDSDJdW0NASF0oTzEpW0NIM10pYyhuW2NIXW4yKWMoYzIzKW5bY0hdbjNbQ0gyXUM0KFtDSDJdW09IXSlbQ0gyXVtDSDJdT1tDSDJdW0NIMl00

> <s_epik_cmdline>
J2VwaWtfcHl0aG9uJywgJy1waCcsICc3LjAnLCAnLXRuJywgJzgnLCAnLW1hJywgJzIwMCcsICctbWV0YWxfYmluZGluZycsICctaW1hZScsICc8aW5maWxlLm1hZT4nLCAnLW9tYWUnLCAnPG91dGZpbGUubWFlPic=

> <r_lp_tautomer_probability>
1

> <r_epik_Ionization_Penalty>
6.20357e-05

> <r_epik_Ionization_Penalty_Charging>
0

> <r_epik_Ionization_Penalty_Neutral>
6.20357e-05

> <r_epik_State_Penalty>
-0

> <r_epik_Charging_Adjusted_Penalty>
0

> <i_epik_Tot_Q>
0

> <i_epik_Tot_abs_Q>
0

> <r_epik_Metal_State_Penalty>
-0

> <b_epik_Metal_Only>
0

> <s_lp_Force_Field>
OPLS_2005

> <r_lp_Energy>
35.6446

> <b_lp_Chiralities_Consistent>
1

> <s_lp_Variant>
AV-unprocessed.smi:19-2

> <Gold.Version>
5.8.1

> <Gold.Id.Protein>
6NUR|6NUR_protein|mol2

> <Gold.PLP.Fitness>
45.0639

> <Gold.PLP.PLP>
-39.4900

> <Gold.PLP.part.hbond>
-2.4062

> <Gold.PLP.part.metal>
0.0000

> <Gold.PLP.part.buried>
-6.5213

> <Gold.PLP.part.nonpolar>
-29.9853

> <Gold.PLP.part.repulsive>
0.4968

> <Gold.PLP.ligand.clash>
0.0000

> <Gold.PLP.ligand.torsion>
0.3947

> <Gold.PLP.Chemscore.Hbond>
2.0000

> <Gold.PLP.Chemscore.CHOScore>
0.0000

> <Gold.PLP.Chemscore.Metal>
0.0000

> <Gold.Chemscore.Hbonds>
donor molecule, donor type, donor heavy atom, donor atom, acceptor molecule, acceptor atom, score
      L1  H    19    43       P1  8029  0.91
      P1  H  7997  8008       L1    28  0.99

> <Gold.PLP.Chemscore.Internal.Correction>
0.3634

> <Gold.Rescore>
     Score         DG    S(hbond)    S(metal)    S(lipo)     H(rot)  DE(clash)    DE(int)     intcor
     12.63     -14.47       1.98        0.00      83.18       2.87       0.09       1.75       ----

> <Gold.Chemscore.Fitness>
12.6308

> <Gold.Chemscore.DG>
-14.4667

> <Gold.Chemscore.ZeroCoef>
-5.4800

> <Gold.Chemscore.Hbond>
1.9789

> <Gold.Chemscore.Metal>
0.0000

> <Gold.Chemscore.Lipo>
83.1781

> <Gold.Chemscore.Internal_Hbond>
0.0000

> <Gold.Chemscore.DEClash>
0.0901

> <Gold.Chemscore.DEInternal>
1.7458

> <Gold.Chemscore.Rot>
2.8729

> <Gold.Chemscore.Internal.Correction>
   9.000000E+99

> <Gold.Chemscore.Hbonds>
donor molecule, donor type, donor heavy atom, donor atom, acceptor molecule, acceptor atom, score
      L1  H    19    43       P1  8029  0.88
      P1  H  7997  8008       L1    28  0.84

> <Gold.Chemscore.Hbond.Weighted>
-6.6094

> <Gold.Chemscore.Metal.Weighted>
-0.0000

> <Gold.Chemscore.Lipo.Weighted>
-9.7318

> <Gold.Chemscore.Internal_Hbond.Weighted>
0.0000

> <Gold.Chemscore.DEClash.Weighted>
0.0901

> <Gold.Chemscore.DEInternal.Weighted>
1.7458

> <Gold.Chemscore.Rot.Weighted>
7.3546

> <Gold.Chemscore.Internal.Correction.Weighted>
   9.000000E+99

> <Gold.Protein.RotatedTorsions>
[ 6907 6896 6895 6894 ] final   -8.47 input  -60.11 | X-H torsion
[ 7974 7965 7964 7962 ] final  113.14 input  175.53 | X-H torsion
[ 8008 7997 7996 7995 ] final  -37.05 input   59.86 | X-H torsion
[ 10167 10162 10161 10158 ] final   63.45 input  -65.29 | X-H torsion
[ 10718 10713 10712 10709 ] final  -15.73 input   66.30 | X-H torsion
[ 10763 10752 10751 10750 ] final -121.42 input  -60.55 | X-H torsion
[ 11005 11000 10999 10996 ] final   30.38 input  -57.11 | X-H torsion

> <Gold.Protein.ActiveResidues>
 VAL166  LYS551  ARG553  GLY616  TRP617  ASP618  TYR619  PRO620  LYS621  CYS622 
 ASP623  PHE694  ASN695  SER759  ASP760  ASP761  ALA762  ILE779  LEU786  VAL792 
 PHE793  MET794  SER795  GLU796  ALA797  LYS798  CYS799  TRP800  GLU811  SER814 

> <Gold.Protein.RotatedAtoms>
  151.4331  135.1012  159.9647 H   0  0  0  0  0  0  0  0  0  0  0  0  # atno 6907 bound_to 6896
  152.4949  133.8599  159.7255 H   0  0  0  0  0  0  0  0  0  0  0  0  # atno 6908 bound_to 6896
  150.9141  133.6903  159.2875 H   0  0  0  0  0  0  0  0  0  0  0  0  # atno 6909 bound_to 6896
  145.2207  139.2863  143.4220 H   0  0  0  0  0  0  0  0  0  0  0  0  # atno 7974 bound_to 7965
  154.4061  140.1614  156.2474 H   0  0  0  0  0  0  0  0  0  0  0  0  # atno 8008 bound_to 7997
  155.9148  140.3425  155.6104 H   0  0  0  0  0  0  0  0  0  0  0  0  # atno 8009 bound_to 7997
  155.7292  140.0778  157.2287 H   0  0  0  0  0  0  0  0  0  0  0  0  # atno 8010 bound_to 7997
  140.1329  144.4626  150.6854 H   0  0  0  0  0  0  0  0  0  0  0  0  # atno 10167 bound_to 10162
  156.5976  130.4815  149.6253 H   0  0  0  0  0  0  0  0  0  0  0  0  # atno 10718 bound_to 10713
  154.8668  135.4168  154.2618 H   0  0  0  0  0  0  0  0  0  0  0  0  # atno 10763 bound_to 10752
  153.3545  135.7000  153.6767 H   0  0  0  0  0  0  0  0  0  0  0  0  # atno 10764 bound_to 10752
  153.5694  135.3594  155.2804 H   0  0  0  0  0  0  0  0  0  0  0  0  # atno 10765 bound_to 10752
  140.2950  134.2821  155.7767 H   0  0  0  0  0  0  0  0  0  0  0  0  # atno 11005 bound_to 11000
  146.3376  140.2512  142.8598 LP  0  0  0  0  0  0  0  0  0  0  0  0  # atno 17320 bound_to 7965
  144.9768  140.8421  143.5421 LP  0  0  0  0  0  0  0  0  0  0  0  0  # atno 17321 bound_to 7965
  140.6806  143.2325  151.5394 LP  0  0  0  0  0  0  0  0  0  0  0  0  # atno 17342 bound_to 10162
  139.5510  144.2395  152.1530 LP  0  0  0  0  0  0  0  0  0  0  0  0  # atno 17343 bound_to 10162
  156.2496  130.6899  151.1633 LP  0  0  0  0  0  0  0  0  0  0  0  0  # atno 17370 bound_to 10713
  157.7288  131.0629  150.5804 LP  0  0  0  0  0  0  0  0  0  0  0  0  # atno 17371 bound_to 10713
  141.2139  133.7609  156.9682 LP  0  0  0  0  0  0  0  0  0  0  0  0  # atno 17394 bound_to 11000
  140.1161  134.9446  157.2136 LP  0  0  0  0  0  0  0  0  0  0  0  0  # atno 17395 bound_to 11000

$$$$
