AV-unprocessed.smi:2468|AV-procd|sdf|9729|dock4
  -GOLD-   2272013373D 1   1.00000     0.00000
 Structure written by MMmdl.
 32 33  0  0  0  0  0  0  0  0  1 V2000
  151.0574  137.7255  154.5018 C   0  0  0  0  0  0  0  0  0  0  0  0
  150.7753  139.1280  155.0072 C   0  0  0  0  0  0  0  0  0  0  0  0
  149.8777  139.8384  154.2895 N   0  0  0  0  0  0  0  0  0  0  0  0
  149.5966  141.0949  154.6905 C   0  0  0  0  0  0  0  0  0  0  0  0
  150.1850  141.6983  155.8183 C   0  0  0  0  0  0  0  0  0  0  0  0
  151.1132  140.9510  156.5824 C   0  0  0  0  0  0  0  0  0  0  0  0
  151.7824  141.4701  157.7249 N   0  0  0  0  0  0  0  0  0  0  0  0
  151.9740  142.7532  158.0835 C   0  0  0  0  0  0  0  0  0  0  0  0
  151.5751  143.7227  157.4381 O   0  0  0  0  0  0  0  0  0  0  0  0
  152.7424  142.9635  159.3972 C   0  0  2  0  0  0  0  0  0  0  0  0
  153.1413  141.7004  159.9310 O   0  0  0  0  0  0  0  0  0  0  0  0
  153.0078  141.6959  161.3496 C   0  0  0  0  0  0  0  0  0  0  0  0
  152.6925  143.1345  161.7461 C   0  0  0  0  0  0  0  0  0  0  0  0
  151.9542  143.6471  160.5261 C   0  0  1  0  0  0  0  0  0  0  0  0
  151.9007  145.1808  160.4387 C   0  0  0  0  0  0  0  0  0  0  0  0
  151.4241  139.6384  156.1562 C   0  0  0  0  0  0  0  0  0  0  0  0
  152.5695  138.6728  157.0258 Cl  0  0  0  0  0  0  0  0  0  0  0  0
  150.8057  136.9897  155.2659 H   0  0  0  0  0  0  0  0  0  0  0  0
  152.1132  137.6175  154.2524 H   0  0  0  0  0  0  0  0  0  0  0  0
  150.4753  137.4963  153.6083 H   0  0  0  0  0  0  0  0  0  0  0  0
  148.8851  141.6407  154.0887 H   0  0  0  0  0  0  0  0  0  0  0  0
  149.9253  142.7165  156.0635 H   0  0  0  0  0  0  0  0  0  0  0  0
  152.0859  140.7799  158.3972 H   0  0  0  0  0  0  0  0  0  0  0  0
  153.6497  143.5310  159.1845 H   0  0  0  0  0  0  0  0  0  0  0  0
  152.1796  141.0377  161.6150 H   0  0  0  0  0  0  0  0  0  0  0  0
  153.9083  141.3186  161.8344 H   0  0  0  0  0  0  0  0  0  0  0  0
  152.1062  143.2026  162.6630 H   0  0  0  0  0  0  0  0  0  0  0  0
  153.6195  143.6914  161.8919 H   0  0  0  0  0  0  0  0  0  0  0  0
  150.9354  143.2556  160.5517 H   0  0  0  0  0  0  0  0  0  0  0  0
  152.9013  145.6126  160.4068 H   0  0  0  0  0  0  0  0  0  0  0  0
  151.3846  145.6013  161.3023 H   0  0  0  0  0  0  0  0  0  0  0  0
  151.3687  145.5102  159.5464 H   0  0  0  0  0  0  0  0  0  0  0  0
  1  2  1  0  0  0  0
  1 18  1  0  0  0  0
  1 19  1  0  0  0  0
  1 20  1  0  0  0  0
  2 16  1  0  0  0  0
  2  3  2  0  0  0  0
  3  4  1  0  0  0  0
  4  5  2  0  0  0  0
  4 21  1  0  0  0  0
  5  6  1  0  0  0  0
  5 22  1  0  0  0  0
  6  7  1  0  0  0  0
  6 16  2  0  0  0  0
  7  8  1  0  0  0  0
  7 23  1  0  0  0  0
  8  9  2  0  0  0  0
  8 10  1  0  0  0  0
 10 14  1  0  0  0  0
 10 11  1  0  0  0  0
 10 24  1  0  0  0  0
 11 12  1  0  0  0  0
 12 13  1  0  0  0  0
 12 25  1  0  0  0  0
 12 26  1  0  0  0  0
 13 14  1  0  0  0  0
 13 27  1  0  0  0  0
 13 28  1  0  0  0  0
 14 15  1  0  0  0  0
 14 29  1  0  0  0  0
 15 30  1  0  0  0  0
 15 31  1  0  0  0  0
 15 32  1  0  0  0  0
 16 17  1  0  0  0  0
M  END
> <s_m_source_file>
AV-unprocessed.smi

> <i_m_source_file_index>
2468

> <i_lp_mmshare_version>
43012

> <i_f3d_flags>
0

> <s_epik_input>
W0NIM11jMW5bY0hdW2NIXWMoYzFDbClbTkhdQyg9TylbQ0BASF0yT1tDSDJdW0NIMl1bQ0BIXTJbQ0gzXQ==

> <s_epik_cmdline>
J2VwaWtfcHl0aG9uJywgJy1waCcsICc3LjAnLCAnLXRuJywgJzgnLCAnLW1hJywgJzIwMCcsICctbWV0YWxfYmluZGluZycsICctaW1hZScsICc8aW5maWxlLm1hZT4nLCAnLW9tYWUnLCAnPG91dGZpbGUubWFlPic=

> <r_epik_Ionization_Penalty>
0.000361027

> <r_epik_Ionization_Penalty_Charging>
0

> <r_epik_Ionization_Penalty_Neutral>
0.000361027

> <r_epik_State_Penalty>
0.000217849

> <r_epik_Charging_Adjusted_Penalty>
0.000217849

> <i_epik_Tot_Q>
0

> <i_epik_Tot_abs_Q>
0

> <r_epik_Metal_State_Penalty>
-0

> <b_epik_Metal_Only>
0

> <s_lp_Force_Field>
OPLS_2005

> <r_lp_Energy>
24.8892

> <b_lp_Chiralities_Consistent>
1

> <s_lp_Variant>
AV-unprocessed.smi:2468-1

> <Gold.Version>
5.8.1

> <Gold.Id.Protein>
6NUR|6NUR_protein|mol2

> <Gold.PLP.Fitness>
39.2501

> <Gold.PLP.PLP>
-39.4445

> <Gold.PLP.part.hbond>
-0.7793

> <Gold.PLP.part.metal>
0.0000

> <Gold.PLP.part.buried>
-4.0004

> <Gold.PLP.part.nonpolar>
-34.2146

> <Gold.PLP.part.repulsive>
0.3337

> <Gold.PLP.ligand.clash>
0.0000

> <Gold.PLP.ligand.torsion>
0.1127

> <Gold.PLP.Chemscore.Hbond>
0.0095

> <Gold.PLP.Chemscore.CHOScore>
0.0000

> <Gold.PLP.Chemscore.Metal>
0.0000

> <Gold.Chemscore.Hbonds>
donor molecule, donor type, donor heavy atom, donor atom, acceptor molecule, acceptor atom, score
      P1  H  7989  7998       L1     3  0.01

> <Gold.PLP.Chemscore.Internal.Correction>
0.0025

> <Gold.Rescore>
     Score         DG    S(hbond)    S(metal)    S(lipo)     H(rot)  DE(clash)    DE(int)     intcor
     14.05     -15.42       0.00        0.00     106.81       1.00       0.07       1.29       ----

> <Gold.Chemscore.Fitness>
14.0530

> <Gold.Chemscore.DG>
-15.4166

> <Gold.Chemscore.ZeroCoef>
-5.4800

> <Gold.Chemscore.Hbond>
0.0000

> <Gold.Chemscore.Metal>
0.0000

> <Gold.Chemscore.Lipo>
106.8082

> <Gold.Chemscore.Internal_Hbond>
0.0000

> <Gold.Chemscore.DEClash>
0.0742

> <Gold.Chemscore.DEInternal>
1.2894

> <Gold.Chemscore.Rot>
1.0000

> <Gold.Chemscore.Internal.Correction>
   9.000000E+99

> <Gold.Chemscore.Hbond.Weighted>
-0.0000

> <Gold.Chemscore.Metal.Weighted>
-0.0000

> <Gold.Chemscore.Lipo.Weighted>
-12.4966

> <Gold.Chemscore.Internal_Hbond.Weighted>
0.0000

> <Gold.Chemscore.DEClash.Weighted>
0.0742

> <Gold.Chemscore.DEInternal.Weighted>
1.2894

> <Gold.Chemscore.Rot.Weighted>
2.5600

> <Gold.Chemscore.Internal.Correction.Weighted>
   9.000000E+99

> <Gold.Protein.RotatedTorsions>
[ 6907 6896 6895 6894 ] final -167.67 input  -60.11 | X-H torsion
[ 7974 7965 7964 7962 ] final  -10.44 input  175.53 | X-H torsion
[ 8008 7997 7996 7995 ] final   76.67 input   59.86 | X-H torsion
[ 10167 10162 10161 10158 ] final  154.47 input  -65.29 | X-H torsion
[ 10718 10713 10712 10709 ] final  115.17 input   66.30 | X-H torsion
[ 10763 10752 10751 10750 ] final -114.19 input  -60.55 | X-H torsion
[ 11005 11000 10999 10996 ] final  -52.14 input  -57.11 | X-H torsion

> <Gold.Protein.ActiveResidues>
 VAL166  LYS551  ARG553  GLY616  TRP617  ASP618  TYR619  PRO620  LYS621  CYS622 
 ASP623  PHE694  ASN695  SER759  ASP760  ASP761  ALA762  ILE779  LEU786  VAL792 
 PHE793  MET794  SER795  GLU796  ALA797  LYS798  CYS799  TRP800  GLU811  SER814 

> <Gold.Protein.RotatedAtoms>
  151.4632  133.3587  159.2812 H   0  0  0  0  0  0  0  0  0  0  0  0  # atno 6907 bound_to 6896
  150.9011  134.8425  159.7371 H   0  0  0  0  0  0  0  0  0  0  0  0  # atno 6908 bound_to 6896
  152.4880  134.4553  159.9639 H   0  0  0  0  0  0  0  0  0  0  0  0  # atno 6909 bound_to 6896
  146.2220  140.2764  142.8359 H   0  0  0  0  0  0  0  0  0  0  0  0  # atno 7974 bound_to 7965
  155.8306  140.3466  155.5570 H   0  0  0  0  0  0  0  0  0  0  0  0  # atno 8008 bound_to 7997
  155.8246  140.0918  157.1849 H   0  0  0  0  0  0  0  0  0  0  0  0  # atno 8009 bound_to 7997
  154.4004  140.1423  156.3528 H   0  0  0  0  0  0  0  0  0  0  0  0  # atno 8010 bound_to 7997
  139.4823  144.5183  151.7916 H   0  0  0  0  0  0  0  0  0  0  0  0  # atno 10167 bound_to 10162
  157.6238  131.1009  150.7291 H   0  0  0  0  0  0  0  0  0  0  0  0  # atno 10718 bound_to 10713
  154.8429  135.4427  154.1467 H   0  0  0  0  0  0  0  0  0  0  0  0  # atno 10763 bound_to 10752
  153.2638  135.6938  153.7557 H   0  0  0  0  0  0  0  0  0  0  0  0  # atno 10764 bound_to 10752
  153.6823  135.3401  155.3157 H   0  0  0  0  0  0  0  0  0  0  0  0  # atno 10765 bound_to 10752
  141.0908  133.6633  156.3980 H   0  0  0  0  0  0  0  0  0  0  0  0  # atno 11005 bound_to 11000
  144.9229  140.7889  143.5737 LP  0  0  0  0  0  0  0  0  0  0  0  0  # atno 17320 bound_to 7965
  145.2702  139.1957  143.4845 LP  0  0  0  0  0  0  0  0  0  0  0  0  # atno 17321 bound_to 7965
  140.4695  144.1608  150.5916 LP  0  0  0  0  0  0  0  0  0  0  0  0  # atno 17342 bound_to 10162
  140.4398  143.2531  151.9488 LP  0  0  0  0  0  0  0  0  0  0  0  0  # atno 17343 bound_to 10162
  156.7643  130.4808  149.5430 LP  0  0  0  0  0  0  0  0  0  0  0  0  # atno 17370 bound_to 10713
  156.1398  130.6236  151.0451 LP  0  0  0  0  0  0  0  0  0  0  0  0  # atno 17371 bound_to 10713
  140.5256  134.6262  157.5333 LP  0  0  0  0  0  0  0  0  0  0  0  0  # atno 17394 bound_to 11000
  139.9734  134.7255  155.9997 LP  0  0  0  0  0  0  0  0  0  0  0  0  # atno 17395 bound_to 11000

$$$$
