AV-unprocessed.smi:1225|AV-procd|sdf|5141|dock10
  -GOLD-   22720 4203D 1   1.00000     0.00000
 Structure written by MMmdl.
 49 51  0  0  0  0  0  0  0  0  2 V2000
  142.7318  135.3024  152.6350 C   0  0  0  0  0  0  0  0  0  0  0  0
  143.8762  136.2456  152.7841 C   0  0  0  0  0  0  0  0  0  0  0  0
  144.9049  136.3001  151.9351 N   0  0  0  0  0  0  0  0  0  0  0  0
  145.8442  137.2684  152.2955 C   0  0  0  0  0  0  0  0  0  0  0  0
  145.5159  137.9620  153.4344 C   0  0  0  0  0  0  0  0  0  0  0  0
  146.2814  139.0651  154.0877 C   0  0  0  0  0  0  0  0  0  0  0  0
  147.6161  138.6146  154.5593 N   0  3  2  0  0  0  0  0  0  0  0  0
  147.5511  137.3472  155.3237 C   0  0  0  0  0  0  0  0  0  0  0  0
  148.3619  139.6703  155.2886 C   0  0  0  0  0  0  0  0  0  0  0  0
  149.2426  140.5157  154.3414 C   0  0  2  0  0  0  0  0  0  0  0  0
  150.1287  139.6533  153.6578 O   0  0  0  0  0  0  0  0  0  0  0  0
  150.0848  141.5839  155.0674 C   0  0  0  0  0  0  0  0  0  0  0  0
  150.8164  141.0448  156.1998 N   0  0  0  0  0  0  0  0  0  0  0  0
  151.1379  139.7548  156.4186 C   0  0  0  0  0  0  0  0  0  0  0  0
  151.8058  139.4748  157.5335 N   0  0  0  0  0  0  0  0  0  0  0  0
  151.9471  140.7306  158.0978 C   0  0  0  0  0  0  0  0  0  0  0  0
  152.5688  141.1301  159.3008 C   0  0  0  0  0  0  0  0  0  0  0  0
  152.5936  142.4891  159.6874 C   0  0  0  0  0  0  0  0  0  0  0  0
  153.2746  142.8741  160.9890 C   0  0  0  0  0  0  0  0  0  0  0  0
  151.9909  143.4733  158.8635 C   0  0  0  0  0  0  0  0  0  0  0  0
  152.0071  144.9396  159.2578 C   0  0  0  0  0  0  0  0  0  0  0  0
  151.3663  143.0916  157.6578 C   0  0  0  0  0  0  0  0  0  0  0  0
  151.3444  141.7357  157.2857 C   0  0  0  0  0  0  0  0  0  0  0  0
  144.0010  137.4071  154.0993 S   0  0  0  0  0  0  0  0  0  0  0  0
  142.9559  134.5414  151.8869 H   0  0  0  0  0  0  0  0  0  0  0  0
  141.8394  135.8462  152.3249 H   0  0  0  0  0  0  0  0  0  0  0  0
  142.5290  134.8079  153.5850 H   0  0  0  0  0  0  0  0  0  0  0  0
  146.7201  137.4022  151.6779 H   0  0  0  0  0  0  0  0  0  0  0  0
  146.3858  139.8787  153.3703 H   0  0  0  0  0  0  0  0  0  0  0  0
  145.7158  139.4786  154.9242 H   0  0  0  0  0  0  0  0  0  0  0  0
  146.9894  137.4784  156.2496 H   0  0  0  0  0  0  0  0  0  0  0  0
  148.5524  136.9978  155.5780 H   0  0  0  0  0  0  0  0  0  0  0  0
  147.0728  136.5591  154.7420 H   0  0  0  0  0  0  0  0  0  0  0  0
  147.6440  140.2891  155.8282 H   0  0  0  0  0  0  0  0  0  0  0  0
  149.0045  139.2232  156.0489 H   0  0  0  0  0  0  0  0  0  0  0  0
  148.6263  141.0112  153.5926 H   0  0  0  0  0  0  0  0  0  0  0  0
  149.8472  139.5824  152.7578 H   0  0  0  0  0  0  0  0  0  0  0  0
  150.7998  142.0351  154.3772 H   0  0  0  0  0  0  0  0  0  0  0  0
  149.4461  142.3910  155.4289 H   0  0  0  0  0  0  0  0  0  0  0  0
  150.8571  138.9750  155.7256 H   0  0  0  0  0  0  0  0  0  0  0  0
  153.0303  140.3806  159.9271 H   0  0  0  0  0  0  0  0  0  0  0  0
  152.5685  143.3614  161.6617 H   0  0  0  0  0  0  0  0  0  0  0  0
  154.1015  143.5587  160.7985 H   0  0  0  0  0  0  0  0  0  0  0  0
  153.6766  142.0001  161.5020 H   0  0  0  0  0  0  0  0  0  0  0  0
  151.5003  145.5574  158.5158 H   0  0  0  0  0  0  0  0  0  0  0  0
  153.0323  145.2996  159.3487 H   0  0  0  0  0  0  0  0  0  0  0  0
  151.5029  145.0841  160.2135 H   0  0  0  0  0  0  0  0  0  0  0  0
  150.9082  143.8333  157.0207 H   0  0  0  0  0  0  0  0  0  0  0  0
  148.1651  138.4176  153.7343 H   0  0  0  0  0  0  0  0  0  0  0  0
  1  2  1  0  0  0  0
  1 25  1  0  0  0  0
  1 26  1  0  0  0  0
  1 27  1  0  0  0  0
  2 24  1  0  0  0  0
  2  3  2  0  0  0  0
  3  4  1  0  0  0  0
  4  5  2  0  0  0  0
  4 28  1  0  0  0  0
  5  6  1  0  0  0  0
  5 24  1  0  0  0  0
  6  7  1  0  0  0  0
  6 29  1  0  0  0  0
  6 30  1  0  0  0  0
  7  8  1  0  0  0  0
  7  9  1  0  0  0  0
  7 49  1  0  0  0  0
  8 31  1  0  0  0  0
  8 32  1  0  0  0  0
  8 33  1  0  0  0  0
  9 10  1  0  0  0  0
  9 34  1  0  0  0  0
  9 35  1  0  0  0  0
 10 11  1  0  0  0  0
 10 12  1  0  0  0  0
 10 36  1  0  0  0  0
 11 37  1  0  0  0  0
 12 13  1  0  0  0  0
 12 38  1  0  0  0  0
 12 39  1  0  0  0  0
 13 23  1  0  0  0  0
 13 14  1  0  0  0  0
 14 15  2  0  0  0  0
 14 40  1  0  0  0  0
 15 16  1  0  0  0  0
 16 23  2  0  0  0  0
 16 17  1  0  0  0  0
 17 18  2  0  0  0  0
 17 41  1  0  0  0  0
 18 19  1  0  0  0  0
 18 20  1  0  0  0  0
 19 42  1  0  0  0  0
 19 43  1  0  0  0  0
 19 44  1  0  0  0  0
 20 21  1  0  0  0  0
 20 22  2  0  0  0  0
 21 45  1  0  0  0  0
 21 46  1  0  0  0  0
 21 47  1  0  0  0  0
 22 23  1  0  0  0  0
 22 48  1  0  0  0  0
M  CHG  1   7   1
M  END
> <s_m_source_file>
AV-unprocessed.smi

> <i_m_source_file_index>
1225

> <i_lp_mmshare_version>
43012

> <i_f3d_flags>
0

> <s_epik_input>
W0NIM11jMW5bY0hdYyhzMSlbQ0gyXU4oW0NIM10pW0NIMl1bQ0BIXShbT0hdKVtDSDJdbihbY0hdbjIpYyhjMjMpW2NIXWMoW0NIM10pYyhbY0hdMylbQ0gzXQ==

> <s_epik_cmdline>
J2VwaWtfcHl0aG9uJywgJy1waCcsICc3LjAnLCAnLXRuJywgJzgnLCAnLW1hJywgJzIwMCcsICctbWV0YWxfYmluZGluZycsICctaW1hZScsICc8aW5maWxlLm1hZT4nLCAnLW9tYWUnLCAnPG91dGZpbGUubWFlPic=

> <r_epik_Ionization_Penalty>
1.62543

> <r_epik_Ionization_Penalty_Charging>
1.53932

> <r_epik_Ionization_Penalty_Neutral>
0.0861152

> <r_epik_State_Penalty>
1.73127

> <r_epik_Charging_Adjusted_Penalty>
3.27059

> <i_epik_Tot_Q>
1

> <i_epik_Tot_abs_Q>
1

> <r_epik_Metal_State_Penalty>
1.71387

> <b_epik_Metal_Only>
0

> <s_lp_Force_Field>
OPLS_2005

> <r_lp_Energy>
11.3811

> <b_lp_Chiralities_Consistent>
1

> <s_lp_Variant>
AV-unprocessed.smi:1225-6

> <Gold.Version>
5.8.1

> <Gold.Id.Protein>
6NUR|6NUR_protein|mol2

> <Gold.PLP.Fitness>
47.8685

> <Gold.PLP.PLP>
-42.9721

> <Gold.PLP.part.hbond>
-2.0000

> <Gold.PLP.part.metal>
0.0000

> <Gold.PLP.part.buried>
-4.3686

> <Gold.PLP.part.nonpolar>
-36.2694

> <Gold.PLP.part.repulsive>
0.1797

> <Gold.PLP.ligand.clash>
1.9975

> <Gold.PLP.ligand.torsion>
0.8608

> <Gold.PLP.Chemscore.Hbond>
1.8360

> <Gold.PLP.Chemscore.CHOScore>
1.0000

> <Gold.PLP.Chemscore.Metal>
0.0000

> <Gold.Chemscore.Hbonds>
donor molecule, donor type, donor heavy atom, donor atom, acceptor molecule, acceptor atom, score
      L1  H    11    37       P1  7957  1.00
      P1  H  7989  7998       L1    11  0.81
      L1  C     4    28       P1  7948  0.98

> <Gold.PLP.Chemscore.Internal.Correction>
0.1076

> <Gold.Rescore>
     Score         DG    S(hbond)    S(metal)    S(lipo)     H(rot)  DE(clash)    DE(int)     intcor
     14.80     -17.24       1.06        0.00     122.31       2.37       0.27       2.17       ----

> <Gold.Chemscore.Fitness>
14.8010

> <Gold.Chemscore.DG>
-17.2359

> <Gold.Chemscore.ZeroCoef>
-5.4800

> <Gold.Chemscore.Hbond>
1.0556

> <Gold.Chemscore.Metal>
0.0000

> <Gold.Chemscore.Lipo>
122.3100

> <Gold.Chemscore.Internal_Hbond>
0.0000

> <Gold.Chemscore.DEClash>
0.2664

> <Gold.Chemscore.DEInternal>
2.1684

> <Gold.Chemscore.Rot>
2.3750

> <Gold.Chemscore.Internal.Correction>
   9.000000E+99

> <Gold.Chemscore.Hbonds>
donor molecule, donor type, donor heavy atom, donor atom, acceptor molecule, acceptor atom, score
      L1  H    11    37       P1  7957  0.99
      P1  H  7989  7998       L1    11  0.05

> <Gold.Chemscore.Hbond.Weighted>
-3.5256

> <Gold.Chemscore.Metal.Weighted>
-0.0000

> <Gold.Chemscore.Lipo.Weighted>
-14.3103

> <Gold.Chemscore.Internal_Hbond.Weighted>
0.0000

> <Gold.Chemscore.DEClash.Weighted>
0.2664

> <Gold.Chemscore.DEInternal.Weighted>
2.1684

> <Gold.Chemscore.Rot.Weighted>
6.0800

> <Gold.Chemscore.Internal.Correction.Weighted>
   9.000000E+99

> <Gold.Protein.RotatedTorsions>
[ 6907 6896 6895 6894 ] final   78.51 input  -60.11 | X-H torsion
[ 7974 7965 7964 7962 ] final   39.24 input  175.53 | X-H torsion
[ 8008 7997 7996 7995 ] final  -41.17 input   59.86 | X-H torsion
[ 10167 10162 10161 10158 ] final -123.07 input  -65.29 | X-H torsion
[ 10718 10713 10712 10709 ] final   73.53 input   66.30 | X-H torsion
[ 10763 10752 10751 10750 ] final  124.17 input  -60.55 | X-H torsion
[ 11005 11000 10999 10996 ] final -143.74 input  -57.11 | X-H torsion

> <Gold.Protein.ActiveResidues>
 VAL166  LYS551  ARG553  GLY616  TRP617  ASP618  TYR619  PRO620  LYS621  CYS622 
 ASP623  PHE694  ASN695  SER759  ASP760  ASP761  ALA762  ILE779  LEU786  VAL792 
 PHE793  MET794  SER795  GLU796  ALA797  LYS798  CYS799  TRP800  GLU811  SER814 

> <Gold.Protein.RotatedAtoms>
  152.5162  134.3653  159.9298 H   0  0  0  0  0  0  0  0  0  0  0  0  # atno 6907 bound_to 6896
  151.3607  133.3884  159.2697 H   0  0  0  0  0  0  0  0  0  0  0  0  # atno 6908 bound_to 6896
  150.9654  134.9055  159.7814 H   0  0  0  0  0  0  0  0  0  0  0  0  # atno 6909 bound_to 6896
  146.1000  139.5676  142.9420 H   0  0  0  0  0  0  0  0  0  0  0  0  # atno 7974 bound_to 7965
  154.4006  140.1506  156.3147 H   0  0  0  0  0  0  0  0  0  0  0  0  # atno 8008 bound_to 7997
  155.8583  140.3454  155.5718 H   0  0  0  0  0  0  0  0  0  0  0  0  # atno 8009 bound_to 7997
  155.7908  140.0856  157.2000 H   0  0  0  0  0  0  0  0  0  0  0  0  # atno 8010 bound_to 7997
  140.0075  143.5477  152.2277 H   0  0  0  0  0  0  0  0  0  0  0  0  # atno 10167 bound_to 10162
  157.6552  130.9633  150.1082 H   0  0  0  0  0  0  0  0  0  0  0  0  # atno 10718 bound_to 10713
  153.6571  135.3353  155.3116 H   0  0  0  0  0  0  0  0  0  0  0  0  # atno 10763 bound_to 10752
  154.8524  135.4355  154.1843 H   0  0  0  0  0  0  0  0  0  0  0  0  # atno 10764 bound_to 10752
  153.2801  135.7008  153.7469 H   0  0  0  0  0  0  0  0  0  0  0  0  # atno 10765 bound_to 10752
  140.8095  134.2762  157.4947 H   0  0  0  0  0  0  0  0  0  0  0  0  # atno 11005 bound_to 11000
  145.5873  141.0374  143.2089 LP  0  0  0  0  0  0  0  0  0  0  0  0  # atno 17320 bound_to 7965
  144.7425  139.7410  143.7305 LP  0  0  0  0  0  0  0  0  0  0  0  0  # atno 17321 bound_to 7965
  139.6228  144.7632  151.2702 LP  0  0  0  0  0  0  0  0  0  0  0  0  # atno 17342 bound_to 10162
  140.7395  143.6617  150.8158 LP  0  0  0  0  0  0  0  0  0  0  0  0  # atno 17343 bound_to 10162
  156.1986  130.3659  149.8818 LP  0  0  0  0  0  0  0  0  0  0  0  0  # atno 17370 bound_to 10713
  156.6727  130.8827  151.3564 LP  0  0  0  0  0  0  0  0  0  0  0  0  # atno 17371 bound_to 10713
  139.8715  134.9475  156.3968 LP  0  0  0  0  0  0  0  0  0  0  0  0  # atno 17394 bound_to 11000
  140.9213  133.7643  155.9909 LP  0  0  0  0  0  0  0  0  0  0  0  0  # atno 17395 bound_to 11000

$$$$
