AV-unprocessed.smi:1219|AV-procd|sdf|5113|dock3
  -GOLD-   22720 4173D 1   1.00000     0.00000
 Structure written by MMmdl.
 43 44  0  0  0  0  0  0  0  0  2 V2000
  150.6869  140.5112  156.7291 O   0  0  0  0  0  0  0  0  0  0  0  0
  150.2007  141.5980  156.4157 C   0  0  0  0  0  0  0  0  0  0  0  0
  149.4692  141.7874  155.3077 N   0  0  0  0  0  0  0  0  0  0  0  0
  149.1427  140.7586  154.3238 C   0  0  0  0  0  0  0  0  0  0  0  0
  147.7719  140.9793  153.6480 C   0  0  1  0  0  0  0  0  0  0  0  0
  147.6944  140.1162  152.5318 O   0  0  0  0  0  0  0  0  0  0  0  0
  146.5705  140.6918  154.5748 C   0  0  0  0  0  0  0  0  0  0  0  0
  145.5179  141.7331  154.4612 N   0  3  0  0  0  0  0  0  0  0  0  0
  144.5597  141.7004  155.5964 C   0  0  0  0  0  0  0  0  0  0  0  0
  143.4034  142.6909  155.3752 C   0  0  0  0  0  0  0  0  0  0  0  0
  143.9308  144.1132  155.1451 C   0  0  0  0  0  0  0  0  0  0  0  0
  144.9462  144.1162  153.9948 C   0  0  0  0  0  0  0  0  0  0  0  0
  146.0702  143.0991  154.2517 C   0  0  0  0  0  0  0  0  0  0  0  0
  150.3282  142.7385  157.1158 N   0  0  0  0  0  0  0  0  0  0  0  0
  151.0781  142.9601  158.3014 C   0  0  0  0  0  0  0  0  0  0  0  0
  151.2159  144.3151  158.6785 C   0  0  0  0  0  0  0  0  0  0  0  0
  151.9483  144.6411  159.8365 C   0  0  0  0  0  0  0  0  0  0  0  0
  152.5261  143.6021  160.5876 C   0  0  0  0  0  0  0  0  0  0  0  0
  152.3419  142.2801  160.1425 C   0  0  0  0  0  0  0  0  0  0  0  0
  151.6408  141.9656  159.0326 N   0  0  0  0  0  0  0  0  0  0  0  0
  149.1014  142.7117  155.1357 H   0  0  0  0  0  0  0  0  0  0  0  0
  149.9338  140.7205  153.5728 H   0  0  0  0  0  0  0  0  0  0  0  0
  149.1564  139.7953  154.8351 H   0  0  0  0  0  0  0  0  0  0  0  0
  147.7271  141.9992  153.2688 H   0  0  0  0  0  0  0  0  0  0  0  0
  148.3673  140.3576  151.9132 H   0  0  0  0  0  0  0  0  0  0  0  0
  146.1640  139.7104  154.3241 H   0  0  0  0  0  0  0  0  0  0  0  0
  146.8809  140.6277  155.6185 H   0  0  0  0  0  0  0  0  0  0  0  0
  144.1506  140.6949  155.7043 H   0  0  0  0  0  0  0  0  0  0  0  0
  145.0846  141.9318  156.5248 H   0  0  0  0  0  0  0  0  0  0  0  0
  142.8121  142.3761  154.5143 H   0  0  0  0  0  0  0  0  0  0  0  0
  142.7310  142.6775  156.2336 H   0  0  0  0  0  0  0  0  0  0  0  0
  143.1061  144.7908  154.9222 H   0  0  0  0  0  0  0  0  0  0  0  0
  144.4037  144.4841  156.0553 H   0  0  0  0  0  0  0  0  0  0  0  0
  144.4417  143.8758  153.0579 H   0  0  0  0  0  0  0  0  0  0  0  0
  145.3674  145.1145  153.8721 H   0  0  0  0  0  0  0  0  0  0  0  0
  146.6487  143.3968  155.1277 H   0  0  0  0  0  0  0  0  0  0  0  0
  146.7577  143.1092  153.4065 H   0  0  0  0  0  0  0  0  0  0  0  0
  149.8474  143.5472  156.7503 H   0  0  0  0  0  0  0  0  0  0  0  0
  150.7659  145.1013  158.0897 H   0  0  0  0  0  0  0  0  0  0  0  0
  152.0649  145.6704  160.1416 H   0  0  0  0  0  0  0  0  0  0  0  0
  153.0953  143.8124  161.4810 H   0  0  0  0  0  0  0  0  0  0  0  0
  152.7693  141.4532  160.6899 H   0  0  0  0  0  0  0  0  0  0  0  0
  144.9824  141.5005  153.6365 H   0  0  0  0  0  0  0  0  0  0  0  0
  1  2  2  0  0  0  0
  2  3  1  0  0  0  0
  2 14  1  0  0  0  0
  3  4  1  0  0  0  0
  3 21  1  0  0  0  0
  4  5  1  0  0  0  0
  4 22  1  0  0  0  0
  4 23  1  0  0  0  0
  5  6  1  0  0  0  0
  5  7  1  0  0  0  0
  5 24  1  0  0  0  0
  6 25  1  0  0  0  0
  7  8  1  0  0  0  0
  7 26  1  0  0  0  0
  7 27  1  0  0  0  0
  8 13  1  0  0  0  0
  8  9  1  0  0  0  0
  8 43  1  0  0  0  0
  9 10  1  0  0  0  0
  9 28  1  0  0  0  0
  9 29  1  0  0  0  0
 10 11  1  0  0  0  0
 10 30  1  0  0  0  0
 10 31  1  0  0  0  0
 11 12  1  0  0  0  0
 11 32  1  0  0  0  0
 11 33  1  0  0  0  0
 12 13  1  0  0  0  0
 12 34  1  0  0  0  0
 12 35  1  0  0  0  0
 13 36  1  0  0  0  0
 13 37  1  0  0  0  0
 14 15  1  0  0  0  0
 14 38  1  0  0  0  0
 15 20  1  0  0  0  0
 15 16  2  0  0  0  0
 16 17  1  0  0  0  0
 16 39  1  0  0  0  0
 17 18  2  0  0  0  0
 17 40  1  0  0  0  0
 18 19  1  0  0  0  0
 18 41  1  0  0  0  0
 19 20  2  0  0  0  0
 19 42  1  0  0  0  0
M  CHG  1   8   1
M  END
> <s_m_source_file>
AV-unprocessed.smi

> <i_m_source_file_index>
1219

> <i_lp_mmshare_version>
43012

> <i_f3d_flags>
0

> <s_epik_input>
bjFbY0hdW2NIXVtjSF1bY0hdYzFbTkhdQyg9TylbTkhdW0NIMl1bQ0BIXShbT0hdKVtDSDJdTjJbQ0gyXVtDSDJdW0NIMl1bQ0gyXVtDSDJdMg==

> <s_epik_cmdline>
J2VwaWtfcHl0aG9uJywgJy1waCcsICc3LjAnLCAnLXRuJywgJzgnLCAnLW1hJywgJzIwMCcsICctbWV0YWxfYmluZGluZycsICctaW1hZScsICc8aW5maWxlLm1hZT4nLCAnLW9tYWUnLCAnPG91dGZpbGUubWFlPic=

> <r_epik_Ionization_Penalty>
0.00510026

> <r_epik_Ionization_Penalty_Charging>
0.00506051

> <r_epik_Ionization_Penalty_Neutral>
3.97538e-05

> <r_epik_State_Penalty>
0.00368188

> <r_epik_Charging_Adjusted_Penalty>
0.0087424

> <i_epik_Tot_Q>
1

> <i_epik_Tot_abs_Q>
1

> <r_epik_Metal_State_Penalty>
-0

> <b_epik_Metal_Only>
0

> <s_lp_Force_Field>
OPLS_2005

> <r_lp_Energy>
19.3775

> <b_lp_Chiralities_Consistent>
1

> <s_lp_Variant>
AV-unprocessed.smi:1219-2

> <Gold.Version>
5.8.1

> <Gold.Id.Protein>
6NUR|6NUR_protein|mol2

> <Gold.PLP.Fitness>
54.8390

> <Gold.PLP.PLP>
-42.2394

> <Gold.PLP.part.hbond>
-3.5902

> <Gold.PLP.part.metal>
0.0000

> <Gold.PLP.part.buried>
-7.7591

> <Gold.PLP.part.nonpolar>
-32.8760

> <Gold.PLP.part.repulsive>
0.2247

> <Gold.PLP.ligand.clash>
0.0000

> <Gold.PLP.ligand.torsion>
1.1086

> <Gold.PLP.Chemscore.Hbond>
4.9175

> <Gold.PLP.Chemscore.CHOScore>
0.0000

> <Gold.PLP.Chemscore.Metal>
0.0000

> <Gold.Chemscore.Hbonds>
donor molecule, donor type, donor heavy atom, donor atom, acceptor molecule, acceptor atom, score
      L1  H     3    21       P1  8028  0.88
      L1  H     6    25       P1  7957  0.83
      L1  H     8    43       P1 10175  1.70
      L1  H    14    38       P1  8028  1.00

> <Gold.PLP.Chemscore.Internal.Correction>
0.0643

> <Gold.Rescore>
     Score         DG    S(hbond)    S(metal)    S(lipo)     H(rot)  DE(clash)    DE(int)     intcor
     18.61     -21.10       3.47        0.00      87.14       2.41       0.12       2.37       ----

> <Gold.Chemscore.Fitness>
18.6146

> <Gold.Chemscore.DG>
-21.1034

> <Gold.Chemscore.ZeroCoef>
-5.4800

> <Gold.Chemscore.Hbond>
3.4699

> <Gold.Chemscore.Metal>
0.0000

> <Gold.Chemscore.Lipo>
87.1382

> <Gold.Chemscore.Internal_Hbond>
0.0000

> <Gold.Chemscore.DEClash>
0.1162

> <Gold.Chemscore.DEInternal>
2.3726

> <Gold.Chemscore.Rot>
2.4067

> <Gold.Chemscore.Internal.Correction>
   9.000000E+99

> <Gold.Chemscore.Hbonds>
donor molecule, donor type, donor heavy atom, donor atom, acceptor molecule, acceptor atom, score
      L1  H     3    21       P1  8028  0.82
      L1  H     6    25       P1  7957  0.79
      L1  H     8    43       P1 10175  0.14
      L1  H    14    38       P1  8028  1.00

> <Gold.Chemscore.Hbond.Weighted>
-11.5894

> <Gold.Chemscore.Metal.Weighted>
-0.0000

> <Gold.Chemscore.Lipo.Weighted>
-10.1952

> <Gold.Chemscore.Internal_Hbond.Weighted>
0.0000

> <Gold.Chemscore.DEClash.Weighted>
0.1162

> <Gold.Chemscore.DEInternal.Weighted>
2.3726

> <Gold.Chemscore.Rot.Weighted>
6.1612

> <Gold.Chemscore.Internal.Correction.Weighted>
   9.000000E+99

> <Gold.Protein.RotatedTorsions>
[ 6907 6896 6895 6894 ] final -138.42 input  -60.11 | X-H torsion
[ 7974 7965 7964 7962 ] final  179.93 input  175.53 | X-H torsion
[ 8008 7997 7996 7995 ] final   88.44 input   59.86 | X-H torsion
[ 10167 10162 10161 10158 ] final  -32.74 input  -65.29 | X-H torsion
[ 10718 10713 10712 10709 ] final   51.67 input   66.30 | X-H torsion
[ 10763 10752 10751 10750 ] final  166.53 input  -60.55 | X-H torsion
[ 11005 11000 10999 10996 ] final    9.78 input  -57.11 | X-H torsion

> <Gold.Protein.ActiveResidues>
 VAL166  LYS551  ARG553  GLY616  TRP617  ASP618  TYR619  PRO620  LYS621  CYS622 
 ASP623  PHE694  ASN695  SER759  ASP760  ASP761  ALA762  ILE779  LEU786  VAL792 
 PHE793  MET794  SER795  GLU796  ALA797  LYS798  CYS799  TRP800  GLU811  SER814 

> <Gold.Protein.RotatedAtoms>
  151.0348  133.5758  159.2656 H   0  0  0  0  0  0  0  0  0  0  0  0  # atno 6907 bound_to 6896
  151.2827  135.0718  159.9185 H   0  0  0  0  0  0  0  0  0  0  0  0  # atno 6908 bound_to 6896
  152.5352  134.0059  159.7970 H   0  0  0  0  0  0  0  0  0  0  0  0  # atno 6909 bound_to 6896
  144.7141  140.0622  143.6432 H   0  0  0  0  0  0  0  0  0  0  0  0  # atno 7974 bound_to 7965
  155.9878  140.3371  155.6724 H   0  0  0  0  0  0  0  0  0  0  0  0  # atno 8008 bound_to 7997
  155.6462  140.0700  157.2620 H   0  0  0  0  0  0  0  0  0  0  0  0  # atno 8009 bound_to 7997
  154.4210  140.1734  156.1613 H   0  0  0  0  0  0  0  0  0  0  0  0  # atno 8010 bound_to 7997
  140.7216  143.3672  151.1848 H   0  0  0  0  0  0  0  0  0  0  0  0  # atno 10167 bound_to 10162
  157.5002  130.8433  149.8308 H   0  0  0  0  0  0  0  0  0  0  0  0  # atno 10718 bound_to 10713
  154.3403  135.2754  155.2426 H   0  0  0  0  0  0  0  0  0  0  0  0  # atno 10763 bound_to 10752
  154.4699  135.5885  153.6318 H   0  0  0  0  0  0  0  0  0  0  0  0  # atno 10764 bound_to 10752
  152.9858  135.6085  154.3604 H   0  0  0  0  0  0  0  0  0  0  0  0  # atno 10765 bound_to 10752
  140.5219  134.0550  155.7847 H   0  0  0  0  0  0  0  0  0  0  0  0  # atno 11005 bound_to 11000
  145.9855  139.2974  143.1016 LP  0  0  0  0  0  0  0  0  0  0  0  0  # atno 17320 bound_to 7965
  145.8963  140.9272  143.0526 LP  0  0  0  0  0  0  0  0  0  0  0  0  # atno 17321 bound_to 7965
  139.7236  143.9184  152.2994 LP  0  0  0  0  0  0  0  0  0  0  0  0  # atno 17342 bound_to 10162
  139.8949  144.6944  150.8729 LP  0  0  0  0  0  0  0  0  0  0  0  0  # atno 17343 bound_to 10162
  156.0225  130.3791  150.1920 LP  0  0  0  0  0  0  0  0  0  0  0  0  # atno 17370 bound_to 10713
  157.0110  130.9951  151.3366 LP  0  0  0  0  0  0  0  0  0  0  0  0  # atno 17371 bound_to 10713
  141.1329  133.9271  157.2496 LP  0  0  0  0  0  0  0  0  0  0  0  0  # atno 17394 bound_to 11000
  139.9601  135.0156  156.9237 LP  0  0  0  0  0  0  0  0  0  0  0  0  # atno 17395 bound_to 11000

$$$$
