AV-unprocessed.smi:955|AV-procd|sdf|4262|dock10
  -GOLD-   22720 2173D 1   1.00000     0.00000
 Structure written by MMmdl.
 29 29  0  0  0  0  0  0  0  0  1 V2000
  147.0163  139.8330  154.5305 C   0  0  0  0  0  0  0  0  0  0  0  0
  147.7015  139.5264  153.1887 C   0  0  1  0  0  0  0  0  0  0  0  0
  148.8752  138.6987  153.4613 N   0  0  0  0  0  0  0  0  0  0  0  0
  149.9734  139.1021  154.1213 C   0  0  0  0  0  0  0  0  0  0  0  0
  150.1001  140.2376  154.5816 O   0  0  0  0  0  0  0  0  0  0  0  0
  151.0922  138.0605  154.2793 C   0  0  1  0  0  0  0  0  0  0  0  0
  152.3905  138.6655  154.8522 C   0  0  0  0  0  0  0  0  0  0  0  0
  150.6186  136.9243  155.0620 N   0  0  0  0  0  0  0  0  0  0  0  0
  149.4090  136.7888  155.7135 C   0  0  0  0  0  0  0  0  0  0  0  0
  149.4156  135.5793  156.3470 C   0  0  0  0  0  0  0  0  0  0  0  0
  150.6946  135.0414  156.0336 C   0  0  0  0  0  0  0  0  0  0  0  0
  151.4149  135.8502  155.2742 N   0  0  0  0  0  0  0  0  0  0  0  0
  146.6974  138.7689  152.3041 C   0  0  0  0  0  0  0  0  0  0  0  0
  146.3805  139.3317  151.1354 N   0  0  0  0  0  0  0  0  0  0  0  0
  146.2022  137.7043  152.6724 O   0  0  0  0  0  0  0  0  0  0  0  0
  146.1292  140.4522  154.3905 H   0  0  0  0  0  0  0  0  0  0  0  0
  147.6889  140.3779  155.1938 H   0  0  0  0  0  0  0  0  0  0  0  0
  146.7089  138.9230  155.0485 H   0  0  0  0  0  0  0  0  0  0  0  0
  148.0026  140.4597  152.7083 H   0  0  0  0  0  0  0  0  0  0  0  0
  148.8554  137.7535  153.1077 H   0  0  0  0  0  0  0  0  0  0  0  0
  151.3290  137.6849  153.2822 H   0  0  0  0  0  0  0  0  0  0  0  0
  152.7651  139.4655  154.2127 H   0  0  0  0  0  0  0  0  0  0  0  0
  153.1735  137.9100  154.9213 H   0  0  0  0  0  0  0  0  0  0  0  0
  152.2455  139.0818  155.8499 H   0  0  0  0  0  0  0  0  0  0  0  0
  148.6509  137.5570  155.6720 H   0  0  0  0  0  0  0  0  0  0  0  0
  148.6288  135.1467  156.9470 H   0  0  0  0  0  0  0  0  0  0  0  0
  151.1202  134.0961  156.3367 H   0  0  0  0  0  0  0  0  0  0  0  0
  145.7196  138.8795  150.5206 H   0  0  0  0  0  0  0  0  0  0  0  0
  146.7981  140.2133  150.8746 H   0  0  0  0  0  0  0  0  0  0  0  0
  1  2  1  0  0  0  0
  1 16  1  0  0  0  0
  1 17  1  0  0  0  0
  1 18  1  0  0  0  0
  2  3  1  0  0  0  0
  2 13  1  0  0  0  0
  2 19  1  0  0  0  0
  3  4  1  0  0  0  0
  3 20  1  0  0  0  0
  4  5  2  0  0  0  0
  4  6  1  0  0  0  0
  6  7  1  0  0  0  0
  6  8  1  0  0  0  0
  6 21  1  0  0  0  0
  7 22  1  0  0  0  0
  7 23  1  0  0  0  0
  7 24  1  0  0  0  0
  8 12  1  0  0  0  0
  8  9  1  0  0  0  0
  9 10  2  0  0  0  0
  9 25  1  0  0  0  0
 10 11  1  0  0  0  0
 10 26  1  0  0  0  0
 11 12  2  0  0  0  0
 11 27  1  0  0  0  0
 13 14  1  0  0  0  0
 13 15  2  0  0  0  0
 14 28  1  0  0  0  0
 14 29  1  0  0  0  0
M  END
> <s_m_source_file>
AV-unprocessed.smi

> <i_m_source_file_index>
955

> <i_lp_mmshare_version>
43012

> <i_f3d_flags>
0

> <s_epik_input>
W05IMl1DKD1PKVtDQEhdKFtDSDNdKVtOSF1DKD1PKVtDQEhdKFtDSDNdKW4xW2NIXVtjSF1bY0hdbjE=

> <s_epik_cmdline>
J2VwaWtfcHl0aG9uJywgJy1waCcsICc3LjAnLCAnLXRuJywgJzgnLCAnLW1hJywgJzIwMCcsICctbWV0YWxfYmluZGluZycsICctaW1hZScsICc8aW5maWxlLm1hZT4nLCAnLW9tYWUnLCAnPG91dGZpbGUubWFlPic=

> <r_lp_tautomer_probability>
1

> <r_epik_Ionization_Penalty>
2.8146e-05

> <r_epik_Ionization_Penalty_Charging>
0

> <r_epik_Ionization_Penalty_Neutral>
2.8146e-05

> <r_epik_State_Penalty>
-0

> <r_epik_Charging_Adjusted_Penalty>
0

> <i_epik_Tot_Q>
0

> <i_epik_Tot_abs_Q>
0

> <r_epik_Metal_State_Penalty>
-0

> <b_epik_Metal_Only>
0

> <s_lp_Force_Field>
OPLS_2005

> <r_lp_Energy>
4.82195

> <b_lp_Chiralities_Consistent>
1

> <s_lp_Variant>
AV-unprocessed.smi:955-4

> <Gold.Version>
5.8.1

> <Gold.Id.Protein>
6NUR|6NUR_protein|mol2

> <Gold.PLP.Fitness>
37.7194

> <Gold.PLP.PLP>
-25.9098

> <Gold.PLP.part.hbond>
-5.6707

> <Gold.PLP.part.metal>
0.0000

> <Gold.PLP.part.buried>
-2.4987

> <Gold.PLP.part.nonpolar>
-19.0066

> <Gold.PLP.part.repulsive>
0.5945

> <Gold.PLP.ligand.clash>
0.0000

> <Gold.PLP.ligand.torsion>
0.1507

> <Gold.PLP.Chemscore.Hbond>
4.0000

> <Gold.PLP.Chemscore.CHOScore>
0.0000

> <Gold.PLP.Chemscore.Metal>
0.0000

> <Gold.Chemscore.Hbonds>
donor molecule, donor type, donor heavy atom, donor atom, acceptor molecule, acceptor atom, score
      L1  H     3    20       P1  7948  1.00
      L1  H    14    28       P1 10171  1.00
      P1  H  7989  7998       L1     5  1.00
      P1  H 10752 10764       L1    12  1.00

> <Gold.PLP.Chemscore.Internal.Correction>
0.1111

> <Gold.Rescore>
     Score         DG    S(hbond)    S(metal)    S(lipo)     H(rot)  DE(clash)    DE(int)     intcor
     14.96     -16.78       3.78        0.00      38.94       2.30       1.40       0.41       ----

> <Gold.Chemscore.Fitness>
14.9622

> <Gold.Chemscore.DG>
-16.7756

> <Gold.Chemscore.ZeroCoef>
-5.4800

> <Gold.Chemscore.Hbond>
3.7786

> <Gold.Chemscore.Metal>
0.0000

> <Gold.Chemscore.Lipo>
38.9399

> <Gold.Chemscore.Internal_Hbond>
0.0000

> <Gold.Chemscore.DEClash>
1.4041

> <Gold.Chemscore.DEInternal>
0.4093

> <Gold.Chemscore.Rot>
2.2972

> <Gold.Chemscore.Internal.Correction>
   9.000000E+99

> <Gold.Chemscore.Hbonds>
donor molecule, donor type, donor heavy atom, donor atom, acceptor molecule, acceptor atom, score
      L1  H     3    20       P1  7948  0.98
      L1  H    14    28       P1 10171  0.94
      P1  H  7989  7998       L1     5  0.24
      P1  H 10752 10764       L1    12  1.00

> <Gold.Chemscore.Hbond.Weighted>
-12.6206

> <Gold.Chemscore.Metal.Weighted>
-0.0000

> <Gold.Chemscore.Lipo.Weighted>
-4.5560

> <Gold.Chemscore.Internal_Hbond.Weighted>
0.0000

> <Gold.Chemscore.DEClash.Weighted>
1.4041

> <Gold.Chemscore.DEInternal.Weighted>
0.4093

> <Gold.Chemscore.Rot.Weighted>
5.8809

> <Gold.Chemscore.Internal.Correction.Weighted>
   9.000000E+99

> <Gold.Protein.RotatedTorsions>
[ 6907 6896 6895 6894 ] final  -53.27 input  -60.11 | X-H torsion
[ 7974 7965 7964 7962 ] final  179.13 input  175.53 | X-H torsion
[ 8008 7997 7996 7995 ] final  -97.59 input   59.86 | X-H torsion
[ 10167 10162 10161 10158 ] final   65.79 input  -65.29 | X-H torsion
[ 10718 10713 10712 10709 ] final   10.29 input   66.30 | X-H torsion
[ 10763 10752 10751 10750 ] final  -57.42 input  -60.55 | X-H torsion
[ 11005 11000 10999 10996 ] final  -85.14 input  -57.11 | X-H torsion

> <Gold.Protein.ActiveResidues>
 VAL166  LYS551  ARG553  GLY616  TRP617  ASP618  TYR619  PRO620  LYS621  CYS622 
 ASP623  PHE694  ASN695  SER759  ASP760  ASP761  ALA762  ILE779  LEU786  VAL792 
 PHE793  MET794  SER795  GLU796  ALA797  LYS798  CYS799  TRP800  GLU811  SER814 

> <Gold.Protein.RotatedAtoms>
  150.8442  134.7745  159.6956 H   0  0  0  0  0  0  0  0  0  0  0  0  # atno 6907 bound_to 6896
  152.4523  134.5364  159.9836 H   0  0  0  0  0  0  0  0  0  0  0  0  # atno 6908 bound_to 6896
  151.5498  133.3381  159.2986 H   0  0  0  0  0  0  0  0  0  0  0  0  # atno 6909 bound_to 6896
  144.7149  140.0501  143.6435 H   0  0  0  0  0  0  0  0  0  0  0  0  # atno 7974 bound_to 7965
  154.7897  140.0462  157.1191 H   0  0  0  0  0  0  0  0  0  0  0  0  # atno 8008 bound_to 7997
  154.9605  140.3077  155.5013 H   0  0  0  0  0  0  0  0  0  0  0  0  # atno 8009 bound_to 7997
  156.2948  140.2271  156.4690 H   0  0  0  0  0  0  0  0  0  0  0  0  # atno 8010 bound_to 7997
  140.1074  144.4849  150.6999 H   0  0  0  0  0  0  0  0  0  0  0  0  # atno 10167 bound_to 10162
  156.9788  130.5997  149.5675 H   0  0  0  0  0  0  0  0  0  0  0  0  # atno 10718 bound_to 10713
  154.2222  135.6376  153.5148 H   0  0  0  0  0  0  0  0  0  0  0  0  # atno 10763 bound_to 10752
  152.9966  135.5499  154.6102 H   0  0  0  0  0  0  0  0  0  0  0  0  # atno 10764 bound_to 10752
  154.5565  135.2905  155.0934 H   0  0  0  0  0  0  0  0  0  0  0  0  # atno 10765 bound_to 10752
  141.1644  133.7383  156.8971 H   0  0  0  0  0  0  0  0  0  0  0  0  # atno 11005 bound_to 11000
  145.9951  139.3046  143.0961 LP  0  0  0  0  0  0  0  0  0  0  0  0  # atno 17320 bound_to 7965
  145.8858  140.9334  143.0577 LP  0  0  0  0  0  0  0  0  0  0  0  0  # atno 17321 bound_to 7965
  140.6944  143.2395  151.5041 LP  0  0  0  0  0  0  0  0  0  0  0  0  # atno 17342 bound_to 10162
  139.5638  144.2093  152.1732 LP  0  0  0  0  0  0  0  0  0  0  0  0  # atno 17343 bound_to 10162
  156.0253  130.5347  150.8389 LP  0  0  0  0  0  0  0  0  0  0  0  0  # atno 17370 bound_to 10713
  157.5541  131.0944  150.9653 LP  0  0  0  0  0  0  0  0  0  0  0  0  # atno 17371 bound_to 10713
  140.1608  134.9166  157.2713 LP  0  0  0  0  0  0  0  0  0  0  0  0  # atno 17394 bound_to 11000
  140.2613  134.3568  155.7405 LP  0  0  0  0  0  0  0  0  0  0  0  0  # atno 17395 bound_to 11000

$$$$
