AV-unprocessed.smi:3335|AV-procd|sdf|12842|dock4
  -GOLD-   2272019223D 1   1.00000     0.00000
 Structure written by MMmdl.
 47 48  0  0  0  0  0  0  0  0  2 V2000
  151.9121  145.8274  160.5456 C   0  0  0  0  0  0  0  0  0  0  0  0
  151.6585  144.6776  159.6137 C   0  0  0  0  0  0  0  0  0  0  0  0
  150.5908  144.5241  158.6850 C   0  0  0  0  0  0  0  0  0  0  0  0
  150.6542  143.3859  158.0143 N   0  0  0  0  0  0  0  0  0  0  0  0
  151.7673  142.7766  158.4797 N   0  0  0  0  0  0  0  0  0  0  0  0
  152.1607  141.4666  157.9719 C   0  0  1  0  0  0  0  0  0  0  0  0
  152.1953  140.4569  159.1343 C   0  0  0  0  0  0  0  0  0  0  0  0
  151.2604  141.0110  156.7909 C   0  0  2  0  0  0  0  0  0  0  0  0
  149.7949  140.8027  157.2182 C   0  0  0  0  0  0  0  0  0  0  0  0
  151.7914  139.7543  156.2079 N   0  3  0  0  0  0  0  0  0  0  0  0
  151.5591  139.5500  154.7581 C   0  0  1  0  0  0  0  0  0  0  0  0
  152.5982  138.5731  154.1756 C   0  0  0  0  0  0  0  0  0  0  0  0
  150.1378  139.0044  154.5200 C   0  0  0  0  0  0  0  0  0  0  0  0
  149.9595  137.7850  154.5399 O   0  0  0  0  0  0  0  0  0  0  0  0
  149.1250  139.8651  154.2738 N   0  0  0  0  0  0  0  0  0  0  0  0
  149.2978  141.3175  154.2731 C   0  0  0  0  0  0  0  0  0  0  0  0
  147.8872  141.9053  154.2808 C   0  0  0  0  0  0  0  0  0  0  0  0
  147.0355  140.8288  153.6253 C   0  0  0  0  0  0  0  0  0  0  0  0
  147.7295  139.5177  153.9980 C   0  0  0  0  0  0  0  0  0  0  0  0
  152.3853  143.5320  159.4546 C   0  0  0  0  0  0  0  0  0  0  0  0
  150.9881  146.3367  160.8201 H   0  0  0  0  0  0  0  0  0  0  0  0
  152.5683  146.5720  160.0949 H   0  0  0  0  0  0  0  0  0  0  0  0
  152.3843  145.5004  161.4723 H   0  0  0  0  0  0  0  0  0  0  0  0
  149.7746  145.2015  158.4811 H   0  0  0  0  0  0  0  0  0  0  0  0
  153.1804  141.5698  157.5970 H   0  0  0  0  0  0  0  0  0  0  0  0
  152.6479  139.5117  158.8364 H   0  0  0  0  0  0  0  0  0  0  0  0
  151.1933  140.2454  159.5095 H   0  0  0  0  0  0  0  0  0  0  0  0
  152.7850  140.8414  159.9672 H   0  0  0  0  0  0  0  0  0  0  0  0
  151.2829  141.7907  156.0294 H   0  0  0  0  0  0  0  0  0  0  0  0
  149.3414  141.7307  157.5648 H   0  0  0  0  0  0  0  0  0  0  0  0
  149.7171  140.0721  158.0238 H   0  0  0  0  0  0  0  0  0  0  0  0
  149.1806  140.4471  156.3913 H   0  0  0  0  0  0  0  0  0  0  0  0
  152.7909  139.7330  156.3533 H   0  0  0  0  0  0  0  0  0  0  0  0
  151.6605  140.5168  154.2697 H   0  0  0  0  0  0  0  0  0  0  0  0
  152.4185  138.3800  153.1179 H   0  0  0  0  0  0  0  0  0  0  0  0
  152.5759  137.6132  154.6937 H   0  0  0  0  0  0  0  0  0  0  0  0
  153.6118  138.9652  154.2576 H   0  0  0  0  0  0  0  0  0  0  0  0
  149.8744  141.6675  155.1309 H   0  0  0  0  0  0  0  0  0  0  0  0
  149.8289  141.6095  153.3659 H   0  0  0  0  0  0  0  0  0  0  0  0
  147.5580  142.0547  155.3101 H   0  0  0  0  0  0  0  0  0  0  0  0
  147.8261  142.8655  153.7676 H   0  0  0  0  0  0  0  0  0  0  0  0
  145.9931  140.8615  153.9440 H   0  0  0  0  0  0  0  0  0  0  0  0
  147.0570  140.9589  152.5422 H   0  0  0  0  0  0  0  0  0  0  0  0
  147.6319  138.7972  153.1854 H   0  0  0  0  0  0  0  0  0  0  0  0
  147.2770  139.0906  154.8935 H   0  0  0  0  0  0  0  0  0  0  0  0
  153.2847  143.1963  159.9500 H   0  0  0  0  0  0  0  0  0  0  0  0
  151.3842  138.9800  156.7125 H   0  0  0  0  0  0  0  0  0  0  0  0
  1  2  1  0  0  0  0
  1 21  1  0  0  0  0
  1 22  1  0  0  0  0
  1 23  1  0  0  0  0
  2 20  2  0  0  0  0
  2  3  1  0  0  0  0
  3  4  2  0  0  0  0
  3 24  1  0  0  0  0
  4  5  1  0  0  0  0
  5  6  1  0  0  0  0
  5 20  1  0  0  0  0
  6  7  1  0  0  0  0
  6  8  1  0  0  0  0
  6 25  1  0  0  0  0
  7 26  1  0  0  0  0
  7 27  1  0  0  0  0
  7 28  1  0  0  0  0
  8  9  1  0  0  0  0
  8 10  1  0  0  0  0
  8 29  1  0  0  0  0
  9 30  1  0  0  0  0
  9 31  1  0  0  0  0
  9 32  1  0  0  0  0
 10 11  1  0  0  0  0
 10 33  1  0  0  0  0
 10 47  1  0  0  0  0
 11 12  1  0  0  0  0
 11 13  1  0  0  0  0
 11 34  1  0  0  0  0
 12 35  1  0  0  0  0
 12 36  1  0  0  0  0
 12 37  1  0  0  0  0
 13 14  2  0  0  0  0
 13 15  1  0  0  0  0
 15 19  1  0  0  0  0
 15 16  1  0  0  0  0
 16 17  1  0  0  0  0
 16 38  1  0  0  0  0
 16 39  1  0  0  0  0
 17 18  1  0  0  0  0
 17 40  1  0  0  0  0
 17 41  1  0  0  0  0
 18 19  1  0  0  0  0
 18 42  1  0  0  0  0
 18 43  1  0  0  0  0
 19 44  1  0  0  0  0
 19 45  1  0  0  0  0
 20 46  1  0  0  0  0
M  CHG  1  10   1
M  END
> <s_m_source_file>
AV-unprocessed.smi

> <i_m_source_file_index>
3335

> <i_lp_mmshare_version>
43012

> <i_f3d_flags>
0

> <s_epik_input>
W0NIM11jMVtjSF1ubihbY0hdMSlbQ0BIXShbQ0gzXSlbQ0BIXShbQ0gzXSlbTkhdW0NASF0oW0NIM10pQyg9TylOMltDSDJdW0NIMl1bQ0gyXVtDSDJdMg==

> <s_epik_cmdline>
J2VwaWtfcHl0aG9uJywgJy1waCcsICc3LjAnLCAnLXRuJywgJzgnLCAnLW1hJywgJzIwMCcsICctbWV0YWxfYmluZGluZycsICctaW1hZScsICc8aW5maWxlLm1hZT4nLCAnLW9tYWUnLCAnPG91dGZpbGUubWFlPic=

> <r_lp_tautomer_probability>
1

> <r_epik_Ionization_Penalty>
0.14175

> <r_epik_Ionization_Penalty_Charging>
0.141731

> <r_epik_Ionization_Penalty_Neutral>
1.91261e-05

> <r_epik_State_Penalty>
0.131043

> <r_epik_Charging_Adjusted_Penalty>
0.272773

> <i_epik_Tot_Q>
1

> <i_epik_Tot_abs_Q>
1

> <r_epik_Metal_State_Penalty>
0.131408

> <b_epik_Metal_Only>
0

> <s_lp_Force_Field>
OPLS_2005

> <r_lp_Energy>
36.2431

> <b_lp_Chiralities_Consistent>
1

> <s_lp_Variant>
AV-unprocessed.smi:3335-6

> <Gold.Version>
5.8.1

> <Gold.Id.Protein>
6NUR|6NUR_protein|mol2

> <Gold.PLP.Fitness>
43.2847

> <Gold.PLP.PLP>
-42.7450

> <Gold.PLP.part.hbond>
0.0000

> <Gold.PLP.part.metal>
0.0000

> <Gold.PLP.part.buried>
-3.7737

> <Gold.PLP.part.nonpolar>
-39.9443

> <Gold.PLP.part.repulsive>
0.4438

> <Gold.PLP.ligand.clash>
0.0000

> <Gold.PLP.ligand.torsion>
1.3630

> <Gold.PLP.Chemscore.Hbond>
0.0000

> <Gold.PLP.Chemscore.CHOScore>
1.0000

> <Gold.PLP.Chemscore.Metal>
0.0000

> <Gold.Chemscore.Hbonds>
donor molecule, donor type, donor heavy atom, donor atom, acceptor molecule, acceptor atom, score
      L1  C     3    24       P1  8029  1.00

> <Gold.PLP.Chemscore.Internal.Correction>
0.2656

> <Gold.Rescore>
     Score         DG    S(hbond)    S(metal)    S(lipo)     H(rot)  DE(clash)    DE(int)     intcor
     11.67     -14.64       0.00        0.00     114.99       1.68       0.27       2.69       ----

> <Gold.Chemscore.Fitness>
11.6743

> <Gold.Chemscore.DG>
-14.6384

> <Gold.Chemscore.ZeroCoef>
-5.4800

> <Gold.Chemscore.Hbond>
0.0000

> <Gold.Chemscore.Metal>
0.0000

> <Gold.Chemscore.Lipo>
114.9876

> <Gold.Chemscore.Internal_Hbond>
0.0000

> <Gold.Chemscore.DEClash>
0.2698

> <Gold.Chemscore.DEInternal>
2.6943

> <Gold.Chemscore.Rot>
1.6778

> <Gold.Chemscore.Internal.Correction>
   9.000000E+99

> <Gold.Chemscore.Hbond.Weighted>
-0.0000

> <Gold.Chemscore.Metal.Weighted>
-0.0000

> <Gold.Chemscore.Lipo.Weighted>
-13.4535

> <Gold.Chemscore.Internal_Hbond.Weighted>
0.0000

> <Gold.Chemscore.DEClash.Weighted>
0.2698

> <Gold.Chemscore.DEInternal.Weighted>
2.6943

> <Gold.Chemscore.Rot.Weighted>
4.2952

> <Gold.Chemscore.Internal.Correction.Weighted>
   9.000000E+99

> <Gold.Protein.RotatedTorsions>
[ 6907 6896 6895 6894 ] final  -86.40 input  -60.11 | X-H torsion
[ 7974 7965 7964 7962 ] final   78.74 input  175.53 | X-H torsion
[ 8008 7997 7996 7995 ] final   28.86 input   59.86 | X-H torsion
[ 10167 10162 10161 10158 ] final  130.12 input  -65.29 | X-H torsion
[ 10718 10713 10712 10709 ] final    9.56 input   66.30 | X-H torsion
[ 10763 10752 10751 10750 ] final -112.32 input  -60.55 | X-H torsion
[ 11005 11000 10999 10996 ] final   -3.96 input  -57.11 | X-H torsion

> <Gold.Protein.ActiveResidues>
 VAL166  LYS551  ARG553  GLY616  TRP617  ASP618  TYR619  PRO620  LYS621  CYS622 
 ASP623  PHE694  ASN695  SER759  ASP760  ASP761  ALA762  ILE779  LEU786  VAL792 
 PHE793  MET794  SER795  GLU796  ALA797  LYS798  CYS799  TRP800  GLU811  SER814 

> <Gold.Protein.RotatedAtoms>
  150.6867  134.3056  159.4724 H   0  0  0  0  0  0  0  0  0  0  0  0  # atno 6907 bound_to 6896
  152.0948  134.9380  160.0580 H   0  0  0  0  0  0  0  0  0  0  0  0  # atno 6908 bound_to 6896
  152.0682  133.4059  159.4484 H   0  0  0  0  0  0  0  0  0  0  0  0  # atno 6909 bound_to 6896
  145.6733  139.2503  143.1856 H   0  0  0  0  0  0  0  0  0  0  0  0  # atno 7974 bound_to 7965
  155.0654  140.3194  155.4647 H   0  0  0  0  0  0  0  0  0  0  0  0  # atno 8008 bound_to 7997
  156.2803  140.2121  156.5726 H   0  0  0  0  0  0  0  0  0  0  0  0  # atno 8009 bound_to 7997
  154.7098  140.0499  157.0526 H   0  0  0  0  0  0  0  0  0  0  0  0  # atno 8010 bound_to 7997
  139.5445  144.6761  151.4517 H   0  0  0  0  0  0  0  0  0  0  0  0  # atno 10167 bound_to 10162
  156.9681  130.5959  149.5667 H   0  0  0  0  0  0  0  0  0  0  0  0  # atno 10718 bound_to 10713
  154.8343  135.4495  154.1175 H   0  0  0  0  0  0  0  0  0  0  0  0  # atno 10763 bound_to 10752
  153.2420  135.6917  153.7779 H   0  0  0  0  0  0  0  0  0  0  0  0  # atno 10764 bound_to 10752
  153.7123  135.3355  155.3225 H   0  0  0  0  0  0  0  0  0  0  0  0  # atno 10765 bound_to 10752
  140.6750  133.9203  155.8519 H   0  0  0  0  0  0  0  0  0  0  0  0  # atno 11005 bound_to 11000
  146.1027  140.7524  142.9541 LP  0  0  0  0  0  0  0  0  0  0  0  0  # atno 17320 bound_to 7965
  144.7050  140.3813  143.7126 LP  0  0  0  0  0  0  0  0  0  0  0  0  # atno 17321 bound_to 7965
  140.6688  143.8339  150.6974 LP  0  0  0  0  0  0  0  0  0  0  0  0  # atno 17342 bound_to 10162
  140.1757  143.4157  152.1969 LP  0  0  0  0  0  0  0  0  0  0  0  0  # atno 17343 bound_to 10162
  156.0294  130.5386  150.8493 LP  0  0  0  0  0  0  0  0  0  0  0  0  # atno 17370 bound_to 10713
  157.5611  131.0946  150.9557 LP  0  0  0  0  0  0  0  0  0  0  0  0  # atno 17371 bound_to 10713
  141.0362  134.0686  157.3956 LP  0  0  0  0  0  0  0  0  0  0  0  0  # atno 17394 bound_to 11000
  139.8969  135.0148  156.7076 LP  0  0  0  0  0  0  0  0  0  0  0  0  # atno 17395 bound_to 11000

$$$$
