AV-unprocessed.smi:1681|AV-procd|sdf|6742|dock5
  -GOLD-   22720 7493D 1   1.00000     0.00000
 Structure written by MMmdl.
 40 41  0  0  0  0  0  0  0  0  1 V2000
  144.2359  134.8460  150.6725 C   0  0  0  0  0  0  0  0  0  0  0  0
  144.4605  133.3376  150.5467 C   0  0  0  0  0  0  0  0  0  0  0  0
  143.5034  132.6361  150.2185 O   0  0  0  0  0  0  0  0  0  0  0  0
  145.6893  132.8271  150.8018 N   0  0  0  0  0  0  0  0  0  0  0  0
  146.8469  133.5958  151.2774 C   0  0  0  0  0  0  0  0  0  0  0  0
  147.1151  133.2234  152.7467 C   0  0  0  0  0  0  0  0  0  0  0  0
  147.3198  131.7040  152.9016 C   0  0  0  0  0  0  0  0  0  0  0  0
  146.1771  130.9007  152.2359 C   0  0  2  0  0  0  0  0  0  0  0  0
  146.4595  129.3929  152.2772 C   0  0  0  0  0  0  0  0  0  0  0  0
  145.6853  128.6415  152.8708 O   0  0  0  0  0  0  0  0  0  0  0  0
  147.5732  128.9863  151.6422 N   0  0  0  0  0  0  0  0  0  0  0  0
  148.0646  127.6622  151.5208 C   0  0  0  0  0  0  0  0  0  0  0  0
  147.9975  126.6778  152.5407 C   0  0  0  0  0  0  0  0  0  0  0  0
  148.5434  125.5386  152.1435 N   0  0  0  0  0  0  0  0  0  0  0  0
  148.9672  125.7736  150.8762 N   0  0  0  0  0  0  0  0  0  0  0  0
  149.6388  124.7208  150.1350 C   0  0  0  0  0  0  0  0  0  0  0  0
  151.0947  125.0892  149.8406 C   0  0  0  0  0  0  0  0  0  0  0  0
  151.3112  126.0929  148.9857 N   0  0  0  0  0  0  0  0  0  0  0  0
  152.0137  124.4717  150.3741 O   0  0  0  0  0  0  0  0  0  0  0  0
  148.6862  127.0614  150.4629 C   0  0  0  0  0  0  0  0  0  0  0  0
  145.9676  131.3854  150.7834 C   0  0  0  0  0  0  0  0  0  0  0  0
  144.4723  135.1903  151.6798 H   0  0  0  0  0  0  0  0  0  0  0  0
  143.1937  135.0971  150.4722 H   0  0  0  0  0  0  0  0  0  0  0  0
  144.8532  135.3894  149.9566 H   0  0  0  0  0  0  0  0  0  0  0  0
  147.7162  133.3479  150.6665 H   0  0  0  0  0  0  0  0  0  0  0  0
  146.7253  134.6738  151.1830 H   0  0  0  0  0  0  0  0  0  0  0  0
  147.9913  133.7571  153.1160 H   0  0  0  0  0  0  0  0  0  0  0  0
  146.2739  133.5443  153.3627 H   0  0  0  0  0  0  0  0  0  0  0  0
  148.2762  131.4342  152.4507 H   0  0  0  0  0  0  0  0  0  0  0  0
  147.3962  131.4485  153.9593 H   0  0  0  0  0  0  0  0  0  0  0  0
  145.2578  131.0951  152.7924 H   0  0  0  0  0  0  0  0  0  0  0  0
  148.1276  129.7036  151.1973 H   0  0  0  0  0  0  0  0  0  0  0  0
  147.5820  126.7498  153.5350 H   0  0  0  0  0  0  0  0  0  0  0  0
  149.5944  123.7925  150.7070 H   0  0  0  0  0  0  0  0  0  0  0  0
  149.1027  124.5469  149.2010 H   0  0  0  0  0  0  0  0  0  0  0  0
  152.2555  126.3674  148.7564 H   0  0  0  0  0  0  0  0  0  0  0  0
  150.5264  126.5703  148.5666 H   0  0  0  0  0  0  0  0  0  0  0  0
  148.9557  127.4191  149.4804 H   0  0  0  0  0  0  0  0  0  0  0  0
  145.1711  130.8132  150.3047 H   0  0  0  0  0  0  0  0  0  0  0  0
  146.8612  131.2038  150.1836 H   0  0  0  0  0  0  0  0  0  0  0  0
  1  2  1  0  0  0  0
  1 22  1  0  0  0  0
  1 23  1  0  0  0  0
  1 24  1  0  0  0  0
  2  3  2  0  0  0  0
  2  4  1  0  0  0  0
  4 21  1  0  0  0  0
  4  5  1  0  0  0  0
  5  6  1  0  0  0  0
  5 25  1  0  0  0  0
  5 26  1  0  0  0  0
  6  7  1  0  0  0  0
  6 27  1  0  0  0  0
  6 28  1  0  0  0  0
  7  8  1  0  0  0  0
  7 29  1  0  0  0  0
  7 30  1  0  0  0  0
  8  9  1  0  0  0  0
  8 21  1  0  0  0  0
  8 31  1  0  0  0  0
  9 10  2  0  0  0  0
  9 11  1  0  0  0  0
 11 12  1  0  0  0  0
 11 32  1  0  0  0  0
 12 20  2  0  0  0  0
 12 13  1  0  0  0  0
 13 14  2  0  0  0  0
 13 33  1  0  0  0  0
 14 15  1  0  0  0  0
 15 16  1  0  0  0  0
 15 20  1  0  0  0  0
 16 17  1  0  0  0  0
 16 34  1  0  0  0  0
 16 35  1  0  0  0  0
 17 18  1  0  0  0  0
 17 19  2  0  0  0  0
 18 36  1  0  0  0  0
 18 37  1  0  0  0  0
 20 38  1  0  0  0  0
 21 39  1  0  0  0  0
 21 40  1  0  0  0  0
M  END
> <s_m_source_file>
AV-unprocessed.smi

> <i_m_source_file_index>
1681

> <i_lp_mmshare_version>
43012

> <i_f3d_flags>
0

> <s_epik_input>
W0NIM11DKD1PKU4xW0NIMl1bQ0gyXVtDSDJdW0NASF0oW0NIMl0xKUMoPU8pW05IXWMyW2NIXW5uKFtjSF0yKVtDSDJdQyg9TylbTkgyXQ==

> <s_epik_cmdline>
J2VwaWtfcHl0aG9uJywgJy1waCcsICc3LjAnLCAnLXRuJywgJzgnLCAnLW1hJywgJzIwMCcsICctbWV0YWxfYmluZGluZycsICctaW1hZScsICc8aW5maWxlLm1hZT4nLCAnLW9tYWUnLCAnPG91dGZpbGUubWFlPic=

> <r_lp_tautomer_probability>
1

> <r_epik_Ionization_Penalty>
6.05275e-06

> <r_epik_Ionization_Penalty_Charging>
0

> <r_epik_Ionization_Penalty_Neutral>
6.05275e-06

> <r_epik_State_Penalty>
-0

> <r_epik_Charging_Adjusted_Penalty>
0

> <i_epik_Tot_Q>
0

> <i_epik_Tot_abs_Q>
0

> <r_epik_Metal_State_Penalty>
-0

> <b_epik_Metal_Only>
0

> <s_lp_Force_Field>
OPLS_2005

> <r_lp_Energy>
29.5866

> <b_lp_Chiralities_Consistent>
1

> <s_lp_Variant>
AV-unprocessed.smi:1681-2

> <Gold.Version>
5.8.1

> <Gold.Id.Protein>
6NUR|6NUR_protein|mol2

> <Gold.PLP.Fitness>
49.2925

> <Gold.PLP.PLP>
-42.3098

> <Gold.PLP.part.hbond>
-3.4477

> <Gold.PLP.part.metal>
0.0000

> <Gold.PLP.part.buried>
-7.0280

> <Gold.PLP.part.nonpolar>
-32.9605

> <Gold.PLP.part.repulsive>
0.7958

> <Gold.PLP.ligand.clash>
0.0000

> <Gold.PLP.ligand.torsion>
0.3730

> <Gold.PLP.Chemscore.Hbond>
2.5680

> <Gold.PLP.Chemscore.CHOScore>
0.0000

> <Gold.PLP.Chemscore.Metal>
0.0000

> <Gold.Chemscore.Hbonds>
donor molecule, donor type, donor heavy atom, donor atom, acceptor molecule, acceptor atom, score
      L1  H    11    32       P1 10747  1.00
      L1  H    18    36       P1 10722  0.67
      L1  H    18    37       P1 10769  0.90

> <Gold.PLP.Chemscore.Internal.Correction>
0.0248

> <Gold.Rescore>
     Score         DG    S(hbond)    S(metal)    S(lipo)     H(rot)  DE(clash)    DE(int)     intcor
     15.62     -16.89       2.40        0.00      71.78       1.96       0.10       1.16       ----

> <Gold.Chemscore.Fitness>
15.6204

> <Gold.Chemscore.DG>
-16.8854

> <Gold.Chemscore.ZeroCoef>
-5.4800

> <Gold.Chemscore.Hbond>
2.4039

> <Gold.Chemscore.Metal>
0.0000

> <Gold.Chemscore.Lipo>
71.7798

> <Gold.Chemscore.Internal_Hbond>
0.0000

> <Gold.Chemscore.DEClash>
0.1044

> <Gold.Chemscore.DEInternal>
1.1606

> <Gold.Chemscore.Rot>
1.9617

> <Gold.Chemscore.Internal.Correction>
   9.000000E+99

> <Gold.Chemscore.Hbonds>
donor molecule, donor type, donor heavy atom, donor atom, acceptor molecule, acceptor atom, score
      L1  H    11    32       P1 10747  0.74
      L1  H    18    36       P1 10722  0.66
      L1  H    18    37       P1 10769  0.84

> <Gold.Chemscore.Hbond.Weighted>
-8.0292

> <Gold.Chemscore.Metal.Weighted>
-0.0000

> <Gold.Chemscore.Lipo.Weighted>
-8.3982

> <Gold.Chemscore.Internal_Hbond.Weighted>
0.0000

> <Gold.Chemscore.DEClash.Weighted>
0.1044

> <Gold.Chemscore.DEInternal.Weighted>
1.1606

> <Gold.Chemscore.Rot.Weighted>
5.0220

> <Gold.Chemscore.Internal.Correction.Weighted>
   9.000000E+99

> <Gold.Protein.RotatedTorsions>
[ 6907 6896 6895 6894 ] final   67.87 input  -60.11 | X-H torsion
[ 7974 7965 7964 7962 ] final  -91.77 input  175.53 | X-H torsion
[ 8008 7997 7996 7995 ] final -135.76 input   59.86 | X-H torsion
[ 10167 10162 10161 10158 ] final -157.24 input  -65.29 | X-H torsion
[ 10718 10713 10712 10709 ] final  -89.34 input   66.30 | X-H torsion
[ 10763 10752 10751 10750 ] final  178.51 input  -60.55 | X-H torsion
[ 11005 11000 10999 10996 ] final  -33.03 input  -57.11 | X-H torsion

> <Gold.Protein.ActiveResidues>
 VAL166  LYS551  ARG553  GLY616  TRP617  ASP618  TYR619  PRO620  LYS621  CYS622 
 ASP623  PHE694  ASN695  SER759  ASP760  ASP761  ALA762  ILE779  LEU786  VAL792 
 PHE793  MET794  SER795  GLU796  ALA797  LYS798  CYS799  TRP800  GLU811  SER814 

> <Gold.Protein.RotatedAtoms>
  152.4581  134.5245  159.9792 H   0  0  0  0  0  0  0  0  0  0  0  0  # atno 6907 bound_to 6896
  151.5301  133.3445  159.2924 H   0  0  0  0  0  0  0  0  0  0  0  0  # atno 6908 bound_to 6896
  150.8534  134.7895  159.7089 H   0  0  0  0  0  0  0  0  0  0  0  0  # atno 6909 bound_to 6896
  145.4086  140.9543  143.2246 H   0  0  0  0  0  0  0  0  0  0  0  0  # atno 7974 bound_to 7965
  155.3840  140.0496  157.3043 H   0  0  0  0  0  0  0  0  0  0  0  0  # atno 8008 bound_to 7997
  154.5068  140.2177  155.9196 H   0  0  0  0  0  0  0  0  0  0  0  0  # atno 8009 bound_to 7997
  156.1536  140.3131  155.8693 H   0  0  0  0  0  0  0  0  0  0  0  0  # atno 8010 bound_to 7997
  139.6786  143.9620  152.2324 H   0  0  0  0  0  0  0  0  0  0  0  0  # atno 10167 bound_to 10162
  155.9984  130.4868  150.5156 H   0  0  0  0  0  0  0  0  0  0  0  0  # atno 10718 bound_to 10713
  154.5086  135.2787  155.1361 H   0  0  0  0  0  0  0  0  0  0  0  0  # atno 10763 bound_to 10752
  154.2966  135.6256  153.5411 H   0  0  0  0  0  0  0  0  0  0  0  0  # atno 10764 bound_to 10752
  152.9914  135.5687  154.5546 H   0  0  0  0  0  0  0  0  0  0  0  0  # atno 10765 bound_to 10752
  140.9601  133.7169  156.1356 H   0  0  0  0  0  0  0  0  0  0  0  0  # atno 11005 bound_to 11000
  144.8324  139.5606  143.6937 LP  0  0  0  0  0  0  0  0  0  0  0  0  # atno 17320 bound_to 7965
  146.2716  139.6649  142.9292 LP  0  0  0  0  0  0  0  0  0  0  0  0  # atno 17321 bound_to 7965
  139.9404  144.6685  150.8272 LP  0  0  0  0  0  0  0  0  0  0  0  0  # atno 17342 bound_to 10162
  140.7644  143.3248  151.2540 LP  0  0  0  0  0  0  0  0  0  0  0  0  # atno 17343 bound_to 10162
  157.3124  131.0666  151.1991 LP  0  0  0  0  0  0  0  0  0  0  0  0  # atno 17370 bound_to 10713
  157.2933  130.6807  149.6125 LP  0  0  0  0  0  0  0  0  0  0  0  0  # atno 17371 bound_to 10713
  140.7479  134.4077  157.5545 LP  0  0  0  0  0  0  0  0  0  0  0  0  # atno 17394 bound_to 11000
  139.8875  134.8880  156.2524 LP  0  0  0  0  0  0  0  0  0  0  0  0  # atno 17395 bound_to 11000

$$$$
