AV-unprocessed.smi:3003|AV-procd|sdf|11437|dock7
  -GOLD-   2272016363D 1   1.00000     0.00000
 Structure written by MMmdl.
 41 42  0  0  0  0  0  0  0  0  1 V2000
  142.7462  144.6998  160.4417 C   0  0  0  0  0  0  0  0  0  0  0  0
  144.1761  143.6682  160.8652 S   0  0  0  0  0  0  0  0  0  0  0  0
  145.3744  144.2001  159.6050 C   0  0  2  0  0  0  0  0  0  0  0  0
  144.9395  143.7027  158.2176 C   0  0  0  0  0  0  0  0  0  0  0  0
  146.7977  143.7328  159.9325 C   0  0  0  0  0  0  0  0  0  0  0  0
  147.0062  143.0135  160.9103 O   0  0  0  0  0  0  0  0  0  0  0  0
  147.7722  144.1604  159.1142 N   0  0  0  0  0  0  0  0  0  0  0  0
  149.1891  143.8536  159.2756 C   0  0  0  0  0  0  0  0  0  0  0  0
  149.6648  142.7246  158.3763 C   0  0  0  0  0  0  0  0  0  0  0  0
  151.0244  142.3598  158.3146 C   0  0  0  0  0  0  0  0  0  0  0  0
  151.4107  141.3037  157.4678 C   0  0  0  0  0  0  0  0  0  0  0  0
  150.4260  140.6412  156.6965 C   0  0  0  0  0  0  0  0  0  0  0  0
  150.7895  139.5789  155.8402 N   0  0  0  0  0  0  0  0  0  0  0  0
  150.0620  138.3272  156.0360 C   0  0  0  0  0  0  0  0  0  0  0  0
  150.3186  137.3692  154.8600 C   0  0  0  0  0  0  0  0  0  0  0  0
  151.7188  137.1735  154.6930 O   0  0  0  0  0  0  0  0  0  0  0  0
  152.3915  138.3915  154.3930 C   0  0  0  0  0  0  0  0  0  0  0  0
  152.2098  139.3836  155.5539 C   0  0  0  0  0  0  0  0  0  0  0  0
  149.1187  140.9972  156.7596 N   0  0  0  0  0  0  0  0  0  0  0  0
  148.7536  142.0099  157.5736 C   0  0  0  0  0  0  0  0  0  0  0  0
  141.9003  144.4460  161.0802 H   0  0  0  0  0  0  0  0  0  0  0  0
  142.4544  144.5427  159.4035 H   0  0  0  0  0  0  0  0  0  0  0  0
  142.9769  145.7544  160.5856 H   0  0  0  0  0  0  0  0  0  0  0  0
  145.3575  145.2908  159.5862 H   0  0  0  0  0  0  0  0  0  0  0  0
  145.6462  144.0095  157.4456 H   0  0  0  0  0  0  0  0  0  0  0  0
  143.9644  144.1098  157.9476 H   0  0  0  0  0  0  0  0  0  0  0  0
  144.8618  142.6150  158.1865 H   0  0  0  0  0  0  0  0  0  0  0  0
  147.5158  144.7469  158.3332 H   0  0  0  0  0  0  0  0  0  0  0  0
  149.7874  144.7507  159.1071 H   0  0  0  0  0  0  0  0  0  0  0  0
  149.3589  143.5608  160.3119 H   0  0  0  0  0  0  0  0  0  0  0  0
  151.7630  142.8763  158.9099 H   0  0  0  0  0  0  0  0  0  0  0  0
  152.4481  141.0070  157.4321 H   0  0  0  0  0  0  0  0  0  0  0  0
  150.3955  137.8695  156.9684 H   0  0  0  0  0  0  0  0  0  0  0  0
  148.9896  138.4915  156.1305 H   0  0  0  0  0  0  0  0  0  0  0  0
  149.8462  136.4058  155.0515 H   0  0  0  0  0  0  0  0  0  0  0  0
  149.8824  137.7592  153.9388 H   0  0  0  0  0  0  0  0  0  0  0  0
  153.4504  138.1840  154.2395 H   0  0  0  0  0  0  0  0  0  0  0  0
  152.0105  138.8102  153.4601 H   0  0  0  0  0  0  0  0  0  0  0  0
  152.6778  140.3337  155.2929 H   0  0  0  0  0  0  0  0  0  0  0  0
  152.7097  139.0073  156.4475 H   0  0  0  0  0  0  0  0  0  0  0  0
  147.7012  142.2520  157.5851 H   0  0  0  0  0  0  0  0  0  0  0  0
  1  2  1  0  0  0  0
  1 21  1  0  0  0  0
  1 22  1  0  0  0  0
  1 23  1  0  0  0  0
  2  3  1  0  0  0  0
  3  4  1  0  0  0  0
  3  5  1  0  0  0  0
  3 24  1  0  0  0  0
  4 25  1  0  0  0  0
  4 26  1  0  0  0  0
  4 27  1  0  0  0  0
  5  6  2  0  0  0  0
  5  7  1  0  0  0  0
  7  8  1  0  0  0  0
  7 28  1  0  0  0  0
  8  9  1  0  0  0  0
  8 29  1  0  0  0  0
  8 30  1  0  0  0  0
  9 20  1  0  0  0  0
  9 10  2  0  0  0  0
 10 11  1  0  0  0  0
 10 31  1  0  0  0  0
 11 12  2  0  0  0  0
 11 32  1  0  0  0  0
 12 13  1  0  0  0  0
 12 19  1  0  0  0  0
 13 18  1  0  0  0  0
 13 14  1  0  0  0  0
 14 15  1  0  0  0  0
 14 33  1  0  0  0  0
 14 34  1  0  0  0  0
 15 16  1  0  0  0  0
 15 35  1  0  0  0  0
 15 36  1  0  0  0  0
 16 17  1  0  0  0  0
 17 18  1  0  0  0  0
 17 37  1  0  0  0  0
 17 38  1  0  0  0  0
 18 39  1  0  0  0  0
 18 40  1  0  0  0  0
 19 20  2  0  0  0  0
 20 41  1  0  0  0  0
M  END
> <s_m_source_file>
AV-unprocessed.smi

> <i_m_source_file_index>
3003

> <i_lp_mmshare_version>
43012

> <i_f3d_flags>
0

> <s_epik_input>
W0NIM11TW0NASF0oW0NIM10pQyg9TylbTkhdW0NIMl1jMVtjSF1bY0hdYyhuW2NIXTEpTjJbQ0gyXVtDSDJdT1tDSDJdW0NIMl0y

> <s_epik_cmdline>
J2VwaWtfcHl0aG9uJywgJy1waCcsICc3LjAnLCAnLXRuJywgJzgnLCAnLW1hJywgJzIwMCcsICctbWV0YWxfYmluZGluZycsICctaW1hZScsICc8aW5maWxlLm1hZT4nLCAnLW9tYWUnLCAnPG91dGZpbGUubWFlPic=

> <r_lp_tautomer_probability>
1

> <r_epik_Ionization_Penalty>
0.00417642

> <r_epik_Ionization_Penalty_Charging>
0

> <r_epik_Ionization_Penalty_Neutral>
0.00417642

> <r_epik_State_Penalty>
0.00299889

> <r_epik_Charging_Adjusted_Penalty>
0.00299889

> <i_epik_Tot_Q>
0

> <i_epik_Tot_abs_Q>
0

> <r_epik_Metal_State_Penalty>
-0

> <b_epik_Metal_Only>
0

> <s_lp_Force_Field>
OPLS_2005

> <r_lp_Energy>
16.2796

> <b_lp_Chiralities_Consistent>
1

> <s_lp_Variant>
AV-unprocessed.smi:3003-1

> <Gold.Version>
5.8.1

> <Gold.Id.Protein>
6NUR|6NUR_protein|mol2

> <Gold.PLP.Fitness>
35.6392

> <Gold.PLP.PLP>
-25.6093

> <Gold.PLP.part.hbond>
-4.0000

> <Gold.PLP.part.metal>
0.0000

> <Gold.PLP.part.buried>
-5.2872

> <Gold.PLP.part.nonpolar>
-17.7913

> <Gold.PLP.part.repulsive>
0.3263

> <Gold.PLP.ligand.clash>
0.0000

> <Gold.PLP.ligand.torsion>
0.4466

> <Gold.PLP.Chemscore.Hbond>
3.5148

> <Gold.PLP.Chemscore.CHOScore>
0.0000

> <Gold.PLP.Chemscore.Metal>
0.0000

> <Gold.Chemscore.Hbonds>
donor molecule, donor type, donor heavy atom, donor atom, acceptor molecule, acceptor atom, score
      L1  H     7    28       P1  8029  1.00
      P1  H  6933  6944       L1     6  1.00
      P1  H  6934  6946       L1     6  0.51
      P1  H 10752 10765       L1    16  1.00

> <Gold.PLP.Chemscore.Internal.Correction>
0.3786

> <Gold.Rescore>
     Score         DG    S(hbond)    S(metal)    S(lipo)     H(rot)  DE(clash)    DE(int)     intcor
     19.52     -20.22       3.51        0.00      62.18       1.67       0.04       0.66       ----

> <Gold.Chemscore.Fitness>
19.5207

> <Gold.Chemscore.DG>
-20.2183

> <Gold.Chemscore.ZeroCoef>
-5.4800

> <Gold.Chemscore.Hbond>
3.5132

> <Gold.Chemscore.Metal>
0.0000

> <Gold.Chemscore.Lipo>
62.1776

> <Gold.Chemscore.Internal_Hbond>
0.0000

> <Gold.Chemscore.DEClash>
0.0384

> <Gold.Chemscore.DEInternal>
0.6591

> <Gold.Chemscore.Rot>
1.6682

> <Gold.Chemscore.Internal.Correction>
   9.000000E+99

> <Gold.Chemscore.Hbonds>
donor molecule, donor type, donor heavy atom, donor atom, acceptor molecule, acceptor atom, score
      L1  H     7    28       P1  8029  0.91
      P1  H  6933  6944       L1     6  0.96
      P1  H  6934  6946       L1     6  0.50
      P1  H 10752 10765       L1    16  0.75

> <Gold.Chemscore.Hbond.Weighted>
-11.7342

> <Gold.Chemscore.Metal.Weighted>
-0.0000

> <Gold.Chemscore.Lipo.Weighted>
-7.2748

> <Gold.Chemscore.Internal_Hbond.Weighted>
0.0000

> <Gold.Chemscore.DEClash.Weighted>
0.0384

> <Gold.Chemscore.DEInternal.Weighted>
0.6591

> <Gold.Chemscore.Rot.Weighted>
4.2707

> <Gold.Chemscore.Internal.Correction.Weighted>
   9.000000E+99

> <Gold.Protein.RotatedTorsions>
[ 6907 6896 6895 6894 ] final  -59.32 input  -60.11 | X-H torsion
[ 7974 7965 7964 7962 ] final   17.13 input  175.53 | X-H torsion
[ 8008 7997 7996 7995 ] final -129.16 input   59.86 | X-H torsion
[ 10167 10162 10161 10158 ] final  -97.93 input  -65.29 | X-H torsion
[ 10718 10713 10712 10709 ] final   99.98 input   66.30 | X-H torsion
[ 10763 10752 10751 10750 ] final  173.76 input  -60.55 | X-H torsion
[ 11005 11000 10999 10996 ] final   98.96 input  -57.11 | X-H torsion

> <Gold.Protein.ActiveResidues>
 VAL166  LYS551  ARG553  GLY616  TRP617  ASP618  TYR619  PRO620  LYS621  CYS622 
 ASP623  PHE694  ASN695  SER759  ASP760  ASP761  ALA762  ILE779  LEU786  VAL792 
 PHE793  MET794  SER795  GLU796  ALA797  LYS798  CYS799  TRP800  GLU811  SER814 

> <Gold.Protein.RotatedAtoms>
  150.7939  134.6984  159.6535 H   0  0  0  0  0  0  0  0  0  0  0  0  # atno 6907 bound_to 6896
  152.4049  134.6221  160.0063 H   0  0  0  0  0  0  0  0  0  0  0  0  # atno 6908 bound_to 6896
  151.6481  133.3285  159.3182 H   0  0  0  0  0  0  0  0  0  0  0  0  # atno 6909 bound_to 6896
  146.2228  139.8647  142.8598 H   0  0  0  0  0  0  0  0  0  0  0  0  # atno 7974 bound_to 7965
  155.2746  140.0441  157.3010 H   0  0  0  0  0  0  0  0  0  0  0  0  # atno 8008 bound_to 7997
  154.5633  140.2352  155.8271 H   0  0  0  0  0  0  0  0  0  0  0  0  # atno 8009 bound_to 7997
  156.2065  140.3011  155.9645 H   0  0  0  0  0  0  0  0  0  0  0  0  # atno 8010 bound_to 7997
  140.2783  143.3299  152.0467 H   0  0  0  0  0  0  0  0  0  0  0  0  # atno 10167 bound_to 10162
  157.6864  131.0685  150.5031 H   0  0  0  0  0  0  0  0  0  0  0  0  # atno 10718 bound_to 10713
  154.4445  135.2763  155.1825 H   0  0  0  0  0  0  0  0  0  0  0  0  # atno 10763 bound_to 10752
  154.3677  135.6115  153.5727 H   0  0  0  0  0  0  0  0  0  0  0  0  # atno 10764 bound_to 10752
  152.9843  135.5850  154.4778 H   0  0  0  0  0  0  0  0  0  0  0  0  # atno 10765 bound_to 10752
  139.8771  134.9073  156.4534 H   0  0  0  0  0  0  0  0  0  0  0  0  # atno 11005 bound_to 11000
  145.2668  141.0095  143.3794 LP  0  0  0  0  0  0  0  0  0  0  0  0  # atno 17320 bound_to 7965
  144.9255  139.4361  143.6520 LP  0  0  0  0  0  0  0  0  0  0  0  0  # atno 17321 bound_to 7965
  139.4969  144.6609  151.6466 LP  0  0  0  0  0  0  0  0  0  0  0  0  # atno 17342 bound_to 10162
  140.5833  143.9908  150.6281 LP  0  0  0  0  0  0  0  0  0  0  0  0  # atno 17343 bound_to 10162
  156.5352  130.4194  149.6181 LP  0  0  0  0  0  0  0  0  0  0  0  0  # atno 17370 bound_to 10713
  156.3034  130.7189  151.2066 LP  0  0  0  0  0  0  0  0  0  0  0  0  # atno 17371 bound_to 10713
  140.8915  133.7844  155.9578 LP  0  0  0  0  0  0  0  0  0  0  0  0  # atno 17394 bound_to 11000
  140.8748  134.2683  157.5173 LP  0  0  0  0  0  0  0  0  0  0  0  0  # atno 17395 bound_to 11000

$$$$
