AV-unprocessed.smi:1579|AV-procd|sdf|6355|dock4
  -GOLD-   22720 6573D 1   1.00000     0.00000
 Structure written by MMmdl.
 47 48  0  0  0  0  0  0  0  0  2 V2000
  148.7361  142.3220  157.6954 C   0  0  0  0  0  0  0  0  0  0  0  0
  149.2335  141.3411  156.6682 C   0  0  0  0  0  0  0  0  0  0  0  0
  148.3875  140.9664  155.7652 N   0  0  0  0  0  0  0  0  0  0  0  0
  148.7421  140.0721  154.7751 N   0  0  0  0  0  0  0  0  0  0  0  0
  147.6577  139.7601  153.8361 C   0  0  0  0  0  0  0  0  0  0  0  0
  147.2298  138.2780  153.9149 C   0  0  1  0  0  0  0  0  0  0  0  0
  146.5729  138.0732  155.1506 O   0  0  0  0  0  0  0  0  0  0  0  0
  146.2328  137.9148  152.7956 C   0  0  0  0  0  0  0  0  0  0  0  0
  146.3440  136.4946  152.3741 N   0  3  2  0  0  0  0  0  0  0  0  0
  145.4212  136.1349  151.2647 C   0  0  0  0  0  0  0  0  0  0  0  0
  145.6791  134.7003  150.7745 C   0  0  0  0  0  0  0  0  0  0  0  0
  145.5557  133.6856  151.9237 C   0  0  1  0  0  0  0  0  0  0  0  0
  145.8465  132.2544  151.4511 C   0  0  0  0  0  0  0  0  0  0  0  0
  146.4877  134.1055  153.0728 C   0  0  0  0  0  0  0  0  0  0  0  0
  146.2138  135.5529  153.5152 C   0  0  0  0  0  0  0  0  0  0  0  0
  149.9751  139.5031  154.6468 C   0  0  0  0  0  0  0  0  0  0  0  0
  150.2419  138.6990  153.7521 O   0  0  0  0  0  0  0  0  0  0  0  0
  150.9288  139.9320  155.6719 C   0  0  0  0  0  0  0  0  0  0  0  0
  152.2345  139.3636  155.5721 C   0  0  0  0  0  0  0  0  0  0  0  0
  153.3008  138.9195  155.4971 N   0  0  0  0  0  0  0  0  0  0  0  0
  150.5925  140.8089  156.6507 C   0  0  0  0  0  0  0  0  0  0  0  0
  151.5459  141.2844  157.7385 C   0  0  0  0  0  0  0  0  0  0  0  0
  149.3844  143.1971  157.7429 H   0  0  0  0  0  0  0  0  0  0  0  0
  148.7114  141.8647  158.6848 H   0  0  0  0  0  0  0  0  0  0  0  0
  147.7283  142.6731  157.4685 H   0  0  0  0  0  0  0  0  0  0  0  0
  146.7994  140.4170  153.9927 H   0  0  0  0  0  0  0  0  0  0  0  0
  148.0027  139.9930  152.8270 H   0  0  0  0  0  0  0  0  0  0  0  0
  148.1047  137.6309  153.8656 H   0  0  0  0  0  0  0  0  0  0  0  0
  145.6790  138.3708  155.0687 H   0  0  0  0  0  0  0  0  0  0  0  0
  145.2223  138.1201  153.1531 H   0  0  0  0  0  0  0  0  0  0  0  0
  146.3808  138.5556  151.9249 H   0  0  0  0  0  0  0  0  0  0  0  0
  144.3882  136.2350  151.6016 H   0  0  0  0  0  0  0  0  0  0  0  0
  145.5449  136.8200  150.4269 H   0  0  0  0  0  0  0  0  0  0  0  0
  144.9737  134.4527  149.9802 H   0  0  0  0  0  0  0  0  0  0  0  0
  146.6750  134.6413  150.3326 H   0  0  0  0  0  0  0  0  0  0  0  0
  144.5289  133.7116  152.2919 H   0  0  0  0  0  0  0  0  0  0  0  0
  146.8623  132.1619  151.0652 H   0  0  0  0  0  0  0  0  0  0  0  0
  145.1607  131.9560  150.6578 H   0  0  0  0  0  0  0  0  0  0  0  0
  145.7348  131.5411  152.2681 H   0  0  0  0  0  0  0  0  0  0  0  0
  146.3614  133.4327  153.9218 H   0  0  0  0  0  0  0  0  0  0  0  0
  147.5285  134.0127  152.7585 H   0  0  0  0  0  0  0  0  0  0  0  0
  146.9214  135.8241  154.2997 H   0  0  0  0  0  0  0  0  0  0  0  0
  145.2147  135.6346  153.9460 H   0  0  0  0  0  0  0  0  0  0  0  0
  152.4927  140.7455  157.7208 H   0  0  0  0  0  0  0  0  0  0  0  0
  151.1098  141.1386  158.7274 H   0  0  0  0  0  0  0  0  0  0  0  0
  151.7664  142.3449  157.6124 H   0  0  0  0  0  0  0  0  0  0  0  0
  147.2855  136.3814  152.0256 H   0  0  0  0  0  0  0  0  0  0  0  0
  1  2  1  0  0  0  0
  1 23  1  0  0  0  0
  1 24  1  0  0  0  0
  1 25  1  0  0  0  0
  2 21  1  0  0  0  0
  2  3  2  0  0  0  0
  3  4  1  0  0  0  0
  4  5  1  0  0  0  0
  4 16  1  0  0  0  0
  5  6  1  0  0  0  0
  5 26  1  0  0  0  0
  5 27  1  0  0  0  0
  6  7  1  0  0  0  0
  6  8  1  0  0  0  0
  6 28  1  0  0  0  0
  7 29  1  0  0  0  0
  8  9  1  0  0  0  0
  8 30  1  0  0  0  0
  8 31  1  0  0  0  0
  9 15  1  0  0  0  0
  9 10  1  0  0  0  0
  9 47  1  0  0  0  0
 10 11  1  0  0  0  0
 10 32  1  0  0  0  0
 10 33  1  0  0  0  0
 11 12  1  0  0  0  0
 11 34  1  0  0  0  0
 11 35  1  0  0  0  0
 12 13  1  0  0  0  0
 12 14  1  0  0  0  0
 12 36  1  0  0  0  0
 13 37  1  0  0  0  0
 13 38  1  0  0  0  0
 13 39  1  0  0  0  0
 14 15  1  0  0  0  0
 14 40  1  0  0  0  0
 14 41  1  0  0  0  0
 15 42  1  0  0  0  0
 15 43  1  0  0  0  0
 16 17  2  0  0  0  0
 16 18  1  0  0  0  0
 18 19  1  0  0  0  0
 18 21  2  0  0  0  0
 19 20  3  0  0  0  0
 21 22  1  0  0  0  0
 22 44  1  0  0  0  0
 22 45  1  0  0  0  0
 22 46  1  0  0  0  0
M  CHG  1   9   1
M  END
> <s_m_source_file>
AV-unprocessed.smi

> <i_m_source_file_index>
1579

> <i_lp_mmshare_version>
43012

> <i_f3d_flags>
0

> <s_epik_input>
TiNDYyhjMVtDSDNdKWMoPU8pbihuYzFbQ0gzXSlbQ0gyXVtDQEhdKFtPSF0pW0NIMl1OMltDSDJdW0NIMl1bQ0hdKFtDSDNdKVtDSDJdW0NIMl0y

> <s_epik_cmdline>
J2VwaWtfcHl0aG9uJywgJy1waCcsICc3LjAnLCAnLXRuJywgJzgnLCAnLW1hJywgJzIwMCcsICctbWV0YWxfYmluZGluZycsICctaW1hZScsICc8aW5maWxlLm1hZT4nLCAnLW9tYWUnLCAnPG91dGZpbGUubWFlPic=

> <r_epik_Ionization_Penalty>
0.00136816

> <r_epik_Ionization_Penalty_Charging>
0.00136813

> <r_epik_Ionization_Penalty_Neutral>
3.19884e-08

> <r_epik_State_Penalty>
0.000910892

> <r_epik_Charging_Adjusted_Penalty>
0.00227902

> <i_epik_Tot_Q>
1

> <i_epik_Tot_abs_Q>
1

> <r_epik_Metal_State_Penalty>
-0

> <b_epik_Metal_Only>
0

> <s_lp_Force_Field>
OPLS_2005

> <r_lp_Energy>
37.5904

> <b_lp_Chiralities_Consistent>
1

> <s_lp_Variant>
AV-unprocessed.smi:1579-2

> <Gold.Version>
5.8.1

> <Gold.Id.Protein>
6NUR|6NUR_protein|mol2

> <Gold.PLP.Fitness>
41.0472

> <Gold.PLP.PLP>
-32.9659

> <Gold.PLP.part.hbond>
-2.0000

> <Gold.PLP.part.metal>
0.0000

> <Gold.PLP.part.buried>
-4.4206

> <Gold.PLP.part.nonpolar>
-28.0309

> <Gold.PLP.part.repulsive>
1.3115

> <Gold.PLP.ligand.clash>
0.0000

> <Gold.PLP.ligand.torsion>
0.4714

> <Gold.PLP.Chemscore.Hbond>
3.0000

> <Gold.PLP.Chemscore.CHOScore>
0.0000

> <Gold.PLP.Chemscore.Metal>
0.0000

> <Gold.Chemscore.Hbonds>
donor molecule, donor type, donor heavy atom, donor atom, acceptor molecule, acceptor atom, score
      L1  H     9    47       P1  7948  2.00
      P1  H  7997  8010       L1    20  1.00

> <Gold.PLP.Chemscore.Internal.Correction>
0.0242

> <Gold.Rescore>
     Score         DG    S(hbond)    S(metal)    S(lipo)     H(rot)  DE(clash)    DE(int)     intcor
     13.36     -14.61       1.97        0.00      69.35       2.17       0.12       1.13       ----

> <Gold.Chemscore.Fitness>
13.3579

> <Gold.Chemscore.DG>
-14.6111

> <Gold.Chemscore.ZeroCoef>
-5.4800

> <Gold.Chemscore.Hbond>
1.9690

> <Gold.Chemscore.Metal>
0.0000

> <Gold.Chemscore.Lipo>
69.3479

> <Gold.Chemscore.Internal_Hbond>
0.0000

> <Gold.Chemscore.DEClash>
0.1204

> <Gold.Chemscore.DEInternal>
1.1328

> <Gold.Chemscore.Rot>
2.1715

> <Gold.Chemscore.Internal.Correction>
   9.000000E+99

> <Gold.Chemscore.Hbonds>
donor molecule, donor type, donor heavy atom, donor atom, acceptor molecule, acceptor atom, score
      L1  H     9    47       P1  7948  1.00
      P1  H  7997  8010       L1    20  0.59

> <Gold.Chemscore.Hbond.Weighted>
-6.5765

> <Gold.Chemscore.Metal.Weighted>
-0.0000

> <Gold.Chemscore.Lipo.Weighted>
-8.1137

> <Gold.Chemscore.Internal_Hbond.Weighted>
0.0000

> <Gold.Chemscore.DEClash.Weighted>
0.1204

> <Gold.Chemscore.DEInternal.Weighted>
1.1328

> <Gold.Chemscore.Rot.Weighted>
5.5591

> <Gold.Chemscore.Internal.Correction.Weighted>
   9.000000E+99

> <Gold.Protein.RotatedTorsions>
[ 6907 6896 6895 6894 ] final -175.52 input  -60.11 | X-H torsion
[ 7974 7965 7964 7962 ] final -115.91 input  175.53 | X-H torsion
[ 8008 7997 7996 7995 ] final   96.66 input   59.86 | X-H torsion
[ 10167 10162 10161 10158 ] final -143.55 input  -65.29 | X-H torsion
[ 10718 10713 10712 10709 ] final  -32.07 input   66.30 | X-H torsion
[ 10763 10752 10751 10750 ] final  -51.82 input  -60.55 | X-H torsion
[ 11005 11000 10999 10996 ] final  114.24 input  -57.11 | X-H torsion

> <Gold.Protein.ActiveResidues>
 VAL166  LYS551  ARG553  GLY616  TRP617  ASP618  TYR619  PRO620  LYS621  CYS622 
 ASP623  PHE694  ASN695  SER759  ASP760  ASP761  ALA762  ILE779  LEU786  VAL792 
 PHE793  MET794  SER795  GLU796  ALA797  LYS798  CYS799  TRP800  GLU811  SER814 

> <Gold.Protein.RotatedAtoms>
  151.5899  133.3368  159.3025 H   0  0  0  0  0  0  0  0  0  0  0  0  # atno 6907 bound_to 6896
  150.8266  134.7503  159.6829 H   0  0  0  0  0  0  0  0  0  0  0  0  # atno 6908 bound_to 6896
  152.4354  134.5702  159.9970 H   0  0  0  0  0  0  0  0  0  0  0  0  # atno 6909 bound_to 6896
  145.1029  140.8563  143.3915 H   0  0  0  0  0  0  0  0  0  0  0  0  # atno 7974 bound_to 7965
  156.0820  140.3269  155.7706 H   0  0  0  0  0  0  0  0  0  0  0  0  # atno 8008 bound_to 7997
  155.5137  140.0579  157.2936 H   0  0  0  0  0  0  0  0  0  0  0  0  # atno 8009 bound_to 7997
  154.4587  140.1956  156.0321 H   0  0  0  0  0  0  0  0  0  0  0  0  # atno 8010 bound_to 7997
  139.7982  143.7870  152.2656 H   0  0  0  0  0  0  0  0  0  0  0  0  # atno 10167 bound_to 10162
  156.3794  130.4353  149.7481 H   0  0  0  0  0  0  0  0  0  0  0  0  # atno 10718 bound_to 10713
  154.1327  135.6517  153.4925 H   0  0  0  0  0  0  0  0  0  0  0  0  # atno 10763 bound_to 10752
  153.0190  135.5296  154.6985 H   0  0  0  0  0  0  0  0  0  0  0  0  # atno 10764 bound_to 10752
  154.6224  135.2966  155.0281 H   0  0  0  0  0  0  0  0  0  0  0  0  # atno 10765 bound_to 10752
  139.8975  134.9564  156.6862 H   0  0  0  0  0  0  0  0  0  0  0  0  # atno 11005 bound_to 11000
  145.0935  139.2873  143.5723 LP  0  0  0  0  0  0  0  0  0  0  0  0  # atno 17320 bound_to 7965
  146.3529  140.0480  142.8638 LP  0  0  0  0  0  0  0  0  0  0  0  0  # atno 17321 bound_to 7965
  139.7982  144.7384  150.9861 LP  0  0  0  0  0  0  0  0  0  0  0  0  # atno 17342 bound_to 10162
  140.7820  143.4372  151.0606 LP  0  0  0  0  0  0  0  0  0  0  0  0  # atno 17343 bound_to 10162
  156.4577  130.7937  151.2957 LP  0  0  0  0  0  0  0  0  0  0  0  0  # atno 17370 bound_to 10713
  157.7491  131.0075  150.3194 LP  0  0  0  0  0  0  0  0  0  0  0  0  # atno 17371 bound_to 10713
  140.7261  133.9099  155.8179 LP  0  0  0  0  0  0  0  0  0  0  0  0  # atno 17394 bound_to 11000
  141.0190  134.0916  157.4141 LP  0  0  0  0  0  0  0  0  0  0  0  0  # atno 17395 bound_to 11000

$$$$
