AV-unprocessed.smi:1836|AV-procd|sdf|7479|dock4
  -GOLD-   22720 9173D 1   1.00000     0.00000
 Structure written by MMmdl.
 32 33  0  0  0  0  0  0  0  0  2 V2000
  150.0177  144.4392  159.2544 C   0  0  0  0  0  0  0  0  0  0  0  0
  149.8504  142.9841  158.7958 C   0  0  2  0  0  0  0  0  0  0  0  0
  151.1357  142.4660  158.1096 C   0  0  0  0  0  0  0  0  0  0  0  0
  152.1151  141.9515  159.0660 N   0  0  0  0  0  0  0  0  0  0  0  0
  152.3860  142.6606  160.3062 C   0  0  0  0  0  0  0  0  0  0  0  0
  153.6655  142.0151  160.8540 C   0  0  0  0  0  0  0  0  0  0  0  0
  153.8018  140.6818  160.1113 C   0  0  0  0  0  0  0  0  0  0  0  0
  152.8474  140.8383  158.9392 C   0  0  0  0  0  0  0  0  0  0  0  0
  152.7915  140.0328  158.0109 O   0  0  0  0  0  0  0  0  0  0  0  0
  148.7165  142.9162  157.8736 N   0  0  0  0  0  0  0  0  0  0  0  0
  147.5125  142.3827  158.1302 C   0  0  0  0  0  0  0  0  0  0  0  0
  147.2625  141.9295  159.2495 O   0  0  0  0  0  0  0  0  0  0  0  0
  146.6784  142.3853  157.0662 N   0  5  0  0  0  0  0  0  0  0  0  0
  147.0752  141.8354  155.9067 C   0  0  0  0  0  0  0  0  0  0  0  0
  147.9913  140.8557  155.8514 N   0  0  0  0  0  0  0  0  0  0  0  0
  148.2569  140.4297  154.5568 N   0  0  0  0  0  0  0  0  0  0  0  0
  147.5245  141.0973  153.6657 C   0  0  0  0  0  0  0  0  0  0  0  0
  146.4417  142.3044  154.3259 S   0  0  0  0  0  0  0  0  0  0  0  0
  150.8369  144.5333  159.9676 H   0  0  0  0  0  0  0  0  0  0  0  0
  149.1136  144.8029  159.7437 H   0  0  0  0  0  0  0  0  0  0  0  0
  150.2309  145.0998  158.4132 H   0  0  0  0  0  0  0  0  0  0  0  0
  149.6454  142.3912  159.6887 H   0  0  0  0  0  0  0  0  0  0  0  0
  150.8908  141.6934  157.3791 H   0  0  0  0  0  0  0  0  0  0  0  0
  151.6055  143.2739  157.5465 H   0  0  0  0  0  0  0  0  0  0  0  0
  152.5114  143.7319  160.1437 H   0  0  0  0  0  0  0  0  0  0  0  0
  151.5499  142.5149  160.9910 H   0  0  0  0  0  0  0  0  0  0  0  0
  154.5245  142.6496  160.6302 H   0  0  0  0  0  0  0  0  0  0  0  0
  153.6242  141.8842  161.9357 H   0  0  0  0  0  0  0  0  0  0  0  0
  154.8228  140.4997  159.7745 H   0  0  0  0  0  0  0  0  0  0  0  0
  153.4797  139.8449  160.7314 H   0  0  0  0  0  0  0  0  0  0  0  0
  148.8682  143.2776  156.9433 H   0  0  0  0  0  0  0  0  0  0  0  0
  147.6203  140.8756  152.6133 H   0  0  0  0  0  0  0  0  0  0  0  0
  1  2  1  0  0  0  0
  1 19  1  0  0  0  0
  1 20  1  0  0  0  0
  1 21  1  0  0  0  0
  2  3  1  0  0  0  0
  2 10  1  0  0  0  0
  2 22  1  0  0  0  0
  3  4  1  0  0  0  0
  3 23  1  0  0  0  0
  3 24  1  0  0  0  0
  4  8  1  0  0  0  0
  4  5  1  0  0  0  0
  5  6  1  0  0  0  0
  5 25  1  0  0  0  0
  5 26  1  0  0  0  0
  6  7  1  0  0  0  0
  6 27  1  0  0  0  0
  6 28  1  0  0  0  0
  7  8  1  0  0  0  0
  7 29  1  0  0  0  0
  7 30  1  0  0  0  0
  8  9  2  0  0  0  0
 10 11  1  0  0  0  0
 10 31  1  0  0  0  0
 11 12  2  0  0  0  0
 11 13  1  0  0  0  0
 13 14  1  0  0  0  0
 14 18  1  0  0  0  0
 14 15  2  0  0  0  0
 15 16  1  0  0  0  0
 16 17  2  0  0  0  0
 17 18  1  0  0  0  0
 17 32  1  0  0  0  0
M  CHG  1  13  -1
M  END
> <s_m_source_file>
AV-unprocessed.smi

> <i_m_source_file_index>
1836

> <i_lp_mmshare_version>
43012

> <i_f3d_flags>
0

> <s_epik_input>
Tz1DMVtDSDJdW0NIMl1bQ0gyXU4xW0NIMl1bQ0BASF0oW0NIM10pW05IXUMoPU8pW05IXWMybm5bY0hdczI=

> <s_epik_cmdline>
J2VwaWtfcHl0aG9uJywgJy1waCcsICc3LjAnLCAnLXRuJywgJzgnLCAnLW1hJywgJzIwMCcsICctbWV0YWxfYmluZGluZycsICctaW1hZScsICc8aW5maWxlLm1hZT4nLCAnLW9tYWUnLCAnPG91dGZpbGUubWFlPic=

> <r_lp_tautomer_probability>
1

> <r_epik_Ionization_Penalty>
3.44722

> <r_epik_Ionization_Penalty_Charging>
3.40341

> <r_epik_Ionization_Penalty_Neutral>
0.0438099

> <r_epik_State_Penalty>
3.40151

> <r_epik_Charging_Adjusted_Penalty>
6.80491

> <i_epik_Tot_Q>
-1

> <i_epik_Tot_abs_Q>
1

> <r_epik_Metal_State_Penalty>
0.49534

> <b_epik_Metal_Only>
1

> <s_lp_Force_Field>
OPLS_2005

> <r_lp_Energy>
15.5322

> <b_lp_Chiralities_Consistent>
1

> <s_lp_Variant>
AV-unprocessed.smi:1836-3

> <Gold.Version>
5.8.1

> <Gold.Id.Protein>
6NUR|6NUR_protein|mol2

> <Gold.PLP.Fitness>
40.2349

> <Gold.PLP.PLP>
-31.9206

> <Gold.PLP.part.hbond>
-4.5016

> <Gold.PLP.part.metal>
0.0000

> <Gold.PLP.part.buried>
-2.9904

> <Gold.PLP.part.nonpolar>
-25.4317

> <Gold.PLP.part.repulsive>
0.4611

> <Gold.PLP.ligand.clash>
0.0000

> <Gold.PLP.ligand.torsion>
1.2795

> <Gold.PLP.Chemscore.Hbond>
2.5760

> <Gold.PLP.Chemscore.CHOScore>
1.0000

> <Gold.PLP.Chemscore.Metal>
0.0000

> <Gold.Chemscore.Hbonds>
donor molecule, donor type, donor heavy atom, donor atom, acceptor molecule, acceptor atom, score
      L1  H    10    31       P1  8028  1.00
      P1  H  6934  6946       L1    12  0.54
      P1  H  7997  8008       L1     9  0.98
      L1  C    17    32       P1  7957  0.88

> <Gold.PLP.Chemscore.Internal.Correction>
0.1453

> <Gold.Rescore>
     Score         DG    S(hbond)    S(metal)    S(lipo)     H(rot)  DE(clash)    DE(int)     intcor
     15.50     -17.09       2.51        0.00      65.32       1.73       0.05       1.54       ----

> <Gold.Chemscore.Fitness>
15.5009

> <Gold.Chemscore.DG>
-17.0901

> <Gold.Chemscore.ZeroCoef>
-5.4800

> <Gold.Chemscore.Hbond>
2.5142

> <Gold.Chemscore.Metal>
0.0000

> <Gold.Chemscore.Lipo>
65.3169

> <Gold.Chemscore.Internal_Hbond>
0.0000

> <Gold.Chemscore.DEClash>
0.0480

> <Gold.Chemscore.DEInternal>
1.5412

> <Gold.Chemscore.Rot>
1.7302

> <Gold.Chemscore.Internal.Correction>
   9.000000E+99

> <Gold.Chemscore.Hbonds>
donor molecule, donor type, donor heavy atom, donor atom, acceptor molecule, acceptor atom, score
      L1  H    10    31       P1  8028  0.67
      P1  H  6934  6946       L1    12  0.54
      P1  H  7997  8008       L1     9  0.75

> <Gold.Chemscore.Hbond.Weighted>
-8.3974

> <Gold.Chemscore.Metal.Weighted>
-0.0000

> <Gold.Chemscore.Lipo.Weighted>
-7.6421

> <Gold.Chemscore.Internal_Hbond.Weighted>
0.0000

> <Gold.Chemscore.DEClash.Weighted>
0.0480

> <Gold.Chemscore.DEInternal.Weighted>
1.5412

> <Gold.Chemscore.Rot.Weighted>
4.4294

> <Gold.Chemscore.Internal.Correction.Weighted>
   9.000000E+99

> <Gold.Protein.RotatedTorsions>
[ 6907 6896 6895 6894 ] final   61.37 input  -60.11 | X-H torsion
[ 7974 7965 7964 7962 ] final  -51.53 input  175.53 | X-H torsion
[ 8008 7997 7996 7995 ] final  -69.54 input   59.86 | X-H torsion
[ 10167 10162 10161 10158 ] final -156.79 input  -65.29 | X-H torsion
[ 10718 10713 10712 10709 ] final   59.99 input   66.30 | X-H torsion
[ 10763 10752 10751 10750 ] final  -33.11 input  -60.55 | X-H torsion
[ 11005 11000 10999 10996 ] final   76.19 input  -57.11 | X-H torsion

> <Gold.Protein.ActiveResidues>
 VAL166  LYS551  ARG553  GLY616  TRP617  ASP618  TYR619  PRO620  LYS621  CYS622 
 ASP623  PHE694  ASN695  SER759  ASP760  ASP761  ALA762  ILE779  LEU786  VAL792 
 PHE793  MET794  SER795  GLU796  ALA797  LYS798  CYS799  TRP800  GLU811  SER814 

> <Gold.Protein.RotatedAtoms>
  152.4083  134.6168  160.0040 H   0  0  0  0  0  0  0  0  0  0  0  0  # atno 6907 bound_to 6896
  151.6353  133.3324  159.3126 H   0  0  0  0  0  0  0  0  0  0  0  0  # atno 6908 bound_to 6896
  150.7976  134.7088  159.6636 H   0  0  0  0  0  0  0  0  0  0  0  0  # atno 6909 bound_to 6896
  145.9179  140.7859  142.9662 H   0  0  0  0  0  0  0  0  0  0  0  0  # atno 7974 bound_to 7965
  154.4946  140.0851  156.7669 H   0  0  0  0  0  0  0  0  0  0  0  0  # atno 8008 bound_to 7997
  155.4147  140.3443  155.4248 H   0  0  0  0  0  0  0  0  0  0  0  0  # atno 8009 bound_to 7997
  156.1377  140.1520  156.8957 H   0  0  0  0  0  0  0  0  0  0  0  0  # atno 8010 bound_to 7997
  139.6822  143.9562  152.2342 H   0  0  0  0  0  0  0  0  0  0  0  0  # atno 10167 bound_to 10162
  157.5718  130.8913  149.9280 H   0  0  0  0  0  0  0  0  0  0  0  0  # atno 10718 bound_to 10713
  153.8248  135.6871  153.4822 H   0  0  0  0  0  0  0  0  0  0  0  0  # atno 10763 bound_to 10752
  153.1547  135.4604  154.9685 H   0  0  0  0  0  0  0  0  0  0  0  0  # atno 10764 bound_to 10752
  154.7912  135.3302  154.7717 H   0  0  0  0  0  0  0  0  0  0  0  0  # atno 10765 bound_to 10752
  139.9309  134.7580  156.1365 H   0  0  0  0  0  0  0  0  0  0  0  0  # atno 11005 bound_to 11000
  144.6750  140.1930  143.7395 LP  0  0  0  0  0  0  0  0  0  0  0  0  # atno 17320 bound_to 7965
  145.8587  139.2212  143.1729 LP  0  0  0  0  0  0  0  0  0  0  0  0  # atno 17321 bound_to 7965
  139.9355  144.6714  150.8319 LP  0  0  0  0  0  0  0  0  0  0  0  0  # atno 17342 bound_to 10162
  140.7656  143.3279  151.2474 LP  0  0  0  0  0  0  0  0  0  0  0  0  # atno 17343 bound_to 10162
  156.0764  130.3678  150.0670 LP  0  0  0  0  0  0  0  0  0  0  0  0  # atno 17370 bound_to 10713
  156.8822  130.9560  151.3598 LP  0  0  0  0  0  0  0  0  0  0  0  0  # atno 17371 bound_to 10713
  141.0897  133.6719  156.2513 LP  0  0  0  0  0  0  0  0  0  0  0  0  # atno 17394 bound_to 11000
  140.6205  134.5367  157.5547 LP  0  0  0  0  0  0  0  0  0  0  0  0  # atno 17395 bound_to 11000

$$$$
