AV-unprocessed.smi:236|AV-procd|sdf|1814|dock4
  -GOLD-   2262020403D 1   1.00000     0.00000
 Structure written by MMmdl.
 58 62  0  0  0  0  0  0  0  0  1 V2000
  144.5569  134.0507  162.4891 C   0  0  0  0  0  0  0  0  0  0  0  0
  145.2776  135.2167  161.7934 C   0  0  1  0  0  0  0  0  0  0  0  0
  144.7530  136.4623  162.2304 O   0  0  0  0  0  0  0  0  0  0  0  0
  145.6942  137.4565  161.8693 C   0  0  0  0  0  0  0  0  0  0  0  0
  147.0210  136.8224  162.2682 C   0  0  0  0  0  0  0  0  0  0  0  0
  146.8115  135.3280  162.0040 C   0  0  1  0  0  0  0  0  0  0  0  0
  147.2385  134.6135  163.1524 O   0  0  0  0  0  0  0  0  0  0  0  0
  147.6337  134.8300  160.7894 C   0  0  0  0  0  0  0  0  0  0  0  0
  148.0341  135.8952  159.8816 N   0  0  0  0  0  0  0  0  0  0  0  0
  149.2052  136.6185  159.9237 C   0  0  0  0  0  0  0  0  0  0  0  0
  149.3374  137.5209  158.9901 N   0  0  0  0  0  0  0  0  0  0  0  0
  148.1646  137.4184  158.2521 C   0  0  0  0  0  0  0  0  0  0  0  0
  147.6463  138.0876  157.1076 C   0  0  0  0  0  0  0  0  0  0  0  0
  148.2779  139.0739  156.4380 N   0  0  0  0  0  0  0  0  0  0  0  0
  148.4531  138.8092  155.0161 C   0  0  0  0  0  0  0  0  0  0  0  0
  149.0444  140.0488  154.3256 C   0  0  0  0  0  0  0  0  0  0  0  0
  150.2564  140.4209  154.9760 O   0  0  0  0  0  0  0  0  0  0  0  0
  150.0560  140.7669  156.3456 C   0  0  2  0  0  0  0  0  0  0  0  0
  151.3985  141.2238  156.9303 C   0  0  0  0  0  0  0  0  0  0  0  0
  151.2715  141.3405  158.3375 O   0  0  0  0  0  0  0  0  0  0  0  0
  152.1807  142.2755  158.8972 C   0  0  0  0  0  0  0  0  0  0  0  0
  151.8076  143.7002  158.5286 C   0  0  0  0  0  0  0  0  0  0  0  0
  152.8582  144.6897  158.0677 C   0  0  0  0  0  0  0  0  0  0  0  0
  152.2069  144.8639  159.4130 C   0  0  0  0  0  0  0  0  0  0  0  0
  149.5016  139.5323  157.0826 C   0  0  0  0  0  0  0  0  0  0  0  0
  146.4252  137.7172  156.6512 N   0  0  0  0  0  0  0  0  0  0  0  0
  145.7457  136.7492  157.2739 C   0  0  0  0  0  0  0  0  0  0  0  0
  146.0991  136.0377  158.3466 N   0  0  0  0  0  0  0  0  0  0  0  0
  147.3298  136.4072  158.8054 C   0  0  0  0  0  0  0  0  0  0  0  0
  144.9634  133.0905  162.1708 H   0  0  0  0  0  0  0  0  0  0  0  0
  143.4943  134.0559  162.2466 H   0  0  0  0  0  0  0  0  0  0  0  0
  144.6460  134.1137  163.5739 H   0  0  0  0  0  0  0  0  0  0  0  0
  145.0634  135.1649  160.7256 H   0  0  0  0  0  0  0  0  0  0  0  0
  145.6512  137.6335  160.7933 H   0  0  0  0  0  0  0  0  0  0  0  0
  145.5048  138.3990  162.3835 H   0  0  0  0  0  0  0  0  0  0  0  0
  147.8626  137.2485  161.7210 H   0  0  0  0  0  0  0  0  0  0  0  0
  147.1937  137.0131  163.3290 H   0  0  0  0  0  0  0  0  0  0  0  0
  146.5323  134.0544  163.4378 H   0  0  0  0  0  0  0  0  0  0  0  0
  148.5334  134.3181  161.1333 H   0  0  0  0  0  0  0  0  0  0  0  0
  147.0653  134.0927  160.2205 H   0  0  0  0  0  0  0  0  0  0  0  0
  149.9676  136.4500  160.6702 H   0  0  0  0  0  0  0  0  0  0  0  0
  149.1191  137.9575  154.8744 H   0  0  0  0  0  0  0  0  0  0  0  0
  147.4945  138.5490  154.5649 H   0  0  0  0  0  0  0  0  0  0  0  0
  149.2542  139.8323  153.2782 H   0  0  0  0  0  0  0  0  0  0  0  0
  148.3382  140.8803  154.3449 H   0  0  0  0  0  0  0  0  0  0  0  0
  149.3377  141.5857  156.4191 H   0  0  0  0  0  0  0  0  0  0  0  0
  152.1702  140.4862  156.7043 H   0  0  0  0  0  0  0  0  0  0  0  0
  151.7081  142.1705  156.4846 H   0  0  0  0  0  0  0  0  0  0  0  0
  152.1906  142.1865  159.9844 H   0  0  0  0  0  0  0  0  0  0  0  0
  153.1914  142.0762  158.5385 H   0  0  0  0  0  0  0  0  0  0  0  0
  150.8362  143.7831  158.0449 H   0  0  0  0  0  0  0  0  0  0  0  0
  153.8970  144.3658  158.0518 H   0  0  0  0  0  0  0  0  0  0  0  0
  152.5780  145.3877  157.2815 H   0  0  0  0  0  0  0  0  0  0  0  0
  151.4917  145.6762  159.5237 H   0  0  0  0  0  0  0  0  0  0  0  0
  152.8123  144.6561  160.2931 H   0  0  0  0  0  0  0  0  0  0  0  0
  149.2971  139.7790  158.1254 H   0  0  0  0  0  0  0  0  0  0  0  0
  150.2440  138.7329  157.0790 H   0  0  0  0  0  0  0  0  0  0  0  0
  144.7809  136.5101  156.8519 H   0  0  0  0  0  0  0  0  0  0  0  0
  1  2  1  0  0  0  0
  1 30  1  0  0  0  0
  1 31  1  0  0  0  0
  1 32  1  0  0  0  0
  2  6  1  0  0  0  0
  2  3  1  0  0  0  0
  2 33  1  0  0  0  0
  3  4  1  0  0  0  0
  4  5  1  0  0  0  0
  4 34  1  0  0  0  0
  4 35  1  0  0  0  0
  5  6  1  0  0  0  0
  5 36  1  0  0  0  0
  5 37  1  0  0  0  0
  6  7  1  0  0  0  0
  6  8  1  0  0  0  0
  7 38  1  0  0  0  0
  8  9  1  0  0  0  0
  8 39  1  0  0  0  0
  8 40  1  0  0  0  0
  9 29  1  0  0  0  0
  9 10  1  0  0  0  0
 10 11  2  0  0  0  0
 10 41  1  0  0  0  0
 11 12  1  0  0  0  0
 12 29  2  0  0  0  0
 12 13  1  0  0  0  0
 13 14  1  0  0  0  0
 13 26  2  0  0  0  0
 14 25  1  0  0  0  0
 14 15  1  0  0  0  0
 15 16  1  0  0  0  0
 15 42  1  0  0  0  0
 15 43  1  0  0  0  0
 16 17  1  0  0  0  0
 16 44  1  0  0  0  0
 16 45  1  0  0  0  0
 17 18  1  0  0  0  0
 18 19  1  0  0  0  0
 18 25  1  0  0  0  0
 18 46  1  0  0  0  0
 19 20  1  0  0  0  0
 19 47  1  0  0  0  0
 19 48  1  0  0  0  0
 20 21  1  0  0  0  0
 21 22  1  0  0  0  0
 21 49  1  0  0  0  0
 21 50  1  0  0  0  0
 22 24  1  0  0  0  0
 22 23  1  0  0  0  0
 22 51  1  0  0  0  0
 23 24  1  0  0  0  0
 23 52  1  0  0  0  0
 23 53  1  0  0  0  0
 24 54  1  0  0  0  0
 24 55  1  0  0  0  0
 25 56  1  0  0  0  0
 25 57  1  0  0  0  0
 26 27  1  0  0  0  0
 27 28  2  0  0  0  0
 27 58  1  0  0  0  0
 28 29  1  0  0  0  0
M  END
> <s_m_source_file>
AV-unprocessed.smi

> <i_m_source_file_index>
236

> <i_lp_mmshare_version>
43012

> <i_f3d_flags>
0

> <s_epik_input>
W0NIMl0xW0NIMl1PW0NAQEhdKFtDSDNdKVtDQEBdMShbT0hdKVtDSDJdbihbY0hdbjIpYyhjMjMpbltjSF1uYzNONFtDSDJdW0NIMl1PW0NASF0oW0NIMl00KVtDSDJdT1tDSDJdW0NIXTVbQ0gyXVtDSDJdNQ==

> <s_epik_cmdline>
J2VwaWtfcHl0aG9uJywgJy1waCcsICc3LjAnLCAnLXRuJywgJzgnLCAnLW1hJywgJzIwMCcsICctbWV0YWxfYmluZGluZycsICctaW1hZScsICc8aW5maWxlLm1hZT4nLCAnLW9tYWUnLCAnPG91dGZpbGUubWFlPic=

> <r_lp_tautomer_probability>
1

> <r_epik_Ionization_Penalty>
7.21838e-05

> <r_epik_Ionization_Penalty_Charging>
0

> <r_epik_Ionization_Penalty_Neutral>
7.21838e-05

> <r_epik_State_Penalty>
-0

> <r_epik_Charging_Adjusted_Penalty>
0

> <i_epik_Tot_Q>
0

> <i_epik_Tot_abs_Q>
0

> <r_epik_Metal_State_Penalty>
-0

> <b_epik_Metal_Only>
0

> <s_lp_Force_Field>
OPLS_2005

> <r_lp_Energy>
47.3448

> <b_lp_Chiralities_Consistent>
1

> <s_lp_Variant>
AV-unprocessed.smi:236-6

> <Gold.Version>
5.8.1

> <Gold.Id.Protein>
6NUR|6NUR_protein|mol2

> <Gold.PLP.Fitness>
46.9521

> <Gold.PLP.PLP>
-48.1000

> <Gold.PLP.part.hbond>
-2.5083

> <Gold.PLP.part.metal>
0.0000

> <Gold.PLP.part.buried>
-6.2854

> <Gold.PLP.part.nonpolar>
-38.4411

> <Gold.PLP.part.repulsive>
0.0934

> <Gold.PLP.ligand.clash>
0.0000

> <Gold.PLP.ligand.torsion>
1.9373

> <Gold.PLP.Chemscore.Hbond>
0.6338

> <Gold.PLP.Chemscore.CHOScore>
0.0000

> <Gold.PLP.Chemscore.Metal>
0.0000

> <Gold.Chemscore.Hbonds>
donor molecule, donor type, donor heavy atom, donor atom, acceptor molecule, acceptor atom, score
      P1  H  7989  7998       L1    17  0.91

> <Gold.PLP.Chemscore.Internal.Correction>
0.8255

> <Gold.Rescore>
     Score         DG    S(hbond)    S(metal)    S(lipo)     H(rot)  DE(clash)    DE(int)     intcor
     11.41     -14.79       0.77        0.00     120.29       2.87       0.32       3.06       ----

> <Gold.Chemscore.Fitness>
11.4145

> <Gold.Chemscore.DG>
-14.7887

> <Gold.Chemscore.ZeroCoef>
-5.4800

> <Gold.Chemscore.Hbond>
0.7697

> <Gold.Chemscore.Metal>
0.0000

> <Gold.Chemscore.Lipo>
120.2869

> <Gold.Chemscore.Internal_Hbond>
0.0000

> <Gold.Chemscore.DEClash>
0.3166

> <Gold.Chemscore.DEInternal>
3.0576

> <Gold.Chemscore.Rot>
2.8655

> <Gold.Chemscore.Internal.Correction>
   9.000000E+99

> <Gold.Chemscore.Hbonds>
donor molecule, donor type, donor heavy atom, donor atom, acceptor molecule, acceptor atom, score
      P1  H  7989  7998       L1    17  0.51

> <Gold.Chemscore.Hbond.Weighted>
-2.5709

> <Gold.Chemscore.Metal.Weighted>
-0.0000

> <Gold.Chemscore.Lipo.Weighted>
-14.0736

> <Gold.Chemscore.Internal_Hbond.Weighted>
0.0000

> <Gold.Chemscore.DEClash.Weighted>
0.3166

> <Gold.Chemscore.DEInternal.Weighted>
3.0576

> <Gold.Chemscore.Rot.Weighted>
7.3358

> <Gold.Chemscore.Internal.Correction.Weighted>
   9.000000E+99

> <Gold.Protein.RotatedTorsions>
[ 6907 6896 6895 6894 ] final  -22.32 input  -60.11 | X-H torsion
[ 7974 7965 7964 7962 ] final -125.80 input  175.53 | X-H torsion
[ 8008 7997 7996 7995 ] final  167.93 input   59.86 | X-H torsion
[ 10167 10162 10161 10158 ] final -144.43 input  -65.29 | X-H torsion
[ 10718 10713 10712 10709 ] final  -39.17 input   66.30 | X-H torsion
[ 10763 10752 10751 10750 ] final   73.40 input  -60.55 | X-H torsion
[ 11005 11000 10999 10996 ] final  170.75 input  -57.11 | X-H torsion

> <Gold.Protein.ActiveResidues>
 VAL166  LYS551  ARG553  GLY616  TRP617  ASP618  TYR619  PRO620  LYS621  CYS622 
 ASP623  PHE694  ASN695  SER759  ASP760  ASP761  ALA762  ILE779  LEU786  VAL792 
 PHE793  MET794  SER795  GLU796  ALA797  LYS798  CYS799  TRP800  GLU811  SER814 

> <Gold.Protein.RotatedAtoms>
  151.2203  135.0516  159.8946 H   0  0  0  0  0  0  0  0  0  0  0  0  # atno 6907 bound_to 6896
  152.5416  134.0648  159.8178 H   0  0  0  0  0  0  0  0  0  0  0  0  # atno 6908 bound_to 6896
  151.0813  133.5339  159.2652 H   0  0  0  0  0  0  0  0  0  0  0  0  # atno 6909 bound_to 6896
  144.9938  140.7757  143.4538 H   0  0  0  0  0  0  0  0  0  0  0  0  # atno 7974 bound_to 7965
  156.1592  140.1604  156.8642 H   0  0  0  0  0  0  0  0  0  0  0  0  # atno 8008 bound_to 7997
  154.5144  140.0793  156.8088 H   0  0  0  0  0  0  0  0  0  0  0  0  # atno 8009 bound_to 7997
  155.3742  140.3402  155.4246 H   0  0  0  0  0  0  0  0  0  0  0  0  # atno 8010 bound_to 7997
  139.7900  143.7980  152.2649 H   0  0  0  0  0  0  0  0  0  0  0  0  # atno 10167 bound_to 10162
  156.2955  130.4233  149.8196 H   0  0  0  0  0  0  0  0  0  0  0  0  # atno 10718 bound_to 10713
  153.0519  135.5064  154.7888 H   0  0  0  0  0  0  0  0  0  0  0  0  # atno 10763 bound_to 10752
  154.6744  135.2958  154.9701 H   0  0  0  0  0  0  0  0  0  0  0  0  # atno 10764 bound_to 10752
  154.0508  135.6704  153.4853 H   0  0  0  0  0  0  0  0  0  0  0  0  # atno 10765 bound_to 10752
  140.3116  134.7512  157.3996 H   0  0  0  0  0  0  0  0  0  0  0  0  # atno 11005 bound_to 11000
  145.2248  139.2142  143.5074 LP  0  0  0  0  0  0  0  0  0  0  0  0  # atno 17320 bound_to 7965
  146.3437  140.2113  142.8590 LP  0  0  0  0  0  0  0  0  0  0  0  0  # atno 17321 bound_to 7965
  139.8068  144.7352  150.9750 LP  0  0  0  0  0  0  0  0  0  0  0  0  # atno 17342 bound_to 10162
  140.7820  143.4290  151.0724 LP  0  0  0  0  0  0  0  0  0  0  0  0  # atno 17343 bound_to 10162
  156.5593  130.8376  151.3324 LP  0  0  0  0  0  0  0  0  0  0  0  0  # atno 17370 bound_to 10713
  157.7354  130.9761  150.2080 LP  0  0  0  0  0  0  0  0  0  0  0  0  # atno 17371 bound_to 10713
  140.1019  134.5460  155.8344 LP  0  0  0  0  0  0  0  0  0  0  0  0  # atno 17394 bound_to 11000
  141.2107  133.6697  156.6527 LP  0  0  0  0  0  0  0  0  0  0  0  0  # atno 17395 bound_to 11000

$$$$
