AV-unprocessed.smi:3161|AV-procd|sdf|12055|dock3
  -GOLD-   2272017483D 1   1.00000     0.00000
 Structure written by MMmdl.
 41 42  0  0  0  0  0  0  0  0  2 V2000
  152.3050  137.1056  156.8373 C   0  0  0  0  0  0  0  0  0  0  0  0
  151.7077  138.2529  156.0747 C   0  0  0  0  0  0  0  0  0  0  0  0
  152.3237  139.4918  155.7388 C   0  0  0  0  0  0  0  0  0  0  0  0
  151.5229  140.2960  155.0585 N   0  0  0  0  0  0  0  0  0  0  0  0
  150.3724  139.6003  154.9335 N   0  0  0  0  0  0  0  0  0  0  0  0
  149.2447  140.1866  154.2302 C   0  0  0  0  0  0  0  0  0  0  0  0
  148.5349  141.2742  155.0601 C   0  0  2  0  0  0  0  0  0  0  0  0
  147.5844  142.0991  154.1763 C   0  0  0  0  0  0  0  0  0  0  0  0
  149.5328  142.1471  155.7197 N   0  3  0  0  0  0  0  0  0  0  0  0
  149.7502  141.8880  157.1581 C   0  0  0  0  0  0  0  0  0  0  0  0
  151.0633  142.5232  157.6357 C   0  0  2  0  0  0  0  0  0  0  0  0
  151.4845  141.9976  159.0219 C   0  0  0  0  0  0  0  0  0  0  0  0
  152.7454  142.7181  159.5126 C   0  0  0  0  0  0  0  0  0  0  0  0
  152.5295  144.2341  159.4560 C   0  0  0  0  0  0  0  0  0  0  0  0
  152.0481  144.6528  158.0578 C   0  0  0  0  0  0  0  0  0  0  0  0
  150.8666  143.9338  157.7157 O   0  0  0  0  0  0  0  0  0  0  0  0
  150.4557  138.3644  155.5390 C   0  0  0  0  0  0  0  0  0  0  0  0
  153.3817  137.0347  156.6814 H   0  0  0  0  0  0  0  0  0  0  0  0
  151.8750  136.1505  156.5350 H   0  0  0  0  0  0  0  0  0  0  0  0
  152.1407  137.2077  157.9100 H   0  0  0  0  0  0  0  0  0  0  0  0
  153.3237  139.8286  155.9695 H   0  0  0  0  0  0  0  0  0  0  0  0
  149.5899  140.5891  153.2762 H   0  0  0  0  0  0  0  0  0  0  0  0
  148.5469  139.3825  153.9923 H   0  0  0  0  0  0  0  0  0  0  0  0
  147.9455  140.7754  155.8313 H   0  0  0  0  0  0  0  0  0  0  0  0
  146.8603  141.4557  153.6761 H   0  0  0  0  0  0  0  0  0  0  0  0
  148.1315  142.6421  153.4048 H   0  0  0  0  0  0  0  0  0  0  0  0
  147.0179  142.8261  154.7580 H   0  0  0  0  0  0  0  0  0  0  0  0
  150.4162  142.0009  155.2508 H   0  0  0  0  0  0  0  0  0  0  0  0
  148.9145  142.2718  157.7432 H   0  0  0  0  0  0  0  0  0  0  0  0
  149.7875  140.8096  157.3168 H   0  0  0  0  0  0  0  0  0  0  0  0
  151.8501  142.3048  156.9109 H   0  0  0  0  0  0  0  0  0  0  0  0
  150.6751  142.1541  159.7367 H   0  0  0  0  0  0  0  0  0  0  0  0
  151.6630  140.9226  158.9824 H   0  0  0  0  0  0  0  0  0  0  0  0
  152.9920  142.4064  160.5278 H   0  0  0  0  0  0  0  0  0  0  0  0
  153.5938  142.4436  158.8844 H   0  0  0  0  0  0  0  0  0  0  0  0
  151.7878  144.5277  160.1999 H   0  0  0  0  0  0  0  0  0  0  0  0
  153.4521  144.7567  159.7104 H   0  0  0  0  0  0  0  0  0  0  0  0
  151.8276  145.7202  158.0422 H   0  0  0  0  0  0  0  0  0  0  0  0
  152.8232  144.4771  157.3102 H   0  0  0  0  0  0  0  0  0  0  0  0
  149.6260  137.6726  155.5390 H   0  0  0  0  0  0  0  0  0  0  0  0
  149.2633  143.1123  155.5918 H   0  0  0  0  0  0  0  0  0  0  0  0
  1  2  1  0  0  0  0
  1 18  1  0  0  0  0
  1 19  1  0  0  0  0
  1 20  1  0  0  0  0
  2 17  2  0  0  0  0
  2  3  1  0  0  0  0
  3  4  2  0  0  0  0
  3 21  1  0  0  0  0
  4  5  1  0  0  0  0
  5  6  1  0  0  0  0
  5 17  1  0  0  0  0
  6  7  1  0  0  0  0
  6 22  1  0  0  0  0
  6 23  1  0  0  0  0
  7  8  1  0  0  0  0
  7  9  1  0  0  0  0
  7 24  1  0  0  0  0
  8 25  1  0  0  0  0
  8 26  1  0  0  0  0
  8 27  1  0  0  0  0
  9 10  1  0  0  0  0
  9 28  1  0  0  0  0
  9 41  1  0  0  0  0
 10 11  1  0  0  0  0
 10 29  1  0  0  0  0
 10 30  1  0  0  0  0
 11 16  1  0  0  0  0
 11 12  1  0  0  0  0
 11 31  1  0  0  0  0
 12 13  1  0  0  0  0
 12 32  1  0  0  0  0
 12 33  1  0  0  0  0
 13 14  1  0  0  0  0
 13 34  1  0  0  0  0
 13 35  1  0  0  0  0
 14 15  1  0  0  0  0
 14 36  1  0  0  0  0
 14 37  1  0  0  0  0
 15 16  1  0  0  0  0
 15 38  1  0  0  0  0
 15 39  1  0  0  0  0
 17 40  1  0  0  0  0
M  CHG  1   9   1
M  END
> <s_m_source_file>
AV-unprocessed.smi

> <i_m_source_file_index>
3161

> <i_lp_mmshare_version>
43012

> <i_f3d_flags>
0

> <s_epik_input>
W0NIM11jMVtjSF1ubihbY0hdMSlbQ0gyXVtDQEhdKFtDSDNdKVtOSF1bQ0gyXVtDQEBIXTJbQ0gyXVtDSDJdW0NIMl1bQ0gyXU8y

> <s_epik_cmdline>
J2VwaWtfcHl0aG9uJywgJy1waCcsICc3LjAnLCAnLXRuJywgJzgnLCAnLW1hJywgJzIwMCcsICctbWV0YWxfYmluZGluZycsICctaW1hZScsICc8aW5maWxlLm1hZT4nLCAnLW9tYWUnLCAnPG91dGZpbGUubWFlPic=

> <r_lp_tautomer_probability>
1

> <r_epik_Ionization_Penalty>
0.00849661

> <r_epik_Ionization_Penalty_Charging>
0.00848754

> <r_epik_Ionization_Penalty_Neutral>
9.06711e-06

> <r_epik_State_Penalty>
0.00639836

> <r_epik_Charging_Adjusted_Penalty>
0.0148859

> <i_epik_Tot_Q>
1

> <i_epik_Tot_abs_Q>
1

> <r_epik_Metal_State_Penalty>
0.00639921

> <b_epik_Metal_Only>
0

> <s_lp_Force_Field>
OPLS_2005

> <r_lp_Energy>
12.4461

> <b_lp_Chiralities_Consistent>
1

> <s_lp_Variant>
AV-unprocessed.smi:3161-1

> <Gold.Version>
5.8.1

> <Gold.Id.Protein>
6NUR|6NUR_protein|mol2

> <Gold.PLP.Fitness>
44.2455

> <Gold.PLP.PLP>
-37.3481

> <Gold.PLP.part.hbond>
-2.0000

> <Gold.PLP.part.metal>
0.0000

> <Gold.PLP.part.buried>
-3.8784

> <Gold.PLP.part.nonpolar>
-32.8706

> <Gold.PLP.part.repulsive>
0.6960

> <Gold.PLP.ligand.clash>
0.0000

> <Gold.PLP.ligand.torsion>
1.0876

> <Gold.PLP.Chemscore.Hbond>
3.0000

> <Gold.PLP.Chemscore.CHOScore>
0.0000

> <Gold.PLP.Chemscore.Metal>
0.0000

> <Gold.Chemscore.Hbonds>
donor molecule, donor type, donor heavy atom, donor atom, acceptor molecule, acceptor atom, score
      L1  H     9    41       P1  8028  2.00
      P1  H  7989  7998       L1     4  0.93

> <Gold.PLP.Chemscore.Internal.Correction>
0.0726

> <Gold.Rescore>
     Score         DG    S(hbond)    S(metal)    S(lipo)     H(rot)  DE(clash)    DE(int)     intcor
     18.78     -20.10       1.96        0.00     103.29       1.57       0.20       1.12       ----

> <Gold.Chemscore.Fitness>
18.7816

> <Gold.Chemscore.DG>
-20.0994

> <Gold.Chemscore.ZeroCoef>
-5.4800

> <Gold.Chemscore.Hbond>
1.9633

> <Gold.Chemscore.Metal>
0.0000

> <Gold.Chemscore.Lipo>
103.2887

> <Gold.Chemscore.Internal_Hbond>
0.0000

> <Gold.Chemscore.DEClash>
0.2022

> <Gold.Chemscore.DEInternal>
1.1155

> <Gold.Chemscore.Rot>
1.5714

> <Gold.Chemscore.Internal.Correction>
   9.000000E+99

> <Gold.Chemscore.Hbonds>
donor molecule, donor type, donor heavy atom, donor atom, acceptor molecule, acceptor atom, score
      L1  H     9    41       P1  8028  1.00
      P1  H  7989  7998       L1     4  0.20

> <Gold.Chemscore.Hbond.Weighted>
-6.5575

> <Gold.Chemscore.Metal.Weighted>
-0.0000

> <Gold.Chemscore.Lipo.Weighted>
-12.0848

> <Gold.Chemscore.Internal_Hbond.Weighted>
0.0000

> <Gold.Chemscore.DEClash.Weighted>
0.2022

> <Gold.Chemscore.DEInternal.Weighted>
1.1155

> <Gold.Chemscore.Rot.Weighted>
4.0228

> <Gold.Chemscore.Internal.Correction.Weighted>
   9.000000E+99

> <Gold.Protein.RotatedTorsions>
[ 6907 6896 6895 6894 ] final   18.96 input  -60.11 | X-H torsion
[ 7974 7965 7964 7962 ] final  -43.15 input  175.53 | X-H torsion
[ 8008 7997 7996 7995 ] final   14.69 input   59.86 | X-H torsion
[ 10167 10162 10161 10158 ] final   -6.25 input  -65.29 | X-H torsion
[ 10718 10713 10712 10709 ] final -104.05 input   66.30 | X-H torsion
[ 10763 10752 10751 10750 ] final  177.85 input  -60.55 | X-H torsion
[ 11005 11000 10999 10996 ] final -128.63 input  -57.11 | X-H torsion

> <Gold.Protein.ActiveResidues>
 VAL166  LYS551  ARG553  GLY616  TRP617  ASP618  TYR619  PRO620  LYS621  CYS622 
 ASP623  PHE694  ASN695  SER759  ASP760  ASP761  ALA762  ILE779  LEU786  VAL792 
 PHE793  MET794  SER795  GLU796  ALA797  LYS798  CYS799  TRP800  GLU811  SER814 

> <Gold.Protein.RotatedAtoms>
  151.8735  135.0480  160.0481 H   0  0  0  0  0  0  0  0  0  0  0  0  # atno 6907 bound_to 6896
  152.2570  133.5259  159.5367 H   0  0  0  0  0  0  0  0  0  0  0  0  # atno 6908 bound_to 6896
  150.7103  134.0799  159.3936 H   0  0  0  0  0  0  0  0  0  0  0  0  # atno 6909 bound_to 6896
  146.0047  140.7034  142.9253 H   0  0  0  0  0  0  0  0  0  0  0  0  # atno 7974 bound_to 7965
  154.8521  140.2931  155.5592 H   0  0  0  0  0  0  0  0  0  0  0  0  # atno 8008 bound_to 7997
  156.3017  140.2494  156.3413 H   0  0  0  0  0  0  0  0  0  0  0  0  # atno 8009 bound_to 7997
  154.9010  140.0391  157.1882 H   0  0  0  0  0  0  0  0  0  0  0  0  # atno 8010 bound_to 7997
  140.6991  143.6215  150.8608 H   0  0  0  0  0  0  0  0  0  0  0  0  # atno 10167 bound_to 10162
  156.0289  130.5496  150.7341 H   0  0  0  0  0  0  0  0  0  0  0  0  # atno 10718 bound_to 10713
  154.4999  135.2783  155.1429 H   0  0  0  0  0  0  0  0  0  0  0  0  # atno 10763 bound_to 10752
  154.3066  135.6237  153.5451 H   0  0  0  0  0  0  0  0  0  0  0  0  # atno 10764 bound_to 10752
  152.9901  135.5709  154.5440 H   0  0  0  0  0  0  0  0  0  0  0  0  # atno 10765 bound_to 10752
  140.9500  134.1078  157.4071 H   0  0  0  0  0  0  0  0  0  0  0  0  # atno 11005 bound_to 11000
  144.6931  140.3293  143.7219 LP  0  0  0  0  0  0  0  0  0  0  0  0  # atno 17320 bound_to 7965
  145.7435  139.1771  143.2362 LP  0  0  0  0  0  0  0  0  0  0  0  0  # atno 17321 bound_to 7965
  139.9936  143.5820  152.2901 LP  0  0  0  0  0  0  0  0  0  0  0  0  # atno 17342 bound_to 10162
  139.6484  144.7659  151.2197 LP  0  0  0  0  0  0  0  0  0  0  0  0  # atno 17343 bound_to 10162
  157.4926  131.0912  151.0409 LP  0  0  0  0  0  0  0  0  0  0  0  0  # atno 17370 bound_to 10713
  157.0812  130.5903  149.5421 LP  0  0  0  0  0  0  0  0  0  0  0  0  # atno 17371 bound_to 10713
  139.8845  135.0063  156.6370 LP  0  0  0  0  0  0  0  0  0  0  0  0  # atno 17394 bound_to 11000
  140.7615  133.8813  155.8422 LP  0  0  0  0  0  0  0  0  0  0  0  0  # atno 17395 bound_to 11000

$$$$
