AV-unprocessed.smi:3206|AV-procd|sdf|12257|dock6
  -GOLD-   2272018 93D 1   1.00000     0.00000
 Structure written by MMmdl.
 42 43  0  0  0  0  0  0  0  0  2 V2000
  153.7238  141.8888  160.8905 C   0  0  0  0  0  0  0  0  0  0  0  0
  153.1801  143.1571  160.2176 C   0  0  2  0  0  0  0  0  0  0  0  0
  152.3322  143.9937  161.1934 C   0  0  0  0  0  0  0  0  0  0  0  0
  151.7810  145.2633  160.5201 C   0  0  0  0  0  0  0  0  0  0  0  0
  150.9724  144.9542  159.2419 C   0  0  2  0  0  0  0  0  0  0  0  0
  149.5887  144.3297  159.5478 C   0  0  0  0  0  0  0  0  0  0  0  0
  148.6306  145.3421  160.0357 N   0  3  0  0  0  0  0  0  0  0  0  0
  147.6647  144.8270  161.0257 C   0  0  0  0  0  0  0  0  0  0  0  0
  146.2292  144.8759  160.4763 C   0  0  0  0  0  0  0  0  0  0  0  0
  145.4672  143.5901  160.6176 C   0  0  0  0  0  0  0  0  0  0  0  0
  145.5589  142.5515  159.7910 N   0  0  0  0  0  0  0  0  0  0  0  0
  144.6787  141.6890  160.3767 C   0  0  0  0  0  0  0  0  0  0  0  0
  144.0787  142.1341  161.4769 N   0  0  0  0  0  0  0  0  0  0  0  0
  144.6028  143.3726  161.6199 N   0  0  0  0  0  0  0  0  0  0  0  0
  144.1893  144.2044  162.7342 C   0  0  0  0  0  0  0  0  0  0  0  0
  151.8155  144.0897  158.2802 C   0  0  0  0  0  0  0  0  0  0  0  0
  152.3668  142.8204  158.9543 C   0  0  0  0  0  0  0  0  0  0  0  0
  152.9148  141.2361  161.2201 H   0  0  0  0  0  0  0  0  0  0  0  0
  154.3287  142.1360  161.7634 H   0  0  0  0  0  0  0  0  0  0  0  0
  154.3527  141.3196  160.2055 H   0  0  0  0  0  0  0  0  0  0  0  0
  154.0370  143.7606  159.9146 H   0  0  0  0  0  0  0  0  0  0  0  0
  151.5099  143.3898  161.5784 H   0  0  0  0  0  0  0  0  0  0  0  0
  152.9334  144.2754  162.0588 H   0  0  0  0  0  0  0  0  0  0  0  0
  151.1702  145.8262  161.2268 H   0  0  0  0  0  0  0  0  0  0  0  0
  152.6173  145.9146  160.2630 H   0  0  0  0  0  0  0  0  0  0  0  0
  150.8067  145.9085  158.7393 H   0  0  0  0  0  0  0  0  0  0  0  0
  149.1687  143.8579  158.6587 H   0  0  0  0  0  0  0  0  0  0  0  0
  149.6730  143.5443  160.2997 H   0  0  0  0  0  0  0  0  0  0  0  0
  149.1514  146.0979  160.4575 H   0  0  0  0  0  0  0  0  0  0  0  0
  147.9329  143.8013  161.2836 H   0  0  0  0  0  0  0  0  0  0  0  0
  147.7381  145.4224  161.9370 H   0  0  0  0  0  0  0  0  0  0  0  0
  145.6701  145.6608  160.9874 H   0  0  0  0  0  0  0  0  0  0  0  0
  146.2527  145.1432  159.4191 H   0  0  0  0  0  0  0  0  0  0  0  0
  144.4747  140.7051  159.9806 H   0  0  0  0  0  0  0  0  0  0  0  0
  144.6979  145.1675  162.7111 H   0  0  0  0  0  0  0  0  0  0  0  0
  144.4277  143.7044  163.6734 H   0  0  0  0  0  0  0  0  0  0  0  0
  143.1134  144.3747  162.6854 H   0  0  0  0  0  0  0  0  0  0  0  0
  151.2292  143.8214  157.4008 H   0  0  0  0  0  0  0  0  0  0  0  0
  152.6536  144.6823  157.9113 H   0  0  0  0  0  0  0  0  0  0  0  0
  152.9922  142.2769  158.2449 H   0  0  0  0  0  0  0  0  0  0  0  0
  151.5464  142.1497  159.2118 H   0  0  0  0  0  0  0  0  0  0  0  0
  148.1178  145.7044  159.2444 H   0  0  0  0  0  0  0  0  0  0  0  0
  1  2  1  0  0  0  0
  1 18  1  0  0  0  0
  1 19  1  0  0  0  0
  1 20  1  0  0  0  0
  2 17  1  0  0  0  0
  2  3  1  0  0  0  0
  2 21  1  0  0  0  0
  3  4  1  0  0  0  0
  3 22  1  0  0  0  0
  3 23  1  0  0  0  0
  4  5  1  0  0  0  0
  4 24  1  0  0  0  0
  4 25  1  0  0  0  0
  5  6  1  0  0  0  0
  5 16  1  0  0  0  0
  5 26  1  0  0  0  0
  6  7  1  0  0  0  0
  6 27  1  0  0  0  0
  6 28  1  0  0  0  0
  7  8  1  0  0  0  0
  7 29  1  0  0  0  0
  7 42  1  0  0  0  0
  8  9  1  0  0  0  0
  8 30  1  0  0  0  0
  8 31  1  0  0  0  0
  9 10  1  0  0  0  0
  9 32  1  0  0  0  0
  9 33  1  0  0  0  0
 10 14  1  0  0  0  0
 10 11  2  0  0  0  0
 11 12  1  0  0  0  0
 12 13  2  0  0  0  0
 12 34  1  0  0  0  0
 13 14  1  0  0  0  0
 14 15  1  0  0  0  0
 15 35  1  0  0  0  0
 15 36  1  0  0  0  0
 15 37  1  0  0  0  0
 16 17  1  0  0  0  0
 16 38  1  0  0  0  0
 16 39  1  0  0  0  0
 17 40  1  0  0  0  0
 17 41  1  0  0  0  0
M  CHG  1   7   1
M  END
> <s_m_source_file>
AV-unprocessed.smi

> <i_m_source_file_index>
3206

> <i_lp_mmshare_version>
43012

> <i_f3d_flags>
0

> <s_epik_input>
W0NIM11bQ0BASF0xW0NIMl1bQ0gyXVtDQEhdKFtDSDJdW0NIMl0xKVtDSDJdW05IXVtDSDJdW0NIMl1jMm5bY0hdbm4yW0NIM10=

> <s_epik_cmdline>
J2VwaWtfcHl0aG9uJywgJy1waCcsICc3LjAnLCAnLXRuJywgJzgnLCAnLW1hJywgJzIwMCcsICctbWV0YWxfYmluZGluZycsICctaW1hZScsICc8aW5maWxlLm1hZT4nLCAnLW9tYWUnLCAnPG91dGZpbGUubWFlPic=

> <r_lp_tautomer_probability>
1

> <r_epik_Ionization_Penalty>
0.00114491

> <r_epik_Ionization_Penalty_Charging>
0.00114083

> <r_epik_Ionization_Penalty_Neutral>
4.0852e-06

> <r_epik_State_Penalty>
-0

> <r_epik_Charging_Adjusted_Penalty>
0.00114083

> <i_epik_Tot_Q>
1

> <i_epik_Tot_abs_Q>
1

> <r_epik_Metal_State_Penalty>
-0

> <b_epik_Metal_Only>
0

> <s_lp_Force_Field>
OPLS_2005

> <r_lp_Energy>
20.2126

> <b_lp_Chiralities_Consistent>
1

> <s_lp_Variant>
AV-unprocessed.smi:3206-2

> <Gold.Version>
5.8.1

> <Gold.Id.Protein>
6NUR|6NUR_protein|mol2

> <Gold.PLP.Fitness>
49.3181

> <Gold.PLP.PLP>
-46.1181

> <Gold.PLP.part.hbond>
-2.6133

> <Gold.PLP.part.metal>
0.0000

> <Gold.PLP.part.buried>
-4.8815

> <Gold.PLP.part.nonpolar>
-38.9227

> <Gold.PLP.part.repulsive>
0.2205

> <Gold.PLP.ligand.clash>
0.0000

> <Gold.PLP.ligand.torsion>
1.4157

> <Gold.PLP.Chemscore.Hbond>
2.0000

> <Gold.PLP.Chemscore.CHOScore>
0.0000

> <Gold.PLP.Chemscore.Metal>
0.0000

> <Gold.Chemscore.Hbonds>
donor molecule, donor type, donor heavy atom, donor atom, acceptor molecule, acceptor atom, score
      L1  H     7    42       P1  8029  2.00

> <Gold.PLP.Chemscore.Internal.Correction>
0.0314

> <Gold.Rescore>
     Score         DG    S(hbond)    S(metal)    S(lipo)     H(rot)  DE(clash)    DE(int)     intcor
     14.78     -16.05       0.99        0.00     106.86       2.05       0.00       1.26       ----

> <Gold.Chemscore.Fitness>
14.7790

> <Gold.Chemscore.DG>
-16.0463

> <Gold.Chemscore.ZeroCoef>
-5.4800

> <Gold.Chemscore.Hbond>
0.9937

> <Gold.Chemscore.Metal>
0.0000

> <Gold.Chemscore.Lipo>
106.8574

> <Gold.Chemscore.Internal_Hbond>
0.0000

> <Gold.Chemscore.DEClash>
0.0024

> <Gold.Chemscore.DEInternal>
1.2649

> <Gold.Chemscore.Rot>
2.0528

> <Gold.Chemscore.Internal.Correction>
   9.000000E+99

> <Gold.Chemscore.Hbonds>
donor molecule, donor type, donor heavy atom, donor atom, acceptor molecule, acceptor atom, score
      L1  H     7    42       P1  8029  0.94

> <Gold.Chemscore.Hbond.Weighted>
-3.3190

> <Gold.Chemscore.Metal.Weighted>
-0.0000

> <Gold.Chemscore.Lipo.Weighted>
-12.5023

> <Gold.Chemscore.Internal_Hbond.Weighted>
0.0000

> <Gold.Chemscore.DEClash.Weighted>
0.0024

> <Gold.Chemscore.DEInternal.Weighted>
1.2649

> <Gold.Chemscore.Rot.Weighted>
5.2551

> <Gold.Chemscore.Internal.Correction.Weighted>
   9.000000E+99

> <Gold.Protein.RotatedTorsions>
[ 6907 6896 6895 6894 ] final  -23.28 input  -60.11 | X-H torsion
[ 7974 7965 7964 7962 ] final   16.78 input  175.53 | X-H torsion
[ 8008 7997 7996 7995 ] final -133.15 input   59.86 | X-H torsion
[ 10167 10162 10161 10158 ] final   45.89 input  -65.29 | X-H torsion
[ 10718 10713 10712 10709 ] final  -91.23 input   66.30 | X-H torsion
[ 10763 10752 10751 10750 ] final   61.83 input  -60.55 | X-H torsion
[ 11005 11000 10999 10996 ] final   59.39 input  -57.11 | X-H torsion

> <Gold.Protein.ActiveResidues>
 VAL166  LYS551  ARG553  GLY616  TRP617  ASP618  TYR619  PRO620  LYS621  CYS622 
 ASP623  PHE694  ASN695  SER759  ASP760  ASP761  ALA762  ILE779  LEU786  VAL792 
 PHE793  MET794  SER795  GLU796  ALA797  LYS798  CYS799  TRP800  GLU811  SER814 

> <Gold.Protein.RotatedAtoms>
  151.2063  135.0463  159.8892 H   0  0  0  0  0  0  0  0  0  0  0  0  # atno 6907 bound_to 6896
  152.5428  134.0794  159.8239 H   0  0  0  0  0  0  0  0  0  0  0  0  # atno 6908 bound_to 6896
  151.0942  133.5245  159.2645 H   0  0  0  0  0  0  0  0  0  0  0  0  # atno 6909 bound_to 6896
  146.2239  139.8698  142.8589 H   0  0  0  0  0  0  0  0  0  0  0  0  # atno 7974 bound_to 7965
  155.3407  140.0472  157.3045 H   0  0  0  0  0  0  0  0  0  0  0  0  # atno 8008 bound_to 7997
  154.5279  140.2247  155.8822 H   0  0  0  0  0  0  0  0  0  0  0  0  # atno 8009 bound_to 7997
  156.1758  140.3085  155.9062 H   0  0  0  0  0  0  0  0  0  0  0  0  # atno 8010 bound_to 7997
  140.3195  144.2722  150.6185 H   0  0  0  0  0  0  0  0  0  0  0  0  # atno 10167 bound_to 10162
  155.9992  130.4940  150.5442 H   0  0  0  0  0  0  0  0  0  0  0  0  # atno 10718 bound_to 10713
  152.9963  135.5487  154.6096 H   0  0  0  0  0  0  0  0  0  0  0  0  # atno 10763 bound_to 10752
  154.5419  135.2820  155.1089 H   0  0  0  0  0  0  0  0  0  0  0  0  # atno 10764 bound_to 10752
  154.2363  135.6424  153.5245 H   0  0  0  0  0  0  0  0  0  0  0  0  # atno 10765 bound_to 10752
  140.0307  134.6016  155.9510 H   0  0  0  0  0  0  0  0  0  0  0  0  # atno 11005 bound_to 11000
  145.2620  141.0080  143.3821 LP  0  0  0  0  0  0  0  0  0  0  0  0  # atno 17320 bound_to 7965
  144.9291  139.4320  143.6504 LP  0  0  0  0  0  0  0  0  0  0  0  0  # atno 17321 bound_to 7965
  140.5496  143.2208  151.7949 LP  0  0  0  0  0  0  0  0  0  0  0  0  # atno 17342 bound_to 10162
  139.4877  144.4494  151.9672 LP  0  0  0  0  0  0  0  0  0  0  0  0  # atno 17343 bound_to 10162
  157.3374  131.0710  151.1814 LP  0  0  0  0  0  0  0  0  0  0  0  0  # atno 17370 bound_to 10713
  157.2674  130.6688  149.6003 LP  0  0  0  0  0  0  0  0  0  0  0  0  # atno 17371 bound_to 10713
  141.1829  133.6550  156.5097 LP  0  0  0  0  0  0  0  0  0  0  0  0  # atno 17394 bound_to 11000
  140.4230  134.7170  157.4900 LP  0  0  0  0  0  0  0  0  0  0  0  0  # atno 17395 bound_to 11000

$$$$
