AV-unprocessed.smi:188|AV-procd|sdf|1474|dock9
  -GOLD-   2262019293D 1   1.00000     0.00000
 Structure written by MMmdl.
 48 52  0  0  0  0  0  0  0  0  2 V2000
  149.2459  129.0814  156.7182 O   0  0  0  0  0  0  0  0  0  0  0  0
  149.3838  130.3000  156.6403 C   0  0  0  0  0  0  0  0  0  0  0  0
  148.9936  131.1128  157.6262 N   0  0  0  0  0  0  0  0  0  0  0  0
  149.2322  132.3883  157.3389 C   0  0  0  0  0  0  0  0  0  0  0  0
  148.9861  133.3628  158.0486 O   0  0  0  0  0  0  0  0  0  0  0  0
  149.8744  132.4256  155.9544 C   0  0  0  0  0  0  0  0  0  0  0  0
  149.0192  133.1908  154.9152 C   0  0  0  0  0  0  0  0  0  0  0  0
  149.0797  134.7173  155.1094 C   0  0  0  0  0  0  0  0  0  0  0  0
  150.4655  135.1889  155.1415 N   0  0  0  0  0  0  0  0  0  0  0  0
  150.6764  136.5223  154.9972 C   0  0  0  0  0  0  0  0  0  0  0  0
  151.9437  137.0165  155.0236 N   0  0  0  0  0  0  0  0  0  0  0  0
  152.1627  138.3252  154.8699 C   0  0  0  0  0  0  0  0  0  0  0  0
  151.2748  139.3035  154.6845 N   0  0  0  0  0  0  0  0  0  0  0  0
  150.0007  138.8190  154.6694 C   0  0  0  0  0  0  0  0  0  0  0  0
  149.6162  137.4551  154.8135 C   0  0  0  0  0  0  0  0  0  0  0  0
  148.2319  137.3467  154.7495 N   0  0  0  0  0  0  0  0  0  0  0  0
  147.8231  138.5721  154.5682 C   0  0  0  0  0  0  0  0  0  0  0  0
  148.8179  139.5229  154.5187 N   0  0  0  0  0  0  0  0  0  0  0  0
  148.6379  140.9554  154.3322 C   0  0  0  0  0  0  0  0  0  0  0  0
  147.2278  141.3684  153.8631 C   0  0  0  0  0  0  0  0  0  0  0  0
  147.0175  140.8937  152.4099 C   0  0  0  0  0  0  0  0  0  0  0  0
  146.2019  139.7418  152.3284 O   0  0  0  0  0  0  0  0  0  0  0  0
  146.0751  141.0811  154.8369 C   0  0  0  0  0  0  0  0  0  0  0  0
  145.6291  142.4547  154.8050 O   0  0  0  0  0  0  0  0  0  0  0  0
  146.8629  142.8315  154.1557 C   0  0  0  0  0  0  0  0  0  0  0  0
  151.3201  134.5438  156.1378 C   0  0  0  0  0  0  0  0  0  0  0  0
  151.3074  133.0121  155.9717 C   0  0  0  0  0  0  0  0  0  0  0  0
  149.9175  131.0103  155.6189 N   0  5  0  0  0  0  0  0  0  0  0  0
  148.5698  130.7955  158.4850 H   0  0  0  0  0  0  0  0  0  0  0  0
  149.3724  132.9539  153.9101 H   0  0  0  0  0  0  0  0  0  0  0  0
  147.9798  132.8608  154.9530 H   0  0  0  0  0  0  0  0  0  0  0  0
  148.5424  135.2019  154.2931 H   0  0  0  0  0  0  0  0  0  0  0  0
  148.5771  135.0029  156.0338 H   0  0  0  0  0  0  0  0  0  0  0  0
  153.1978  138.6316  154.9012 H   0  0  0  0  0  0  0  0  0  0  0  0
  146.7756  138.8190  154.4744 H   0  0  0  0  0  0  0  0  0  0  0  0
  148.8901  141.4472  155.2724 H   0  0  0  0  0  0  0  0  0  0  0  0
  149.3844  141.2977  153.6142 H   0  0  0  0  0  0  0  0  0  0  0  0
  146.5564  141.6778  151.8084 H   0  0  0  0  0  0  0  0  0  0  0  0
  147.9668  140.6454  151.9347 H   0  0  0  0  0  0  0  0  0  0  0  0
  145.3145  139.9842  152.5447 H   0  0  0  0  0  0  0  0  0  0  0  0
  145.3277  140.3855  154.4534 H   0  0  0  0  0  0  0  0  0  0  0  0
  146.3954  140.7926  155.8385 H   0  0  0  0  0  0  0  0  0  0  0  0
  147.5458  143.3276  154.8475 H   0  0  0  0  0  0  0  0  0  0  0  0
  146.7030  143.4444  153.2680 H   0  0  0  0  0  0  0  0  0  0  0  0
  152.3479  134.8973  156.0659 H   0  0  0  0  0  0  0  0  0  0  0  0
  150.9712  134.8216  157.1325 H   0  0  0  0  0  0  0  0  0  0  0  0
  151.8999  132.5565  156.7667 H   0  0  0  0  0  0  0  0  0  0  0  0
  151.8141  132.7598  155.0387 H   0  0  0  0  0  0  0  0  0  0  0  0
  1  2  2  0  0  0  0
  2 28  1  0  0  0  0
  2  3  1  0  0  0  0
  3  4  1  0  0  0  0
  3 29  1  0  0  0  0
  4  5  2  0  0  0  0
  4  6  1  0  0  0  0
  6 27  1  0  0  0  0
  6  7  1  0  0  0  0
  6 28  1  0  0  0  0
  7  8  1  0  0  0  0
  7 30  1  0  0  0  0
  7 31  1  0  0  0  0
  8  9  1  0  0  0  0
  8 32  1  0  0  0  0
  8 33  1  0  0  0  0
  9 10  1  0  0  0  0
  9 26  1  0  0  0  0
 10 15  1  0  0  0  0
 10 11  2  0  0  0  0
 11 12  1  0  0  0  0
 12 13  2  0  0  0  0
 12 34  1  0  0  0  0
 13 14  1  0  0  0  0
 14 18  1  0  0  0  0
 14 15  2  0  0  0  0
 15 16  1  0  0  0  0
 16 17  2  0  0  0  0
 17 18  1  0  0  0  0
 17 35  1  0  0  0  0
 18 19  1  0  0  0  0
 19 20  1  0  0  0  0
 19 36  1  0  0  0  0
 19 37  1  0  0  0  0
 20 25  1  0  0  0  0
 20 21  1  0  0  0  0
 20 23  1  0  0  0  0
 21 22  1  0  0  0  0
 21 38  1  0  0  0  0
 21 39  1  0  0  0  0
 22 40  1  0  0  0  0
 23 24  1  0  0  0  0
 23 41  1  0  0  0  0
 23 42  1  0  0  0  0
 24 25  1  0  0  0  0
 25 43  1  0  0  0  0
 25 44  1  0  0  0  0
 26 27  1  0  0  0  0
 26 45  1  0  0  0  0
 26 46  1  0  0  0  0
 27 47  1  0  0  0  0
 27 48  1  0  0  0  0
M  CHG  1  28  -1
M  END
> <s_m_source_file>
AV-unprocessed.smi

> <i_m_source_file_index>
188

> <i_lp_mmshare_version>
43012

> <i_f3d_flags>
0

> <s_epik_input>
Tz1DKFtOSF0xKVtOSF1DKD1PKUMxMltDSDJdW0NIMl1OKFtDSDJdW0NIMl0yKWMobltjSF1uMyljKGMzNCluW2NIXW40W0NIMl1DNShbQ0gyXVtPSF0pW0NIMl1PW0NIMl01

> <s_epik_cmdline>
J2VwaWtfcHl0aG9uJywgJy1waCcsICc3LjAnLCAnLXRuJywgJzgnLCAnLW1hJywgJzIwMCcsICctbWV0YWxfYmluZGluZycsICctaW1hZScsICc8aW5maWxlLm1hZT4nLCAnLW9tYWUnLCAnPG91dGZpbGUubWFlPic=

> <r_lp_tautomer_probability>
1

> <r_epik_Ionization_Penalty>
5.87904

> <r_epik_Ionization_Penalty_Charging>
5.87677

> <r_epik_Ionization_Penalty_Neutral>
0.00227107

> <r_epik_State_Penalty>
5.88193

> <r_epik_Charging_Adjusted_Penalty>
11.7587

> <i_epik_Tot_Q>
-1

> <i_epik_Tot_abs_Q>
1

> <r_epik_Metal_State_Penalty>
2.21794

> <b_epik_Metal_Only>
1

> <s_lp_Force_Field>
OPLS_2005

> <r_lp_Energy>
46.2215

> <b_lp_Chiralities_Consistent>
1

> <s_lp_Variant>
AV-unprocessed.smi:188-3

> <Gold.Version>
5.8.1

> <Gold.Id.Protein>
6NUR|6NUR_protein|mol2

> <Gold.PLP.Fitness>
41.9538

> <Gold.PLP.PLP>
-32.1418

> <Gold.PLP.part.hbond>
-4.0000

> <Gold.PLP.part.metal>
0.0000

> <Gold.PLP.part.buried>
-4.7508

> <Gold.PLP.part.nonpolar>
-25.2393

> <Gold.PLP.part.repulsive>
0.6304

> <Gold.PLP.ligand.clash>
0.0000

> <Gold.PLP.ligand.torsion>
1.4359

> <Gold.PLP.Chemscore.Hbond>
3.9920

> <Gold.PLP.Chemscore.CHOScore>
0.0000

> <Gold.PLP.Chemscore.Metal>
0.0000

> <Gold.Chemscore.Hbonds>
donor molecule, donor type, donor heavy atom, donor atom, acceptor molecule, acceptor atom, score
      L1  H    22    40       P1 10175  1.00
      P1  H  6896  6908       L1     5  0.47
      P1  H  7989  7998       L1    13  1.00
      P1  H 10752 10763       L1    11  0.99

> <Gold.PLP.Chemscore.Internal.Correction>
0.7079

> <Gold.Rescore>
     Score         DG    S(hbond)    S(metal)    S(lipo)     H(rot)  DE(clash)    DE(int)     intcor
     13.34     -17.78       3.73        0.00      60.91       2.84       0.34       4.11       ----

> <Gold.Chemscore.Fitness>
13.3352

> <Gold.Chemscore.DG>
-17.7834

> <Gold.Chemscore.ZeroCoef>
-5.4800

> <Gold.Chemscore.Hbond>
3.7304

> <Gold.Chemscore.Metal>
0.0000

> <Gold.Chemscore.Lipo>
60.9142

> <Gold.Chemscore.Internal_Hbond>
0.0000

> <Gold.Chemscore.DEClash>
0.3409

> <Gold.Chemscore.DEInternal>
4.1073

> <Gold.Chemscore.Rot>
2.8450

> <Gold.Chemscore.Internal.Correction>
   9.000000E+99

> <Gold.Chemscore.Hbonds>
donor molecule, donor type, donor heavy atom, donor atom, acceptor molecule, acceptor atom, score
      L1  H    22    40       P1 10175  0.97
      P1  H  6896  6908       L1     5  0.24
      P1  H  7989  7998       L1    13  0.89
      P1  H 10752 10763       L1    11  0.42

> <Gold.Chemscore.Hbond.Weighted>
-12.4596

> <Gold.Chemscore.Metal.Weighted>
-0.0000

> <Gold.Chemscore.Lipo.Weighted>
-7.1270

> <Gold.Chemscore.Internal_Hbond.Weighted>
0.0000

> <Gold.Chemscore.DEClash.Weighted>
0.3409

> <Gold.Chemscore.DEInternal.Weighted>
4.1073

> <Gold.Chemscore.Rot.Weighted>
7.2831

> <Gold.Chemscore.Internal.Correction.Weighted>
   9.000000E+99

> <Gold.Protein.RotatedTorsions>
[ 6907 6896 6895 6894 ] final  112.13 input  -60.11 | X-H torsion
[ 7974 7965 7964 7962 ] final -148.18 input  175.53 | X-H torsion
[ 8008 7997 7996 7995 ] final  111.79 input   59.86 | X-H torsion
[ 10167 10162 10161 10158 ] final   32.36 input  -65.29 | X-H torsion
[ 10718 10713 10712 10709 ] final   11.60 input   66.30 | X-H torsion
[ 10763 10752 10751 10750 ] final   61.94 input  -60.55 | X-H torsion
[ 11005 11000 10999 10996 ] final  179.56 input  -57.11 | X-H torsion

> <Gold.Protein.ActiveResidues>
 VAL166  LYS551  ARG553  GLY616  TRP617  ASP618  TYR619  PRO620  LYS621  CYS622 
 ASP623  PHE694  ASN695  SER759  ASP760  ASP761  ALA762  ILE779  LEU786  VAL792 
 PHE793  MET794  SER795  GLU796  ALA797  LYS798  CYS799  TRP800  GLU811  SER814 

> <Gold.Protein.RotatedAtoms>
  152.4933  133.8560  159.7225 H   0  0  0  0  0  0  0  0  0  0  0  0  # atno 6907 bound_to 6896
  150.9084  133.7019  159.2867 H   0  0  0  0  0  0  0  0  0  0  0  0  # atno 6908 bound_to 6896
  151.4437  135.1027  159.9730 H   0  0  0  0  0  0  0  0  0  0  0  0  # atno 6909 bound_to 6896
  144.8046  140.5230  143.5684 H   0  0  0  0  0  0  0  0  0  0  0  0  # atno 7974 bound_to 7965
  156.2148  140.3012  155.9815 H   0  0  0  0  0  0  0  0  0  0  0  0  # atno 8008 bound_to 7997
  155.2632  140.0430  157.3016 H   0  0  0  0  0  0  0  0  0  0  0  0  # atno 8009 bound_to 7997
  154.5752  140.2359  155.8141 H   0  0  0  0  0  0  0  0  0  0  0  0  # atno 8010 bound_to 7997
  140.4505  144.1055  150.6191 H   0  0  0  0  0  0  0  0  0  0  0  0  # atno 10167 bound_to 10162
  156.9979  130.6068  149.5693 H   0  0  0  0  0  0  0  0  0  0  0  0  # atno 10718 bound_to 10713
  152.9966  135.5483  154.6114 H   0  0  0  0  0  0  0  0  0  0  0  0  # atno 10763 bound_to 10752
  154.5434  135.2821  155.1077 H   0  0  0  0  0  0  0  0  0  0  0  0  # atno 10764 bound_to 10752
  154.2345  135.6427  153.5239 H   0  0  0  0  0  0  0  0  0  0  0  0  # atno 10765 bound_to 10752
  140.4075  134.6722  157.4596 H   0  0  0  0  0  0  0  0  0  0  0  0  # atno 11005 bound_to 11000
  145.5470  139.1476  143.3415 LP  0  0  0  0  0  0  0  0  0  0  0  0  # atno 17320 bound_to 7965
  146.2334  140.5609  142.8965 LP  0  0  0  0  0  0  0  0  0  0  0  0  # atno 17321 bound_to 7965
  140.4213  143.2610  151.9712 LP  0  0  0  0  0  0  0  0  0  0  0  0  # atno 17342 bound_to 10162
  139.4796  144.5828  151.7903 LP  0  0  0  0  0  0  0  0  0  0  0  0  # atno 17343 bound_to 10162
  156.0182  130.5276  150.8197 LP  0  0  0  0  0  0  0  0  0  0  0  0  # atno 17370 bound_to 10713
  157.5411  131.0941  150.9826 LP  0  0  0  0  0  0  0  0  0  0  0  0  # atno 17371 bound_to 10713
  140.0292  134.6432  155.9131 LP  0  0  0  0  0  0  0  0  0  0  0  0  # atno 17394 bound_to 11000
  141.1834  133.6551  156.5114 LP  0  0  0  0  0  0  0  0  0  0  0  0  # atno 17395 bound_to 11000

$$$$
