AV-unprocessed.smi:444|AV-procd|sdf|2587|dock10
  -GOLD-   2262022583D 1   1.00000     0.00000
 Structure written by MMmdl.
 45 46  0  0  0  0  0  0  0  0  1 V2000
  146.4959  142.9945  153.7741 C   0  0  0  0  0  0  0  0  0  0  0  0
  147.3864  141.7765  153.9097 C   0  0  0  0  0  0  0  0  0  0  0  0
  147.1829  140.6527  153.0861 C   0  0  0  0  0  0  0  0  0  0  0  0
  148.0153  139.5267  153.2165 C   0  0  0  0  0  0  0  0  0  0  0  0
  149.0551  139.5168  154.1695 C   0  0  0  0  0  0  0  0  0  0  0  0
  149.9435  138.2935  154.2965 C   0  0  0  0  0  0  0  0  0  0  0  0
  149.2713  140.6389  155.0027 C   0  0  0  0  0  0  0  0  0  0  0  0
  150.3056  140.5641  155.9133 O   0  0  0  0  0  0  0  0  0  0  0  0
  150.6575  141.7339  156.6404 C   0  0  0  0  0  0  0  0  0  0  0  0
  151.6263  141.3432  157.7701 C   0  0  2  0  0  0  0  0  0  0  0  0
  150.8551  140.7038  158.7687 O   0  0  0  0  0  0  0  0  0  0  0  0
  152.3032  142.5798  158.4028 C   0  0  0  0  0  0  0  0  0  0  0  0
  152.8554  142.2834  159.7307 N   0  0  0  0  0  0  0  0  0  0  0  0
  152.5274  143.2151  160.6969 N   0  0  0  0  0  0  0  0  0  0  0  0
  152.9413  143.0960  161.9155 C   0  0  0  0  0  0  0  0  0  0  0  0
  152.5225  144.1725  162.8804 C   0  0  0  0  0  0  0  0  0  0  0  0
  153.7712  141.9550  162.2885 C   0  0  0  0  0  0  0  0  0  0  0  0
  154.2258  141.8635  163.7387 C   0  0  0  0  0  0  0  0  0  0  0  0
  154.0935  141.0519  161.3290 C   0  0  0  0  0  0  0  0  0  0  0  0
  154.9050  139.9089  161.5986 C   0  0  0  0  0  0  0  0  0  0  0  0
  155.5709  138.9916  161.8337 N   0  0  0  0  0  0  0  0  0  0  0  0
  153.6334  141.1845  159.9448 C   0  0  0  0  0  0  0  0  0  0  0  0
  153.9185  140.3885  159.0491 O   0  0  0  0  0  0  0  0  0  0  0  0
  148.4260  141.7693  154.8615 C   0  0  0  0  0  0  0  0  0  0  0  0
  145.5864  142.7600  153.2200 H   0  0  0  0  0  0  0  0  0  0  0  0
  147.0235  143.7894  153.2467 H   0  0  0  0  0  0  0  0  0  0  0  0
  146.2056  143.3672  154.7569 H   0  0  0  0  0  0  0  0  0  0  0  0
  146.3897  140.6497  152.3528 H   0  0  0  0  0  0  0  0  0  0  0  0
  147.8515  138.6691  152.5804 H   0  0  0  0  0  0  0  0  0  0  0  0
  149.8957  137.8939  155.3101 H   0  0  0  0  0  0  0  0  0  0  0  0
  150.9794  138.5547  154.0780 H   0  0  0  0  0  0  0  0  0  0  0  0
  149.6401  137.5048  153.6071 H   0  0  0  0  0  0  0  0  0  0  0  0
  151.1557  142.4193  155.9529 H   0  0  0  0  0  0  0  0  0  0  0  0
  149.7785  142.2427  157.0408 H   0  0  0  0  0  0  0  0  0  0  0  0
  152.3810  140.6577  157.3815 H   0  0  0  0  0  0  0  0  0  0  0  0
  151.2041  140.9382  159.6153 H   0  0  0  0  0  0  0  0  0  0  0  0
  153.1329  142.9017  157.7706 H   0  0  0  0  0  0  0  0  0  0  0  0
  151.6256  143.4360  158.4197 H   0  0  0  0  0  0  0  0  0  0  0  0
  153.3917  144.6254  163.3581 H   0  0  0  0  0  0  0  0  0  0  0  0
  151.8813  143.7629  163.6611 H   0  0  0  0  0  0  0  0  0  0  0  0
  151.9684  144.9708  162.3838 H   0  0  0  0  0  0  0  0  0  0  0  0
  154.7747  140.9443  163.9421 H   0  0  0  0  0  0  0  0  0  0  0  0
  153.3693  141.8859  164.4135 H   0  0  0  0  0  0  0  0  0  0  0  0
  154.8807  142.6998  163.9856 H   0  0  0  0  0  0  0  0  0  0  0  0
  148.5566  142.6478  155.4748 H   0  0  0  0  0  0  0  0  0  0  0  0
  1  2  1  0  0  0  0
  1 25  1  0  0  0  0
  1 26  1  0  0  0  0
  1 27  1  0  0  0  0
  2 24  1  0  0  0  0
  2  3  2  0  0  0  0
  3  4  1  0  0  0  0
  3 28  1  0  0  0  0
  4  5  2  0  0  0  0
  4 29  1  0  0  0  0
  5  6  1  0  0  0  0
  5  7  1  0  0  0  0
  6 30  1  0  0  0  0
  6 31  1  0  0  0  0
  6 32  1  0  0  0  0
  7  8  1  0  0  0  0
  7 24  2  0  0  0  0
  8  9  1  0  0  0  0
  9 10  1  0  0  0  0
  9 33  1  0  0  0  0
  9 34  1  0  0  0  0
 10 11  1  0  0  0  0
 10 12  1  0  0  0  0
 10 35  1  0  0  0  0
 11 36  1  0  0  0  0
 12 13  1  0  0  0  0
 12 37  1  0  0  0  0
 12 38  1  0  0  0  0
 13 22  1  0  0  0  0
 13 14  1  0  0  0  0
 14 15  2  0  0  0  0
 15 16  1  0  0  0  0
 15 17  1  0  0  0  0
 16 39  1  0  0  0  0
 16 40  1  0  0  0  0
 16 41  1  0  0  0  0
 17 18  1  0  0  0  0
 17 19  2  0  0  0  0
 18 42  1  0  0  0  0
 18 43  1  0  0  0  0
 18 44  1  0  0  0  0
 19 20  1  0  0  0  0
 19 22  1  0  0  0  0
 20 21  3  0  0  0  0
 22 23  2  0  0  0  0
 24 45  1  0  0  0  0
M  END
> <s_m_source_file>
AV-unprocessed.smi

> <i_m_source_file_index>
444

> <i_lp_mmshare_version>
43012

> <i_f3d_flags>
0

> <s_epik_input>
W0NIM11jMVtjSF1bY0hdYyhbQ0gzXSljKFtjSF0xKU9bQ0gyXVtDQEhdKFtPSF0pW0NIMl1uMm5jKFtDSDNdKWMoW0NIM10pYyhDI04pYzI9Tw==

> <s_epik_cmdline>
J2VwaWtfcHl0aG9uJywgJy1waCcsICc3LjAnLCAnLXRuJywgJzgnLCAnLW1hJywgJzIwMCcsICctbWV0YWxfYmluZGluZycsICctaW1hZScsICc8aW5maWxlLm1hZT4nLCAnLW9tYWUnLCAnPG91dGZpbGUubWFlPic=

> <r_lp_tautomer_probability>
1

> <r_epik_Ionization_Penalty>
1.17331e-07

> <r_epik_Ionization_Penalty_Charging>
1.57223e-10

> <r_epik_Ionization_Penalty_Neutral>
1.17174e-07

> <r_epik_State_Penalty>
-0

> <r_epik_Charging_Adjusted_Penalty>
1.57223e-10

> <i_epik_Tot_Q>
0

> <i_epik_Tot_abs_Q>
0

> <r_epik_Metal_State_Penalty>
-0

> <b_epik_Metal_Only>
0

> <s_lp_Force_Field>
OPLS_2005

> <r_lp_Energy>
32.4723

> <b_lp_Chiralities_Consistent>
1

> <s_lp_Variant>
AV-unprocessed.smi:444-1

> <Gold.Version>
5.8.1

> <Gold.Id.Protein>
6NUR|6NUR_protein|mol2

> <Gold.PLP.Fitness>
48.4456

> <Gold.PLP.PLP>
-46.9430

> <Gold.PLP.part.hbond>
-1.0000

> <Gold.PLP.part.metal>
0.0000

> <Gold.PLP.part.buried>
4.2878

> <Gold.PLP.part.nonpolar>
-48.2646

> <Gold.PLP.part.repulsive>
0.0806

> <Gold.PLP.ligand.clash>
0.0000

> <Gold.PLP.ligand.torsion>
0.4685

> <Gold.PLP.Chemscore.Hbond>
0.8089

> <Gold.PLP.Chemscore.CHOScore>
0.0000

> <Gold.PLP.Chemscore.Metal>
0.0000

> <Gold.Chemscore.Hbonds>
donor molecule, donor type, donor heavy atom, donor atom, acceptor molecule, acceptor atom, score
      P1  H  7997  8008       L1    23  0.77

> <Gold.PLP.Chemscore.Internal.Correction>
0.0129

> <Gold.Rescore>
     Score         DG    S(hbond)    S(metal)    S(lipo)     H(rot)  DE(clash)    DE(int)     intcor
     13.54     -17.71       0.88        0.00     129.59       2.29       2.42       1.75       ----

> <Gold.Chemscore.Fitness>
13.5379

> <Gold.Chemscore.DG>
-17.7126

> <Gold.Chemscore.ZeroCoef>
-5.4800

> <Gold.Chemscore.Hbond>
0.8785

> <Gold.Chemscore.Metal>
0.0000

> <Gold.Chemscore.Lipo>
129.5896

> <Gold.Chemscore.Internal_Hbond>
0.0000

> <Gold.Chemscore.DEClash>
2.4214

> <Gold.Chemscore.DEInternal>
1.7534

> <Gold.Chemscore.Rot>
2.2905

> <Gold.Chemscore.Internal.Correction>
   9.000000E+99

> <Gold.Chemscore.Hbonds>
donor molecule, donor type, donor heavy atom, donor atom, acceptor molecule, acceptor atom, score
      P1  H  7997  8008       L1    23  0.74

> <Gold.Chemscore.Hbond.Weighted>
-2.9342

> <Gold.Chemscore.Metal.Weighted>
-0.0000

> <Gold.Chemscore.Lipo.Weighted>
-15.1620

> <Gold.Chemscore.Internal_Hbond.Weighted>
0.0000

> <Gold.Chemscore.DEClash.Weighted>
2.4214

> <Gold.Chemscore.DEInternal.Weighted>
1.7534

> <Gold.Chemscore.Rot.Weighted>
5.8636

> <Gold.Chemscore.Internal.Correction.Weighted>
   9.000000E+99

> <Gold.Protein.RotatedTorsions>
[ 6907 6896 6895 6894 ] final  143.69 input  -60.11 | X-H torsion
[ 7974 7965 7964 7962 ] final -173.63 input  175.53 | X-H torsion
[ 8008 7997 7996 7995 ] final -105.81 input   59.86 | X-H torsion
[ 10167 10162 10161 10158 ] final   42.57 input  -65.29 | X-H torsion
[ 10718 10713 10712 10709 ] final -104.00 input   66.30 | X-H torsion
[ 10763 10752 10751 10750 ] final   97.94 input  -60.55 | X-H torsion
[ 11005 11000 10999 10996 ] final  150.55 input  -57.11 | X-H torsion

> <Gold.Protein.ActiveResidues>
 VAL166  LYS551  ARG553  GLY616  TRP617  ASP618  TYR619  PRO620  LYS621  CYS622 
 ASP623  PHE694  ASN695  SER759  ASP760  ASP761  ALA762  ILE779  LEU786  VAL792 
 PHE793  MET794  SER795  GLU796  ALA797  LYS798  CYS799  TRP800  GLU811  SER814 

> <Gold.Protein.RotatedAtoms>
  152.2031  133.4856  159.5069 H   0  0  0  0  0  0  0  0  0  0  0  0  # atno 6907 bound_to 6896
  150.6974  134.1564  159.4169 H   0  0  0  0  0  0  0  0  0  0  0  0  # atno 6908 bound_to 6896
  151.9482  135.0181  160.0591 H   0  0  0  0  0  0  0  0  0  0  0  0  # atno 6909 bound_to 6896
  144.7136  140.1593  143.6377 H   0  0  0  0  0  0  0  0  0  0  0  0  # atno 7974 bound_to 7965
  154.9052  140.0411  157.1916 H   0  0  0  0  0  0  0  0  0  0  0  0  # atno 8008 bound_to 7997
  154.8403  140.2913  155.5642 H   0  0  0  0  0  0  0  0  0  0  0  0  # atno 8009 bound_to 7997
  156.2992  140.2484  156.3344 H   0  0  0  0  0  0  0  0  0  0  0  0  # atno 8010 bound_to 7997
  140.3530  144.2326  150.6144 H   0  0  0  0  0  0  0  0  0  0  0  0  # atno 10167 bound_to 10162
  156.0287  130.5494  150.7334 H   0  0  0  0  0  0  0  0  0  0  0  0  # atno 10718 bound_to 10713
  153.2829  135.4166  155.1096 H   0  0  0  0  0  0  0  0  0  0  0  0  # atno 10763 bound_to 10752
  154.8495  135.3500  154.6086 H   0  0  0  0  0  0  0  0  0  0  0  0  # atno 10764 bound_to 10752
  153.6507  135.7053  153.5267 H   0  0  0  0  0  0  0  0  0  0  0  0  # atno 10765 bound_to 10752
  140.1141  134.8905  157.1979 H   0  0  0  0  0  0  0  0  0  0  0  0  # atno 11005 bound_to 11000
  145.9045  139.2450  143.1474 LP  0  0  0  0  0  0  0  0  0  0  0  0  # atno 17320 bound_to 7965
  145.9778  140.8708  143.0130 LP  0  0  0  0  0  0  0  0  0  0  0  0  # atno 17321 bound_to 7965
  140.5200  143.2268  151.8403 LP  0  0  0  0  0  0  0  0  0  0  0  0  # atno 17342 bound_to 10162
  139.4824  144.4848  151.9261 LP  0  0  0  0  0  0  0  0  0  0  0  0  # atno 17343 bound_to 10162
  157.4921  131.0911  151.0415 LP  0  0  0  0  0  0  0  0  0  0  0  0  # atno 17370 bound_to 10713
  157.0819  130.5906  149.5422 LP  0  0  0  0  0  0  0  0  0  0  0  0  # atno 17371 bound_to 10713
  140.3051  134.3087  155.7280 LP  0  0  0  0  0  0  0  0  0  0  0  0  # atno 17394 bound_to 11000
  141.2137  133.7616  156.9697 LP  0  0  0  0  0  0  0  0  0  0  0  0  # atno 17395 bound_to 11000

$$$$
