AV-unprocessed.smi:3263|AV-procd|sdf|12491|dock6
  -GOLD-   2272018393D 1   1.00000     0.00000
 Structure written by MMmdl.
 42 44  0  0  0  0  0  0  0  0  2 V2000
  149.4559  141.0413  155.9665 O   0  0  0  0  0  0  0  0  0  0  0  0
  149.5428  141.4125  157.1373 C   0  0  0  0  0  0  0  0  0  0  0  0
  150.8978  141.4489  157.8563 C   0  0  0  0  0  0  0  0  0  0  0  0
  151.0510  142.6182  158.8570 C   0  0  1  0  0  0  0  0  0  0  0  0
  152.4640  142.7504  159.4773 C   0  0  0  0  0  0  0  0  0  0  0  0
  152.8562  144.2026  159.1520 C   0  0  2  0  0  0  0  0  0  0  0  0
  151.9897  145.1678  159.9818 C   0  0  0  0  0  0  0  0  0  0  0  0
  150.6111  145.0528  159.3045 C   0  0  0  0  0  0  0  0  0  0  0  0
  150.8614  144.0063  158.2016 C   0  0  1  0  0  0  0  0  0  0  0  0
  152.2739  144.3713  157.7550 C   0  0  0  0  0  0  0  0  0  0  0  0
  148.4810  141.8029  157.8592 N   0  0  0  0  0  0  0  0  0  0  0  0
  147.1066  141.8385  157.3726 C   0  0  0  0  0  0  0  0  0  0  0  0
  146.4759  143.2303  157.5515 C   0  0  0  0  0  0  0  0  0  0  0  0
  146.2971  143.5966  159.0118 C   0  0  0  0  0  0  0  0  0  0  0  0
  145.4680  142.8494  159.8767 C   0  0  0  0  0  0  0  0  0  0  0  0
  145.3410  143.2477  161.2239 C   0  0  0  0  0  0  0  0  0  0  0  0
  146.0434  144.3835  161.6772 C   0  0  0  0  0  0  0  0  0  0  0  0
  146.8561  145.0936  160.7700 C   0  0  0  0  0  0  0  0  0  0  0  0
  146.9514  144.6811  159.4867 N   0  3  0  0  0  0  0  0  0  0  0  0
  151.0509  140.4925  158.3569 H   0  0  0  0  0  0  0  0  0  0  0  0
  151.6820  141.5271  157.1017 H   0  0  0  0  0  0  0  0  0  0  0  0
  150.3083  142.4901  159.6466 H   0  0  0  0  0  0  0  0  0  0  0  0
  152.4664  142.5497  160.5492 H   0  0  0  0  0  0  0  0  0  0  0  0
  153.1690  142.0606  159.0115 H   0  0  0  0  0  0  0  0  0  0  0  0
  153.9265  144.3947  159.2322 H   0  0  0  0  0  0  0  0  0  0  0  0
  151.9596  144.8910  161.0363 H   0  0  0  0  0  0  0  0  0  0  0  0
  152.3669  146.1889  159.9133 H   0  0  0  0  0  0  0  0  0  0  0  0
  149.8273  144.7502  159.9999 H   0  0  0  0  0  0  0  0  0  0  0  0
  150.3180  146.0093  158.8699 H   0  0  0  0  0  0  0  0  0  0  0  0
  150.1091  144.0268  157.4124 H   0  0  0  0  0  0  0  0  0  0  0  0
  152.3576  145.3900  157.3717 H   0  0  0  0  0  0  0  0  0  0  0  0
  152.6941  143.6799  157.0230 H   0  0  0  0  0  0  0  0  0  0  0  0
  148.6383  142.0973  158.8125 H   0  0  0  0  0  0  0  0  0  0  0  0
  147.1152  141.5639  156.3174 H   0  0  0  0  0  0  0  0  0  0  0  0
  146.5121  141.0806  157.8861 H   0  0  0  0  0  0  0  0  0  0  0  0
  147.0942  143.9912  157.0734 H   0  0  0  0  0  0  0  0  0  0  0  0
  145.5053  143.2682  157.0552 H   0  0  0  0  0  0  0  0  0  0  0  0
  144.9347  141.9826  159.5138 H   0  0  0  0  0  0  0  0  0  0  0  0
  144.7119  142.6889  161.9013 H   0  0  0  0  0  0  0  0  0  0  0  0
  145.9599  144.7049  162.7051 H   0  0  0  0  0  0  0  0  0  0  0  0
  147.4283  145.9722  161.0301 H   0  0  0  0  0  0  0  0  0  0  0  0
  147.5451  145.2105  158.8479 H   0  0  0  0  0  0  0  0  0  0  0  0
  1  2  2  0  0  0  0
  2  3  1  0  0  0  0
  2 11  1  0  0  0  0
  3  4  1  0  0  0  0
  3 20  1  0  0  0  0
  3 21  1  0  0  0  0
  4  9  1  0  0  0  0
  4  5  1  0  0  0  0
  4 22  1  0  0  0  0
  5  6  1  0  0  0  0
  5 23  1  0  0  0  0
  5 24  1  0  0  0  0
  6 10  1  0  0  0  0
  6  7  1  0  0  0  0
  6 25  1  0  0  0  0
  7  8  1  0  0  0  0
  7 26  1  0  0  0  0
  7 27  1  0  0  0  0
  8  9  1  0  0  0  0
  8 28  1  0  0  0  0
  8 29  1  0  0  0  0
  9 10  1  0  0  0  0
  9 30  1  0  0  0  0
 10 31  1  0  0  0  0
 10 32  1  0  0  0  0
 11 12  1  0  0  0  0
 11 33  1  0  0  0  0
 12 13  1  0  0  0  0
 12 34  1  0  0  0  0
 12 35  1  0  0  0  0
 13 14  1  0  0  0  0
 13 36  1  0  0  0  0
 13 37  1  0  0  0  0
 14 19  1  0  0  0  0
 14 15  2  0  0  0  0
 15 16  1  0  0  0  0
 15 38  1  0  0  0  0
 16 17  2  0  0  0  0
 16 39  1  0  0  0  0
 17 18  1  0  0  0  0
 17 40  1  0  0  0  0
 18 19  2  0  0  0  0
 18 41  1  0  0  0  0
 19 42  1  0  0  0  0
M  CHG  1  19   1
M  END
> <s_m_source_file>
AV-unprocessed.smi

> <i_m_source_file_index>
3263

> <i_lp_mmshare_version>
43012

> <i_f3d_flags>
0

> <s_epik_input>
W0NIMl0xW0NIMl1bQ0BASF0oW0NIMl0yKVtDQEBIXShbQ0gyXVtDQEhdMTIpW0NIMl1DKD1PKVtOSF1bQ0gyXVtDSDJdYzNbY0hdW2NIXVtjSF1bY0hdbjM=

> <s_epik_cmdline>
J2VwaWtfcHl0aG9uJywgJy1waCcsICc3LjAnLCAnLXRuJywgJzgnLCAnLW1hJywgJzIwMCcsICctbWV0YWxfYmluZGluZycsICctaW1hZScsICc8aW5maWxlLm1hZT4nLCAnLW9tYWUnLCAnPG91dGZpbGUubWFlPic=

> <r_epik_Ionization_Penalty>
1.83579

> <r_epik_Ionization_Penalty_Charging>
1.83579

> <r_epik_Ionization_Penalty_Neutral>
2.47288e-08

> <r_epik_State_Penalty>
1.95213

> <r_epik_Charging_Adjusted_Penalty>
3.78793

> <i_epik_Tot_Q>
1

> <i_epik_Tot_abs_Q>
1

> <r_epik_Metal_State_Penalty>
1.97847

> <b_epik_Metal_Only>
0

> <s_lp_Force_Field>
OPLS_2005

> <r_lp_Energy>
52.562

> <b_lp_Chiralities_Consistent>
1

> <s_lp_Variant>
AV-unprocessed.smi:3263-6

> <Gold.Version>
5.8.1

> <Gold.Id.Protein>
6NUR|6NUR_protein|mol2

> <Gold.PLP.Fitness>
47.1824

> <Gold.PLP.PLP>
-41.9263

> <Gold.PLP.part.hbond>
-1.0000

> <Gold.PLP.part.metal>
0.0000

> <Gold.PLP.part.buried>
-6.8903

> <Gold.PLP.part.nonpolar>
-34.7146

> <Gold.PLP.part.repulsive>
0.2736

> <Gold.PLP.ligand.clash>
0.0000

> <Gold.PLP.ligand.torsion>
0.3852

> <Gold.PLP.Chemscore.Hbond>
2.0000

> <Gold.PLP.Chemscore.CHOScore>
0.0000

> <Gold.PLP.Chemscore.Metal>
0.0000

> <Gold.Chemscore.Hbonds>
donor molecule, donor type, donor heavy atom, donor atom, acceptor molecule, acceptor atom, score
      L1  H    19    42       P1  8029  2.00

> <Gold.PLP.Chemscore.Internal.Correction>
0.0264

> <Gold.Rescore>
     Score         DG    S(hbond)    S(metal)    S(lipo)     H(rot)  DE(clash)    DE(int)     intcor
     17.77     -18.13       0.99        0.00     114.18       1.56       0.04       0.33       ----

> <Gold.Chemscore.Fitness>
17.7682

> <Gold.Chemscore.DG>
-18.1320

> <Gold.Chemscore.ZeroCoef>
-5.4800

> <Gold.Chemscore.Hbond>
0.9872

> <Gold.Chemscore.Metal>
0.0000

> <Gold.Chemscore.Lipo>
114.1757

> <Gold.Chemscore.Internal_Hbond>
0.0000

> <Gold.Chemscore.DEClash>
0.0358

> <Gold.Chemscore.DEInternal>
0.3280

> <Gold.Chemscore.Rot>
1.5640

> <Gold.Chemscore.Internal.Correction>
   9.000000E+99

> <Gold.Chemscore.Hbonds>
donor molecule, donor type, donor heavy atom, donor atom, acceptor molecule, acceptor atom, score
      L1  H    19    42       P1  8029  0.96

> <Gold.Chemscore.Hbond.Weighted>
-3.2972

> <Gold.Chemscore.Metal.Weighted>
-0.0000

> <Gold.Chemscore.Lipo.Weighted>
-13.3586

> <Gold.Chemscore.Internal_Hbond.Weighted>
0.0000

> <Gold.Chemscore.DEClash.Weighted>
0.0358

> <Gold.Chemscore.DEInternal.Weighted>
0.3280

> <Gold.Chemscore.Rot.Weighted>
4.0038

> <Gold.Chemscore.Internal.Correction.Weighted>
   9.000000E+99

> <Gold.Protein.RotatedTorsions>
[ 6907 6896 6895 6894 ] final  167.35 input  -60.11 | X-H torsion
[ 7974 7965 7964 7962 ] final  -34.68 input  175.53 | X-H torsion
[ 8008 7997 7996 7995 ] final -177.56 input   59.86 | X-H torsion
[ 10167 10162 10161 10158 ] final   93.87 input  -65.29 | X-H torsion
[ 10718 10713 10712 10709 ] final -164.91 input   66.30 | X-H torsion
[ 10763 10752 10751 10750 ] final  117.63 input  -60.55 | X-H torsion
[ 11005 11000 10999 10996 ] final  -55.22 input  -57.11 | X-H torsion

> <Gold.Protein.ActiveResidues>
 VAL166  LYS551  ARG553  GLY616  TRP617  ASP618  TYR619  PRO620  LYS621  CYS622 
 ASP623  PHE694  ASN695  SER759  ASP760  ASP761  ALA762  ILE779  LEU786  VAL792 
 PHE793  MET794  SER795  GLU796  ALA797  LYS798  CYS799  TRP800  GLU811  SER814 

> <Gold.Protein.RotatedAtoms>
  151.8646  133.3464  159.3714 H   0  0  0  0  0  0  0  0  0  0  0  0  # atno 6907 bound_to 6896
  150.7169  134.5172  159.5645 H   0  0  0  0  0  0  0  0  0  0  0  0  # atno 6908 bound_to 6896
  152.2692  134.7951  160.0468 H   0  0  0  0  0  0  0  0  0  0  0  0  # atno 6909 bound_to 6896
  146.0809  140.6068  142.8909 H   0  0  0  0  0  0  0  0  0  0  0  0  # atno 7974 bound_to 7965
  156.0084  140.1235  157.0478 H   0  0  0  0  0  0  0  0  0  0  0  0  # atno 8008 bound_to 7997
  154.4267  140.1092  156.5864 H   0  0  0  0  0  0  0  0  0  0  0  0  # atno 8009 bound_to 7997
  155.6114  140.3471  155.4626 H   0  0  0  0  0  0  0  0  0  0  0  0  # atno 8010 bound_to 7997
  139.8138  144.6761  150.9606 H   0  0  0  0  0  0  0  0  0  0  0  0  # atno 10167 bound_to 10162
  156.6459  130.8987  151.3004 H   0  0  0  0  0  0  0  0  0  0  0  0  # atno 10718 bound_to 10713
  153.5554  135.3531  155.2777 H   0  0  0  0  0  0  0  0  0  0  0  0  # atno 10763 bound_to 10752
  154.8702  135.4124  154.2891 H   0  0  0  0  0  0  0  0  0  0  0  0  # atno 10764 bound_to 10752
  153.3625  135.7060  153.6770 H   0  0  0  0  0  0  0  0  0  0  0  0  # atno 10765 bound_to 10752
  141.1063  133.6613  156.4437 H   0  0  0  0  0  0  0  0  0  0  0  0  # atno 11005 bound_to 11000
  144.7293  140.4621  143.6950 LP  0  0  0  0  0  0  0  0  0  0  0  0  # atno 17320 bound_to 7965
  145.6219  139.1525  143.3017 LP  0  0  0  0  0  0  0  0  0  0  0  0  # atno 17321 bound_to 7965
  140.7816  143.4158  151.0919 LP  0  0  0  0  0  0  0  0  0  0  0  0  # atno 17342 bound_to 10162
  139.7823  143.8337  152.3139 LP  0  0  0  0  0  0  0  0  0  0  0  0  # atno 17343 bound_to 10162
  157.7156  130.9493  150.1244 LP  0  0  0  0  0  0  0  0  0  0  0  0  # atno 17370 bound_to 10713
  156.2122  130.3667  149.8656 LP  0  0  0  0  0  0  0  0  0  0  0  0  # atno 17371 bound_to 10713
  140.4892  134.6591  157.5204 LP  0  0  0  0  0  0  0  0  0  0  0  0  # atno 17394 bound_to 11000
  139.9935  134.6947  155.9648 LP  0  0  0  0  0  0  0  0  0  0  0  0  # atno 17395 bound_to 11000

$$$$
