AV-unprocessed.smi:118|AV-procd|sdf|1132|dock1
  -GOLD-   2262018263D 1   1.00000     0.00000
 Structure written by MMmdl.
 41 44  0  0  0  0  0  0  0  0  1 V2000
  149.8617  137.2572  160.5129 O   0  0  0  0  0  0  0  0  0  0  0  0
  149.5995  136.9486  159.3496 C   0  0  0  0  0  0  0  0  0  0  0  0
  150.2314  137.7186  158.1790 C   0  0  0  0  0  0  0  0  0  0  0  0
  151.2109  138.7389  158.6128 N   0  0  0  0  0  0  0  0  0  0  0  0
  152.2601  138.3548  159.4842 C   0  0  0  0  0  0  0  0  0  0  0  0
  152.3769  137.1907  159.8700 O   0  0  0  0  0  0  0  0  0  0  0  0
  153.1679  139.4235  159.8856 C   0  0  0  0  0  0  0  0  0  0  0  0
  154.2042  139.1470  160.6954 F   0  0  0  0  0  0  0  0  0  0  0  0
  152.9853  140.6894  159.4565 C   0  0  0  0  0  0  0  0  0  0  0  0
  151.9417  141.0552  158.6245 N   0  0  0  0  0  0  0  0  0  0  0  0
  151.7469  142.4824  158.1542 C   0  0  1  0  0  0  0  0  0  0  0  0
  150.3900  143.0353  158.6354 C   0  0  0  0  0  0  0  0  0  0  0  0
  150.7776  144.3215  159.3380 C   0  0  0  0  0  0  0  0  0  0  0  0
  152.1895  144.0112  159.8108 C   0  0  0  0  0  0  0  0  0  0  0  0
  152.7358  143.3046  158.7052 O   0  0  0  0  0  0  0  0  0  0  0  0
  151.0353  140.0720  158.1717 C   0  0  0  0  0  0  0  0  0  0  0  0
  150.1083  140.3733  157.4162 O   0  0  0  0  0  0  0  0  0  0  0  0
  148.7622  135.9570  158.9966 N   0  0  0  0  0  0  0  0  0  0  0  0
  148.0171  135.0869  159.8398 C   0  0  0  0  0  0  0  0  0  0  0  0
  147.8019  133.7145  159.5508 C   0  0  0  0  0  0  0  0  0  0  0  0
  147.0381  132.9030  160.4194 C   0  0  0  0  0  0  0  0  0  0  0  0
  146.4629  133.4427  161.5877 C   0  0  0  0  0  0  0  0  0  0  0  0
  146.6581  134.8066  161.8691 C   0  0  0  0  0  0  0  0  0  0  0  0
  147.4227  135.6229  161.0037 C   0  0  0  0  0  0  0  0  0  0  0  0
  147.5148  136.9470  161.4293 N   0  0  0  0  0  0  0  0  0  0  0  0
  146.6905  136.8815  162.7151 S   0  0  0  0  0  0  0  0  0  0  0  0
  146.1465  135.4768  162.9751 N   0  0  0  0  0  0  0  0  0  0  0  0
  150.6821  136.9942  157.4992 H   0  0  0  0  0  0  0  0  0  0  0  0
  149.4395  138.1793  157.5856 H   0  0  0  0  0  0  0  0  0  0  0  0
  153.6957  141.4309  159.7882 H   0  0  0  0  0  0  0  0  0  0  0  0
  151.8577  142.4489  157.0689 H   0  0  0  0  0  0  0  0  0  0  0  0
  149.7131  143.1938  157.7954 H   0  0  0  0  0  0  0  0  0  0  0  0
  149.9248  142.3432  159.3395 H   0  0  0  0  0  0  0  0  0  0  0  0
  150.7955  145.1474  158.6258 H   0  0  0  0  0  0  0  0  0  0  0  0
  150.1017  144.5842  160.1520 H   0  0  0  0  0  0  0  0  0  0  0  0
  152.7656  144.9075  160.0407 H   0  0  0  0  0  0  0  0  0  0  0  0
  152.1725  143.3738  160.6960 H   0  0  0  0  0  0  0  0  0  0  0  0
  148.5681  135.8727  158.0093 H   0  0  0  0  0  0  0  0  0  0  0  0
  148.2039  133.2627  158.6572 H   0  0  0  0  0  0  0  0  0  0  0  0
  146.8891  131.8598  160.1829 H   0  0  0  0  0  0  0  0  0  0  0  0
  145.8782  132.8213  162.2500 H   0  0  0  0  0  0  0  0  0  0  0  0
  1  2  2  0  0  0  0
  2  3  1  0  0  0  0
  2 18  1  0  0  0  0
  3  4  1  0  0  0  0
  3 28  1  0  0  0  0
  3 29  1  0  0  0  0
  4 16  1  0  0  0  0
  4  5  1  0  0  0  0
  5  6  2  0  0  0  0
  5  7  1  0  0  0  0
  7  8  1  0  0  0  0
  7  9  2  0  0  0  0
  9 10  1  0  0  0  0
  9 30  1  0  0  0  0
 10 11  1  0  0  0  0
 10 16  1  0  0  0  0
 11 15  1  0  0  0  0
 11 12  1  0  0  0  0
 11 31  1  0  0  0  0
 12 13  1  0  0  0  0
 12 32  1  0  0  0  0
 12 33  1  0  0  0  0
 13 14  1  0  0  0  0
 13 34  1  0  0  0  0
 13 35  1  0  0  0  0
 14 15  1  0  0  0  0
 14 36  1  0  0  0  0
 14 37  1  0  0  0  0
 16 17  2  0  0  0  0
 18 19  1  0  0  0  0
 18 38  1  0  0  0  0
 19 24  1  0  0  0  0
 19 20  2  0  0  0  0
 20 21  1  0  0  0  0
 20 39  1  0  0  0  0
 21 22  2  0  0  0  0
 21 40  1  0  0  0  0
 22 23  1  0  0  0  0
 22 41  1  0  0  0  0
 23 27  1  0  0  0  0
 23 24  2  0  0  0  0
 24 25  1  0  0  0  0
 25 26  2  0  0  0  0
 26 27  2  0  0  0  0
M  END
> <s_m_source_file>
AV-unprocessed.smi

> <i_m_source_file_index>
118

> <i_lp_mmshare_version>
43012

> <i_f3d_flags>
0

> <s_epik_input>
TjE9Uz1OYyhjMTIpYyhbY0hdW2NIXVtjSF0yKVtOSF1DKD1PKVtDSDJdbjNjKD1PKWMoRilbY0hdbihjMz1PKVtDQEBIXTRbQ0gyXVtDSDJdW0NIMl1PNA==

> <s_epik_cmdline>
J2VwaWtfcHl0aG9uJywgJy1waCcsICc3LjAnLCAnLXRuJywgJzgnLCAnLW1hJywgJzIwMCcsICctbWV0YWxfYmluZGluZycsICctaW1hZScsICc8aW5maWxlLm1hZT4nLCAnLW9tYWUnLCAnPG91dGZpbGUubWFlPic=

> <r_lp_tautomer_probability>
1

> <r_epik_Ionization_Penalty>
1.81156e-06

> <r_epik_Ionization_Penalty_Charging>
3.88729e-08

> <r_epik_Ionization_Penalty_Neutral>
1.77269e-06

> <r_epik_State_Penalty>
-0

> <r_epik_Charging_Adjusted_Penalty>
3.88729e-08

> <i_epik_Tot_Q>
0

> <i_epik_Tot_abs_Q>
0

> <r_epik_Metal_State_Penalty>
-0

> <b_epik_Metal_Only>
0

> <s_epik_Chemistry_Notes>
This compound contains an acetal/aminal-like group ( X-CH(R)-Y where X, Y are N, S, or O) that may be acid/base labile, releasing an aldehyde.

> <s_lp_Force_Field>
OPLS_2005

> <r_lp_Energy>
52.0747

> <b_lp_Chiralities_Consistent>
1

> <s_lp_Variant>
AV-unprocessed.smi:118-2

> <Gold.Version>
5.8.1

> <Gold.Id.Protein>
6NUR|6NUR_protein|mol2

> <Gold.PLP.Fitness>
46.4885

> <Gold.PLP.PLP>
-41.1867

> <Gold.PLP.part.hbond>
-3.3289

> <Gold.PLP.part.metal>
0.0000

> <Gold.PLP.part.buried>
-5.6411

> <Gold.PLP.part.nonpolar>
-33.5329

> <Gold.PLP.part.repulsive>
0.1301

> <Gold.PLP.ligand.clash>
0.0000

> <Gold.PLP.ligand.torsion>
0.3555

> <Gold.PLP.Chemscore.Hbond>
2.0002

> <Gold.PLP.Chemscore.CHOScore>
0.0000

> <Gold.PLP.Chemscore.Metal>
0.0000

> <Gold.Chemscore.Hbonds>
donor molecule, donor type, donor heavy atom, donor atom, acceptor molecule, acceptor atom, score
      P1  H  6896  6907       L1     6  0.75
      P1  H  6931  6943       L1    25  0.94
      P1  H  6934  6947       L1    25  0.59

> <Gold.PLP.Chemscore.Internal.Correction>
0.0122

> <Gold.Rescore>
     Score         DG    S(hbond)    S(metal)    S(lipo)     H(rot)  DE(clash)    DE(int)     intcor
      6.00     -16.12       1.82        0.00      78.37       1.80       0.67       9.44       ----

> <Gold.Chemscore.Fitness>
6.0002

> <Gold.Chemscore.DG>
-16.1188

> <Gold.Chemscore.ZeroCoef>
-5.4800

> <Gold.Chemscore.Hbond>
1.8179

> <Gold.Chemscore.Metal>
0.0000

> <Gold.Chemscore.Lipo>
78.3699

> <Gold.Chemscore.Internal_Hbond>
0.0000

> <Gold.Chemscore.DEClash>
0.6737

> <Gold.Chemscore.DEInternal>
9.4449

> <Gold.Chemscore.Rot>
1.7977

> <Gold.Chemscore.Internal.Correction>
   9.000000E+99

> <Gold.Chemscore.Hbonds>
donor molecule, donor type, donor heavy atom, donor atom, acceptor molecule, acceptor atom, score
      P1  H  6896  6907       L1     6  0.73
      P1  H  6931  6943       L1    25  0.34
      P1  H  6934  6947       L1    25  0.13

> <Gold.Chemscore.Hbond.Weighted>
-6.0717

> <Gold.Chemscore.Metal.Weighted>
-0.0000

> <Gold.Chemscore.Lipo.Weighted>
-9.1693

> <Gold.Chemscore.Internal_Hbond.Weighted>
0.0000

> <Gold.Chemscore.DEClash.Weighted>
0.6737

> <Gold.Chemscore.DEInternal.Weighted>
9.4449

> <Gold.Chemscore.Rot.Weighted>
4.6022

> <Gold.Chemscore.Internal.Correction.Weighted>
   9.000000E+99

> <Gold.Protein.RotatedTorsions>
[ 6907 6896 6895 6894 ] final   15.66 input  -60.11 | X-H torsion
[ 7974 7965 7964 7962 ] final   24.00 input  175.53 | X-H torsion
[ 8008 7997 7996 7995 ] final  -71.13 input   59.86 | X-H torsion
[ 10167 10162 10161 10158 ] final -149.97 input  -65.29 | X-H torsion
[ 10718 10713 10712 10709 ] final -177.22 input   66.30 | X-H torsion
[ 10763 10752 10751 10750 ] final   21.14 input  -60.55 | X-H torsion
[ 11005 11000 10999 10996 ] final   53.90 input  -57.11 | X-H torsion

> <Gold.Protein.ActiveResidues>
 VAL166  LYS551  ARG553  GLY616  TRP617  ASP618  TYR619  PRO620  LYS621  CYS622 
 ASP623  PHE694  ASN695  SER759  ASP760  ASP761  ALA762  ILE779  LEU786  VAL792 
 PHE793  MET794  SER795  GLU796  ALA797  LYS798  CYS799  TRP800  GLU811  SER814 

> <Gold.Protein.RotatedAtoms>
  151.8216  135.0650  160.0425 H   0  0  0  0  0  0  0  0  0  0  0  0  # atno 6907 bound_to 6896
  152.2947  133.5591  159.5588 H   0  0  0  0  0  0  0  0  0  0  0  0  # atno 6908 bound_to 6896
  150.7245  134.0295  159.3770 H   0  0  0  0  0  0  0  0  0  0  0  0  # atno 6909 bound_to 6896
  146.1958  139.7666  142.8798 H   0  0  0  0  0  0  0  0  0  0  0  0  # atno 7974 bound_to 7965
  154.5064  140.0821  156.7903 H   0  0  0  0  0  0  0  0  0  0  0  0  # atno 8008 bound_to 7997
  155.3884  140.3431  155.4232 H   0  0  0  0  0  0  0  0  0  0  0  0  # atno 8009 bound_to 7997
  156.1521  140.1561  156.8741 H   0  0  0  0  0  0  0  0  0  0  0  0  # atno 8010 bound_to 7997
  139.7395  143.8684  152.2558 H   0  0  0  0  0  0  0  0  0  0  0  0  # atno 10167 bound_to 10162
  156.8263  130.9637  151.3109 H   0  0  0  0  0  0  0  0  0  0  0  0  # atno 10718 bound_to 10713
  153.1019  135.6675  153.9656 H   0  0  0  0  0  0  0  0  0  0  0  0  # atno 10763 bound_to 10752
  153.9224  135.3013  155.3449 H   0  0  0  0  0  0  0  0  0  0  0  0  # atno 10764 bound_to 10752
  154.7440  135.5066  153.9248 H   0  0  0  0  0  0  0  0  0  0  0  0  # atno 10765 bound_to 10752
  140.0730  134.5444  155.9026 H   0  0  0  0  0  0  0  0  0  0  0  0  # atno 11005 bound_to 11000
  145.3647  141.0332  143.3265 LP  0  0  0  0  0  0  0  0  0  0  0  0  # atno 17320 bound_to 7965
  144.8578  139.5223  143.6826 LP  0  0  0  0  0  0  0  0  0  0  0  0  # atno 17321 bound_to 7965
  139.8630  144.7107  150.9077 LP  0  0  0  0  0  0  0  0  0  0  0  0  # atno 17342 bound_to 10162
  140.7784  143.3801  151.1491 LP  0  0  0  0  0  0  0  0  0  0  0  0  # atno 17343 bound_to 10162
  157.6430  130.8821  149.9485 LP  0  0  0  0  0  0  0  0  0  0  0  0  # atno 17370 bound_to 10713
  156.0960  130.3659  150.0306 LP  0  0  0  0  0  0  0  0  0  0  0  0  # atno 17371 bound_to 10713
  141.2019  133.6621  156.5975 LP  0  0  0  0  0  0  0  0  0  0  0  0  # atno 17394 bound_to 11000
  140.3599  134.7696  157.4527 LP  0  0  0  0  0  0  0  0  0  0  0  0  # atno 17395 bound_to 11000

$$$$
