AV-unprocessed.smi:109|AV-procd|sdf|1035|dock7
  -GOLD-   2262018 53D 1   1.00000     0.00000
 Structure written by MMmdl.
 58 61  0  0  0  0  0  0  0  0  1 V2000
  148.6562  141.2933  153.3831 O   0  0  0  0  0  0  0  0  0  0  0  0
  149.6369  140.8191  154.2805 C   0  0  0  0  0  0  0  0  0  0  0  0
  149.6123  141.6569  155.5702 C   0  0  0  0  0  0  0  0  0  0  0  0
  150.9127  141.5799  156.4082 C   0  0  2  0  0  0  0  0  0  0  0  0
  151.1141  140.2063  156.8749 N   0  0  0  0  0  0  0  0  0  0  0  0
  151.4528  139.2007  156.0370 C   0  0  0  0  0  0  0  0  0  0  0  0
  152.0615  139.4409  154.8472 N   0  0  0  0  0  0  0  0  0  0  0  0
  152.3790  138.4239  154.0417 C   0  0  0  0  0  0  0  0  0  0  0  0
  152.1796  137.1181  154.2302 N   0  0  0  0  0  0  0  0  0  0  0  0
  151.5640  136.8659  155.4231 C   0  0  0  0  0  0  0  0  0  0  0  0
  151.1783  137.8506  156.3762 C   0  0  0  0  0  0  0  0  0  0  0  0
  150.6034  137.2385  157.4803 N   0  0  0  0  0  0  0  0  0  0  0  0
  150.6582  135.9656  157.1978 C   0  0  0  0  0  0  0  0  0  0  0  0
  151.1865  135.6483  155.9631 N   0  0  0  0  0  0  0  0  0  0  0  0
  151.4051  134.2755  155.3827 C   0  0  2  0  0  0  0  0  0  0  0  0
  150.6888  134.1678  154.1912 O   0  0  0  0  0  0  0  0  0  0  0  0
  149.3912  133.6620  154.4734 C   0  0  1  0  0  0  0  0  0  0  0  0
  148.6721  133.2168  153.1890 C   0  0  0  0  0  0  0  0  0  0  0  0
  148.0239  134.3228  152.5982 O   0  0  0  0  0  0  0  0  0  0  0  0
  149.7184  132.5528  155.4802 C   0  0  1  0  0  0  0  0  0  0  0  0
  150.1353  131.3725  154.8114 O   0  0  0  0  0  0  0  0  0  0  0  0
  150.8327  133.1865  156.3182 C   0  0  1  0  0  0  0  0  0  0  0  0
  151.8071  132.2524  156.7429 O   0  0  0  0  0  0  0  0  0  0  0  0
  150.9186  142.5426  157.6315 C   0  0  0  0  0  0  0  0  0  0  0  0
  151.0975  144.0318  157.2414 C   0  0  0  0  0  0  0  0  0  0  0  0
  151.1308  144.9601  158.4671 C   0  0  0  0  0  0  0  0  0  0  0  0
  152.2240  144.5450  159.4587 C   0  0  0  0  0  0  0  0  0  0  0  0
  152.0476  143.0797  159.8735 C   0  0  0  0  0  0  0  0  0  0  0  0
  152.0243  142.1543  158.6471 C   0  0  0  0  0  0  0  0  0  0  0  0
  152.4814  134.2196  155.2143 H   0  0  0  0  0  0  0  0  0  0  0  0
  148.8055  134.4315  154.9817 H   0  0  0  0  0  0  0  0  0  0  0  0
  148.8510  132.3033  156.0922 H   0  0  0  0  0  0  0  0  0  0  0  0
  150.3850  133.6437  157.2005 H   0  0  0  0  0  0  0  0  0  0  0  0
  147.9542  140.6619  153.3446 H   0  0  0  0  0  0  0  0  0  0  0  0
  149.4375  139.7676  154.4865 H   0  0  0  0  0  0  0  0  0  0  0  0
  150.6139  140.8813  153.8006 H   0  0  0  0  0  0  0  0  0  0  0  0
  149.4278  142.6859  155.2669 H   0  0  0  0  0  0  0  0  0  0  0  0
  148.7616  141.3604  156.1854 H   0  0  0  0  0  0  0  0  0  0  0  0
  151.7394  141.8891  155.7684 H   0  0  0  0  0  0  0  0  0  0  0  0
  151.0876  140.0853  157.8771 H   0  0  0  0  0  0  0  0  0  0  0  0
  152.8594  138.6950  153.1133 H   0  0  0  0  0  0  0  0  0  0  0  0
  150.3065  135.2162  157.8924 H   0  0  0  0  0  0  0  0  0  0  0  0
  149.3637  132.7610  152.4800 H   0  0  0  0  0  0  0  0  0  0  0  0
  147.9072  132.4759  153.4235 H   0  0  0  0  0  0  0  0  0  0  0  0
  148.6744  134.9805  152.4033 H   0  0  0  0  0  0  0  0  0  0  0  0
  149.3836  130.9906  154.3839 H   0  0  0  0  0  0  0  0  0  0  0  0
  151.4898  131.3839  156.5465 H   0  0  0  0  0  0  0  0  0  0  0  0
  149.9547  142.4488  158.1350 H   0  0  0  0  0  0  0  0  0  0  0  0
  152.0151  144.1542  156.6643 H   0  0  0  0  0  0  0  0  0  0  0  0
  150.2818  144.3689  156.6042 H   0  0  0  0  0  0  0  0  0  0  0  0
  151.2924  145.9901  158.1479 H   0  0  0  0  0  0  0  0  0  0  0  0
  150.1603  144.9403  158.9648 H   0  0  0  0  0  0  0  0  0  0  0  0
  153.2054  144.6836  159.0037 H   0  0  0  0  0  0  0  0  0  0  0  0
  152.1945  145.1884  160.3385 H   0  0  0  0  0  0  0  0  0  0  0  0
  152.8544  142.7855  160.5454 H   0  0  0  0  0  0  0  0  0  0  0  0
  151.1193  142.9657  160.4350 H   0  0  0  0  0  0  0  0  0  0  0  0
  151.8887  141.1309  158.9971 H   0  0  0  0  0  0  0  0  0  0  0  0
  152.9979  142.1806  158.1557 H   0  0  0  0  0  0  0  0  0  0  0  0
  1  2  1  0  0  0  0
  1 34  1  0  0  0  0
  2  3  1  0  0  0  0
  2 35  1  0  0  0  0
  2 36  1  0  0  0  0
  3  4  1  0  0  0  0
  3 37  1  0  0  0  0
  3 38  1  0  0  0  0
  4  5  1  0  0  0  0
  4 24  1  0  0  0  0
  4 39  1  0  0  0  0
  5  6  1  0  0  0  0
  5 40  1  0  0  0  0
  6 11  1  0  0  0  0
  6  7  2  0  0  0  0
  7  8  1  0  0  0  0
  8  9  2  0  0  0  0
  8 41  1  0  0  0  0
  9 10  1  0  0  0  0
 10 14  1  0  0  0  0
 10 11  2  0  0  0  0
 11 12  1  0  0  0  0
 12 13  2  0  0  0  0
 13 14  1  0  0  0  0
 13 42  1  0  0  0  0
 14 15  1  0  0  0  0
 15 30  1  0  0  0  0
 15 22  1  0  0  0  0
 15 16  1  0  0  0  0
 16 17  1  0  0  0  0
 17 31  1  0  0  0  0
 17 18  1  0  0  0  0
 17 20  1  0  0  0  0
 18 19  1  0  0  0  0
 18 43  1  0  0  0  0
 18 44  1  0  0  0  0
 19 45  1  0  0  0  0
 20 32  1  0  0  0  0
 20 21  1  0  0  0  0
 20 22  1  0  0  0  0
 21 46  1  0  0  0  0
 22 33  1  0  0  0  0
 22 23  1  0  0  0  0
 23 47  1  0  0  0  0
 24 29  1  0  0  0  0
 24 25  1  0  0  0  0
 24 48  1  0  0  0  0
 25 26  1  0  0  0  0
 25 49  1  0  0  0  0
 25 50  1  0  0  0  0
 26 27  1  0  0  0  0
 26 51  1  0  0  0  0
 26 52  1  0  0  0  0
 27 28  1  0  0  0  0
 27 53  1  0  0  0  0
 27 54  1  0  0  0  0
 28 29  1  0  0  0  0
 28 55  1  0  0  0  0
 28 56  1  0  0  0  0
 29 57  1  0  0  0  0
 29 58  1  0  0  0  0
M  END
> <s_m_source_file>
AV-unprocessed.smi

> <i_m_source_file_index>
109

> <i_lp_mmshare_version>
43012

> <i_f3d_flags>
0

> <s_epik_input>
W0NIMl0xW0NIMl1bQ0gyXVtDSDJdW0NIMl1bQ0hdMVtDQEhdKFtDSDJdW0NIMl1bT0hdKVtOSF1jKG5bY0hdbjIpYyhjMjMpbltjSF1uM1tDQEBIXTRPW0NASF0oW0NIMl1bT0hdKVtDQEBIXShbT0hdKVtDQEhdNFtPSF0=

> <s_epik_cmdline>
J2VwaWtfcHl0aG9uJywgJy1waCcsICc3LjAnLCAnLXRuJywgJzgnLCAnLW1hJywgJzIwMCcsICctbWV0YWxfYmluZGluZycsICctaW1hZScsICc8aW5maWxlLm1hZT4nLCAnLW9tYWUnLCAnPG91dGZpbGUubWFlPic=

> <r_lp_tautomer_probability>
1

> <r_epik_Ionization_Penalty>
0.000793976

> <r_epik_Ionization_Penalty_Charging>
0

> <r_epik_Ionization_Penalty_Neutral>
0.000793976

> <r_epik_State_Penalty>
-0

> <r_epik_Charging_Adjusted_Penalty>
0

> <i_epik_Tot_Q>
0

> <i_epik_Tot_abs_Q>
0

> <r_epik_Metal_State_Penalty>
-0

> <b_epik_Metal_Only>
0

> <s_epik_Chemistry_Notes>
This compound contains an acetal/aminal-like group ( X-CH(R)-Y where X, Y are N, S, or O) that may be acid/base labile, releasing an aldehyde.

> <s_lp_Force_Field>
OPLS_2005

> <r_lp_Energy>
57.9127

> <b_lp_Chiralities_Consistent>
1

> <s_lp_Variant>
AV-unprocessed.smi:109-5

> <Gold.Version>
5.8.1

> <Gold.Id.Protein>
6NUR|6NUR_protein|mol2

> <Gold.PLP.Fitness>
55.1948

> <Gold.PLP.PLP>
-46.3667

> <Gold.PLP.part.hbond>
-4.8456

> <Gold.PLP.part.metal>
0.0000

> <Gold.PLP.part.buried>
-3.3030

> <Gold.PLP.part.nonpolar>
-38.7530

> <Gold.PLP.part.repulsive>
0.7680

> <Gold.PLP.ligand.clash>
0.0000

> <Gold.PLP.ligand.torsion>
0.8849

> <Gold.PLP.Chemscore.Hbond>
3.4988

> <Gold.PLP.Chemscore.CHOScore>
0.0000

> <Gold.PLP.Chemscore.Metal>
0.0000

> <Gold.Chemscore.Hbonds>
donor molecule, donor type, donor heavy atom, donor atom, acceptor molecule, acceptor atom, score
      L1  H    19    45       P1  7948  0.36
      P1  H  7989  7998       L1     7  0.90
      P1  H  8011  8017       L1     1  0.81
      P1  H 10752 10765       L1     9  0.85

> <Gold.PLP.Chemscore.Internal.Correction>
0.1016

> <Gold.Rescore>
     Score         DG    S(hbond)    S(metal)    S(lipo)     H(rot)  DE(clash)    DE(int)     intcor
      8.55     -10.90       2.11        0.00     105.78       5.47       0.09       2.26       ----

> <Gold.Chemscore.Fitness>
8.5458

> <Gold.Chemscore.DG>
-10.8960

> <Gold.Chemscore.ZeroCoef>
-5.4800

> <Gold.Chemscore.Hbond>
2.1058

> <Gold.Chemscore.Metal>
0.0000

> <Gold.Chemscore.Lipo>
105.7789

> <Gold.Chemscore.Internal_Hbond>
0.0000

> <Gold.Chemscore.DEClash>
0.0927

> <Gold.Chemscore.DEInternal>
2.2575

> <Gold.Chemscore.Rot>
5.4662

> <Gold.Chemscore.Internal.Correction>
   9.000000E+99

> <Gold.Chemscore.Hbonds>
donor molecule, donor type, donor heavy atom, donor atom, acceptor molecule, acceptor atom, score
      L1  H    19    45       P1  7948  0.04
      P1  H  7989  7998       L1     7  0.22
      P1  H  8011  8017       L1     1  0.16
      P1  H 10752 10765       L1     9  0.19

> <Gold.Chemscore.Hbond.Weighted>
-7.0334

> <Gold.Chemscore.Metal.Weighted>
-0.0000

> <Gold.Chemscore.Lipo.Weighted>
-12.3761

> <Gold.Chemscore.Internal_Hbond.Weighted>
0.0000

> <Gold.Chemscore.DEClash.Weighted>
0.0927

> <Gold.Chemscore.DEInternal.Weighted>
2.2575

> <Gold.Chemscore.Rot.Weighted>
13.9935

> <Gold.Chemscore.Internal.Correction.Weighted>
   9.000000E+99

> <Gold.Protein.RotatedTorsions>
[ 6907 6896 6895 6894 ] final  163.82 input  -60.11 | X-H torsion
[ 7974 7965 7964 7962 ] final -142.33 input  175.53 | X-H torsion
[ 8008 7997 7996 7995 ] final  160.03 input   59.86 | X-H torsion
[ 10167 10162 10161 10158 ] final   44.03 input  -65.29 | X-H torsion
[ 10718 10713 10712 10709 ] final -176.21 input   66.30 | X-H torsion
[ 10763 10752 10751 10750 ] final  147.81 input  -60.55 | X-H torsion
[ 11005 11000 10999 10996 ] final  105.70 input  -57.11 | X-H torsion

> <Gold.Protein.ActiveResidues>
 VAL166  LYS551  ARG553  GLY616  TRP617  ASP618  TYR619  PRO620  LYS621  CYS622 
 ASP623  PHE694  ASN695  SER759  ASP760  ASP761  ALA762  ILE779  LEU786  VAL792 
 PHE793  MET794  SER795  GLU796  ALA797  LYS798  CYS799  TRP800  GLU811  SER814 

> <Gold.Protein.RotatedAtoms>
  151.9193  133.3581  159.3890 H   0  0  0  0  0  0  0  0  0  0  0  0  # atno 6907 bound_to 6896
  150.7040  134.4652  159.5408 H   0  0  0  0  0  0  0  0  0  0  0  0  # atno 6908 bound_to 6896
  152.2272  134.8356  160.0529 H   0  0  0  0  0  0  0  0  0  0  0  0  # atno 6909 bound_to 6896
  144.8452  140.5971  143.5426 H   0  0  0  0  0  0  0  0  0  0  0  0  # atno 7974 bound_to 7965
  156.2200  140.1815  156.7500 H   0  0  0  0  0  0  0  0  0  0  0  0  # atno 8008 bound_to 7997
  154.5850  140.0660  156.9187 H   0  0  0  0  0  0  0  0  0  0  0  0  # atno 8009 bound_to 7997
  155.2436  140.3324  155.4292 H   0  0  0  0  0  0  0  0  0  0  0  0  # atno 8010 bound_to 7997
  140.3384  144.2501  150.6158 H   0  0  0  0  0  0  0  0  0  0  0  0  # atno 10167 bound_to 10162
  156.8113  130.9587  151.3115 H   0  0  0  0  0  0  0  0  0  0  0  0  # atno 10718 bound_to 10713
  154.0444  135.2887  155.3350 H   0  0  0  0  0  0  0  0  0  0  0  0  # atno 10763 bound_to 10752
  154.6909  135.5227  153.8394 H   0  0  0  0  0  0  0  0  0  0  0  0  # atno 10764 bound_to 10752
  153.0586  135.6605  154.0645 H   0  0  0  0  0  0  0  0  0  0  0  0  # atno 10765 bound_to 10752
  139.8805  134.9344  156.5554 H   0  0  0  0  0  0  0  0  0  0  0  0  # atno 11005 bound_to 11000
  145.4612  139.1512  143.3865 LP  0  0  0  0  0  0  0  0  0  0  0  0  # atno 17320 bound_to 7965
  146.2737  140.4742  142.8804 LP  0  0  0  0  0  0  0  0  0  0  0  0  # atno 17321 bound_to 7965
  140.5332  143.2239  151.8206 LP  0  0  0  0  0  0  0  0  0  0  0  0  # atno 17342 bound_to 10162
  139.4844  144.4695  151.9443 LP  0  0  0  0  0  0  0  0  0  0  0  0  # atno 17343 bound_to 10162
  157.6504  130.8880  149.9622 LP  0  0  0  0  0  0  0  0  0  0  0  0  # atno 17370 bound_to 10713
  156.1043  130.3653  150.0162 LP  0  0  0  0  0  0  0  0  0  0  0  0  # atno 17371 bound_to 10713
  140.8209  133.8354  155.8895 LP  0  0  0  0  0  0  0  0  0  0  0  0  # atno 17394 bound_to 11000
  140.9419  134.1890  157.4791 LP  0  0  0  0  0  0  0  0  0  0  0  0  # atno 17395 bound_to 11000

$$$$
