AV-unprocessed.smi:1978|AV-procd|sdf|8002|dock3
  -GOLD-   2272010183D 1   1.00000     0.00000
 Structure written by MMmdl.
 44 45  0  0  0  0  0  0  0  0  3 V2000
  144.2805  143.4425  154.9513 C   0  0  0  0  0  0  0  0  0  0  0  0
  145.6398  142.8318  154.9738 C   0  0  0  0  0  0  0  0  0  0  0  0
  146.6330  142.7445  154.0400 C   0  0  0  0  0  0  0  0  0  0  0  0
  147.6557  142.0280  154.7196 C   0  0  0  0  0  0  0  0  0  0  0  0
  148.8549  141.6967  154.2164 N   0  5  0  0  0  0  0  0  0  0  0  0
  149.8475  141.2872  155.0381 C   0  0  0  0  0  0  0  0  0  0  0  0
  150.5514  140.2849  154.8940 O   0  0  0  0  0  0  0  0  0  0  0  0
  150.0342  142.0863  156.0982 N   0  0  0  0  0  0  0  0  0  0  0  0
  151.0161  141.8752  157.1563 C   0  0  0  0  0  0  0  0  0  0  0  0
  151.1876  143.1268  158.0543 C   0  0  2  0  0  0  0  0  0  0  0  0
  151.6327  144.3698  157.2562 C   0  0  0  0  0  0  0  0  0  0  0  0
  152.0768  142.8823  159.2353 N   0  3  2  0  0  0  0  0  0  0  0  0
  152.2262  141.4401  159.5890 C   0  0  0  0  0  0  0  0  0  0  0  0
  153.3498  141.2274  160.6138 C   0  0  0  0  0  0  0  0  0  0  0  0
  153.0907  142.0514  161.8770 C   0  0  0  0  0  0  0  0  0  0  0  0
  152.9060  143.5253  161.5017 C   0  0  0  0  0  0  0  0  0  0  0  0
  151.7903  143.7159  160.4510 C   0  0  1  0  0  0  0  0  0  0  0  0
  151.6342  145.2207  160.1510 C   0  0  0  0  0  0  0  0  0  0  0  0
  147.3197  141.7228  155.9617 N   0  0  0  0  0  0  0  0  0  0  0  0
  146.0256  142.2295  156.1307 O   0  0  0  0  0  0  0  0  0  0  0  0
  144.3449  144.5278  155.0280 H   0  0  0  0  0  0  0  0  0  0  0  0
  143.6728  143.0796  155.7805 H   0  0  0  0  0  0  0  0  0  0  0  0
  143.7637  143.1987  154.0231 H   0  0  0  0  0  0  0  0  0  0  0  0
  146.6285  143.1284  153.0309 H   0  0  0  0  0  0  0  0  0  0  0  0
  149.4389  142.8979  156.1780 H   0  0  0  0  0  0  0  0  0  0  0  0
  150.7230  141.0030  157.7418 H   0  0  0  0  0  0  0  0  0  0  0  0
  151.9583  141.6188  156.6728 H   0  0  0  0  0  0  0  0  0  0  0  0
  150.2087  143.4071  158.4370 H   0  0  0  0  0  0  0  0  0  0  0  0
  150.8528  144.6882  156.5637 H   0  0  0  0  0  0  0  0  0  0  0  0
  152.5258  144.1824  156.6609 H   0  0  0  0  0  0  0  0  0  0  0  0
  151.8357  145.2122  157.9179 H   0  0  0  0  0  0  0  0  0  0  0  0
  151.2881  141.0566  159.9920 H   0  0  0  0  0  0  0  0  0  0  0  0
  152.4578  140.8425  158.7093 H   0  0  0  0  0  0  0  0  0  0  0  0
  153.4268  140.1699  160.8690 H   0  0  0  0  0  0  0  0  0  0  0  0
  154.3075  141.5117  160.1755 H   0  0  0  0  0  0  0  0  0  0  0  0
  152.1981  141.6833  162.3845 H   0  0  0  0  0  0  0  0  0  0  0  0
  153.9190  141.9405  162.5775 H   0  0  0  0  0  0  0  0  0  0  0  0
  152.6763  144.0977  162.4013 H   0  0  0  0  0  0  0  0  0  0  0  0
  153.8465  143.9228  161.1172 H   0  0  0  0  0  0  0  0  0  0  0  0
  150.8562  143.3669  160.8929 H   0  0  0  0  0  0  0  0  0  0  0  0
  151.5703  145.7973  161.0742 H   0  0  0  0  0  0  0  0  0  0  0  0
  150.7211  145.4362  159.5965 H   0  0  0  0  0  0  0  0  0  0  0  0
  152.4810  145.6052  159.5815 H   0  0  0  0  0  0  0  0  0  0  0  0
  152.9909  143.1804  158.9265 H   0  0  0  0  0  0  0  0  0  0  0  0
  1  2  1  0  0  0  0
  1 21  1  0  0  0  0
  1 22  1  0  0  0  0
  1 23  1  0  0  0  0
  2 20  1  0  0  0  0
  2  3  2  0  0  0  0
  3  4  1  0  0  0  0
  3 24  1  0  0  0  0
  4  5  1  0  0  0  0
  4 19  2  0  0  0  0
  5  6  1  0  0  0  0
  6  7  2  0  0  0  0
  6  8  1  0  0  0  0
  8  9  1  0  0  0  0
  8 25  1  0  0  0  0
  9 10  1  0  0  0  0
  9 26  1  0  0  0  0
  9 27  1  0  0  0  0
 10 11  1  0  0  0  0
 10 12  1  0  0  0  0
 10 28  1  0  0  0  0
 11 29  1  0  0  0  0
 11 30  1  0  0  0  0
 11 31  1  0  0  0  0
 12 17  1  0  0  0  0
 12 13  1  0  0  0  0
 12 44  1  0  0  0  0
 13 14  1  0  0  0  0
 13 32  1  0  0  0  0
 13 33  1  0  0  0  0
 14 15  1  0  0  0  0
 14 34  1  0  0  0  0
 14 35  1  0  0  0  0
 15 16  1  0  0  0  0
 15 36  1  0  0  0  0
 15 37  1  0  0  0  0
 16 17  1  0  0  0  0
 16 38  1  0  0  0  0
 16 39  1  0  0  0  0
 17 18  1  0  0  0  0
 17 40  1  0  0  0  0
 18 41  1  0  0  0  0
 18 42  1  0  0  0  0
 18 43  1  0  0  0  0
 19 20  1  0  0  0  0
M  CHG  1   5  -1
M  CHG  1  12   1
M  END
> <s_m_source_file>
AV-unprocessed.smi

> <i_m_source_file_index>
1978

> <i_lp_mmshare_version>
43012

> <i_f3d_flags>
0

> <s_epik_input>
W0NIM11jMVtjSF1jKG5vMSlbTkhdQyg9TylbTkhdW0NIMl1bQ0BIXShbQ0gzXSlOMltDSDJdW0NIMl1bQ0gyXVtDSDJdW0NASF0yW0NIM10=

> <s_epik_cmdline>
J2VwaWtfcHl0aG9uJywgJy1waCcsICc3LjAnLCAnLXRuJywgJzgnLCAnLW1hJywgJzIwMCcsICctbWV0YWxfYmluZGluZycsICctaW1hZScsICc8aW5maWxlLm1hZT4nLCAnLW9tYWUnLCAnPG91dGZpbGUubWFlPic=

> <r_epik_Ionization_Penalty>
6.22372

> <r_epik_Ionization_Penalty_Charging>
6.22362

> <r_epik_Ionization_Penalty_Neutral>
9.65074e-05

> <r_epik_State_Penalty>
6.22363

> <r_epik_Charging_Adjusted_Penalty>
12.4472

> <i_epik_Tot_Q>
0

> <i_epik_Tot_abs_Q>
2

> <r_epik_Metal_State_Penalty>
2.16675

> <b_epik_Metal_Only>
1

> <s_lp_Force_Field>
OPLS_2005

> <r_lp_Energy>
9.77909

> <b_lp_Chiralities_Consistent>
1

> <s_lp_Variant>
AV-unprocessed.smi:1978-11

> <Gold.Version>
5.8.1

> <Gold.Id.Protein>
6NUR|6NUR_protein|mol2

> <Gold.PLP.Fitness>
49.0402

> <Gold.PLP.PLP>
-44.2987

> <Gold.PLP.part.hbond>
-3.0000

> <Gold.PLP.part.metal>
0.0000

> <Gold.PLP.part.buried>
-5.2884

> <Gold.PLP.part.nonpolar>
-36.0890

> <Gold.PLP.part.repulsive>
0.6419

> <Gold.PLP.ligand.clash>
0.0094

> <Gold.PLP.ligand.torsion>
1.3083

> <Gold.PLP.Chemscore.Hbond>
2.3801

> <Gold.PLP.Chemscore.CHOScore>
0.0000

> <Gold.PLP.Chemscore.Metal>
0.0000

> <Gold.Chemscore.Hbonds>
donor molecule, donor type, donor heavy atom, donor atom, acceptor molecule, acceptor atom, score
      L1  H     8    25       P1  8028  1.00
      P1  H  7989  7998       L1     7  0.95
      P1  H  8011  8017       L1     5  0.28

> <Gold.PLP.Chemscore.Internal.Correction>
0.2271

> <Gold.Rescore>
     Score         DG    S(hbond)    S(metal)    S(lipo)     H(rot)  DE(clash)    DE(int)     intcor
     15.16     -19.24       1.59        0.00     105.50       1.52       0.14       3.93       ----

> <Gold.Chemscore.Fitness>
15.1632

> <Gold.Chemscore.DG>
-19.2355

> <Gold.Chemscore.ZeroCoef>
-5.4800

> <Gold.Chemscore.Hbond>
1.5869

> <Gold.Chemscore.Metal>
0.0000

> <Gold.Chemscore.Lipo>
105.5034

> <Gold.Chemscore.Internal_Hbond>
0.0000

> <Gold.Chemscore.DEClash>
0.1415

> <Gold.Chemscore.DEInternal>
3.9309

> <Gold.Chemscore.Rot>
1.5190

> <Gold.Chemscore.Internal.Correction>
   9.000000E+99

> <Gold.Chemscore.Hbonds>
donor molecule, donor type, donor heavy atom, donor atom, acceptor molecule, acceptor atom, score
      L1  H     8    25       P1  8028  0.95
      P1  H  7989  7998       L1     7  0.21
      P1  H  8011  8017       L1     5  0.18

> <Gold.Chemscore.Hbond.Weighted>
-5.3003

> <Gold.Chemscore.Metal.Weighted>
-0.0000

> <Gold.Chemscore.Lipo.Weighted>
-12.3439

> <Gold.Chemscore.Internal_Hbond.Weighted>
0.0000

> <Gold.Chemscore.DEClash.Weighted>
0.1415

> <Gold.Chemscore.DEInternal.Weighted>
3.9309

> <Gold.Chemscore.Rot.Weighted>
3.8886

> <Gold.Chemscore.Internal.Correction.Weighted>
   9.000000E+99

> <Gold.Protein.RotatedTorsions>
[ 6907 6896 6895 6894 ] final -161.13 input  -60.11 | X-H torsion
[ 7974 7965 7964 7962 ] final   32.54 input  175.53 | X-H torsion
[ 8008 7997 7996 7995 ] final -164.34 input   59.86 | X-H torsion
[ 10167 10162 10161 10158 ] final   75.07 input  -65.29 | X-H torsion
[ 10718 10713 10712 10709 ] final  -49.19 input   66.30 | X-H torsion
[ 10763 10752 10751 10750 ] final -141.74 input  -60.55 | X-H torsion
[ 11005 11000 10999 10996 ] final  -71.48 input  -57.11 | X-H torsion

> <Gold.Protein.ActiveResidues>
 VAL166  LYS551  ARG553  GLY616  TRP617  ASP618  TYR619  PRO620  LYS621  CYS622 
 ASP623  PHE694  ASN695  SER759  ASP760  ASP761  ALA762  ILE779  LEU786  VAL792 
 PHE793  MET794  SER795  GLU796  ALA797  LYS798  CYS799  TRP800  GLU811  SER814 

> <Gold.Protein.RotatedAtoms>
  151.3598  133.3894  159.2688 H   0  0  0  0  0  0  0  0  0  0  0  0  # atno 6907 bound_to 6896
  150.9734  134.9104  159.7812 H   0  0  0  0  0  0  0  0  0  0  0  0  # atno 6908 bound_to 6896
  152.5192  134.3560  159.9320 H   0  0  0  0  0  0  0  0  0  0  0  0  # atno 6909 bound_to 6896
  146.1479  139.6512  142.9118 H   0  0  0  0  0  0  0  0  0  0  0  0  # atno 7974 bound_to 7965
  155.8341  140.0938  157.1774 H   0  0  0  0  0  0  0  0  0  0  0  0  # atno 8008 bound_to 7997
  154.3980  140.1413  156.3711 H   0  0  0  0  0  0  0  0  0  0  0  0  # atno 8009 bound_to 7997
  155.8134  140.3449  155.5473 H   0  0  0  0  0  0  0  0  0  0  0  0  # atno 8010 bound_to 7997
  140.0069  144.5644  150.7690 H   0  0  0  0  0  0  0  0  0  0  0  0  # atno 10167 bound_to 10162
  156.1917  130.4153  149.9363 H   0  0  0  0  0  0  0  0  0  0  0  0  # atno 10718 bound_to 10713
  154.8534  135.3516  154.5916 H   0  0  0  0  0  0  0  0  0  0  0  0  # atno 10763 bound_to 10752
  153.6525  135.6993  153.5209 H   0  0  0  0  0  0  0  0  0  0  0  0  # atno 10764 bound_to 10752
  153.2882  135.4243  155.1100 H   0  0  0  0  0  0  0  0  0  0  0  0  # atno 10765 bound_to 10752
  141.1593  133.6818  156.6912 H   0  0  0  0  0  0  0  0  0  0  0  0  # atno 11005 bound_to 11000
  145.4893  141.0438  143.2602 LP  0  0  0  0  0  0  0  0  0  0  0  0  # atno 17320 bound_to 7965
  144.7869  139.6409  143.7130 LP  0  0  0  0  0  0  0  0  0  0  0  0  # atno 17321 bound_to 7965
  140.7397  143.2794  151.3643 LP  0  0  0  0  0  0  0  0  0  0  0  0  # atno 17342 bound_to 10162
  139.6232  144.0865  152.2410 LP  0  0  0  0  0  0  0  0  0  0  0  0  # atno 17343 bound_to 10162
  156.7101  130.8967  151.3608 LP  0  0  0  0  0  0  0  0  0  0  0  0  # atno 17370 bound_to 10713
  157.6933  130.9255  150.0573 LP  0  0  0  0  0  0  0  0  0  0  0  0  # atno 17371 bound_to 10713
  140.3029  134.8149  157.4113 LP  0  0  0  0  0  0  0  0  0  0  0  0  # atno 17394 bound_to 11000
  140.1246  134.5175  155.8155 LP  0  0  0  0  0  0  0  0  0  0  0  0  # atno 17395 bound_to 11000

$$$$
