AV-unprocessed.smi:2978|AV-procd|sdf|11369|dock1
  -GOLD-   2272016283D 1   1.00000     0.00000
 Structure written by MMmdl.
 32 33  0  0  0  0  0  0  0  0  1 V2000
  152.1832  139.9967  156.5676 O   0  0  0  0  0  0  0  0  0  0  0  0
  151.9510  139.9266  157.7754 C   0  0  0  0  0  0  0  0  0  0  0  0
  152.1537  138.6099  158.5397 C   0  0  0  0  0  0  0  0  0  0  0  0
  152.9253  138.7714  159.7808 N   0  0  0  0  0  0  0  0  0  0  0  0
  153.4108  140.0519  159.9813 N   0  0  0  0  0  0  0  0  0  0  0  0
  154.0884  140.3139  161.0453 C   0  0  0  0  0  0  0  0  0  0  0  0
  154.3681  139.3096  162.0475 C   0  0  0  0  0  0  0  0  0  0  0  0
  155.2828  139.7206  163.4554 Cl  0  0  0  0  0  0  0  0  0  0  0  0
  153.8934  138.0559  161.8384 C   0  0  0  0  0  0  0  0  0  0  0  0
  154.1891  136.8002  162.9917 Cl  0  0  0  0  0  0  0  0  0  0  0  0
  153.1173  137.7202  160.6365 C   0  0  0  0  0  0  0  0  0  0  0  0
  152.6717  136.5947  160.4089 O   0  0  0  0  0  0  0  0  0  0  0  0
  151.5006  140.9633  158.4974 N   0  0  0  0  0  0  0  0  0  0  0  0
  151.2646  142.3056  157.9793 C   0  0  0  0  0  0  0  0  0  0  0  0
  152.0755  143.3568  158.7548 C   0  0  1  0  0  0  0  0  0  0  0  0
  151.7275  144.7964  158.3929 C   0  0  0  0  0  0  0  0  0  0  0  0
  152.2496  145.5577  159.5948 C   0  0  0  0  0  0  0  0  0  0  0  0
  152.1145  144.5509  160.7414 C   0  0  0  0  0  0  0  0  0  0  0  0
  151.7718  143.3048  160.1414 O   0  0  0  0  0  0  0  0  0  0  0  0
  151.1834  138.1621  158.7636 H   0  0  0  0  0  0  0  0  0  0  0  0
  152.6532  137.9063  157.8714 H   0  0  0  0  0  0  0  0  0  0  0  0
  154.4879  141.3079  161.2469 H   0  0  0  0  0  0  0  0  0  0  0  0
  151.3344  140.8203  159.4830 H   0  0  0  0  0  0  0  0  0  0  0  0
  151.5146  142.3423  156.9177 H   0  0  0  0  0  0  0  0  0  0  0  0
  150.1988  142.5226  158.0542 H   0  0  0  0  0  0  0  0  0  0  0  0
  153.1474  143.1980  158.6210 H   0  0  0  0  0  0  0  0  0  0  0  0
  152.1781  145.1204  157.4543 H   0  0  0  0  0  0  0  0  0  0  0  0
  150.6461  144.9195  158.3148 H   0  0  0  0  0  0  0  0  0  0  0  0
  153.2995  145.8132  159.4470 H   0  0  0  0  0  0  0  0  0  0  0  0
  151.6995  146.4817  159.7759 H   0  0  0  0  0  0  0  0  0  0  0  0
  153.0506  144.4585  161.2933 H   0  0  0  0  0  0  0  0  0  0  0  0
  151.3339  144.8413  161.4448 H   0  0  0  0  0  0  0  0  0  0  0  0
  1  2  2  0  0  0  0
  2  3  1  0  0  0  0
  2 13  1  0  0  0  0
  3  4  1  0  0  0  0
  3 20  1  0  0  0  0
  3 21  1  0  0  0  0
  4 11  1  0  0  0  0
  4  5  1  0  0  0  0
  5  6  2  0  0  0  0
  6  7  1  0  0  0  0
  6 22  1  0  0  0  0
  7  8  1  0  0  0  0
  7  9  2  0  0  0  0
  9 10  1  0  0  0  0
  9 11  1  0  0  0  0
 11 12  2  0  0  0  0
 13 14  1  0  0  0  0
 13 23  1  0  0  0  0
 14 15  1  0  0  0  0
 14 24  1  0  0  0  0
 14 25  1  0  0  0  0
 15 19  1  0  0  0  0
 15 16  1  0  0  0  0
 15 26  1  0  0  0  0
 16 17  1  0  0  0  0
 16 27  1  0  0  0  0
 16 28  1  0  0  0  0
 17 18  1  0  0  0  0
 17 29  1  0  0  0  0
 17 30  1  0  0  0  0
 18 19  1  0  0  0  0
 18 31  1  0  0  0  0
 18 32  1  0  0  0  0
M  END
> <s_m_source_file>
AV-unprocessed.smi

> <i_m_source_file_index>
2978

> <i_lp_mmshare_version>
43012

> <i_f3d_flags>
0

> <s_epik_input>
TzFbQ0gyXVtDSDJdW0NIMl1bQ0BIXTFbQ0gyXVtOSF1DKD1PKVtDSDJdbjJuW2NIXWMoQ2wpYyhDbCljMj1P

> <s_epik_cmdline>
J2VwaWtfcHl0aG9uJywgJy1waCcsICc3LjAnLCAnLXRuJywgJzgnLCAnLW1hJywgJzIwMCcsICctbWV0YWxfYmluZGluZycsICctaW1hZScsICc8aW5maWxlLm1hZT4nLCAnLW9tYWUnLCAnPG91dGZpbGUubWFlPic=

> <r_lp_tautomer_probability>
1

> <r_epik_Ionization_Penalty>
2.68881e-08

> <r_epik_Ionization_Penalty_Charging>
2.90862e-11

> <r_epik_Ionization_Penalty_Neutral>
2.6859e-08

> <r_epik_State_Penalty>
-0

> <r_epik_Charging_Adjusted_Penalty>
2.90862e-11

> <i_epik_Tot_Q>
0

> <i_epik_Tot_abs_Q>
0

> <r_epik_Metal_State_Penalty>
-0

> <b_epik_Metal_Only>
0

> <s_lp_Force_Field>
OPLS_2005

> <r_lp_Energy>
30.853

> <b_lp_Chiralities_Consistent>
1

> <s_lp_Variant>
AV-unprocessed.smi:2978-2

> <Gold.Version>
5.8.1

> <Gold.Id.Protein>
6NUR|6NUR_protein|mol2

> <Gold.PLP.Fitness>
43.5176

> <Gold.PLP.PLP>
-37.8186

> <Gold.PLP.part.hbond>
-1.9595

> <Gold.PLP.part.metal>
0.0000

> <Gold.PLP.part.buried>
-5.4701

> <Gold.PLP.part.nonpolar>
-30.6345

> <Gold.PLP.part.repulsive>
0.1700

> <Gold.PLP.ligand.clash>
0.0000

> <Gold.PLP.ligand.torsion>
0.1545

> <Gold.PLP.Chemscore.Hbond>
1.9913

> <Gold.PLP.Chemscore.CHOScore>
0.0000

> <Gold.PLP.Chemscore.Metal>
0.0000

> <Gold.Chemscore.Hbonds>
donor molecule, donor type, donor heavy atom, donor atom, acceptor molecule, acceptor atom, score
      P1  H  6896  6907       L1    12  1.00
      P1  H  7997  8009       L1     1  0.56

> <Gold.PLP.Chemscore.Internal.Correction>
0.0343

> <Gold.Rescore>
     Score         DG    S(hbond)    S(metal)    S(lipo)     H(rot)  DE(clash)    DE(int)     intcor
     17.90     -18.30       1.98        0.00      93.22       1.83       0.02       0.38       ----

> <Gold.Chemscore.Fitness>
17.8974

> <Gold.Chemscore.DG>
-18.2968

> <Gold.Chemscore.ZeroCoef>
-5.4800

> <Gold.Chemscore.Hbond>
1.9759

> <Gold.Chemscore.Metal>
0.0000

> <Gold.Chemscore.Lipo>
93.2244

> <Gold.Chemscore.Internal_Hbond>
0.0000

> <Gold.Chemscore.DEClash>
0.0195

> <Gold.Chemscore.DEInternal>
0.3799

> <Gold.Chemscore.Rot>
1.8320

> <Gold.Chemscore.Internal.Correction>
   9.000000E+99

> <Gold.Chemscore.Hbonds>
donor molecule, donor type, donor heavy atom, donor atom, acceptor molecule, acceptor atom, score
      P1  H  6896  6907       L1    12  1.00
      P1  H  7997  8009       L1     1  0.12

> <Gold.Chemscore.Hbond.Weighted>
-6.5995

> <Gold.Chemscore.Metal.Weighted>
-0.0000

> <Gold.Chemscore.Lipo.Weighted>
-10.9073

> <Gold.Chemscore.Internal_Hbond.Weighted>
0.0000

> <Gold.Chemscore.DEClash.Weighted>
0.0195

> <Gold.Chemscore.DEInternal.Weighted>
0.3799

> <Gold.Chemscore.Rot.Weighted>
4.6900

> <Gold.Chemscore.Internal.Correction.Weighted>
   9.000000E+99

> <Gold.Protein.RotatedTorsions>
[ 6907 6896 6895 6894 ] final   36.85 input  -60.11 | X-H torsion
[ 7974 7965 7964 7962 ] final   80.08 input  175.53 | X-H torsion
[ 8008 7997 7996 7995 ] final  177.89 input   59.86 | X-H torsion
[ 10167 10162 10161 10158 ] final  -67.54 input  -65.29 | X-H torsion
[ 10718 10713 10712 10709 ] final  -44.89 input   66.30 | X-H torsion
[ 10763 10752 10751 10750 ] final -149.41 input  -60.55 | X-H torsion
[ 11005 11000 10999 10996 ] final -102.38 input  -57.11 | X-H torsion

> <Gold.Protein.ActiveResidues>
 VAL166  LYS551  ARG553  GLY616  TRP617  ASP618  TYR619  PRO620  LYS621  CYS622 
 ASP623  PHE694  ASN695  SER759  ASP760  ASP761  ALA762  ILE779  LEU786  VAL792 
 PHE793  MET794  SER795  GLU796  ALA797  LYS798  CYS799  TRP800  GLU811  SER814 

> <Gold.Protein.RotatedAtoms>
  152.1353  134.9103  160.0556 H   0  0  0  0  0  0  0  0  0  0  0  0  # atno 6907 bound_to 6896
  152.0192  133.3887  159.4259 H   0  0  0  0  0  0  0  0  0  0  0  0  # atno 6908 bound_to 6896
  150.6860  134.3566  159.4976 H   0  0  0  0  0  0  0  0  0  0  0  0  # atno 6909 bound_to 6896
  145.6559  139.2459  143.1950 H   0  0  0  0  0  0  0  0  0  0  0  0  # atno 7974 bound_to 7965
  156.0607  140.1347  156.9944 H   0  0  0  0  0  0  0  0  0  0  0  0  # atno 8008 bound_to 7997
  154.4480  140.0992  156.6584 H   0  0  0  0  0  0  0  0  0  0  0  0  # atno 8009 bound_to 7997
  155.5381  140.3460  155.4443 H   0  0  0  0  0  0  0  0  0  0  0  0  # atno 8010 bound_to 7997
  140.5575  143.2312  151.6792 H   0  0  0  0  0  0  0  0  0  0  0  0  # atno 10167 bound_to 10162
  156.2339  130.4174  149.8841 H   0  0  0  0  0  0  0  0  0  0  0  0  # atno 10718 bound_to 10713
  154.8178  135.3310  154.7125 H   0  0  0  0  0  0  0  0  0  0  0  0  # atno 10763 bound_to 10752
  153.7763  135.6922  153.4901 H   0  0  0  0  0  0  0  0  0  0  0  0  # atno 10764 bound_to 10752
  153.2010  135.4516  155.0215 H   0  0  0  0  0  0  0  0  0  0  0  0  # atno 10765 bound_to 10752
  141.1191  133.8554  157.1353 H   0  0  0  0  0  0  0  0  0  0  0  0  # atno 11005 bound_to 11000
  146.1165  140.7363  142.9478 LP  0  0  0  0  0  0  0  0  0  0  0  0  # atno 17320 bound_to 7965
  144.7106  140.4023  143.7083 LP  0  0  0  0  0  0  0  0  0  0  0  0  # atno 17321 bound_to 7965
  139.5055  144.3716  152.0464 LP  0  0  0  0  0  0  0  0  0  0  0  0  # atno 17342 bound_to 10162
  140.2839  144.3829  150.6110 LP  0  0  0  0  0  0  0  0  0  0  0  0  # atno 17343 bound_to 10162
  156.6446  130.8719  151.3520 LP  0  0  0  0  0  0  0  0  0  0  0  0  # atno 17370 bound_to 10713
  157.7145  130.9481  150.1207 LP  0  0  0  0  0  0  0  0  0  0  0  0  # atno 17371 bound_to 10713
  140.0135  134.9978  157.0445 LP  0  0  0  0  0  0  0  0  0  0  0  0  # atno 17394 bound_to 11000
  140.4559  134.1534  155.7186 LP  0  0  0  0  0  0  0  0  0  0  0  0  # atno 17395 bound_to 11000

$$$$
