AV-unprocessed.smi:1829|AV-procd|sdf|7428|dock7
  -GOLD-   22720 9113D 1   1.00000     0.00000
 Structure written by MMmdl.
 45 47  0  0  0  0  0  0  0  0  1 V2000
  152.1981  145.6417  158.8774 C   0  0  0  0  0  0  0  0  0  0  0  0
  151.2063  144.5012  159.1564 C   0  0  0  0  0  0  0  0  0  0  0  0
  150.0797  144.9478  160.1009 C   0  0  0  0  0  0  0  0  0  0  0  0
  151.9097  143.2544  159.6789 C   0  0  0  0  0  0  0  0  0  0  0  0
  152.7223  143.3313  160.8301 C   0  0  0  0  0  0  0  0  0  0  0  0
  153.3843  142.1853  161.3117 C   0  0  0  0  0  0  0  0  0  0  0  0
  153.2431  140.9484  160.6485 C   0  0  0  0  0  0  0  0  0  0  0  0
  153.9595  139.7181  161.1839 C   0  0  2  0  0  0  0  0  0  0  0  0
  155.3666  139.8664  161.1776 O   0  0  0  0  0  0  0  0  0  0  0  0
  153.5547  138.4535  160.3992 C   0  0  0  0  0  0  0  0  0  0  0  0
  154.3515  137.2859  160.7530 N   0  0  0  0  0  0  0  0  0  0  0  0
  155.1937  136.5749  159.9617 C   0  0  0  0  0  0  0  0  0  0  0  0
  155.4325  136.9272  158.5251 C   0  0  0  0  0  0  0  0  0  0  0  0
  155.8637  138.2603  158.3554 O   0  0  0  0  0  0  0  0  0  0  0  0
  155.8050  135.5428  160.5444 N   0  0  0  0  0  0  0  0  0  0  0  0
  155.3162  135.5899  161.8354 C   0  0  0  0  0  0  0  0  0  0  0  0
  155.5832  134.7612  162.9488 C   0  0  0  0  0  0  0  0  0  0  0  0
  154.9552  135.0056  164.1877 C   0  0  0  0  0  0  0  0  0  0  0  0
  154.0531  136.0797  164.3313 C   0  0  0  0  0  0  0  0  0  0  0  0
  153.7739  136.9179  163.2347 C   0  0  0  0  0  0  0  0  0  0  0  0
  154.4037  136.6700  162.0001 C   0  0  0  0  0  0  0  0  0  0  0  0
  152.4229  140.8683  159.5023 C   0  0  0  0  0  0  0  0  0  0  0  0
  151.7632  142.0146  159.0194 C   0  0  0  0  0  0  0  0  0  0  0  0
  152.9616  145.3302  158.1640 H   0  0  0  0  0  0  0  0  0  0  0  0
  152.7039  145.9680  159.7864 H   0  0  0  0  0  0  0  0  0  0  0  0
  151.6888  146.5089  158.4560 H   0  0  0  0  0  0  0  0  0  0  0  0
  150.7414  144.2444  158.2035 H   0  0  0  0  0  0  0  0  0  0  0  0
  149.3529  144.1484  160.2483 H   0  0  0  0  0  0  0  0  0  0  0  0
  149.5452  145.8067  159.6950 H   0  0  0  0  0  0  0  0  0  0  0  0
  150.4650  145.2322  161.0803 H   0  0  0  0  0  0  0  0  0  0  0  0
  152.8441  144.2705  161.3497 H   0  0  0  0  0  0  0  0  0  0  0  0
  154.0020  142.2601  162.1948 H   0  0  0  0  0  0  0  0  0  0  0  0
  153.6738  139.5946  162.2285 H   0  0  0  0  0  0  0  0  0  0  0  0
  155.6936  139.5824  160.3377 H   0  0  0  0  0  0  0  0  0  0  0  0
  152.5026  138.2241  160.5699 H   0  0  0  0  0  0  0  0  0  0  0  0
  153.6523  138.6277  159.3269 H   0  0  0  0  0  0  0  0  0  0  0  0
  156.1913  136.2609  158.1128 H   0  0  0  0  0  0  0  0  0  0  0  0
  154.5254  136.7636  157.9445 H   0  0  0  0  0  0  0  0  0  0  0  0
  156.6587  138.3840  158.8508 H   0  0  0  0  0  0  0  0  0  0  0  0
  156.2725  133.9360  162.8489 H   0  0  0  0  0  0  0  0  0  0  0  0
  155.1663  134.3654  165.0317 H   0  0  0  0  0  0  0  0  0  0  0  0
  153.5746  136.2593  165.2829 H   0  0  0  0  0  0  0  0  0  0  0  0
  153.0807  137.7393  163.3392 H   0  0  0  0  0  0  0  0  0  0  0  0
  152.2956  139.9272  158.9876 H   0  0  0  0  0  0  0  0  0  0  0  0
  151.1439  141.9367  158.1381 H   0  0  0  0  0  0  0  0  0  0  0  0
  1  2  1  0  0  0  0
  1 24  1  0  0  0  0
  1 25  1  0  0  0  0
  1 26  1  0  0  0  0
  2  3  1  0  0  0  0
  2  4  1  0  0  0  0
  2 27  1  0  0  0  0
  3 28  1  0  0  0  0
  3 29  1  0  0  0  0
  3 30  1  0  0  0  0
  4 23  1  0  0  0  0
  4  5  2  0  0  0  0
  5  6  1  0  0  0  0
  5 31  1  0  0  0  0
  6  7  2  0  0  0  0
  6 32  1  0  0  0  0
  7  8  1  0  0  0  0
  7 22  1  0  0  0  0
  8  9  1  0  0  0  0
  8 10  1  0  0  0  0
  8 33  1  0  0  0  0
  9 34  1  0  0  0  0
 10 11  1  0  0  0  0
 10 35  1  0  0  0  0
 10 36  1  0  0  0  0
 11 21  1  0  0  0  0
 11 12  1  0  0  0  0
 12 13  1  0  0  0  0
 12 15  2  0  0  0  0
 13 14  1  0  0  0  0
 13 37  1  0  0  0  0
 13 38  1  0  0  0  0
 14 39  1  0  0  0  0
 15 16  1  0  0  0  0
 16 21  2  0  0  0  0
 16 17  1  0  0  0  0
 17 18  2  0  0  0  0
 17 40  1  0  0  0  0
 18 19  1  0  0  0  0
 18 41  1  0  0  0  0
 19 20  2  0  0  0  0
 19 42  1  0  0  0  0
 20 21  1  0  0  0  0
 20 43  1  0  0  0  0
 22 23  2  0  0  0  0
 22 44  1  0  0  0  0
 23 45  1  0  0  0  0
M  END
> <s_m_source_file>
AV-unprocessed.smi

> <i_m_source_file_index>
1829

> <i_lp_mmshare_version>
43012

> <i_f3d_flags>
0

> <s_epik_input>
W0NIM11bQ0hdKFtDSDNdKWMxW2NIXVtjSF1jKFtjSF1bY0hdMSlbQ0BIXShbT0hdKVtDSDJdbihjKG4yKVtDSDJdW09IXSljKGMyMylbY0hdW2NIXVtjSF1bY0hdMw==

> <s_epik_cmdline>
J2VwaWtfcHl0aG9uJywgJy1waCcsICc3LjAnLCAnLXRuJywgJzgnLCAnLW1hJywgJzIwMCcsICctbWV0YWxfYmluZGluZycsICctaW1hZScsICc8aW5maWxlLm1hZT4nLCAnLW9tYWUnLCAnPG91dGZpbGUubWFlPic=

> <r_epik_Ionization_Penalty>
0.0634718

> <r_epik_Ionization_Penalty_Charging>
0

> <r_epik_Ionization_Penalty_Neutral>
0.0634718

> <r_epik_State_Penalty>
0.0551572

> <r_epik_Charging_Adjusted_Penalty>
0.0551572

> <i_epik_Tot_Q>
0

> <i_epik_Tot_abs_Q>
0

> <r_epik_Metal_State_Penalty>
5.78034e-05

> <b_epik_Metal_Only>
0

> <s_lp_Force_Field>
OPLS_2005

> <r_lp_Energy>
12.4565

> <b_lp_Chiralities_Consistent>
1

> <s_lp_Variant>
AV-unprocessed.smi:1829-1

> <Gold.Version>
5.8.1

> <Gold.Id.Protein>
6NUR|6NUR_protein|mol2

> <Gold.PLP.Fitness>
49.3042

> <Gold.PLP.PLP>
-46.7381

> <Gold.PLP.part.hbond>
-1.0000

> <Gold.PLP.part.metal>
0.0000

> <Gold.PLP.part.buried>
-5.1961

> <Gold.PLP.part.nonpolar>
-40.0807

> <Gold.PLP.part.repulsive>
0.0000

> <Gold.PLP.ligand.clash>
0.0000

> <Gold.PLP.ligand.torsion>
0.2247

> <Gold.PLP.Chemscore.Hbond>
0.9833

> <Gold.PLP.Chemscore.CHOScore>
0.0000

> <Gold.PLP.Chemscore.Metal>
0.0000

> <Gold.Chemscore.Hbonds>
donor molecule, donor type, donor heavy atom, donor atom, acceptor molecule, acceptor atom, score
      P1  H  7997  8010       L1    14  0.95

> <Gold.PLP.Chemscore.Internal.Correction>
0.0656

> <Gold.Rescore>
     Score         DG    S(hbond)    S(metal)    S(lipo)     H(rot)  DE(clash)    DE(int)     intcor
     18.89     -19.58       0.99        0.00     150.79       2.68       0.43       0.25       ----

> <Gold.Chemscore.Fitness>
18.8943

> <Gold.Chemscore.DG>
-19.5767

> <Gold.Chemscore.ZeroCoef>
-5.4800

> <Gold.Chemscore.Hbond>
0.9897

> <Gold.Chemscore.Metal>
0.0000

> <Gold.Chemscore.Lipo>
150.7856

> <Gold.Chemscore.Internal_Hbond>
0.0000

> <Gold.Chemscore.DEClash>
0.4342

> <Gold.Chemscore.DEInternal>
0.2482

> <Gold.Chemscore.Rot>
2.6761

> <Gold.Chemscore.Internal.Correction>
   9.000000E+99

> <Gold.Chemscore.Hbonds>
donor molecule, donor type, donor heavy atom, donor atom, acceptor molecule, acceptor atom, score
      P1  H  7997  8010       L1    14  0.51

> <Gold.Chemscore.Hbond.Weighted>
-3.3055

> <Gold.Chemscore.Metal.Weighted>
-0.0000

> <Gold.Chemscore.Lipo.Weighted>
-17.6419

> <Gold.Chemscore.Internal_Hbond.Weighted>
0.0000

> <Gold.Chemscore.DEClash.Weighted>
0.4342

> <Gold.Chemscore.DEInternal.Weighted>
0.2482

> <Gold.Chemscore.Rot.Weighted>
6.8507

> <Gold.Chemscore.Internal.Correction.Weighted>
   9.000000E+99

> <Gold.Protein.RotatedTorsions>
[ 6907 6896 6895 6894 ] final  -26.55 input  -60.11 | X-H torsion
[ 7974 7965 7964 7962 ] final -125.54 input  175.53 | X-H torsion
[ 8008 7997 7996 7995 ] final  -23.34 input   59.86 | X-H torsion
[ 10167 10162 10161 10158 ] final    5.13 input  -65.29 | X-H torsion
[ 10718 10713 10712 10709 ] final   69.42 input   66.30 | X-H torsion
[ 10763 10752 10751 10750 ] final   18.08 input  -60.55 | X-H torsion
[ 11005 11000 10999 10996 ] final   40.21 input  -57.11 | X-H torsion

> <Gold.Protein.ActiveResidues>
 VAL166  LYS551  ARG553  GLY616  TRP617  ASP618  TYR619  PRO620  LYS621  CYS622 
 ASP623  PHE694  ASN695  SER759  ASP760  ASP761  ALA762  ILE779  LEU786  VAL792 
 PHE793  MET794  SER795  GLU796  ALA797  LYS798  CYS799  TRP800  GLU811  SER814 

> <Gold.Protein.RotatedAtoms>
  151.1594  135.0266  159.8703 H   0  0  0  0  0  0  0  0  0  0  0  0  # atno 6907 bound_to 6896
  152.5452  134.1296  159.8443 H   0  0  0  0  0  0  0  0  0  0  0  0  # atno 6908 bound_to 6896
  151.1390  133.4938  159.2630 H   0  0  0  0  0  0  0  0  0  0  0  0  # atno 6909 bound_to 6896
  144.9966  140.7781  143.4522 H   0  0  0  0  0  0  0  0  0  0  0  0  # atno 7974 bound_to 7965
  154.4591  140.1983  156.0296 H   0  0  0  0  0  0  0  0  0  0  0  0  # atno 8008 bound_to 7997
  156.0804  140.3272  155.7659 H   0  0  0  0  0  0  0  0  0  0  0  0  # atno 8009 bound_to 7997
  155.5120  140.0562  157.2912 H   0  0  0  0  0  0  0  0  0  0  0  0  # atno 8010 bound_to 7997
  140.6498  143.7572  150.7557 H   0  0  0  0  0  0  0  0  0  0  0  0  # atno 10167 bound_to 10162
  157.6345  130.9425  150.0511 H   0  0  0  0  0  0  0  0  0  0  0  0  # atno 10718 bound_to 10713
  153.1281  135.6734  153.9223 H   0  0  0  0  0  0  0  0  0  0  0  0  # atno 10763 bound_to 10752
  153.8717  135.3069  155.3443 H   0  0  0  0  0  0  0  0  0  0  0  0  # atno 10764 bound_to 10752
  154.7683  135.4952  153.9679 H   0  0  0  0  0  0  0  0  0  0  0  0  # atno 10765 bound_to 10752
  140.1952  134.3937  155.8125 H   0  0  0  0  0  0  0  0  0  0  0  0  # atno 11005 bound_to 11000
  145.2212  139.2158  143.5092 LP  0  0  0  0  0  0  0  0  0  0  0  0  # atno 17320 bound_to 7965
  146.3443  140.2070  142.8589 LP  0  0  0  0  0  0  0  0  0  0  0  0  # atno 17321 bound_to 7965
  140.1221  143.4603  152.2307 LP  0  0  0  0  0  0  0  0  0  0  0  0  # atno 17342 bound_to 10162
  139.5712  144.7463  151.3886 LP  0  0  0  0  0  0  0  0  0  0  0  0  # atno 17343 bound_to 10162
  156.1573  130.3643  149.9351 LP  0  0  0  0  0  0  0  0  0  0  0  0  # atno 17370 bound_to 10713
  156.7357  130.9060  151.3629 LP  0  0  0  0  0  0  0  0  0  0  0  0  # atno 17371 bound_to 10713
  141.2227  133.7066  156.8164 LP  0  0  0  0  0  0  0  0  0  0  0  0  # atno 17394 bound_to 11000
  140.2115  134.8824  157.3279 LP  0  0  0  0  0  0  0  0  0  0  0  0  # atno 17395 bound_to 11000

$$$$
