AV-unprocessed.smi:791|AV-procd|sdf|3749|dock1
  -GOLD-   22720 1183D 1   1.00000     0.00000
 Structure written by MMmdl.
 30 32  0  0  0  0  0  0  0  0  2 V2000
  147.4499  140.9439  153.5371 C   0  0  0  0  0  0  0  0  0  0  0  0
  147.4125  139.4243  153.3029 C   0  0  0  0  0  0  0  0  0  0  0  0
  148.7829  138.8734  153.2164 N   0  3  0  0  0  0  0  0  0  0  0  0
  149.5914  139.1406  154.4264 C   0  0  0  0  0  0  0  0  0  0  0  0
  149.6673  140.6533  154.7141 C   0  0  2  0  0  0  0  0  0  0  0  0
  150.4947  140.9526  155.9259 C   0  0  0  0  0  0  0  0  0  0  0  0
  150.9497  139.9787  156.7053 N   0  0  0  0  0  0  0  0  0  0  0  0
  151.6431  140.6653  157.7122 O   0  0  0  0  0  0  0  0  0  0  0  0
  151.5337  141.9796  157.4056 C   0  0  0  0  0  0  0  0  0  0  0  0
  152.1503  142.9847  158.3175 C   0  0  0  0  0  0  0  0  0  0  0  0
  151.2966  143.9948  159.0500 C   0  0  0  0  0  0  0  0  0  0  0  0
  152.2038  144.4453  157.9333 C   0  0  0  0  0  0  0  0  0  0  0  0
  150.8056  142.2198  156.3181 N   0  0  0  0  0  0  0  0  0  0  0  0
  148.2652  141.2873  154.7934 C   0  0  0  0  0  0  0  0  0  0  0  0
  146.4354  141.3320  153.6341 H   0  0  0  0  0  0  0  0  0  0  0  0
  147.8883  141.4380  152.6689 H   0  0  0  0  0  0  0  0  0  0  0  0
  146.8761  138.9277  154.1125 H   0  0  0  0  0  0  0  0  0  0  0  0
  146.8783  139.1967  152.3802 H   0  0  0  0  0  0  0  0  0  0  0  0
  148.7277  137.8751  153.0731 H   0  0  0  0  0  0  0  0  0  0  0  0
  149.1489  138.6109  155.2713 H   0  0  0  0  0  0  0  0  0  0  0  0
  150.5911  138.7301  154.2806 H   0  0  0  0  0  0  0  0  0  0  0  0
  150.1707  141.1117  153.8603 H   0  0  0  0  0  0  0  0  0  0  0  0
  153.0066  142.5617  158.8389 H   0  0  0  0  0  0  0  0  0  0  0  0
  150.2260  143.9920  158.8547 H   0  0  0  0  0  0  0  0  0  0  0  0
  151.5851  144.2523  160.0670 H   0  0  0  0  0  0  0  0  0  0  0  0
  153.0964  145.0045  158.2059 H   0  0  0  0  0  0  0  0  0  0  0  0
  151.7376  144.7385  156.9946 H   0  0  0  0  0  0  0  0  0  0  0  0
  148.3433  142.3695  154.9038 H   0  0  0  0  0  0  0  0  0  0  0  0
  147.7385  140.9212  155.6759 H   0  0  0  0  0  0  0  0  0  0  0  0
  149.2465  139.2909  152.4218 H   0  0  0  0  0  0  0  0  0  0  0  0
  1 14  1  0  0  0  0
  1  2  1  0  0  0  0
  1 15  1  0  0  0  0
  1 16  1  0  0  0  0
  2  3  1  0  0  0  0
  2 17  1  0  0  0  0
  2 18  1  0  0  0  0
  3  4  1  0  0  0  0
  3 19  1  0  0  0  0
  3 30  1  0  0  0  0
  4  5  1  0  0  0  0
  4 20  1  0  0  0  0
  4 21  1  0  0  0  0
  5  6  1  0  0  0  0
  5 14  1  0  0  0  0
  5 22  1  0  0  0  0
  6 13  1  0  0  0  0
  6  7  2  0  0  0  0
  7  8  1  0  0  0  0
  8  9  1  0  0  0  0
  9 10  1  0  0  0  0
  9 13  2  0  0  0  0
 10 12  1  0  0  0  0
 10 11  1  0  0  0  0
 10 23  1  0  0  0  0
 11 12  1  0  0  0  0
 11 24  1  0  0  0  0
 11 25  1  0  0  0  0
 12 26  1  0  0  0  0
 12 27  1  0  0  0  0
 14 28  1  0  0  0  0
 14 29  1  0  0  0  0
M  CHG  1   3   1
M  END
> <s_m_source_file>
AV-unprocessed.smi

> <i_m_source_file_index>
791

> <i_lp_mmshare_version>
43012

> <i_f3d_flags>
0

> <s_epik_input>
W0NIMl0xW0NIMl1bQ0gyXVtOSF1bQ0gyXVtDQEhdMWMybm9jKG4yKVtDSF0zW0NIMl1bQ0gyXTM=

> <s_epik_cmdline>
J2VwaWtfcHl0aG9uJywgJy1waCcsICc3LjAnLCAnLXRuJywgJzgnLCAnLW1hJywgJzIwMCcsICctbWV0YWxfYmluZGluZycsICctaW1hZScsICc8aW5maWxlLm1hZT4nLCAnLW9tYWUnLCAnPG91dGZpbGUubWFlPic=

> <r_lp_tautomer_probability>
1

> <r_epik_Ionization_Penalty>
0.000532935

> <r_epik_Ionization_Penalty_Charging>
0.000532935

> <r_epik_Ionization_Penalty_Neutral>
2.72852e-13

> <r_epik_State_Penalty>
0.000332992

> <r_epik_Charging_Adjusted_Penalty>
0.000865928

> <i_epik_Tot_Q>
1

> <i_epik_Tot_abs_Q>
1

> <r_epik_Metal_State_Penalty>
-0

> <b_epik_Metal_Only>
0

> <s_lp_Force_Field>
OPLS_2005

> <r_lp_Energy>
11.8714

> <b_lp_Chiralities_Consistent>
1

> <s_lp_Variant>
AV-unprocessed.smi:791-2

> <Gold.Version>
5.8.1

> <Gold.Id.Protein>
6NUR|6NUR_protein|mol2

> <Gold.PLP.Fitness>
39.0608

> <Gold.PLP.PLP>
-30.3746

> <Gold.PLP.part.hbond>
-1.8910

> <Gold.PLP.part.metal>
0.0000

> <Gold.PLP.part.buried>
-3.7286

> <Gold.PLP.part.nonpolar>
-25.2954

> <Gold.PLP.part.repulsive>
0.1925

> <Gold.PLP.ligand.clash>
0.0000

> <Gold.PLP.ligand.torsion>
0.1351

> <Gold.PLP.Chemscore.Hbond>
2.9265

> <Gold.PLP.Chemscore.CHOScore>
0.0000

> <Gold.PLP.Chemscore.Metal>
0.0000

> <Gold.Chemscore.Hbonds>
donor molecule, donor type, donor heavy atom, donor atom, acceptor molecule, acceptor atom, score
      L1  H     3    19       P1  7948  1.93
      L1  H     3    30       P1  7957  0.93

> <Gold.PLP.Chemscore.Internal.Correction>
0.1768

> <Gold.Rescore>
     Score         DG    S(hbond)    S(metal)    S(lipo)     H(rot)  DE(clash)    DE(int)     intcor
     16.60     -16.72       1.89        0.00      69.11       1.23       0.00       0.12       ----

> <Gold.Chemscore.Fitness>
16.6021

> <Gold.Chemscore.DG>
-16.7211

> <Gold.Chemscore.ZeroCoef>
-5.4800

> <Gold.Chemscore.Hbond>
1.8884

> <Gold.Chemscore.Metal>
0.0000

> <Gold.Chemscore.Lipo>
69.1082

> <Gold.Chemscore.Internal_Hbond>
0.0000

> <Gold.Chemscore.DEClash>
0.0000

> <Gold.Chemscore.DEInternal>
0.1190

> <Gold.Chemscore.Rot>
1.2312

> <Gold.Chemscore.Internal.Correction>
   9.000000E+99

> <Gold.Chemscore.Hbonds>
donor molecule, donor type, donor heavy atom, donor atom, acceptor molecule, acceptor atom, score
      L1  H     3    19       P1  7948  0.86
      L1  H     3    30       P1  7957  0.88

> <Gold.Chemscore.Hbond.Weighted>
-6.3073

> <Gold.Chemscore.Metal.Weighted>
-0.0000

> <Gold.Chemscore.Lipo.Weighted>
-8.0857

> <Gold.Chemscore.Internal_Hbond.Weighted>
0.0000

> <Gold.Chemscore.DEClash.Weighted>
0.0000

> <Gold.Chemscore.DEInternal.Weighted>
0.1190

> <Gold.Chemscore.Rot.Weighted>
3.1518

> <Gold.Chemscore.Internal.Correction.Weighted>
   9.000000E+99

> <Gold.Protein.RotatedTorsions>
[ 6907 6896 6895 6894 ] final   32.50 input  -60.11 | X-H torsion
[ 7974 7965 7964 7962 ] final -116.08 input  175.53 | X-H torsion
[ 8008 7997 7996 7995 ] final  179.88 input   59.86 | X-H torsion
[ 10167 10162 10161 10158 ] final  -98.16 input  -65.29 | X-H torsion
[ 10718 10713 10712 10709 ] final -174.07 input   66.30 | X-H torsion
[ 10763 10752 10751 10750 ] final -175.88 input  -60.55 | X-H torsion
[ 11005 11000 10999 10996 ] final  -81.51 input  -57.11 | X-H torsion

> <Gold.Protein.ActiveResidues>
 VAL166  LYS551  ARG553  GLY616  TRP617  ASP618  TYR619  PRO620  LYS621  CYS622 
 ASP623  PHE694  ASN695  SER759  ASP760  ASP761  ALA762  ILE779  LEU786  VAL792 
 PHE793  MET794  SER795  GLU796  ALA797  LYS798  CYS799  TRP800  GLU811  SER814 

> <Gold.Protein.RotatedAtoms>
  152.0754  134.9506  160.0573 H   0  0  0  0  0  0  0  0  0  0  0  0  # atno 6907 bound_to 6896
  152.0816  133.4151  159.4512 H   0  0  0  0  0  0  0  0  0  0  0  0  # atno 6908 bound_to 6896
  150.6836  134.2895  159.4704 H   0  0  0  0  0  0  0  0  0  0  0  0  # atno 6909 bound_to 6896
  145.1009  140.8551  143.3926 H   0  0  0  0  0  0  0  0  0  0  0  0  # atno 7974 bound_to 7965
  156.0383  140.1297  157.0183 H   0  0  0  0  0  0  0  0  0  0  0  0  # atno 8008 bound_to 7997
  154.4380  140.1035  156.6271 H   0  0  0  0  0  0  0  0  0  0  0  0  # atno 8009 bound_to 7997
  155.5704  140.3466  155.4516 H   0  0  0  0  0  0  0  0  0  0  0  0  # atno 8010 bound_to 7997
  140.2759  143.3314  152.0489 H   0  0  0  0  0  0  0  0  0  0  0  0  # atno 10167 bound_to 10162
  156.7796  130.9478  151.3120 H   0  0  0  0  0  0  0  0  0  0  0  0  # atno 10718 bound_to 10713
  154.5791  135.2834  155.0751 H   0  0  0  0  0  0  0  0  0  0  0  0  # atno 10763 bound_to 10752
  154.2094  135.6410  153.5114 H   0  0  0  0  0  0  0  0  0  0  0  0  # atno 10764 bound_to 10752
  153.0082  135.5488  154.6439 H   0  0  0  0  0  0  0  0  0  0  0  0  # atno 10765 bound_to 10752
  141.1666  133.7200  156.8434 H   0  0  0  0  0  0  0  0  0  0  0  0  # atno 11005 bound_to 11000
  145.0956  139.2858  143.5712 LP  0  0  0  0  0  0  0  0  0  0  0  0  # atno 17320 bound_to 7965
  146.3529  140.0507  142.8636 LP  0  0  0  0  0  0  0  0  0  0  0  0  # atno 17321 bound_to 7965
  139.4976  144.6625  151.6432 LP  0  0  0  0  0  0  0  0  0  0  0  0  # atno 17342 bound_to 10162
  140.5852  143.9877  150.6291 LP  0  0  0  0  0  0  0  0  0  0  0  0  # atno 17343 bound_to 10162
  157.6652  130.9001  149.9917 LP  0  0  0  0  0  0  0  0  0  0  0  0  # atno 17370 bound_to 10713
  156.1226  130.3645  149.9862 LP  0  0  0  0  0  0  0  0  0  0  0  0  # atno 17371 bound_to 10713
  140.1967  134.8926  157.3122 LP  0  0  0  0  0  0  0  0  0  0  0  0  # atno 17394 bound_to 11000
  140.2231  134.3999  155.7556 LP  0  0  0  0  0  0  0  0  0  0  0  0  # atno 17395 bound_to 11000

$$$$
