AV-unprocessed.smi:1762|AV-procd|sdf|7118|dock3
  -GOLD-   22720 8343D 1   1.00000     0.00000
 Structure written by MMmdl.
 53 54  0  0  0  0  0  0  0  0  2 V2000
  147.0664  133.3318  151.5748 C   0  0  0  0  0  0  0  0  0  0  0  0
  146.9304  132.9103  153.0491 C   0  0  1  0  0  0  0  0  0  0  0  0
  148.2374  133.0498  153.8510 C   0  0  0  0  0  0  0  0  0  0  0  0
  148.5721  134.4791  154.1155 N   0  3  2  0  0  0  0  0  0  0  0  0
  149.9046  134.6537  154.7904 C   0  0  1  0  0  0  0  0  0  0  0  0
  150.1652  136.1402  155.1181 C   0  0  0  0  0  0  0  0  0  0  0  0
  149.7254  136.6308  156.1590 O   0  0  0  0  0  0  0  0  0  0  0  0
  150.8789  136.8391  154.2227 N   0  0  0  0  0  0  0  0  0  0  0  0
  151.2344  138.2455  154.3567 C   0  0  0  0  0  0  0  0  0  0  0  0
  151.7819  138.5297  155.7621 C   0  0  0  0  0  0  0  0  0  0  0  0
  151.2420  139.8247  156.3394 C   0  0  0  0  0  0  0  0  0  0  0  0
  151.5563  140.2121  157.6595 C   0  0  0  0  0  0  0  0  0  0  0  0
  151.0325  141.4261  158.1449 C   0  0  0  0  0  0  0  0  0  0  0  0
  150.2208  142.2023  157.2954 C   0  0  0  0  0  0  0  0  0  0  0  0
  149.9674  141.7279  155.9930 C   0  0  0  0  0  0  0  0  0  0  0  0
  150.4632  140.5647  155.5183 N   0  0  0  0  0  0  0  0  0  0  0  0
  150.1057  133.7660  156.0658 C   0  0  0  0  0  0  0  0  0  0  0  0
  150.4327  132.2899  155.7572 C   0  0  0  0  0  0  0  0  0  0  0  0
  148.9292  133.8493  157.0586 C   0  0  0  0  0  0  0  0  0  0  0  0
  147.4172  135.1217  154.8007 C   0  0  0  0  0  0  0  0  0  0  0  0
  146.1283  134.9699  153.9713 C   0  0  2  0  0  0  0  0  0  0  0  0
  144.9087  135.5475  154.6977 C   0  0  0  0  0  0  0  0  0  0  0  0
  145.8739  133.5929  153.7190 O   0  0  0  0  0  0  0  0  0  0  0  0
  147.7838  132.6951  151.0566 H   0  0  0  0  0  0  0  0  0  0  0  0
  147.4121  134.3595  151.4665 H   0  0  0  0  0  0  0  0  0  0  0  0
  146.1120  133.2422  151.0554 H   0  0  0  0  0  0  0  0  0  0  0  0
  146.6527  131.8559  153.0496 H   0  0  0  0  0  0  0  0  0  0  0  0
  148.1360  132.5293  154.8047 H   0  0  0  0  0  0  0  0  0  0  0  0
  149.0309  132.5390  153.3061 H   0  0  0  0  0  0  0  0  0  0  0  0
  150.6562  134.3391  154.0635 H   0  0  0  0  0  0  0  0  0  0  0  0
  151.2059  136.3623  153.3946 H   0  0  0  0  0  0  0  0  0  0  0  0
  151.9822  138.4923  153.6020 H   0  0  0  0  0  0  0  0  0  0  0  0
  150.3647  138.8776  154.1673 H   0  0  0  0  0  0  0  0  0  0  0  0
  151.5249  137.7103  156.4353 H   0  0  0  0  0  0  0  0  0  0  0  0
  152.8715  138.5752  155.7368 H   0  0  0  0  0  0  0  0  0  0  0  0
  152.1838  139.5963  158.2869 H   0  0  0  0  0  0  0  0  0  0  0  0
  151.2504  141.7562  159.1500 H   0  0  0  0  0  0  0  0  0  0  0  0
  149.8024  143.1389  157.6333 H   0  0  0  0  0  0  0  0  0  0  0  0
  149.3498  142.2974  155.3145 H   0  0  0  0  0  0  0  0  0  0  0  0
  150.9428  134.1760  156.6286 H   0  0  0  0  0  0  0  0  0  0  0  0
  149.5833  131.7738  155.3091 H   0  0  0  0  0  0  0  0  0  0  0  0
  150.6917  131.7519  156.6695 H   0  0  0  0  0  0  0  0  0  0  0  0
  151.2756  132.1904  155.0739 H   0  0  0  0  0  0  0  0  0  0  0  0
  148.0310  133.3648  156.6745 H   0  0  0  0  0  0  0  0  0  0  0  0
  148.6797  134.8855  157.2889 H   0  0  0  0  0  0  0  0  0  0  0  0
  149.1804  133.3588  157.9996 H   0  0  0  0  0  0  0  0  0  0  0  0
  147.2908  134.6838  155.7923 H   0  0  0  0  0  0  0  0  0  0  0  0
  147.5778  136.1890  154.9371 H   0  0  0  0  0  0  0  0  0  0  0  0
  146.2382  135.5021  153.0263 H   0  0  0  0  0  0  0  0  0  0  0  0
  145.0402  136.6100  154.9037 H   0  0  0  0  0  0  0  0  0  0  0  0
  144.7380  135.0411  155.6481 H   0  0  0  0  0  0  0  0  0  0  0  0
  144.0072  135.4362  154.0947 H   0  0  0  0  0  0  0  0  0  0  0  0
  148.6574  134.9304  153.2156 H   0  0  0  0  0  0  0  0  0  0  0  0
  1  2  1  0  0  0  0
  1 24  1  0  0  0  0
  1 25  1  0  0  0  0
  1 26  1  0  0  0  0
  2 23  1  0  0  0  0
  2  3  1  0  0  0  0
  2 27  1  0  0  0  0
  3  4  1  0  0  0  0
  3 28  1  0  0  0  0
  3 29  1  0  0  0  0
  4  5  1  0  0  0  0
  4 20  1  0  0  0  0
  4 53  1  0  0  0  0
  5  6  1  0  0  0  0
  5 17  1  0  0  0  0
  5 30  1  0  0  0  0
  6  7  2  0  0  0  0
  6  8  1  0  0  0  0
  8  9  1  0  0  0  0
  8 31  1  0  0  0  0
  9 10  1  0  0  0  0
  9 32  1  0  0  0  0
  9 33  1  0  0  0  0
 10 11  1  0  0  0  0
 10 34  1  0  0  0  0
 10 35  1  0  0  0  0
 11 16  1  0  0  0  0
 11 12  2  0  0  0  0
 12 13  1  0  0  0  0
 12 36  1  0  0  0  0
 13 14  2  0  0  0  0
 13 37  1  0  0  0  0
 14 15  1  0  0  0  0
 14 38  1  0  0  0  0
 15 16  2  0  0  0  0
 15 39  1  0  0  0  0
 17 18  1  0  0  0  0
 17 19  1  0  0  0  0
 17 40  1  0  0  0  0
 18 41  1  0  0  0  0
 18 42  1  0  0  0  0
 18 43  1  0  0  0  0
 19 44  1  0  0  0  0
 19 45  1  0  0  0  0
 19 46  1  0  0  0  0
 20 21  1  0  0  0  0
 20 47  1  0  0  0  0
 20 48  1  0  0  0  0
 21 22  1  0  0  0  0
 21 23  1  0  0  0  0
 21 49  1  0  0  0  0
 22 50  1  0  0  0  0
 22 51  1  0  0  0  0
 22 52  1  0  0  0  0
M  CHG  1   4   1
M  END
> <s_m_source_file>
AV-unprocessed.smi

> <i_m_source_file_index>
1762

> <i_lp_mmshare_version>
43012

> <i_f3d_flags>
0

> <s_epik_input>
W0NIM11bQ0BASF0xW0NIMl1OKFtDSDJdW0NASF0oTzEpW0NIM10pW0NAQEhdKFtDSF0oW0NIM10pW0NIM10pQyg9TylbTkhdW0NIMl1bQ0gyXWMyW2NIXVtjSF1bY0hdW2NIXW4y

> <s_epik_cmdline>
J2VwaWtfcHl0aG9uJywgJy1waCcsICc3LjAnLCAnLXRuJywgJzgnLCAnLW1hJywgJzIwMCcsICctbWV0YWxfYmluZGluZycsICctaW1hZScsICc8aW5maWxlLm1hZT4nLCAnLW9tYWUnLCAnPG91dGZpbGUubWFlPic=

> <r_epik_Ionization_Penalty>
2.27005

> <r_epik_Ionization_Penalty_Charging>
2.24983

> <r_epik_Ionization_Penalty_Neutral>
0.0202209

> <r_epik_State_Penalty>
2.40228

> <r_epik_Charging_Adjusted_Penalty>
4.65211

> <i_epik_Tot_Q>
1

> <i_epik_Tot_abs_Q>
1

> <r_epik_Metal_State_Penalty>
2.40762

> <b_epik_Metal_Only>
0

> <s_lp_Force_Field>
OPLS_2005

> <r_lp_Energy>
25.0813

> <b_lp_Chiralities_Consistent>
1

> <s_lp_Variant>
AV-unprocessed.smi:1762-20

> <Gold.Version>
5.8.1

> <Gold.Id.Protein>
6NUR|6NUR_protein|mol2

> <Gold.PLP.Fitness>
48.5955

> <Gold.PLP.PLP>
-36.4959

> <Gold.PLP.part.hbond>
-3.6969

> <Gold.PLP.part.metal>
0.0000

> <Gold.PLP.part.buried>
-5.4249

> <Gold.PLP.part.nonpolar>
-27.6959

> <Gold.PLP.part.repulsive>
0.2759

> <Gold.PLP.ligand.clash>
0.0000

> <Gold.PLP.ligand.torsion>
1.3685

> <Gold.PLP.Chemscore.Hbond>
3.8960

> <Gold.PLP.Chemscore.CHOScore>
0.9700

> <Gold.PLP.Chemscore.Metal>
0.0000

> <Gold.Chemscore.Hbonds>
donor molecule, donor type, donor heavy atom, donor atom, acceptor molecule, acceptor atom, score
      L1  H     4    53       P1  7948  2.00
      L1  H     8    31       P1  7949  1.00
      P1  H  7989  7998       L1    16  0.20
      L1  C    15    39       P1  8028  0.86

> <Gold.PLP.Chemscore.Internal.Correction>
0.2385

> <Gold.Rescore>
     Score         DG    S(hbond)    S(metal)    S(lipo)     H(rot)  DE(clash)    DE(int)     intcor
     14.32     -19.50       2.35        0.00      89.12       1.66       0.79       4.38       ----

> <Gold.Chemscore.Fitness>
14.3241

> <Gold.Chemscore.DG>
-19.4994

> <Gold.Chemscore.ZeroCoef>
-5.4800

> <Gold.Chemscore.Hbond>
2.3507

> <Gold.Chemscore.Metal>
0.0000

> <Gold.Chemscore.Lipo>
89.1160

> <Gold.Chemscore.Internal_Hbond>
0.0000

> <Gold.Chemscore.DEClash>
0.7917

> <Gold.Chemscore.DEInternal>
4.3836

> <Gold.Chemscore.Rot>
1.6635

> <Gold.Chemscore.Internal.Correction>
   9.000000E+99

> <Gold.Chemscore.Hbonds>
donor molecule, donor type, donor heavy atom, donor atom, acceptor molecule, acceptor atom, score
      L1  H     4    53       P1  7948  0.55
      L1  H     8    31       P1  7949  0.48
      P1  H  7989  7998       L1    16  0.10

> <Gold.Chemscore.Hbond.Weighted>
-7.8514

> <Gold.Chemscore.Metal.Weighted>
-0.0000

> <Gold.Chemscore.Lipo.Weighted>
-10.4266

> <Gold.Chemscore.Internal_Hbond.Weighted>
0.0000

> <Gold.Chemscore.DEClash.Weighted>
0.7917

> <Gold.Chemscore.DEInternal.Weighted>
4.3836

> <Gold.Chemscore.Rot.Weighted>
4.2586

> <Gold.Chemscore.Internal.Correction.Weighted>
   9.000000E+99

> <Gold.Protein.RotatedTorsions>
[ 6907 6896 6895 6894 ] final  -14.09 input  -60.11 | X-H torsion
[ 7974 7965 7964 7962 ] final  -28.55 input  175.53 | X-H torsion
[ 8008 7997 7996 7995 ] final   24.65 input   59.86 | X-H torsion
[ 10167 10162 10161 10158 ] final   87.01 input  -65.29 | X-H torsion
[ 10718 10713 10712 10709 ] final  104.09 input   66.30 | X-H torsion
[ 10763 10752 10751 10750 ] final  -35.27 input  -60.55 | X-H torsion
[ 11005 11000 10999 10996 ] final   11.17 input  -57.11 | X-H torsion

> <Gold.Protein.ActiveResidues>
 VAL166  LYS551  ARG553  GLY616  TRP617  ASP618  TYR619  PRO620  LYS621  CYS622 
 ASP623  PHE694  ASN695  SER759  ASP760  ASP761  ALA762  ILE779  LEU786  VAL792 
 PHE793  MET794  SER795  GLU796  ALA797  LYS798  CYS799  TRP800  GLU811  SER814 

> <Gold.Protein.RotatedAtoms>
  151.3447  135.0871  159.9382 H   0  0  0  0  0  0  0  0  0  0  0  0  # atno 6907 bound_to 6896
  152.5202  133.9412  159.7637 H   0  0  0  0  0  0  0  0  0  0  0  0  # atno 6908 bound_to 6896
  150.9775  133.6226  159.2757 H   0  0  0  0  0  0  0  0  0  0  0  0  # atno 6909 bound_to 6896
  146.1280  140.5297  142.8706 H   0  0  0  0  0  0  0  0  0  0  0  0  # atno 7974 bound_to 7965
  154.9996  140.3123  155.4873 H   0  0  0  0  0  0  0  0  0  0  0  0  # atno 8008 bound_to 7997
  156.2927  140.2234  156.5045 H   0  0  0  0  0  0  0  0  0  0  0  0  # atno 8009 bound_to 7997
  154.7630  140.0457  157.0977 H   0  0  0  0  0  0  0  0  0  0  0  0  # atno 8010 bound_to 7997
  139.8817  144.6436  150.8835 H   0  0  0  0  0  0  0  0  0  0  0  0  # atno 10167 bound_to 10162
  157.6751  131.0795  150.5654 H   0  0  0  0  0  0  0  0  0  0  0  0  # atno 10718 bound_to 10713
  153.8605  135.6840  153.4783 H   0  0  0  0  0  0  0  0  0  0  0  0  # atno 10763 bound_to 10752
  153.1345  135.4684  154.9398 H   0  0  0  0  0  0  0  0  0  0  0  0  # atno 10764 bound_to 10752
  154.7761  135.3254  154.8038 H   0  0  0  0  0  0  0  0  0  0  0  0  # atno 10765 bound_to 10752
  140.5062  134.0697  155.7806 H   0  0  0  0  0  0  0  0  0  0  0  0  # atno 11005 bound_to 11000
  144.7662  140.5535  143.6702 LP  0  0  0  0  0  0  0  0  0  0  0  0  # atno 17320 bound_to 7965
  145.5323  139.1475  143.3493 LP  0  0  0  0  0  0  0  0  0  0  0  0  # atno 17321 bound_to 7965
  140.7743  143.3580  151.1883 LP  0  0  0  0  0  0  0  0  0  0  0  0  # atno 17342 bound_to 10162
  139.7190  143.9254  152.2978 LP  0  0  0  0  0  0  0  0  0  0  0  0  # atno 17343 bound_to 10162
  156.5956  130.4341  149.5918 LP  0  0  0  0  0  0  0  0  0  0  0  0  # atno 17370 bound_to 10713
  156.2547  130.6928  151.1677 LP  0  0  0  0  0  0  0  0  0  0  0  0  # atno 17371 bound_to 10713
  141.1409  133.9139  157.2327 LP  0  0  0  0  0  0  0  0  0  0  0  0  # atno 17394 bound_to 11000
  139.9685  135.0135  156.9449 LP  0  0  0  0  0  0  0  0  0  0  0  0  # atno 17395 bound_to 11000

$$$$
