AV-unprocessed.smi:2061|AV-procd|sdf|8392|dock9
  -GOLD-   2272011 73D 1   1.00000     0.00000
 Structure written by MMmdl.
 45 46  0  0  0  0  0  0  0  0  3 V2000
  146.3944  131.5977  152.0059 C   0  0  0  0  0  0  0  0  0  0  0  0
  147.4950  132.2384  152.7809 C   0  0  0  0  0  0  0  0  0  0  0  0
  147.8886  133.5383  152.9313 C   0  0  0  0  0  0  0  0  0  0  0  0
  149.0008  133.4379  153.8088 C   0  0  0  0  0  0  0  0  0  0  0  0
  149.7176  134.5966  154.2082 N   0  0  0  0  0  0  0  0  0  0  0  0
  150.5902  134.7320  155.2224 C   0  0  0  0  0  0  0  0  0  0  0  0
  150.7575  133.8089  156.0284 O   0  0  0  0  0  0  0  0  0  0  0  0
  151.2178  135.9408  155.2112 N   0  5  0  0  0  0  0  0  0  0  0  0
  150.6409  137.1934  155.7127 C   0  0  0  0  0  0  0  0  0  0  0  0
  151.6790  138.0318  156.5109 C   0  0  2  0  0  0  0  0  0  0  0  0
  152.1651  137.3652  157.8222 C   0  0  0  0  0  0  0  0  0  0  0  0
  151.2222  139.4494  156.6690 N   0  3  1  0  0  0  0  0  0  0  0  0
  152.0487  140.3306  157.5343 C   0  0  0  0  0  0  0  0  0  0  0  0
  151.2926  141.6399  157.8104 C   0  0  1  0  0  0  0  0  0  0  0  0
  152.1175  142.6122  158.6601 C   0  0  0  0  0  0  0  0  0  0  0  0
  150.9965  142.2763  156.5689 O   0  0  0  0  0  0  0  0  0  0  0  0
  150.2213  141.4917  155.6607 C   0  0  2  0  0  0  0  0  0  0  0  0
  148.7579  141.3569  156.1183 C   0  0  0  0  0  0  0  0  0  0  0  0
  150.9066  140.1359  155.3937 C   0  0  0  0  0  0  0  0  0  0  0  0
  149.2680  132.1869  154.1545 N   0  0  0  0  0  0  0  0  0  0  0  0
  148.3025  131.4127  153.5006 O   0  0  0  0  0  0  0  0  0  0  0  0
  146.4450  131.8837  150.9553 H   0  0  0  0  0  0  0  0  0  0  0  0
  145.4223  131.9028  152.3933 H   0  0  0  0  0  0  0  0  0  0  0  0
  146.4541  130.5105  152.0627 H   0  0  0  0  0  0  0  0  0  0  0  0
  147.4494  134.4183  152.4862 H   0  0  0  0  0  0  0  0  0  0  0  0
  149.5879  135.4119  153.6278 H   0  0  0  0  0  0  0  0  0  0  0  0
  150.2616  137.8010  154.8910 H   0  0  0  0  0  0  0  0  0  0  0  0
  149.7744  137.0151  156.3513 H   0  0  0  0  0  0  0  0  0  0  0  0
  152.5595  138.0518  155.8672 H   0  0  0  0  0  0  0  0  0  0  0  0
  152.6109  136.3867  157.6350 H   0  0  0  0  0  0  0  0  0  0  0  0
  151.3635  137.2197  158.5484 H   0  0  0  0  0  0  0  0  0  0  0  0
  152.9362  137.9699  158.3000 H   0  0  0  0  0  0  0  0  0  0  0  0
  152.2678  139.8382  158.4816 H   0  0  0  0  0  0  0  0  0  0  0  0
  153.0036  140.5444  157.0523 H   0  0  0  0  0  0  0  0  0  0  0  0
  150.3691  141.4241  158.3484 H   0  0  0  0  0  0  0  0  0  0  0  0
  152.3624  142.1746  159.6284 H   0  0  0  0  0  0  0  0  0  0  0  0
  151.5648  143.5339  158.8435 H   0  0  0  0  0  0  0  0  0  0  0  0
  153.0522  142.8764  158.1646 H   0  0  0  0  0  0  0  0  0  0  0  0
  150.2063  142.0451  154.7215 H   0  0  0  0  0  0  0  0  0  0  0  0
  148.1547  140.8730  155.3501 H   0  0  0  0  0  0  0  0  0  0  0  0
  148.3196  142.3360  156.3121 H   0  0  0  0  0  0  0  0  0  0  0  0
  148.6598  140.7620  157.0257 H   0  0  0  0  0  0  0  0  0  0  0  0
  151.8306  140.2854  154.8330 H   0  0  0  0  0  0  0  0  0  0  0  0
  150.2565  139.5139  154.7767 H   0  0  0  0  0  0  0  0  0  0  0  0
  150.3365  139.3616  157.1486 H   0  0  0  0  0  0  0  0  0  0  0  0
  1  2  1  0  0  0  0
  1 22  1  0  0  0  0
  1 23  1  0  0  0  0
  1 24  1  0  0  0  0
  2 21  1  0  0  0  0
  2  3  2  0  0  0  0
  3  4  1  0  0  0  0
  3 25  1  0  0  0  0
  4  5  1  0  0  0  0
  4 20  2  0  0  0  0
  5  6  1  0  0  0  0
  5 26  1  0  0  0  0
  6  7  2  0  0  0  0
  6  8  1  0  0  0  0
  8  9  1  0  0  0  0
  9 10  1  0  0  0  0
  9 27  1  0  0  0  0
  9 28  1  0  0  0  0
 10 11  1  0  0  0  0
 10 12  1  0  0  0  0
 10 29  1  0  0  0  0
 11 30  1  0  0  0  0
 11 31  1  0  0  0  0
 11 32  1  0  0  0  0
 12 19  1  0  0  0  0
 12 13  1  0  0  0  0
 12 45  1  0  0  0  0
 13 14  1  0  0  0  0
 13 33  1  0  0  0  0
 13 34  1  0  0  0  0
 14 15  1  0  0  0  0
 14 16  1  0  0  0  0
 14 35  1  0  0  0  0
 15 36  1  0  0  0  0
 15 37  1  0  0  0  0
 15 38  1  0  0  0  0
 16 17  1  0  0  0  0
 17 18  1  0  0  0  0
 17 19  1  0  0  0  0
 17 39  1  0  0  0  0
 18 40  1  0  0  0  0
 18 41  1  0  0  0  0
 18 42  1  0  0  0  0
 19 43  1  0  0  0  0
 19 44  1  0  0  0  0
 20 21  1  0  0  0  0
M  CHG  1   8  -1
M  CHG  1  12   1
M  END
> <s_m_source_file>
AV-unprocessed.smi

> <i_m_source_file_index>
2061

> <i_lp_mmshare_version>
43012

> <i_f3d_flags>
0

> <s_epik_input>
W0NIM11jMVtjSF1jKG5vMSlbTkhdQyg9TylbTkhdW0NIMl1bQ0BIXShbQ0gzXSlOMltDSDJdW0NAQEhdKFtDSDNdKU9bQ0BASF0oW0NIM10pW0NIMl0y

> <s_epik_cmdline>
J2VwaWtfcHl0aG9uJywgJy1waCcsICc3LjAnLCAnLXRuJywgJzgnLCAnLW1hJywgJzIwMCcsICctbWV0YWxfYmluZGluZycsICctaW1hZScsICc8aW5maWxlLm1hZT4nLCAnLW9tYWUnLCAnPG91dGZpbGUubWFlPic=

> <r_epik_Ionization_Penalty>
6.8073

> <r_epik_Ionization_Penalty_Charging>
6.80729

> <r_epik_Ionization_Penalty_Neutral>
5.65391e-06

> <r_epik_State_Penalty>
7.47323

> <r_epik_Charging_Adjusted_Penalty>
14.2805

> <i_epik_Tot_Q>
0

> <i_epik_Tot_abs_Q>
2

> <r_epik_Metal_State_Penalty>
3.40035

> <b_epik_Metal_Only>
1

> <s_lp_Force_Field>
OPLS_2005

> <r_lp_Energy>
16.7719

> <b_lp_Chiralities_Consistent>
1

> <s_lp_Variant>
AV-unprocessed.smi:2061-33

> <Gold.Version>
5.8.1

> <Gold.Id.Protein>
6NUR|6NUR_protein|mol2

> <Gold.PLP.Fitness>
35.7625

> <Gold.PLP.PLP>
-28.9393

> <Gold.PLP.part.hbond>
-2.0000

> <Gold.PLP.part.metal>
0.0000

> <Gold.PLP.part.buried>
-3.8781

> <Gold.PLP.part.nonpolar>
-23.3824

> <Gold.PLP.part.repulsive>
0.4670

> <Gold.PLP.ligand.clash>
0.0000

> <Gold.PLP.ligand.torsion>
1.0835

> <Gold.PLP.Chemscore.Hbond>
2.9272

> <Gold.PLP.Chemscore.CHOScore>
0.0000

> <Gold.PLP.Chemscore.Metal>
0.0000

> <Gold.Chemscore.Hbonds>
donor molecule, donor type, donor heavy atom, donor atom, acceptor molecule, acceptor atom, score
      L1  H     5    26       P1  7948  0.73
      P1  H 10752 10763       L1     8  2.00

> <Gold.PLP.Chemscore.Internal.Correction>
0.2087

> <Gold.Rescore>
     Score         DG    S(hbond)    S(metal)    S(lipo)     H(rot)  DE(clash)    DE(int)     intcor
     11.51     -14.12       1.37        0.00      68.78       1.56       0.31       2.30       ----

> <Gold.Chemscore.Fitness>
11.5080

> <Gold.Chemscore.DG>
-14.1189

> <Gold.Chemscore.ZeroCoef>
-5.4800

> <Gold.Chemscore.Hbond>
1.3691

> <Gold.Chemscore.Metal>
0.0000

> <Gold.Chemscore.Lipo>
68.7768

> <Gold.Chemscore.Internal_Hbond>
0.0000

> <Gold.Chemscore.DEClash>
0.3115

> <Gold.Chemscore.DEInternal>
2.2994

> <Gold.Chemscore.Rot>
1.5550

> <Gold.Chemscore.Internal.Correction>
   9.000000E+99

> <Gold.Chemscore.Hbonds>
donor molecule, donor type, donor heavy atom, donor atom, acceptor molecule, acceptor atom, score
      L1  H     5    26       P1  7948  0.08
      P1  H 10752 10763       L1     8  0.45

> <Gold.Chemscore.Hbond.Weighted>
-4.5729

> <Gold.Chemscore.Metal.Weighted>
-0.0000

> <Gold.Chemscore.Lipo.Weighted>
-8.0469

> <Gold.Chemscore.Internal_Hbond.Weighted>
0.0000

> <Gold.Chemscore.DEClash.Weighted>
0.3115

> <Gold.Chemscore.DEInternal.Weighted>
2.2994

> <Gold.Chemscore.Rot.Weighted>
3.9809

> <Gold.Chemscore.Internal.Correction.Weighted>
   9.000000E+99

> <Gold.Protein.RotatedTorsions>
[ 6907 6896 6895 6894 ] final   81.62 input  -60.11 | X-H torsion
[ 7974 7965 7964 7962 ] final -104.67 input  175.53 | X-H torsion
[ 8008 7997 7996 7995 ] final  -86.76 input   59.86 | X-H torsion
[ 10167 10162 10161 10158 ] final   87.00 input  -65.29 | X-H torsion
[ 10718 10713 10712 10709 ] final   42.85 input   66.30 | X-H torsion
[ 10763 10752 10751 10750 ] final   61.63 input  -60.55 | X-H torsion
[ 11005 11000 10999 10996 ] final   55.46 input  -57.11 | X-H torsion

> <Gold.Protein.ActiveResidues>
 VAL166  LYS551  ARG553  GLY616  TRP617  ASP618  TYR619  PRO620  LYS621  CYS622 
 ASP623  PHE694  ASN695  SER759  ASP760  ASP761  ALA762  ILE779  LEU786  VAL792 
 PHE793  MET794  SER795  GLU796  ALA797  LYS798  CYS799  TRP800  GLU811  SER814 

> <Gold.Protein.RotatedAtoms>
  152.5274  134.3176  159.9136 H   0  0  0  0  0  0  0  0  0  0  0  0  # atno 6907 bound_to 6896
  151.3125  133.4068  159.2655 H   0  0  0  0  0  0  0  0  0  0  0  0  # atno 6908 bound_to 6896
  151.0026  134.9351  159.8020 H   0  0  0  0  0  0  0  0  0  0  0  0  # atno 6909 bound_to 6896
  145.2402  140.9202  143.3154 H   0  0  0  0  0  0  0  0  0  0  0  0  # atno 7974 bound_to 7965
  154.6555  140.0574  157.0003 H   0  0  0  0  0  0  0  0  0  0  0  0  # atno 8008 bound_to 7997
  155.1307  140.3256  155.4456 H   0  0  0  0  0  0  0  0  0  0  0  0  # atno 8009 bound_to 7997
  156.2595  140.1981  156.6426 H   0  0  0  0  0  0  0  0  0  0  0  0  # atno 8010 bound_to 7997
  139.8818  144.6435  150.8834 H   0  0  0  0  0  0  0  0  0  0  0  0  # atno 10167 bound_to 10162
  157.4094  130.7905  149.7417 H   0  0  0  0  0  0  0  0  0  0  0  0  # atno 10718 bound_to 10713
  152.9957  135.5494  154.6065 H   0  0  0  0  0  0  0  0  0  0  0  0  # atno 10763 bound_to 10752
  154.5395  135.2819  155.1110 H   0  0  0  0  0  0  0  0  0  0  0  0  # atno 10764 bound_to 10752
  154.2394  135.6419  153.5254 H   0  0  0  0  0  0  0  0  0  0  0  0  # atno 10765 bound_to 10752
  140.0606  134.5608  155.9157 H   0  0  0  0  0  0  0  0  0  0  0  0  # atno 11005 bound_to 11000
  144.9596  139.3995  143.6362 LP  0  0  0  0  0  0  0  0  0  0  0  0  # atno 17320 bound_to 7965
  146.3330  139.8642  142.8851 LP  0  0  0  0  0  0  0  0  0  0  0  0  # atno 17321 bound_to 7965
  140.7743  143.3579  151.1884 LP  0  0  0  0  0  0  0  0  0  0  0  0  # atno 17342 bound_to 10162
  139.7189  143.9256  152.2977 LP  0  0  0  0  0  0  0  0  0  0  0  0  # atno 17343 bound_to 10162
  155.9846  130.3990  150.3303 LP  0  0  0  0  0  0  0  0  0  0  0  0  # atno 17370 bound_to 10713
  157.1439  131.0304  151.2915 LP  0  0  0  0  0  0  0  0  0  0  0  0  # atno 17371 bound_to 10713
  141.1971  133.6595  156.5725 LP  0  0  0  0  0  0  0  0  0  0  0  0  # atno 17394 bound_to 11000
  140.3777  134.7551  157.4640 LP  0  0  0  0  0  0  0  0  0  0  0  0  # atno 17395 bound_to 11000

$$$$
