AV-unprocessed.smi:2718|AV-procd|sdf|10487|dock4
  -GOLD-   2272014533D 1   1.00000     0.00000
 Structure written by MMmdl.
 47 48  0  0  0  0  0  0  0  0  1 V2000
  148.6913  136.5527  160.5157 C   0  0  0  0  0  0  0  0  0  0  0  0
  148.3768  137.2781  159.2226 C   0  0  0  0  0  0  0  0  0  0  0  0
  146.8951  137.4557  158.9413 C   0  0  0  0  0  0  0  0  0  0  0  0
  149.3524  137.7229  158.4067 C   0  0  0  0  0  0  0  0  0  0  0  0
  149.1818  138.4562  157.1183 C   0  0  1  0  0  0  0  0  0  0  0  0
  150.1459  139.5171  156.5972 C   0  0  1  0  0  0  0  0  0  0  0  0
  151.3607  139.8923  157.3992 C   0  0  0  0  0  0  0  0  0  0  0  0
  152.5208  139.6771  157.0469 O   0  0  0  0  0  0  0  0  0  0  0  0
  151.0655  140.4593  158.5790 N   0  0  0  0  0  0  0  0  0  0  0  0
  152.0454  140.8132  159.6011 C   0  0  0  0  0  0  0  0  0  0  0  0
  153.0652  141.8545  159.0919 C   0  0  2  0  0  0  0  0  0  0  0  0
  154.4114  141.7919  159.8348 C   0  0  0  0  0  0  0  0  0  0  0  0
  152.4878  143.2415  159.1237 C   0  0  0  0  0  0  0  0  0  0  0  0
  152.1392  143.9255  158.0254 N   0  0  0  0  0  0  0  0  0  0  0  0
  151.6693  145.1428  158.4755 N   0  0  0  0  0  0  0  0  0  0  0  0
  151.7831  145.0758  159.8011 C   0  0  0  0  0  0  0  0  0  0  0  0
  152.2853  143.9240  160.2710 N   0  0  0  0  0  0  0  0  0  0  0  0
  152.5349  143.5460  161.6482 C   0  0  0  0  0  0  0  0  0  0  0  0
  150.0382  138.1662  155.8945 C   0  0  0  0  0  0  0  0  0  0  0  0
  151.1382  137.1067  155.9305 C   0  0  0  0  0  0  0  0  0  0  0  0
  149.3797  138.1431  154.5255 C   0  0  0  0  0  0  0  0  0  0  0  0
  148.2518  135.5552  160.5069 H   0  0  0  0  0  0  0  0  0  0  0  0
  148.2818  137.1013  161.3643 H   0  0  0  0  0  0  0  0  0  0  0  0
  149.7662  136.4486  160.6670 H   0  0  0  0  0  0  0  0  0  0  0  0
  146.4333  138.0476  159.7315 H   0  0  0  0  0  0  0  0  0  0  0  0
  146.4003  136.4850  158.9103 H   0  0  0  0  0  0  0  0  0  0  0  0
  146.7067  137.9560  157.9920 H   0  0  0  0  0  0  0  0  0  0  0  0
  150.3771  137.5344  158.6918 H   0  0  0  0  0  0  0  0  0  0  0  0
  148.1264  138.6433  156.9294 H   0  0  0  0  0  0  0  0  0  0  0  0
  149.6736  140.3544  156.0849 H   0  0  0  0  0  0  0  0  0  0  0  0
  150.0928  140.6093  158.8053 H   0  0  0  0  0  0  0  0  0  0  0  0
  151.5278  141.1928  160.4840 H   0  0  0  0  0  0  0  0  0  0  0  0
  152.5596  139.9045  159.9155 H   0  0  0  0  0  0  0  0  0  0  0  0
  153.2805  141.6091  158.0527 H   0  0  0  0  0  0  0  0  0  0  0  0
  155.1185  142.5105  159.4195 H   0  0  0  0  0  0  0  0  0  0  0  0
  154.8676  140.8051  159.7556 H   0  0  0  0  0  0  0  0  0  0  0  0
  154.2908  142.0179  160.8947 H   0  0  0  0  0  0  0  0  0  0  0  0
  151.4938  145.8919  160.4471 H   0  0  0  0  0  0  0  0  0  0  0  0
  152.2442  144.3554  162.3188 H   0  0  0  0  0  0  0  0  0  0  0  0
  153.5961  143.3359  161.7857 H   0  0  0  0  0  0  0  0  0  0  0  0
  151.9563  142.6560  161.8974 H   0  0  0  0  0  0  0  0  0  0  0  0
  151.9681  137.4055  155.2898 H   0  0  0  0  0  0  0  0  0  0  0  0
  150.7547  136.1515  155.5705 H   0  0  0  0  0  0  0  0  0  0  0  0
  151.5237  136.9382  156.9339 H   0  0  0  0  0  0  0  0  0  0  0  0
  150.1141  138.3525  153.7472 H   0  0  0  0  0  0  0  0  0  0  0  0
  148.5906  138.8929  154.4611 H   0  0  0  0  0  0  0  0  0  0  0  0
  148.9345  137.1666  154.3330 H   0  0  0  0  0  0  0  0  0  0  0  0
  1  2  1  0  0  0  0
  1 22  1  0  0  0  0
  1 23  1  0  0  0  0
  1 24  1  0  0  0  0
  2  3  1  0  0  0  0
  2  4  2  0  0  0  0
  3 25  1  0  0  0  0
  3 26  1  0  0  0  0
  3 27  1  0  0  0  0
  4  5  1  0  0  0  0
  4 28  1  0  0  0  0
  5 19  1  0  0  0  0
  5  6  1  0  0  0  0
  5 29  1  0  0  0  0
  6  7  1  0  0  0  0
  6 19  1  0  0  0  0
  6 30  1  0  0  0  0
  7  8  2  0  0  0  0
  7  9  1  0  0  0  0
  9 10  1  0  0  0  0
  9 31  1  0  0  0  0
 10 11  1  0  0  0  0
 10 32  1  0  0  0  0
 10 33  1  0  0  0  0
 11 12  1  0  0  0  0
 11 13  1  0  0  0  0
 11 34  1  0  0  0  0
 12 35  1  0  0  0  0
 12 36  1  0  0  0  0
 12 37  1  0  0  0  0
 13 17  1  0  0  0  0
 13 14  2  0  0  0  0
 14 15  1  0  0  0  0
 15 16  2  0  0  0  0
 16 17  1  0  0  0  0
 16 38  1  0  0  0  0
 17 18  1  0  0  0  0
 18 39  1  0  0  0  0
 18 40  1  0  0  0  0
 18 41  1  0  0  0  0
 19 20  1  0  0  0  0
 19 21  1  0  0  0  0
 20 42  1  0  0  0  0
 20 43  1  0  0  0  0
 20 44  1  0  0  0  0
 21 45  1  0  0  0  0
 21 46  1  0  0  0  0
 21 47  1  0  0  0  0
M  END
> <s_m_source_file>
AV-unprocessed.smi

> <i_m_source_file_index>
2718

> <i_lp_mmshare_version>
43012

> <i_f3d_flags>
0

> <s_epik_input>
W0NIM11DKFtDSDNdKT1bQ0hdW0NAQEhdKEMxKFtDSDNdKVtDSDNdKVtDQEhdMUMoPU8pW05IXVtDSDJdW0NASF0oW0NIM10pYzJubltjSF1uMltDSDNd

> <s_epik_cmdline>
J2VwaWtfcHl0aG9uJywgJy1waCcsICc3LjAnLCAnLXRuJywgJzgnLCAnLW1hJywgJzIwMCcsICctbWV0YWxfYmluZGluZycsICctaW1hZScsICc8aW5maWxlLm1hZT4nLCAnLW9tYWUnLCAnPG91dGZpbGUubWFlPic=

> <r_lp_tautomer_probability>
1

> <r_epik_Ionization_Penalty>
0.000449586

> <r_epik_Ionization_Penalty_Charging>
0

> <r_epik_Ionization_Penalty_Neutral>
0.000449586

> <r_epik_State_Penalty>
0.000243372

> <r_epik_Charging_Adjusted_Penalty>
0.000243372

> <i_epik_Tot_Q>
0

> <i_epik_Tot_abs_Q>
0

> <r_epik_Metal_State_Penalty>
-0

> <b_epik_Metal_Only>
0

> <s_lp_Force_Field>
OPLS_2005

> <r_lp_Energy>
16.2745

> <b_lp_Chiralities_Consistent>
1

> <s_lp_Variant>
AV-unprocessed.smi:2718-2

> <Gold.Version>
5.8.1

> <Gold.Id.Protein>
6NUR|6NUR_protein|mol2

> <Gold.PLP.Fitness>
40.7105

> <Gold.PLP.PLP>
-39.2980

> <Gold.PLP.part.hbond>
-1.0000

> <Gold.PLP.part.metal>
0.0000

> <Gold.PLP.part.buried>
-6.9275

> <Gold.PLP.part.nonpolar>
-31.3545

> <Gold.PLP.part.repulsive>
0.2801

> <Gold.PLP.ligand.clash>
0.0000

> <Gold.PLP.ligand.torsion>
0.9488

> <Gold.PLP.Chemscore.Hbond>
1.0000

> <Gold.PLP.Chemscore.CHOScore>
0.0000

> <Gold.PLP.Chemscore.Metal>
0.0000

> <Gold.Chemscore.Hbonds>
donor molecule, donor type, donor heavy atom, donor atom, acceptor molecule, acceptor atom, score
      P1  H  7997  8010       L1     8  1.00

> <Gold.PLP.Chemscore.Internal.Correction>
0.3102

> <Gold.Rescore>
     Score         DG    S(hbond)    S(metal)    S(lipo)     H(rot)  DE(clash)    DE(int)     intcor
     11.70     -12.33       1.00        0.00      72.79       1.95       0.03       0.60       ----

> <Gold.Chemscore.Fitness>
11.7049

> <Gold.Chemscore.DG>
-12.3317

> <Gold.Chemscore.ZeroCoef>
-5.4800

> <Gold.Chemscore.Hbond>
0.9988

> <Gold.Chemscore.Metal>
0.0000

> <Gold.Chemscore.Lipo>
72.7885

> <Gold.Chemscore.Internal_Hbond>
0.0000

> <Gold.Chemscore.DEClash>
0.0275

> <Gold.Chemscore.DEInternal>
0.5994

> <Gold.Chemscore.Rot>
1.9533

> <Gold.Chemscore.Internal.Correction>
   9.000000E+99

> <Gold.Chemscore.Hbonds>
donor molecule, donor type, donor heavy atom, donor atom, acceptor molecule, acceptor atom, score
      P1  H  7997  8010       L1     8  0.98

> <Gold.Chemscore.Hbond.Weighted>
-3.3360

> <Gold.Chemscore.Metal.Weighted>
-0.0000

> <Gold.Chemscore.Lipo.Weighted>
-8.5163

> <Gold.Chemscore.Internal_Hbond.Weighted>
0.0000

> <Gold.Chemscore.DEClash.Weighted>
0.0275

> <Gold.Chemscore.DEInternal.Weighted>
0.5994

> <Gold.Chemscore.Rot.Weighted>
5.0005

> <Gold.Chemscore.Internal.Correction.Weighted>
   9.000000E+99

> <Gold.Protein.RotatedTorsions>
[ 6907 6896 6895 6894 ] final -145.64 input  -60.11 | X-H torsion
[ 7974 7965 7964 7962 ] final -103.75 input  175.53 | X-H torsion
[ 8008 7997 7996 7995 ] final   73.21 input   59.86 | X-H torsion
[ 10167 10162 10161 10158 ] final   76.37 input  -65.29 | X-H torsion
[ 10718 10713 10712 10709 ] final -105.92 input   66.30 | X-H torsion
[ 10763 10752 10751 10750 ] final  -58.62 input  -60.55 | X-H torsion
[ 11005 11000 10999 10996 ] final   15.69 input  -57.11 | X-H torsion

> <Gold.Protein.ActiveResidues>
 VAL166  LYS551  ARG553  GLY616  TRP617  ASP618  TYR619  PRO620  LYS621  CYS622 
 ASP623  PHE694  ASN695  SER759  ASP760  ASP761  ALA762  ILE779  LEU786  VAL792 
 PHE793  MET794  SER795  GLU796  ALA797  LYS798  CYS799  TRP800  GLU811  SER814 

> <Gold.Protein.RotatedAtoms>
  151.1305  133.5040  159.2599 H   0  0  0  0  0  0  0  0  0  0  0  0  # atno 6907 bound_to 6896
  151.1762  135.0340  159.8783 H   0  0  0  0  0  0  0  0  0  0  0  0  # atno 6908 bound_to 6896
  152.5459  134.1163  159.8433 H   0  0  0  0  0  0  0  0  0  0  0  0  # atno 6909 bound_to 6896
  145.2520  140.9241  143.3090 H   0  0  0  0  0  0  0  0  0  0  0  0  # atno 7974 bound_to 7965
  155.7804  140.3482  155.5294 H   0  0  0  0  0  0  0  0  0  0  0  0  # atno 8008 bound_to 7997
  155.8734  140.0990  157.1555 H   0  0  0  0  0  0  0  0  0  0  0  0  # atno 8009 bound_to 7997
  154.4019  140.1336  156.4094 H   0  0  0  0  0  0  0  0  0  0  0  0  # atno 8010 bound_to 7997
  139.9930  144.5743  150.7802 H   0  0  0  0  0  0  0  0  0  0  0  0  # atno 10167 bound_to 10162
  156.0367  130.5587  150.7607 H   0  0  0  0  0  0  0  0  0  0  0  0  # atno 10718 bound_to 10713
  154.2410  135.6343  153.5207 H   0  0  0  0  0  0  0  0  0  0  0  0  # atno 10763 bound_to 10752
  152.9930  135.5542  154.5911 H   0  0  0  0  0  0  0  0  0  0  0  0  # atno 10764 bound_to 10752
  154.5416  135.2895  155.1065 H   0  0  0  0  0  0  0  0  0  0  0  0  # atno 10765 bound_to 10752
  140.4555  134.1180  155.7708 H   0  0  0  0  0  0  0  0  0  0  0  0  # atno 11005 bound_to 11000
  144.9495  139.4099  143.6409 LP  0  0  0  0  0  0  0  0  0  0  0  0  # atno 17320 bound_to 7965
  146.3300  139.8495  142.8875 LP  0  0  0  0  0  0  0  0  0  0  0  0  # atno 17321 bound_to 7965
  140.7447  143.2865  151.3448 LP  0  0  0  0  0  0  0  0  0  0  0  0  # atno 17342 bound_to 10162
  139.6326  144.0691  152.2489 LP  0  0  0  0  0  0  0  0  0  0  0  0  # atno 17343 bound_to 10162
  157.5127  131.0926  151.0178 LP  0  0  0  0  0  0  0  0  0  0  0  0  # atno 17370 bound_to 10713
  157.0529  130.5794  149.5373 LP  0  0  0  0  0  0  0  0  0  0  0  0  # atno 17371 bound_to 10713
  141.1645  133.8730  157.1755 LP  0  0  0  0  0  0  0  0  0  0  0  0  # atno 17394 bound_to 11000
  139.9979  135.0039  157.0123 LP  0  0  0  0  0  0  0  0  0  0  0  0  # atno 17395 bound_to 11000

$$$$
