AV-unprocessed.smi:2147|AV-procd|sdf|8744|dock5
  -GOLD-   2272011523D 1   1.00000     0.00000
 Structure written by MMmdl.
 42 44  0  0  0  0  0  0  0  0  2 V2000
  149.3456  131.0118  153.6778 C   0  0  0  0  0  0  0  0  0  0  0  0
  150.2104  131.4641  154.8532 C   0  0  0  0  0  0  0  0  0  0  0  0
  150.7997  130.6109  155.5163 O   0  0  0  0  0  0  0  0  0  0  0  0
  150.2934  132.9259  155.1335 C   0  0  0  0  0  0  0  0  0  0  0  0
  149.5742  133.8739  154.3695 C   0  0  0  0  0  0  0  0  0  0  0  0
  149.6723  135.2478  154.6611 C   0  0  0  0  0  0  0  0  0  0  0  0
  150.4843  135.7091  155.7157 C   0  0  0  0  0  0  0  0  0  0  0  0
  150.5185  137.0700  155.9314 O   0  0  0  0  0  0  0  0  0  0  0  0
  151.6962  137.6330  156.4944 C   0  0  0  0  0  0  0  0  0  0  0  0
  151.6805  139.1516  156.2654 C   0  0  2  0  0  0  0  0  0  0  0  0
  152.7068  139.4751  155.3484 O   0  0  0  0  0  0  0  0  0  0  0  0
  151.8680  139.9435  157.5754 C   0  0  0  0  0  0  0  0  0  0  0  0
  151.5535  141.3722  157.4314 N   0  0  0  0  0  0  0  0  0  0  0  0
  150.9774  142.0326  156.3906 C   0  0  0  0  0  0  0  0  0  0  0  0
  150.8913  143.3476  156.7340 N   0  3  0  0  0  0  0  0  0  0  0  0
  151.4216  143.5315  158.0127 C   0  0  0  0  0  0  0  0  0  0  0  0
  151.5556  144.6803  158.7863 C   0  0  0  0  0  0  0  0  0  0  0  0
  152.1480  144.5225  160.0565 C   0  0  0  0  0  0  0  0  0  0  0  0
  152.5807  143.2607  160.5135 C   0  0  0  0  0  0  0  0  0  0  0  0
  152.4380  142.1025  159.7214 C   0  0  0  0  0  0  0  0  0  0  0  0
  151.8505  142.2661  158.4670 C   0  0  0  0  0  0  0  0  0  0  0  0
  151.2068  134.7610  156.4807 C   0  0  0  0  0  0  0  0  0  0  0  0
  151.1097  133.3863  156.1910 C   0  0  0  0  0  0  0  0  0  0  0  0
  148.3081  131.3104  153.8292 H   0  0  0  0  0  0  0  0  0  0  0  0
  149.3764  129.9269  153.5760 H   0  0  0  0  0  0  0  0  0  0  0  0
  149.7058  131.4514  152.7476 H   0  0  0  0  0  0  0  0  0  0  0  0
  148.9376  133.5700  153.5522 H   0  0  0  0  0  0  0  0  0  0  0  0
  149.1149  135.9571  154.0669 H   0  0  0  0  0  0  0  0  0  0  0  0
  151.7581  137.4174  157.5626 H   0  0  0  0  0  0  0  0  0  0  0  0
  152.5709  137.1960  156.0092 H   0  0  0  0  0  0  0  0  0  0  0  0
  150.7324  139.4319  155.8047 H   0  0  0  0  0  0  0  0  0  0  0  0
  152.4739  140.2784  154.9080 H   0  0  0  0  0  0  0  0  0  0  0  0
  151.2034  139.5493  158.3451 H   0  0  0  0  0  0  0  0  0  0  0  0
  152.8804  139.8349  157.9651 H   0  0  0  0  0  0  0  0  0  0  0  0
  150.6464  141.5921  155.4611 H   0  0  0  0  0  0  0  0  0  0  0  0
  151.2260  145.6482  158.4384 H   0  0  0  0  0  0  0  0  0  0  0  0
  152.2744  145.3868  160.6924 H   0  0  0  0  0  0  0  0  0  0  0  0
  153.0329  143.1788  161.4912 H   0  0  0  0  0  0  0  0  0  0  0  0
  152.7784  141.1421  160.0791 H   0  0  0  0  0  0  0  0  0  0  0  0
  151.8446  135.0616  157.2977 H   0  0  0  0  0  0  0  0  0  0  0  0
  151.6728  132.6885  156.7941 H   0  0  0  0  0  0  0  0  0  0  0  0
  150.4992  144.0649  156.1376 H   0  0  0  0  0  0  0  0  0  0  0  0
  1  2  1  0  0  0  0
  1 24  1  0  0  0  0
  1 25  1  0  0  0  0
  1 26  1  0  0  0  0
  2  3  2  0  0  0  0
  2  4  1  0  0  0  0
  4 23  1  0  0  0  0
  4  5  2  0  0  0  0
  5  6  1  0  0  0  0
  5 27  1  0  0  0  0
  6  7  2  0  0  0  0
  6 28  1  0  0  0  0
  7  8  1  0  0  0  0
  7 22  1  0  0  0  0
  8  9  1  0  0  0  0
  9 10  1  0  0  0  0
  9 29  1  0  0  0  0
  9 30  1  0  0  0  0
 10 11  1  0  0  0  0
 10 12  1  0  0  0  0
 10 31  1  0  0  0  0
 11 32  1  0  0  0  0
 12 13  1  0  0  0  0
 12 33  1  0  0  0  0
 12 34  1  0  0  0  0
 13 21  1  0  0  0  0
 13 14  1  0  0  0  0
 14 15  2  0  0  0  0
 14 35  1  0  0  0  0
 15 16  1  0  0  0  0
 15 42  1  0  0  0  0
 16 21  2  0  0  0  0
 16 17  1  0  0  0  0
 17 18  2  0  0  0  0
 17 36  1  0  0  0  0
 18 19  1  0  0  0  0
 18 37  1  0  0  0  0
 19 20  2  0  0  0  0
 19 38  1  0  0  0  0
 20 21  1  0  0  0  0
 20 39  1  0  0  0  0
 22 23  2  0  0  0  0
 22 40  1  0  0  0  0
 23 41  1  0  0  0  0
M  CHG  1  15   1
M  END
> <s_m_source_file>
AV-unprocessed.smi

> <i_m_source_file_index>
2147

> <i_lp_mmshare_version>
43012

> <i_f3d_flags>
0

> <s_epik_input>
W0NIM11DKD1PKWMxW2NIXVtjSF1jKFtjSF1bY0hdMSlPW0NIMl1bQ0BIXShbT0hdKVtDSDJdbihbY0hdbjIpYyhjMjMpW2NIXVtjSF1bY0hdW2NIXTM=

> <s_epik_cmdline>
J2VwaWtfcHl0aG9uJywgJy1waCcsICc3LjAnLCAnLXRuJywgJzgnLCAnLW1hJywgJzIwMCcsICctbWV0YWxfYmluZGluZycsICctaW1hZScsICc8aW5maWxlLm1hZT4nLCAnLW9tYWUnLCAnPG91dGZpbGUubWFlPic=

> <r_lp_tautomer_probability>
0.99995

> <r_epik_Ionization_Penalty>
1.40272

> <r_epik_Ionization_Penalty_Charging>
1.40272

> <r_epik_Ionization_Penalty_Neutral>
2.3993e-06

> <r_epik_State_Penalty>
1.48501

> <r_epik_Charging_Adjusted_Penalty>
2.88772

> <i_epik_Tot_Q>
1

> <i_epik_Tot_abs_Q>
1

> <r_epik_Metal_State_Penalty>
5.5274

> <b_epik_Metal_Only>
0

> <s_lp_Force_Field>
OPLS_2005

> <r_lp_Energy>
26.2273

> <b_lp_Chiralities_Consistent>
1

> <s_lp_Variant>
AV-unprocessed.smi:2147-3

> <Gold.Version>
5.8.1

> <Gold.Id.Protein>
6NUR|6NUR_protein|mol2

> <Gold.PLP.Fitness>
53.0336

> <Gold.PLP.PLP>
-46.6430

> <Gold.PLP.part.hbond>
-2.4219

> <Gold.PLP.part.metal>
0.0000

> <Gold.PLP.part.buried>
-6.9246

> <Gold.PLP.part.nonpolar>
-37.0223

> <Gold.PLP.part.repulsive>
0.0784

> <Gold.PLP.ligand.clash>
0.0000

> <Gold.PLP.ligand.torsion>
1.3208

> <Gold.PLP.Chemscore.Hbond>
2.9753

> <Gold.PLP.Chemscore.CHOScore>
0.0000

> <Gold.PLP.Chemscore.Metal>
0.0000

> <Gold.Chemscore.Hbonds>
donor molecule, donor type, donor heavy atom, donor atom, acceptor molecule, acceptor atom, score
      L1  H    15    42       P1  8028  1.63
      P1  H  7997  8008       L1    11  0.75

> <Gold.PLP.Chemscore.Internal.Correction>
0.1064

> <Gold.Rescore>
     Score         DG    S(hbond)    S(metal)    S(lipo)     H(rot)  DE(clash)    DE(int)     intcor
     17.15     -18.48       1.60        0.00     119.93       2.48       0.05       1.29       ----

> <Gold.Chemscore.Fitness>
17.1476

> <Gold.Chemscore.DG>
-18.4841

> <Gold.Chemscore.ZeroCoef>
-5.4800

> <Gold.Chemscore.Hbond>
1.5964

> <Gold.Chemscore.Metal>
0.0000

> <Gold.Chemscore.Lipo>
119.9293

> <Gold.Chemscore.Internal_Hbond>
0.0000

> <Gold.Chemscore.DEClash>
0.0500

> <Gold.Chemscore.DEInternal>
1.2865

> <Gold.Chemscore.Rot>
2.4842

> <Gold.Chemscore.Internal.Correction>
   9.000000E+99

> <Gold.Chemscore.Hbonds>
donor molecule, donor type, donor heavy atom, donor atom, acceptor molecule, acceptor atom, score
      L1  H    15    42       P1  8028  0.81
      P1  H  7997  8008       L1    11  0.09

> <Gold.Chemscore.Hbond.Weighted>
-5.3318

> <Gold.Chemscore.Metal.Weighted>
-0.0000

> <Gold.Chemscore.Lipo.Weighted>
-14.0317

> <Gold.Chemscore.Internal_Hbond.Weighted>
0.0000

> <Gold.Chemscore.DEClash.Weighted>
0.0500

> <Gold.Chemscore.DEInternal.Weighted>
1.2865

> <Gold.Chemscore.Rot.Weighted>
6.3594

> <Gold.Chemscore.Internal.Correction.Weighted>
   9.000000E+99

> <Gold.Protein.RotatedTorsions>
[ 6907 6896 6895 6894 ] final  123.95 input  -60.11 | X-H torsion
[ 7974 7965 7964 7962 ] final   19.76 input  175.53 | X-H torsion
[ 8008 7997 7996 7995 ] final  -29.93 input   59.86 | X-H torsion
[ 10167 10162 10161 10158 ] final  -42.99 input  -65.29 | X-H torsion
[ 10718 10713 10712 10709 ] final -100.34 input   66.30 | X-H torsion
[ 10763 10752 10751 10750 ] final   27.65 input  -60.55 | X-H torsion
[ 11005 11000 10999 10996 ] final  170.71 input  -57.11 | X-H torsion

> <Gold.Protein.ActiveResidues>
 VAL166  LYS551  ARG553  GLY616  TRP617  ASP618  TYR619  PRO620  LYS621  CYS622 
 ASP623  PHE694  ASN695  SER759  ASP760  ASP761  ALA762  ILE779  LEU786  VAL792 
 PHE793  MET794  SER795  GLU796  ALA797  LYS798  CYS799  TRP800  GLU811  SER814 

> <Gold.Protein.RotatedAtoms>
  152.4119  133.6976  159.6404 H   0  0  0  0  0  0  0  0  0  0  0  0  # atno 6907 bound_to 6896
  150.7998  133.8609  159.3240 H   0  0  0  0  0  0  0  0  0  0  0  0  # atno 6908 bound_to 6896
  151.6349  135.1021  160.0181 H   0  0  0  0  0  0  0  0  0  0  0  0  # atno 6909 bound_to 6896
  146.2137  139.8266  142.8668 H   0  0  0  0  0  0  0  0  0  0  0  0  # atno 7974 bound_to 7965
  154.4270  140.1805  156.1326 H   0  0  0  0  0  0  0  0  0  0  0  0  # atno 8008 bound_to 7997
  156.0055  140.3356  155.6863 H   0  0  0  0  0  0  0  0  0  0  0  0  # atno 8009 bound_to 7997
  155.6183  140.0657  157.2676 H   0  0  0  0  0  0  0  0  0  0  0  0  # atno 8010 bound_to 7997
  140.6950  143.3007  151.3287 H   0  0  0  0  0  0  0  0  0  0  0  0  # atno 10167 bound_to 10162
  156.0160  130.5323  150.6803 H   0  0  0  0  0  0  0  0  0  0  0  0  # atno 10718 bound_to 10713
  153.0542  135.6532  154.0619 H   0  0  0  0  0  0  0  0  0  0  0  0  # atno 10763 bound_to 10752
  154.0301  135.2912  155.3371 H   0  0  0  0  0  0  0  0  0  0  0  0  # atno 10764 bound_to 10752
  154.6847  135.5306  153.8378 H   0  0  0  0  0  0  0  0  0  0  0  0  # atno 10765 bound_to 10752
  140.3112  134.7515  157.3993 H   0  0  0  0  0  0  0  0  0  0  0  0  # atno 11005 bound_to 11000
  145.3040  141.0202  143.3592 LP  0  0  0  0  0  0  0  0  0  0  0  0  # atno 17320 bound_to 7965
  144.8985  139.4681  143.6644 LP  0  0  0  0  0  0  0  0  0  0  0  0  # atno 17321 bound_to 7965
  139.6394  144.0567  152.2542 LP  0  0  0  0  0  0  0  0  0  0  0  0  # atno 17342 bound_to 10162
  140.0068  144.6253  150.7682 LP  0  0  0  0  0  0  0  0  0  0  0  0  # atno 17343 bound_to 10162
  157.4507  131.0872  151.0849 LP  0  0  0  0  0  0  0  0  0  0  0  0  # atno 17370 bound_to 10713
  157.1366  130.6125  149.5543 LP  0  0  0  0  0  0  0  0  0  0  0  0  # atno 17371 bound_to 10713
  140.1023  134.5456  155.8341 LP  0  0  0  0  0  0  0  0  0  0  0  0  # atno 17394 bound_to 11000
  141.2107  133.6698  156.6533 LP  0  0  0  0  0  0  0  0  0  0  0  0  # atno 17395 bound_to 11000

$$$$
