AV-unprocessed.smi:1433|AV-procd|sdf|5842|dock1
  -GOLD-   22720 5503D 1   1.00000     0.00000
 Structure written by MMmdl.
 45 46  0  0  0  0  0  0  0  0  2 V2000
  148.6293  141.6219  154.4882 C   0  0  0  0  0  0  0  0  0  0  0  0
  149.1274  140.2064  154.7982 C   0  0  1  0  0  0  0  0  0  0  0  0
  148.6597  139.1851  153.7394 C   0  0  0  0  0  0  0  0  0  0  0  0
  149.2086  137.8290  154.0160 N   0  3  2  0  0  0  0  0  0  0  0  0
  148.5795  137.0920  155.1666 C   0  0  2  0  0  0  0  0  0  0  0  0
  149.3772  135.8166  155.5327 C   0  0  0  0  0  0  0  0  0  0  0  0
  147.0935  136.7282  154.8851 C   0  0  0  0  0  0  0  0  0  0  0  0
  146.8270  136.4347  153.4797 N   0  0  0  0  0  0  0  0  0  0  0  0
  145.6184  136.1484  152.9701 C   0  0  0  0  0  0  0  0  0  0  0  0
  144.5932  136.1014  153.6499 O   0  0  0  0  0  0  0  0  0  0  0  0
  145.5577  135.8564  151.4698 C   0  0  0  0  0  0  0  0  0  0  0  0
  145.1487  134.4874  151.2107 N   0  0  0  0  0  0  0  0  0  0  0  0
  144.0324  134.0384  150.5355 C   0  0  0  0  0  0  0  0  0  0  0  0
  144.0718  132.6736  150.5467 C   0  0  0  0  0  0  0  0  0  0  0  0
  145.2657  132.3757  151.2613 C   0  0  0  0  0  0  0  0  0  0  0  0
  145.9073  133.4628  151.6582 N   0  0  0  0  0  0  0  0  0  0  0  0
  150.6925  137.9429  154.0625 C   0  0  0  0  0  0  0  0  0  0  0  0
  151.1405  138.9753  155.1197 C   0  0  1  0  0  0  0  0  0  0  0  0
  152.6622  139.1557  155.1376 C   0  0  0  0  0  0  0  0  0  0  0  0
  150.5517  140.2357  154.8126 O   0  0  0  0  0  0  0  0  0  0  0  0
  147.5397  141.6601  154.4759 H   0  0  0  0  0  0  0  0  0  0  0  0
  148.9876  141.9635  153.5166 H   0  0  0  0  0  0  0  0  0  0  0  0
  148.9775  142.3311  155.2395 H   0  0  0  0  0  0  0  0  0  0  0  0
  148.7615  139.9262  155.7867 H   0  0  0  0  0  0  0  0  0  0  0  0
  147.5778  139.1895  153.6352 H   0  0  0  0  0  0  0  0  0  0  0  0
  149.0281  139.5000  152.7618 H   0  0  0  0  0  0  0  0  0  0  0  0
  148.6004  137.7421  156.0404 H   0  0  0  0  0  0  0  0  0  0  0  0
  148.8808  135.2268  156.3026 H   0  0  0  0  0  0  0  0  0  0  0  0
  150.3587  136.0478  155.9442 H   0  0  0  0  0  0  0  0  0  0  0  0
  149.5140  135.1713  154.6645 H   0  0  0  0  0  0  0  0  0  0  0  0
  146.7720  135.8527  155.4467 H   0  0  0  0  0  0  0  0  0  0  0  0
  146.4439  137.5495  155.1894 H   0  0  0  0  0  0  0  0  0  0  0  0
  147.6152  136.4562  152.8487 H   0  0  0  0  0  0  0  0  0  0  0  0
  144.8511  136.5343  150.9892 H   0  0  0  0  0  0  0  0  0  0  0  0
  146.5320  136.0335  151.0116 H   0  0  0  0  0  0  0  0  0  0  0  0
  143.3113  134.7193  150.1075 H   0  0  0  0  0  0  0  0  0  0  0  0
  143.3575  131.9913  150.1105 H   0  0  0  0  0  0  0  0  0  0  0  0
  145.6825  131.4087  151.5017 H   0  0  0  0  0  0  0  0  0  0  0  0
  151.1813  136.9826  154.2120 H   0  0  0  0  0  0  0  0  0  0  0  0
  151.0338  138.2737  153.0803 H   0  0  0  0  0  0  0  0  0  0  0  0
  150.8238  138.6627  156.1154 H   0  0  0  0  0  0  0  0  0  0  0  0
  153.1652  138.2205  155.3850 H   0  0  0  0  0  0  0  0  0  0  0  0
  152.9579  139.8974  155.8799 H   0  0  0  0  0  0  0  0  0  0  0  0
  153.0326  139.4894  154.1677 H   0  0  0  0  0  0  0  0  0  0  0  0
  148.9982  137.2706  153.2010 H   0  0  0  0  0  0  0  0  0  0  0  0
  1  2  1  0  0  0  0
  1 21  1  0  0  0  0
  1 22  1  0  0  0  0
  1 23  1  0  0  0  0
  2 20  1  0  0  0  0
  2  3  1  0  0  0  0
  2 24  1  0  0  0  0
  3  4  1  0  0  0  0
  3 25  1  0  0  0  0
  3 26  1  0  0  0  0
  4  5  1  0  0  0  0
  4 17  1  0  0  0  0
  4 45  1  0  0  0  0
  5  6  1  0  0  0  0
  5  7  1  0  0  0  0
  5 27  1  0  0  0  0
  6 28  1  0  0  0  0
  6 29  1  0  0  0  0
  6 30  1  0  0  0  0
  7  8  1  0  0  0  0
  7 31  1  0  0  0  0
  7 32  1  0  0  0  0
  8  9  1  0  0  0  0
  8 33  1  0  0  0  0
  9 10  2  0  0  0  0
  9 11  1  0  0  0  0
 11 12  1  0  0  0  0
 11 34  1  0  0  0  0
 11 35  1  0  0  0  0
 12 16  1  0  0  0  0
 12 13  1  0  0  0  0
 13 14  2  0  0  0  0
 13 36  1  0  0  0  0
 14 15  1  0  0  0  0
 14 37  1  0  0  0  0
 15 16  2  0  0  0  0
 15 38  1  0  0  0  0
 17 18  1  0  0  0  0
 17 39  1  0  0  0  0
 17 40  1  0  0  0  0
 18 19  1  0  0  0  0
 18 20  1  0  0  0  0
 18 41  1  0  0  0  0
 19 42  1  0  0  0  0
 19 43  1  0  0  0  0
 19 44  1  0  0  0  0
M  CHG  1   4   1
M  END
> <s_m_source_file>
AV-unprocessed.smi

> <i_m_source_file_index>
1433

> <i_lp_mmshare_version>
43012

> <i_f3d_flags>
0

> <s_epik_input>
W0NIM11bQ0BASF0xW0NIMl1OKFtDSDJdW0NASF0oTzEpW0NIM10pW0NASF0oW0NIM10pW0NIMl1bTkhdQyg9TylbQ0gyXW4yW2NIXVtjSF1bY0hdbjI=

> <s_epik_cmdline>
J2VwaWtfcHl0aG9uJywgJy1waCcsICc3LjAnLCAnLXRuJywgJzgnLCAnLW1hJywgJzIwMCcsICctbWV0YWxfYmluZGluZycsICctaW1hZScsICc8aW5maWxlLm1hZT4nLCAnLW9tYWUnLCAnPG91dGZpbGUubWFlPic=

> <r_lp_tautomer_probability>
1

> <r_epik_Ionization_Penalty>
0.748405

> <r_epik_Ionization_Penalty_Charging>
0.748396

> <r_epik_Ionization_Penalty_Neutral>
8.54426e-06

> <r_epik_State_Penalty>
0.775162

> <r_epik_Charging_Adjusted_Penalty>
1.52356

> <i_epik_Tot_Q>
1

> <i_epik_Tot_abs_Q>
1

> <r_epik_Metal_State_Penalty>
0.775167

> <b_epik_Metal_Only>
0

> <s_lp_Force_Field>
OPLS_2005

> <r_lp_Energy>
22.2422

> <b_lp_Chiralities_Consistent>
1

> <s_lp_Variant>
AV-unprocessed.smi:1433-8

> <Gold.Version>
5.8.1

> <Gold.Id.Protein>
6NUR|6NUR_protein|mol2

> <Gold.PLP.Fitness>
47.2587

> <Gold.PLP.PLP>
-33.1323

> <Gold.PLP.part.hbond>
-3.0000

> <Gold.PLP.part.metal>
0.0000

> <Gold.PLP.part.buried>
-2.6688

> <Gold.PLP.part.nonpolar>
-28.9209

> <Gold.PLP.part.repulsive>
0.2703

> <Gold.PLP.ligand.clash>
0.0000

> <Gold.PLP.ligand.torsion>
0.5323

> <Gold.PLP.Chemscore.Hbond>
4.0000

> <Gold.PLP.Chemscore.CHOScore>
1.0000

> <Gold.PLP.Chemscore.Metal>
0.0000

> <Gold.Chemscore.Hbonds>
donor molecule, donor type, donor heavy atom, donor atom, acceptor molecule, acceptor atom, score
      L1  H     4    45       P1  7948  2.00
      L1  H     8    33       P1  7948  1.00
      P1  H  7989  7998       L1    20  1.00
      L1  C    13    36       P1 10186  1.00

> <Gold.PLP.Chemscore.Internal.Correction>
0.1910

> <Gold.Rescore>
     Score         DG    S(hbond)    S(metal)    S(lipo)     H(rot)  DE(clash)    DE(int)     intcor
     18.27     -19.26       2.78        0.00      79.15       1.87       0.30       0.70       ----

> <Gold.Chemscore.Fitness>
18.2678

> <Gold.Chemscore.DG>
-19.2604

> <Gold.Chemscore.ZeroCoef>
-5.4800

> <Gold.Chemscore.Hbond>
2.7834

> <Gold.Chemscore.Metal>
0.0000

> <Gold.Chemscore.Lipo>
79.1462

> <Gold.Chemscore.Internal_Hbond>
0.0000

> <Gold.Chemscore.DEClash>
0.2954

> <Gold.Chemscore.DEInternal>
0.6971

> <Gold.Chemscore.Rot>
1.8657

> <Gold.Chemscore.Internal.Correction>
   9.000000E+99

> <Gold.Chemscore.Hbonds>
donor molecule, donor type, donor heavy atom, donor atom, acceptor molecule, acceptor atom, score
      L1  H     4    45       P1  7948  1.00
      L1  H     8    33       P1  7948  1.00
      P1  H  7989  7998       L1    20  0.39

> <Gold.Chemscore.Hbond.Weighted>
-9.2964

> <Gold.Chemscore.Metal.Weighted>
-0.0000

> <Gold.Chemscore.Lipo.Weighted>
-9.2601

> <Gold.Chemscore.Internal_Hbond.Weighted>
0.0000

> <Gold.Chemscore.DEClash.Weighted>
0.2954

> <Gold.Chemscore.DEInternal.Weighted>
0.6971

> <Gold.Chemscore.Rot.Weighted>
4.7761

> <Gold.Chemscore.Internal.Correction.Weighted>
   9.000000E+99

> <Gold.Protein.RotatedTorsions>
[ 6907 6896 6895 6894 ] final   44.10 input  -60.11 | X-H torsion
[ 7974 7965 7964 7962 ] final  -24.45 input  175.53 | X-H torsion
[ 8008 7997 7996 7995 ] final  171.54 input   59.86 | X-H torsion
[ 10167 10162 10161 10158 ] final  -62.84 input  -65.29 | X-H torsion
[ 10718 10713 10712 10709 ] final  -47.09 input   66.30 | X-H torsion
[ 10763 10752 10751 10750 ] final  -76.93 input  -60.55 | X-H torsion
[ 11005 11000 10999 10996 ] final  -41.49 input  -57.11 | X-H torsion

> <Gold.Protein.ActiveResidues>
 VAL166  LYS551  ARG553  GLY616  TRP617  ASP618  TYR619  PRO620  LYS621  CYS622 
 ASP623  PHE694  ASN695  SER759  ASP760  ASP761  ALA762  ILE779  LEU786  VAL792 
 PHE793  MET794  SER795  GLU796  ALA797  LYS798  CYS799  TRP800  GLU811  SER814 

> <Gold.Protein.RotatedAtoms>
  152.2283  134.8346  160.0476 H   0  0  0  0  0  0  0  0  0  0  0  0  # atno 6907 bound_to 6896
  151.9104  133.3555  159.3870 H   0  0  0  0  0  0  0  0  0  0  0  0  # atno 6908 bound_to 6896
  150.7018  134.4663  159.5448 H   0  0  0  0  0  0  0  0  0  0  0  0  # atno 6909 bound_to 6896
  146.1554  140.4753  142.8594 H   0  0  0  0  0  0  0  0  0  0  0  0  # atno 7974 bound_to 7965
  156.1261  140.1509  156.9134 H   0  0  0  0  0  0  0  0  0  0  0  0  # atno 8008 bound_to 7997
  154.4872  140.0861  156.7555 H   0  0  0  0  0  0  0  0  0  0  0  0  # atno 8009 bound_to 7997
  155.4341  140.3428  155.4285 H   0  0  0  0  0  0  0  0  0  0  0  0  # atno 8010 bound_to 7997
  140.5912  143.2342  151.6136 H   0  0  0  0  0  0  0  0  0  0  0  0  # atno 10167 bound_to 10162
  156.2119  130.4161  149.9104 H   0  0  0  0  0  0  0  0  0  0  0  0  # atno 10718 bound_to 10713
  154.5063  135.5781  153.6570 H   0  0  0  0  0  0  0  0  0  0  0  0  # atno 10763 bound_to 10752
  152.9888  135.6148  154.2937 H   0  0  0  0  0  0  0  0  0  0  0  0  # atno 10764 bound_to 10752
  154.2848  135.2850  155.2660 H   0  0  0  0  0  0  0  0  0  0  0  0  # atno 10765 bound_to 10752
  141.0249  133.6846  156.2464 H   0  0  0  0  0  0  0  0  0  0  0  0  # atno 11005 bound_to 11000
  144.7957  140.6117  143.6512 LP  0  0  0  0  0  0  0  0  0  0  0  0  # atno 17320 bound_to 7965
  145.4721  139.1502  143.3808 LP  0  0  0  0  0  0  0  0  0  0  0  0  # atno 17321 bound_to 7965
  139.5228  144.3150  152.0960 LP  0  0  0  0  0  0  0  0  0  0  0  0  # atno 17342 bound_to 10162
  140.2315  144.4363  150.6298 LP  0  0  0  0  0  0  0  0  0  0  0  0  # atno 17343 bound_to 10162
  156.6779  130.8846  151.3572 LP  0  0  0  0  0  0  0  0  0  0  0  0  # atno 17370 bound_to 10713
  157.7043  130.9367  150.0881 LP  0  0  0  0  0  0  0  0  0  0  0  0  # atno 17371 bound_to 10713
  140.6508  134.5069  157.5577 LP  0  0  0  0  0  0  0  0  0  0  0  0  # atno 17394 bound_to 11000
  139.9170  134.8226  156.1335 LP  0  0  0  0  0  0  0  0  0  0  0  0  # atno 17395 bound_to 11000

$$$$
