AV-unprocessed.smi:1412|AV-procd|sdf|5745|dock8
  -GOLD-   22720 5383D 1   1.00000     0.00000
 Structure written by MMmdl.
 40 41  0  0  0  0  0  0  0  0  2 V2000
  148.8514  140.0622  155.6722 C   0  0  0  0  0  0  0  0  0  0  0  0
  149.5467  140.4187  156.9989 C   0  0  0  0  0  0  0  0  0  0  0  0
  150.7754  139.5313  157.3779 C   0  0  2  0  0  0  0  0  0  0  0  0
  151.6735  139.4678  156.1133 C   0  0  0  0  0  0  0  0  0  0  0  0
  150.2595  138.0902  157.7004 C   0  0  0  0  0  0  0  0  0  0  0  0
  149.2883  138.0363  158.7946 N   0  0  0  0  0  0  0  0  0  0  0  0
  148.7660  136.9329  159.3495 C   0  0  0  0  0  0  0  0  0  0  0  0
  149.1089  135.8175  158.9505 O   0  0  0  0  0  0  0  0  0  0  0  0
  147.8682  137.1913  160.3270 N   0  5  0  0  0  0  0  0  0  0  0  0
  147.2815  136.1772  160.9837 C   0  0  0  0  0  0  0  0  0  0  0  0
  146.5759  135.2250  160.3529 N   0  0  0  0  0  0  0  0  0  0  0  0
  146.0573  134.2683  161.2152 N   0  0  0  0  0  0  0  0  0  0  0  0
  146.3948  134.5200  162.4796 C   0  0  0  0  0  0  0  0  0  0  0  0
  147.3771  135.9472  162.7319 S   0  0  0  0  0  0  0  0  0  0  0  0
  151.5316  140.1221  158.5192 N   0  0  0  0  0  0  0  0  0  0  0  0
  151.8383  141.5520  158.3924 C   0  0  0  0  0  0  0  0  0  0  0  0
  152.4860  142.1173  159.6680 C   0  0  0  0  0  0  0  0  0  0  0  0
  153.6618  141.3790  159.9783 O   0  0  0  0  0  0  0  0  0  0  0  0
  153.4000  139.9927  160.1625 C   0  0  0  0  0  0  0  0  0  0  0  0
  152.7618  139.4119  158.8893 C   0  0  0  0  0  0  0  0  0  0  0  0
  148.0256  140.7473  155.4800 H   0  0  0  0  0  0  0  0  0  0  0  0
  148.4371  139.0547  155.6911 H   0  0  0  0  0  0  0  0  0  0  0  0
  149.5329  140.1298  154.8243 H   0  0  0  0  0  0  0  0  0  0  0  0
  149.8330  141.4701  156.9743 H   0  0  0  0  0  0  0  0  0  0  0  0
  148.7914  140.3631  157.7835 H   0  0  0  0  0  0  0  0  0  0  0  0
  151.0949  139.2754  155.2092 H   0  0  0  0  0  0  0  0  0  0  0  0
  152.4144  138.6708  156.1783 H   0  0  0  0  0  0  0  0  0  0  0  0
  152.2139  140.4011  155.9544 H   0  0  0  0  0  0  0  0  0  0  0  0
  149.8386  137.6146  156.8146 H   0  0  0  0  0  0  0  0  0  0  0  0
  151.0869  137.4522  158.0084 H   0  0  0  0  0  0  0  0  0  0  0  0
  148.9738  138.9230  159.1605 H   0  0  0  0  0  0  0  0  0  0  0  0
  146.0649  133.8605  163.2682 H   0  0  0  0  0  0  0  0  0  0  0  0
  152.5137  141.7221  157.5543 H   0  0  0  0  0  0  0  0  0  0  0  0
  150.9365  142.1287  158.1948 H   0  0  0  0  0  0  0  0  0  0  0  0
  152.7513  143.1648  159.5255 H   0  0  0  0  0  0  0  0  0  0  0  0
  151.7886  142.0744  160.5060 H   0  0  0  0  0  0  0  0  0  0  0  0
  154.3362  139.4806  160.3843 H   0  0  0  0  0  0  0  0  0  0  0  0
  152.7442  139.8491  161.0226 H   0  0  0  0  0  0  0  0  0  0  0  0
  152.5664  138.3563  159.0673 H   0  0  0  0  0  0  0  0  0  0  0  0
  153.4891  139.4670  158.0794 H   0  0  0  0  0  0  0  0  0  0  0  0
  1  2  1  0  0  0  0
  1 21  1  0  0  0  0
  1 22  1  0  0  0  0
  1 23  1  0  0  0  0
  2  3  1  0  0  0  0
  2 24  1  0  0  0  0
  2 25  1  0  0  0  0
  3  4  1  0  0  0  0
  3  5  1  0  0  0  0
  3 15  1  0  0  0  0
  4 26  1  0  0  0  0
  4 27  1  0  0  0  0
  4 28  1  0  0  0  0
  5  6  1  0  0  0  0
  5 29  1  0  0  0  0
  5 30  1  0  0  0  0
  6  7  1  0  0  0  0
  6 31  1  0  0  0  0
  7  8  2  0  0  0  0
  7  9  1  0  0  0  0
  9 10  1  0  0  0  0
 10 14  1  0  0  0  0
 10 11  2  0  0  0  0
 11 12  1  0  0  0  0
 12 13  2  0  0  0  0
 13 14  1  0  0  0  0
 13 32  1  0  0  0  0
 15 20  1  0  0  0  0
 15 16  1  0  0  0  0
 16 17  1  0  0  0  0
 16 33  1  0  0  0  0
 16 34  1  0  0  0  0
 17 18  1  0  0  0  0
 17 35  1  0  0  0  0
 17 36  1  0  0  0  0
 18 19  1  0  0  0  0
 19 20  1  0  0  0  0
 19 37  1  0  0  0  0
 19 38  1  0  0  0  0
 20 39  1  0  0  0  0
 20 40  1  0  0  0  0
M  CHG  1   9  -1
M  END
> <s_m_source_file>
AV-unprocessed.smi

> <i_m_source_file_index>
1412

> <i_lp_mmshare_version>
43012

> <i_f3d_flags>
0

> <s_epik_input>
W0NIMl0xW0NIMl1PW0NIMl1bQ0gyXU4xW0NAQF0oW0NIM10pKFtDSDJdW0NIM10pW0NIMl1bTkhdQyg9TylbTkhdYzJubltjSF1zMg==

> <s_epik_cmdline>
J2VwaWtfcHl0aG9uJywgJy1waCcsICc3LjAnLCAnLXRuJywgJzgnLCAnLW1hJywgJzIwMCcsICctbWV0YWxfYmluZGluZycsICctaW1hZScsICc8aW5maWxlLm1hZT4nLCAnLW9tYWUnLCAnPG91dGZpbGUubWFlPic=

> <r_lp_tautomer_probability>
1

> <r_epik_Ionization_Penalty>
4.84662

> <r_epik_Ionization_Penalty_Charging>
4.3852

> <r_epik_Ionization_Penalty_Neutral>
0.461421

> <r_epik_State_Penalty>
4.67356

> <r_epik_Charging_Adjusted_Penalty>
9.05877

> <i_epik_Tot_Q>
-1

> <i_epik_Tot_abs_Q>
1

> <r_epik_Metal_State_Penalty>
1.08474

> <b_epik_Metal_Only>
1

> <s_lp_Force_Field>
OPLS_2005

> <r_lp_Energy>
39.9544

> <b_lp_Chiralities_Consistent>
1

> <s_lp_Variant>
AV-unprocessed.smi:1412-6

> <Gold.Version>
5.8.1

> <Gold.Id.Protein>
6NUR|6NUR_protein|mol2

> <Gold.PLP.Fitness>
42.7562

> <Gold.PLP.PLP>
-31.9751

> <Gold.PLP.part.hbond>
-3.0000

> <Gold.PLP.part.metal>
0.0000

> <Gold.PLP.part.buried>
-6.1666

> <Gold.PLP.part.nonpolar>
-24.8322

> <Gold.PLP.part.repulsive>
0.2229

> <Gold.PLP.ligand.clash>
0.0000

> <Gold.PLP.ligand.torsion>
0.7402

> <Gold.PLP.Chemscore.Hbond>
4.0268

> <Gold.PLP.Chemscore.CHOScore>
0.0000

> <Gold.PLP.Chemscore.Metal>
0.0000

> <Gold.Chemscore.Hbonds>
donor molecule, donor type, donor heavy atom, donor atom, acceptor molecule, acceptor atom, score
      P1  H  6896  6909       L1     8  0.89
      P1  H  6931  6943       L1     9  0.73
      P1  H  6934  6947       L1     9  1.59

> <Gold.PLP.Chemscore.Internal.Correction>
0.1809

> <Gold.Rescore>
     Score         DG    S(hbond)    S(metal)    S(lipo)     H(rot)  DE(clash)    DE(int)     intcor
     14.77     -15.61       1.99        0.00      69.78       1.82       0.03       0.82       ----

> <Gold.Chemscore.Fitness>
14.7660

> <Gold.Chemscore.DG>
-15.6063

> <Gold.Chemscore.ZeroCoef>
-5.4800

> <Gold.Chemscore.Hbond>
1.9858

> <Gold.Chemscore.Metal>
0.0000

> <Gold.Chemscore.Lipo>
69.7765

> <Gold.Chemscore.Internal_Hbond>
0.0000

> <Gold.Chemscore.DEClash>
0.0251

> <Gold.Chemscore.DEInternal>
0.8152

> <Gold.Chemscore.Rot>
1.8243

> <Gold.Chemscore.Internal.Correction>
   9.000000E+99

> <Gold.Chemscore.Hbonds>
donor molecule, donor type, donor heavy atom, donor atom, acceptor molecule, acceptor atom, score
      P1  H  6896  6909       L1     8  0.87
      P1  H  6931  6943       L1     9  0.08
      P1  H  6934  6947       L1     9  0.64

> <Gold.Chemscore.Hbond.Weighted>
-6.6327

> <Gold.Chemscore.Metal.Weighted>
-0.0000

> <Gold.Chemscore.Lipo.Weighted>
-8.1638

> <Gold.Chemscore.Internal_Hbond.Weighted>
0.0000

> <Gold.Chemscore.DEClash.Weighted>
0.0251

> <Gold.Chemscore.DEInternal.Weighted>
0.8152

> <Gold.Chemscore.Rot.Weighted>
4.6702

> <Gold.Chemscore.Internal.Correction.Weighted>
   9.000000E+99

> <Gold.Protein.RotatedTorsions>
[ 6907 6896 6895 6894 ] final   61.44 input  -60.11 | X-H torsion
[ 7974 7965 7964 7962 ] final   12.64 input  175.53 | X-H torsion
[ 8008 7997 7996 7995 ] final -151.37 input   59.86 | X-H torsion
[ 10167 10162 10161 10158 ] final  159.13 input  -65.29 | X-H torsion
[ 10718 10713 10712 10709 ] final  -54.81 input   66.30 | X-H torsion
[ 10763 10752 10751 10750 ] final -155.47 input  -60.55 | X-H torsion
[ 11005 11000 10999 10996 ] final   92.46 input  -57.11 | X-H torsion

> <Gold.Protein.ActiveResidues>
 VAL166  LYS551  ARG553  GLY616  TRP617  ASP618  TYR619  PRO620  LYS621  CYS622 
 ASP623  PHE694  ASN695  SER759  ASP760  ASP761  ALA762  ILE779  LEU786  VAL792 
 PHE793  MET794  SER795  GLU796  ALA797  LYS798  CYS799  TRP800  GLU811  SER814 

> <Gold.Protein.RotatedAtoms>
  152.4088  134.6160  160.0037 H   0  0  0  0  0  0  0  0  0  0  0  0  # atno 6907 bound_to 6896
  151.6343  133.3324  159.3124 H   0  0  0  0  0  0  0  0  0  0  0  0  # atno 6908 bound_to 6896
  150.7981  134.7096  159.6641 H   0  0  0  0  0  0  0  0  0  0  0  0  # atno 6909 bound_to 6896
  146.2347  139.9307  142.8497 H   0  0  0  0  0  0  0  0  0  0  0  0  # atno 7974 bound_to 7965
  155.6384  140.0699  157.2626 H   0  0  0  0  0  0  0  0  0  0  0  0  # atno 8008 bound_to 7997
  154.4189  140.1755  156.1596 H   0  0  0  0  0  0  0  0  0  0  0  0  # atno 8009 bound_to 7997
  155.9876  140.3348  155.6725 H   0  0  0  0  0  0  0  0  0  0  0  0  # atno 8010 bound_to 7997
  139.4830  144.4759  151.8511 H   0  0  0  0  0  0  0  0  0  0  0  0  # atno 10167 bound_to 10162
  156.1420  130.4154  150.0088 H   0  0  0  0  0  0  0  0  0  0  0  0  # atno 10718 bound_to 10713
  154.7785  135.3167  154.8041 H   0  0  0  0  0  0  0  0  0  0  0  0  # atno 10763 bound_to 10752
  153.8758  135.6840  153.4775 H   0  0  0  0  0  0  0  0  0  0  0  0  # atno 10764 bound_to 10752
  153.1415  135.4737  154.9439 H   0  0  0  0  0  0  0  0  0  0  0  0  # atno 10765 bound_to 10752
  139.8823  134.8734  156.3576 H   0  0  0  0  0  0  0  0  0  0  0  0  # atno 11005 bound_to 11000
  145.2047  140.9870  143.4135 LP  0  0  0  0  0  0  0  0  0  0  0  0  # atno 17320 bound_to 7965
  144.9743  139.3848  143.6293 LP  0  0  0  0  0  0  0  0  0  0  0  0  # atno 17321 bound_to 7965
  140.4231  144.2216  150.5887 LP  0  0  0  0  0  0  0  0  0  0  0  0  # atno 17342 bound_to 10162
  140.4853  143.2365  151.8896 LP  0  0  0  0  0  0  0  0  0  0  0  0  # atno 17343 bound_to 10162
  156.7971  130.9277  151.3646 LP  0  0  0  0  0  0  0  0  0  0  0  0  # atno 17370 bound_to 10713
  157.6583  130.8944  149.9776 LP  0  0  0  0  0  0  0  0  0  0  0  0  # atno 17371 bound_to 10713
  140.9551  133.7425  156.0325 LP  0  0  0  0  0  0  0  0  0  0  0  0  # atno 17394 bound_to 11000
  140.8058  134.3456  157.5426 LP  0  0  0  0  0  0  0  0  0  0  0  0  # atno 17395 bound_to 11000

$$$$
