AV-unprocessed.smi:212|AV-procd|sdf|1628|dock9
  -GOLD-   2262019573D 1   1.00000     0.00000
 Structure written by MMmdl.
 65 68  0  0  0  0  0  0  0  0  2 V2000
  144.6698  138.1235  154.4137 C   0  0  0  0  0  0  0  0  0  0  0  0
  145.2964  136.7182  154.4959 C   0  0  1  0  0  0  0  0  0  0  0  0
  145.5668  136.0837  153.1141 C   0  0  0  0  0  0  0  0  0  0  0  0
  146.1063  134.7048  153.2557 N   0  3  1  0  0  0  0  0  0  0  0  0
  146.3199  134.0201  151.9528 C   0  0  0  0  0  0  0  0  0  0  0  0
  145.0425  133.9810  151.0810 C   0  0  0  0  0  0  0  0  0  0  0  0
  145.0965  132.7828  150.1184 C   0  0  0  0  0  0  0  0  0  0  0  0
  143.7578  133.9249  151.9284 C   0  0  0  0  0  0  0  0  0  0  0  0
  144.9937  135.1413  150.2746 O   0  0  0  0  0  0  0  0  0  0  0  0
  147.2945  134.6495  154.1465 C   0  0  0  0  0  0  0  0  0  0  0  0
  146.9918  135.2801  155.5191 C   0  0  0  0  0  0  0  0  0  0  0  0
  146.4765  136.6371  155.3664 N   0  0  0  0  0  0  0  0  0  0  0  0
  147.4611  137.5701  155.3055 C   0  0  0  0  0  0  0  0  0  0  0  0
  147.8464  138.0972  154.1136 N   0  0  0  0  0  0  0  0  0  0  0  0
  148.8313  138.9992  154.0630 C   0  0  0  0  0  0  0  0  0  0  0  0
  149.5565  139.4995  155.0651 N   0  0  0  0  0  0  0  0  0  0  0  0
  149.1793  138.9666  156.2622 C   0  0  0  0  0  0  0  0  0  0  0  0
  148.1554  138.0006  156.4685 C   0  0  0  0  0  0  0  0  0  0  0  0
  148.0615  137.6870  157.8184 N   0  0  0  0  0  0  0  0  0  0  0  0
  148.9770  138.4284  158.3807 C   0  0  0  0  0  0  0  0  0  0  0  0
  149.6826  139.2417  157.5216 N   0  0  0  0  0  0  0  0  0  0  0  0
  150.7494  140.1617  157.8708 C   0  0  0  0  0  0  0  0  0  0  0  0
  150.2762  141.5773  158.2995 C   0  0  2  0  0  0  0  0  0  0  0  0
  149.1064  142.0036  157.3856 C   0  0  0  0  0  0  0  0  0  0  0  0
  149.5078  142.0777  156.0329 O   0  0  0  0  0  0  0  0  0  0  0  0
  151.3680  142.6895  158.3667 C   0  0  1  0  0  0  0  0  0  0  0  0
  150.9141  144.1074  158.6642 C   0  0  0  0  0  0  0  0  0  0  0  0
  152.2457  144.7888  158.9589 C   0  0  0  0  0  0  0  0  0  0  0  0
  153.0478  143.8001  159.5990 O   0  0  0  0  0  0  0  0  0  0  0  0
  152.5061  142.5001  159.3745 C   0  0  0  0  0  0  0  0  0  0  0  0
  143.7107  138.0857  153.8967 H   0  0  0  0  0  0  0  0  0  0  0  0
  145.2964  138.8312  153.8719 H   0  0  0  0  0  0  0  0  0  0  0  0
  144.4879  138.5303  155.4090 H   0  0  0  0  0  0  0  0  0  0  0  0
  144.5465  136.0933  154.9831 H   0  0  0  0  0  0  0  0  0  0  0  0
  144.6396  136.0556  152.5418 H   0  0  0  0  0  0  0  0  0  0  0  0
  146.2653  136.6902  152.5377 H   0  0  0  0  0  0  0  0  0  0  0  0
  147.1425  134.4900  151.4104 H   0  0  0  0  0  0  0  0  0  0  0  0
  146.6422  132.9921  152.1279 H   0  0  0  0  0  0  0  0  0  0  0  0
  145.1291  131.8394  150.6648 H   0  0  0  0  0  0  0  0  0  0  0  0
  145.9801  132.8228  149.4799 H   0  0  0  0  0  0  0  0  0  0  0  0
  144.2218  132.7532  149.4673 H   0  0  0  0  0  0  0  0  0  0  0  0
  143.7541  133.0493  152.5785 H   0  0  0  0  0  0  0  0  0  0  0  0
  142.8693  133.8683  151.2982 H   0  0  0  0  0  0  0  0  0  0  0  0
  143.6490  134.8061  152.5612 H   0  0  0  0  0  0  0  0  0  0  0  0
  145.3443  134.9316  149.4215 H   0  0  0  0  0  0  0  0  0  0  0  0
  147.5998  133.6118  154.2864 H   0  0  0  0  0  0  0  0  0  0  0  0
  148.1290  135.1665  153.6699 H   0  0  0  0  0  0  0  0  0  0  0  0
  146.2437  134.6850  156.0438 H   0  0  0  0  0  0  0  0  0  0  0  0
  147.8862  135.2650  156.1436 H   0  0  0  0  0  0  0  0  0  0  0  0
  149.0724  139.3744  153.0794 H   0  0  0  0  0  0  0  0  0  0  0  0
  149.1557  138.4084  159.4461 H   0  0  0  0  0  0  0  0  0  0  0  0
  151.3638  139.7087  158.6491 H   0  0  0  0  0  0  0  0  0  0  0  0
  151.3962  140.2426  156.9962 H   0  0  0  0  0  0  0  0  0  0  0  0
  149.8612  141.4805  159.3038 H   0  0  0  0  0  0  0  0  0  0  0  0
  148.2674  141.3132  157.4787 H   0  0  0  0  0  0  0  0  0  0  0  0
  148.7390  142.9904  157.6687 H   0  0  0  0  0  0  0  0  0  0  0  0
  149.4867  142.9828  155.7616 H   0  0  0  0  0  0  0  0  0  0  0  0
  151.8342  142.7517  157.3823 H   0  0  0  0  0  0  0  0  0  0  0  0
  150.3796  144.5680  157.8330 H   0  0  0  0  0  0  0  0  0  0  0  0
  150.2826  144.1687  159.5456 H   0  0  0  0  0  0  0  0  0  0  0  0
  152.7339  145.0857  158.0297 H   0  0  0  0  0  0  0  0  0  0  0  0
  152.1332  145.6769  159.5810 H   0  0  0  0  0  0  0  0  0  0  0  0
  152.1506  142.1251  160.3324 H   0  0  0  0  0  0  0  0  0  0  0  0
  153.2695  141.8130  159.0088 H   0  0  0  0  0  0  0  0  0  0  0  0
  145.3903  134.1725  153.7290 H   0  0  0  0  0  0  0  0  0  0  0  0
  1  2  1  0  0  0  0
  1 31  1  0  0  0  0
  1 32  1  0  0  0  0
  1 33  1  0  0  0  0
  2 12  1  0  0  0  0
  2  3  1  0  0  0  0
  2 34  1  0  0  0  0
  3  4  1  0  0  0  0
  3 35  1  0  0  0  0
  3 36  1  0  0  0  0
  4  5  1  0  0  0  0
  4 10  1  0  0  0  0
  4 65  1  0  0  0  0
  5  6  1  0  0  0  0
  5 37  1  0  0  0  0
  5 38  1  0  0  0  0
  6  7  1  0  0  0  0
  6  8  1  0  0  0  0
  6  9  1  0  0  0  0
  7 39  1  0  0  0  0
  7 40  1  0  0  0  0
  7 41  1  0  0  0  0
  8 42  1  0  0  0  0
  8 43  1  0  0  0  0
  8 44  1  0  0  0  0
  9 45  1  0  0  0  0
 10 11  1  0  0  0  0
 10 46  1  0  0  0  0
 10 47  1  0  0  0  0
 11 12  1  0  0  0  0
 11 48  1  0  0  0  0
 11 49  1  0  0  0  0
 12 13  1  0  0  0  0
 13 18  1  0  0  0  0
 13 14  2  0  0  0  0
 14 15  1  0  0  0  0
 15 16  2  0  0  0  0
 15 50  1  0  0  0  0
 16 17  1  0  0  0  0
 17 21  1  0  0  0  0
 17 18  2  0  0  0  0
 18 19  1  0  0  0  0
 19 20  2  0  0  0  0
 20 21  1  0  0  0  0
 20 51  1  0  0  0  0
 21 22  1  0  0  0  0
 22 23  1  0  0  0  0
 22 52  1  0  0  0  0
 22 53  1  0  0  0  0
 23 24  1  0  0  0  0
 23 26  1  0  0  0  0
 23 54  1  0  0  0  0
 24 25  1  0  0  0  0
 24 55  1  0  0  0  0
 24 56  1  0  0  0  0
 25 57  1  0  0  0  0
 26 30  1  0  0  0  0
 26 27  1  0  0  0  0
 26 58  1  0  0  0  0
 27 28  1  0  0  0  0
 27 59  1  0  0  0  0
 27 60  1  0  0  0  0
 28 29  1  0  0  0  0
 28 61  1  0  0  0  0
 28 62  1  0  0  0  0
 29 30  1  0  0  0  0
 30 63  1  0  0  0  0
 30 64  1  0  0  0  0
M  CHG  1   4   1
M  END
> <s_m_source_file>
AV-unprocessed.smi

> <i_m_source_file_index>
212

> <i_lp_mmshare_version>
43012

> <i_f3d_flags>
0

> <s_epik_input>
W0NIM11bQ0BASF0xW0NIMl1OKFtDSDJdQyhbQ0gzXSkoW0NIM10pW09IXSlbQ0gyXVtDSDJdTjFjKG5bY0hdbjIpYyhjMjMpbltjSF1uM1tDSDJdW0NASF0oW0NIMl1bT0hdKVtDQEBIXTRbQ0gyXVtDSDJdT1tDSDJdNA==

> <s_epik_cmdline>
J2VwaWtfcHl0aG9uJywgJy1waCcsICc3LjAnLCAnLXRuJywgJzgnLCAnLW1hJywgJzIwMCcsICctbWV0YWxfYmluZGluZycsICctaW1hZScsICc8aW5maWxlLm1hZT4nLCAnLW9tYWUnLCAnPG91dGZpbGUubWFlPic=

> <r_lp_tautomer_probability>
1

> <r_epik_Ionization_Penalty>
0.00182193

> <r_epik_Ionization_Penalty_Charging>
0.00173996

> <r_epik_Ionization_Penalty_Neutral>
8.19718e-05

> <r_epik_State_Penalty>
-0

> <r_epik_Charging_Adjusted_Penalty>
0.00173996

> <i_epik_Tot_Q>
1

> <i_epik_Tot_abs_Q>
1

> <r_epik_Metal_State_Penalty>
-0

> <b_epik_Metal_Only>
0

> <s_lp_Force_Field>
OPLS_2005

> <r_lp_Energy>
60.5032

> <b_lp_Chiralities_Consistent>
1

> <s_lp_Variant>
AV-unprocessed.smi:212-12

> <Gold.Version>
5.8.1

> <Gold.Id.Protein>
6NUR|6NUR_protein|mol2

> <Gold.PLP.Fitness>
42.3542

> <Gold.PLP.PLP>
-35.6224

> <Gold.PLP.part.hbond>
-2.0000

> <Gold.PLP.part.metal>
0.0000

> <Gold.PLP.part.buried>
-5.4319

> <Gold.PLP.part.nonpolar>
-28.1489

> <Gold.PLP.part.repulsive>
0.8095

> <Gold.PLP.ligand.clash>
0.0000

> <Gold.PLP.ligand.torsion>
1.6441

> <Gold.PLP.Chemscore.Hbond>
2.0000

> <Gold.PLP.Chemscore.CHOScore>
1.0000

> <Gold.PLP.Chemscore.Metal>
0.0000

> <Gold.Chemscore.Hbonds>
donor molecule, donor type, donor heavy atom, donor atom, acceptor molecule, acceptor atom, score
      L1  H     9    45       P1  7921  1.00
      L1  H    25    57       P1  8028  1.00
      L1  C    15    50       P1  7957  1.00

> <Gold.PLP.Chemscore.Internal.Correction>
1.0201

> <Gold.Rescore>
     Score         DG    S(hbond)    S(metal)    S(lipo)     H(rot)  DE(clash)    DE(int)     intcor
     11.30     -13.22       1.99        0.00      89.81       3.68       0.31       1.61       ----

> <Gold.Chemscore.Fitness>
11.2989

> <Gold.Chemscore.DG>
-13.2195

> <Gold.Chemscore.ZeroCoef>
-5.4800

> <Gold.Chemscore.Hbond>
1.9927

> <Gold.Chemscore.Metal>
0.0000

> <Gold.Chemscore.Lipo>
89.8106

> <Gold.Chemscore.Internal_Hbond>
0.0000

> <Gold.Chemscore.DEClash>
0.3126

> <Gold.Chemscore.DEInternal>
1.6079

> <Gold.Chemscore.Rot>
3.6812

> <Gold.Chemscore.Internal.Correction>
   9.000000E+99

> <Gold.Chemscore.Hbonds>
donor molecule, donor type, donor heavy atom, donor atom, acceptor molecule, acceptor atom, score
      L1  H     9    45       P1  7921  0.99
      L1  H    25    57       P1  8028  0.99

> <Gold.Chemscore.Hbond.Weighted>
-6.6556

> <Gold.Chemscore.Metal.Weighted>
-0.0000

> <Gold.Chemscore.Lipo.Weighted>
-10.5078

> <Gold.Chemscore.Internal_Hbond.Weighted>
0.0000

> <Gold.Chemscore.DEClash.Weighted>
0.3126

> <Gold.Chemscore.DEInternal.Weighted>
1.6079

> <Gold.Chemscore.Rot.Weighted>
9.4239

> <Gold.Chemscore.Internal.Correction.Weighted>
   9.000000E+99

> <Gold.Protein.RotatedTorsions>
[ 6907 6896 6895 6894 ] final -132.45 input  -60.11 | X-H torsion
[ 7974 7965 7964 7962 ] final -172.70 input  175.53 | X-H torsion
[ 8008 7997 7996 7995 ] final  -30.84 input   59.86 | X-H torsion
[ 10167 10162 10161 10158 ] final -137.96 input  -65.29 | X-H torsion
[ 10718 10713 10712 10709 ] final  173.11 input   66.30 | X-H torsion
[ 10763 10752 10751 10750 ] final -134.08 input  -60.55 | X-H torsion
[ 11005 11000 10999 10996 ] final   42.10 input  -57.11 | X-H torsion

> <Gold.Protein.ActiveResidues>
 VAL166  LYS551  ARG553  GLY616  TRP617  ASP618  TYR619  PRO620  LYS621  CYS622 
 ASP623  PHE694  ASN695  SER759  ASP760  ASP761  ALA762  ILE779  LEU786  VAL792 
 PHE793  MET794  SER795  GLU796  ALA797  LYS798  CYS799  TRP800  GLU811  SER814 

> <Gold.Protein.RotatedAtoms>
  150.9626  133.6429  159.2751 H   0  0  0  0  0  0  0  0  0  0  0  0  # atno 6907 bound_to 6896
  151.3746  135.0928  159.9486 H   0  0  0  0  0  0  0  0  0  0  0  0  # atno 6908 bound_to 6896
  152.5153  133.9173  159.7571 H   0  0  0  0  0  0  0  0  0  0  0  0  # atno 6909 bound_to 6896
  144.7144  140.1733  143.6365 H   0  0  0  0  0  0  0  0  0  0  0  0  # atno 7974 bound_to 7965
  154.4235  140.1780  156.1471 H   0  0  0  0  0  0  0  0  0  0  0  0  # atno 8008 bound_to 7997
  155.9945  140.3366  155.6760 H   0  0  0  0  0  0  0  0  0  0  0  0  # atno 8009 bound_to 7997
  155.6327  140.0671  157.2634 H   0  0  0  0  0  0  0  0  0  0  0  0  # atno 8010 bound_to 7997
  139.8526  143.7180  152.2657 H   0  0  0  0  0  0  0  0  0  0  0  0  # atno 10167 bound_to 10162
  156.9691  131.0084  151.2909 H   0  0  0  0  0  0  0  0  0  0  0  0  # atno 10718 bound_to 10713
  154.8724  135.3746  154.4677 H   0  0  0  0  0  0  0  0  0  0  0  0  # atno 10763 bound_to 10752
  153.5340  135.7027  153.5674 H   0  0  0  0  0  0  0  0  0  0  0  0  # atno 10764 bound_to 10752
  153.3866  135.3983  155.1859 H   0  0  0  0  0  0  0  0  0  0  0  0  # atno 10765 bound_to 10752
  140.1771  134.4149  155.8222 H   0  0  0  0  0  0  0  0  0  0  0  0  # atno 11005 bound_to 11000
  145.8923  139.2383  143.1542 LP  0  0  0  0  0  0  0  0  0  0  0  0  # atno 17320 bound_to 7965
  145.9891  140.8618  143.0075 LP  0  0  0  0  0  0  0  0  0  0  0  0  # atno 17321 bound_to 7965
  139.7451  144.7549  151.0592 LP  0  0  0  0  0  0  0  0  0  0  0  0  # atno 17342 bound_to 10162
  140.7785  143.4926  150.9874 LP  0  0  0  0  0  0  0  0  0  0  0  0  # atno 17343 bound_to 10162
  157.5605  130.8242  149.8259 LP  0  0  0  0  0  0  0  0  0  0  0  0  # atno 17370 bound_to 10713
  156.0290  130.3770  150.1741 LP  0  0  0  0  0  0  0  0  0  0  0  0  # atno 17371 bound_to 10713
  141.2221  133.6983  156.7866 LP  0  0  0  0  0  0  0  0  0  0  0  0  # atno 17394 bound_to 11000
  140.2310  134.8686  157.3476 LP  0  0  0  0  0  0  0  0  0  0  0  0  # atno 17395 bound_to 11000

$$$$
