AV-unprocessed.smi:1830|AV-procd|sdf|7440|dock7
  -GOLD-   22720 9123D 1   1.00000     0.00000
 Structure written by MMmdl.
 52 55  0  0  0  0  0  0  0  0  1 V2000
  151.2250  135.1450  155.7112 O   0  0  0  0  0  0  0  0  0  0  0  0
  150.5083  135.4258  154.7517 C   0  0  0  0  0  0  0  0  0  0  0  0
  150.4123  136.6611  154.2406 N   0  0  0  0  0  0  0  0  0  0  0  0
  151.0950  137.8430  154.7567 C   0  0  0  0  0  0  0  0  0  0  0  0
  150.0975  138.9557  155.1205 C   0  0  2  0  0  0  0  0  0  0  0  0
  148.8918  138.9899  154.1530 C   0  0  0  0  0  0  0  0  0  0  0  0
  148.0367  140.1171  154.4728 N   0  0  0  0  0  0  0  0  0  0  0  0
  146.8949  140.3385  153.6165 C   0  0  0  0  0  0  0  0  0  0  0  0
  146.4540  141.7773  153.9392 C   0  0  0  0  0  0  0  0  0  0  0  0
  147.7015  142.4292  154.5764 C   0  0  0  0  0  0  0  0  0  0  0  0
  148.7720  141.3508  154.4024 C   0  0  1  0  0  0  0  0  0  0  0  0
  149.9440  141.3423  155.3938 C   0  0  0  0  0  0  0  0  0  0  0  0
  150.7729  140.2198  155.0844 O   0  0  0  0  0  0  0  0  0  0  0  0
  149.7205  134.5693  154.0791 N   0  0  0  0  0  0  0  0  0  0  0  0
  149.4752  133.1789  154.2907 C   0  0  0  0  0  0  0  0  0  0  0  0
  150.3672  132.3184  154.9792 C   0  0  0  0  0  0  0  0  0  0  0  0
  150.0295  130.9629  155.1417 C   0  0  0  0  0  0  0  0  0  0  0  0
  148.8117  130.5086  154.6085 C   0  0  0  0  0  0  0  0  0  0  0  0
  147.9539  131.3100  153.9468 N   0  0  0  0  0  0  0  0  0  0  0  0
  148.2676  132.6195  153.7893 C   0  0  0  0  0  0  0  0  0  0  0  0
  147.3634  133.4217  153.0617 N   0  0  0  0  0  0  0  0  0  0  0  0
  147.2704  133.0544  151.6513 C   0  0  0  0  0  0  0  0  0  0  0  0
  145.8014  133.2166  151.2551 C   0  0  0  0  0  0  0  0  0  0  0  0
  145.0645  132.9980  152.5704 C   0  0  0  0  0  0  0  0  0  0  0  0
  146.0146  133.6275  153.5871 C   0  0  0  0  0  0  0  0  0  0  0  0
  149.7987  136.8011  153.4515 H   0  0  0  0  0  0  0  0  0  0  0  0
  151.7230  137.5926  155.6135 H   0  0  0  0  0  0  0  0  0  0  0  0
  151.7687  138.1961  153.9755 H   0  0  0  0  0  0  0  0  0  0  0  0
  149.7315  138.7868  156.1350 H   0  0  0  0  0  0  0  0  0  0  0  0
  149.2441  139.0686  153.1232 H   0  0  0  0  0  0  0  0  0  0  0  0
  148.3238  138.0617  154.2242 H   0  0  0  0  0  0  0  0  0  0  0  0
  147.1905  140.2668  152.5685 H   0  0  0  0  0  0  0  0  0  0  0  0
  146.1073  139.6064  153.7972 H   0  0  0  0  0  0  0  0  0  0  0  0
  146.1334  142.3013  153.0384 H   0  0  0  0  0  0  0  0  0  0  0  0
  145.6220  141.7824  154.6444 H   0  0  0  0  0  0  0  0  0  0  0  0
  147.9796  143.3668  154.0944 H   0  0  0  0  0  0  0  0  0  0  0  0
  147.5230  142.6299  155.6338 H   0  0  0  0  0  0  0  0  0  0  0  0
  149.1854  141.4569  153.3970 H   0  0  0  0  0  0  0  0  0  0  0  0
  150.5291  142.2580  155.3084 H   0  0  0  0  0  0  0  0  0  0  0  0
  149.5916  141.2725  156.4240 H   0  0  0  0  0  0  0  0  0  0  0  0
  149.1898  134.9755  153.3226 H   0  0  0  0  0  0  0  0  0  0  0  0
  151.3054  132.6552  155.3877 H   0  0  0  0  0  0  0  0  0  0  0  0
  150.6912  130.2875  155.6631 H   0  0  0  0  0  0  0  0  0  0  0  0
  148.5195  129.4742  154.7128 H   0  0  0  0  0  0  0  0  0  0  0  0
  147.9182  133.6825  151.0396 H   0  0  0  0  0  0  0  0  0  0  0  0
  147.5811  132.0179  151.5093 H   0  0  0  0  0  0  0  0  0  0  0  0
  145.6236  134.2317  150.8976 H   0  0  0  0  0  0  0  0  0  0  0  0
  145.4945  132.5233  150.4717 H   0  0  0  0  0  0  0  0  0  0  0  0
  144.0699  133.4440  152.5843 H   0  0  0  0  0  0  0  0  0  0  0  0
  144.9629  131.9298  152.7674 H   0  0  0  0  0  0  0  0  0  0  0  0
  145.8572  133.2321  154.5908 H   0  0  0  0  0  0  0  0  0  0  0  0
  145.8413  134.7027  153.6406 H   0  0  0  0  0  0  0  0  0  0  0  0
  1  2  2  0  0  0  0
  2  3  1  0  0  0  0
  2 14  1  0  0  0  0
  3  4  1  0  0  0  0
  3 26  1  0  0  0  0
  4  5  1  0  0  0  0
  4 27  1  0  0  0  0
  4 28  1  0  0  0  0
  5 13  1  0  0  0  0
  5  6  1  0  0  0  0
  5 29  1  0  0  0  0
  6  7  1  0  0  0  0
  6 30  1  0  0  0  0
  6 31  1  0  0  0  0
  7 11  1  0  0  0  0
  7  8  1  0  0  0  0
  8  9  1  0  0  0  0
  8 32  1  0  0  0  0
  8 33  1  0  0  0  0
  9 10  1  0  0  0  0
  9 34  1  0  0  0  0
  9 35  1  0  0  0  0
 10 11  1  0  0  0  0
 10 36  1  0  0  0  0
 10 37  1  0  0  0  0
 11 12  1  0  0  0  0
 11 38  1  0  0  0  0
 12 13  1  0  0  0  0
 12 39  1  0  0  0  0
 12 40  1  0  0  0  0
 14 15  1  0  0  0  0
 14 41  1  0  0  0  0
 15 20  1  0  0  0  0
 15 16  2  0  0  0  0
 16 17  1  0  0  0  0
 16 42  1  0  0  0  0
 17 18  2  0  0  0  0
 17 43  1  0  0  0  0
 18 19  1  0  0  0  0
 18 44  1  0  0  0  0
 19 20  2  0  0  0  0
 20 21  1  0  0  0  0
 21 25  1  0  0  0  0
 21 22  1  0  0  0  0
 22 23  1  0  0  0  0
 22 45  1  0  0  0  0
 22 46  1  0  0  0  0
 23 24  1  0  0  0  0
 23 47  1  0  0  0  0
 23 48  1  0  0  0  0
 24 25  1  0  0  0  0
 24 49  1  0  0  0  0
 24 50  1  0  0  0  0
 25 51  1  0  0  0  0
 25 52  1  0  0  0  0
M  END
> <s_m_source_file>
AV-unprocessed.smi

> <i_m_source_file_index>
1830

> <i_lp_mmshare_version>
43012

> <i_f3d_flags>
0

> <s_epik_input>
W0NIMl0xW0NIMl1bQ0gyXVtDQEhdKE4xMilbQ0gyXU9bQ0BASF0oW0NIMl0yKVtDSDJdW05IXUMoPU8pW05IXWMzW2NIXVtjSF1bY0hdbmMzTjRbQ0gyXVtDSDJdW0NIMl1bQ0gyXTQ=

> <s_epik_cmdline>
J2VwaWtfcHl0aG9uJywgJy1waCcsICc3LjAnLCAnLXRuJywgJzgnLCAnLW1hJywgJzIwMCcsICctbWV0YWxfYmluZGluZycsICctaW1hZScsICc8aW5maWxlLm1hZT4nLCAnLW9tYWUnLCAnPG91dGZpbGUubWFlPic=

> <r_lp_tautomer_probability>
1

> <r_epik_Ionization_Penalty>
1.16487

> <r_epik_Ionization_Penalty_Charging>
0

> <r_epik_Ionization_Penalty_Neutral>
1.16487

> <r_epik_State_Penalty>
1.21807

> <r_epik_Charging_Adjusted_Penalty>
1.21807

> <i_epik_Tot_Q>
0

> <i_epik_Tot_abs_Q>
0

> <r_epik_Metal_State_Penalty>
1.19922

> <b_epik_Metal_Only>
0

> <s_lp_Force_Field>
OPLS_2005

> <r_lp_Energy>
77.1598

> <b_lp_Chiralities_Consistent>
1

> <s_lp_Variant>
AV-unprocessed.smi:1830-9

> <Gold.Version>
5.8.1

> <Gold.Id.Protein>
6NUR|6NUR_protein|mol2

> <Gold.PLP.Fitness>
51.4234

> <Gold.PLP.PLP>
-41.0917

> <Gold.PLP.part.hbond>
-5.3046

> <Gold.PLP.part.metal>
0.0000

> <Gold.PLP.part.buried>
0.8262

> <Gold.PLP.part.nonpolar>
-37.4198

> <Gold.PLP.part.repulsive>
0.5266

> <Gold.PLP.ligand.clash>
0.0000

> <Gold.PLP.ligand.torsion>
0.4420

> <Gold.PLP.Chemscore.Hbond>
3.7000

> <Gold.PLP.Chemscore.CHOScore>
0.0000

> <Gold.PLP.Chemscore.Metal>
0.0000

> <Gold.Chemscore.Hbonds>
donor molecule, donor type, donor heavy atom, donor atom, acceptor molecule, acceptor atom, score
      L1  H     3    26       P1  7948  1.00
      L1  H    14    41       P1  7948  0.75
      P1  H  7989  7998       L1    13  1.00
      P1  H 10752 10764       L1     1  0.99

> <Gold.PLP.Chemscore.Internal.Correction>
0.1157

> <Gold.Rescore>
     Score         DG    S(hbond)    S(metal)    S(lipo)     H(rot)  DE(clash)    DE(int)     intcor
     17.87     -20.11       2.35        0.00      87.98       1.37       0.81       1.42       ----

> <Gold.Chemscore.Fitness>
17.8745

> <Gold.Chemscore.DG>
-20.1083

> <Gold.Chemscore.ZeroCoef>
-5.4800

> <Gold.Chemscore.Hbond>
2.3513

> <Gold.Chemscore.Metal>
0.0000

> <Gold.Chemscore.Lipo>
87.9804

> <Gold.Chemscore.Internal_Hbond>
0.0000

> <Gold.Chemscore.DEClash>
0.8127

> <Gold.Chemscore.DEInternal>
1.4212

> <Gold.Chemscore.Rot>
1.3746

> <Gold.Chemscore.Internal.Correction>
   9.000000E+99

> <Gold.Chemscore.Hbonds>
donor molecule, donor type, donor heavy atom, donor atom, acceptor molecule, acceptor atom, score
      L1  H     3    26       P1  7948  0.38
      L1  H    14    41       P1  7948  0.09
      P1  H  7989  7998       L1    13  0.25
      P1  H 10752 10764       L1     1  0.27

> <Gold.Chemscore.Hbond.Weighted>
-7.8535

> <Gold.Chemscore.Metal.Weighted>
-0.0000

> <Gold.Chemscore.Lipo.Weighted>
-10.2937

> <Gold.Chemscore.Internal_Hbond.Weighted>
0.0000

> <Gold.Chemscore.DEClash.Weighted>
0.8127

> <Gold.Chemscore.DEInternal.Weighted>
1.4212

> <Gold.Chemscore.Rot.Weighted>
3.5189

> <Gold.Chemscore.Internal.Correction.Weighted>
   9.000000E+99

> <Gold.Protein.RotatedTorsions>
[ 6907 6896 6895 6894 ] final  -21.35 input  -60.11 | X-H torsion
[ 7974 7965 7964 7962 ] final  -29.33 input  175.53 | X-H torsion
[ 8008 7997 7996 7995 ] final -162.56 input   59.86 | X-H torsion
[ 10167 10162 10161 10158 ] final -105.18 input  -65.29 | X-H torsion
[ 10718 10713 10712 10709 ] final -132.50 input   66.30 | X-H torsion
[ 10763 10752 10751 10750 ] final  -37.78 input  -60.55 | X-H torsion
[ 11005 11000 10999 10996 ] final -178.67 input  -57.11 | X-H torsion

> <Gold.Protein.ActiveResidues>
 VAL166  LYS551  ARG553  GLY616  TRP617  ASP618  TYR619  PRO620  LYS621  CYS622 
 ASP623  PHE694  ASN695  SER759  ASP760  ASP761  ALA762  ILE779  LEU786  VAL792 
 PHE793  MET794  SER795  GLU796  ALA797  LYS798  CYS799  TRP800  GLU811  SER814 

> <Gold.Protein.RotatedAtoms>
  151.2346  135.0567  159.9000 H   0  0  0  0  0  0  0  0  0  0  0  0  # atno 6907 bound_to 6896
  152.5400  134.0500  159.8116 H   0  0  0  0  0  0  0  0  0  0  0  0  # atno 6908 bound_to 6896
  151.0684  133.5437  159.2660 H   0  0  0  0  0  0  0  0  0  0  0  0  # atno 6909 bound_to 6896
  146.1224  140.5398  142.8729 H   0  0  0  0  0  0  0  0  0  0  0  0  # atno 7974 bound_to 7965
  155.8085  140.0902  157.1917 H   0  0  0  0  0  0  0  0  0  0  0  0  # atno 8008 bound_to 7997
  154.3980  140.1459  156.3418 H   0  0  0  0  0  0  0  0  0  0  0  0  # atno 8009 bound_to 7997
  155.8389  140.3439  155.5622 H   0  0  0  0  0  0  0  0  0  0  0  0  # atno 8010 bound_to 7997
  140.2013  143.3816  152.1127 H   0  0  0  0  0  0  0  0  0  0  0  0  # atno 10167 bound_to 10162
  156.2353  130.7062  151.0901 H   0  0  0  0  0  0  0  0  0  0  0  0  # atno 10718 bound_to 10713
  153.9019  135.6801  153.4755 H   0  0  0  0  0  0  0  0  0  0  0  0  # atno 10763 bound_to 10752
  153.1124  135.4777  154.9056 H   0  0  0  0  0  0  0  0  0  0  0  0  # atno 10764 bound_to 10752
  154.7571  135.3200  154.8404 H   0  0  0  0  0  0  0  0  0  0  0  0  # atno 10765 bound_to 10752
  140.4272  134.6552  157.4694 H   0  0  0  0  0  0  0  0  0  0  0  0  # atno 11005 bound_to 11000
  144.7610  140.5422  143.6735 LP  0  0  0  0  0  0  0  0  0  0  0  0  # atno 17320 bound_to 7965
  145.5437  139.1475  143.3433 LP  0  0  0  0  0  0  0  0  0  0  0  0  # atno 17321 bound_to 7965
  139.5216  144.7048  151.5387 LP  0  0  0  0  0  0  0  0  0  0  0  0  # atno 17342 bound_to 10162
  140.6388  143.8931  150.6672 LP  0  0  0  0  0  0  0  0  0  0  0  0  # atno 17343 bound_to 10162
  157.7151  131.0714  150.6356 LP  0  0  0  0  0  0  0  0  0  0  0  0  # atno 17370 bound_to 10713
  156.6426  130.4462  149.5747 LP  0  0  0  0  0  0  0  0  0  0  0  0  # atno 17371 bound_to 10713
  140.0159  134.6620  155.9311 LP  0  0  0  0  0  0  0  0  0  0  0  0  # atno 17394 bound_to 11000
  141.1760  133.6540  156.4831 LP  0  0  0  0  0  0  0  0  0  0  0  0  # atno 17395 bound_to 11000

$$$$
