AV-unprocessed.smi:527|AV-procd|sdf|2829|dock6
  -GOLD-   2262023313D 1   1.00000     0.00000
 Structure written by MMmdl.
 43 44  0  0  0  0  0  0  0  0  2 V2000
  146.2198  142.3305  154.0617 C   0  0  0  0  0  0  0  0  0  0  0  0
  147.1837  141.2296  154.5343 C   0  0  2  0  0  0  0  0  0  0  0  0
  148.6552  141.6832  154.4543 C   0  0  0  0  0  0  0  0  0  0  0  0
  149.6032  140.6179  155.0273 C   0  0  0  0  0  0  0  0  0  0  0  0
  149.3962  139.2546  154.3504 C   0  0  0  0  0  0  0  0  0  0  0  0
  147.9244  138.8050  154.4338 C   0  0  2  0  0  0  0  0  0  0  0  0
  147.7735  137.4903  153.8123 N   0  0  0  0  0  0  0  0  0  0  0  0
  146.7574  136.6418  154.0277 C   0  0  0  0  0  0  0  0  0  0  0  0
  145.8186  136.8886  154.7875 O   0  0  0  0  0  0  0  0  0  0  0  0
  146.9077  135.5138  153.3067 N   0  0  0  0  0  0  0  0  0  0  0  0
  146.0629  134.4640  153.2417 C   0  0  0  0  0  0  0  0  0  0  0  0
  144.9927  134.3729  153.8462 O   0  0  0  0  0  0  0  0  0  0  0  0
  146.4941  133.3185  152.3243 C   0  0  0  0  0  0  0  0  0  0  0  0
  145.5380  133.1267  151.2291 N   0  0  0  0  0  0  0  0  0  0  0  0
  145.6717  132.2987  150.1436 C   0  0  0  0  0  0  0  0  0  0  0  0
  144.5358  132.4540  149.3912 C   0  0  0  0  0  0  0  0  0  0  0  0
  143.7577  133.3701  150.0473 N   0  3  0  0  0  0  0  0  0  0  0  0
  144.3679  133.7770  151.1651 C   0  0  0  0  0  0  0  0  0  0  0  0
  146.9663  139.8666  153.8244 C   0  0  2  0  0  0  0  0  0  0  0  0
  147.0525  139.9511  152.2827 C   0  0  0  0  0  0  0  0  0  0  0  0
  146.4301  142.6434  153.0391 H   0  0  0  0  0  0  0  0  0  0  0  0
  146.3016  143.2151  154.6941 H   0  0  0  0  0  0  0  0  0  0  0  0
  145.1841  141.9923  154.1047 H   0  0  0  0  0  0  0  0  0  0  0  0
  146.9602  141.0698  155.5904 H   0  0  0  0  0  0  0  0  0  0  0  0
  148.9271  141.9014  153.4211 H   0  0  0  0  0  0  0  0  0  0  0  0
  148.7866  142.6151  155.0052 H   0  0  0  0  0  0  0  0  0  0  0  0
  150.6388  140.9389  154.9093 H   0  0  0  0  0  0  0  0  0  0  0  0
  149.4317  140.5201  156.1001 H   0  0  0  0  0  0  0  0  0  0  0  0
  149.7164  139.3107  153.3095 H   0  0  0  0  0  0  0  0  0  0  0  0
  150.0388  138.5135  154.8274 H   0  0  0  0  0  0  0  0  0  0  0  0
  147.6816  138.6974  155.4932 H   0  0  0  0  0  0  0  0  0  0  0  0
  148.5014  137.2096  153.1717 H   0  0  0  0  0  0  0  0  0  0  0  0
  147.7480  135.4480  152.7514 H   0  0  0  0  0  0  0  0  0  0  0  0
  147.4787  133.5117  151.8952 H   0  0  0  0  0  0  0  0  0  0  0  0
  146.5625  132.3878  152.8899 H   0  0  0  0  0  0  0  0  0  0  0  0
  146.5418  131.6762  149.9905 H   0  0  0  0  0  0  0  0  0  0  0  0
  144.2311  131.9940  148.4622 H   0  0  0  0  0  0  0  0  0  0  0  0
  143.9920  134.4936  151.8742 H   0  0  0  0  0  0  0  0  0  0  0  0
  145.9474  139.5521  154.0545 H   0  0  0  0  0  0  0  0  0  0  0  0
  148.0326  140.2842  151.9439 H   0  0  0  0  0  0  0  0  0  0  0  0
  146.3122  140.6409  151.8791 H   0  0  0  0  0  0  0  0  0  0  0  0
  146.8555  138.9857  151.8172 H   0  0  0  0  0  0  0  0  0  0  0  0
  142.8518  133.6957  149.7334 H   0  0  0  0  0  0  0  0  0  0  0  0
  1  2  1  0  0  0  0
  1 21  1  0  0  0  0
  1 22  1  0  0  0  0
  1 23  1  0  0  0  0
  2 19  1  0  0  0  0
  2  3  1  0  0  0  0
  2 24  1  0  0  0  0
  3  4  1  0  0  0  0
  3 25  1  0  0  0  0
  3 26  1  0  0  0  0
  4  5  1  0  0  0  0
  4 27  1  0  0  0  0
  4 28  1  0  0  0  0
  5  6  1  0  0  0  0
  5 29  1  0  0  0  0
  5 30  1  0  0  0  0
  6  7  1  0  0  0  0
  6 19  1  0  0  0  0
  6 31  1  0  0  0  0
  7  8  1  0  0  0  0
  7 32  1  0  0  0  0
  8  9  2  0  0  0  0
  8 10  1  0  0  0  0
 10 11  1  0  0  0  0
 10 33  1  0  0  0  0
 11 12  2  0  0  0  0
 11 13  1  0  0  0  0
 13 14  1  0  0  0  0
 13 34  1  0  0  0  0
 13 35  1  0  0  0  0
 14 18  1  0  0  0  0
 14 15  1  0  0  0  0
 15 16  2  0  0  0  0
 15 36  1  0  0  0  0
 16 17  1  0  0  0  0
 16 37  1  0  0  0  0
 17 18  2  0  0  0  0
 17 43  1  0  0  0  0
 18 38  1  0  0  0  0
 19 20  1  0  0  0  0
 19 39  1  0  0  0  0
 20 40  1  0  0  0  0
 20 41  1  0  0  0  0
 20 42  1  0  0  0  0
M  CHG  1  17   1
M  END
> <s_m_source_file>
AV-unprocessed.smi

> <i_m_source_file_index>
527

> <i_lp_mmshare_version>
43012

> <i_f3d_flags>
0

> <s_epik_input>
W0NIM11bQ0BASF0xW0NIMl1bQ0gyXVtDSDJdW0NASF0oW0NASF0xW0NIM10pW05IXUMoPU8pW05IXUMoPU8pW0NIMl1uMltjSF1bY0hdbltjSF0y

> <s_epik_cmdline>
J2VwaWtfcHl0aG9uJywgJy1waCcsICc3LjAnLCAnLXRuJywgJzgnLCAnLW1hJywgJzIwMCcsICctbWV0YWxfYmluZGluZycsICctaW1hZScsICc8aW5maWxlLm1hZT4nLCAnLW9tYWUnLCAnPG91dGZpbGUubWFlPic=

> <r_lp_tautomer_probability>
1

> <r_epik_Ionization_Penalty>
0.816441

> <r_epik_Ionization_Penalty_Charging>
0

> <r_epik_Ionization_Penalty_Neutral>
0.816441

> <r_epik_State_Penalty>
0.849034

> <r_epik_Charging_Adjusted_Penalty>
0.849034

> <i_epik_Tot_Q>
1

> <i_epik_Tot_abs_Q>
1

> <r_epik_Metal_State_Penalty>
0.984327

> <b_epik_Metal_Only>
0

> <s_lp_Force_Field>
OPLS_2005

> <r_lp_Energy>
18.4408

> <b_lp_Chiralities_Consistent>
1

> <s_lp_Variant>
AV-unprocessed.smi:527-15

> <Gold.Version>
5.8.1

> <Gold.Id.Protein>
6NUR|6NUR_protein|mol2

> <Gold.PLP.Fitness>
48.5811

> <Gold.PLP.PLP>
-34.3036

> <Gold.PLP.part.hbond>
-3.0000

> <Gold.PLP.part.metal>
0.0000

> <Gold.PLP.part.buried>
-0.5806

> <Gold.PLP.part.nonpolar>
-30.9530

> <Gold.PLP.part.repulsive>
0.1714

> <Gold.PLP.ligand.clash>
0.0000

> <Gold.PLP.ligand.torsion>
0.2971

> <Gold.PLP.Chemscore.Hbond>
3.9520

> <Gold.PLP.Chemscore.CHOScore>
0.9987

> <Gold.PLP.Chemscore.Metal>
0.0000

> <Gold.Chemscore.Hbonds>
donor molecule, donor type, donor heavy atom, donor atom, acceptor molecule, acceptor atom, score
      L1  H     7    32       P1  7948  0.98
      L1  H    10    33       P1  7948  0.99
      L1  H    17    43       P1 10186  2.00
      L1  C    15    36       P1 10747  0.90

> <Gold.PLP.Chemscore.Internal.Correction>
0.0197

> <Gold.Rescore>
     Score         DG    S(hbond)    S(metal)    S(lipo)     H(rot)  DE(clash)    DE(int)     intcor
     16.77     -19.77       2.93        0.00      75.92       1.71       0.15       2.85       ----

> <Gold.Chemscore.Fitness>
16.7659

> <Gold.Chemscore.DG>
-19.7703

> <Gold.Chemscore.ZeroCoef>
-5.4800

> <Gold.Chemscore.Hbond>
2.9260

> <Gold.Chemscore.Metal>
0.0000

> <Gold.Chemscore.Lipo>
75.9222

> <Gold.Chemscore.Internal_Hbond>
0.0000

> <Gold.Chemscore.DEClash>
0.1499

> <Gold.Chemscore.DEInternal>
2.8545

> <Gold.Chemscore.Rot>
1.7052

> <Gold.Chemscore.Internal.Correction>
   9.000000E+99

> <Gold.Chemscore.Hbonds>
donor molecule, donor type, donor heavy atom, donor atom, acceptor molecule, acceptor atom, score
      L1  H     7    32       P1  7948  0.92
      L1  H    10    33       P1  7948  0.94
      L1  H    17    43       P1 10186  0.97

> <Gold.Chemscore.Hbond.Weighted>
-9.7727

> <Gold.Chemscore.Metal.Weighted>
-0.0000

> <Gold.Chemscore.Lipo.Weighted>
-8.8829

> <Gold.Chemscore.Internal_Hbond.Weighted>
0.0000

> <Gold.Chemscore.DEClash.Weighted>
0.1499

> <Gold.Chemscore.DEInternal.Weighted>
2.8545

> <Gold.Chemscore.Rot.Weighted>
4.3653

> <Gold.Chemscore.Internal.Correction.Weighted>
   9.000000E+99

> <Gold.Protein.RotatedTorsions>
[ 6907 6896 6895 6894 ] final  -53.51 input  -60.11 | X-H torsion
[ 7974 7965 7964 7962 ] final -176.09 input  175.53 | X-H torsion
[ 8008 7997 7996 7995 ] final   91.24 input   59.86 | X-H torsion
[ 10167 10162 10161 10158 ] final -130.29 input  -65.29 | X-H torsion
[ 10718 10713 10712 10709 ] final   71.70 input   66.30 | X-H torsion
[ 10763 10752 10751 10750 ] final  -37.94 input  -60.55 | X-H torsion
[ 11005 11000 10999 10996 ] final   35.61 input  -57.11 | X-H torsion

> <Gold.Protein.ActiveResidues>
 VAL166  LYS551  ARG553  GLY616  TRP617  ASP618  TYR619  PRO620  LYS621  CYS622 
 ASP623  PHE694  ASN695  SER759  ASP760  ASP761  ALA762  ILE779  LEU786  VAL792 
 PHE793  MET794  SER795  GLU796  ALA797  LYS798  CYS799  TRP800  GLU811  SER814 

> <Gold.Protein.RotatedAtoms>
  150.8421  134.7716  159.6940 H   0  0  0  0  0  0  0  0  0  0  0  0  # atno 6907 bound_to 6896
  152.4506  134.5399  159.9846 H   0  0  0  0  0  0  0  0  0  0  0  0  # atno 6908 bound_to 6896
  151.5537  133.3376  159.2993 H   0  0  0  0  0  0  0  0  0  0  0  0  # atno 6909 bound_to 6896
  144.7127  140.1222  143.6404 H   0  0  0  0  0  0  0  0  0  0  0  0  # atno 7974 bound_to 7965
  156.0215  140.3340  155.7043 H   0  0  0  0  0  0  0  0  0  0  0  0  # atno 8008 bound_to 7997
  155.6016  140.0656  157.2749 H   0  0  0  0  0  0  0  0  0  0  0  0  # atno 8009 bound_to 7997
  154.4318  140.1809  156.1167 H   0  0  0  0  0  0  0  0  0  0  0  0  # atno 8010 bound_to 7997
  139.9309  143.6273  152.2530 H   0  0  0  0  0  0  0  0  0  0  0  0  # atno 10167 bound_to 10162
  157.6465  130.9542  150.0826 H   0  0  0  0  0  0  0  0  0  0  0  0  # atno 10718 bound_to 10713
  153.9047  135.6799  153.4753 H   0  0  0  0  0  0  0  0  0  0  0  0  # atno 10763 bound_to 10752
  153.1110  135.4783  154.9033 H   0  0  0  0  0  0  0  0  0  0  0  0  # atno 10764 bound_to 10752
  154.7557  135.3197  154.8428 H   0  0  0  0  0  0  0  0  0  0  0  0  # atno 10765 bound_to 10752
  140.2409  134.3415  155.7926 H   0  0  0  0  0  0  0  0  0  0  0  0  # atno 11005 bound_to 11000
  145.9361  139.2638  143.1296 LP  0  0  0  0  0  0  0  0  0  0  0  0  # atno 17320 bound_to 7965
  145.9473  140.8935  143.0277 LP  0  0  0  0  0  0  0  0  0  0  0  0  # atno 17321 bound_to 7965
  139.6783  144.7657  151.1655 LP  0  0  0  0  0  0  0  0  0  0  0  0  # atno 17342 bound_to 10162
  140.7638  143.5762  150.8943 LP  0  0  0  0  0  0  0  0  0  0  0  0  # atno 17343 bound_to 10162
  156.1798  130.3649  149.9051 LP  0  0  0  0  0  0  0  0  0  0  0  0  # atno 17370 bound_to 10713
  156.7006  130.8931  151.3599 LP  0  0  0  0  0  0  0  0  0  0  0  0  # atno 17371 bound_to 10713
  141.2210  133.7298  156.8884 LP  0  0  0  0  0  0  0  0  0  0  0  0  # atno 17394 bound_to 11000
  140.1654  134.9137  157.2767 LP  0  0  0  0  0  0  0  0  0  0  0  0  # atno 17395 bound_to 11000

$$$$
