AV-unprocessed.smi:101|AV-procd|sdf|920|dock1
  -GOLD-   2262017423D 1   1.00000     0.00000
 Structure written by MMmdl.
 44 46  0  0  0  0  0  0  0  0  1 V2000
  150.2159  137.3152  159.0230 C   0  0  0  0  0  0  0  0  0  0  0  0
  148.9896  137.0081  158.1789 C   0  0  0  0  0  0  0  0  0  0  0  0
  148.4570  137.9105  157.3155 C   0  0  0  0  0  0  0  0  0  0  0  0
  147.3349  137.6610  156.5333 N   0  0  0  0  0  0  0  0  0  0  0  0
  146.7481  138.6947  155.5868 C   0  0  1  0  0  0  0  0  0  0  0  0
  147.4525  139.8951  155.7060 O   0  0  0  0  0  0  0  0  0  0  0  0
  148.2984  140.0704  154.5751 C   0  0  2  0  0  0  0  0  0  0  0  0
  148.7261  141.5361  154.4270 C   0  0  0  0  0  0  0  0  0  0  0  0
  149.4798  141.8871  155.5753 O   0  0  0  0  0  0  0  0  0  0  0  0
  150.6114  141.2261  155.8787 C   0  0  0  0  0  0  0  0  0  0  0  0
  151.0544  140.2874  155.2140 O   0  0  0  0  0  0  0  0  0  0  0  0
  151.2738  141.7557  157.1060 C   0  0  0  0  0  0  0  0  0  0  0  0
  151.2700  143.1488  157.3513 C   0  0  0  0  0  0  0  0  0  0  0  0
  151.8868  143.6755  158.5030 C   0  0  0  0  0  0  0  0  0  0  0  0
  152.5159  142.8160  159.4225 C   0  0  0  0  0  0  0  0  0  0  0  0
  152.5268  141.4284  159.1898 C   0  0  0  0  0  0  0  0  0  0  0  0
  151.9096  140.8996  158.0396 C   0  0  0  0  0  0  0  0  0  0  0  0
  147.4634  139.4865  153.4343 C   0  0  2  0  0  0  0  0  0  0  0  0
  146.4850  140.4137  153.0006 O   0  0  0  0  0  0  0  0  0  0  0  0
  146.8123  138.2753  154.0937 C   0  0  1  0  0  0  0  0  0  0  0  0
  147.6076  137.1268  153.8526 O   0  0  0  0  0  0  0  0  0  0  0  0
  146.6916  136.4103  156.6339 C   0  0  0  0  0  0  0  0  0  0  0  0
  145.6937  136.1222  155.9741 O   0  0  0  0  0  0  0  0  0  0  0  0
  147.2391  135.4827  157.5178 N   0  0  0  0  0  0  0  0  0  0  0  0
  148.3672  135.6882  158.3153 C   0  0  0  0  0  0  0  0  0  0  0  0
  148.7586  134.7888  159.0571 O   0  0  0  0  0  0  0  0  0  0  0  0
  146.7814  134.5856  157.5889 H   0  0  0  0  0  0  0  0  0  0  0  0
  150.5799  138.3298  158.8573 H   0  0  0  0  0  0  0  0  0  0  0  0
  151.0258  136.6257  158.7824 H   0  0  0  0  0  0  0  0  0  0  0  0
  149.9834  137.2141  160.0836 H   0  0  0  0  0  0  0  0  0  0  0  0
  148.9438  138.8713  157.2509 H   0  0  0  0  0  0  0  0  0  0  0  0
  145.7318  138.8743  155.9428 H   0  0  0  0  0  0  0  0  0  0  0  0
  149.1864  139.4468  154.6932 H   0  0  0  0  0  0  0  0  0  0  0  0
  149.3501  141.6601  153.5411 H   0  0  0  0  0  0  0  0  0  0  0  0
  147.8553  142.1840  154.3171 H   0  0  0  0  0  0  0  0  0  0  0  0
  150.7928  143.8282  156.6597 H   0  0  0  0  0  0  0  0  0  0  0  0
  151.8767  144.7407  158.6805 H   0  0  0  0  0  0  0  0  0  0  0  0
  152.9896  143.2204  160.3049 H   0  0  0  0  0  0  0  0  0  0  0  0
  153.0097  140.7674  159.8944 H   0  0  0  0  0  0  0  0  0  0  0  0
  151.9369  139.8297  157.8927 H   0  0  0  0  0  0  0  0  0  0  0  0
  148.0786  139.2191  152.5738 H   0  0  0  0  0  0  0  0  0  0  0  0
  145.6496  139.9735  152.9605 H   0  0  0  0  0  0  0  0  0  0  0  0
  145.8063  138.0845  153.7175 H   0  0  0  0  0  0  0  0  0  0  0  0
  147.8844  137.1414  152.9489 H   0  0  0  0  0  0  0  0  0  0  0  0
  1  2  1  0  0  0  0
  1 28  1  0  0  0  0
  1 29  1  0  0  0  0
  1 30  1  0  0  0  0
  2 25  1  0  0  0  0
  2  3  2  0  0  0  0
  3  4  1  0  0  0  0
  3 31  1  0  0  0  0
  4  5  1  0  0  0  0
  4 22  1  0  0  0  0
  5 20  1  0  0  0  0
  5  6  1  0  0  0  0
  5 32  1  0  0  0  0
  6  7  1  0  0  0  0
  7  8  1  0  0  0  0
  7 18  1  0  0  0  0
  7 33  1  0  0  0  0
  8  9  1  0  0  0  0
  8 34  1  0  0  0  0
  8 35  1  0  0  0  0
  9 10  1  0  0  0  0
 10 11  2  0  0  0  0
 10 12  1  0  0  0  0
 12 17  1  0  0  0  0
 12 13  2  0  0  0  0
 13 14  1  0  0  0  0
 13 36  1  0  0  0  0
 14 15  2  0  0  0  0
 14 37  1  0  0  0  0
 15 16  1  0  0  0  0
 15 38  1  0  0  0  0
 16 17  2  0  0  0  0
 16 39  1  0  0  0  0
 17 40  1  0  0  0  0
 18 19  1  0  0  0  0
 18 20  1  0  0  0  0
 18 41  1  0  0  0  0
 19 42  1  0  0  0  0
 20 21  1  0  0  0  0
 20 43  1  0  0  0  0
 21 44  1  0  0  0  0
 22 23  2  0  0  0  0
 22 24  1  0  0  0  0
 24 27  1  0  0  0  0
 24 25  1  0  0  0  0
 25 26  2  0  0  0  0
M  END
> <s_m_source_file>
AV-unprocessed.smi

> <i_m_source_file_index>
101

> <i_lp_mmshare_version>
43012

> <i_f3d_flags>
0

> <s_epik_input>
Tz1jMVtuSF1jKD1PKW4oW2NIXWMxW0NIM10pW0NAQEhdMk9bQ0BIXShbQ0BASF0oW09IXSlbQ0BIXTJbT0hdKVtDSDJdT0MoPU8pYzNbY0hdW2NIXVtjSF1bY0hdW2NIXTM=

> <s_epik_cmdline>
J2VwaWtfcHl0aG9uJywgJy1waCcsICc3LjAnLCAnLXRuJywgJzgnLCAnLW1hJywgJzIwMCcsICctbWV0YWxfYmluZGluZycsICctaW1hZScsICc8aW5maWxlLm1hZT4nLCAnLW9tYWUnLCAnPG91dGZpbGUubWFlPic=

> <r_lp_tautomer_probability>
0.999537

> <r_epik_Ionization_Penalty>
0.00263537

> <r_epik_Ionization_Penalty_Charging>
0.00263428

> <r_epik_Ionization_Penalty_Neutral>
1.09111e-06

> <r_epik_State_Penalty>
0.00183335

> <r_epik_Charging_Adjusted_Penalty>
0.00446763

> <i_epik_Tot_Q>
0

> <i_epik_Tot_abs_Q>
0

> <r_epik_Metal_State_Penalty>
1.00528

> <b_epik_Metal_Only>
0

> <s_epik_Chemistry_Notes>
This compound has an ester and may undergo hydrolysis at high or low pH. This compound contains an acetal/aminal-like group ( X-CH(R)-Y where X, Y are N, S, or O) that may be acid/base labile, releasing an aldehyde.

> <s_lp_Force_Field>
OPLS_2005

> <r_lp_Energy>
36.6069

> <b_lp_Chiralities_Consistent>
1

> <s_lp_Variant>
AV-unprocessed.smi:101-8

> <Gold.Version>
5.8.1

> <Gold.Id.Protein>
6NUR|6NUR_protein|mol2

> <Gold.PLP.Fitness>
43.9958

> <Gold.PLP.PLP>
-34.9084

> <Gold.PLP.part.hbond>
-4.0000

> <Gold.PLP.part.metal>
0.0000

> <Gold.PLP.part.buried>
-5.2753

> <Gold.PLP.part.nonpolar>
-27.4466

> <Gold.PLP.part.repulsive>
1.8318

> <Gold.PLP.ligand.clash>
0.0000

> <Gold.PLP.ligand.torsion>
0.6046

> <Gold.PLP.Chemscore.Hbond>
3.4108

> <Gold.PLP.Chemscore.CHOScore>
0.0000

> <Gold.PLP.Chemscore.Metal>
0.0000

> <Gold.Chemscore.Hbonds>
donor molecule, donor type, donor heavy atom, donor atom, acceptor molecule, acceptor atom, score
      L1  H    19    42       P1 10175  0.63
      L1  H    21    44       P1  7948  0.78
      P1  H  6896  6909       L1    26  1.00
      P1  H  7989  7998       L1    11  1.00

> <Gold.PLP.Chemscore.Internal.Correction>
0.0643

> <Gold.Rescore>
     Score         DG    S(hbond)    S(metal)    S(lipo)     H(rot)  DE(clash)    DE(int)     intcor
     15.14     -18.56       3.35        0.00      88.66       3.32       1.42       2.00       ----

> <Gold.Chemscore.Fitness>
15.1441

> <Gold.Chemscore.DG>
-18.5641

> <Gold.Chemscore.ZeroCoef>
-5.4800

> <Gold.Chemscore.Hbond>
3.3541

> <Gold.Chemscore.Metal>
0.0000

> <Gold.Chemscore.Lipo>
88.6617

> <Gold.Chemscore.Internal_Hbond>
0.0000

> <Gold.Chemscore.DEClash>
1.4198

> <Gold.Chemscore.DEInternal>
2.0002

> <Gold.Chemscore.Rot>
3.3172

> <Gold.Chemscore.Internal.Correction>
   9.000000E+99

> <Gold.Chemscore.Hbonds>
donor molecule, donor type, donor heavy atom, donor atom, acceptor molecule, acceptor atom, score
      L1  H    19    42       P1 10175  0.62
      L1  H    21    44       P1  7948  0.80
      P1  H  6896  6909       L1    26  0.97
      P1  H  7989  7998       L1    11  0.76

> <Gold.Chemscore.Hbond.Weighted>
-11.2027

> <Gold.Chemscore.Metal.Weighted>
-0.0000

> <Gold.Chemscore.Lipo.Weighted>
-10.3734

> <Gold.Chemscore.Internal_Hbond.Weighted>
0.0000

> <Gold.Chemscore.DEClash.Weighted>
1.4198

> <Gold.Chemscore.DEInternal.Weighted>
2.0002

> <Gold.Chemscore.Rot.Weighted>
8.4920

> <Gold.Chemscore.Internal.Correction.Weighted>
   9.000000E+99

> <Gold.Protein.RotatedTorsions>
[ 6907 6896 6895 6894 ] final   48.42 input  -60.11 | X-H torsion
[ 7974 7965 7964 7962 ] final   35.22 input  175.53 | X-H torsion
[ 8008 7997 7996 7995 ] final   46.52 input   59.86 | X-H torsion
[ 10167 10162 10161 10158 ] final  175.32 input  -65.29 | X-H torsion
[ 10718 10713 10712 10709 ] final   54.53 input   66.30 | X-H torsion
[ 10763 10752 10751 10750 ] final  -99.82 input  -60.55 | X-H torsion
[ 11005 11000 10999 10996 ] final -117.76 input  -57.11 | X-H torsion

> <Gold.Protein.ActiveResidues>
 VAL166  LYS551  ARG553  GLY616  TRP617  ASP618  TYR619  PRO620  LYS621  CYS622 
 ASP623  PHE694  ASN695  SER759  ASP760  ASP761  ALA762  ILE779  LEU786  VAL792 
 PHE793  MET794  SER795  GLU796  ALA797  LYS798  CYS799  TRP800  GLU811  SER814 

> <Gold.Protein.RotatedAtoms>
  152.2793  134.7847  160.0399 H   0  0  0  0  0  0  0  0  0  0  0  0  # atno 6907 bound_to 6896
  151.8432  133.3422  159.3657 H   0  0  0  0  0  0  0  0  0  0  0  0  # atno 6908 bound_to 6896
  150.7183  134.5300  159.5740 H   0  0  0  0  0  0  0  0  0  0  0  0  # atno 6909 bound_to 6896
  146.1298  139.6170  142.9234 H   0  0  0  0  0  0  0  0  0  0  0  0  # atno 7974 bound_to 7965
  155.3538  140.3415  155.4239 H   0  0  0  0  0  0  0  0  0  0  0  0  # atno 8008 bound_to 7997
  156.1750  140.1644  156.8414 H   0  0  0  0  0  0  0  0  0  0  0  0  # atno 8009 bound_to 7997
  154.5272  140.0753  156.8263 H   0  0  0  0  0  0  0  0  0  0  0  0  # atno 8010 bound_to 7997
  139.5173  144.3045  152.0348 H   0  0  0  0  0  0  0  0  0  0  0  0  # atno 10167 bound_to 10162
  157.5265  130.8601  149.8629 H   0  0  0  0  0  0  0  0  0  0  0  0  # atno 10718 bound_to 10713
  154.7529  135.4958  153.9322 H   0  0  0  0  0  0  0  0  0  0  0  0  # atno 10763 bound_to 10752
  153.1163  135.6721  153.9419 H   0  0  0  0  0  0  0  0  0  0  0  0  # atno 10764 bound_to 10752
  153.9164  135.3093  155.3427 H   0  0  0  0  0  0  0  0  0  0  0  0  # atno 10765 bound_to 10752
  141.0333  133.9948  157.3110 H   0  0  0  0  0  0  0  0  0  0  0  0  # atno 11005 bound_to 11000
  145.5285  141.0428  143.2396 LP  0  0  0  0  0  0  0  0  0  0  0  0  # atno 17320 bound_to 7965
  144.7679  139.6802  143.7207 LP  0  0  0  0  0  0  0  0  0  0  0  0  # atno 17321 bound_to 7965
  140.2492  144.4187  150.6229 LP  0  0  0  0  0  0  0  0  0  0  0  0  # atno 17342 bound_to 10162
  140.6237  143.2179  151.6641 LP  0  0  0  0  0  0  0  0  0  0  0  0  # atno 17343 bound_to 10162
  156.0391  130.3743  150.1483 LP  0  0  0  0  0  0  0  0  0  0  0  0  # atno 17370 bound_to 10713
  156.9669  130.9822  151.3467 LP  0  0  0  0  0  0  0  0  0  0  0  0  # atno 17371 bound_to 10713
  139.9223  135.0201  156.8108 LP  0  0  0  0  0  0  0  0  0  0  0  0  # atno 17394 bound_to 11000
  140.6368  133.9855  155.7688 LP  0  0  0  0  0  0  0  0  0  0  0  0  # atno 17395 bound_to 11000

$$$$
