AV-unprocessed.smi:229|AV-procd|sdf|1753|dock9
  -GOLD-   2262020273D 1   1.00000     0.00000
 Structure written by MMmdl.
 58 62  0  0  0  0  0  0  0  0  1 V2000
  151.9007  144.7698  160.4454 C   0  0  0  0  0  0  0  0  0  0  0  0
  152.5486  144.4420  159.0946 C   0  0  0  0  0  0  0  0  0  0  0  0
  153.0999  143.0100  159.0258 C   0  0  2  0  0  0  0  0  0  0  0  0
  152.1463  142.0671  158.2718 C   0  0  0  0  0  0  0  0  0  0  0  0
  152.6517  140.6993  158.3254 N   0  0  0  0  0  0  0  0  0  0  0  0
  152.1235  139.7818  157.4755 C   0  0  0  0  0  0  0  0  0  0  0  0
  152.4718  139.7951  156.1607 N   0  0  0  0  0  0  0  0  0  0  0  0
  151.9610  138.8945  155.3165 C   0  0  0  0  0  0  0  0  0  0  0  0
  151.1002  137.9078  155.5707 N   0  0  0  0  0  0  0  0  0  0  0  0
  150.7452  137.8859  156.8874 C   0  0  0  0  0  0  0  0  0  0  0  0
  151.2094  138.7748  157.8984 C   0  0  0  0  0  0  0  0  0  0  0  0
  150.6525  138.4261  159.1227 N   0  0  0  0  0  0  0  0  0  0  0  0
  149.8967  137.3984  158.8498 C   0  0  0  0  0  0  0  0  0  0  0  0
  149.8782  137.0147  157.5266 N   0  0  0  0  0  0  0  0  0  0  0  0
  149.1435  135.8998  156.9413 C   0  0  0  0  0  0  0  0  0  0  0  0
  150.0313  134.8195  156.2766 C   0  0  1  0  0  0  0  0  0  0  0  0
  150.8705  134.2674  157.2718 O   0  0  0  0  0  0  0  0  0  0  0  0
  149.2622  133.6589  155.6084 C   0  0  1  0  0  0  0  0  0  0  0  0
  148.7411  133.9577  154.1963 C   0  0  0  0  0  0  0  0  0  0  0  0
  148.8287  132.6275  153.4610 C   0  0  0  0  0  0  0  0  0  0  0  0
  149.5129  131.6978  154.4598 C   0  0  0  0  0  0  0  0  0  0  0  0
  150.1559  132.5824  155.3612 O   0  0  0  0  0  0  0  0  0  0  0  0
  152.8727  140.2325  159.6891 C   0  0  0  0  0  0  0  0  0  0  0  0
  153.8008  141.2017  160.4564 C   0  0  1  0  0  0  0  0  0  0  0  0
  153.8721  140.8346  161.9351 C   0  0  0  0  0  0  0  0  0  0  0  0
  155.1253  139.9765  162.0208 C   0  0  0  0  0  0  0  0  0  0  0  0
  156.0157  140.6579  161.1577 O   0  0  0  0  0  0  0  0  0  0  0  0
  155.2818  141.0982  160.0210 C   0  0  0  0  0  0  0  0  0  0  0  0
  153.2813  142.5312  160.3602 O   0  0  0  0  0  0  0  0  0  0  0  0
  151.5379  145.7977  160.4616 H   0  0  0  0  0  0  0  0  0  0  0  0
  152.6137  144.6559  161.2623 H   0  0  0  0  0  0  0  0  0  0  0  0
  151.0524  144.1154  160.6469 H   0  0  0  0  0  0  0  0  0  0  0  0
  151.8231  144.5961  158.2950 H   0  0  0  0  0  0  0  0  0  0  0  0
  153.3586  145.1498  158.9148 H   0  0  0  0  0  0  0  0  0  0  0  0
  154.0567  143.0341  158.5035 H   0  0  0  0  0  0  0  0  0  0  0  0
  151.1503  142.1025  158.7156 H   0  0  0  0  0  0  0  0  0  0  0  0
  152.0544  142.3942  157.2352 H   0  0  0  0  0  0  0  0  0  0  0  0
  152.2896  138.9756  154.2909 H   0  0  0  0  0  0  0  0  0  0  0  0
  149.3312  136.8907  159.6170 H   0  0  0  0  0  0  0  0  0  0  0  0
  148.5412  135.4378  157.7236 H   0  0  0  0  0  0  0  0  0  0  0  0
  148.4313  136.3021  156.2197 H   0  0  0  0  0  0  0  0  0  0  0  0
  150.6678  135.3044  155.5355 H   0  0  0  0  0  0  0  0  0  0  0  0
  151.2920  133.5001  156.9163 H   0  0  0  0  0  0  0  0  0  0  0  0
  148.4402  133.3128  156.2388 H   0  0  0  0  0  0  0  0  0  0  0  0
  147.7241  134.3472  154.2103 H   0  0  0  0  0  0  0  0  0  0  0  0
  149.3741  134.6919  153.6964 H   0  0  0  0  0  0  0  0  0  0  0  0
  147.8491  132.2474  153.1699 H   0  0  0  0  0  0  0  0  0  0  0  0
  149.4295  132.7366  152.5574 H   0  0  0  0  0  0  0  0  0  0  0  0
  148.7777  131.1010  155.0020 H   0  0  0  0  0  0  0  0  0  0  0  0
  150.2245  131.0205  153.9870 H   0  0  0  0  0  0  0  0  0  0  0  0
  151.9027  140.1790  160.1855 H   0  0  0  0  0  0  0  0  0  0  0  0
  153.2861  139.2251  159.7134 H   0  0  0  0  0  0  0  0  0  0  0  0
  154.0155  141.7320  162.5390 H   0  0  0  0  0  0  0  0  0  0  0  0
  152.9819  140.3258  162.3058 H   0  0  0  0  0  0  0  0  0  0  0  0
  155.5209  139.9037  163.0338 H   0  0  0  0  0  0  0  0  0  0  0  0
  154.9415  138.9690  161.6439 H   0  0  0  0  0  0  0  0  0  0  0  0
  155.4101  140.3800  159.2101 H   0  0  0  0  0  0  0  0  0  0  0  0
  155.6952  142.0498  159.6886 H   0  0  0  0  0  0  0  0  0  0  0  0
  1  2  1  0  0  0  0
  1 30  1  0  0  0  0
  1 31  1  0  0  0  0
  1 32  1  0  0  0  0
  2  3  1  0  0  0  0
  2 33  1  0  0  0  0
  2 34  1  0  0  0  0
  3 29  1  0  0  0  0
  3  4  1  0  0  0  0
  3 35  1  0  0  0  0
  4  5  1  0  0  0  0
  4 36  1  0  0  0  0
  4 37  1  0  0  0  0
  5  6  1  0  0  0  0
  5 23  1  0  0  0  0
  6 11  1  0  0  0  0
  6  7  2  0  0  0  0
  7  8  1  0  0  0  0
  8  9  2  0  0  0  0
  8 38  1  0  0  0  0
  9 10  1  0  0  0  0
 10 14  1  0  0  0  0
 10 11  2  0  0  0  0
 11 12  1  0  0  0  0
 12 13  2  0  0  0  0
 13 14  1  0  0  0  0
 13 39  1  0  0  0  0
 14 15  1  0  0  0  0
 15 16  1  0  0  0  0
 15 40  1  0  0  0  0
 15 41  1  0  0  0  0
 16 17  1  0  0  0  0
 16 18  1  0  0  0  0
 16 42  1  0  0  0  0
 17 43  1  0  0  0  0
 18 22  1  0  0  0  0
 18 19  1  0  0  0  0
 18 44  1  0  0  0  0
 19 20  1  0  0  0  0
 19 45  1  0  0  0  0
 19 46  1  0  0  0  0
 20 21  1  0  0  0  0
 20 47  1  0  0  0  0
 20 48  1  0  0  0  0
 21 22  1  0  0  0  0
 21 49  1  0  0  0  0
 21 50  1  0  0  0  0
 23 24  1  0  0  0  0
 23 51  1  0  0  0  0
 23 52  1  0  0  0  0
 24 28  1  0  0  0  0
 24 25  1  0  0  0  0
 24 29  1  0  0  0  0
 25 26  1  0  0  0  0
 25 53  1  0  0  0  0
 25 54  1  0  0  0  0
 26 27  1  0  0  0  0
 26 55  1  0  0  0  0
 26 56  1  0  0  0  0
 27 28  1  0  0  0  0
 28 57  1  0  0  0  0
 28 58  1  0  0  0  0
M  END
> <s_m_source_file>
AV-unprocessed.smi

> <i_m_source_file_index>
229

> <i_lp_mmshare_version>
43012

> <i_f3d_flags>
0

> <s_epik_input>
W0NIMl0xT1tDSDJdW0NIMl1bQ0BdMTJbQ0gyXU4oW0NIMl1bQ0BIXShPMilbQ0gyXVtDSDNdKWMobltjSF1uMyljKGMzNCluW2NIXW40W0NIMl1bQ0BIXShbT0hdKVtDQEBIXTVbQ0gyXVtDSDJdW0NIMl1PNQ==

> <s_epik_cmdline>
J2VwaWtfcHl0aG9uJywgJy1waCcsICc3LjAnLCAnLXRuJywgJzgnLCAnLW1hJywgJzIwMCcsICctbWV0YWxfYmluZGluZycsICctaW1hZScsICc8aW5maWxlLm1hZT4nLCAnLW9tYWUnLCAnPG91dGZpbGUubWFlPic=

> <r_lp_tautomer_probability>
1

> <r_epik_Ionization_Penalty>
0.00318402

> <r_epik_Ionization_Penalty_Charging>
0

> <r_epik_Ionization_Penalty_Neutral>
0.00318402

> <r_epik_State_Penalty>
0.00215642

> <r_epik_Charging_Adjusted_Penalty>
0.00215642

> <i_epik_Tot_Q>
0

> <i_epik_Tot_abs_Q>
0

> <r_epik_Metal_State_Penalty>
-0

> <b_epik_Metal_Only>
0

> <s_lp_Force_Field>
OPLS_2005

> <r_lp_Energy>
56.4777

> <b_lp_Chiralities_Consistent>
1

> <s_lp_Variant>
AV-unprocessed.smi:229-7

> <Gold.Version>
5.8.1

> <Gold.Id.Protein>
6NUR|6NUR_protein|mol2

> <Gold.PLP.Fitness>
51.4241

> <Gold.PLP.PLP>
-49.7717

> <Gold.PLP.part.hbond>
-3.8209

> <Gold.PLP.part.metal>
0.0000

> <Gold.PLP.part.buried>
-7.5182

> <Gold.PLP.part.nonpolar>
-39.1674

> <Gold.PLP.part.repulsive>
0.0447

> <Gold.PLP.ligand.clash>
0.0000

> <Gold.PLP.ligand.torsion>
1.4754

> <Gold.PLP.Chemscore.Hbond>
1.4140

> <Gold.PLP.Chemscore.CHOScore>
0.0000

> <Gold.PLP.Chemscore.Metal>
0.0000

> <Gold.Chemscore.Hbonds>
donor molecule, donor type, donor heavy atom, donor atom, acceptor molecule, acceptor atom, score
      P1  H  6896  6907       L1    17  0.48
      P1  H  7997  8009       L1     7  0.95

> <Gold.PLP.Chemscore.Internal.Correction>
0.3613

> <Gold.Rescore>
     Score         DG    S(hbond)    S(metal)    S(lipo)     H(rot)  DE(clash)    DE(int)     intcor
     12.27     -16.72       0.98        0.00     121.82       2.46       1.72       2.74       ----

> <Gold.Chemscore.Fitness>
12.2681

> <Gold.Chemscore.DG>
-16.7221

> <Gold.Chemscore.ZeroCoef>
-5.4800

> <Gold.Chemscore.Hbond>
0.9833

> <Gold.Chemscore.Metal>
0.0000

> <Gold.Chemscore.Lipo>
121.8228

> <Gold.Chemscore.Internal_Hbond>
0.0000

> <Gold.Chemscore.DEClash>
1.7160

> <Gold.Chemscore.DEInternal>
2.7381

> <Gold.Chemscore.Rot>
2.4591

> <Gold.Chemscore.Internal.Correction>
   9.000000E+99

> <Gold.Chemscore.Hbonds>
donor molecule, donor type, donor heavy atom, donor atom, acceptor molecule, acceptor atom, score
      P1  H  6896  6907       L1    17  0.12
      P1  H  7997  8009       L1     7  0.21

> <Gold.Chemscore.Hbond.Weighted>
-3.2842

> <Gold.Chemscore.Metal.Weighted>
-0.0000

> <Gold.Chemscore.Lipo.Weighted>
-14.2533

> <Gold.Chemscore.Internal_Hbond.Weighted>
0.0000

> <Gold.Chemscore.DEClash.Weighted>
1.7160

> <Gold.Chemscore.DEInternal.Weighted>
2.7381

> <Gold.Chemscore.Rot.Weighted>
6.2953

> <Gold.Chemscore.Internal.Correction.Weighted>
   9.000000E+99

> <Gold.Protein.RotatedTorsions>
[ 6907 6896 6895 6894 ] final -122.42 input  -60.11 | X-H torsion
[ 7974 7965 7964 7962 ] final   68.12 input  175.53 | X-H torsion
[ 8008 7997 7996 7995 ] final -163.61 input   59.86 | X-H torsion
[ 10167 10162 10161 10158 ] final  -49.99 input  -65.29 | X-H torsion
[ 10718 10713 10712 10709 ] final -155.19 input   66.30 | X-H torsion
[ 10763 10752 10751 10750 ] final   57.06 input  -60.55 | X-H torsion
[ 11005 11000 10999 10996 ] final   54.36 input  -57.11 | X-H torsion

> <Gold.Protein.ActiveResidues>
 VAL166  LYS551  ARG553  GLY616  TRP617  ASP618  TYR619  PRO620  LYS621  CYS622 
 ASP623  PHE694  ASN695  SER759  ASP760  ASP761  ALA762  ILE779  LEU786  VAL792 
 PHE793  MET794  SER795  GLU796  ALA797  LYS798  CYS799  TRP800  GLU811  SER814 

> <Gold.Protein.RotatedAtoms>
  150.8574  133.7695  159.3003 H   0  0  0  0  0  0  0  0  0  0  0  0  # atno 6907 bound_to 6896
  151.5348  135.1067  159.9921 H   0  0  0  0  0  0  0  0  0  0  0  0  # atno 6908 bound_to 6896
  152.4600  133.7759  159.6880 H   0  0  0  0  0  0  0  0  0  0  0  0  # atno 6909 bound_to 6896
  145.8065  139.3009  143.1124 H   0  0  0  0  0  0  0  0  0  0  0  0  # atno 7974 bound_to 7965
  155.8238  140.0923  157.1833 H   0  0  0  0  0  0  0  0  0  0  0  0  # atno 8008 bound_to 7997
  154.3979  140.1432  156.3592 H   0  0  0  0  0  0  0  0  0  0  0  0  # atno 8009 bound_to 7997
  155.8238  140.3445  155.5533 H   0  0  0  0  0  0  0  0  0  0  0  0  # atno 8010 bound_to 7997
  140.6659  143.2675  151.4294 H   0  0  0  0  0  0  0  0  0  0  0  0  # atno 10167 bound_to 10162
  156.5096  130.8428  151.2641 H   0  0  0  0  0  0  0  0  0  0  0  0  # atno 10718 bound_to 10713
  152.9843  135.5654  154.5330 H   0  0  0  0  0  0  0  0  0  0  0  0  # atno 10763 bound_to 10752
  154.4798  135.2788  155.1581 H   0  0  0  0  0  0  0  0  0  0  0  0  # atno 10764 bound_to 10752
  154.3094  135.6291  153.5512 H   0  0  0  0  0  0  0  0  0  0  0  0  # atno 10765 bound_to 10752
  140.0692  134.5493  155.9065 H   0  0  0  0  0  0  0  0  0  0  0  0  # atno 11005 bound_to 11000
  145.9823  140.8672  143.0108 LP  0  0  0  0  0  0  0  0  0  0  0  0  # atno 17320 bound_to 7965
  144.6762  140.2097  143.7378 LP  0  0  0  0  0  0  0  0  0  0  0  0  # atno 17321 bound_to 7965
  139.5908  144.1503  152.2085 LP  0  0  0  0  0  0  0  0  0  0  0  0  # atno 17342 bound_to 10162
  140.0857  144.5663  150.7090 LP  0  0  0  0  0  0  0  0  0  0  0  0  # atno 17343 bound_to 10162
  157.7452  130.9954  150.2743 LP  0  0  0  0  0  0  0  0  0  0  0  0  # atno 17370 bound_to 10713
  156.3254  130.3792  149.7538 LP  0  0  0  0  0  0  0  0  0  0  0  0  # atno 17371 bound_to 10713
  141.2005  133.6613  156.5901 LP  0  0  0  0  0  0  0  0  0  0  0  0  # atno 17394 bound_to 11000
  140.3652  134.7653  157.4561 LP  0  0  0  0  0  0  0  0  0  0  0  0  # atno 17395 bound_to 11000

$$$$
