AV-unprocessed.smi:2877|AV-procd|sdf|11044|dock3
  -GOLD-   2272015513D 1   1.00000     0.00000
 Structure written by MMmdl.
 40 41  0  0  0  0  0  0  0  0  2 V2000
  153.7097  142.2867  161.5271 O   0  0  0  0  0  0  0  0  0  0  0  0
  153.0473  142.0735  160.5051 C   0  0  0  0  0  0  0  0  0  0  0  0
  153.3434  140.8508  159.5923 C   0  0  0  0  0  0  0  0  0  0  0  0
  154.4773  139.8795  160.0109 C   0  0  0  0  0  0  0  0  0  0  0  0
  154.7543  138.9398  158.9264 N   0  5  0  0  0  0  0  0  0  0  0  0
  154.4835  137.6031  158.9815 C   0  0  0  0  0  0  0  0  0  0  0  0
  154.2067  136.8909  159.9539 O   0  0  0  0  0  0  0  0  0  0  0  0
  154.5460  136.9488  157.5848 C   0  0  0  0  0  0  0  0  0  0  0  0
  155.7624  137.1384  157.0658 F   0  0  0  0  0  0  0  0  0  0  0  0
  154.3696  135.6297  157.7093 F   0  0  0  0  0  0  0  0  0  0  0  0
  153.4985  137.5476  156.6455 C   0  0  0  0  0  0  0  0  0  0  0  0
  152.1203  137.4868  156.9566 C   0  0  0  0  0  0  0  0  0  0  0  0
  151.1984  138.0631  156.0622 C   0  0  0  0  0  0  0  0  0  0  0  0
  151.6814  138.6749  154.8904 C   0  0  0  0  0  0  0  0  0  0  0  0
  153.0721  138.6862  154.6667 C   0  0  0  0  0  0  0  0  0  0  0  0
  153.9647  138.1371  155.5176 N   0  0  0  0  0  0  0  0  0  0  0  0
  152.0363  142.9055  160.1448 N   0  0  0  0  0  0  0  0  0  0  0  0
  151.7338  144.1486  160.8685 C   0  0  0  0  0  0  0  0  0  0  0  0
  152.1387  145.3452  159.9876 C   0  0  0  0  0  0  0  0  0  0  0  0
  151.4333  145.2868  158.6191 C   0  0  0  0  0  0  0  0  0  0  0  0
  151.5906  143.9051  157.9559 C   0  0  0  0  0  0  0  0  0  0  0  0
  151.2084  142.7808  158.9357 C   0  0  0  0  0  0  0  0  0  0  0  0
  152.4182  140.2802  159.4996 H   0  0  0  0  0  0  0  0  0  0  0  0
  153.5830  141.2295  158.5976 H   0  0  0  0  0  0  0  0  0  0  0  0
  155.3678  140.4600  160.2544 H   0  0  0  0  0  0  0  0  0  0  0  0
  154.1990  139.3768  160.9385 H   0  0  0  0  0  0  0  0  0  0  0  0
  151.7752  137.0198  157.8671 H   0  0  0  0  0  0  0  0  0  0  0  0
  150.1395  138.0375  156.2725 H   0  0  0  0  0  0  0  0  0  0  0  0
  151.0033  139.1264  154.1816 H   0  0  0  0  0  0  0  0  0  0  0  0
  153.4786  139.1484  153.7794 H   0  0  0  0  0  0  0  0  0  0  0  0
  150.6662  144.1890  161.0892 H   0  0  0  0  0  0  0  0  0  0  0  0
  152.2357  144.2147  161.8346 H   0  0  0  0  0  0  0  0  0  0  0  0
  151.8993  146.2819  160.4916 H   0  0  0  0  0  0  0  0  0  0  0  0
  153.2197  145.3389  159.8417 H   0  0  0  0  0  0  0  0  0  0  0  0
  150.3718  145.4958  158.7578 H   0  0  0  0  0  0  0  0  0  0  0  0
  151.8178  146.0672  157.9619 H   0  0  0  0  0  0  0  0  0  0  0  0
  150.9722  143.8493  157.0597 H   0  0  0  0  0  0  0  0  0  0  0  0
  152.6229  143.7691  157.6304 H   0  0  0  0  0  0  0  0  0  0  0  0
  151.2863  141.8139  158.4418 H   0  0  0  0  0  0  0  0  0  0  0  0
  150.1571  142.8731  159.2125 H   0  0  0  0  0  0  0  0  0  0  0  0
  1  2  2  0  0  0  0
  2  3  1  0  0  0  0
  2 17  1  0  0  0  0
  3  4  1  0  0  0  0
  3 23  1  0  0  0  0
  3 24  1  0  0  0  0
  4  5  1  0  0  0  0
  4 25  1  0  0  0  0
  4 26  1  0  0  0  0
  5  6  1  0  0  0  0
  6  7  2  0  0  0  0
  6  8  1  0  0  0  0
  8  9  1  0  0  0  0
  8 10  1  0  0  0  0
  8 11  1  0  0  0  0
 11 16  1  0  0  0  0
 11 12  2  0  0  0  0
 12 13  1  0  0  0  0
 12 27  1  0  0  0  0
 13 14  2  0  0  0  0
 13 28  1  0  0  0  0
 14 15  1  0  0  0  0
 14 29  1  0  0  0  0
 15 16  2  0  0  0  0
 15 30  1  0  0  0  0
 17 22  1  0  0  0  0
 17 18  1  0  0  0  0
 18 19  1  0  0  0  0
 18 31  1  0  0  0  0
 18 32  1  0  0  0  0
 19 20  1  0  0  0  0
 19 33  1  0  0  0  0
 19 34  1  0  0  0  0
 20 21  1  0  0  0  0
 20 35  1  0  0  0  0
 20 36  1  0  0  0  0
 21 22  1  0  0  0  0
 21 37  1  0  0  0  0
 21 38  1  0  0  0  0
 22 39  1  0  0  0  0
 22 40  1  0  0  0  0
M  CHG  1   5  -1
M  END
> <s_m_source_file>
AV-unprocessed.smi

> <i_m_source_file_index>
2877

> <i_lp_mmshare_version>
43012

> <i_f3d_flags>
0

> <s_epik_input>
W0NIMl0xW0NIMl1bQ0gyXVtDSDJdW0NIMl1OMUMoPU8pW0NIMl1bQ0gyXVtOSF1DKD1PKUMoRikoRiljMltjSF1bY0hdW2NIXVtjSF1uMg==

> <s_epik_cmdline>
J2VwaWtfcHl0aG9uJywgJy1waCcsICc3LjAnLCAnLXRuJywgJzgnLCAnLW1hJywgJzIwMCcsICctbWV0YWxfYmluZGluZycsICctaW1hZScsICc8aW5maWxlLm1hZT4nLCAnLW9tYWUnLCAnPG91dGZpbGUubWFlPic=

> <r_lp_tautomer_probability>
1

> <r_epik_Ionization_Penalty>
5.30743

> <r_epik_Ionization_Penalty_Charging>
5.30743

> <r_epik_Ionization_Penalty_Neutral>
2.29237e-06

> <r_epik_State_Penalty>
5.30735

> <r_epik_Charging_Adjusted_Penalty>
10.6148

> <i_epik_Tot_Q>
-1

> <i_epik_Tot_abs_Q>
1

> <r_epik_Metal_State_Penalty>
1.35027

> <b_epik_Metal_Only>
1

> <s_lp_Force_Field>
OPLS_2005

> <r_lp_Energy>
42.7236

> <b_lp_Chiralities_Consistent>
1

> <s_lp_Variant>
AV-unprocessed.smi:2877-2

> <Gold.Version>
5.8.1

> <Gold.Id.Protein>
6NUR|6NUR_protein|mol2

> <Gold.PLP.Fitness>
48.6171

> <Gold.PLP.PLP>
-42.5684

> <Gold.PLP.part.hbond>
-2.9617

> <Gold.PLP.part.metal>
0.0000

> <Gold.PLP.part.buried>
-5.0762

> <Gold.PLP.part.nonpolar>
-33.4988

> <Gold.PLP.part.repulsive>
0.0113

> <Gold.PLP.ligand.clash>
0.0000

> <Gold.PLP.ligand.torsion>
0.1434

> <Gold.PLP.Chemscore.Hbond>
2.0832

> <Gold.PLP.Chemscore.CHOScore>
0.0000

> <Gold.PLP.Chemscore.Metal>
0.0000

> <Gold.Chemscore.Hbonds>
donor molecule, donor type, donor heavy atom, donor atom, acceptor molecule, acceptor atom, score
      P1  H  7997  8009       L1     5  2.00
      P1  H  7997  8010       L1    16  0.08

> <Gold.PLP.Chemscore.Internal.Correction>
0.0859

> <Gold.Rescore>
     Score         DG    S(hbond)    S(metal)    S(lipo)     H(rot)  DE(clash)    DE(int)     intcor
     16.18     -16.46       0.88        0.00     110.02       1.89       0.04       0.24       ----

> <Gold.Chemscore.Fitness>
16.1791

> <Gold.Chemscore.DG>
-16.4585

> <Gold.Chemscore.ZeroCoef>
-5.4800

> <Gold.Chemscore.Hbond>
0.8793

> <Gold.Chemscore.Metal>
0.0000

> <Gold.Chemscore.Lipo>
110.0208

> <Gold.Chemscore.Internal_Hbond>
0.0000

> <Gold.Chemscore.DEClash>
0.0355

> <Gold.Chemscore.DEInternal>
0.2439

> <Gold.Chemscore.Rot>
1.8871

> <Gold.Chemscore.Internal.Correction>
   9.000000E+99

> <Gold.Chemscore.Hbonds>
donor molecule, donor type, donor heavy atom, donor atom, acceptor molecule, acceptor atom, score
      P1  H  7997  8009       L1     5  0.56

> <Gold.Chemscore.Hbond.Weighted>
-2.9370

> <Gold.Chemscore.Metal.Weighted>
-0.0000

> <Gold.Chemscore.Lipo.Weighted>
-12.8724

> <Gold.Chemscore.Internal_Hbond.Weighted>
0.0000

> <Gold.Chemscore.DEClash.Weighted>
0.0355

> <Gold.Chemscore.DEInternal.Weighted>
0.2439

> <Gold.Chemscore.Rot.Weighted>
4.8309

> <Gold.Chemscore.Internal.Correction.Weighted>
   9.000000E+99

> <Gold.Protein.RotatedTorsions>
[ 6907 6896 6895 6894 ] final   92.72 input  -60.11 | X-H torsion
[ 7974 7965 7964 7962 ] final  140.85 input  175.53 | X-H torsion
[ 8008 7997 7996 7995 ] final  102.07 input   59.86 | X-H torsion
[ 10167 10162 10161 10158 ] final   14.19 input  -65.29 | X-H torsion
[ 10718 10713 10712 10709 ] final -145.42 input   66.30 | X-H torsion
[ 10763 10752 10751 10750 ] final -152.51 input  -60.55 | X-H torsion
[ 11005 11000 10999 10996 ] final   28.96 input  -57.11 | X-H torsion

> <Gold.Protein.ActiveResidues>
 VAL166  LYS551  ARG553  GLY616  TRP617  ASP618  TYR619  PRO620  LYS621  CYS622 
 ASP623  PHE694  ASN695  SER759  ASP760  ASP761  ALA762  ILE779  LEU786  VAL792 
 PHE793  MET794  SER795  GLU796  ALA797  LYS798  CYS799  TRP800  GLU811  SER814 

> <Gold.Protein.RotatedAtoms>
  152.5453  134.1459  159.8497 H   0  0  0  0  0  0  0  0  0  0  0  0  # atno 6907 bound_to 6896
  151.1490  133.4913  159.2603 H   0  0  0  0  0  0  0  0  0  0  0  0  # atno 6908 bound_to 6896
  151.1492  135.0229  159.8715 H   0  0  0  0  0  0  0  0  0  0  0  0  # atno 6909 bound_to 6896
  144.9149  139.5244  143.5691 H   0  0  0  0  0  0  0  0  0  0  0  0  # atno 7974 bound_to 7965
  156.1358  140.3187  155.8419 H   0  0  0  0  0  0  0  0  0  0  0  0  # atno 8008 bound_to 7997
  155.4247  140.0514  157.3040 H   0  0  0  0  0  0  0  0  0  0  0  0  # atno 8009 bound_to 7997
  154.4936  140.2102  155.9508 H   0  0  0  0  0  0  0  0  0  0  0  0  # atno 8010 bound_to 7997
  140.5952  143.8716  150.6911 H   0  0  0  0  0  0  0  0  0  0  0  0  # atno 10167 bound_to 10162
  156.3823  130.7843  151.2037 H   0  0  0  0  0  0  0  0  0  0  0  0  # atno 10718 bound_to 10713
  154.7989  135.3234  154.7598 H   0  0  0  0  0  0  0  0  0  0  0  0  # atno 10763 bound_to 10752
  153.8270  135.6882  153.4824 H   0  0  0  0  0  0  0  0  0  0  0  0  # atno 10764 bound_to 10752
  153.1696  135.4628  154.9826 H   0  0  0  0  0  0  0  0  0  0  0  0  # atno 10765 bound_to 10752
  140.3100  134.2660  155.7736 H   0  0  0  0  0  0  0  0  0  0  0  0  # atno 11005 bound_to 11000
  146.3177  139.7984  142.8970 LP  0  0  0  0  0  0  0  0  0  0  0  0  # atno 17320 bound_to 7965
  145.3392  141.0284  143.3402 LP  0  0  0  0  0  0  0  0  0  0  0  0  # atno 17321 bound_to 7965
  140.2248  143.3781  152.1613 LP  0  0  0  0  0  0  0  0  0  0  0  0  # atno 17342 bound_to 10162
  139.5253  144.7095  151.5251 LP  0  0  0  0  0  0  0  0  0  0  0  0  # atno 17343 bound_to 10162
  157.7493  131.0340  150.4299 LP  0  0  0  0  0  0  0  0  0  0  0  0  # atno 17370 bound_to 10713
  156.4545  130.4018  149.6615 LP  0  0  0  0  0  0  0  0  0  0  0  0  # atno 17371 bound_to 10713
  141.2110  133.7702  156.9894 LP  0  0  0  0  0  0  0  0  0  0  0  0  # atno 17394 bound_to 11000
  140.1033  134.9522  157.1956 LP  0  0  0  0  0  0  0  0  0  0  0  0  # atno 17395 bound_to 11000

$$$$
