AV-unprocessed.smi:159|AV-procd|sdf|1339|dock1
  -GOLD-   2262019 33D 1   1.00000     0.00000
 Structure written by MMmdl.
 28 29  0  0  0  0  0  0  0  0  1 V2000
  150.9353  139.0145  154.7283 N   0  0  0  0  0  0  0  0  0  0  0  0
  151.1676  139.6778  155.8697 C   0  0  0  0  0  0  0  0  0  0  0  0
  150.2780  140.7353  156.2942 C   0  0  0  0  0  0  0  0  0  0  0  0
  150.5767  141.3530  157.4581 C   0  0  0  0  0  0  0  0  0  0  0  0
  151.6759  140.9939  158.2257 N   0  0  0  0  0  0  0  0  0  0  0  0
  151.9884  141.7068  159.5225 C   0  0  1  0  0  0  0  0  0  0  0  0
  153.3593  142.3882  159.4422 C   0  0  0  0  0  0  0  0  0  0  0  0
  152.9791  143.8410  159.2495 C   0  0  0  0  0  0  0  0  0  0  0  0
  151.6736  143.9339  160.0365 C   0  0  1  0  0  0  0  0  0  0  0  0
  150.7909  145.1184  159.6174 C   0  0  0  0  0  0  0  0  0  0  0  0
  150.4203  144.9903  158.2615 O   0  0  0  0  0  0  0  0  0  0  0  0
  151.0286  142.7011  159.7334 O   0  0  0  0  0  0  0  0  0  0  0  0
  152.5414  139.9689  157.7724 C   0  0  0  0  0  0  0  0  0  0  0  0
  153.5494  139.6430  158.3985 O   0  0  0  0  0  0  0  0  0  0  0  0
  152.2210  139.3515  156.5930 N   0  0  0  0  0  0  0  0  0  0  0  0
  151.9134  140.9713  160.3251 H   0  0  0  0  0  0  0  0  0  0  0  0
  151.9028  143.9714  161.1034 H   0  0  0  0  0  0  0  0  0  0  0  0
  151.5601  138.2785  154.4327 H   0  0  0  0  0  0  0  0  0  0  0  0
  150.1349  139.2574  154.1622 H   0  0  0  0  0  0  0  0  0  0  0  0
  149.4073  141.0418  155.7321 H   0  0  0  0  0  0  0  0  0  0  0  0
  149.9263  142.1509  157.7851 H   0  0  0  0  0  0  0  0  0  0  0  0
  153.8745  142.2482  160.3933 H   0  0  0  0  0  0  0  0  0  0  0  0
  153.9792  141.9834  158.6410 H   0  0  0  0  0  0  0  0  0  0  0  0
  153.7421  144.5317  159.6095 H   0  0  0  0  0  0  0  0  0  0  0  0
  152.8059  144.0452  158.1920 H   0  0  0  0  0  0  0  0  0  0  0  0
  149.8734  145.1284  160.2065 H   0  0  0  0  0  0  0  0  0  0  0  0
  151.2955  146.0701  159.7866 H   0  0  0  0  0  0  0  0  0  0  0  0
  149.5836  145.4116  158.1371 H   0  0  0  0  0  0  0  0  0  0  0  0
  1  2  1  0  0  0  0
  1 18  1  0  0  0  0
  1 19  1  0  0  0  0
  2 15  2  0  0  0  0
  2  3  1  0  0  0  0
  3  4  2  0  0  0  0
  3 20  1  0  0  0  0
  4  5  1  0  0  0  0
  4 21  1  0  0  0  0
  5  6  1  0  0  0  0
  5 13  1  0  0  0  0
  6 16  1  0  0  0  0
  6 12  1  0  0  0  0
  6  7  1  0  0  0  0
  7  8  1  0  0  0  0
  7 22  1  0  0  0  0
  7 23  1  0  0  0  0
  8  9  1  0  0  0  0
  8 24  1  0  0  0  0
  8 25  1  0  0  0  0
  9 17  1  0  0  0  0
  9 10  1  0  0  0  0
  9 12  1  0  0  0  0
 10 11  1  0  0  0  0
 10 26  1  0  0  0  0
 10 27  1  0  0  0  0
 11 28  1  0  0  0  0
 13 14  2  0  0  0  0
 13 15  1  0  0  0  0
M  END
> <s_m_source_file>
AV-unprocessed.smi

> <i_m_source_file_index>
159

> <i_lp_mmshare_version>
43012

> <i_f3d_flags>
0

> <s_epik_input>
W05IMl1jMVtjSF1bY0hdbihjKD1PKW4xKVtDQEhdMltDSDJdW0NIMl1bQ0BIXShPMilbQ0gyXVtPSF0=

> <s_epik_cmdline>
J2VwaWtfcHl0aG9uJywgJy1waCcsICc3LjAnLCAnLXRuJywgJzgnLCAnLW1hJywgJzIwMCcsICctbWV0YWxfYmluZGluZycsICctaW1hZScsICc8aW5maWxlLm1hZT4nLCAnLW9tYWUnLCAnPG91dGZpbGUubWFlPic=

> <r_lp_tautomer_probability>
0.99996

> <r_epik_Ionization_Penalty>
0.00126102

> <r_epik_Ionization_Penalty_Charging>
4.46248e-08

> <r_epik_Ionization_Penalty_Neutral>
0.00126097

> <r_epik_State_Penalty>
1.15523e-05

> <r_epik_Charging_Adjusted_Penalty>
1.1597e-05

> <i_epik_Tot_Q>
0

> <i_epik_Tot_abs_Q>
0

> <r_epik_Metal_State_Penalty>
-0

> <b_epik_Metal_Only>
0

> <s_epik_Chemistry_Notes>
This compound contains an acetal/aminal-like group ( X-CH(R)-Y where X, Y are N, S, or O) that may be acid/base labile, releasing an aldehyde.

> <s_lp_Force_Field>
OPLS_2005

> <r_lp_Energy>
25.8801

> <b_lp_Chiralities_Consistent>
1

> <s_lp_Variant>
AV-unprocessed.smi:159-1

> <Gold.Version>
5.8.1

> <Gold.Id.Protein>
6NUR|6NUR_protein|mol2

> <Gold.PLP.Fitness>
35.8892

> <Gold.PLP.PLP>
-29.9045

> <Gold.PLP.part.hbond>
-3.9764

> <Gold.PLP.part.metal>
0.0000

> <Gold.PLP.part.buried>
-4.3318

> <Gold.PLP.part.nonpolar>
-22.6352

> <Gold.PLP.part.repulsive>
0.1004

> <Gold.PLP.ligand.clash>
0.0000

> <Gold.PLP.ligand.torsion>
0.0144

> <Gold.PLP.Chemscore.Hbond>
2.0000

> <Gold.PLP.Chemscore.CHOScore>
0.0000

> <Gold.PLP.Chemscore.Metal>
0.0000

> <Gold.Chemscore.Hbonds>
donor molecule, donor type, donor heavy atom, donor atom, acceptor molecule, acceptor atom, score
      L1  H    11    28       P1  8029  1.00
      P1  H  7997  8008       L1    14  0.75

> <Gold.PLP.Chemscore.Internal.Correction>
0.0135

> <Gold.Rescore>
     Score         DG    S(hbond)    S(metal)    S(lipo)     H(rot)  DE(clash)    DE(int)     intcor
     11.00     -12.27       1.72        0.00      54.68       2.09       0.01       1.26       ----

> <Gold.Chemscore.Fitness>
11.0014

> <Gold.Chemscore.DG>
-12.2680

> <Gold.Chemscore.ZeroCoef>
-5.4800

> <Gold.Chemscore.Hbond>
1.7215

> <Gold.Chemscore.Metal>
0.0000

> <Gold.Chemscore.Lipo>
54.6809

> <Gold.Chemscore.Internal_Hbond>
0.0000

> <Gold.Chemscore.DEClash>
0.0103

> <Gold.Chemscore.DEInternal>
1.2562

> <Gold.Chemscore.Rot>
2.0935

> <Gold.Chemscore.Internal.Correction>
   9.000000E+99

> <Gold.Chemscore.Hbonds>
donor molecule, donor type, donor heavy atom, donor atom, acceptor molecule, acceptor atom, score
      L1  H    11    28       P1  8029  0.39
      P1  H  7997  8008       L1    14  0.09

> <Gold.Chemscore.Hbond.Weighted>
-5.7497

> <Gold.Chemscore.Metal.Weighted>
-0.0000

> <Gold.Chemscore.Lipo.Weighted>
-6.3977

> <Gold.Chemscore.Internal_Hbond.Weighted>
0.0000

> <Gold.Chemscore.DEClash.Weighted>
0.0103

> <Gold.Chemscore.DEInternal.Weighted>
1.2562

> <Gold.Chemscore.Rot.Weighted>
5.3594

> <Gold.Chemscore.Internal.Correction.Weighted>
   9.000000E+99

> <Gold.Protein.RotatedTorsions>
[ 6907 6896 6895 6894 ] final  -30.39 input  -60.11 | X-H torsion
[ 7974 7965 7964 7962 ] final    1.25 input  175.53 | X-H torsion
[ 8008 7997 7996 7995 ] final  -91.10 input   59.86 | X-H torsion
[ 10167 10162 10161 10158 ] final    7.05 input  -65.29 | X-H torsion
[ 10718 10713 10712 10709 ] final   13.82 input   66.30 | X-H torsion
[ 10763 10752 10751 10750 ] final   68.73 input  -60.55 | X-H torsion
[ 11005 11000 10999 10996 ] final  -96.08 input  -57.11 | X-H torsion

> <Gold.Protein.ActiveResidues>
 VAL166  LYS551  ARG553  GLY616  TRP617  ASP618  TYR619  PRO620  LYS621  CYS622 
 ASP623  PHE694  ASN695  SER759  ASP760  ASP761  ALA762  ILE779  LEU786  VAL792 
 PHE793  MET794  SER795  GLU796  ALA797  LYS798  CYS799  TRP800  GLU811  SER814 

> <Gold.Protein.RotatedAtoms>
  151.1062  135.0001  159.8471 H   0  0  0  0  0  0  0  0  0  0  0  0  # atno 6907 bound_to 6896
  152.5440  134.1891  159.8676 H   0  0  0  0  0  0  0  0  0  0  0  0  # atno 6908 bound_to 6896
  151.1937  133.4607  159.2628 H   0  0  0  0  0  0  0  0  0  0  0  0  # atno 6909 bound_to 6896
  146.2439  140.1014  142.8347 H   0  0  0  0  0  0  0  0  0  0  0  0  # atno 7974 bound_to 7965
  154.7066  140.0523  157.0510 H   0  0  0  0  0  0  0  0  0  0  0  0  # atno 8008 bound_to 7997
  155.0612  140.3189  155.4641 H   0  0  0  0  0  0  0  0  0  0  0  0  # atno 8009 bound_to 7997
  156.2776  140.2098  156.5739 H   0  0  0  0  0  0  0  0  0  0  0  0  # atno 8010 bound_to 7997
  140.6393  143.7811  150.7405 H   0  0  0  0  0  0  0  0  0  0  0  0  # atno 10167 bound_to 10162
  157.0302  130.6190  149.5734 H   0  0  0  0  0  0  0  0  0  0  0  0  # atno 10718 bound_to 10713
  153.0250  135.5236  154.7180 H   0  0  0  0  0  0  0  0  0  0  0  0  # atno 10763 bound_to 10752
  154.6243  135.2892  155.0292 H   0  0  0  0  0  0  0  0  0  0  0  0  # atno 10764 bound_to 10752
  154.1267  135.6599  153.4966 H   0  0  0  0  0  0  0  0  0  0  0  0  # atno 10765 bound_to 10752
  141.1422  133.8072  157.0522 H   0  0  0  0  0  0  0  0  0  0  0  0  # atno 11005 bound_to 11000
  145.0565  140.9056  143.4964 LP  0  0  0  0  0  0  0  0  0  0  0  0  # atno 17320 bound_to 7965
  145.1122  139.2749  143.5631 LP  0  0  0  0  0  0  0  0  0  0  0  0  # atno 17321 bound_to 7965
  140.1439  143.4417  152.2175 LP  0  0  0  0  0  0  0  0  0  0  0  0  # atno 17342 bound_to 10162
  139.5603  144.7401  151.4175 LP  0  0  0  0  0  0  0  0  0  0  0  0  # atno 17343 bound_to 10162
  156.0072  130.5160  150.7869 LP  0  0  0  0  0  0  0  0  0  0  0  0  # atno 17370 bound_to 10713
  157.5183  131.0930  151.0111 LP  0  0  0  0  0  0  0  0  0  0  0  0  # atno 17371 bound_to 10713
  140.0624  134.9747  157.1328 LP  0  0  0  0  0  0  0  0  0  0  0  0  # atno 17394 bound_to 11000
  140.3828  134.2268  155.7170 LP  0  0  0  0  0  0  0  0  0  0  0  0  # atno 17395 bound_to 11000

$$$$
