AV-unprocessed.smi:1674|AV-procd|sdf|6714|dock6
  -GOLD-   22720 7463D 1   1.00000     0.00000
 Structure written by MMmdl.
 47 48  0  0  0  0  0  0  0  0  1 V2000
  145.9815  143.4466  153.6688 C   0  0  0  0  0  0  0  0  0  0  0  0
  146.2589  142.4339  154.7465 C   0  0  0  0  0  0  0  0  0  0  0  0
  146.9815  141.4158  154.4138 N   0  0  0  0  0  0  0  0  0  0  0  0
  147.3096  140.4358  155.3306 N   0  0  0  0  0  0  0  0  0  0  0  0
  148.1908  139.3853  154.8010 C   0  0  0  0  0  0  0  0  0  0  0  0
  149.6421  139.8739  154.5824 C   0  0  1  0  0  0  0  0  0  0  0  0
  149.6680  140.7024  153.4381 O   0  0  0  0  0  0  0  0  0  0  0  0
  150.2239  140.5662  155.8087 C   0  0  0  0  0  0  0  0  0  0  0  0
  149.6019  141.7214  156.3283 C   0  0  0  0  0  0  0  0  0  0  0  0
  150.1535  142.3864  157.4398 C   0  0  0  0  0  0  0  0  0  0  0  0
  151.3310  141.9000  158.0447 C   0  0  0  0  0  0  0  0  0  0  0  0
  151.9282  142.6146  159.2449 C   0  0  0  0  0  0  0  0  0  0  0  0
  151.8929  144.1522  159.1256 C   0  0  0  0  0  0  0  0  0  0  0  0
  152.8400  144.6782  158.0337 C   0  0  0  0  0  0  0  0  0  0  0  0
  152.2000  144.8116  160.4783 C   0  0  0  0  0  0  0  0  0  0  0  0
  151.9546  140.7460  157.5271 C   0  0  0  0  0  0  0  0  0  0  0  0
  151.4042  140.0826  156.4139 C   0  0  0  0  0  0  0  0  0  0  0  0
  146.9018  140.4216  156.6312 C   0  0  0  0  0  0  0  0  0  0  0  0
  147.2157  139.5234  157.4136 O   0  0  0  0  0  0  0  0  0  0  0  0
  146.0765  141.5742  156.9998 C   0  0  0  0  0  0  0  0  0  0  0  0
  145.6339  141.6029  158.3566 C   0  0  0  0  0  0  0  0  0  0  0  0
  145.2946  141.6279  159.4632 N   0  0  0  0  0  0  0  0  0  0  0  0
  145.7602  142.5507  156.1129 C   0  0  0  0  0  0  0  0  0  0  0  0
  144.9130  143.7709  156.4459 C   0  0  0  0  0  0  0  0  0  0  0  0
  144.9097  143.5428  153.4951 H   0  0  0  0  0  0  0  0  0  0  0  0
  146.4450  143.1694  152.7206 H   0  0  0  0  0  0  0  0  0  0  0  0
  146.3693  144.4257  153.9501 H   0  0  0  0  0  0  0  0  0  0  0  0
  148.1803  138.5172  155.4626 H   0  0  0  0  0  0  0  0  0  0  0  0
  147.7874  139.0261  153.8517 H   0  0  0  0  0  0  0  0  0  0  0  0
  150.2703  139.0131  154.3504 H   0  0  0  0  0  0  0  0  0  0  0  0
  149.5066  140.1654  152.6773 H   0  0  0  0  0  0  0  0  0  0  0  0
  148.7042  142.1087  155.8689 H   0  0  0  0  0  0  0  0  0  0  0  0
  149.6683  143.2704  157.8271 H   0  0  0  0  0  0  0  0  0  0  0  0
  151.3735  142.3010  160.1303 H   0  0  0  0  0  0  0  0  0  0  0  0
  152.9538  142.2751  159.3972 H   0  0  0  0  0  0  0  0  0  0  0  0
  150.8784  144.4450  158.8518 H   0  0  0  0  0  0  0  0  0  0  0  0
  153.8726  144.3899  158.2333 H   0  0  0  0  0  0  0  0  0  0  0  0
  152.8041  145.7664  157.9746 H   0  0  0  0  0  0  0  0  0  0  0  0
  152.5707  144.2937  157.0499 H   0  0  0  0  0  0  0  0  0  0  0  0
  153.2033  144.5595  160.8234 H   0  0  0  0  0  0  0  0  0  0  0  0
  151.4938  144.4880  161.2436 H   0  0  0  0  0  0  0  0  0  0  0  0
  152.1343  145.8980  160.4112 H   0  0  0  0  0  0  0  0  0  0  0  0
  152.8584  140.3676  157.9820 H   0  0  0  0  0  0  0  0  0  0  0  0
  151.8963  139.2052  156.0203 H   0  0  0  0  0  0  0  0  0  0  0  0
  144.5789  143.7718  157.4829 H   0  0  0  0  0  0  0  0  0  0  0  0
  144.0237  143.8030  155.8157 H   0  0  0  0  0  0  0  0  0  0  0  0
  145.4824  144.6869  156.2848 H   0  0  0  0  0  0  0  0  0  0  0  0
  1  2  1  0  0  0  0
  1 25  1  0  0  0  0
  1 26  1  0  0  0  0
  1 27  1  0  0  0  0
  2 23  1  0  0  0  0
  2  3  2  0  0  0  0
  3  4  1  0  0  0  0
  4  5  1  0  0  0  0
  4 18  1  0  0  0  0
  5  6  1  0  0  0  0
  5 28  1  0  0  0  0
  5 29  1  0  0  0  0
  6  7  1  0  0  0  0
  6  8  1  0  0  0  0
  6 30  1  0  0  0  0
  7 31  1  0  0  0  0
  8 17  1  0  0  0  0
  8  9  2  0  0  0  0
  9 10  1  0  0  0  0
  9 32  1  0  0  0  0
 10 11  2  0  0  0  0
 10 33  1  0  0  0  0
 11 12  1  0  0  0  0
 11 16  1  0  0  0  0
 12 13  1  0  0  0  0
 12 34  1  0  0  0  0
 12 35  1  0  0  0  0
 13 14  1  0  0  0  0
 13 15  1  0  0  0  0
 13 36  1  0  0  0  0
 14 37  1  0  0  0  0
 14 38  1  0  0  0  0
 14 39  1  0  0  0  0
 15 40  1  0  0  0  0
 15 41  1  0  0  0  0
 15 42  1  0  0  0  0
 16 17  2  0  0  0  0
 16 43  1  0  0  0  0
 17 44  1  0  0  0  0
 18 19  2  0  0  0  0
 18 20  1  0  0  0  0
 20 21  1  0  0  0  0
 20 23  2  0  0  0  0
 21 22  3  0  0  0  0
 23 24  1  0  0  0  0
 24 45  1  0  0  0  0
 24 46  1  0  0  0  0
 24 47  1  0  0  0  0
M  END
> <s_m_source_file>
AV-unprocessed.smi

> <i_m_source_file_index>
1674

> <i_lp_mmshare_version>
43012

> <i_f3d_flags>
0

> <s_epik_input>
TiNDYyhjMVtDSDNdKWMoPU8pbihuYzFbQ0gzXSlbQ0gyXVtDQEhdKFtPSF0pYzJbY0hdW2NIXWMoW2NIXVtjSF0yKVtDSDJdW0NIXShbQ0gzXSlbQ0gzXQ==

> <s_epik_cmdline>
J2VwaWtfcHl0aG9uJywgJy1waCcsICc3LjAnLCAnLXRuJywgJzgnLCAnLW1hJywgJzIwMCcsICctbWV0YWxfYmluZGluZycsICctaW1hZScsICc8aW5maWxlLm1hZT4nLCAnLW9tYWUnLCAnPG91dGZpbGUubWFlPic=

> <r_lp_tautomer_probability>
1

> <r_epik_Ionization_Penalty>
4.60566e-08

> <r_epik_Ionization_Penalty_Charging>
1.40848e-10

> <r_epik_Ionization_Penalty_Neutral>
4.59158e-08

> <r_epik_State_Penalty>
-0

> <r_epik_Charging_Adjusted_Penalty>
1.40848e-10

> <i_epik_Tot_Q>
0

> <i_epik_Tot_abs_Q>
0

> <r_epik_Metal_State_Penalty>
-0

> <b_epik_Metal_Only>
0

> <s_lp_Force_Field>
OPLS_2005

> <r_lp_Energy>
26.1271

> <b_lp_Chiralities_Consistent>
1

> <s_lp_Variant>
AV-unprocessed.smi:1674-2

> <Gold.Version>
5.8.1

> <Gold.Id.Protein>
6NUR|6NUR_protein|mol2

> <Gold.PLP.Fitness>
51.0712

> <Gold.PLP.PLP>
-43.7721

> <Gold.PLP.part.hbond>
-3.4629

> <Gold.PLP.part.metal>
0.0000

> <Gold.PLP.part.buried>
-6.3718

> <Gold.PLP.part.nonpolar>
-34.3438

> <Gold.PLP.part.repulsive>
0.1342

> <Gold.PLP.ligand.clash>
0.0000

> <Gold.PLP.ligand.torsion>
0.5620

> <Gold.PLP.Chemscore.Hbond>
2.7688

> <Gold.PLP.Chemscore.CHOScore>
0.0000

> <Gold.PLP.Chemscore.Metal>
0.0000

> <Gold.Chemscore.Hbonds>
donor molecule, donor type, donor heavy atom, donor atom, acceptor molecule, acceptor atom, score
      L1  H     7    31       P1  7957  0.92
      P1  H  6934  6946       L1    22  0.65
      P1  H  7989  7998       L1     7  0.25
      P1  H  8011  8017       L1     7  0.63

> <Gold.PLP.Chemscore.Internal.Correction>
0.1167

> <Gold.Rescore>
     Score         DG    S(hbond)    S(metal)    S(lipo)     H(rot)  DE(clash)    DE(int)     intcor
     15.94     -19.18       1.66        0.00     116.27       2.13       0.35       2.89       ----

> <Gold.Chemscore.Fitness>
15.9435

> <Gold.Chemscore.DG>
-19.1833

> <Gold.Chemscore.ZeroCoef>
-5.4800

> <Gold.Chemscore.Hbond>
1.6623

> <Gold.Chemscore.Metal>
0.0000

> <Gold.Chemscore.Lipo>
116.2709

> <Gold.Chemscore.Internal_Hbond>
0.0000

> <Gold.Chemscore.DEClash>
0.3527

> <Gold.Chemscore.DEInternal>
2.8871

> <Gold.Chemscore.Rot>
2.1299

> <Gold.Chemscore.Internal.Correction>
   9.000000E+99

> <Gold.Chemscore.Hbonds>
donor molecule, donor type, donor heavy atom, donor atom, acceptor molecule, acceptor atom, score
      L1  H     7    31       P1  7957  0.83
      P1  H  6934  6946       L1    22  0.43
      P1  H  7989  7998       L1     7  0.01
      P1  H  8011  8017       L1     7  0.05

> <Gold.Chemscore.Hbond.Weighted>
-5.5522

> <Gold.Chemscore.Metal.Weighted>
-0.0000

> <Gold.Chemscore.Lipo.Weighted>
-13.6037

> <Gold.Chemscore.Internal_Hbond.Weighted>
0.0000

> <Gold.Chemscore.DEClash.Weighted>
0.3527

> <Gold.Chemscore.DEInternal.Weighted>
2.8871

> <Gold.Chemscore.Rot.Weighted>
5.4526

> <Gold.Chemscore.Internal.Correction.Weighted>
   9.000000E+99

> <Gold.Protein.RotatedTorsions>
[ 6907 6896 6895 6894 ] final   14.20 input  -60.11 | X-H torsion
[ 7974 7965 7964 7962 ] final    3.71 input  175.53 | X-H torsion
[ 8008 7997 7996 7995 ] final  121.87 input   59.86 | X-H torsion
[ 10167 10162 10161 10158 ] final -135.89 input  -65.29 | X-H torsion
[ 10718 10713 10712 10709 ] final  -24.39 input   66.30 | X-H torsion
[ 10763 10752 10751 10750 ] final   -7.07 input  -60.55 | X-H torsion
[ 11005 11000 10999 10996 ] final   11.65 input  -57.11 | X-H torsion

> <Gold.Protein.ActiveResidues>
 VAL166  LYS551  ARG553  GLY616  TRP617  ASP618  TYR619  PRO620  LYS621  CYS622 
 ASP623  PHE694  ASN695  SER759  ASP760  ASP761  ALA762  ILE779  LEU786  VAL792 
 PHE793  MET794  SER795  GLU796  ALA797  LYS798  CYS799  TRP800  GLU811  SER814 

> <Gold.Protein.RotatedAtoms>
  151.7985  135.0716  160.0396 H   0  0  0  0  0  0  0  0  0  0  0  0  # atno 6907 bound_to 6896
  152.3106  133.5744  159.5687 H   0  0  0  0  0  0  0  0  0  0  0  0  # atno 6908 bound_to 6896
  150.7318  134.0074  159.3700 H   0  0  0  0  0  0  0  0  0  0  0  0  # atno 6909 bound_to 6896
  146.2445  140.0644  142.8366 H   0  0  0  0  0  0  0  0  0  0  0  0  # atno 7974 bound_to 7965
  156.2704  140.2798  156.1377 H   0  0  0  0  0  0  0  0  0  0  0  0  # atno 8008 bound_to 7997
  155.0987  140.0389  157.2708 H   0  0  0  0  0  0  0  0  0  0  0  0  # atno 8009 bound_to 7997
  154.6833  140.2613  155.6892 H   0  0  0  0  0  0  0  0  0  0  0  0  # atno 8010 bound_to 7997
  139.8733  143.6930  152.2637 H   0  0  0  0  0  0  0  0  0  0  0  0  # atno 10167 bound_to 10162
  156.4783  130.4539  149.6827 H   0  0  0  0  0  0  0  0  0  0  0  0  # atno 10718 bound_to 10713
  153.4212  135.7010  153.6293 H   0  0  0  0  0  0  0  0  0  0  0  0  # atno 10763 bound_to 10752
  153.4747  135.3707  155.2410 H   0  0  0  0  0  0  0  0  0  0  0  0  # atno 10764 bound_to 10752
  154.8722  135.4051  154.3580 H   0  0  0  0  0  0  0  0  0  0  0  0  # atno 10765 bound_to 10752
  140.5008  134.0747  155.7793 H   0  0  0  0  0  0  0  0  0  0  0  0  # atno 11005 bound_to 11000
  145.0872  140.9260  143.4791 LP  0  0  0  0  0  0  0  0  0  0  0  0  # atno 17320 bound_to 7965
  145.0809  139.2961  143.5784 LP  0  0  0  0  0  0  0  0  0  0  0  0  # atno 17321 bound_to 7965
  139.7264  144.7592  151.0872 LP  0  0  0  0  0  0  0  0  0  0  0  0  # atno 17342 bound_to 10162
  140.7757  143.5143  150.9614 LP  0  0  0  0  0  0  0  0  0  0  0  0  # atno 17343 bound_to 10162
  156.3547  130.7450  151.2415 LP  0  0  0  0  0  0  0  0  0  0  0  0  # atno 17370 bound_to 10713
  157.7485  131.0367  150.4422 LP  0  0  0  0  0  0  0  0  0  0  0  0  # atno 17371 bound_to 10713
  141.1436  133.9094  157.2268 LP  0  0  0  0  0  0  0  0  0  0  0  0  # atno 17394 bound_to 11000
  139.9714  135.0127  156.9522 LP  0  0  0  0  0  0  0  0  0  0  0  0  # atno 17395 bound_to 11000

$$$$
