AV-unprocessed.smi:521|AV-procd|sdf|2800|dock6
  -GOLD-   2262023273D 1   1.00000     0.00000
 Structure written by MMmdl.
 41 43  0  0  0  0  0  0  0  0  2 V2000
  155.0761  140.3401  161.0405 C   0  0  0  0  0  0  0  0  0  0  0  0
  154.2531  140.3424  159.8833 O   0  0  0  0  0  0  0  0  0  0  0  0
  153.3445  141.3692  159.7281 C   0  0  0  0  0  0  0  0  0  0  0  0
  153.2687  142.4879  160.5965 C   0  0  0  0  0  0  0  0  0  0  0  0
  152.3148  143.4982  160.3788 C   0  0  0  0  0  0  0  0  0  0  0  0
  151.4280  143.4044  159.2932 C   0  0  0  0  0  0  0  0  0  0  0  0
  151.4941  142.2999  158.4249 C   0  0  0  0  0  0  0  0  0  0  0  0
  152.4503  141.2740  158.6362 C   0  0  0  0  0  0  0  0  0  0  0  0
  152.5688  140.1615  157.8287 O   0  0  0  0  0  0  0  0  0  0  0  0
  151.4065  139.6691  157.1790 C   0  0  0  0  0  0  0  0  0  0  0  0
  151.2817  140.3651  155.8187 C   0  0  0  0  0  0  0  0  0  0  0  0
  150.3157  139.6871  154.9454 N   0  0  0  0  0  0  0  0  0  0  0  0
  150.3199  138.4178  154.4469 C   0  0  0  0  0  0  0  0  0  0  0  0
  151.3623  137.3729  154.6885 C   0  0  0  0  0  0  0  0  0  0  0  0
  152.2204  137.1740  153.5844 O   0  0  0  0  0  0  0  0  0  0  0  0
  149.1937  138.2812  153.6893 N   0  3  0  0  0  0  0  0  0  0  0  0
  148.4611  139.4686  153.7102 C   0  0  0  0  0  0  0  0  0  0  0  0
  147.2579  139.8090  153.1000 C   0  0  0  0  0  0  0  0  0  0  0  0
  146.7775  141.1145  153.3335 C   0  0  0  0  0  0  0  0  0  0  0  0
  147.4861  142.0236  154.1459 C   0  0  0  0  0  0  0  0  0  0  0  0
  148.7063  141.6676  154.7576 C   0  0  0  0  0  0  0  0  0  0  0  0
  149.1748  140.3758  154.5198 C   0  0  0  0  0  0  0  0  0  0  0  0
  155.7218  139.4624  161.0202 H   0  0  0  0  0  0  0  0  0  0  0  0
  154.4807  140.2886  161.9531 H   0  0  0  0  0  0  0  0  0  0  0  0
  155.7184  141.2211  161.0754 H   0  0  0  0  0  0  0  0  0  0  0  0
  153.9332  142.5953  161.4400 H   0  0  0  0  0  0  0  0  0  0  0  0
  152.2638  144.3459  161.0461 H   0  0  0  0  0  0  0  0  0  0  0  0
  150.6956  144.1806  159.1258 H   0  0  0  0  0  0  0  0  0  0  0  0
  150.7968  142.2637  157.6022 H   0  0  0  0  0  0  0  0  0  0  0  0
  151.4833  138.5907  157.0315 H   0  0  0  0  0  0  0  0  0  0  0  0
  150.5216  139.8708  157.7845 H   0  0  0  0  0  0  0  0  0  0  0  0
  150.9878  141.4088  155.9340 H   0  0  0  0  0  0  0  0  0  0  0  0
  152.2459  140.3695  155.3094 H   0  0  0  0  0  0  0  0  0  0  0  0
  151.9592  137.6582  155.5549 H   0  0  0  0  0  0  0  0  0  0  0  0
  150.8724  136.4284  154.9277 H   0  0  0  0  0  0  0  0  0  0  0  0
  151.6914  136.9866  152.8236 H   0  0  0  0  0  0  0  0  0  0  0  0
  146.7123  139.1136  152.4790 H   0  0  0  0  0  0  0  0  0  0  0  0
  145.8463  141.4240  152.8815 H   0  0  0  0  0  0  0  0  0  0  0  0
  147.0857  143.0147  154.3035 H   0  0  0  0  0  0  0  0  0  0  0  0
  149.2407  142.3705  155.3795 H   0  0  0  0  0  0  0  0  0  0  0  0
  148.9482  137.4299  153.1998 H   0  0  0  0  0  0  0  0  0  0  0  0
  1  2  1  0  0  0  0
  1 23  1  0  0  0  0
  1 24  1  0  0  0  0
  1 25  1  0  0  0  0
  2  3  1  0  0  0  0
  3  8  1  0  0  0  0
  3  4  2  0  0  0  0
  4  5  1  0  0  0  0
  4 26  1  0  0  0  0
  5  6  2  0  0  0  0
  5 27  1  0  0  0  0
  6  7  1  0  0  0  0
  6 28  1  0  0  0  0
  7  8  2  0  0  0  0
  7 29  1  0  0  0  0
  8  9  1  0  0  0  0
  9 10  1  0  0  0  0
 10 11  1  0  0  0  0
 10 30  1  0  0  0  0
 10 31  1  0  0  0  0
 11 12  1  0  0  0  0
 11 32  1  0  0  0  0
 11 33  1  0  0  0  0
 12 22  1  0  0  0  0
 12 13  1  0  0  0  0
 13 14  1  0  0  0  0
 13 16  2  0  0  0  0
 14 15  1  0  0  0  0
 14 34  1  0  0  0  0
 14 35  1  0  0  0  0
 15 36  1  0  0  0  0
 16 17  1  0  0  0  0
 16 41  1  0  0  0  0
 17 22  2  0  0  0  0
 17 18  1  0  0  0  0
 18 19  2  0  0  0  0
 18 37  1  0  0  0  0
 19 20  1  0  0  0  0
 19 38  1  0  0  0  0
 20 21  2  0  0  0  0
 20 39  1  0  0  0  0
 21 22  1  0  0  0  0
 21 40  1  0  0  0  0
M  CHG  1  16   1
M  END
> <s_m_source_file>
AV-unprocessed.smi

> <i_m_source_file_index>
521

> <i_lp_mmshare_version>
43012

> <i_f3d_flags>
0

> <s_epik_input>
W0NIM11PYzFbY0hdW2NIXVtjSF1bY0hdYzFPW0NIMl1bQ0gyXW4oYyhuMilbQ0gyXVtPSF0pYyhjMjMpW2NIXVtjSF1bY0hdW2NIXTM=

> <s_epik_cmdline>
J2VwaWtfcHl0aG9uJywgJy1waCcsICc3LjAnLCAnLXRuJywgJzgnLCAnLW1hJywgJzIwMCcsICctbWV0YWxfYmluZGluZycsICctaW1hZScsICc8aW5maWxlLm1hZT4nLCAnLW9tYWUnLCAnPG91dGZpbGUubWFlPic=

> <r_lp_tautomer_probability>
1

> <r_epik_Ionization_Penalty>
1.50718

> <r_epik_Ionization_Penalty_Charging>
1.50632

> <r_epik_Ionization_Penalty_Neutral>
0.000855784

> <r_epik_State_Penalty>
1.59697

> <r_epik_Charging_Adjusted_Penalty>
3.1033

> <i_epik_Tot_Q>
1

> <i_epik_Tot_abs_Q>
1

> <r_epik_Metal_State_Penalty>
5.64835

> <b_epik_Metal_Only>
0

> <s_lp_Force_Field>
OPLS_2005

> <r_lp_Energy>
22.6327

> <b_lp_Chiralities_Consistent>
1

> <s_lp_Variant>
AV-unprocessed.smi:521-2

> <Gold.Version>
5.8.1

> <Gold.Id.Protein>
6NUR|6NUR_protein|mol2

> <Gold.PLP.Fitness>
62.9960

> <Gold.PLP.PLP>
-49.6340

> <Gold.PLP.part.hbond>
-4.7326

> <Gold.PLP.part.metal>
0.0000

> <Gold.PLP.part.buried>
0.4265

> <Gold.PLP.part.nonpolar>
-44.6651

> <Gold.PLP.part.repulsive>
0.0465

> <Gold.PLP.ligand.clash>
0.0000

> <Gold.PLP.ligand.torsion>
0.8499

> <Gold.PLP.Chemscore.Hbond>
4.9913

> <Gold.PLP.Chemscore.CHOScore>
0.0000

> <Gold.PLP.Chemscore.Metal>
0.0000

> <Gold.Chemscore.Hbonds>
donor molecule, donor type, donor heavy atom, donor atom, acceptor molecule, acceptor atom, score
      L1  H    15    36       P1  7949  1.00
      L1  H    16    41       P1  7948  2.00
      P1  H  7997  8008       L1     9  0.75
      P1  H 10752 10765       L1    15  1.00

> <Gold.PLP.Chemscore.Internal.Correction>
0.0880

> <Gold.Rescore>
     Score         DG    S(hbond)    S(metal)    S(lipo)     H(rot)  DE(clash)    DE(int)     intcor
     23.78     -24.78       3.12        0.00     131.56       2.54       0.13       0.87       ----

> <Gold.Chemscore.Fitness>
23.7750

> <Gold.Chemscore.DG>
-24.7764

> <Gold.Chemscore.ZeroCoef>
-5.4800

> <Gold.Chemscore.Hbond>
3.1181

> <Gold.Chemscore.Metal>
0.0000

> <Gold.Chemscore.Lipo>
131.5564

> <Gold.Chemscore.Internal_Hbond>
0.0000

> <Gold.Chemscore.DEClash>
0.1329

> <Gold.Chemscore.DEInternal>
0.8685

> <Gold.Chemscore.Rot>
2.5431

> <Gold.Chemscore.Internal.Correction>
   9.000000E+99

> <Gold.Chemscore.Hbonds>
donor molecule, donor type, donor heavy atom, donor atom, acceptor molecule, acceptor atom, score
      L1  H    15    36       P1  7949  0.96
      L1  H    16    41       P1  7948  0.99
      P1  H  7997  8008       L1     9  0.58
      P1  H 10752 10765       L1    15  0.22

> <Gold.Chemscore.Hbond.Weighted>
-10.4146

> <Gold.Chemscore.Metal.Weighted>
-0.0000

> <Gold.Chemscore.Lipo.Weighted>
-15.3921

> <Gold.Chemscore.Internal_Hbond.Weighted>
0.0000

> <Gold.Chemscore.DEClash.Weighted>
0.1329

> <Gold.Chemscore.DEInternal.Weighted>
0.8685

> <Gold.Chemscore.Rot.Weighted>
6.5103

> <Gold.Chemscore.Internal.Correction.Weighted>
   9.000000E+99

> <Gold.Protein.RotatedTorsions>
[ 6907 6896 6895 6894 ] final  159.79 input  -60.11 | X-H torsion
[ 7974 7965 7964 7962 ] final   83.86 input  175.53 | X-H torsion
[ 8008 7997 7996 7995 ] final  -71.56 input   59.86 | X-H torsion
[ 10167 10162 10161 10158 ] final  -53.12 input  -65.29 | X-H torsion
[ 10718 10713 10712 10709 ] final  116.99 input   66.30 | X-H torsion
[ 10763 10752 10751 10750 ] final  146.48 input  -60.55 | X-H torsion
[ 11005 11000 10999 10996 ] final -144.30 input  -57.11 | X-H torsion

> <Gold.Protein.ActiveResidues>
 VAL166  LYS551  ARG553  GLY616  TRP617  ASP618  TYR619  PRO620  LYS621  CYS622 
 ASP623  PHE694  ASN695  SER759  ASP760  ASP761  ALA762  ILE779  LEU786  VAL792 
 PHE793  MET794  SER795  GLU796  ALA797  LYS798  CYS799  TRP800  GLU811  SER814 

> <Gold.Protein.RotatedAtoms>
  151.9803  133.3755  159.4104 H   0  0  0  0  0  0  0  0  0  0  0  0  # atno 6907 bound_to 6896
  150.6935  134.4045  159.5143 H   0  0  0  0  0  0  0  0  0  0  0  0  # atno 6908 bound_to 6896
  152.1763  134.8791  160.0581 H   0  0  0  0  0  0  0  0  0  0  0  0  # atno 6909 bound_to 6896
  145.6063  139.2361  143.2217 H   0  0  0  0  0  0  0  0  0  0  0  0  # atno 7974 bound_to 7965
  154.5097  140.0813  156.7965 H   0  0  0  0  0  0  0  0  0  0  0  0  # atno 8008 bound_to 7997
  155.3813  140.3428  155.4229 H   0  0  0  0  0  0  0  0  0  0  0  0  # atno 8009 bound_to 7997
  156.1558  140.1573  156.8682 H   0  0  0  0  0  0  0  0  0  0  0  0  # atno 8010 bound_to 7997
  140.6502  143.2561  151.4746 H   0  0  0  0  0  0  0  0  0  0  0  0  # atno 10167 bound_to 10162
  157.6125  131.1032  150.7551 H   0  0  0  0  0  0  0  0  0  0  0  0  # atno 10718 bound_to 10713
  154.0226  135.2904  155.3379 H   0  0  0  0  0  0  0  0  0  0  0  0  # atno 10763 bound_to 10752
  154.7037  135.5178  153.8567 H   0  0  0  0  0  0  0  0  0  0  0  0  # atno 10764 bound_to 10752
  153.0674  135.6636  154.0446 H   0  0  0  0  0  0  0  0  0  0  0  0  # atno 10765 bound_to 10752
  140.8038  134.2826  157.4968 H   0  0  0  0  0  0  0  0  0  0  0  0  # atno 11005 bound_to 11000
  146.1538  140.6887  142.9309 LP  0  0  0  0  0  0  0  0  0  0  0  0  # atno 17320 bound_to 7965
  144.7288  140.4609  143.6953 LP  0  0  0  0  0  0  0  0  0  0  0  0  # atno 17321 bound_to 7965
  139.5716  144.1916  152.1844 LP  0  0  0  0  0  0  0  0  0  0  0  0  # atno 17342 bound_to 10162
  140.1214  144.5370  150.6861 LP  0  0  0  0  0  0  0  0  0  0  0  0  # atno 17343 bound_to 10162
  156.7925  130.4894  149.5382 LP  0  0  0  0  0  0  0  0  0  0  0  0  # atno 17370 bound_to 10713
  156.1234  130.6126  151.0227 LP  0  0  0  0  0  0  0  0  0  0  0  0  # atno 17371 bound_to 10713
  139.8719  134.9444  156.3881 LP  0  0  0  0  0  0  0  0  0  0  0  0  # atno 17394 bound_to 11000
  140.9268  133.7607  155.9974 LP  0  0  0  0  0  0  0  0  0  0  0  0  # atno 17395 bound_to 11000

$$$$
