AV-unprocessed.smi:1863|AV-procd|sdf|7551|dock2
  -GOLD-   22720 9263D 1   1.00000     0.00000
 Structure written by MMmdl.
 37 38  0  0  0  0  0  0  0  0  1 V2000
  149.3283  140.9101  157.0742 C   0  0  0  0  0  0  0  0  0  0  0  0
  149.6520  142.0334  158.0688 C   0  0  1  0  0  0  0  0  0  0  0  0
  151.0171  142.6840  157.7458 C   0  0  0  0  0  0  0  0  0  0  0  0
  151.5021  143.5410  158.8266 N   0  0  0  0  0  0  0  0  0  0  0  0
  151.6346  144.9759  158.6340 C   0  0  0  0  0  0  0  0  0  0  0  0
  151.8684  145.5407  160.0417 C   0  0  0  0  0  0  0  0  0  0  0  0
  152.2791  144.3412  160.9021 C   0  0  0  0  0  0  0  0  0  0  0  0
  151.8798  143.1487  160.0494 C   0  0  0  0  0  0  0  0  0  0  0  0
  151.9049  141.9914  160.4655 O   0  0  0  0  0  0  0  0  0  0  0  0
  148.5812  143.0270  158.0061 N   0  0  0  0  0  0  0  0  0  0  0  0
  147.4872  143.0456  158.7819 C   0  0  0  0  0  0  0  0  0  0  0  0
  147.2518  142.2023  159.6468 O   0  0  0  0  0  0  0  0  0  0  0  0
  146.7175  144.1122  158.5074 N   0  0  0  0  0  0  0  0  0  0  0  0
  145.5062  144.5128  159.1332 C   0  0  0  0  0  0  0  0  0  0  0  0
  144.7634  143.7031  160.0262 C   0  0  0  0  0  0  0  0  0  0  0  0
  143.5671  144.2108  160.5688 C   0  0  0  0  0  0  0  0  0  0  0  0
  143.1536  145.5039  160.1939 C   0  0  0  0  0  0  0  0  0  0  0  0
  143.8445  146.2810  159.3334 N   0  0  0  0  0  0  0  0  0  0  0  0
  144.9898  145.7873  158.8169 C   0  0  0  0  0  0  0  0  0  0  0  0
  150.0869  140.1275  157.1069 H   0  0  0  0  0  0  0  0  0  0  0  0
  149.2812  141.2848  156.0508 H   0  0  0  0  0  0  0  0  0  0  0  0
  148.3692  140.4451  157.3043 H   0  0  0  0  0  0  0  0  0  0  0  0
  149.6835  141.5808  159.0613 H   0  0  0  0  0  0  0  0  0  0  0  0
  151.7646  141.9077  157.5743 H   0  0  0  0  0  0  0  0  0  0  0  0
  150.9584  143.2529  156.8166 H   0  0  0  0  0  0  0  0  0  0  0  0
  152.4904  145.1715  157.9867 H   0  0  0  0  0  0  0  0  0  0  0  0
  150.7474  145.4057  158.1675 H   0  0  0  0  0  0  0  0  0  0  0  0
  152.6230  146.3275  160.0441 H   0  0  0  0  0  0  0  0  0  0  0  0
  150.9430  145.9701  160.4284 H   0  0  0  0  0  0  0  0  0  0  0  0
  153.3561  144.3210  161.0712 H   0  0  0  0  0  0  0  0  0  0  0  0
  151.7701  144.3320  161.8662 H   0  0  0  0  0  0  0  0  0  0  0  0
  148.6904  143.7652  157.3264 H   0  0  0  0  0  0  0  0  0  0  0  0
  147.0809  144.7550  157.8190 H   0  0  0  0  0  0  0  0  0  0  0  0
  145.0750  142.7056  160.2934 H   0  0  0  0  0  0  0  0  0  0  0  0
  142.9771  143.6196  161.2535 H   0  0  0  0  0  0  0  0  0  0  0  0
  142.2405  145.9224  160.5905 H   0  0  0  0  0  0  0  0  0  0  0  0
  145.5141  146.4356  158.1298 H   0  0  0  0  0  0  0  0  0  0  0  0
  1  2  1  0  0  0  0
  1 20  1  0  0  0  0
  1 21  1  0  0  0  0
  1 22  1  0  0  0  0
  2  3  1  0  0  0  0
  2 10  1  0  0  0  0
  2 23  1  0  0  0  0
  3  4  1  0  0  0  0
  3 24  1  0  0  0  0
  3 25  1  0  0  0  0
  4  8  1  0  0  0  0
  4  5  1  0  0  0  0
  5  6  1  0  0  0  0
  5 26  1  0  0  0  0
  5 27  1  0  0  0  0
  6  7  1  0  0  0  0
  6 28  1  0  0  0  0
  6 29  1  0  0  0  0
  7  8  1  0  0  0  0
  7 30  1  0  0  0  0
  7 31  1  0  0  0  0
  8  9  2  0  0  0  0
 10 11  1  0  0  0  0
 10 32  1  0  0  0  0
 11 12  2  0  0  0  0
 11 13  1  0  0  0  0
 13 14  1  0  0  0  0
 13 33  1  0  0  0  0
 14 19  1  0  0  0  0
 14 15  2  0  0  0  0
 15 16  1  0  0  0  0
 15 34  1  0  0  0  0
 16 17  2  0  0  0  0
 16 35  1  0  0  0  0
 17 18  1  0  0  0  0
 17 36  1  0  0  0  0
 18 19  2  0  0  0  0
 19 37  1  0  0  0  0
M  END
> <s_m_source_file>
AV-unprocessed.smi

> <i_m_source_file_index>
1863

> <i_lp_mmshare_version>
43012

> <i_f3d_flags>
0

> <s_epik_input>
Tz1DMVtDSDJdW0NIMl1bQ0gyXU4xW0NIMl1bQ0BASF0oW0NIM10pW05IXUMoPU8pW05IXWMyW2NIXVtjSF1bY0hdbltjSF0y

> <s_epik_cmdline>
J2VwaWtfcHl0aG9uJywgJy1waCcsICc3LjAnLCAnLXRuJywgJzgnLCAnLW1hJywgJzIwMCcsICctbWV0YWxfYmluZGluZycsICctaW1hZScsICc8aW5maWxlLm1hZT4nLCAnLW9tYWUnLCAnPG91dGZpbGUubWFlPic=

> <r_epik_Ionization_Penalty>
0.0047799

> <r_epik_Ionization_Penalty_Charging>
0

> <r_epik_Ionization_Penalty_Neutral>
0.0047799

> <r_epik_State_Penalty>
0.0034394

> <r_epik_Charging_Adjusted_Penalty>
0.0034394

> <i_epik_Tot_Q>
0

> <i_epik_Tot_abs_Q>
0

> <r_epik_Metal_State_Penalty>
-0

> <b_epik_Metal_Only>
0

> <s_lp_Force_Field>
OPLS_2005

> <r_lp_Energy>
21.1293

> <b_lp_Chiralities_Consistent>
1

> <s_lp_Variant>
AV-unprocessed.smi:1863-2

> <Gold.Version>
5.8.1

> <Gold.Id.Protein>
6NUR|6NUR_protein|mol2

> <Gold.PLP.Fitness>
40.4376

> <Gold.PLP.PLP>
-30.8818

> <Gold.PLP.part.hbond>
-5.6787

> <Gold.PLP.part.metal>
0.0000

> <Gold.PLP.part.buried>
-2.1008

> <Gold.PLP.part.nonpolar>
-23.6789

> <Gold.PLP.part.repulsive>
0.2415

> <Gold.PLP.ligand.clash>
0.0000

> <Gold.PLP.ligand.torsion>
0.5071

> <Gold.PLP.Chemscore.Hbond>
2.6321

> <Gold.PLP.Chemscore.CHOScore>
0.8825

> <Gold.PLP.Chemscore.Metal>
0.0000

> <Gold.Chemscore.Hbonds>
donor molecule, donor type, donor heavy atom, donor atom, acceptor molecule, acceptor atom, score
      L1  H    10    32       P1  8028  0.60
      L1  H    13    33       P1  8029  0.96
      P1  H  6933  6944       L1    12  0.30
      P1  H  6934  6946       L1    12  0.67
      L1  C    19    37       P1  8029  0.89

> <Gold.PLP.Chemscore.Internal.Correction>
0.0263

> <Gold.Rescore>
     Score         DG    S(hbond)    S(metal)    S(lipo)     H(rot)  DE(clash)    DE(int)     intcor
     15.84     -18.41       2.36        0.00      76.94       1.54       0.82       1.74       ----

> <Gold.Chemscore.Fitness>
15.8432

> <Gold.Chemscore.DG>
-18.4102

> <Gold.Chemscore.ZeroCoef>
-5.4800

> <Gold.Chemscore.Hbond>
2.3587

> <Gold.Chemscore.Metal>
0.0000

> <Gold.Chemscore.Lipo>
76.9384

> <Gold.Chemscore.Internal_Hbond>
0.0000

> <Gold.Chemscore.DEClash>
0.8231

> <Gold.Chemscore.DEInternal>
1.7439

> <Gold.Chemscore.Rot>
1.5428

> <Gold.Chemscore.Internal.Correction>
   9.000000E+99

> <Gold.Chemscore.Hbonds>
donor molecule, donor type, donor heavy atom, donor atom, acceptor molecule, acceptor atom, score
      L1  H    10    32       P1  8028  0.04
      L1  H    13    33       P1  8029  0.35
      P1  H  6933  6944       L1    12  0.27
      P1  H  6934  6946       L1    12  0.66

> <Gold.Chemscore.Hbond.Weighted>
-7.8781

> <Gold.Chemscore.Metal.Weighted>
-0.0000

> <Gold.Chemscore.Lipo.Weighted>
-9.0018

> <Gold.Chemscore.Internal_Hbond.Weighted>
0.0000

> <Gold.Chemscore.DEClash.Weighted>
0.8231

> <Gold.Chemscore.DEInternal.Weighted>
1.7439

> <Gold.Chemscore.Rot.Weighted>
3.9497

> <Gold.Chemscore.Internal.Correction.Weighted>
   9.000000E+99

> <Gold.Protein.RotatedTorsions>
[ 6907 6896 6895 6894 ] final  -36.38 input  -60.11 | X-H torsion
[ 7974 7965 7964 7962 ] final  -36.26 input  175.53 | X-H torsion
[ 8008 7997 7996 7995 ] final -166.01 input   59.86 | X-H torsion
[ 10167 10162 10161 10158 ] final  -17.93 input  -65.29 | X-H torsion
[ 10718 10713 10712 10709 ] final -154.67 input   66.30 | X-H torsion
[ 10763 10752 10751 10750 ] final  -57.09 input  -60.55 | X-H torsion
[ 11005 11000 10999 10996 ] final -139.46 input  -57.11 | X-H torsion

> <Gold.Protein.ActiveResidues>
 VAL166  LYS551  ARG553  GLY616  TRP617  ASP618  TYR619  PRO620  LYS621  CYS622 
 ASP623  PHE694  ASN695  SER759  ASP760  ASP761  ALA762  ILE779  LEU786  VAL792 
 PHE793  MET794  SER795  GLU796  ALA797  LYS798  CYS799  TRP800  GLU811  SER814 

> <Gold.Protein.RotatedAtoms>
  151.0279  134.9517  159.8094 H   0  0  0  0  0  0  0  0  0  0  0  0  # atno 6907 bound_to 6896
  152.5339  134.2819  159.9020 H   0  0  0  0  0  0  0  0  0  0  0  0  # atno 6908 bound_to 6896
  151.2827  133.4160  159.2662 H   0  0  0  0  0  0  0  0  0  0  0  0  # atno 6909 bound_to 6896
  146.0676  140.6258  142.8967 H   0  0  0  0  0  0  0  0  0  0  0  0  # atno 7974 bound_to 7965
  155.8579  140.0973  157.1632 H   0  0  0  0  0  0  0  0  0  0  0  0  # atno 8008 bound_to 7997
  154.3989  140.1370  156.3987 H   0  0  0  0  0  0  0  0  0  0  0  0  # atno 8009 bound_to 7997
  155.7889  140.3456  155.5341 H   0  0  0  0  0  0  0  0  0  0  0  0  # atno 8010 bound_to 7997
  140.7253  143.4966  150.9922 H   0  0  0  0  0  0  0  0  0  0  0  0  # atno 10167 bound_to 10162
  156.5024  130.8397  151.2614 H   0  0  0  0  0  0  0  0  0  0  0  0  # atno 10718 bound_to 10713
  154.2169  135.6384  153.5132 H   0  0  0  0  0  0  0  0  0  0  0  0  # atno 10763 bound_to 10752
  152.9977  135.5487  154.6155 H   0  0  0  0  0  0  0  0  0  0  0  0  # atno 10764 bound_to 10752
  154.5606  135.2908  155.0896 H   0  0  0  0  0  0  0  0  0  0  0  0  # atno 10765 bound_to 10752
  140.8517  134.2277  157.4756 H   0  0  0  0  0  0  0  0  0  0  0  0  # atno 11005 bound_to 11000
  144.7212  140.4379  143.7007 LP  0  0  0  0  0  0  0  0  0  0  0  0  # atno 17320 bound_to 7965
  145.6449  139.1555  143.2895 LP  0  0  0  0  0  0  0  0  0  0  0  0  # atno 17321 bound_to 7965
  139.8674  143.7237  152.3169 LP  0  0  0  0  0  0  0  0  0  0  0  0  # atno 17342 bound_to 10162
  139.7473  144.7543  151.0560 LP  0  0  0  0  0  0  0  0  0  0  0  0  # atno 17343 bound_to 10162
  157.7461  130.9977  150.2826 LP  0  0  0  0  0  0  0  0  0  0  0  0  # atno 17370 bound_to 10713
  156.3320  130.3802  149.7483 LP  0  0  0  0  0  0  0  0  0  0  0  0  # atno 17371 bound_to 10713
  139.8704  134.9686  156.4639 LP  0  0  0  0  0  0  0  0  0  0  0  0  # atno 17394 bound_to 11000
  140.8782  133.7937  155.9438 LP  0  0  0  0  0  0  0  0  0  0  0  0  # atno 17395 bound_to 11000

$$$$
