AV-unprocessed.smi:2025|AV-procd|sdf|8197|dock4
  -GOLD-   2272010453D 1   1.00000     0.00000
 Structure written by MMmdl.
 39 40  0  0  0  0  0  0  0  0  1 V2000
  150.7907  142.3030  156.5741 C   0  0  0  0  0  0  0  0  0  0  0  0
  151.6286  142.4605  157.8523 C   0  0  2  0  0  0  0  0  0  0  0  0
  151.6396  141.1827  158.5613 N   0  0  0  0  0  0  0  0  0  0  0  0
  152.2167  140.0519  158.1262 C   0  0  0  0  0  0  0  0  0  0  0  0
  152.8199  139.9672  157.0555 O   0  0  0  0  0  0  0  0  0  0  0  0
  152.1144  138.8416  159.0640 C   0  0  0  0  0  0  0  0  0  0  0  0
  153.0475  138.9134  160.1960 N   0  0  0  0  0  0  0  0  0  0  0  0
  153.6676  140.1130  160.4957 C   0  0  0  0  0  0  0  0  0  0  0  0
  154.5509  140.2629  161.5064 C   0  0  0  0  0  0  0  0  0  0  0  0
  154.9049  139.1366  162.3610 C   0  0  0  0  0  0  0  0  0  0  0  0
  155.7096  139.2173  163.2904 O   0  0  0  0  0  0  0  0  0  0  0  0
  154.2523  137.9245  162.0394 N   0  0  0  0  0  0  0  0  0  0  0  0
  154.5768  136.7794  162.8642 C   0  0  0  0  0  0  0  0  0  0  0  0
  153.3364  137.7698  160.9724 C   0  0  0  0  0  0  0  0  0  0  0  0
  152.8030  136.6892  160.7100 O   0  0  0  0  0  0  0  0  0  0  0  0
  151.0878  143.5712  158.7774 C   0  0  2  0  0  0  0  0  0  0  0  0
  151.6547  144.9639  158.4963 C   0  0  0  0  0  0  0  0  0  0  0  0
  151.4580  145.6520  159.8273 C   0  0  0  0  0  0  0  0  0  0  0  0
  151.7719  144.5274  160.8083 C   0  0  0  0  0  0  0  0  0  0  0  0
  151.4384  143.3155  160.1369 O   0  0  0  0  0  0  0  0  0  0  0  0
  150.7988  143.2154  155.9778 H   0  0  0  0  0  0  0  0  0  0  0  0
  149.7519  142.0655  156.8060 H   0  0  0  0  0  0  0  0  0  0  0  0
  151.1830  141.5030  155.9453 H   0  0  0  0  0  0  0  0  0  0  0  0
  152.6444  142.7210  157.5492 H   0  0  0  0  0  0  0  0  0  0  0  0
  151.1752  141.1589  159.4573 H   0  0  0  0  0  0  0  0  0  0  0  0
  151.0889  138.7841  159.4314 H   0  0  0  0  0  0  0  0  0  0  0  0
  152.2765  137.9207  158.5009 H   0  0  0  0  0  0  0  0  0  0  0  0
  153.4395  140.9761  159.8871 H   0  0  0  0  0  0  0  0  0  0  0  0
  155.0026  141.2280  161.6837 H   0  0  0  0  0  0  0  0  0  0  0  0
  153.9311  135.9318  162.6369 H   0  0  0  0  0  0  0  0  0  0  0  0
  154.4279  137.0701  163.9057 H   0  0  0  0  0  0  0  0  0  0  0  0
  155.6198  136.5282  162.6653 H   0  0  0  0  0  0  0  0  0  0  0  0
  149.9986  143.6127  158.7210 H   0  0  0  0  0  0  0  0  0  0  0  0
  152.7185  144.9068  158.2606 H   0  0  0  0  0  0  0  0  0  0  0  0
  151.1482  145.4731  157.6761 H   0  0  0  0  0  0  0  0  0  0  0  0
  152.0976  146.5249  159.9601 H   0  0  0  0  0  0  0  0  0  0  0  0
  150.4194  145.9674  159.9352 H   0  0  0  0  0  0  0  0  0  0  0  0
  152.8368  144.5098  161.0423 H   0  0  0  0  0  0  0  0  0  0  0  0
  151.2213  144.6284  161.7439 H   0  0  0  0  0  0  0  0  0  0  0  0
  1  2  1  0  0  0  0
  1 21  1  0  0  0  0
  1 22  1  0  0  0  0
  1 23  1  0  0  0  0
  2  3  1  0  0  0  0
  2 16  1  0  0  0  0
  2 24  1  0  0  0  0
  3  4  1  0  0  0  0
  3 25  1  0  0  0  0
  4  5  2  0  0  0  0
  4  6  1  0  0  0  0
  6  7  1  0  0  0  0
  6 26  1  0  0  0  0
  6 27  1  0  0  0  0
  7 14  1  0  0  0  0
  7  8  1  0  0  0  0
  8  9  2  0  0  0  0
  8 28  1  0  0  0  0
  9 10  1  0  0  0  0
  9 29  1  0  0  0  0
 10 11  2  0  0  0  0
 10 12  1  0  0  0  0
 12 13  1  0  0  0  0
 12 14  1  0  0  0  0
 13 30  1  0  0  0  0
 13 31  1  0  0  0  0
 13 32  1  0  0  0  0
 14 15  2  0  0  0  0
 16 20  1  0  0  0  0
 16 17  1  0  0  0  0
 16 33  1  0  0  0  0
 17 18  1  0  0  0  0
 17 34  1  0  0  0  0
 17 35  1  0  0  0  0
 18 19  1  0  0  0  0
 18 36  1  0  0  0  0
 18 37  1  0  0  0  0
 19 20  1  0  0  0  0
 19 38  1  0  0  0  0
 19 39  1  0  0  0  0
M  END
> <s_m_source_file>
AV-unprocessed.smi

> <i_m_source_file_index>
2025

> <i_lp_mmshare_version>
43012

> <i_f3d_flags>
0

> <s_epik_input>
TzFbQ0gyXVtDSDJdW0NIMl1bQ0BIXTFbQ0BIXShbQ0gzXSlbTkhdQyg9TylbQ0gyXW4yW2NIXVtjSF1jKD1PKW4oW0NIM10pYzI9Tw==

> <s_epik_cmdline>
J2VwaWtfcHl0aG9uJywgJy1waCcsICc3LjAnLCAnLXRuJywgJzgnLCAnLW1hJywgJzIwMCcsICctbWV0YWxfYmluZGluZycsICctaW1hZScsICc8aW5maWxlLm1hZT4nLCAnLW9tYWUnLCAnPG91dGZpbGUubWFlPic=

> <r_lp_tautomer_probability>
1

> <r_epik_Ionization_Penalty>
3.54787e-08

> <r_epik_Ionization_Penalty_Charging>
1.24654e-08

> <r_epik_Ionization_Penalty_Neutral>
2.30132e-08

> <r_epik_State_Penalty>
-0

> <r_epik_Charging_Adjusted_Penalty>
1.24654e-08

> <i_epik_Tot_Q>
0

> <i_epik_Tot_abs_Q>
0

> <r_epik_Metal_State_Penalty>
-0

> <b_epik_Metal_Only>
0

> <s_lp_Force_Field>
OPLS_2005

> <r_lp_Energy>
25.7594

> <b_lp_Chiralities_Consistent>
1

> <s_lp_Variant>
AV-unprocessed.smi:2025-1

> <Gold.Version>
5.8.1

> <Gold.Id.Protein>
6NUR|6NUR_protein|mol2

> <Gold.PLP.Fitness>
41.0525

> <Gold.PLP.PLP>
-37.3950

> <Gold.PLP.part.hbond>
-2.0679

> <Gold.PLP.part.metal>
0.0000

> <Gold.PLP.part.buried>
-3.7269

> <Gold.PLP.part.nonpolar>
-30.9390

> <Gold.PLP.part.repulsive>
0.1597

> <Gold.PLP.ligand.clash>
0.0061

> <Gold.PLP.ligand.torsion>
1.1780

> <Gold.PLP.Chemscore.Hbond>
2.0000

> <Gold.PLP.Chemscore.CHOScore>
0.0000

> <Gold.PLP.Chemscore.Metal>
0.0000

> <Gold.Chemscore.Hbonds>
donor molecule, donor type, donor heavy atom, donor atom, acceptor molecule, acceptor atom, score
      P1  H  6896  6908       L1    15  1.00
      P1  H  7997  8009       L1     5  1.00

> <Gold.PLP.Chemscore.Internal.Correction>
0.0195

> <Gold.Rescore>
     Score         DG    S(hbond)    S(metal)    S(lipo)     H(rot)  DE(clash)    DE(int)     intcor
     16.89     -17.95       1.98        0.00      89.92       1.82       0.05       1.01       ----

> <Gold.Chemscore.Fitness>
16.8901

> <Gold.Chemscore.DG>
-17.9535

> <Gold.Chemscore.ZeroCoef>
-5.4800

> <Gold.Chemscore.Hbond>
1.9819

> <Gold.Chemscore.Metal>
0.0000

> <Gold.Chemscore.Lipo>
89.9178

> <Gold.Chemscore.Internal_Hbond>
0.0000

> <Gold.Chemscore.DEClash>
0.0542

> <Gold.Chemscore.DEInternal>
1.0092

> <Gold.Chemscore.Rot>
1.8228

> <Gold.Chemscore.Internal.Correction>
   9.000000E+99

> <Gold.Chemscore.Hbonds>
donor molecule, donor type, donor heavy atom, donor atom, acceptor molecule, acceptor atom, score
      P1  H  6896  6908       L1    15  1.00
      P1  H  7997  8009       L1     5  0.98

> <Gold.Chemscore.Hbond.Weighted>
-6.6196

> <Gold.Chemscore.Metal.Weighted>
-0.0000

> <Gold.Chemscore.Lipo.Weighted>
-10.5204

> <Gold.Chemscore.Internal_Hbond.Weighted>
0.0000

> <Gold.Chemscore.DEClash.Weighted>
0.0542

> <Gold.Chemscore.DEInternal.Weighted>
1.0092

> <Gold.Chemscore.Rot.Weighted>
4.6665

> <Gold.Chemscore.Internal.Correction.Weighted>
   9.000000E+99

> <Gold.Protein.RotatedTorsions>
[ 6907 6896 6895 6894 ] final  -91.99 input  -60.11 | X-H torsion
[ 7974 7965 7964 7962 ] final  124.55 input  175.53 | X-H torsion
[ 8008 7997 7996 7995 ] final  173.41 input   59.86 | X-H torsion
[ 10167 10162 10161 10158 ] final   24.37 input  -65.29 | X-H torsion
[ 10718 10713 10712 10709 ] final -122.64 input   66.30 | X-H torsion
[ 10763 10752 10751 10750 ] final  173.80 input  -60.55 | X-H torsion
[ 11005 11000 10999 10996 ] final  -11.30 input  -57.11 | X-H torsion

> <Gold.Protein.ActiveResidues>
 VAL166  LYS551  ARG553  GLY616  TRP617  ASP618  TYR619  PRO620  LYS621  CYS622 
 ASP623  PHE694  ASN695  SER759  ASP760  ASP761  ALA762  ILE779  LEU786  VAL792 
 PHE793  MET794  SER795  GLU796  ALA797  LYS798  CYS799  TRP800  GLU811  SER814 

> <Gold.Protein.RotatedAtoms>
  150.6900  134.2192  159.4389 H   0  0  0  0  0  0  0  0  0  0  0  0  # atno 6907 bound_to 6896
  152.0149  134.9853  160.0578 H   0  0  0  0  0  0  0  0  0  0  0  0  # atno 6908 bound_to 6896
  152.1453  133.4453  159.4823 H   0  0  0  0  0  0  0  0  0  0  0  0  # atno 6909 bound_to 6896
  145.0831  139.3642  143.4899 H   0  0  0  0  0  0  0  0  0  0  0  0  # atno 7974 bound_to 7965
  156.1078  140.1461  156.9380 H   0  0  0  0  0  0  0  0  0  0  0  0  # atno 8008 bound_to 7997
  154.4746  140.0898  156.7274 H   0  0  0  0  0  0  0  0  0  0  0  0  # atno 8009 bound_to 7997
  155.4649  140.3439  155.4320 H   0  0  0  0  0  0  0  0  0  0  0  0  # atno 8010 bound_to 7997
  140.5193  144.0029  150.6409 H   0  0  0  0  0  0  0  0  0  0  0  0  # atno 10167 bound_to 10162
  156.1435  130.6483  150.9808 H   0  0  0  0  0  0  0  0  0  0  0  0  # atno 10718 bound_to 10713
  154.4451  135.2763  155.1820 H   0  0  0  0  0  0  0  0  0  0  0  0  # atno 10763 bound_to 10752
  154.3670  135.6117  153.5724 H   0  0  0  0  0  0  0  0  0  0  0  0  # atno 10764 bound_to 10752
  152.9843  135.5848  154.4786 H   0  0  0  0  0  0  0  0  0  0  0  0  # atno 10765 bound_to 10752
  140.7538  133.8571  155.9067 H   0  0  0  0  0  0  0  0  0  0  0  0  # atno 11005 bound_to 11000
  146.3531  140.0631  142.8628 LP  0  0  0  0  0  0  0  0  0  0  0  0  # atno 17320 bound_to 7965
  145.1154  140.9430  143.4632 LP  0  0  0  0  0  0  0  0  0  0  0  0  # atno 17321 bound_to 7965
  140.3373  143.3041  152.0625 LP  0  0  0  0  0  0  0  0  0  0  0  0  # atno 17342 bound_to 10162
  139.4918  144.6467  151.6763 LP  0  0  0  0  0  0  0  0  0  0  0  0  # atno 17343 bound_to 10162
  157.6597  131.0883  150.7867 LP  0  0  0  0  0  0  0  0  0  0  0  0  # atno 17370 bound_to 10713
  156.7941  130.4899  149.5380 LP  0  0  0  0  0  0  0  0  0  0  0  0  # atno 17371 bound_to 10713
  140.9726  134.1510  157.4563 LP  0  0  0  0  0  0  0  0  0  0  0  0  # atno 17394 bound_to 11000
  139.8783  134.9984  156.5897 LP  0  0  0  0  0  0  0  0  0  0  0  0  # atno 17395 bound_to 11000

$$$$
