AV-unprocessed.smi:837|AV-procd|sdf|3895|dock10
  -GOLD-   22720 1353D 1   1.00000     0.00000
 Structure written by MMmdl.
 49 51  0  0  0  0  0  0  0  0  1 V2000
  150.7143  142.3799  157.2428 C   0  0  0  0  0  0  0  0  0  0  0  0
  151.8653  141.5157  157.8011 C   0  0  1  0  0  0  0  0  0  0  0  0
  151.9688  141.6932  159.3317 C   0  0  0  0  0  0  0  0  0  0  0  0
  153.1458  140.9030  159.9247 C   0  0  0  0  0  0  0  0  0  0  0  0
  153.0532  139.4128  159.5684 C   0  0  0  0  0  0  0  0  0  0  0  0
  152.9667  139.2178  158.0463 C   0  0  0  0  0  0  0  0  0  0  0  0
  151.7850  140.0028  157.4273 C   0  0  1  0  0  0  0  0  0  0  0  0
  150.5126  139.4075  157.8016 N   0  0  0  0  0  0  0  0  0  0  0  0
  149.8447  138.9023  156.7565 C   0  0  0  0  0  0  0  0  0  0  0  0
  148.7552  138.3350  156.8197 O   0  0  0  0  0  0  0  0  0  0  0  0
  150.5693  139.1237  155.6447 N   0  0  0  0  0  0  0  0  0  0  0  0
  150.1844  138.6857  154.2975 C   0  0  0  0  0  0  0  0  0  0  0  0
  148.8330  139.2626  153.8557 C   0  0  0  0  0  0  0  0  0  0  0  0
  148.4124  140.3163  154.3350 O   0  0  0  0  0  0  0  0  0  0  0  0
  148.1654  138.5589  152.9299 N   0  0  0  0  0  0  0  0  0  0  0  0
  146.8518  138.9049  152.3950 C   0  0  0  0  0  0  0  0  0  0  0  0
  146.3690  137.9292  151.3020 C   0  0  0  0  0  0  0  0  0  0  0  0
  145.6368  136.7159  151.8499 C   0  0  0  0  0  0  0  0  0  0  0  0
  146.0728  135.4089  151.5482 C   0  0  0  0  0  0  0  0  0  0  0  0
  145.3527  134.3167  152.0684 C   0  0  0  0  0  0  0  0  0  0  0  0
  144.2248  134.5787  152.8713 C   0  0  0  0  0  0  0  0  0  0  0  0
  143.7995  135.8256  153.1692 N   0  0  0  0  0  0  0  0  0  0  0  0
  144.4961  136.8675  152.6662 C   0  0  0  0  0  0  0  0  0  0  0  0
  151.7158  139.7583  155.9255 C   0  0  0  0  0  0  0  0  0  0  0  0
  152.5906  140.1002  155.1295 O   0  0  0  0  0  0  0  0  0  0  0  0
  149.7460  142.0596  157.6281 H   0  0  0  0  0  0  0  0  0  0  0  0
  150.6691  142.3437  156.1543 H   0  0  0  0  0  0  0  0  0  0  0  0
  150.8452  143.4260  157.5203 H   0  0  0  0  0  0  0  0  0  0  0  0
  152.7890  141.9093  157.3727 H   0  0  0  0  0  0  0  0  0  0  0  0
  152.0873  142.7494  159.5761 H   0  0  0  0  0  0  0  0  0  0  0  0
  151.0403  141.3731  159.8064 H   0  0  0  0  0  0  0  0  0  0  0  0
  154.0854  141.3104  159.5496 H   0  0  0  0  0  0  0  0  0  0  0  0
  153.1669  141.0250  161.0080 H   0  0  0  0  0  0  0  0  0  0  0  0
  153.9215  138.8831  159.9611 H   0  0  0  0  0  0  0  0  0  0  0  0
  152.1796  138.9722  160.0503 H   0  0  0  0  0  0  0  0  0  0  0  0
  153.9038  139.5493  157.5960 H   0  0  0  0  0  0  0  0  0  0  0  0
  152.8827  138.1537  157.8187 H   0  0  0  0  0  0  0  0  0  0  0  0
  150.1858  139.3724  158.7564 H   0  0  0  0  0  0  0  0  0  0  0  0
  150.9411  138.9807  153.5689 H   0  0  0  0  0  0  0  0  0  0  0  0
  150.1493  137.5949  154.2638 H   0  0  0  0  0  0  0  0  0  0  0  0
  148.5858  137.7069  152.5880 H   0  0  0  0  0  0  0  0  0  0  0  0
  146.1199  138.9679  153.2014 H   0  0  0  0  0  0  0  0  0  0  0  0
  146.9315  139.9070  151.9731 H   0  0  0  0  0  0  0  0  0  0  0  0
  145.7127  138.4525  150.6054 H   0  0  0  0  0  0  0  0  0  0  0  0
  147.2205  137.5895  150.7115 H   0  0  0  0  0  0  0  0  0  0  0  0
  146.9371  135.2430  150.9215 H   0  0  0  0  0  0  0  0  0  0  0  0
  145.6547  133.3028  151.8520 H   0  0  0  0  0  0  0  0  0  0  0  0
  143.6478  133.7644  153.2842 H   0  0  0  0  0  0  0  0  0  0  0  0
  144.1287  137.8515  152.9179 H   0  0  0  0  0  0  0  0  0  0  0  0
  1  2  1  0  0  0  0
  1 26  1  0  0  0  0
  1 27  1  0  0  0  0
  1 28  1  0  0  0  0
  2  7  1  0  0  0  0
  2  3  1  0  0  0  0
  2 29  1  0  0  0  0
  3  4  1  0  0  0  0
  3 30  1  0  0  0  0
  3 31  1  0  0  0  0
  4  5  1  0  0  0  0
  4 32  1  0  0  0  0
  4 33  1  0  0  0  0
  5  6  1  0  0  0  0
  5 34  1  0  0  0  0
  5 35  1  0  0  0  0
  6  7  1  0  0  0  0
  6 36  1  0  0  0  0
  6 37  1  0  0  0  0
  7 24  1  0  0  0  0
  7  8  1  0  0  0  0
  8  9  1  0  0  0  0
  8 38  1  0  0  0  0
  9 10  2  0  0  0  0
  9 11  1  0  0  0  0
 11 12  1  0  0  0  0
 11 24  1  0  0  0  0
 12 13  1  0  0  0  0
 12 39  1  0  0  0  0
 12 40  1  0  0  0  0
 13 14  2  0  0  0  0
 13 15  1  0  0  0  0
 15 16  1  0  0  0  0
 15 41  1  0  0  0  0
 16 17  1  0  0  0  0
 16 42  1  0  0  0  0
 16 43  1  0  0  0  0
 17 18  1  0  0  0  0
 17 44  1  0  0  0  0
 17 45  1  0  0  0  0
 18 23  1  0  0  0  0
 18 19  2  0  0  0  0
 19 20  1  0  0  0  0
 19 46  1  0  0  0  0
 20 21  2  0  0  0  0
 20 47  1  0  0  0  0
 21 22  1  0  0  0  0
 21 48  1  0  0  0  0
 22 23  2  0  0  0  0
 23 49  1  0  0  0  0
 24 25  2  0  0  0  0
M  END
> <s_m_source_file>
AV-unprocessed.smi

> <i_m_source_file_index>
837

> <i_lp_mmshare_version>
43012

> <i_f3d_flags>
0

> <s_epik_input>
W0NIMl0xW0NIMl1bQ0gyXVtDSDJdW0NAQEhdKFtDSDNdKVtDQEBdMTJbTkhdQyg9TylOKEMyPU8pW0NIMl1DKD1PKVtOSF1bQ0gyXVtDSDJdYzNbY0hdW2NIXVtjSF1uW2NIXTM=

> <s_epik_cmdline>
J2VwaWtfcHl0aG9uJywgJy1waCcsICc3LjAnLCAnLXRuJywgJzgnLCAnLW1hJywgJzIwMCcsICctbWV0YWxfYmluZGluZycsICctaW1hZScsICc8aW5maWxlLm1hZT4nLCAnLW9tYWUnLCAnPG91dGZpbGUubWFlPic=

> <r_lp_tautomer_probability>
1

> <r_epik_Ionization_Penalty>
0.0127837

> <r_epik_Ionization_Penalty_Charging>
0

> <r_epik_Ionization_Penalty_Neutral>
0.0127837

> <r_epik_State_Penalty>
0.00987657

> <r_epik_Charging_Adjusted_Penalty>
0.00987657

> <i_epik_Tot_Q>
0

> <i_epik_Tot_abs_Q>
0

> <r_epik_Metal_State_Penalty>
0.0309865

> <b_epik_Metal_Only>
0

> <s_lp_Force_Field>
OPLS_2005

> <r_lp_Energy>
22.8196

> <b_lp_Chiralities_Consistent>
1

> <s_lp_Variant>
AV-unprocessed.smi:837-4

> <Gold.Version>
5.8.1

> <Gold.Id.Protein>
6NUR|6NUR_protein|mol2

> <Gold.PLP.Fitness>
49.6462

> <Gold.PLP.PLP>
-37.9529

> <Gold.PLP.part.hbond>
-4.0000

> <Gold.PLP.part.metal>
0.0000

> <Gold.PLP.part.buried>
1.2299

> <Gold.PLP.part.nonpolar>
-35.0395

> <Gold.PLP.part.repulsive>
0.3408

> <Gold.PLP.ligand.clash>
0.0000

> <Gold.PLP.ligand.torsion>
0.5294

> <Gold.PLP.Chemscore.Hbond>
2.4827

> <Gold.PLP.Chemscore.CHOScore>
1.7653

> <Gold.PLP.Chemscore.Metal>
0.0000

> <Gold.Chemscore.Hbonds>
donor molecule, donor type, donor heavy atom, donor atom, acceptor molecule, acceptor atom, score
      L1  H    15    41       P1  7948  1.00
      P1  H  7989  7998       L1    25  0.51
      P1  H  7997  8008       L1    25  0.99
      L1  C    21    48       P1 10957  0.62
      L1  C    23    49       P1 10175  0.65

> <Gold.PLP.Chemscore.Internal.Correction>
0.0082

> <Gold.Rescore>
     Score         DG    S(hbond)    S(metal)    S(lipo)     H(rot)  DE(clash)    DE(int)     intcor
     17.15     -19.29       2.11        0.00      98.50       1.86       1.63       0.50       ----

> <Gold.Chemscore.Fitness>
17.1533

> <Gold.Chemscore.DG>
-19.2912

> <Gold.Chemscore.ZeroCoef>
-5.4800

> <Gold.Chemscore.Hbond>
2.1066

> <Gold.Chemscore.Metal>
0.0000

> <Gold.Chemscore.Lipo>
98.5035

> <Gold.Chemscore.Internal_Hbond>
0.0000

> <Gold.Chemscore.DEClash>
1.6330

> <Gold.Chemscore.DEInternal>
0.5048

> <Gold.Chemscore.Rot>
1.8553

> <Gold.Chemscore.Internal.Correction>
   9.000000E+99

> <Gold.Chemscore.Hbonds>
donor molecule, donor type, donor heavy atom, donor atom, acceptor molecule, acceptor atom, score
      L1  H    15    41       P1  7948  1.00
      P1  H  7989  7998       L1    25  0.32
      P1  H  7997  8008       L1    25  0.60

> <Gold.Chemscore.Hbond.Weighted>
-7.0360

> <Gold.Chemscore.Metal.Weighted>
-0.0000

> <Gold.Chemscore.Lipo.Weighted>
-11.5249

> <Gold.Chemscore.Internal_Hbond.Weighted>
0.0000

> <Gold.Chemscore.DEClash.Weighted>
1.6330

> <Gold.Chemscore.DEInternal.Weighted>
0.5048

> <Gold.Chemscore.Rot.Weighted>
4.7497

> <Gold.Chemscore.Internal.Correction.Weighted>
   9.000000E+99

> <Gold.Protein.RotatedTorsions>
[ 6907 6896 6895 6894 ] final -120.61 input  -60.11 | X-H torsion
[ 7974 7965 7964 7962 ] final -112.21 input  175.53 | X-H torsion
[ 8008 7997 7996 7995 ] final  -31.73 input   59.86 | X-H torsion
[ 10167 10162 10161 10158 ] final  140.84 input  -65.29 | X-H torsion
[ 10718 10713 10712 10709 ] final   87.47 input   66.30 | X-H torsion
[ 10763 10752 10751 10750 ] final  -54.38 input  -60.55 | X-H torsion
[ 11005 11000 10999 10996 ] final -110.03 input  -57.11 | X-H torsion

> <Gold.Protein.ActiveResidues>
 VAL166  LYS551  ARG553  GLY616  TRP617  ASP618  TYR619  PRO620  LYS621  CYS622 
 ASP623  PHE694  ASN695  SER759  ASP760  ASP761  ALA762  ILE779  LEU786  VAL792 
 PHE793  MET794  SER795  GLU796  ALA797  LYS798  CYS799  TRP800  GLU811  SER814 

> <Gold.Protein.RotatedAtoms>
  150.8409  133.7938  159.3061 H   0  0  0  0  0  0  0  0  0  0  0  0  # atno 6907 bound_to 6896
  151.5639  135.1063  159.9989 H   0  0  0  0  0  0  0  0  0  0  0  0  # atno 6908 bound_to 6896
  152.4473  133.7518  159.6754 H   0  0  0  0  0  0  0  0  0  0  0  0  # atno 6909 bound_to 6896
  145.1468  140.8807  143.3670 H   0  0  0  0  0  0  0  0  0  0  0  0  # atno 7974 bound_to 7965
  154.4204  140.1756  156.1614 H   0  0  0  0  0  0  0  0  0  0  0  0  # atno 8008 bound_to 7997
  155.9835  140.3375  155.6661 H   0  0  0  0  0  0  0  0  0  0  0  0  # atno 8009 bound_to 7997
  155.6468  140.0686  157.2591 H   0  0  0  0  0  0  0  0  0  0  0  0  # atno 8010 bound_to 7997
  139.5037  144.6209  151.6054 H   0  0  0  0  0  0  0  0  0  0  0  0  # atno 10167 bound_to 10162
  157.6940  131.0257  150.3129 H   0  0  0  0  0  0  0  0  0  0  0  0  # atno 10718 bound_to 10713
  154.1740  135.6454  153.5016 H   0  0  0  0  0  0  0  0  0  0  0  0  # atno 10763 bound_to 10752
  153.0077  135.5390  154.6583 H   0  0  0  0  0  0  0  0  0  0  0  0  # atno 10764 bound_to 10752
  154.5930  135.2936  155.0588 H   0  0  0  0  0  0  0  0  0  0  0  0  # atno 10765 bound_to 10752
  141.0815  133.9212  157.2279 H   0  0  0  0  0  0  0  0  0  0  0  0  # atno 11005 bound_to 11000
  145.0473  139.3210  143.5946 LP  0  0  0  0  0  0  0  0  0  0  0  0  # atno 17320 bound_to 7965
  146.3499  139.9869  142.8690 LP  0  0  0  0  0  0  0  0  0  0  0  0  # atno 17321 bound_to 7965
  140.5910  143.9779  150.6325 LP  0  0  0  0  0  0  0  0  0  0  0  0  # atno 17342 bound_to 10162
  140.2959  143.3293  152.1018 LP  0  0  0  0  0  0  0  0  0  0  0  0  # atno 17343 bound_to 10162
  156.3627  130.3850  149.7238 LP  0  0  0  0  0  0  0  0  0  0  0  0  # atno 17370 bound_to 10713
  156.4679  130.7982  151.3001 LP  0  0  0  0  0  0  0  0  0  0  0  0  # atno 17371 bound_to 10713
  139.9629  135.0149  156.9309 LP  0  0  0  0  0  0  0  0  0  0  0  0  # atno 17394 bound_to 11000
  140.5458  134.0675  155.7354 LP  0  0  0  0  0  0  0  0  0  0  0  0  # atno 17395 bound_to 11000

$$$$
