AV-unprocessed.smi:3041|AV-procd|sdf|11597|dock2
  -GOLD-   2272016573D 1   1.00000     0.00000
 Structure written by MMmdl.
 38 39  0  0  0  0  0  0  0  0  1 V2000
  151.0881  141.2290  156.1347 C   0  0  0  0  0  0  0  0  0  0  0  0
  150.5298  140.0108  155.5881 N   0  0  0  0  0  0  0  0  0  0  0  0
  150.2296  138.8331  156.2387 C   0  0  0  0  0  0  0  0  0  0  0  0
  149.7235  137.9690  155.3088 C   0  0  0  0  0  0  0  0  0  0  0  0
  149.2404  136.5580  155.4963 C   0  0  0  0  0  0  0  0  0  0  0  0
  147.7234  136.4476  155.2736 C   0  0  0  0  0  0  0  0  0  0  0  0
  147.4021  136.2122  153.8707 N   0  0  0  0  0  0  0  0  0  0  0  0
  146.2631  135.6618  153.4274 C   0  0  0  0  0  0  0  0  0  0  0  0
  145.3462  135.2886  154.1595 O   0  0  0  0  0  0  0  0  0  0  0  0
  146.2414  135.5698  152.0907 N   0  0  0  0  0  0  0  0  0  0  0  0
  145.1412  135.0180  151.3068 C   0  0  0  0  0  0  0  0  0  0  0  0
  144.9679  133.5037  151.5324 C   0  0  2  0  0  0  0  0  0  0  0  0
  146.1524  132.6755  151.0794 C   0  0  0  0  0  0  0  0  0  0  0  0
  145.5398  131.2824  150.9768 C   0  0  0  0  0  0  0  0  0  0  0  0
  144.1788  131.4830  150.6060 O   0  0  0  0  0  0  0  0  0  0  0  0
  143.8342  132.8598  150.7324 C   0  0  0  0  0  0  0  0  0  0  0  0
  149.7568  138.7250  154.1026 C   0  0  0  0  0  0  0  0  0  0  0  0
  150.2404  139.9448  154.2724 N   0  0  0  0  0  0  0  0  0  0  0  0
  151.1463  141.1597  157.2212 H   0  0  0  0  0  0  0  0  0  0  0  0
  150.4577  142.0781  155.8678 H   0  0  0  0  0  0  0  0  0  0  0  0
  152.0900  141.3869  155.7346 H   0  0  0  0  0  0  0  0  0  0  0  0
  150.3970  138.7084  157.2984 H   0  0  0  0  0  0  0  0  0  0  0  0
  149.7590  135.8880  154.8094 H   0  0  0  0  0  0  0  0  0  0  0  0
  149.4852  136.2011  156.4975 H   0  0  0  0  0  0  0  0  0  0  0  0
  147.3214  135.6182  155.8562 H   0  0  0  0  0  0  0  0  0  0  0  0
  147.2181  137.3483  155.6266 H   0  0  0  0  0  0  0  0  0  0  0  0
  148.0959  136.4878  153.1910 H   0  0  0  0  0  0  0  0  0  0  0  0
  147.0440  135.9030  151.5769 H   0  0  0  0  0  0  0  0  0  0  0  0
  144.2305  135.5463  151.5898 H   0  0  0  0  0  0  0  0  0  0  0  0
  145.3006  135.2255  150.2474 H   0  0  0  0  0  0  0  0  0  0  0  0
  144.8009  133.3078  152.5930 H   0  0  0  0  0  0  0  0  0  0  0  0
  146.4962  133.0049  150.0976 H   0  0  0  0  0  0  0  0  0  0  0  0
  146.9960  132.7183  151.7687 H   0  0  0  0  0  0  0  0  0  0  0  0
  146.0604  130.6505  150.2570 H   0  0  0  0  0  0  0  0  0  0  0  0
  145.5658  130.7837  151.9465 H   0  0  0  0  0  0  0  0  0  0  0  0
  142.8634  132.9832  151.2129 H   0  0  0  0  0  0  0  0  0  0  0  0
  143.7727  133.2908  149.7322 H   0  0  0  0  0  0  0  0  0  0  0  0
  149.4441  138.4240  153.1136 H   0  0  0  0  0  0  0  0  0  0  0  0
  1  2  1  0  0  0  0
  1 19  1  0  0  0  0
  1 20  1  0  0  0  0
  1 21  1  0  0  0  0
  2 18  1  0  0  0  0
  2  3  1  0  0  0  0
  3  4  2  0  0  0  0
  3 22  1  0  0  0  0
  4  5  1  0  0  0  0
  4 17  1  0  0  0  0
  5  6  1  0  0  0  0
  5 23  1  0  0  0  0
  5 24  1  0  0  0  0
  6  7  1  0  0  0  0
  6 25  1  0  0  0  0
  6 26  1  0  0  0  0
  7  8  1  0  0  0  0
  7 27  1  0  0  0  0
  8  9  2  0  0  0  0
  8 10  1  0  0  0  0
 10 11  1  0  0  0  0
 10 28  1  0  0  0  0
 11 12  1  0  0  0  0
 11 29  1  0  0  0  0
 11 30  1  0  0  0  0
 12 16  1  0  0  0  0
 12 13  1  0  0  0  0
 12 31  1  0  0  0  0
 13 14  1  0  0  0  0
 13 32  1  0  0  0  0
 13 33  1  0  0  0  0
 14 15  1  0  0  0  0
 14 34  1  0  0  0  0
 14 35  1  0  0  0  0
 15 16  1  0  0  0  0
 16 36  1  0  0  0  0
 16 37  1  0  0  0  0
 17 18  2  0  0  0  0
 17 38  1  0  0  0  0
M  END
> <s_m_source_file>
AV-unprocessed.smi

> <i_m_source_file_index>
3041

> <i_lp_mmshare_version>
43012

> <i_f3d_flags>
0

> <s_epik_input>
W0NIM11uMVtjSF1jKFtjSF1uMSlbQ0gyXVtDSDJdW05IXUMoPU8pW05IXVtDSDJdW0NAQEhdMltDSDJdW0NIMl1PW0NIMl0y

> <s_epik_cmdline>
J2VwaWtfcHl0aG9uJywgJy1waCcsICc3LjAnLCAnLXRuJywgJzgnLCAnLW1hJywgJzIwMCcsICctbWV0YWxfYmluZGluZycsICctaW1hZScsICc8aW5maWxlLm1hZT4nLCAnLW9tYWUnLCAnPG91dGZpbGUubWFlPic=

> <r_lp_tautomer_probability>
1

> <r_epik_Ionization_Penalty>
0.000557811

> <r_epik_Ionization_Penalty_Charging>
0

> <r_epik_Ionization_Penalty_Neutral>
0.000557811

> <r_epik_State_Penalty>
-0

> <r_epik_Charging_Adjusted_Penalty>
0

> <i_epik_Tot_Q>
0

> <i_epik_Tot_abs_Q>
0

> <r_epik_Metal_State_Penalty>
-0

> <b_epik_Metal_Only>
0

> <s_lp_Force_Field>
OPLS_2005

> <r_lp_Energy>
13.0487

> <b_lp_Chiralities_Consistent>
1

> <s_lp_Variant>
AV-unprocessed.smi:3041-1

> <Gold.Version>
5.8.1

> <Gold.Id.Protein>
6NUR|6NUR_protein|mol2

> <Gold.PLP.Fitness>
41.0768

> <Gold.PLP.PLP>
-27.6370

> <Gold.PLP.part.hbond>
-3.6071

> <Gold.PLP.part.metal>
0.0000

> <Gold.PLP.part.buried>
-4.8543

> <Gold.PLP.part.nonpolar>
-20.3034

> <Gold.PLP.part.repulsive>
0.3674

> <Gold.PLP.ligand.clash>
0.0000

> <Gold.PLP.ligand.torsion>
0.4051

> <Gold.PLP.Chemscore.Hbond>
2.9040

> <Gold.PLP.Chemscore.CHOScore>
1.8281

> <Gold.PLP.Chemscore.Metal>
0.0000

> <Gold.Chemscore.Hbonds>
donor molecule, donor type, donor heavy atom, donor atom, acceptor molecule, acceptor atom, score
      L1  H     7    27       P1  7948  1.00
      L1  H    10    28       P1  7948  0.82
      P1  H  7989  7998       L1    18  1.00
      L1  C    17    38       P1  7948  0.99
      L1  C    17    38       P1  7957  0.83

> <Gold.PLP.Chemscore.Internal.Correction>
0.0537

> <Gold.Rescore>
     Score         DG    S(hbond)    S(metal)    S(lipo)     H(rot)  DE(clash)    DE(int)     intcor
     17.25     -17.89       2.98        0.00      61.63       1.85       0.00       0.64       ----

> <Gold.Chemscore.Fitness>
17.2470

> <Gold.Chemscore.DG>
-17.8855

> <Gold.Chemscore.ZeroCoef>
-5.4800

> <Gold.Chemscore.Hbond>
2.9756

> <Gold.Chemscore.Metal>
0.0000

> <Gold.Chemscore.Lipo>
61.6257

> <Gold.Chemscore.Internal_Hbond>
0.0000

> <Gold.Chemscore.DEClash>
0.0021

> <Gold.Chemscore.DEInternal>
0.6363

> <Gold.Chemscore.Rot>
1.8528

> <Gold.Chemscore.Internal.Correction>
   9.000000E+99

> <Gold.Chemscore.Hbonds>
donor molecule, donor type, donor heavy atom, donor atom, acceptor molecule, acceptor atom, score
      L1  H     7    27       P1  7948  0.95
      L1  H    10    28       P1  7948  0.81
      P1  H  7989  7998       L1    18  0.44
      P1  H 10785 10796       L1    15  0.01

> <Gold.Chemscore.Hbond.Weighted>
-9.9386

> <Gold.Chemscore.Metal.Weighted>
-0.0000

> <Gold.Chemscore.Lipo.Weighted>
-7.2102

> <Gold.Chemscore.Internal_Hbond.Weighted>
0.0000

> <Gold.Chemscore.DEClash.Weighted>
0.0021

> <Gold.Chemscore.DEInternal.Weighted>
0.6363

> <Gold.Chemscore.Rot.Weighted>
4.7433

> <Gold.Chemscore.Internal.Correction.Weighted>
   9.000000E+99

> <Gold.Protein.RotatedTorsions>
[ 6907 6896 6895 6894 ] final  151.42 input  -60.11 | X-H torsion
[ 7974 7965 7964 7962 ] final   25.31 input  175.53 | X-H torsion
[ 8008 7997 7996 7995 ] final -140.92 input   59.86 | X-H torsion
[ 10167 10162 10161 10158 ] final   68.71 input  -65.29 | X-H torsion
[ 10718 10713 10712 10709 ] final    9.17 input   66.30 | X-H torsion
[ 10763 10752 10751 10750 ] final  120.07 input  -60.55 | X-H torsion
[ 11005 11000 10999 10996 ] final  -16.68 input  -57.11 | X-H torsion

> <Gold.Protein.ActiveResidues>
 VAL166  LYS551  ARG553  GLY616  TRP617  ASP618  TYR619  PRO620  LYS621  CYS622 
 ASP623  PHE694  ASN695  SER759  ASP760  ASP761  ALA762  ILE779  LEU786  VAL792 
 PHE793  MET794  SER795  GLU796  ALA797  LYS798  CYS799  TRP800  GLU811  SER814 

> <Gold.Protein.RotatedAtoms>
  152.1009  133.4249  159.4586 H   0  0  0  0  0  0  0  0  0  0  0  0  # atno 6907 bound_to 6896
  150.6864  134.2762  159.4617 H   0  0  0  0  0  0  0  0  0  0  0  0  # atno 6908 bound_to 6896
  152.0622  134.9586  160.0625 H   0  0  0  0  0  0  0  0  0  0  0  0  # atno 6909 bound_to 6896
  146.1895  139.7484  142.8842 H   0  0  0  0  0  0  0  0  0  0  0  0  # atno 7974 bound_to 7965
  155.4693  140.0551  157.2981 H   0  0  0  0  0  0  0  0  0  0  0  0  # atno 8008 bound_to 7997
  154.4705  140.2038  155.9961 H   0  0  0  0  0  0  0  0  0  0  0  0  # atno 8009 bound_to 7997
  156.1048  140.3213  155.7995 H   0  0  0  0  0  0  0  0  0  0  0  0  # atno 8010 bound_to 7997
  140.0757  144.5114  150.7196 H   0  0  0  0  0  0  0  0  0  0  0  0  # atno 10167 bound_to 10162
  156.9624  130.5938  149.5663 H   0  0  0  0  0  0  0  0  0  0  0  0  # atno 10718 bound_to 10713
  153.5929  135.3462  155.2917 H   0  0  0  0  0  0  0  0  0  0  0  0  # atno 10763 bound_to 10752
  154.8649  135.4209  154.2497 H   0  0  0  0  0  0  0  0  0  0  0  0  # atno 10764 bound_to 10752
  153.3308  135.7044  153.7020 H   0  0  0  0  0  0  0  0  0  0  0  0  # atno 10765 bound_to 10752
  140.8092  133.8153  155.9546 H   0  0  0  0  0  0  0  0  0  0  0  0  # atno 11005 bound_to 11000
  145.3837  141.0362  143.3163 LP  0  0  0  0  0  0  0  0  0  0  0  0  # atno 17320 bound_to 7965
  144.8459  139.5397  143.6879 LP  0  0  0  0  0  0  0  0  0  0  0  0  # atno 17321 bound_to 7965
  140.7103  143.2500  151.4601 LP  0  0  0  0  0  0  0  0  0  0  0  0  # atno 17342 bound_to 10162
  139.5809  144.1711  152.1967 LP  0  0  0  0  0  0  0  0  0  0  0  0  # atno 17343 bound_to 10162
  156.0316  130.5407  150.8549 LP  0  0  0  0  0  0  0  0  0  0  0  0  # atno 17370 bound_to 10713
  157.5648  131.0946  150.9505 LP  0  0  0  0  0  0  0  0  0  0  0  0  # atno 17371 bound_to 10713
  140.9215  134.2136  157.4923 LP  0  0  0  0  0  0  0  0  0  0  0  0  # atno 17394 bound_to 11000
  139.8715  134.9794  156.5036 LP  0  0  0  0  0  0  0  0  0  0  0  0  # atno 17395 bound_to 11000

$$$$
