AV-unprocessed.smi:1190|AV-procd|sdf|4982|dock2
  -GOLD-   22720 3583D 1   1.00000     0.00000
 Structure written by MMmdl.
 44 45  0  0  0  0  0  0  0  0  2 V2000
  151.1859  143.0506  157.3976 C   0  0  0  0  0  0  0  0  0  0  0  0
  151.7030  141.7697  157.0546 O   0  0  0  0  0  0  0  0  0  0  0  0
  150.9726  140.9784  156.1920 C   0  0  0  0  0  0  0  0  0  0  0  0
  149.6261  141.3120  155.9473 C   0  0  0  0  0  0  0  0  0  0  0  0
  148.8780  140.5086  155.0668 C   0  0  0  0  0  0  0  0  0  0  0  0
  149.4954  139.4019  154.4499 C   0  0  0  0  0  0  0  0  0  0  0  0
  148.7069  138.6028  153.5780 N   0  0  0  0  0  0  0  0  0  0  0  0
  147.3715  138.5917  153.4260 C   0  0  0  0  0  0  0  0  0  0  0  0
  146.5756  139.2883  154.0540 O   0  0  0  0  0  0  0  0  0  0  0  0
  146.9981  137.6955  152.5017 N   0  0  0  0  0  0  0  0  0  0  0  0
  145.6222  137.4323  152.0815 C   0  0  0  0  0  0  0  0  0  0  0  0
  145.4562  136.0997  151.3022 C   0  0  2  0  0  0  0  0  0  0  0  0
  143.9586  135.7385  151.1919 C   0  0  0  0  0  0  0  0  0  0  0  0
  146.2770  134.9855  151.8793 N   0  3  0  0  0  0  0  0  0  0  0  0
  146.1703  134.8505  153.3584 C   0  0  0  0  0  0  0  0  0  0  0  0
  147.0533  133.7032  153.8782 C   0  0  0  0  0  0  0  0  0  0  0  0
  146.6966  132.4903  153.2328 O   0  0  0  0  0  0  0  0  0  0  0  0
  146.9043  132.5684  151.8309 C   0  0  0  0  0  0  0  0  0  0  0  0
  146.0098  133.6691  151.2374 C   0  0  0  0  0  0  0  0  0  0  0  0
  150.8505  139.1418  154.7707 C   0  0  0  0  0  0  0  0  0  0  0  0
  151.5731  139.9083  155.6150 N   0  0  0  0  0  0  0  0  0  0  0  0
  151.8734  143.5451  158.0835 H   0  0  0  0  0  0  0  0  0  0  0  0
  150.2203  142.9700  157.8988 H   0  0  0  0  0  0  0  0  0  0  0  0
  151.0810  143.6874  156.5181 H   0  0  0  0  0  0  0  0  0  0  0  0
  149.1754  142.1683  156.4272 H   0  0  0  0  0  0  0  0  0  0  0  0
  147.8431  140.7449  154.8665 H   0  0  0  0  0  0  0  0  0  0  0  0
  149.2210  137.9241  153.0361 H   0  0  0  0  0  0  0  0  0  0  0  0
  147.7234  137.1735  152.0318 H   0  0  0  0  0  0  0  0  0  0  0  0
  144.9471  137.4628  152.9387 H   0  0  0  0  0  0  0  0  0  0  0  0
  145.3084  138.2685  151.4573 H   0  0  0  0  0  0  0  0  0  0  0  0
  145.8096  136.2747  150.2847 H   0  0  0  0  0  0  0  0  0  0  0  0
  143.3651  136.6058  150.9009 H   0  0  0  0  0  0  0  0  0  0  0  0
  143.5620  135.3714  152.1388 H   0  0  0  0  0  0  0  0  0  0  0  0
  143.7764  134.9792  150.4318 H   0  0  0  0  0  0  0  0  0  0  0  0
  146.4919  135.7632  153.8580 H   0  0  0  0  0  0  0  0  0  0  0  0
  145.1295  134.6775  153.6359 H   0  0  0  0  0  0  0  0  0  0  0  0
  148.1102  133.9205  153.7152 H   0  0  0  0  0  0  0  0  0  0  0  0
  146.9168  133.5827  154.9532 H   0  0  0  0  0  0  0  0  0  0  0  0
  147.9566  132.7598  151.6135 H   0  0  0  0  0  0  0  0  0  0  0  0
  146.6581  131.6047  151.3850 H   0  0  0  0  0  0  0  0  0  0  0  0
  144.9594  133.4053  151.3698 H   0  0  0  0  0  0  0  0  0  0  0  0
  146.1956  133.7120  150.1653 H   0  0  0  0  0  0  0  0  0  0  0  0
  151.3836  138.2948  154.3690 H   0  0  0  0  0  0  0  0  0  0  0  0
  147.2417  135.2135  151.6850 H   0  0  0  0  0  0  0  0  0  0  0  0
  1  2  1  0  0  0  0
  1 22  1  0  0  0  0
  1 23  1  0  0  0  0
  1 24  1  0  0  0  0
  2  3  1  0  0  0  0
  3 21  1  0  0  0  0
  3  4  2  0  0  0  0
  4  5  1  0  0  0  0
  4 25  1  0  0  0  0
  5  6  2  0  0  0  0
  5 26  1  0  0  0  0
  6  7  1  0  0  0  0
  6 20  1  0  0  0  0
  7  8  1  0  0  0  0
  7 27  1  0  0  0  0
  8  9  2  0  0  0  0
  8 10  1  0  0  0  0
 10 11  1  0  0  0  0
 10 28  1  0  0  0  0
 11 12  1  0  0  0  0
 11 29  1  0  0  0  0
 11 30  1  0  0  0  0
 12 13  1  0  0  0  0
 12 14  1  0  0  0  0
 12 31  1  0  0  0  0
 13 32  1  0  0  0  0
 13 33  1  0  0  0  0
 13 34  1  0  0  0  0
 14 19  1  0  0  0  0
 14 15  1  0  0  0  0
 14 44  1  0  0  0  0
 15 16  1  0  0  0  0
 15 35  1  0  0  0  0
 15 36  1  0  0  0  0
 16 17  1  0  0  0  0
 16 37  1  0  0  0  0
 16 38  1  0  0  0  0
 17 18  1  0  0  0  0
 18 19  1  0  0  0  0
 18 39  1  0  0  0  0
 18 40  1  0  0  0  0
 19 41  1  0  0  0  0
 19 42  1  0  0  0  0
 20 21  2  0  0  0  0
 20 43  1  0  0  0  0
M  CHG  1  14   1
M  END
> <s_m_source_file>
AV-unprocessed.smi

> <i_m_source_file_index>
1190

> <i_lp_mmshare_version>
43012

> <i_f3d_flags>
0

> <s_epik_input>
W0NIM11PYzFbY0hdW2NIXWMoW2NIXW4xKVtOSF1DKD1PKVtOSF1bQ0gyXVtDQEhdKFtDSDNdKU4yW0NIMl1bQ0gyXU9bQ0gyXVtDSDJdMg==

> <s_epik_cmdline>
J2VwaWtfcHl0aG9uJywgJy1waCcsICc3LjAnLCAnLXRuJywgJzgnLCAnLW1hJywgJzIwMCcsICctbWV0YWxfYmluZGluZycsICctaW1hZScsICc8aW5maWxlLm1hZT4nLCAnLW9tYWUnLCAnPG91dGZpbGUubWFlPic=

> <r_lp_tautomer_probability>
1

> <r_epik_Ionization_Penalty>
0.602608

> <r_epik_Ionization_Penalty_Charging>
0.602531

> <r_epik_Ionization_Penalty_Neutral>
7.70246e-05

> <r_epik_State_Penalty>
0.617039

> <r_epik_Charging_Adjusted_Penalty>
1.21957

> <i_epik_Tot_Q>
1

> <i_epik_Tot_abs_Q>
1

> <r_epik_Metal_State_Penalty>
0.617043

> <b_epik_Metal_Only>
0

> <s_lp_Force_Field>
OPLS_2005

> <r_lp_Energy>
31.3292

> <b_lp_Chiralities_Consistent>
1

> <s_lp_Variant>
AV-unprocessed.smi:1190-3

> <Gold.Version>
5.8.1

> <Gold.Id.Protein>
6NUR|6NUR_protein|mol2

> <Gold.PLP.Fitness>
40.8782

> <Gold.PLP.PLP>
-30.6849

> <Gold.PLP.part.hbond>
-4.7792

> <Gold.PLP.part.metal>
0.0000

> <Gold.PLP.part.buried>
1.9026

> <Gold.PLP.part.nonpolar>
-29.0479

> <Gold.PLP.part.repulsive>
0.4617

> <Gold.PLP.ligand.clash>
0.0229

> <Gold.PLP.ligand.torsion>
0.6366

> <Gold.PLP.Chemscore.Hbond>
3.7992

> <Gold.PLP.Chemscore.CHOScore>
0.0000

> <Gold.PLP.Chemscore.Metal>
0.0000

> <Gold.Chemscore.Hbonds>
donor molecule, donor type, donor heavy atom, donor atom, acceptor molecule, acceptor atom, score
      L1  H     7    27       P1  7948  0.83
      L1  H    10    28       P1  7948  1.00
      L1  H    14    44       P1  7948  2.00

> <Gold.PLP.Chemscore.Internal.Correction>
0.0917

> <Gold.Rescore>
     Score         DG    S(hbond)    S(metal)    S(lipo)     H(rot)  DE(clash)    DE(int)     intcor
     15.53     -17.63       2.67        0.00      66.90       1.79       0.36       1.74       ----

> <Gold.Chemscore.Fitness>
15.5277

> <Gold.Chemscore.DG>
-17.6322

> <Gold.Chemscore.ZeroCoef>
-5.4800

> <Gold.Chemscore.Hbond>
2.6653

> <Gold.Chemscore.Metal>
0.0000

> <Gold.Chemscore.Lipo>
66.9036

> <Gold.Chemscore.Internal_Hbond>
0.0000

> <Gold.Chemscore.DEClash>
0.3648

> <Gold.Chemscore.DEInternal>
1.7397

> <Gold.Chemscore.Rot>
1.7881

> <Gold.Chemscore.Internal.Correction>
   9.000000E+99

> <Gold.Chemscore.Hbonds>
donor molecule, donor type, donor heavy atom, donor atom, acceptor molecule, acceptor atom, score
      L1  H     7    27       P1  7948  0.76
      L1  H    10    28       P1  7948  0.94
      L1  H    14    44       P1  7948  0.92

> <Gold.Chemscore.Hbond.Weighted>
-8.9020

> <Gold.Chemscore.Metal.Weighted>
-0.0000

> <Gold.Chemscore.Lipo.Weighted>
-7.8277

> <Gold.Chemscore.Internal_Hbond.Weighted>
0.0000

> <Gold.Chemscore.DEClash.Weighted>
0.3648

> <Gold.Chemscore.DEInternal.Weighted>
1.7397

> <Gold.Chemscore.Rot.Weighted>
4.5775

> <Gold.Chemscore.Internal.Correction.Weighted>
   9.000000E+99

> <Gold.Protein.RotatedTorsions>
[ 6907 6896 6895 6894 ] final  -98.26 input  -60.11 | X-H torsion
[ 7974 7965 7964 7962 ] final  -54.47 input  175.53 | X-H torsion
[ 8008 7997 7996 7995 ] final  -61.73 input   59.86 | X-H torsion
[ 10167 10162 10161 10158 ] final   47.66 input  -65.29 | X-H torsion
[ 10718 10713 10712 10709 ] final    8.48 input   66.30 | X-H torsion
[ 10763 10752 10751 10750 ] final  124.47 input  -60.55 | X-H torsion
[ 11005 11000 10999 10996 ] final  -58.51 input  -57.11 | X-H torsion

> <Gold.Protein.ActiveResidues>
 VAL166  LYS551  ARG553  GLY616  TRP617  ASP618  TYR619  PRO620  LYS621  CYS622 
 ASP623  PHE694  ASN695  SER759  ASP760  ASP761  ALA762  ILE779  LEU786  VAL792 
 PHE793  MET794  SER795  GLU796  ALA797  LYS798  CYS799  TRP800  GLU811  SER814 

> <Gold.Protein.RotatedAtoms>
  150.7041  134.1221  159.4038 H   0  0  0  0  0  0  0  0  0  0  0  0  # atno 6907 bound_to 6896
  151.9207  135.0297  160.0531 H   0  0  0  0  0  0  0  0  0  0  0  0  # atno 6908 bound_to 6896
  152.2258  133.4984  159.5225 H   0  0  0  0  0  0  0  0  0  0  0  0  # atno 6909 bound_to 6896
  145.8852  140.8114  142.9819 H   0  0  0  0  0  0  0  0  0  0  0  0  # atno 7974 bound_to 7965
  154.4463  140.1011  156.6476 H   0  0  0  0  0  0  0  0  0  0  0  0  # atno 8008 bound_to 7997
  155.5433  140.3484  155.4433 H   0  0  0  0  0  0  0  0  0  0  0  0  # atno 8009 bound_to 7997
  156.0582  140.1320  156.9961 H   0  0  0  0  0  0  0  0  0  0  0  0  # atno 8010 bound_to 7997
  140.3013  144.2930  150.6218 H   0  0  0  0  0  0  0  0  0  0  0  0  # atno 10167 bound_to 10162
  156.9522  130.5901  149.5657 H   0  0  0  0  0  0  0  0  0  0  0  0  # atno 10718 bound_to 10713
  153.6620  135.3345  155.3129 H   0  0  0  0  0  0  0  0  0  0  0  0  # atno 10763 bound_to 10752
  154.8512  135.4366  154.1795 H   0  0  0  0  0  0  0  0  0  0  0  0  # atno 10764 bound_to 10752
  153.2764  135.7005  153.7505 H   0  0  0  0  0  0  0  0  0  0  0  0  # atno 10765 bound_to 10752
  141.1210  133.6612  156.4932 H   0  0  0  0  0  0  0  0  0  0  0  0  # atno 11005 bound_to 11000
  144.6728  140.1445  143.7434 LP  0  0  0  0  0  0  0  0  0  0  0  0  # atno 17320 bound_to 7965
  145.8975  139.2411  143.1513 LP  0  0  0  0  0  0  0  0  0  0  0  0  # atno 17321 bound_to 7965
  140.5648  143.2187  151.7702 LP  0  0  0  0  0  0  0  0  0  0  0  0  # atno 17342 bound_to 10162
  139.4914  144.4299  151.9884 LP  0  0  0  0  0  0  0  0  0  0  0  0  # atno 17343 bound_to 10162
  156.0358  130.5445  150.8649 LP  0  0  0  0  0  0  0  0  0  0  0  0  # atno 17370 bound_to 10713
  157.5714  131.0946  150.9412 LP  0  0  0  0  0  0  0  0  0  0  0  0  # atno 17371 bound_to 10713
  140.4506  134.6932  157.5038 LP  0  0  0  0  0  0  0  0  0  0  0  0  # atno 17394 bound_to 11000
  140.0168  134.6607  155.9298 LP  0  0  0  0  0  0  0  0  0  0  0  0  # atno 17395 bound_to 11000

$$$$
