AV-unprocessed.smi:1205|AV-procd|sdf|5043|dock5
  -GOLD-   22720 4 63D 1   1.00000     0.00000
 Structure written by MMmdl.
 49 50  0  0  0  0  0  0  0  0  2 V2000
  146.3272  129.7202  152.0390 C   0  0  0  0  0  0  0  0  0  0  0  0
  146.1243  131.1949  151.8528 C   0  0  0  0  0  0  0  0  0  0  0  0
  146.8501  132.2641  152.4541 C   0  0  0  0  0  0  0  0  0  0  0  0
  146.2432  133.3724  151.9296 C   0  0  0  0  0  0  0  0  0  0  0  0
  146.5277  134.6848  152.1438 N   0  0  0  0  0  0  0  0  0  0  0  0
  145.7296  135.6467  152.6386 C   0  0  0  0  0  0  0  0  0  0  0  0
  144.5598  135.4941  152.9908 O   0  0  0  0  0  0  0  0  0  0  0  0
  146.3729  136.8217  152.7097 N   0  0  0  0  0  0  0  0  0  0  0  0
  145.7918  138.0772  153.1794 C   0  0  0  0  0  0  0  0  0  0  0  0
  146.8184  139.2335  153.2233 C   0  0  2  0  0  0  0  0  0  0  0  0
  148.2019  138.8136  153.7679 C   0  0  0  0  0  0  0  0  0  0  0  0
  146.2478  140.4080  153.9468 N   0  3  1  0  0  0  0  0  0  0  0  0
  145.6090  140.1003  155.2559 C   0  0  0  0  0  0  0  0  0  0  0  0
  144.8361  141.3188  155.7830 C   0  0  0  0  0  0  0  0  0  0  0  0
  145.7553  142.5442  155.8942 C   0  0  0  0  0  0  0  0  0  0  0  0
  146.4773  142.8272  154.5630 C   0  0  2  0  0  0  0  0  0  0  0  0
  145.5483  143.4421  153.5015 C   0  0  0  0  0  0  0  0  0  0  0  0
  147.1880  141.5571  154.0492 C   0  0  0  0  0  0  0  0  0  0  0  0
  145.2363  132.9688  151.0810 N   0  0  0  0  0  0  0  0  0  0  0  0
  144.3196  133.7674  150.2911 C   0  0  0  0  0  0  0  0  0  0  0  0
  145.1672  131.6209  151.0362 N   0  0  0  0  0  0  0  0  0  0  0  0
  147.0882  129.5188  152.7933 H   0  0  0  0  0  0  0  0  0  0  0  0
  146.6480  129.2483  151.1101 H   0  0  0  0  0  0  0  0  0  0  0  0
  145.4056  129.2338  152.3605 H   0  0  0  0  0  0  0  0  0  0  0  0
  147.6747  132.2039  153.1483 H   0  0  0  0  0  0  0  0  0  0  0  0
  147.4610  134.9689  151.8849 H   0  0  0  0  0  0  0  0  0  0  0  0
  147.3336  136.8541  152.4001 H   0  0  0  0  0  0  0  0  0  0  0  0
  144.9827  138.3362  152.4956 H   0  0  0  0  0  0  0  0  0  0  0  0
  145.3225  137.9290  154.1525 H   0  0  0  0  0  0  0  0  0  0  0  0
  146.9647  139.5392  152.1863 H   0  0  0  0  0  0  0  0  0  0  0  0
  148.6774  138.0823  153.1148 H   0  0  0  0  0  0  0  0  0  0  0  0
  148.1270  138.3628  154.7576 H   0  0  0  0  0  0  0  0  0  0  0  0
  148.8837  139.6609  153.8355 H   0  0  0  0  0  0  0  0  0  0  0  0
  144.9226  139.2599  155.1610 H   0  0  0  0  0  0  0  0  0  0  0  0
  146.3679  139.8090  155.9832 H   0  0  0  0  0  0  0  0  0  0  0  0
  143.9972  141.5384  155.1221 H   0  0  0  0  0  0  0  0  0  0  0  0
  144.4045  141.0911  156.7581 H   0  0  0  0  0  0  0  0  0  0  0  0
  145.1869  143.4172  156.2163 H   0  0  0  0  0  0  0  0  0  0  0  0
  146.4978  142.3607  156.6722 H   0  0  0  0  0  0  0  0  0  0  0  0
  147.2471  143.5731  154.7648 H   0  0  0  0  0  0  0  0  0  0  0  0
  144.7550  142.7555  153.2059 H   0  0  0  0  0  0  0  0  0  0  0  0
  146.1050  143.7075  152.6022 H   0  0  0  0  0  0  0  0  0  0  0  0
  145.0771  144.3523  153.8734 H   0  0  0  0  0  0  0  0  0  0  0  0
  148.0056  141.2969  154.7226 H   0  0  0  0  0  0  0  0  0  0  0  0
  147.6392  141.7642  153.0778 H   0  0  0  0  0  0  0  0  0  0  0  0
  143.9101  134.5724  150.9022 H   0  0  0  0  0  0  0  0  0  0  0  0
  143.4965  133.1533  149.9230 H   0  0  0  0  0  0  0  0  0  0  0  0
  144.8497  134.1980  149.4414 H   0  0  0  0  0  0  0  0  0  0  0  0
  145.5025  140.7394  153.3510 H   0  0  0  0  0  0  0  0  0  0  0  0
  1  2  1  0  0  0  0
  1 22  1  0  0  0  0
  1 23  1  0  0  0  0
  1 24  1  0  0  0  0
  2 21  2  0  0  0  0
  2  3  1  0  0  0  0
  3  4  2  0  0  0  0
  3 25  1  0  0  0  0
  4  5  1  0  0  0  0
  4 19  1  0  0  0  0
  5  6  1  0  0  0  0
  5 26  1  0  0  0  0
  6  7  2  0  0  0  0
  6  8  1  0  0  0  0
  8  9  1  0  0  0  0
  8 27  1  0  0  0  0
  9 10  1  0  0  0  0
  9 28  1  0  0  0  0
  9 29  1  0  0  0  0
 10 11  1  0  0  0  0
 10 12  1  0  0  0  0
 10 30  1  0  0  0  0
 11 31  1  0  0  0  0
 11 32  1  0  0  0  0
 11 33  1  0  0  0  0
 12 18  1  0  0  0  0
 12 13  1  0  0  0  0
 12 49  1  0  0  0  0
 13 14  1  0  0  0  0
 13 34  1  0  0  0  0
 13 35  1  0  0  0  0
 14 15  1  0  0  0  0
 14 36  1  0  0  0  0
 14 37  1  0  0  0  0
 15 16  1  0  0  0  0
 15 38  1  0  0  0  0
 15 39  1  0  0  0  0
 16 17  1  0  0  0  0
 16 18  1  0  0  0  0
 16 40  1  0  0  0  0
 17 41  1  0  0  0  0
 17 42  1  0  0  0  0
 17 43  1  0  0  0  0
 18 44  1  0  0  0  0
 18 45  1  0  0  0  0
 19 20  1  0  0  0  0
 19 21  1  0  0  0  0
 20 46  1  0  0  0  0
 20 47  1  0  0  0  0
 20 48  1  0  0  0  0
M  CHG  1  12   1
M  END
> <s_m_source_file>
AV-unprocessed.smi

> <i_m_source_file_index>
1205

> <i_lp_mmshare_version>
43012

> <i_f3d_flags>
0

> <s_epik_input>
W0NIM11jMVtjSF1jKG4objEpW0NIM10pW05IXUMoPU8pW05IXVtDSDJdW0NASF0oW0NIM10pTjJbQ0gyXVtDSDJdW0NIMl1bQ0BASF0oW0NIM10pW0NIMl0y

> <s_epik_cmdline>
J2VwaWtfcHl0aG9uJywgJy1waCcsICc3LjAnLCAnLXRuJywgJzgnLCAnLW1hJywgJzIwMCcsICctbWV0YWxfYmluZGluZycsICctaW1hZScsICc8aW5maWxlLm1hZT4nLCAnLW9tYWUnLCAnPG91dGZpbGUubWFlPic=

> <r_lp_tautomer_probability>
1

> <r_epik_Ionization_Penalty>
0.0020309

> <r_epik_Ionization_Penalty_Charging>
0.00195276

> <r_epik_Ionization_Penalty_Neutral>
7.81448e-05

> <r_epik_State_Penalty>
0.00133177

> <r_epik_Charging_Adjusted_Penalty>
0.00328452

> <i_epik_Tot_Q>
1

> <i_epik_Tot_abs_Q>
1

> <r_epik_Metal_State_Penalty>
-0

> <b_epik_Metal_Only>
0

> <s_lp_Force_Field>
OPLS_2005

> <r_lp_Energy>
25.0457

> <b_lp_Chiralities_Consistent>
1

> <s_lp_Variant>
AV-unprocessed.smi:1205-5

> <Gold.Version>
5.8.1

> <Gold.Id.Protein>
6NUR|6NUR_protein|mol2

> <Gold.PLP.Fitness>
44.6143

> <Gold.PLP.PLP>
-34.2155

> <Gold.PLP.part.hbond>
-3.0000

> <Gold.PLP.part.metal>
0.0000

> <Gold.PLP.part.buried>
-4.7374

> <Gold.PLP.part.nonpolar>
-28.4009

> <Gold.PLP.part.repulsive>
0.2279

> <Gold.PLP.ligand.clash>
0.0000

> <Gold.PLP.ligand.torsion>
0.8228

> <Gold.PLP.Chemscore.Hbond>
3.9666

> <Gold.PLP.Chemscore.CHOScore>
0.0000

> <Gold.PLP.Chemscore.Metal>
0.0000

> <Gold.Chemscore.Hbonds>
donor molecule, donor type, donor heavy atom, donor atom, acceptor molecule, acceptor atom, score
      L1  H     5    26       P1  7948  1.00
      L1  H     8    27       P1  7948  1.00
      L1  H    12    49       P1 10175  2.00

> <Gold.PLP.Chemscore.Internal.Correction>
0.1446

> <Gold.Rescore>
     Score         DG    S(hbond)    S(metal)    S(lipo)     H(rot)  DE(clash)    DE(int)     intcor
     18.75     -19.55       2.80        0.00      72.29       1.47       0.05       0.75       ----

> <Gold.Chemscore.Fitness>
18.7500

> <Gold.Chemscore.DG>
-19.5525

> <Gold.Chemscore.ZeroCoef>
-5.4800

> <Gold.Chemscore.Hbond>
2.8045

> <Gold.Chemscore.Metal>
0.0000

> <Gold.Chemscore.Lipo>
72.2920

> <Gold.Chemscore.Internal_Hbond>
0.0000

> <Gold.Chemscore.DEClash>
0.0488

> <Gold.Chemscore.DEInternal>
0.7536

> <Gold.Chemscore.Rot>
1.4658

> <Gold.Chemscore.Internal.Correction>
   9.000000E+99

> <Gold.Chemscore.Hbonds>
donor molecule, donor type, donor heavy atom, donor atom, acceptor molecule, acceptor atom, score
      L1  H     5    26       P1  7948  0.83
      L1  H     8    27       P1  7948  0.99
      L1  H    12    49       P1 10175  0.73

> <Gold.Chemscore.Hbond.Weighted>
-9.3669

> <Gold.Chemscore.Metal.Weighted>
-0.0000

> <Gold.Chemscore.Lipo.Weighted>
-8.4582

> <Gold.Chemscore.Internal_Hbond.Weighted>
0.0000

> <Gold.Chemscore.DEClash.Weighted>
0.0488

> <Gold.Chemscore.DEInternal.Weighted>
0.7536

> <Gold.Chemscore.Rot.Weighted>
3.7526

> <Gold.Chemscore.Internal.Correction.Weighted>
   9.000000E+99

> <Gold.Protein.RotatedTorsions>
[ 6907 6896 6895 6894 ] final  -35.80 input  -60.11 | X-H torsion
[ 7974 7965 7964 7962 ] final  -64.51 input  175.53 | X-H torsion
[ 8008 7997 7996 7995 ] final  -65.99 input   59.86 | X-H torsion
[ 10167 10162 10161 10158 ] final -142.37 input  -65.29 | X-H torsion
[ 10718 10713 10712 10709 ] final  -67.87 input   66.30 | X-H torsion
[ 10763 10752 10751 10750 ] final   13.60 input  -60.55 | X-H torsion
[ 11005 11000 10999 10996 ] final  157.75 input  -57.11 | X-H torsion

> <Gold.Protein.ActiveResidues>
 VAL166  LYS551  ARG553  GLY616  TRP617  ASP618  TYR619  PRO620  LYS621  CYS622 
 ASP623  PHE694  ASN695  SER759  ASP760  ASP761  ALA762  ILE779  LEU786  VAL792 
 PHE793  MET794  SER795  GLU796  ALA797  LYS798  CYS799  TRP800  GLU811  SER814 

> <Gold.Protein.RotatedAtoms>
  151.0352  134.9568  159.8132 H   0  0  0  0  0  0  0  0  0  0  0  0  # atno 6907 bound_to 6896
  152.5353  134.2729  159.8988 H   0  0  0  0  0  0  0  0  0  0  0  0  # atno 6908 bound_to 6896
  151.2739  133.4199  159.2657 H   0  0  0  0  0  0  0  0  0  0  0  0  # atno 6909 bound_to 6896
  145.7658  140.8838  143.0406 H   0  0  0  0  0  0  0  0  0  0  0  0  # atno 7974 bound_to 7965
  154.4706  140.0922  156.7134 H   0  0  0  0  0  0  0  0  0  0  0  0  # atno 8008 bound_to 7997
  155.4735  140.3465  155.4311 H   0  0  0  0  0  0  0  0  0  0  0  0  # atno 8009 bound_to 7997
  156.1032  140.1428  156.9428 H   0  0  0  0  0  0  0  0  0  0  0  0  # atno 8010 bound_to 7997
  139.8095  143.7723  152.2663 H   0  0  0  0  0  0  0  0  0  0  0  0  # atno 10167 bound_to 10162
  156.0534  130.4285  150.1918 H   0  0  0  0  0  0  0  0  0  0  0  0  # atno 10718 bound_to 10713
  153.1705  135.6811  153.8614 H   0  0  0  0  0  0  0  0  0  0  0  0  # atno 10763 bound_to 10752
  153.7980  135.3160  155.3388 H   0  0  0  0  0  0  0  0  0  0  0  0  # atno 10764 bound_to 10752
  154.7995  135.4787  154.0332 H   0  0  0  0  0  0  0  0  0  0  0  0  # atno 10765 bound_to 10752
  140.1799  134.8483  157.2790 H   0  0  0  0  0  0  0  0  0  0  0  0  # atno 11005 bound_to 11000
  144.6822  139.9786  143.7483 LP  0  0  0  0  0  0  0  0  0  0  0  0  # atno 17320 bound_to 7965
  146.0219  139.3258  143.0808 LP  0  0  0  0  0  0  0  0  0  0  0  0  # atno 17321 bound_to 7965
  139.7867  144.7425  151.0012 LP  0  0  0  0  0  0  0  0  0  0  0  0  # atno 17342 bound_to 10162
  140.7818  143.4484  151.0448 LP  0  0  0  0  0  0  0  0  0  0  0  0  # atno 17343 bound_to 10162
  156.9998  130.9919  151.3394 LP  0  0  0  0  0  0  0  0  0  0  0  0  # atno 17370 bound_to 10713
  157.5483  130.8165  149.8113 LP  0  0  0  0  0  0  0  0  0  0  0  0  # atno 17371 bound_to 10713
  140.2280  134.3944  155.7535 LP  0  0  0  0  0  0  0  0  0  0  0  0  # atno 17394 bound_to 11000
  141.2222  133.7200  156.8595 LP  0  0  0  0  0  0  0  0  0  0  0  0  # atno 17395 bound_to 11000

$$$$
