AV-unprocessed.smi:1125|AV-procd|sdf|4836|dock9
  -GOLD-   22720 3403D 1   1.00000     0.00000
 Structure written by MMmdl.
 45 46  0  0  0  0  0  0  0  0  1 V2000
  143.7162  132.6432  148.2971 C   0  0  0  0  0  0  0  0  0  0  0  0
  144.7803  133.0983  149.1806 N   0  0  0  0  0  0  0  0  0  0  0  0
  145.6590  131.9727  149.5005 C   0  0  0  0  0  0  0  0  0  0  0  0
  146.8271  132.4449  150.3843 C   0  0  0  0  0  0  0  0  0  0  0  0
  146.3126  133.0870  151.6817 C   0  0  0  0  0  0  0  0  0  0  0  0
  147.4313  133.6348  152.4425 N   0  0  0  0  0  0  0  0  0  0  0  0
  148.0591  133.0125  153.4527 C   0  0  0  0  0  0  0  0  0  0  0  0
  147.7474  131.8930  153.8587 O   0  0  0  0  0  0  0  0  0  0  0  0
  149.2131  133.7700  154.1109 C   0  0  0  0  0  0  0  0  0  0  0  0
  149.7098  133.0221  155.3143 C   0  0  0  0  0  0  0  0  0  0  0  0
  149.8078  133.4973  156.5977 C   0  0  0  0  0  0  0  0  0  0  0  0
  150.4327  132.2940  157.6887 S   0  0  0  0  0  0  0  0  0  0  0  0
  150.5542  131.1604  156.3382 C   0  0  0  0  0  0  0  0  0  0  0  0
  151.0694  129.7446  156.4401 C   0  0  0  0  0  0  0  0  0  0  0  0
  151.3341  129.3889  157.9160 C   0  0  0  0  0  0  0  0  0  0  0  0
  152.3998  129.5749  155.6748 C   0  0  0  0  0  0  0  0  0  0  0  0
  150.0476  128.7715  155.8203 C   0  0  0  0  0  0  0  0  0  0  0  0
  150.1402  131.6981  155.1848 N   0  0  0  0  0  0  0  0  0  0  0  0
  145.2931  134.1856  151.3319 C   0  0  0  0  0  0  0  0  0  0  0  0
  144.1914  133.6425  150.4047 C   0  0  0  0  0  0  0  0  0  0  0  0
  144.1315  132.2483  147.3695 H   0  0  0  0  0  0  0  0  0  0  0  0
  143.0547  133.4704  148.0376 H   0  0  0  0  0  0  0  0  0  0  0  0
  143.1168  131.8604  148.7644 H   0  0  0  0  0  0  0  0  0  0  0  0
  145.0962  131.1860  150.0057 H   0  0  0  0  0  0  0  0  0  0  0  0
  146.0528  131.5438  148.5783 H   0  0  0  0  0  0  0  0  0  0  0  0
  147.4776  131.6012  150.6174 H   0  0  0  0  0  0  0  0  0  0  0  0
  147.4353  133.1601  149.8275 H   0  0  0  0  0  0  0  0  0  0  0  0
  145.8169  132.3148  152.2732 H   0  0  0  0  0  0  0  0  0  0  0  0
  147.7604  134.5509  152.1737 H   0  0  0  0  0  0  0  0  0  0  0  0
  150.0101  133.9140  153.3799 H   0  0  0  0  0  0  0  0  0  0  0  0
  148.8743  134.7667  154.3959 H   0  0  0  0  0  0  0  0  0  0  0  0
  149.5451  134.4780  156.9659 H   0  0  0  0  0  0  0  0  0  0  0  0
  151.7244  128.3756  158.0172 H   0  0  0  0  0  0  0  0  0  0  0  0
  150.4223  129.4456  158.5116 H   0  0  0  0  0  0  0  0  0  0  0  0
  152.0611  130.0683  158.3629 H   0  0  0  0  0  0  0  0  0  0  0  0
  153.1778  130.2292  156.0699 H   0  0  0  0  0  0  0  0  0  0  0  0
  152.2854  129.7958  154.6128 H   0  0  0  0  0  0  0  0  0  0  0  0
  152.7722  128.5526  155.7502 H   0  0  0  0  0  0  0  0  0  0  0  0
  150.3999  127.7404  155.8672 H   0  0  0  0  0  0  0  0  0  0  0  0
  149.8603  129.0081  154.7721 H   0  0  0  0  0  0  0  0  0  0  0  0
  149.0903  128.8109  156.3415 H   0  0  0  0  0  0  0  0  0  0  0  0
  144.8417  134.5852  152.2407 H   0  0  0  0  0  0  0  0  0  0  0  0
  145.7974  135.0214  150.8442 H   0  0  0  0  0  0  0  0  0  0  0  0
  143.5025  134.4490  150.1505 H   0  0  0  0  0  0  0  0  0  0  0  0
  143.6100  132.8745  150.9178 H   0  0  0  0  0  0  0  0  0  0  0  0
  1  2  1  0  0  0  0
  1 21  1  0  0  0  0
  1 22  1  0  0  0  0
  1 23  1  0  0  0  0
  2 20  1  0  0  0  0
  2  3  1  0  0  0  0
  3  4  1  0  0  0  0
  3 24  1  0  0  0  0
  3 25  1  0  0  0  0
  4  5  1  0  0  0  0
  4 26  1  0  0  0  0
  4 27  1  0  0  0  0
  5  6  1  0  0  0  0
  5 19  1  0  0  0  0
  5 28  1  0  0  0  0
  6  7  1  0  0  0  0
  6 29  1  0  0  0  0
  7  8  2  0  0  0  0
  7  9  1  0  0  0  0
  9 10  1  0  0  0  0
  9 30  1  0  0  0  0
  9 31  1  0  0  0  0
 10 18  1  0  0  0  0
 10 11  2  0  0  0  0
 11 12  1  0  0  0  0
 11 32  1  0  0  0  0
 12 13  1  0  0  0  0
 13 14  1  0  0  0  0
 13 18  2  0  0  0  0
 14 15  1  0  0  0  0
 14 16  1  0  0  0  0
 14 17  1  0  0  0  0
 15 33  1  0  0  0  0
 15 34  1  0  0  0  0
 15 35  1  0  0  0  0
 16 36  1  0  0  0  0
 16 37  1  0  0  0  0
 16 38  1  0  0  0  0
 17 39  1  0  0  0  0
 17 40  1  0  0  0  0
 17 41  1  0  0  0  0
 19 20  1  0  0  0  0
 19 42  1  0  0  0  0
 19 43  1  0  0  0  0
 20 44  1  0  0  0  0
 20 45  1  0  0  0  0
M  END
> <s_m_source_file>
AV-unprocessed.smi

> <i_m_source_file_index>
1125

> <i_lp_mmshare_version>
43012

> <i_f3d_flags>
0

> <s_epik_input>
W0NIM11OMVtDSDJdW0NIMl1bQ0hdKFtDSDJdW0NIMl0xKVtOSF1DKD1PKVtDSDJdYzJbY0hdc2MobjIpQyhbQ0gzXSkoW0NIM10pW0NIM10=

> <s_epik_cmdline>
J2VwaWtfcHl0aG9uJywgJy1waCcsICc3LjAnLCAnLXRuJywgJzgnLCAnLW1hJywgJzIwMCcsICctbWV0YWxfYmluZGluZycsICctaW1hZScsICc8aW5maWxlLm1hZT4nLCAnLW9tYWUnLCAnPG91dGZpbGUubWFlPic=

> <r_epik_Ionization_Penalty>
2.53567

> <r_epik_Ionization_Penalty_Charging>
0

> <r_epik_Ionization_Penalty_Neutral>
2.53567

> <r_epik_State_Penalty>
2.70312

> <r_epik_Charging_Adjusted_Penalty>
2.70312

> <i_epik_Tot_Q>
0

> <i_epik_Tot_abs_Q>
0

> <r_epik_Metal_State_Penalty>
2.70311

> <b_epik_Metal_Only>
0

> <s_lp_Force_Field>
OPLS_2005

> <r_lp_Energy>
6.33754

> <b_lp_Chiralities_Consistent>
1

> <s_lp_Variant>
AV-unprocessed.smi:1125-3

> <Gold.Version>
5.8.1

> <Gold.Id.Protein>
6NUR|6NUR_protein|mol2

> <Gold.PLP.Fitness>
35.0146

> <Gold.PLP.PLP>
-33.0548

> <Gold.PLP.part.hbond>
-1.0000

> <Gold.PLP.part.metal>
0.0000

> <Gold.PLP.part.buried>
1.1952

> <Gold.PLP.part.nonpolar>
-34.3397

> <Gold.PLP.part.repulsive>
2.5793

> <Gold.PLP.ligand.clash>
0.0000

> <Gold.PLP.ligand.torsion>
0.5118

> <Gold.PLP.Chemscore.Hbond>
0.9913

> <Gold.PLP.Chemscore.CHOScore>
0.0000

> <Gold.PLP.Chemscore.Metal>
0.0000

> <Gold.Chemscore.Hbonds>
donor molecule, donor type, donor heavy atom, donor atom, acceptor molecule, acceptor atom, score
      L1  H     6    29       P1  7948  0.99

> <Gold.PLP.Chemscore.Internal.Correction>
0.0097

> <Gold.Rescore>
     Score         DG    S(hbond)    S(metal)    S(lipo)     H(rot)  DE(clash)    DE(int)     intcor
     11.56     -14.99       0.60        0.00      93.73       1.35       1.65       1.78       ----

> <Gold.Chemscore.Fitness>
11.5618

> <Gold.Chemscore.DG>
-14.9898

> <Gold.Chemscore.ZeroCoef>
-5.4800

> <Gold.Chemscore.Hbond>
0.6006

> <Gold.Chemscore.Metal>
0.0000

> <Gold.Chemscore.Lipo>
93.7307

> <Gold.Chemscore.Internal_Hbond>
0.0000

> <Gold.Chemscore.DEClash>
1.6515

> <Gold.Chemscore.DEInternal>
1.7765

> <Gold.Chemscore.Rot>
1.3526

> <Gold.Chemscore.Internal.Correction>
   9.000000E+99

> <Gold.Chemscore.Hbonds>
donor molecule, donor type, donor heavy atom, donor atom, acceptor molecule, acceptor atom, score
      L1  H     6    29       P1  7948  0.46

> <Gold.Chemscore.Hbond.Weighted>
-2.0059

> <Gold.Chemscore.Metal.Weighted>
-0.0000

> <Gold.Chemscore.Lipo.Weighted>
-10.9665

> <Gold.Chemscore.Internal_Hbond.Weighted>
0.0000

> <Gold.Chemscore.DEClash.Weighted>
1.6515

> <Gold.Chemscore.DEInternal.Weighted>
1.7765

> <Gold.Chemscore.Rot.Weighted>
3.4626

> <Gold.Chemscore.Internal.Correction.Weighted>
   9.000000E+99

> <Gold.Protein.RotatedTorsions>
[ 6907 6896 6895 6894 ] final  115.89 input  -60.11 | X-H torsion
[ 7974 7965 7964 7962 ] final -114.25 input  175.53 | X-H torsion
[ 8008 7997 7996 7995 ] final -104.66 input   59.86 | X-H torsion
[ 10167 10162 10161 10158 ] final   45.75 input  -65.29 | X-H torsion
[ 10718 10713 10712 10709 ] final  -71.97 input   66.30 | X-H torsion
[ 10763 10752 10751 10750 ] final  124.32 input  -60.55 | X-H torsion
[ 11005 11000 10999 10996 ] final  179.37 input  -57.11 | X-H torsion

> <Gold.Protein.ActiveResidues>
 VAL166  LYS551  ARG553  GLY616  TRP617  ASP618  TYR619  PRO620  LYS621  CYS622 
 ASP623  PHE694  ASN695  SER759  ASP760  ASP761  ALA762  ILE779  LEU786  VAL792 
 PHE793  MET794  SER795  GLU796  ALA797  LYS798  CYS799  TRP800  GLU811  SER814 

> <Gold.Protein.RotatedAtoms>
  152.4713  133.8035  159.6965 H   0  0  0  0  0  0  0  0  0  0  0  0  # atno 6907 bound_to 6896
  150.8703  133.7505  159.2970 H   0  0  0  0  0  0  0  0  0  0  0  0  # atno 6908 bound_to 6896
  151.5042  135.1066  159.9889 H   0  0  0  0  0  0  0  0  0  0  0  0  # atno 6909 bound_to 6896
  145.1223  140.8676  143.3806 H   0  0  0  0  0  0  0  0  0  0  0  0  # atno 7974 bound_to 7965
  154.8885  140.0417  157.1824 H   0  0  0  0  0  0  0  0  0  0  0  0  # atno 8008 bound_to 7997
  154.8565  140.2937  155.5544 H   0  0  0  0  0  0  0  0  0  0  0  0  # atno 8009 bound_to 7997
  156.2997  140.2455  156.3533 H   0  0  0  0  0  0  0  0  0  0  0  0  # atno 8010 bound_to 7997
  140.3210  144.2706  150.6183 H   0  0  0  0  0  0  0  0  0  0  0  0  # atno 10167 bound_to 10162
  156.0340  130.4362  150.2523 H   0  0  0  0  0  0  0  0  0  0  0  0  # atno 10718 bound_to 10713
  153.6595  135.3349  155.3123 H   0  0  0  0  0  0  0  0  0  0  0  0  # atno 10763 bound_to 10752
  154.8518  135.4360  154.1819 H   0  0  0  0  0  0  0  0  0  0  0  0  # atno 10764 bound_to 10752
  153.2782  135.7006  153.7487 H   0  0  0  0  0  0  0  0  0  0  0  0  # atno 10765 bound_to 10752
  140.4054  134.6739  157.4585 H   0  0  0  0  0  0  0  0  0  0  0  0  # atno 11005 bound_to 11000
  145.0726  139.3020  143.5824 LP  0  0  0  0  0  0  0  0  0  0  0  0  # atno 17320 bound_to 7965
  146.3520  140.0206  142.8659 LP  0  0  0  0  0  0  0  0  0  0  0  0  # atno 17321 bound_to 7965
  140.5484  143.2210  151.7969 LP  0  0  0  0  0  0  0  0  0  0  0  0  # atno 17342 bound_to 10162
  139.4874  144.4509  151.9655 LP  0  0  0  0  0  0  0  0  0  0  0  0  # atno 17343 bound_to 10162
  157.0623  131.0093  151.3218 LP  0  0  0  0  0  0  0  0  0  0  0  0  # atno 17370 bound_to 10713
  157.5061  130.7909  149.7655 LP  0  0  0  0  0  0  0  0  0  0  0  0  # atno 17371 bound_to 10713
  140.0306  134.6412  155.9112 LP  0  0  0  0  0  0  0  0  0  0  0  0  # atno 17394 bound_to 11000
  141.1841  133.6552  156.5143 LP  0  0  0  0  0  0  0  0  0  0  0  0  # atno 17395 bound_to 11000

$$$$
