AV-unprocessed.smi:1289|AV-procd|sdf|5388|dock4
  -GOLD-   22720 4543D 1   1.00000     0.00000
 Structure written by MMmdl.
 38 40  0  0  0  0  0  0  0  0  2 V2000
  142.7200  146.4779  154.0743 N   0  0  0  0  0  0  0  0  0  0  0  0
  143.4763  145.6187  154.2438 C   0  0  0  0  0  0  0  0  0  0  0  0
  144.4260  144.5395  154.4570 C   0  0  0  0  0  0  0  0  0  0  0  0
  144.5618  143.9579  155.7327 C   0  0  0  0  0  0  0  0  0  0  0  0
  145.4869  142.9161  155.9374 C   0  0  0  0  0  0  0  0  0  0  0  0
  146.2866  142.4406  154.8779 C   0  0  0  0  0  0  0  0  0  0  0  0
  147.1703  141.4237  155.1693 O   0  0  0  0  0  0  0  0  0  0  0  0
  148.2400  141.1816  154.2649 C   0  0  0  0  0  0  0  0  0  0  0  0
  149.4811  140.7528  155.0616 C   0  0  1  0  0  0  0  0  0  0  0  0
  150.4073  140.1724  154.1646 O   0  0  0  0  0  0  0  0  0  0  0  0
  150.1320  141.9348  155.8081 C   0  0  0  0  0  0  0  0  0  0  0  0
  150.9230  141.5120  156.9726 N   0  0  0  0  0  0  0  0  0  0  0  0
  151.2336  140.2587  157.4013 C   0  0  0  0  0  0  0  0  0  0  0  0
  151.9842  140.3836  158.5308 N   0  3  0  0  0  0  0  0  0  0  0  0
  152.1578  141.7370  158.8281 C   0  0  0  0  0  0  0  0  0  0  0  0
  152.8400  142.3607  159.8683 C   0  0  0  0  0  0  0  0  0  0  0  0
  152.8260  143.7710  159.8787 C   0  0  0  0  0  0  0  0  0  0  0  0
  152.1536  144.5063  158.8810 C   0  0  0  0  0  0  0  0  0  0  0  0
  151.4644  143.8634  157.8318 C   0  0  0  0  0  0  0  0  0  0  0  0
  151.4804  142.4687  157.8294 C   0  0  0  0  0  0  0  0  0  0  0  0
  146.1394  143.0269  153.5951 C   0  0  0  0  0  0  0  0  0  0  0  0
  145.2161  144.0706  153.3889 C   0  0  0  0  0  0  0  0  0  0  0  0
  143.9607  144.3070  156.5601 H   0  0  0  0  0  0  0  0  0  0  0  0
  145.5852  142.4784  156.9200 H   0  0  0  0  0  0  0  0  0  0  0  0
  147.9510  140.3887  153.5728 H   0  0  0  0  0  0  0  0  0  0  0  0
  148.4672  142.0749  153.6803 H   0  0  0  0  0  0  0  0  0  0  0  0
  149.1970  139.9823  155.7793 H   0  0  0  0  0  0  0  0  0  0  0  0
  150.7688  139.3971  154.5668 H   0  0  0  0  0  0  0  0  0  0  0  0
  150.7592  142.5278  155.1421 H   0  0  0  0  0  0  0  0  0  0  0  0
  149.3599  142.6106  156.1771 H   0  0  0  0  0  0  0  0  0  0  0  0
  150.9370  139.3322  156.9311 H   0  0  0  0  0  0  0  0  0  0  0  0
  153.3578  141.8002  160.6327 H   0  0  0  0  0  0  0  0  0  0  0  0
  153.3430  144.2996  160.6664 H   0  0  0  0  0  0  0  0  0  0  0  0
  152.1676  145.5858  158.9200 H   0  0  0  0  0  0  0  0  0  0  0  0
  150.9582  144.4370  157.0696 H   0  0  0  0  0  0  0  0  0  0  0  0
  146.7246  142.6955  152.7511 H   0  0  0  0  0  0  0  0  0  0  0  0
  145.1201  144.5083  152.4056 H   0  0  0  0  0  0  0  0  0  0  0  0
  152.3499  139.6007  159.0576 H   0  0  0  0  0  0  0  0  0  0  0  0
  1  2  3  0  0  0  0
  2  3  1  0  0  0  0
  3 22  1  0  0  0  0
  3  4  2  0  0  0  0
  4  5  1  0  0  0  0
  4 23  1  0  0  0  0
  5  6  2  0  0  0  0
  5 24  1  0  0  0  0
  6  7  1  0  0  0  0
  6 21  1  0  0  0  0
  7  8  1  0  0  0  0
  8  9  1  0  0  0  0
  8 25  1  0  0  0  0
  8 26  1  0  0  0  0
  9 10  1  0  0  0  0
  9 11  1  0  0  0  0
  9 27  1  0  0  0  0
 10 28  1  0  0  0  0
 11 12  1  0  0  0  0
 11 29  1  0  0  0  0
 11 30  1  0  0  0  0
 12 20  1  0  0  0  0
 12 13  1  0  0  0  0
 13 14  2  0  0  0  0
 13 31  1  0  0  0  0
 14 15  1  0  0  0  0
 14 38  1  0  0  0  0
 15 20  2  0  0  0  0
 15 16  1  0  0  0  0
 16 17  2  0  0  0  0
 16 32  1  0  0  0  0
 17 18  1  0  0  0  0
 17 33  1  0  0  0  0
 18 19  2  0  0  0  0
 18 34  1  0  0  0  0
 19 20  1  0  0  0  0
 19 35  1  0  0  0  0
 21 22  2  0  0  0  0
 21 36  1  0  0  0  0
 22 37  1  0  0  0  0
M  CHG  1  14   1
M  END
> <s_m_source_file>
AV-unprocessed.smi

> <i_m_source_file_index>
1289

> <i_lp_mmshare_version>
43012

> <i_f3d_flags>
0

> <s_epik_input>
TiNDYzFbY0hdW2NIXWMoW2NIXVtjSF0xKU9bQ0gyXVtDQEhdKFtPSF0pW0NIMl1uKFtjSF1uMiljKGMyMylbY0hdW2NIXVtjSF1bY0hdMw==

> <s_epik_cmdline>
J2VwaWtfcHl0aG9uJywgJy1waCcsICc3LjAnLCAnLXRuJywgJzgnLCAnLW1hJywgJzIwMCcsICctbWV0YWxfYmluZGluZycsICctaW1hZScsICc8aW5maWxlLm1hZT4nLCAnLW9tYWUnLCAnPG91dGZpbGUubWFlPic=

> <r_epik_Ionization_Penalty>
1.39523

> <r_epik_Ionization_Penalty_Charging>
1.39523

> <r_epik_Ionization_Penalty_Neutral>
2.3993e-06

> <r_epik_State_Penalty>
1.47691

> <r_epik_Charging_Adjusted_Penalty>
2.87215

> <i_epik_Tot_Q>
1

> <i_epik_Tot_abs_Q>
1

> <r_epik_Metal_State_Penalty>
5.51858

> <b_epik_Metal_Only>
0

> <s_lp_Force_Field>
OPLS_2005

> <r_lp_Energy>
20.386

> <b_lp_Chiralities_Consistent>
1

> <s_lp_Variant>
AV-unprocessed.smi:1289-4

> <Gold.Version>
5.8.1

> <Gold.Id.Protein>
6NUR|6NUR_protein|mol2

> <Gold.PLP.Fitness>
53.0565

> <Gold.PLP.PLP>
-51.7584

> <Gold.PLP.part.hbond>
-3.2836

> <Gold.PLP.part.metal>
0.0000

> <Gold.PLP.part.buried>
-7.2357

> <Gold.PLP.part.nonpolar>
-43.3219

> <Gold.PLP.part.repulsive>
0.2647

> <Gold.PLP.ligand.clash>
0.0000

> <Gold.PLP.ligand.torsion>
0.8704

> <Gold.PLP.Chemscore.Hbond>
1.0000

> <Gold.PLP.Chemscore.CHOScore>
0.0000

> <Gold.PLP.Chemscore.Metal>
0.0000

> <Gold.Chemscore.Hbonds>
donor molecule, donor type, donor heavy atom, donor atom, acceptor molecule, acceptor atom, score
      P1  H  7989  7998       L1    10  1.00

> <Gold.PLP.Chemscore.Internal.Correction>
0.0390

> <Gold.Rescore>
     Score         DG    S(hbond)    S(metal)    S(lipo)     H(rot)  DE(clash)    DE(int)     intcor
     15.33     -16.41       0.95        0.00     122.84       2.58       0.29       0.80       ----

> <Gold.Chemscore.Fitness>
15.3286

> <Gold.Chemscore.DG>
-16.4144

> <Gold.Chemscore.ZeroCoef>
-5.4800

> <Gold.Chemscore.Hbond>
0.9479

> <Gold.Chemscore.Metal>
0.0000

> <Gold.Chemscore.Lipo>
122.8432

> <Gold.Chemscore.Internal_Hbond>
0.0000

> <Gold.Chemscore.DEClash>
0.2891

> <Gold.Chemscore.DEInternal>
0.7967

> <Gold.Chemscore.Rot>
2.5798

> <Gold.Chemscore.Internal.Correction>
   9.000000E+99

> <Gold.Chemscore.Hbonds>
donor molecule, donor type, donor heavy atom, donor atom, acceptor molecule, acceptor atom, score
      P1  H  7989  7998       L1    10  0.46

> <Gold.Chemscore.Hbond.Weighted>
-3.1661

> <Gold.Chemscore.Metal.Weighted>
-0.0000

> <Gold.Chemscore.Lipo.Weighted>
-14.3727

> <Gold.Chemscore.Internal_Hbond.Weighted>
0.0000

> <Gold.Chemscore.DEClash.Weighted>
0.2891

> <Gold.Chemscore.DEInternal.Weighted>
0.7967

> <Gold.Chemscore.Rot.Weighted>
6.6043

> <Gold.Chemscore.Internal.Correction.Weighted>
   9.000000E+99

> <Gold.Protein.RotatedTorsions>
[ 6907 6896 6895 6894 ] final  -95.49 input  -60.11 | X-H torsion
[ 7974 7965 7964 7962 ] final   39.15 input  175.53 | X-H torsion
[ 8008 7997 7996 7995 ] final  130.35 input   59.86 | X-H torsion
[ 10167 10162 10161 10158 ] final  131.78 input  -65.29 | X-H torsion
[ 10718 10713 10712 10709 ] final  103.66 input   66.30 | X-H torsion
[ 10763 10752 10751 10750 ] final -105.03 input  -60.55 | X-H torsion
[ 11005 11000 10999 10996 ] final   77.66 input  -57.11 | X-H torsion

> <Gold.Protein.ActiveResidues>
 VAL166  LYS551  ARG553  GLY616  TRP617  ASP618  TYR619  PRO620  LYS621  CYS622 
 ASP623  PHE694  ASN695  SER759  ASP760  ASP761  ALA762  ILE779  LEU786  VAL792 
 PHE793  MET794  SER795  GLU796  ALA797  LYS798  CYS799  TRP800  GLU811  SER814 

> <Gold.Protein.RotatedAtoms>
  150.6965  134.1649  159.4190 H   0  0  0  0  0  0  0  0  0  0  0  0  # atno 6907 bound_to 6896
  151.9629  135.0112  160.0558 H   0  0  0  0  0  0  0  0  0  0  0  0  # atno 6908 bound_to 6896
  152.1911  133.4738  159.5045 H   0  0  0  0  0  0  0  0  0  0  0  0  # atno 6909 bound_to 6896
  146.1007  139.5687  142.9416 H   0  0  0  0  0  0  0  0  0  0  0  0  # atno 7974 bound_to 7965
  156.2953  140.2598  156.2748 H   0  0  0  0  0  0  0  0  0  0  0  0  # atno 8008 bound_to 7997
  154.9659  140.0392  157.2230 H   0  0  0  0  0  0  0  0  0  0  0  0  # atno 8009 bound_to 7997
  154.7903  140.2810  155.6001 H   0  0  0  0  0  0  0  0  0  0  0  0  # atno 8010 bound_to 7997
  139.5368  144.6691  151.4757 H   0  0  0  0  0  0  0  0  0  0  0  0  # atno 10167 bound_to 10162
  157.6765  131.0784  150.5589 H   0  0  0  0  0  0  0  0  0  0  0  0  # atno 10718 bound_to 10713
  154.7919  135.4764  154.0072 H   0  0  0  0  0  0  0  0  0  0  0  0  # atno 10763 bound_to 10752
  153.1644  135.6814  153.8704 H   0  0  0  0  0  0  0  0  0  0  0  0  # atno 10764 bound_to 10752
  153.8307  135.3192  155.3396 H   0  0  0  0  0  0  0  0  0  0  0  0  # atno 10765 bound_to 10752
  139.9245  134.7701  156.1550 H   0  0  0  0  0  0  0  0  0  0  0  0  # atno 11005 bound_to 11000
  145.5860  141.0376  143.2096 LP  0  0  0  0  0  0  0  0  0  0  0  0  # atno 17320 bound_to 7965
  144.7430  139.7396  143.7303 LP  0  0  0  0  0  0  0  0  0  0  0  0  # atno 17321 bound_to 7965
  140.6579  143.8560  150.6855 LP  0  0  0  0  0  0  0  0  0  0  0  0  # atno 17342 bound_to 10162
  140.1946  143.4009  152.1838 LP  0  0  0  0  0  0  0  0  0  0  0  0  # atno 17343 bound_to 10162
  156.5892  130.4325  149.5944 LP  0  0  0  0  0  0  0  0  0  0  0  0  # atno 17370 bound_to 10713
  156.2597  130.6955  151.1720 LP  0  0  0  0  0  0  0  0  0  0  0  0  # atno 17371 bound_to 10713
  141.0792  133.6762  156.2300 LP  0  0  0  0  0  0  0  0  0  0  0  0  # atno 17394 bound_to 11000
  140.6377  134.5199  157.5566 LP  0  0  0  0  0  0  0  0  0  0  0  0  # atno 17395 bound_to 11000

$$$$
