AV-unprocessed.smi:238|AV-procd|sdf|1819|dock5
  -GOLD-   2262020413D 1   1.00000     0.00000
 Structure written by MMmdl.
 52 54  0  0  0  0  0  0  0  0  1 V2000
  151.9492  140.1164  156.3013 C   0  0  0  0  0  0  0  0  0  0  0  0
  151.0786  140.8240  155.4265 O   0  0  0  0  0  0  0  0  0  0  0  0
  149.7085  140.4131  155.3574 C   0  0  0  0  0  0  0  0  0  0  0  0
  149.1711  140.5805  156.7903 C   0  0  0  0  0  0  0  0  0  0  0  0
  148.8952  141.3429  154.4301 C   0  0  0  0  0  0  0  0  0  0  0  0
  149.5934  138.9464  154.8492 C   0  0  0  0  0  0  0  0  0  0  0  0
  148.3047  138.2933  155.0958 N   0  0  0  0  0  0  0  0  0  0  0  0
  148.0934  137.5250  156.3194 C   0  0  0  0  0  0  0  0  0  0  0  0
  147.4853  138.0543  154.0419 C   0  0  0  0  0  0  0  0  0  0  0  0
  147.3946  138.9848  153.0556 N   0  0  0  0  0  0  0  0  0  0  0  0
  146.5670  138.7963  152.0245 C   0  0  0  0  0  0  0  0  0  0  0  0
  145.7613  137.7614  151.7803 N   0  0  0  0  0  0  0  0  0  0  0  0
  145.8670  136.8098  152.7517 C   0  0  0  0  0  0  0  0  0  0  0  0
  146.6956  136.8767  153.9078 C   0  0  0  0  0  0  0  0  0  0  0  0
  146.5362  135.7235  154.6660 N   0  0  0  0  0  0  0  0  0  0  0  0
  145.6456  135.0299  154.0122 C   0  0  0  0  0  0  0  0  0  0  0  0
  145.2119  135.5918  152.8312 N   0  0  0  0  0  0  0  0  0  0  0  0
  144.2210  135.0711  151.9270 C   0  0  0  0  0  0  0  0  0  0  0  0
  143.7941  133.5974  151.9632 C   0  0  0  0  0  0  0  0  0  0  0  0
  144.6813  133.3023  150.7343 C   0  0  0  0  0  0  0  0  0  0  0  0
  146.1028  132.7965  151.0544 C   0  0  0  0  0  0  0  0  0  0  0  0
  146.9071  132.7411  149.8935 O   0  0  0  0  0  0  0  0  0  0  0  0
  144.0517  132.3928  149.6660 C   0  0  0  0  0  0  0  0  0  0  0  0
  142.6785  132.6785  149.4917 O   0  0  0  0  0  0  0  0  0  0  0  0
  144.5757  134.8167  150.4567 C   0  0  0  0  0  0  0  0  0  0  0  0
  152.8881  140.6632  156.3878 H   0  0  0  0  0  0  0  0  0  0  0  0
  152.1848  139.1262  155.9117 H   0  0  0  0  0  0  0  0  0  0  0  0
  151.5381  140.0061  157.3030 H   0  0  0  0  0  0  0  0  0  0  0  0
  148.1502  140.2081  156.8806 H   0  0  0  0  0  0  0  0  0  0  0  0
  149.1674  141.6297  157.0873 H   0  0  0  0  0  0  0  0  0  0  0  0
  149.7897  140.0532  157.5159 H   0  0  0  0  0  0  0  0  0  0  0  0
  147.8303  141.1141  154.4842 H   0  0  0  0  0  0  0  0  0  0  0  0
  149.1875  141.2383  153.3850 H   0  0  0  0  0  0  0  0  0  0  0  0
  149.0191  142.3899  154.7089 H   0  0  0  0  0  0  0  0  0  0  0  0
  149.7542  138.9426  153.7708 H   0  0  0  0  0  0  0  0  0  0  0  0
  150.4032  138.3380  155.2468 H   0  0  0  0  0  0  0  0  0  0  0  0
  147.0601  137.6259  156.6535 H   0  0  0  0  0  0  0  0  0  0  0  0
  148.7384  137.8857  157.1209 H   0  0  0  0  0  0  0  0  0  0  0  0
  148.3002  136.4653  156.1711 H   0  0  0  0  0  0  0  0  0  0  0  0
  146.5462  139.5884  151.2908 H   0  0  0  0  0  0  0  0  0  0  0  0
  145.2905  134.0797  154.3816 H   0  0  0  0  0  0  0  0  0  0  0  0
  143.3605  135.7350  152.0181 H   0  0  0  0  0  0  0  0  0  0  0  0
  144.0660  133.0434  152.8608 H   0  0  0  0  0  0  0  0  0  0  0  0
  142.7297  133.4775  151.7536 H   0  0  0  0  0  0  0  0  0  0  0  0
  146.5952  133.4301  151.7923 H   0  0  0  0  0  0  0  0  0  0  0  0
  146.0778  131.7971  151.4886 H   0  0  0  0  0  0  0  0  0  0  0  0
  147.5133  132.0216  149.9834 H   0  0  0  0  0  0  0  0  0  0  0  0
  144.5589  132.4903  148.7059 H   0  0  0  0  0  0  0  0  0  0  0  0
  144.1383  131.3438  149.9511 H   0  0  0  0  0  0  0  0  0  0  0  0
  142.2090  131.8615  149.4182 H   0  0  0  0  0  0  0  0  0  0  0  0
  143.7536  135.0701  149.7851 H   0  0  0  0  0  0  0  0  0  0  0  0
  145.5057  135.2720  150.1158 H   0  0  0  0  0  0  0  0  0  0  0  0
  1  2  1  0  0  0  0
  1 26  1  0  0  0  0
  1 27  1  0  0  0  0
  1 28  1  0  0  0  0
  2  3  1  0  0  0  0
  3  4  1  0  0  0  0
  3  5  1  0  0  0  0
  3  6  1  0  0  0  0
  4 29  1  0  0  0  0
  4 30  1  0  0  0  0
  4 31  1  0  0  0  0
  5 32  1  0  0  0  0
  5 33  1  0  0  0  0
  5 34  1  0  0  0  0
  6  7  1  0  0  0  0
  6 35  1  0  0  0  0
  6 36  1  0  0  0  0
  7  8  1  0  0  0  0
  7  9  1  0  0  0  0
  8 37  1  0  0  0  0
  8 38  1  0  0  0  0
  8 39  1  0  0  0  0
  9 14  1  0  0  0  0
  9 10  2  0  0  0  0
 10 11  1  0  0  0  0
 11 12  2  0  0  0  0
 11 40  1  0  0  0  0
 12 13  1  0  0  0  0
 13 17  1  0  0  0  0
 13 14  2  0  0  0  0
 14 15  1  0  0  0  0
 15 16  2  0  0  0  0
 16 17  1  0  0  0  0
 16 41  1  0  0  0  0
 17 18  1  0  0  0  0
 18 25  1  0  0  0  0
 18 19  1  0  0  0  0
 18 42  1  0  0  0  0
 19 20  1  0  0  0  0
 19 43  1  0  0  0  0
 19 44  1  0  0  0  0
 20 21  1  0  0  0  0
 20 23  1  0  0  0  0
 20 25  1  0  0  0  0
 21 22  1  0  0  0  0
 21 45  1  0  0  0  0
 21 46  1  0  0  0  0
 22 47  1  0  0  0  0
 23 24  1  0  0  0  0
 23 48  1  0  0  0  0
 23 49  1  0  0  0  0
 24 50  1  0  0  0  0
 25 51  1  0  0  0  0
 25 52  1  0  0  0  0
M  END
> <s_m_source_file>
AV-unprocessed.smi

> <i_m_source_file_index>
238

> <i_lp_mmshare_version>
43012

> <i_f3d_flags>
0

> <s_epik_input>
W0NIM11PQyhbQ0gzXSkoW0NIM10pW0NIMl1OKFtDSDNdKWMobltjSF1uMSljKGMxMiluW2NIXW4yW0NIXShbQ0gyXTMpW0NIMl1DMyhbQ0gyXVtPSF0pW0NIMl1bT0hd

> <s_epik_cmdline>
J2VwaWtfcHl0aG9uJywgJy1waCcsICc3LjAnLCAnLXRuJywgJzgnLCAnLW1hJywgJzIwMCcsICctbWV0YWxfYmluZGluZycsICctaW1hZScsICc8aW5maWxlLm1hZT4nLCAnLW9tYWUnLCAnPG91dGZpbGUubWFlPic=

> <r_lp_tautomer_probability>
1

> <r_epik_Ionization_Penalty>
0.00209421

> <r_epik_Ionization_Penalty_Charging>
0

> <r_epik_Ionization_Penalty_Neutral>
0.00209421

> <r_epik_State_Penalty>
0.00129171

> <r_epik_Charging_Adjusted_Penalty>
0.00129171

> <i_epik_Tot_Q>
0

> <i_epik_Tot_abs_Q>
0

> <r_epik_Metal_State_Penalty>
-0

> <b_epik_Metal_Only>
0

> <s_lp_Force_Field>
OPLS_2005

> <r_lp_Energy>
43.4617

> <b_lp_Chiralities_Consistent>
1

> <s_lp_Variant>
AV-unprocessed.smi:238-1

> <Gold.Version>
5.8.1

> <Gold.Id.Protein>
6NUR|6NUR_protein|mol2

> <Gold.PLP.Fitness>
43.2862

> <Gold.PLP.PLP>
-36.4051

> <Gold.PLP.part.hbond>
-4.5082

> <Gold.PLP.part.metal>
0.0000

> <Gold.PLP.part.buried>
-5.5210

> <Gold.PLP.part.nonpolar>
-28.9866

> <Gold.PLP.part.repulsive>
2.6651

> <Gold.PLP.ligand.clash>
0.0000

> <Gold.PLP.ligand.torsion>
1.1797

> <Gold.PLP.Chemscore.Hbond>
2.7840

> <Gold.PLP.Chemscore.CHOScore>
0.0000

> <Gold.PLP.Chemscore.Metal>
0.0000

> <Gold.Chemscore.Hbonds>
donor molecule, donor type, donor heavy atom, donor atom, acceptor molecule, acceptor atom, score
      L1  H    22    47       P1 10747  1.00
      L1  H    24    50       P1 10952  0.94
      P1  H  7989  7998       L1     2  0.77

> <Gold.PLP.Chemscore.Internal.Correction>
0.8885

> <Gold.Rescore>
     Score         DG    S(hbond)    S(metal)    S(lipo)     H(rot)  DE(clash)    DE(int)     intcor
      9.50     -12.22       2.29        0.00      71.60       3.63       0.28       2.45       ----

> <Gold.Chemscore.Fitness>
9.4972

> <Gold.Chemscore.DG>
-12.2187

> <Gold.Chemscore.ZeroCoef>
-5.4800

> <Gold.Chemscore.Hbond>
2.2886

> <Gold.Chemscore.Metal>
0.0000

> <Gold.Chemscore.Lipo>
71.6038

> <Gold.Chemscore.Internal_Hbond>
0.0000

> <Gold.Chemscore.DEClash>
0.2759

> <Gold.Chemscore.DEInternal>
2.4455

> <Gold.Chemscore.Rot>
3.6261

> <Gold.Chemscore.Internal.Correction>
   9.000000E+99

> <Gold.Chemscore.Hbonds>
donor molecule, donor type, donor heavy atom, donor atom, acceptor molecule, acceptor atom, score
      L1  H    22    47       P1 10747  1.00
      L1  H    24    50       P1 10952  0.90
      P1  H  7989  7998       L1     2  0.30

> <Gold.Chemscore.Hbond.Weighted>
-7.6440

> <Gold.Chemscore.Metal.Weighted>
-0.0000

> <Gold.Chemscore.Lipo.Weighted>
-8.3777

> <Gold.Chemscore.Internal_Hbond.Weighted>
0.0000

> <Gold.Chemscore.DEClash.Weighted>
0.2759

> <Gold.Chemscore.DEInternal.Weighted>
2.4455

> <Gold.Chemscore.Rot.Weighted>
9.2829

> <Gold.Chemscore.Internal.Correction.Weighted>
   9.000000E+99

> <Gold.Protein.RotatedTorsions>
[ 6907 6896 6895 6894 ] final   63.86 input  -60.11 | X-H torsion
[ 7974 7965 7964 7962 ] final  -39.32 input  175.53 | X-H torsion
[ 8008 7997 7996 7995 ] final   97.91 input   59.86 | X-H torsion
[ 10167 10162 10161 10158 ] final  -24.00 input  -65.29 | X-H torsion
[ 10718 10713 10712 10709 ] final  -13.38 input   66.30 | X-H torsion
[ 10763 10752 10751 10750 ] final -144.18 input  -60.55 | X-H torsion
[ 11005 11000 10999 10996 ] final   26.04 input  -57.11 | X-H torsion

> <Gold.Protein.ActiveResidues>
 VAL166  LYS551  ARG553  GLY616  TRP617  ASP618  TYR619  PRO620  LYS621  CYS622 
 ASP623  PHE694  ASN695  SER759  ASP760  ASP761  ALA762  ILE779  LEU786  VAL792 
 PHE793  MET794  SER795  GLU796  ALA797  LYS798  CYS799  TRP800  GLU811  SER814 

> <Gold.Protein.RotatedAtoms>
  152.4286  134.5820  159.9950 H   0  0  0  0  0  0  0  0  0  0  0  0  # atno 6907 bound_to 6896
  151.5950  133.3357  159.3043 H   0  0  0  0  0  0  0  0  0  0  0  0  # atno 6908 bound_to 6896
  150.8177  134.7405  159.6810 H   0  0  0  0  0  0  0  0  0  0  0  0  # atno 6909 bound_to 6896
  146.0407  140.6612  142.9088 H   0  0  0  0  0  0  0  0  0  0  0  0  # atno 7974 bound_to 7965
  156.0951  140.3251  155.7866 H   0  0  0  0  0  0  0  0  0  0  0  0  # atno 8008 bound_to 7997
  155.4932  140.0563  157.2968 H   0  0  0  0  0  0  0  0  0  0  0  0  # atno 8009 bound_to 7997
  154.4661  140.1990  156.0130 H   0  0  0  0  0  0  0  0  0  0  0  0  # atno 8010 bound_to 7997
  140.7288  143.4392  151.0683 H   0  0  0  0  0  0  0  0  0  0  0  0  # atno 10167 bound_to 10162
  156.6310  130.4901  149.6129 H   0  0  0  0  0  0  0  0  0  0  0  0  # atno 10718 bound_to 10713
  154.8439  135.3447  154.6306 H   0  0  0  0  0  0  0  0  0  0  0  0  # atno 10763 bound_to 10752
  153.6916  135.6974  153.5093 H   0  0  0  0  0  0  0  0  0  0  0  0  # atno 10764 bound_to 10752
  153.2591  135.4328  155.0831 H   0  0  0  0  0  0  0  0  0  0  0  0  # atno 10765 bound_to 10752
  140.3413  134.2330  155.7690 H   0  0  0  0  0  0  0  0  0  0  0  0  # atno 11005 bound_to 11000
  144.7073  140.3902  143.7108 LP  0  0  0  0  0  0  0  0  0  0  0  0  # atno 17320 bound_to 7965
  145.6889  139.1635  143.2658 LP  0  0  0  0  0  0  0  0  0  0  0  0  # atno 17321 bound_to 7965
  139.8057  143.8021  152.3167 LP  0  0  0  0  0  0  0  0  0  0  0  0  # atno 17342 bound_to 10162
  139.8053  144.7358  150.9769 LP  0  0  0  0  0  0  0  0  0  0  0  0  # atno 17343 bound_to 10162
  156.2234  130.6751  151.1391 LP  0  0  0  0  0  0  0  0  0  0  0  0  # atno 17370 bound_to 10713
  157.7200  131.0687  150.6175 LP  0  0  0  0  0  0  0  0  0  0  0  0  # atno 17371 bound_to 10713
  141.2037  133.7904  157.0323 LP  0  0  0  0  0  0  0  0  0  0  0  0  # atno 17394 bound_to 11000
  140.0779  134.9665  157.1575 LP  0  0  0  0  0  0  0  0  0  0  0  0  # atno 17395 bound_to 11000

$$$$
