AV-unprocessed.smi:1929|AV-procd|sdf|7808|dock8
  -GOLD-   22720 9553D 1   1.00000     0.00000
 Structure written by MMmdl.
 43 44  0  0  0  0  0  0  0  0  4 V2000
  144.1151  146.4258  156.1230 C   0  0  0  0  0  0  0  0  0  0  0  0
  143.8190  145.0986  155.5971 N   0  5  0  0  0  0  0  0  0  0  0  0
  144.4096  143.9613  156.0530 C   0  0  0  0  0  0  0  0  0  0  0  0
  145.2348  143.7867  156.9558 O   0  0  0  0  0  0  0  0  0  0  0  0
  143.9437  142.7401  155.2518 C   0  0  0  0  0  0  0  0  0  0  0  0
  145.1100  141.9842  154.7290 N   0  3  2  0  0  0  0  0  0  0  0  0
  145.8668  141.2632  155.7888 C   0  0  0  0  0  0  0  0  0  0  0  0
  146.9920  140.4054  155.1844 C   0  0  0  0  0  0  0  0  0  0  0  0
  147.9510  141.2434  154.3166 C   0  0  2  0  0  0  0  0  0  0  0  0
  148.7584  142.1560  155.1268 N   0  0  0  0  0  0  0  0  0  0  0  0
  149.7627  141.7893  155.9365 C   0  0  0  0  0  0  0  0  0  0  0  0
  150.1308  140.6231  156.0732 O   0  0  0  0  0  0  0  0  0  0  0  0
  150.2821  142.8487  156.5811 N   0  0  0  0  0  0  0  0  0  0  0  0
  151.3158  142.8693  157.5568 C   0  0  0  0  0  0  0  0  0  0  0  0
  151.8679  144.1242  157.8974 C   0  0  0  0  0  0  0  0  0  0  0  0
  152.9024  144.1934  158.8528 C   0  0  0  0  0  0  0  0  0  0  0  0
  153.3650  143.0618  159.4259 N   0  3  0  0  0  0  0  0  0  0  0  0
  152.8800  141.8388  159.1220 C   0  0  0  0  0  0  0  0  0  0  0  0
  151.8442  141.7070  158.1747 C   0  0  0  0  0  0  0  0  0  0  0  0
  147.1407  142.0241  153.2676 C   0  0  0  0  0  0  0  0  0  0  0  0
  146.0012  142.8405  153.9050 C   0  0  0  0  0  0  0  0  0  0  0  0
  143.6208  147.2085  155.5478 H   0  0  0  0  0  0  0  0  0  0  0  0
  145.1811  146.6552  156.1031 H   0  0  0  0  0  0  0  0  0  0  0  0
  143.7849  146.5453  157.1549 H   0  0  0  0  0  0  0  0  0  0  0  0
  143.3739  142.1123  155.9383 H   0  0  0  0  0  0  0  0  0  0  0  0
  143.2630  143.0018  154.4385 H   0  0  0  0  0  0  0  0  0  0  0  0
  146.2779  141.9828  156.4985 H   0  0  0  0  0  0  0  0  0  0  0  0
  145.2008  140.6127  156.3558 H   0  0  0  0  0  0  0  0  0  0  0  0
  147.5369  139.8920  155.9772 H   0  0  0  0  0  0  0  0  0  0  0  0
  146.5485  139.6200  154.5710 H   0  0  0  0  0  0  0  0  0  0  0  0
  148.6297  140.5709  153.7889 H   0  0  0  0  0  0  0  0  0  0  0  0
  148.5247  143.1367  155.0743 H   0  0  0  0  0  0  0  0  0  0  0  0
  149.8266  143.7343  156.4150 H   0  0  0  0  0  0  0  0  0  0  0  0
  151.4990  145.0302  157.4383 H   0  0  0  0  0  0  0  0  0  0  0  0
  153.3707  145.1129  159.1724 H   0  0  0  0  0  0  0  0  0  0  0  0
  153.3349  141.0062  159.6386 H   0  0  0  0  0  0  0  0  0  0  0  0
  151.4854  140.7179  157.9344 H   0  0  0  0  0  0  0  0  0  0  0  0
  147.7962  142.6800  152.6934 H   0  0  0  0  0  0  0  0  0  0  0  0
  146.7142  141.3209  152.5508 H   0  0  0  0  0  0  0  0  0  0  0  0
  145.4212  143.3175  153.1140 H   0  0  0  0  0  0  0  0  0  0  0  0
  146.4081  143.6420  154.5234 H   0  0  0  0  0  0  0  0  0  0  0  0
  144.7301  141.2824  154.1096 H   0  0  0  0  0  0  0  0  0  0  0  0
  154.1153  143.1331  160.1140 H   0  0  0  0  0  0  0  0  0  0  0  0
  1  2  1  0  0  0  0
  1 22  1  0  0  0  0
  1 23  1  0  0  0  0
  1 24  1  0  0  0  0
  2  3  1  0  0  0  0
  3  4  2  0  0  0  0
  3  5  1  0  0  0  0
  5  6  1  0  0  0  0
  5 25  1  0  0  0  0
  5 26  1  0  0  0  0
  6 21  1  0  0  0  0
  6  7  1  0  0  0  0
  6 42  1  0  0  0  0
  7  8  1  0  0  0  0
  7 27  1  0  0  0  0
  7 28  1  0  0  0  0
  8  9  1  0  0  0  0
  8 29  1  0  0  0  0
  8 30  1  0  0  0  0
  9 10  1  0  0  0  0
  9 20  1  0  0  0  0
  9 31  1  0  0  0  0
 10 11  1  0  0  0  0
 10 32  1  0  0  0  0
 11 12  2  0  0  0  0
 11 13  1  0  0  0  0
 13 14  1  0  0  0  0
 13 33  1  0  0  0  0
 14 19  1  0  0  0  0
 14 15  2  0  0  0  0
 15 16  1  0  0  0  0
 15 34  1  0  0  0  0
 16 17  2  0  0  0  0
 16 35  1  0  0  0  0
 17 18  1  0  0  0  0
 17 43  1  0  0  0  0
 18 19  2  0  0  0  0
 18 36  1  0  0  0  0
 19 37  1  0  0  0  0
 20 21  1  0  0  0  0
 20 38  1  0  0  0  0
 20 39  1  0  0  0  0
 21 40  1  0  0  0  0
 21 41  1  0  0  0  0
M  CHG  1   2  -1
M  CHG  1   6   1
M  CHG  1  17   1
M  END
> <s_m_source_file>
AV-unprocessed.smi

> <i_m_source_file_index>
1929

> <i_lp_mmshare_version>
43012

> <i_f3d_flags>
0

> <s_epik_input>
W0NIM11bTkhdQyg9TylbQ0gyXU4xW0NIMl1bQ0gyXVtDSF0oW0NIMl1bQ0gyXTEpW05IXUMoPU8pW05IXWMyW2NIXVtjSF1uW2NIXVtjSF0y

> <s_epik_cmdline>
J2VwaWtfcHl0aG9uJywgJy1waCcsICc3LjAnLCAnLXRuJywgJzgnLCAnLW1hJywgJzIwMCcsICctbWV0YWxfYmluZGluZycsICctaW1hZScsICc8aW5maWxlLm1hZT4nLCAnLW9tYWUnLCAnPG91dGZpbGUubWFlPic=

> <r_epik_Ionization_Penalty>
7.25133

> <r_epik_Ionization_Penalty_Charging>
7.25131

> <r_epik_Ionization_Penalty_Neutral>
1.84563e-05

> <r_epik_State_Penalty>
8.093

> <r_epik_Charging_Adjusted_Penalty>
15.3443

> <i_epik_Tot_Q>
1

> <i_epik_Tot_abs_Q>
3

> <r_epik_Metal_State_Penalty>
4.12368

> <b_epik_Metal_Only>
1

> <s_lp_Force_Field>
OPLS_2005

> <r_lp_Energy>
20.7097

> <b_lp_Chiralities_Consistent>
1

> <s_lp_Variant>
AV-unprocessed.smi:1929-10

> <Gold.Version>
5.8.1

> <Gold.Id.Protein>
6NUR|6NUR_protein|mol2

> <Gold.PLP.Fitness>
46.5209

> <Gold.PLP.PLP>
-35.2225

> <Gold.PLP.part.hbond>
-2.8981

> <Gold.PLP.part.metal>
0.0000

> <Gold.PLP.part.buried>
-6.8583

> <Gold.PLP.part.nonpolar>
-27.1736

> <Gold.PLP.part.repulsive>
0.4818

> <Gold.PLP.ligand.clash>
0.0000

> <Gold.PLP.ligand.torsion>
0.2640

> <Gold.PLP.Chemscore.Hbond>
3.9265

> <Gold.PLP.Chemscore.CHOScore>
0.0000

> <Gold.PLP.Chemscore.Metal>
0.0000

> <Gold.Chemscore.Hbonds>
donor molecule, donor type, donor heavy atom, donor atom, acceptor molecule, acceptor atom, score
      L1  H     6    42       P1 10175  1.76
      L1  H    10    32       P1  8028  0.94
      L1  H    13    33       P1  8028  1.00

> <Gold.PLP.Chemscore.Internal.Correction>
0.0469

> <Gold.Rescore>
     Score         DG    S(hbond)    S(metal)    S(lipo)     H(rot)  DE(clash)    DE(int)     intcor
     16.68     -20.51       2.65        0.00      89.02       1.66       0.99       2.84       ----

> <Gold.Chemscore.Fitness>
16.6762

> <Gold.Chemscore.DG>
-20.5069

> <Gold.Chemscore.ZeroCoef>
-5.4800

> <Gold.Chemscore.Hbond>
2.6510

> <Gold.Chemscore.Metal>
0.0000

> <Gold.Chemscore.Lipo>
89.0231

> <Gold.Chemscore.Internal_Hbond>
0.0000

> <Gold.Chemscore.DEClash>
0.9892

> <Gold.Chemscore.DEInternal>
2.8415

> <Gold.Chemscore.Rot>
1.6574

> <Gold.Chemscore.Internal.Correction>
   9.000000E+99

> <Gold.Chemscore.Hbonds>
donor molecule, donor type, donor heavy atom, donor atom, acceptor molecule, acceptor atom, score
      L1  H     6    42       P1 10175  0.51
      L1  H    10    32       P1  8028  0.91
      L1  H    13    33       P1  8028  0.94

> <Gold.Chemscore.Hbond.Weighted>
-8.8542

> <Gold.Chemscore.Metal.Weighted>
-0.0000

> <Gold.Chemscore.Lipo.Weighted>
-10.4157

> <Gold.Chemscore.Internal_Hbond.Weighted>
0.0000

> <Gold.Chemscore.DEClash.Weighted>
0.9892

> <Gold.Chemscore.DEInternal.Weighted>
2.8415

> <Gold.Chemscore.Rot.Weighted>
4.2430

> <Gold.Chemscore.Internal.Correction.Weighted>
   9.000000E+99

> <Gold.Protein.RotatedTorsions>
[ 6907 6896 6895 6894 ] final   23.60 input  -60.11 | X-H torsion
[ 7974 7965 7964 7962 ] final  -35.63 input  175.53 | X-H torsion
[ 8008 7997 7996 7995 ] final   61.44 input   59.86 | X-H torsion
[ 10167 10162 10161 10158 ] final  143.41 input  -65.29 | X-H torsion
[ 10718 10713 10712 10709 ] final   82.07 input   66.30 | X-H torsion
[ 10763 10752 10751 10750 ] final -140.03 input  -60.55 | X-H torsion
[ 11005 11000 10999 10996 ] final   89.87 input  -57.11 | X-H torsion

> <Gold.Protein.ActiveResidues>
 VAL166  LYS551  ARG553  GLY616  TRP617  ASP618  TYR619  PRO620  LYS621  CYS622 
 ASP623  PHE694  ASN695  SER759  ASP760  ASP761  ALA762  ILE779  LEU786  VAL792 
 PHE793  MET794  SER795  GLU796  ALA797  LYS798  CYS799  TRP800  GLU811  SER814 

> <Gold.Protein.RotatedAtoms>
  151.9449  135.0196  160.0538 H   0  0  0  0  0  0  0  0  0  0  0  0  # atno 6907 bound_to 6896
  152.2004  133.4832  159.5064 H   0  0  0  0  0  0  0  0  0  0  0  0  # atno 6908 bound_to 6896
  150.6953  134.1515  159.4185 H   0  0  0  0  0  0  0  0  0  0  0  0  # atno 6909 bound_to 6896
  146.0730  140.6182  142.8943 H   0  0  0  0  0  0  0  0  0  0  0  0  # atno 7974 bound_to 7965
  155.5983  140.3493  155.4586 H   0  0  0  0  0  0  0  0  0  0  0  0  # atno 8008 bound_to 7997
  156.0248  140.1261  157.0345 H   0  0  0  0  0  0  0  0  0  0  0  0  # atno 8009 bound_to 7997
  154.4329  140.1055  156.6001 H   0  0  0  0  0  0  0  0  0  0  0  0  # atno 8010 bound_to 7997
  139.4970  144.6042  151.6414 H   0  0  0  0  0  0  0  0  0  0  0  0  # atno 10167 bound_to 10162
  157.6848  131.0031  150.2320 H   0  0  0  0  0  0  0  0  0  0  0  0  # atno 10718 bound_to 10713
  154.8591  135.3565  154.5642 H   0  0  0  0  0  0  0  0  0  0  0  0  # atno 10763 bound_to 10752
  153.6256  135.7004  153.5299 H   0  0  0  0  0  0  0  0  0  0  0  0  # atno 10764 bound_to 10752
  153.3092  135.4183  155.1281 H   0  0  0  0  0  0  0  0  0  0  0  0  # atno 10765 bound_to 10752
  139.8867  134.8579  156.3204 H   0  0  0  0  0  0  0  0  0  0  0  0  # atno 11005 bound_to 11000
  144.7244  140.4477  143.6984 LP  0  0  0  0  0  0  0  0  0  0  0  0  # atno 17320 bound_to 7965
  145.6356  139.1542  143.2944 LP  0  0  0  0  0  0  0  0  0  0  0  0  # atno 17321 bound_to 7965
  140.5700  144.0125  150.6212 LP  0  0  0  0  0  0  0  0  0  0  0  0  # atno 17342 bound_to 10162
  140.3240  143.3119  152.0756 LP  0  0  0  0  0  0  0  0  0  0  0  0  # atno 17343 bound_to 10162
  156.2951  130.3751  149.7804 LP  0  0  0  0  0  0  0  0  0  0  0  0  # atno 17370 bound_to 10713
  156.5452  130.8317  151.3282 LP  0  0  0  0  0  0  0  0  0  0  0  0  # atno 17371 bound_to 10713
  140.9791  133.7279  156.0645 LP  0  0  0  0  0  0  0  0  0  0  0  0  # atno 17394 bound_to 11000
  140.7773  134.3765  157.5495 LP  0  0  0  0  0  0  0  0  0  0  0  0  # atno 17395 bound_to 11000

$$$$
