AV-unprocessed.smi:2288|AV-procd|sdf|9207|dock8
  -GOLD-   2272012423D 1   1.00000     0.00000
 Structure written by MMmdl.
 40 41  0  0  0  0  0  0  0  0  1 V2000
  152.2321  144.2448  161.6794 C   0  0  0  0  0  0  0  0  0  0  0  0
  152.3863  143.1508  160.6430 C   0  0  0  0  0  0  0  0  0  0  0  0
  153.3381  142.1262  160.8225 C   0  0  0  0  0  0  0  0  0  0  0  0
  153.4809  141.1138  159.8525 C   0  0  0  0  0  0  0  0  0  0  0  0
  154.5083  140.0186  160.0510 C   0  0  0  0  0  0  0  0  0  0  0  0
  152.6647  141.1248  158.7029 C   0  0  0  0  0  0  0  0  0  0  0  0
  151.7061  142.1434  158.5177 C   0  0  0  0  0  0  0  0  0  0  0  0
  150.8430  142.1481  157.2647 C   0  0  1  0  0  0  0  0  0  0  0  0
  150.9320  143.3819  156.5789 O   0  0  0  0  0  0  0  0  0  0  0  0
  151.2633  141.0150  156.3029 C   0  0  0  0  0  0  0  0  0  0  0  0
  150.1126  140.4143  155.6073 N   0  0  0  0  0  0  0  0  0  0  0  0
  149.3467  141.2798  154.8093 C   0  0  0  0  0  0  0  0  0  0  0  0
  148.3170  140.8616  154.1486 N   0  0  0  0  0  0  0  0  0  0  0  0
  147.9407  139.5173  154.2218 C   0  0  0  0  0  0  0  0  0  0  0  0
  146.7201  139.1324  153.4046 C   0  0  0  0  0  0  0  0  0  0  0  0
  148.6363  138.6286  154.9827 C   0  0  0  0  0  0  0  0  0  0  0  0
  148.2725  137.1538  155.1017 C   0  0  0  0  0  0  0  0  0  0  0  0
  149.8083  139.0911  155.7435 C   0  0  0  0  0  0  0  0  0  0  0  0
  150.4774  138.3439  156.4602 O   0  0  0  0  0  0  0  0  0  0  0  0
  151.5745  143.1582  159.4909 C   0  0  0  0  0  0  0  0  0  0  0  0
  152.8998  144.0881  162.5271 H   0  0  0  0  0  0  0  0  0  0  0  0
  151.2083  144.2695  162.0530 H   0  0  0  0  0  0  0  0  0  0  0  0
  152.4615  145.2159  161.2400 H   0  0  0  0  0  0  0  0  0  0  0  0
  153.9627  142.1158  161.7040 H   0  0  0  0  0  0  0  0  0  0  0  0
  154.6542  139.4410  159.1376 H   0  0  0  0  0  0  0  0  0  0  0  0
  154.1856  139.3381  160.8391 H   0  0  0  0  0  0  0  0  0  0  0  0
  155.4697  140.4456  160.3377 H   0  0  0  0  0  0  0  0  0  0  0  0
  152.7761  140.3505  157.9577 H   0  0  0  0  0  0  0  0  0  0  0  0
  149.8039  142.0191  157.5701 H   0  0  0  0  0  0  0  0  0  0  0  0
  150.1081  143.5416  156.1440 H   0  0  0  0  0  0  0  0  0  0  0  0
  152.0338  141.3644  155.6121 H   0  0  0  0  0  0  0  0  0  0  0  0
  151.7559  140.2256  156.8743 H   0  0  0  0  0  0  0  0  0  0  0  0
  149.6786  142.3194  154.7908 H   0  0  0  0  0  0  0  0  0  0  0  0
  146.9804  138.3789  152.6608 H   0  0  0  0  0  0  0  0  0  0  0  0
  146.3068  139.9935  152.8779 H   0  0  0  0  0  0  0  0  0  0  0  0
  145.9392  138.7307  154.0507 H   0  0  0  0  0  0  0  0  0  0  0  0
  148.0463  136.9053  156.1391 H   0  0  0  0  0  0  0  0  0  0  0  0
  149.1091  136.5328  154.7795 H   0  0  0  0  0  0  0  0  0  0  0  0
  147.4084  136.8745  154.5013 H   0  0  0  0  0  0  0  0  0  0  0  0
  150.8501  143.9483  159.3539 H   0  0  0  0  0  0  0  0  0  0  0  0
  1  2  1  0  0  0  0
  1 21  1  0  0  0  0
  1 22  1  0  0  0  0
  1 23  1  0  0  0  0
  2 20  1  0  0  0  0
  2  3  2  0  0  0  0
  3  4  1  0  0  0  0
  3 24  1  0  0  0  0
  4  5  1  0  0  0  0
  4  6  2  0  0  0  0
  5 25  1  0  0  0  0
  5 26  1  0  0  0  0
  5 27  1  0  0  0  0
  6  7  1  0  0  0  0
  6 28  1  0  0  0  0
  7  8  1  0  0  0  0
  7 20  2  0  0  0  0
  8  9  1  0  0  0  0
  8 10  1  0  0  0  0
  8 29  1  0  0  0  0
  9 30  1  0  0  0  0
 10 11  1  0  0  0  0
 10 31  1  0  0  0  0
 10 32  1  0  0  0  0
 11 18  1  0  0  0  0
 11 12  1  0  0  0  0
 12 13  2  0  0  0  0
 12 33  1  0  0  0  0
 13 14  1  0  0  0  0
 14 15  1  0  0  0  0
 14 16  2  0  0  0  0
 15 34  1  0  0  0  0
 15 35  1  0  0  0  0
 15 36  1  0  0  0  0
 16 17  1  0  0  0  0
 16 18  1  0  0  0  0
 17 37  1  0  0  0  0
 17 38  1  0  0  0  0
 17 39  1  0  0  0  0
 18 19  2  0  0  0  0
 20 40  1  0  0  0  0
M  END
> <s_m_source_file>
AV-unprocessed.smi

> <i_m_source_file_index>
2288

> <i_lp_mmshare_version>
43012

> <i_f3d_flags>
0

> <s_epik_input>
W0NIM11jMVtjSF1jKFtDSDNdKVtjSF1jKFtjSF0xKVtDQEhdKFtPSF0pW0NIMl1uMltjSF1uYyhbQ0gzXSljKFtDSDNdKWMyPU8=

> <s_epik_cmdline>
J2VwaWtfcHl0aG9uJywgJy1waCcsICc3LjAnLCAnLXRuJywgJzgnLCAnLW1hJywgJzIwMCcsICctbWV0YWxfYmluZGluZycsICctaW1hZScsICc8aW5maWxlLm1hZT4nLCAnLW9tYWUnLCAnPG91dGZpbGUubWFlPic=

> <r_lp_tautomer_probability>
1

> <r_epik_Ionization_Penalty>
5.07027e-05

> <r_epik_Ionization_Penalty_Charging>
7.56727e-08

> <r_epik_Ionization_Penalty_Neutral>
5.06271e-05

> <r_epik_State_Penalty>
-0

> <r_epik_Charging_Adjusted_Penalty>
7.56727e-08

> <i_epik_Tot_Q>
0

> <i_epik_Tot_abs_Q>
0

> <r_epik_Metal_State_Penalty>
-0

> <b_epik_Metal_Only>
0

> <s_lp_Force_Field>
OPLS_2005

> <r_lp_Energy>
19.2499

> <b_lp_Chiralities_Consistent>
1

> <s_lp_Variant>
AV-unprocessed.smi:2288-2

> <Gold.Version>
5.8.1

> <Gold.Id.Protein>
6NUR|6NUR_protein|mol2

> <Gold.PLP.Fitness>
44.8186

> <Gold.PLP.PLP>
-39.8725

> <Gold.PLP.part.hbond>
-1.0000

> <Gold.PLP.part.metal>
0.0000

> <Gold.PLP.part.buried>
-3.6823

> <Gold.PLP.part.nonpolar>
-35.1953

> <Gold.PLP.part.repulsive>
0.1459

> <Gold.PLP.ligand.clash>
0.0000

> <Gold.PLP.ligand.torsion>
0.5294

> <Gold.PLP.Chemscore.Hbond>
1.0000

> <Gold.PLP.Chemscore.CHOScore>
1.0000

> <Gold.PLP.Chemscore.Metal>
0.0000

> <Gold.Chemscore.Hbonds>
donor molecule, donor type, donor heavy atom, donor atom, acceptor molecule, acceptor atom, score
      L1  H     9    30       P1  8028  0.93
      L1  C    12    33       P1  8028  0.67

> <Gold.PLP.Chemscore.Internal.Correction>
0.0050

> <Gold.Rescore>
     Score         DG    S(hbond)    S(metal)    S(lipo)     H(rot)  DE(clash)    DE(int)     intcor
     16.85     -17.83       0.99        0.00     118.55       1.89       0.52       0.46       ----

> <Gold.Chemscore.Fitness>
16.8496

> <Gold.Chemscore.DG>
-17.8305

> <Gold.Chemscore.ZeroCoef>
-5.4800

> <Gold.Chemscore.Hbond>
0.9940

> <Gold.Chemscore.Metal>
0.0000

> <Gold.Chemscore.Lipo>
118.5532

> <Gold.Chemscore.Internal_Hbond>
0.0000

> <Gold.Chemscore.DEClash>
0.5171

> <Gold.Chemscore.DEInternal>
0.4637

> <Gold.Chemscore.Rot>
1.8907

> <Gold.Chemscore.Internal.Correction>
   9.000000E+99

> <Gold.Chemscore.Hbonds>
donor molecule, donor type, donor heavy atom, donor atom, acceptor molecule, acceptor atom, score
      L1  H     9    30       P1  8028  0.91

> <Gold.Chemscore.Hbond.Weighted>
-3.3198

> <Gold.Chemscore.Metal.Weighted>
-0.0000

> <Gold.Chemscore.Lipo.Weighted>
-13.8707

> <Gold.Chemscore.Internal_Hbond.Weighted>
0.0000

> <Gold.Chemscore.DEClash.Weighted>
0.5171

> <Gold.Chemscore.DEInternal.Weighted>
0.4637

> <Gold.Chemscore.Rot.Weighted>
4.8401

> <Gold.Chemscore.Internal.Correction.Weighted>
   9.000000E+99

> <Gold.Protein.RotatedTorsions>
[ 6907 6896 6895 6894 ] final  110.87 input  -60.11 | X-H torsion
[ 7974 7965 7964 7962 ] final   33.59 input  175.53 | X-H torsion
[ 8008 7997 7996 7995 ] final  129.26 input   59.86 | X-H torsion
[ 10167 10162 10161 10158 ] final -122.19 input  -65.29 | X-H torsion
[ 10718 10713 10712 10709 ] final  -33.58 input   66.30 | X-H torsion
[ 10763 10752 10751 10750 ] final   79.49 input  -60.55 | X-H torsion
[ 11005 11000 10999 10996 ] final -173.48 input  -57.11 | X-H torsion

> <Gold.Protein.ActiveResidues>
 VAL166  LYS551  ARG553  GLY616  TRP617  ASP618  TYR619  PRO620  LYS621  CYS622 
 ASP623  PHE694  ASN695  SER759  ASP760  ASP761  ALA762  ILE779  LEU786  VAL792 
 PHE793  MET794  SER795  GLU796  ALA797  LYS798  CYS799  TRP800  GLU811  SER814 

> <Gold.Protein.RotatedAtoms>
  152.4998  133.8738  159.7311 H   0  0  0  0  0  0  0  0  0  0  0  0  # atno 6907 bound_to 6896
  150.9218  133.6862  159.2837 H   0  0  0  0  0  0  0  0  0  0  0  0  # atno 6908 bound_to 6896
  151.4237  135.1005  159.9674 H   0  0  0  0  0  0  0  0  0  0  0  0  # atno 6909 bound_to 6896
  146.1410  139.6377  142.9163 H   0  0  0  0  0  0  0  0  0  0  0  0  # atno 7974 bound_to 7965
  156.2932  140.2625  156.2569 H   0  0  0  0  0  0  0  0  0  0  0  0  # atno 8008 bound_to 7997
  154.9827  140.0389  157.2303 H   0  0  0  0  0  0  0  0  0  0  0  0  # atno 8009 bound_to 7997
  154.7757  140.2786  155.6107 H   0  0  0  0  0  0  0  0  0  0  0  0  # atno 8010 bound_to 7997
  140.0169  143.5384  152.2238 H   0  0  0  0  0  0  0  0  0  0  0  0  # atno 10167 bound_to 10162
  156.3610  130.4323  149.7624 H   0  0  0  0  0  0  0  0  0  0  0  0  # atno 10718 bound_to 10713
  153.0957  135.4838  154.8774 H   0  0  0  0  0  0  0  0  0  0  0  0  # atno 10763 bound_to 10752
  154.7322  135.3062  154.8875 H   0  0  0  0  0  0  0  0  0  0  0  0  # atno 10764 bound_to 10752
  153.9507  135.6823  153.4797 H   0  0  0  0  0  0  0  0  0  0  0  0  # atno 10765 bound_to 10752
  140.4852  134.6037  157.4934 H   0  0  0  0  0  0  0  0  0  0  0  0  # atno 11005 bound_to 11000
  145.5046  141.0437  143.2521 LP  0  0  0  0  0  0  0  0  0  0  0  0  # atno 17320 bound_to 7965
  144.7793  139.6561  143.7161 LP  0  0  0  0  0  0  0  0  0  0  0  0  # atno 17321 bound_to 7965
  139.6166  144.7621  151.2832 LP  0  0  0  0  0  0  0  0  0  0  0  0  # atno 17342 bound_to 10162
  140.7358  143.6725  150.8070 LP  0  0  0  0  0  0  0  0  0  0  0  0  # atno 17343 bound_to 10162
  156.4788  130.8031  151.3046 LP  0  0  0  0  0  0  0  0  0  0  0  0  # atno 17370 bound_to 10713
  157.7473  131.0012  150.2956 LP  0  0  0  0  0  0  0  0  0  0  0  0  # atno 17371 bound_to 10713
  139.9802  134.7149  155.9874 LP  0  0  0  0  0  0  0  0  0  0  0  0  # atno 17394 bound_to 11000
  141.1511  133.6548  156.4017 LP  0  0  0  0  0  0  0  0  0  0  0  0  # atno 17395 bound_to 11000

$$$$
