AV-unprocessed.smi:153|AV-procd|sdf|1257|dock8
  -GOLD-   2262018503D 1   1.00000     0.00000
 Structure written by MMmdl.
 60 63  0  0  0  0  0  0  0  0  2 V2000
  154.4788  140.6603  162.0029 C   0  0  0  0  0  0  0  0  0  0  0  0
  154.7462  139.6181  160.9050 C   0  0  1  0  0  0  0  0  0  0  0  0
  154.3564  138.3701  161.4825 O   0  0  0  0  0  0  0  0  0  0  0  0
  153.5218  137.6434  160.5945 C   0  0  0  0  0  0  0  0  0  0  0  0
  152.8203  138.7270  159.7891 C   0  0  0  0  0  0  0  0  0  0  0  0
  153.9208  139.7597  159.5955 C   0  0  2  0  0  0  0  0  0  0  0  0
  154.7296  139.3140  158.5195 O   0  0  0  0  0  0  0  0  0  0  0  0
  153.3600  141.1603  159.2227 C   0  0  0  0  0  0  0  0  0  0  0  0
  152.1450  141.1646  158.4125 N   0  0  0  0  0  0  0  0  0  0  0  0
  150.9598  141.8205  158.6652 C   0  0  0  0  0  0  0  0  0  0  0  0
  150.0376  141.6763  157.7544 N   0  0  0  0  0  0  0  0  0  0  0  0
  150.6289  140.8782  156.7824 C   0  0  0  0  0  0  0  0  0  0  0  0
  150.2070  140.3530  155.5229 C   0  0  0  0  0  0  0  0  0  0  0  0
  148.9751  140.5441  154.9748 N   0  0  0  0  0  0  0  0  0  0  0  0
  148.0536  141.4908  155.5900 C   0  0  0  0  0  0  0  0  0  0  0  0
  148.6880  140.0555  153.6216 C   0  0  0  0  0  0  0  0  0  0  0  0
  147.1892  139.7859  153.3525 C   0  0  1  0  0  0  0  0  0  0  0  0
  146.8396  140.3125  152.0881 O   0  0  0  0  0  0  0  0  0  0  0  0
  146.7697  138.3028  153.4481 C   0  0  0  0  0  0  0  0  0  0  0  0
  145.3019  138.1316  153.5862 N   0  3  0  0  0  0  0  0  0  0  0  0
  144.8265  136.8442  153.0254 C   0  0  0  0  0  0  0  0  0  0  0  0
  143.2965  136.7389  153.1406 C   0  0  0  0  0  0  0  0  0  0  0  0
  142.9092  136.8838  154.5012 O   0  0  0  0  0  0  0  0  0  0  0  0
  143.2817  138.1513  155.0278 C   0  0  0  0  0  0  0  0  0  0  0  0
  144.8113  138.3029  154.9764 C   0  0  0  0  0  0  0  0  0  0  0  0
  151.1182  139.6297  154.8204 N   0  0  0  0  0  0  0  0  0  0  0  0
  152.3438  139.4185  155.3063 C   0  0  0  0  0  0  0  0  0  0  0  0
  152.8652  139.8378  156.4587 N   0  0  0  0  0  0  0  0  0  0  0  0
  151.9645  140.5710  157.1731 C   0  0  0  0  0  0  0  0  0  0  0  0
  154.8842  141.6355  161.7433 H   0  0  0  0  0  0  0  0  0  0  0  0
  154.9577  140.3641  162.9365 H   0  0  0  0  0  0  0  0  0  0  0  0
  153.4125  140.7709  162.2013 H   0  0  0  0  0  0  0  0  0  0  0  0
  155.8167  139.5968  160.6938 H   0  0  0  0  0  0  0  0  0  0  0  0
  154.1389  137.0158  159.9502 H   0  0  0  0  0  0  0  0  0  0  0  0
  152.8260  137.0009  161.1343 H   0  0  0  0  0  0  0  0  0  0  0  0
  152.3934  138.3576  158.8557 H   0  0  0  0  0  0  0  0  0  0  0  0
  152.0079  139.1467  160.3842 H   0  0  0  0  0  0  0  0  0  0  0  0
  154.9793  138.4175  158.6833 H   0  0  0  0  0  0  0  0  0  0  0  0
  153.1550  141.7314  160.1288 H   0  0  0  0  0  0  0  0  0  0  0  0
  154.1260  141.7241  158.6897 H   0  0  0  0  0  0  0  0  0  0  0  0
  150.7880  142.4209  159.5455 H   0  0  0  0  0  0  0  0  0  0  0  0
  148.0585  141.3916  156.6762 H   0  0  0  0  0  0  0  0  0  0  0  0
  147.0345  141.3106  155.2473 H   0  0  0  0  0  0  0  0  0  0  0  0
  148.3201  142.5152  155.3287 H   0  0  0  0  0  0  0  0  0  0  0  0
  149.0572  140.7583  152.8752 H   0  0  0  0  0  0  0  0  0  0  0  0
  149.2615  139.1440  153.4492 H   0  0  0  0  0  0  0  0  0  0  0  0
  146.6328  140.3685  154.0857 H   0  0  0  0  0  0  0  0  0  0  0  0
  147.6329  140.4729  151.5993 H   0  0  0  0  0  0  0  0  0  0  0  0
  147.1063  137.7866  152.5478 H   0  0  0  0  0  0  0  0  0  0  0  0
  147.2694  137.8146  154.2864 H   0  0  0  0  0  0  0  0  0  0  0  0
  145.1187  136.7649  151.9776 H   0  0  0  0  0  0  0  0  0  0  0  0
  145.3009  136.0163  153.5546 H   0  0  0  0  0  0  0  0  0  0  0  0
  142.8060  137.4964  152.5271 H   0  0  0  0  0  0  0  0  0  0  0  0
  142.9586  135.7680  152.7781 H   0  0  0  0  0  0  0  0  0  0  0  0
  142.7915  138.9504  154.4691 H   0  0  0  0  0  0  0  0  0  0  0  0
  142.9316  138.2220  156.0578 H   0  0  0  0  0  0  0  0  0  0  0  0
  145.2786  137.5601  155.6249 H   0  0  0  0  0  0  0  0  0  0  0  0
  145.0891  139.2829  155.3629 H   0  0  0  0  0  0  0  0  0  0  0  0
  152.9995  138.8279  154.6837 H   0  0  0  0  0  0  0  0  0  0  0  0
  144.8765  138.8582  153.0275 H   0  0  0  0  0  0  0  0  0  0  0  0
  1  2  1  0  0  0  0
  1 30  1  0  0  0  0
  1 31  1  0  0  0  0
  1 32  1  0  0  0  0
  2  6  1  0  0  0  0
  2  3  1  0  0  0  0
  2 33  1  0  0  0  0
  3  4  1  0  0  0  0
  4  5  1  0  0  0  0
  4 34  1  0  0  0  0
  4 35  1  0  0  0  0
  5  6  1  0  0  0  0
  5 36  1  0  0  0  0
  5 37  1  0  0  0  0
  6  7  1  0  0  0  0
  6  8  1  0  0  0  0
  7 38  1  0  0  0  0
  8  9  1  0  0  0  0
  8 39  1  0  0  0  0
  8 40  1  0  0  0  0
  9 29  1  0  0  0  0
  9 10  1  0  0  0  0
 10 11  2  0  0  0  0
 10 41  1  0  0  0  0
 11 12  1  0  0  0  0
 12 29  2  0  0  0  0
 12 13  1  0  0  0  0
 13 14  1  0  0  0  0
 13 26  2  0  0  0  0
 14 15  1  0  0  0  0
 14 16  1  0  0  0  0
 15 42  1  0  0  0  0
 15 43  1  0  0  0  0
 15 44  1  0  0  0  0
 16 17  1  0  0  0  0
 16 45  1  0  0  0  0
 16 46  1  0  0  0  0
 17 18  1  0  0  0  0
 17 19  1  0  0  0  0
 17 47  1  0  0  0  0
 18 48  1  0  0  0  0
 19 20  1  0  0  0  0
 19 49  1  0  0  0  0
 19 50  1  0  0  0  0
 20 25  1  0  0  0  0
 20 21  1  0  0  0  0
 20 60  1  0  0  0  0
 21 22  1  0  0  0  0
 21 51  1  0  0  0  0
 21 52  1  0  0  0  0
 22 23  1  0  0  0  0
 22 53  1  0  0  0  0
 22 54  1  0  0  0  0
 23 24  1  0  0  0  0
 24 25  1  0  0  0  0
 24 55  1  0  0  0  0
 24 56  1  0  0  0  0
 25 57  1  0  0  0  0
 25 58  1  0  0  0  0
 26 27  1  0  0  0  0
 27 28  2  0  0  0  0
 27 59  1  0  0  0  0
 28 29  1  0  0  0  0
M  CHG  1  20   1
M  END
> <s_m_source_file>
AV-unprocessed.smi

> <i_m_source_file_index>
153

> <i_lp_mmshare_version>
43012

> <i_f3d_flags>
0

> <s_epik_input>
W0NIMl0xW0NIMl1PW0NAQEhdKFtDSDNdKVtDQEBdMShbT0hdKVtDSDJdbihbY0hdbjIpYyhjMjMpbltjSF1uYzNOKFtDSDNdKVtDSDJdW0NASF0oW09IXSlbQ0gyXU40W0NIMl1bQ0gyXU9bQ0gyXVtDSDJdNA==

> <s_epik_cmdline>
J2VwaWtfcHl0aG9uJywgJy1waCcsICc3LjAnLCAnLXRuJywgJzgnLCAnLW1hJywgJzIwMCcsICctbWV0YWxfYmluZGluZycsICctaW1hZScsICc8aW5maWxlLm1hZT4nLCAnLW9tYWUnLCAnPG91dGZpbGUubWFlPic=

> <r_lp_tautomer_probability>
1

> <r_epik_Ionization_Penalty>
0.403509

> <r_epik_Ionization_Penalty_Charging>
0.40072

> <r_epik_Ionization_Penalty_Neutral>
0.00278876

> <r_epik_State_Penalty>
0.400058

> <r_epik_Charging_Adjusted_Penalty>
0.800778

> <i_epik_Tot_Q>
1

> <i_epik_Tot_abs_Q>
1

> <r_epik_Metal_State_Penalty>
0.400321

> <b_epik_Metal_Only>
0

> <s_lp_Force_Field>
OPLS_2005

> <r_lp_Energy>
51.1355

> <b_lp_Chiralities_Consistent>
1

> <s_lp_Variant>
AV-unprocessed.smi:153-8

> <Gold.Version>
5.8.1

> <Gold.Id.Protein>
6NUR|6NUR_protein|mol2

> <Gold.PLP.Fitness>
54.3598

> <Gold.PLP.PLP>
-41.2672

> <Gold.PLP.part.hbond>
-5.5311

> <Gold.PLP.part.metal>
0.0000

> <Gold.PLP.part.buried>
-0.6063

> <Gold.PLP.part.nonpolar>
-34.4807

> <Gold.PLP.part.repulsive>
0.1955

> <Gold.PLP.ligand.clash>
0.0000

> <Gold.PLP.ligand.torsion>
1.8279

> <Gold.PLP.Chemscore.Hbond>
5.4160

> <Gold.PLP.Chemscore.CHOScore>
0.0000

> <Gold.PLP.Chemscore.Metal>
0.0000

> <Gold.Chemscore.Hbonds>
donor molecule, donor type, donor heavy atom, donor atom, acceptor molecule, acceptor atom, score
      L1  H    18    48       P1  7957  1.00
      L1  H    20    60       P1 10175  1.76
      P1  H  7989  7998       L1    26  0.80
      P1  H  7997  8008       L1    28  0.59
      P1  H  7997  8010       L1     7  0.89

> <Gold.PLP.Chemscore.Internal.Correction>
0.5003

> <Gold.Rescore>
     Score         DG    S(hbond)    S(metal)    S(lipo)     H(rot)  DE(clash)    DE(int)     intcor
     11.74     -16.63       3.20        0.00      83.16       3.62       1.64       3.25       ----

> <Gold.Chemscore.Fitness>
11.7405

> <Gold.Chemscore.DG>
-16.6295

> <Gold.Chemscore.ZeroCoef>
-5.4800

> <Gold.Chemscore.Hbond>
3.1984

> <Gold.Chemscore.Metal>
0.0000

> <Gold.Chemscore.Lipo>
83.1571

> <Gold.Chemscore.Internal_Hbond>
0.0000

> <Gold.Chemscore.DEClash>
1.6361

> <Gold.Chemscore.DEInternal>
3.2529

> <Gold.Chemscore.Rot>
3.6182

> <Gold.Chemscore.Internal.Correction>
   9.000000E+99

> <Gold.Chemscore.Hbonds>
donor molecule, donor type, donor heavy atom, donor atom, acceptor molecule, acceptor atom, score
      L1  H    18    48       P1  7957  0.90
      L1  H    20    60       P1 10175  0.85
      P1  H  7989  7998       L1    26  0.04
      P1  H  7997  8008       L1    28  0.13
      P1  H  7997  8010       L1     7  0.81

> <Gold.Chemscore.Hbond.Weighted>
-10.6825

> <Gold.Chemscore.Metal.Weighted>
-0.0000

> <Gold.Chemscore.Lipo.Weighted>
-9.7294

> <Gold.Chemscore.Internal_Hbond.Weighted>
0.0000

> <Gold.Chemscore.DEClash.Weighted>
1.6361

> <Gold.Chemscore.DEInternal.Weighted>
3.2529

> <Gold.Chemscore.Rot.Weighted>
9.2625

> <Gold.Chemscore.Internal.Correction.Weighted>
   9.000000E+99

> <Gold.Protein.RotatedTorsions>
[ 6907 6896 6895 6894 ] final  103.01 input  -60.11 | X-H torsion
[ 7974 7965 7964 7962 ] final   31.87 input  175.53 | X-H torsion
[ 8008 7997 7996 7995 ] final  -14.91 input   59.86 | X-H torsion
[ 10167 10162 10161 10158 ] final    5.43 input  -65.29 | X-H torsion
[ 10718 10713 10712 10709 ] final  -52.83 input   66.30 | X-H torsion
[ 10763 10752 10751 10750 ] final  156.00 input  -60.55 | X-H torsion
[ 11005 11000 10999 10996 ] final  104.03 input  -57.11 | X-H torsion

> <Gold.Protein.ActiveResidues>
 VAL166  LYS551  ARG553  GLY616  TRP617  ASP618  TYR619  PRO620  LYS621  CYS622 
 ASP623  PHE694  ASN695  SER759  ASP760  ASP761  ALA762  ILE779  LEU786  VAL792 
 PHE793  MET794  SER795  GLU796  ALA797  LYS798  CYS799  TRP800  GLU811  SER814 

> <Gold.Protein.RotatedAtoms>
  152.5308  133.9890  159.7841 H   0  0  0  0  0  0  0  0  0  0  0  0  # atno 6907 bound_to 6896
  151.0130  133.5940  159.2687 H   0  0  0  0  0  0  0  0  0  0  0  0  # atno 6908 bound_to 6896
  151.3007  135.0774  159.9291 H   0  0  0  0  0  0  0  0  0  0  0  0  # atno 6909 bound_to 6896
  146.1523  139.6601  142.9090 H   0  0  0  0  0  0  0  0  0  0  0  0  # atno 7974 bound_to 7965
  154.5172  140.2210  155.9044 H   0  0  0  0  0  0  0  0  0  0  0  0  # atno 8008 bound_to 7997
  156.1621  140.3140  155.8790 H   0  0  0  0  0  0  0  0  0  0  0  0  # atno 8009 bound_to 7997
  155.3730  140.0468  157.3036 H   0  0  0  0  0  0  0  0  0  0  0  0  # atno 8010 bound_to 7997
  140.6482  143.7609  150.7533 H   0  0  0  0  0  0  0  0  0  0  0  0  # atno 10167 bound_to 10162
  156.1587  130.4150  149.9827 H   0  0  0  0  0  0  0  0  0  0  0  0  # atno 10718 bound_to 10713
  154.1774  135.2801  155.3062 H   0  0  0  0  0  0  0  0  0  0  0  0  # atno 10763 bound_to 10752
  154.6029  135.5524  153.7396 H   0  0  0  0  0  0  0  0  0  0  0  0  # atno 10764 bound_to 10752
  153.0147  135.6396  154.1913 H   0  0  0  0  0  0  0  0  0  0  0  0  # atno 10765 bound_to 10752
  139.8788  134.9285  156.5300 H   0  0  0  0  0  0  0  0  0  0  0  0  # atno 11005 bound_to 11000
  145.4793  141.0437  143.2654 LP  0  0  0  0  0  0  0  0  0  0  0  0  # atno 17320 bound_to 7965
  144.7919  139.6311  143.7109 LP  0  0  0  0  0  0  0  0  0  0  0  0  # atno 17321 bound_to 7965
  140.1255  143.4573  152.2287 LP  0  0  0  0  0  0  0  0  0  0  0  0  # atno 17342 bound_to 10162
  139.5695  144.7454  151.3931 LP  0  0  0  0  0  0  0  0  0  0  0  0  # atno 17343 bound_to 10162
  156.7663  130.9169  151.3643 LP  0  0  0  0  0  0  0  0  0  0  0  0  # atno 17370 bound_to 10713
  157.6716  130.9056  150.0052 LP  0  0  0  0  0  0  0  0  0  0  0  0  # atno 17371 bound_to 10713
  140.8388  133.8221  155.9054 LP  0  0  0  0  0  0  0  0  0  0  0  0  # atno 17394 bound_to 11000
  140.9258  134.2084  157.4897 LP  0  0  0  0  0  0  0  0  0  0  0  0  # atno 17395 bound_to 11000

$$$$
