AV-unprocessed.smi:3341|AV-procd|sdf|12885|dock8
  -GOLD-   2272019293D 1   1.00000     0.00000
 Structure written by MMmdl.
 46 47  0  0  0  0  0  0  0  0  2 V2000
  151.1478  141.7947  158.0298 C   0  0  0  0  0  0  0  0  0  0  0  0
  152.3146  140.9602  157.4886 C   0  0  0  0  0  0  0  0  0  0  0  0
  151.9316  140.1961  156.3176 N   0  0  0  0  0  0  0  0  0  0  0  0
  150.6936  140.1285  155.7098 C   0  0  0  0  0  0  0  0  0  0  0  0
  150.8483  139.2795  154.6504 C   0  0  0  0  0  0  0  0  0  0  0  0
  149.8939  138.8513  153.6932 N   0  0  0  0  0  0  0  0  0  0  0  0
  148.6593  139.3416  153.4970 C   0  0  0  0  0  0  0  0  0  0  0  0
  148.1584  140.2752  154.1241 O   0  0  0  0  0  0  0  0  0  0  0  0
  148.0246  138.6875  152.5141 N   0  0  0  0  0  0  0  0  0  0  0  0
  146.6692  138.9741  152.0588 C   0  0  0  0  0  0  0  0  0  0  0  0
  146.1977  137.9510  151.0073 C   0  0  0  0  0  0  0  0  0  0  0  0
  145.9852  136.6002  151.5860 N   0  3  1  0  0  0  0  0  0  0  0  0
  145.3420  136.6583  152.9242 C   0  0  0  0  0  0  0  0  0  0  0  0
  145.2739  135.2649  153.5685 C   0  0  0  0  0  0  0  0  0  0  0  0
  144.5490  134.2686  152.6531 C   0  0  0  0  0  0  0  0  0  0  0  0
  145.1730  134.2481  151.2456 C   0  0  2  0  0  0  0  0  0  0  0  0
  146.5293  133.5221  151.2037 C   0  0  0  0  0  0  0  0  0  0  0  0
  145.2590  135.6774  150.6709 C   0  0  0  0  0  0  0  0  0  0  0  0
  152.2067  138.8697  154.6778 C   0  0  0  0  0  0  0  0  0  0  0  0
  152.8557  139.4291  155.6876 N   0  0  0  0  0  0  0  0  0  0  0  0
  151.4500  142.3558  158.9141 H   0  0  0  0  0  0  0  0  0  0  0  0
  150.3067  141.1596  158.3097 H   0  0  0  0  0  0  0  0  0  0  0  0
  150.7954  142.5102  157.2863 H   0  0  0  0  0  0  0  0  0  0  0  0
  153.1549  141.6054  157.2284 H   0  0  0  0  0  0  0  0  0  0  0  0
  152.6706  140.2698  158.2543 H   0  0  0  0  0  0  0  0  0  0  0  0
  149.8413  140.6774  156.0821 H   0  0  0  0  0  0  0  0  0  0  0  0
  150.1830  138.0898  153.0969 H   0  0  0  0  0  0  0  0  0  0  0  0
  148.5115  137.9322  152.0534 H   0  0  0  0  0  0  0  0  0  0  0  0
  146.0256  138.9566  152.9372 H   0  0  0  0  0  0  0  0  0  0  0  0
  146.6174  139.9873  151.6564 H   0  0  0  0  0  0  0  0  0  0  0  0
  145.2572  138.3060  150.5836 H   0  0  0  0  0  0  0  0  0  0  0  0
  146.9040  137.8914  150.1779 H   0  0  0  0  0  0  0  0  0  0  0  0
  145.9068  137.3233  153.5788 H   0  0  0  0  0  0  0  0  0  0  0  0
  144.3404  137.0809  152.8298 H   0  0  0  0  0  0  0  0  0  0  0  0
  146.2819  134.9091  153.7840 H   0  0  0  0  0  0  0  0  0  0  0  0
  144.7608  135.3253  154.5288 H   0  0  0  0  0  0  0  0  0  0  0  0
  144.5605  133.2709  153.0932 H   0  0  0  0  0  0  0  0  0  0  0  0
  143.4993  134.5556  152.5758 H   0  0  0  0  0  0  0  0  0  0  0  0
  144.5012  133.6778  150.6025 H   0  0  0  0  0  0  0  0  0  0  0  0
  147.2843  134.0323  151.8018 H   0  0  0  0  0  0  0  0  0  0  0  0
  146.9073  133.4594  150.1828 H   0  0  0  0  0  0  0  0  0  0  0  0
  146.4399  132.5031  151.5813 H   0  0  0  0  0  0  0  0  0  0  0  0
  144.2534  136.0659  150.5013 H   0  0  0  0  0  0  0  0  0  0  0  0
  145.7426  135.6414  149.6954 H   0  0  0  0  0  0  0  0  0  0  0  0
  152.7324  138.1997  154.0138 H   0  0  0  0  0  0  0  0  0  0  0  0
  146.9034  136.2066  151.7348 H   0  0  0  0  0  0  0  0  0  0  0  0
  1  2  1  0  0  0  0
  1 21  1  0  0  0  0
  1 22  1  0  0  0  0
  1 23  1  0  0  0  0
  2  3  1  0  0  0  0
  2 24  1  0  0  0  0
  2 25  1  0  0  0  0
  3 20  1  0  0  0  0
  3  4  1  0  0  0  0
  4  5  2  0  0  0  0
  4 26  1  0  0  0  0
  5  6  1  0  0  0  0
  5 19  1  0  0  0  0
  6  7  1  0  0  0  0
  6 27  1  0  0  0  0
  7  8  2  0  0  0  0
  7  9  1  0  0  0  0
  9 10  1  0  0  0  0
  9 28  1  0  0  0  0
 10 11  1  0  0  0  0
 10 29  1  0  0  0  0
 10 30  1  0  0  0  0
 11 12  1  0  0  0  0
 11 31  1  0  0  0  0
 11 32  1  0  0  0  0
 12 18  1  0  0  0  0
 12 13  1  0  0  0  0
 12 46  1  0  0  0  0
 13 14  1  0  0  0  0
 13 33  1  0  0  0  0
 13 34  1  0  0  0  0
 14 15  1  0  0  0  0
 14 35  1  0  0  0  0
 14 36  1  0  0  0  0
 15 16  1  0  0  0  0
 15 37  1  0  0  0  0
 15 38  1  0  0  0  0
 16 17  1  0  0  0  0
 16 18  1  0  0  0  0
 16 39  1  0  0  0  0
 17 40  1  0  0  0  0
 17 41  1  0  0  0  0
 17 42  1  0  0  0  0
 18 43  1  0  0  0  0
 18 44  1  0  0  0  0
 19 20  2  0  0  0  0
 19 45  1  0  0  0  0
M  CHG  1  12   1
M  END
> <s_m_source_file>
AV-unprocessed.smi

> <i_m_source_file_index>
3341

> <i_lp_mmshare_version>
43012

> <i_f3d_flags>
0

> <s_epik_input>
W0NIM11bQ0gyXW4xW2NIXWMoW2NIXW4xKVtOSF1DKD1PKVtOSF1bQ0gyXVtDSDJdTjJbQ0gyXVtDSDJdW0NIMl1bQ0BASF0oW0NIM10pW0NIMl0y

> <s_epik_cmdline>
J2VwaWtfcHl0aG9uJywgJy1waCcsICc3LjAnLCAnLXRuJywgJzgnLCAnLW1hJywgJzIwMCcsICctbWV0YWxfYmluZGluZycsICctaW1hZScsICc8aW5maWxlLm1hZT4nLCAnLW9tYWUnLCAnPG91dGZpbGUubWFlPic=

> <r_lp_tautomer_probability>
1

> <r_epik_Ionization_Penalty>
0.00203389

> <r_epik_Ionization_Penalty_Charging>
0.00188267

> <r_epik_Ionization_Penalty_Neutral>
0.000151224

> <r_epik_State_Penalty>
0.0012808

> <r_epik_Charging_Adjusted_Penalty>
0.00316346

> <i_epik_Tot_Q>
1

> <i_epik_Tot_abs_Q>
1

> <r_epik_Metal_State_Penalty>
-0

> <b_epik_Metal_Only>
0

> <s_lp_Force_Field>
OPLS_2005

> <r_lp_Energy>
23.1635

> <b_lp_Chiralities_Consistent>
1

> <s_lp_Variant>
AV-unprocessed.smi:3341-3

> <Gold.Version>
5.8.1

> <Gold.Id.Protein>
6NUR|6NUR_protein|mol2

> <Gold.PLP.Fitness>
48.0081

> <Gold.PLP.PLP>
-36.3393

> <Gold.PLP.part.hbond>
-5.1176

> <Gold.PLP.part.metal>
0.0000

> <Gold.PLP.part.buried>
2.4044

> <Gold.PLP.part.nonpolar>
-33.5144

> <Gold.PLP.part.repulsive>
0.3417

> <Gold.PLP.ligand.clash>
0.0000

> <Gold.PLP.ligand.torsion>
0.1931

> <Gold.PLP.Chemscore.Hbond>
4.0000

> <Gold.PLP.Chemscore.CHOScore>
0.0000

> <Gold.PLP.Chemscore.Metal>
0.0000

> <Gold.Chemscore.Hbonds>
donor molecule, donor type, donor heavy atom, donor atom, acceptor molecule, acceptor atom, score
      L1  H     9    28       P1  7948  1.00
      L1  H    12    46       P1  7948  2.00
      P1  H  7997  8008       L1    20  0.95

> <Gold.PLP.Chemscore.Internal.Correction>
0.0550

> <Gold.Rescore>
     Score         DG    S(hbond)    S(metal)    S(lipo)     H(rot)  DE(clash)    DE(int)     intcor
     18.19     -20.52       2.95        0.00      79.16       1.59       0.84       1.49       ----

> <Gold.Chemscore.Fitness>
18.1870

> <Gold.Chemscore.DG>
-20.5210

> <Gold.Chemscore.ZeroCoef>
-5.4800

> <Gold.Chemscore.Hbond>
2.9497

> <Gold.Chemscore.Metal>
0.0000

> <Gold.Chemscore.Lipo>
79.1598

> <Gold.Chemscore.Internal_Hbond>
0.0000

> <Gold.Chemscore.DEClash>
0.8424

> <Gold.Chemscore.DEInternal>
1.4916

> <Gold.Chemscore.Rot>
1.5909

> <Gold.Chemscore.Internal.Correction>
   9.000000E+99

> <Gold.Chemscore.Hbonds>
donor molecule, donor type, donor heavy atom, donor atom, acceptor molecule, acceptor atom, score
      L1  H     9    28       P1  7948  0.98
      L1  H    12    46       P1  7948  0.92
      P1  H  7997  8008       L1    20  0.21

> <Gold.Chemscore.Hbond.Weighted>
-9.8521

> <Gold.Chemscore.Metal.Weighted>
-0.0000

> <Gold.Chemscore.Lipo.Weighted>
-9.2617

> <Gold.Chemscore.Internal_Hbond.Weighted>
0.0000

> <Gold.Chemscore.DEClash.Weighted>
0.8424

> <Gold.Chemscore.DEInternal.Weighted>
1.4916

> <Gold.Chemscore.Rot.Weighted>
4.0728

> <Gold.Chemscore.Internal.Correction.Weighted>
   9.000000E+99

> <Gold.Protein.RotatedTorsions>
[ 6907 6896 6895 6894 ] final  -96.58 input  -60.11 | X-H torsion
[ 7974 7965 7964 7962 ] final   41.73 input  175.53 | X-H torsion
[ 8008 7997 7996 7995 ] final  -49.56 input   59.86 | X-H torsion
[ 10167 10162 10161 10158 ] final    5.45 input  -65.29 | X-H torsion
[ 10718 10713 10712 10709 ] final  -39.65 input   66.30 | X-H torsion
[ 10763 10752 10751 10750 ] final  145.20 input  -60.55 | X-H torsion
[ 11005 11000 10999 10996 ] final -124.25 input  -57.11 | X-H torsion

> <Gold.Protein.ActiveResidues>
 VAL166  LYS551  ARG553  GLY616  TRP617  ASP618  TYR619  PRO620  LYS621  CYS622 
 ASP623  PHE694  ASN695  SER759  ASP760  ASP761  ALA762  ILE779  LEU786  VAL792 
 PHE793  MET794  SER795  GLU796  ALA797  LYS798  CYS799  TRP800  GLU811  SER814 

> <Gold.Protein.RotatedAtoms>
  150.6992  134.1481  159.4129 H   0  0  0  0  0  0  0  0  0  0  0  0  # atno 6907 bound_to 6896
  151.9465  135.0187  160.0548 H   0  0  0  0  0  0  0  0  0  0  0  0  # atno 6908 bound_to 6896
  152.2048  133.4833  159.5115 H   0  0  0  0  0  0  0  0  0  0  0  0  # atno 6909 bound_to 6896
  146.0799  139.5381  142.9544 H   0  0  0  0  0  0  0  0  0  0  0  0  # atno 7974 bound_to 7965
  154.4046  140.1294  156.4523 H   0  0  0  0  0  0  0  0  0  0  0  0  # atno 8008 bound_to 7997
  155.7354  140.3490  155.5059 H   0  0  0  0  0  0  0  0  0  0  0  0  # atno 8009 bound_to 7997
  155.9088  140.1032  157.1285 H   0  0  0  0  0  0  0  0  0  0  0  0  # atno 8010 bound_to 7997
  140.6481  143.7612  150.7531 H   0  0  0  0  0  0  0  0  0  0  0  0  # atno 10167 bound_to 10162
  156.2900  130.4227  149.8248 H   0  0  0  0  0  0  0  0  0  0  0  0  # atno 10718 bound_to 10713
  154.0015  135.2923  155.3402 H   0  0  0  0  0  0  0  0  0  0  0  0  # atno 10763 bound_to 10752
  154.7157  135.5131  153.8737 H   0  0  0  0  0  0  0  0  0  0  0  0  # atno 10764 bound_to 10752
  153.0764  135.6665  154.0256 H   0  0  0  0  0  0  0  0  0  0  0  0  # atno 10765 bound_to 10752
  140.9855  134.0612  157.3715 H   0  0  0  0  0  0  0  0  0  0  0  0  # atno 11005 bound_to 11000
  145.6237  141.0317  143.1901 LP  0  0  0  0  0  0  0  0  0  0  0  0  # atno 17320 bound_to 7965
  144.7286  139.7796  143.7355 LP  0  0  0  0  0  0  0  0  0  0  0  0  # atno 17321 bound_to 7965
  140.1258  143.4571  152.2285 LP  0  0  0  0  0  0  0  0  0  0  0  0  # atno 17342 bound_to 10162
  139.5693  144.7454  151.3934 LP  0  0  0  0  0  0  0  0  0  0  0  0  # atno 17343 bound_to 10162
  156.5664  130.8406  151.3344 LP  0  0  0  0  0  0  0  0  0  0  0  0  # atno 17370 bound_to 10713
  157.7340  130.9739  150.2005 LP  0  0  0  0  0  0  0  0  0  0  0  0  # atno 17371 bound_to 10713
  139.8969  135.0148  156.7073 LP  0  0  0  0  0  0  0  0  0  0  0  0  # atno 17394 bound_to 11000
  140.7120  133.9214  155.8091 LP  0  0  0  0  0  0  0  0  0  0  0  0  # atno 17395 bound_to 11000

$$$$
