AV-unprocessed.smi:3158|AV-procd|sdf|12047|dock8
  -GOLD-   2272017473D 1   1.00000     0.00000
 Structure written by MMmdl.
 39 39  0  0  0  0  0  0  0  0  1 V2000
  144.6434  144.4373  153.0155 C   0  0  0  0  0  0  0  0  0  0  0  0
  145.8178  143.5006  153.3354 C   0  0  0  0  0  0  0  0  0  0  0  0
  145.6662  142.7524  154.6733 C   0  0  2  0  0  0  0  0  0  0  0  0
  144.9021  143.5922  155.7090 C   0  0  0  0  0  0  0  0  0  0  0  0
  146.9813  142.3865  155.1922 N   0  0  0  0  0  0  0  0  0  0  0  0
  147.4598  141.1378  155.3138 C   0  0  0  0  0  0  0  0  0  0  0  0
  146.8078  140.1349  155.0203 O   0  0  0  0  0  0  0  0  0  0  0  0
  148.9000  141.0251  155.8341 C   0  0  1  0  0  0  0  0  0  0  0  0
  149.8779  140.5359  154.7459 C   0  0  0  0  0  0  0  0  0  0  0  0
  149.3184  142.3185  156.3943 N   0  0  0  0  0  0  0  0  0  0  0  0
  150.7237  142.3545  156.7788 C   0  0  0  0  0  0  0  0  0  0  0  0
  151.2349  143.8053  156.7614 C   0  0  0  0  0  0  0  0  0  0  0  0
  151.3498  144.3690  158.0955 N   0  0  0  0  0  0  0  0  0  0  0  0
  150.6702  145.4413  158.6343 C   0  0  0  0  0  0  0  0  0  0  0  0
  151.1060  145.5946  159.9194 C   0  0  0  0  0  0  0  0  0  0  0  0
  152.0661  144.5564  160.0762 C   0  0  0  0  0  0  0  0  0  0  0  0
  152.2120  143.8263  158.9822 N   0  0  0  0  0  0  0  0  0  0  0  0
  144.8150  144.9681  152.0790 H   0  0  0  0  0  0  0  0  0  0  0  0
  144.5094  145.1816  153.8005 H   0  0  0  0  0  0  0  0  0  0  0  0
  143.7083  143.8865  152.9136 H   0  0  0  0  0  0  0  0  0  0  0  0
  145.9357  142.7831  152.5222 H   0  0  0  0  0  0  0  0  0  0  0  0
  146.7361  144.0888  153.3558 H   0  0  0  0  0  0  0  0  0  0  0  0
  145.0945  141.8420  154.4825 H   0  0  0  0  0  0  0  0  0  0  0  0
  143.9132  143.8642  155.3393 H   0  0  0  0  0  0  0  0  0  0  0  0
  145.4347  144.5142  155.9443 H   0  0  0  0  0  0  0  0  0  0  0  0
  144.7625  143.0412  156.6397 H   0  0  0  0  0  0  0  0  0  0  0  0
  147.5920  143.1469  155.4546 H   0  0  0  0  0  0  0  0  0  0  0  0
  148.8742  140.2816  156.6328 H   0  0  0  0  0  0  0  0  0  0  0  0
  149.5268  139.6114  154.2854 H   0  0  0  0  0  0  0  0  0  0  0  0
  150.8642  140.3255  155.1588 H   0  0  0  0  0  0  0  0  0  0  0  0
  150.0013  141.2762  153.9543 H   0  0  0  0  0  0  0  0  0  0  0  0
  149.1083  143.0834  155.7692 H   0  0  0  0  0  0  0  0  0  0  0  0
  150.8587  141.9246  157.7724 H   0  0  0  0  0  0  0  0  0  0  0  0
  151.3119  141.7552  156.0841 H   0  0  0  0  0  0  0  0  0  0  0  0
  152.2165  143.8473  156.2875 H   0  0  0  0  0  0  0  0  0  0  0  0
  150.5754  144.4385  156.1660 H   0  0  0  0  0  0  0  0  0  0  0  0
  149.9376  145.9961  158.0670 H   0  0  0  0  0  0  0  0  0  0  0  0
  150.7857  146.3338  160.6385 H   0  0  0  0  0  0  0  0  0  0  0  0
  152.6580  144.3137  160.9465 H   0  0  0  0  0  0  0  0  0  0  0  0
  1  2  1  0  0  0  0
  1 18  1  0  0  0  0
  1 19  1  0  0  0  0
  1 20  1  0  0  0  0
  2  3  1  0  0  0  0
  2 21  1  0  0  0  0
  2 22  1  0  0  0  0
  3  4  1  0  0  0  0
  3  5  1  0  0  0  0
  3 23  1  0  0  0  0
  4 24  1  0  0  0  0
  4 25  1  0  0  0  0
  4 26  1  0  0  0  0
  5  6  1  0  0  0  0
  5 27  1  0  0  0  0
  6  7  2  0  0  0  0
  6  8  1  0  0  0  0
  8  9  1  0  0  0  0
  8 10  1  0  0  0  0
  8 28  1  0  0  0  0
  9 29  1  0  0  0  0
  9 30  1  0  0  0  0
  9 31  1  0  0  0  0
 10 11  1  0  0  0  0
 10 32  1  0  0  0  0
 11 12  1  0  0  0  0
 11 33  1  0  0  0  0
 11 34  1  0  0  0  0
 12 13  1  0  0  0  0
 12 35  1  0  0  0  0
 12 36  1  0  0  0  0
 13 17  1  0  0  0  0
 13 14  1  0  0  0  0
 14 15  2  0  0  0  0
 14 37  1  0  0  0  0
 15 16  1  0  0  0  0
 15 38  1  0  0  0  0
 16 17  2  0  0  0  0
 16 39  1  0  0  0  0
M  END
> <s_m_source_file>
AV-unprocessed.smi

> <i_m_source_file_index>
3158

> <i_lp_mmshare_version>
43012

> <i_f3d_flags>
0

> <s_epik_input>
W0NIM11bQ0gyXVtDQEhdKFtDSDNdKVtOSF1DKD1PKVtDQEhdKFtDSDNdKVtOSF1bQ0gyXVtDSDJdbjFbY0hdW2NIXVtjSF1uMQ==

> <s_epik_cmdline>
J2VwaWtfcHl0aG9uJywgJy1waCcsICc3LjAnLCAnLXRuJywgJzgnLCAnLW1hJywgJzIwMCcsICctbWV0YWxfYmluZGluZycsICctaW1hZScsICc8aW5maWxlLm1hZT4nLCAnLW9tYWUnLCAnPG91dGZpbGUubWFlPic=

> <r_lp_tautomer_probability>
1

> <r_epik_Ionization_Penalty>
0.724013

> <r_epik_Ionization_Penalty_Charging>
0

> <r_epik_Ionization_Penalty_Neutral>
0.724013

> <r_epik_State_Penalty>
0.74758

> <r_epik_Charging_Adjusted_Penalty>
0.74758

> <i_epik_Tot_Q>
0

> <i_epik_Tot_abs_Q>
0

> <r_epik_Metal_State_Penalty>
0.746846

> <b_epik_Metal_Only>
0

> <s_lp_Force_Field>
OPLS_2005

> <r_lp_Energy>
5.95419

> <b_lp_Chiralities_Consistent>
1

> <s_lp_Variant>
AV-unprocessed.smi:3158-7

> <Gold.Version>
5.8.1

> <Gold.Id.Protein>
6NUR|6NUR_protein|mol2

> <Gold.PLP.Fitness>
43.8440

> <Gold.PLP.PLP>
-36.8516

> <Gold.PLP.part.hbond>
-2.0000

> <Gold.PLP.part.metal>
0.0000

> <Gold.PLP.part.buried>
-2.8618

> <Gold.PLP.part.nonpolar>
-32.5424

> <Gold.PLP.part.repulsive>
0.1365

> <Gold.PLP.ligand.clash>
0.0000

> <Gold.PLP.ligand.torsion>
1.0761

> <Gold.PLP.Chemscore.Hbond>
2.0000

> <Gold.PLP.Chemscore.CHOScore>
0.9984

> <Gold.PLP.Chemscore.Metal>
0.0000

> <Gold.Chemscore.Hbonds>
donor molecule, donor type, donor heavy atom, donor atom, acceptor molecule, acceptor atom, score
      L1  H     5    27       P1  8028  1.00
      L1  H    10    32       P1  8028  0.91
      L1  C    14    37       P1  8029  1.00

> <Gold.PLP.Chemscore.Internal.Correction>
0.1493

> <Gold.Rescore>
     Score         DG    S(hbond)    S(metal)    S(lipo)     H(rot)  DE(clash)    DE(int)     intcor
     13.50     -15.99       1.54        0.00      92.44       2.12       1.50       0.99       ----

> <Gold.Chemscore.Fitness>
13.5016

> <Gold.Chemscore.DG>
-15.9916

> <Gold.Chemscore.ZeroCoef>
-5.4800

> <Gold.Chemscore.Hbond>
1.5364

> <Gold.Chemscore.Metal>
0.0000

> <Gold.Chemscore.Lipo>
92.4425

> <Gold.Chemscore.Internal_Hbond>
0.0000

> <Gold.Chemscore.DEClash>
1.5013

> <Gold.Chemscore.DEInternal>
0.9887

> <Gold.Chemscore.Rot>
2.1234

> <Gold.Chemscore.Internal.Correction>
   9.000000E+99

> <Gold.Chemscore.Hbonds>
donor molecule, donor type, donor heavy atom, donor atom, acceptor molecule, acceptor atom, score
      L1  H     5    27       P1  8028  0.29
      L1  H    10    32       P1  8028  0.88

> <Gold.Chemscore.Hbond.Weighted>
-5.1317

> <Gold.Chemscore.Metal.Weighted>
-0.0000

> <Gold.Chemscore.Lipo.Weighted>
-10.8158

> <Gold.Chemscore.Internal_Hbond.Weighted>
0.0000

> <Gold.Chemscore.DEClash.Weighted>
1.5013

> <Gold.Chemscore.DEInternal.Weighted>
0.9887

> <Gold.Chemscore.Rot.Weighted>
5.4359

> <Gold.Chemscore.Internal.Correction.Weighted>
   9.000000E+99

> <Gold.Protein.RotatedTorsions>
[ 6907 6896 6895 6894 ] final  109.21 input  -60.11 | X-H torsion
[ 7974 7965 7964 7962 ] final   68.12 input  175.53 | X-H torsion
[ 8008 7997 7996 7995 ] final  -96.60 input   59.86 | X-H torsion
[ 10167 10162 10161 10158 ] final   -9.06 input  -65.29 | X-H torsion
[ 10718 10713 10712 10709 ] final -163.52 input   66.30 | X-H torsion
[ 10763 10752 10751 10750 ] final -121.25 input  -60.55 | X-H torsion
[ 11005 11000 10999 10996 ] final   82.12 input  -57.11 | X-H torsion

> <Gold.Protein.ActiveResidues>
 VAL166  LYS551  ARG553  GLY616  TRP617  ASP618  TYR619  PRO620  LYS621  CYS622 
 ASP623  PHE694  ASN695  SER759  ASP760  ASP761  ALA762  ILE779  LEU786  VAL792 
 PHE793  MET794  SER795  GLU796  ALA797  LYS798  CYS799  TRP800  GLU811  SER814 

> <Gold.Protein.RotatedAtoms>
  152.5077  133.8976  159.7424 H   0  0  0  0  0  0  0  0  0  0  0  0  # atno 6907 bound_to 6896
  150.9400  133.6659  159.2799 H   0  0  0  0  0  0  0  0  0  0  0  0  # atno 6908 bound_to 6896
  151.3974  135.0970  159.9598 H   0  0  0  0  0  0  0  0  0  0  0  0  # atno 6909 bound_to 6896
  145.8064  139.3009  143.1124 H   0  0  0  0  0  0  0  0  0  0  0  0  # atno 7974 bound_to 7965
  154.7767  140.0470  157.1094 H   0  0  0  0  0  0  0  0  0  0  0  0  # atno 8008 bound_to 7997
  154.9755  140.3095  155.4950 H   0  0  0  0  0  0  0  0  0  0  0  0  # atno 8009 bound_to 7997
  156.2930  140.2245  156.4850 H   0  0  0  0  0  0  0  0  0  0  0  0  # atno 8010 bound_to 7997
  140.7077  143.5899  150.8904 H   0  0  0  0  0  0  0  0  0  0  0  0  # atno 10167 bound_to 10162
  156.6259  130.8909  151.2967 H   0  0  0  0  0  0  0  0  0  0  0  0  # atno 10718 bound_to 10713
  154.8664  135.4174  154.2591 H   0  0  0  0  0  0  0  0  0  0  0  0  # atno 10763 bound_to 10752
  153.3522  135.6999  153.6785 H   0  0  0  0  0  0  0  0  0  0  0  0  # atno 10764 bound_to 10752
  153.5720  135.3589  155.2814 H   0  0  0  0  0  0  0  0  0  0  0  0  # atno 10765 bound_to 10752
  139.9074  134.8048  156.2132 H   0  0  0  0  0  0  0  0  0  0  0  0  # atno 11005 bound_to 11000
  145.9823  140.8672  143.0108 LP  0  0  0  0  0  0  0  0  0  0  0  0  # atno 17320 bound_to 7965
  144.6762  140.2098  143.7378 LP  0  0  0  0  0  0  0  0  0  0  0  0  # atno 17321 bound_to 7965
  139.9625  143.6148  152.2998 LP  0  0  0  0  0  0  0  0  0  0  0  0  # atno 17342 bound_to 10162
  139.6705  144.7661  151.1791 LP  0  0  0  0  0  0  0  0  0  0  0  0  # atno 17343 bound_to 10162
  157.7214  130.9564  150.1455 LP  0  0  0  0  0  0  0  0  0  0  0  0  # atno 17370 bound_to 10713
  156.2274  130.3679  149.8485 LP  0  0  0  0  0  0  0  0  0  0  0  0  # atno 17371 bound_to 10713
  141.0452  133.6917  156.1670 LP  0  0  0  0  0  0  0  0  0  0  0  0  # atno 17394 bound_to 11000
  140.6895  134.4681  157.5589 LP  0  0  0  0  0  0  0  0  0  0  0  0  # atno 17395 bound_to 11000

$$$$
