AV-unprocessed.smi:2188|AV-procd|sdf|8883|dock8
  -GOLD-   2272012 83D 1   1.00000     0.00000
 Structure written by MMmdl.
 39 41  0  0  0  0  0  0  0  0  3 V2000
  151.6912  140.2810  155.5255 O   0  0  0  0  0  0  0  0  0  0  0  0
  150.9940  141.1489  156.0677 C   0  0  0  0  0  0  0  0  0  0  0  0
  149.7495  141.5315  155.6432 N   0  5  0  0  0  0  0  0  0  0  0  0
  148.7663  140.6642  154.9960 C   0  0  0  0  0  0  0  0  0  0  0  0
  147.8654  141.5076  154.0724 C   0  0  0  0  0  0  0  0  0  0  0  0
  146.6538  142.1013  154.7776 C   0  0  0  0  0  0  0  0  0  0  0  0
  145.7199  142.8913  154.0669 C   0  0  0  0  0  0  0  0  0  0  0  0
  144.6111  143.4354  154.7475 C   0  0  0  0  0  0  0  0  0  0  0  0
  144.4609  143.1831  156.1262 C   0  0  0  0  0  0  0  0  0  0  0  0
  145.3753  142.4297  156.7756 N   0  3  0  0  0  0  0  0  0  0  0  0
  146.4504  141.8903  156.1603 C   0  0  0  0  0  0  0  0  0  0  0  0
  151.5273  141.8634  157.2461 C   0  0  0  0  0  0  0  0  0  0  0  0
  151.0965  143.1304  157.4876 C   0  0  0  0  0  0  0  0  0  0  0  0
  151.5556  143.8892  158.6239 C   0  0  0  0  0  0  0  0  0  0  0  0
  152.4564  143.3237  159.4337 C   0  0  0  0  0  0  0  0  0  0  0  0
  152.9678  142.0432  159.2309 N   0  0  0  0  0  0  0  0  0  0  0  0
  154.0197  141.6017  160.1403 C   0  0  0  0  0  0  0  0  0  0  0  0
  153.8111  140.1485  160.5247 C   0  0  0  0  0  0  0  0  0  0  0  0
  153.9761  139.1959  158.9730 S   0  0  0  0  0  0  0  0  0  0  0  0
  155.3231  139.4360  158.4319 O   0  0  0  0  0  0  0  0  0  0  0  0
  153.5401  137.8161  159.2361 O   0  0  0  0  0  0  0  0  0  0  0  0
  152.8476  139.9792  158.0149 N   0  0  0  0  0  0  0  0  0  0  0  0
  152.4940  141.2247  158.1664 C   0  0  0  0  0  0  0  0  0  0  0  0
  149.2329  139.8792  154.3993 H   0  0  0  0  0  0  0  0  0  0  0  0
  148.1435  140.1513  155.7296 H   0  0  0  0  0  0  0  0  0  0  0  0
  148.4446  142.3197  153.6303 H   0  0  0  0  0  0  0  0  0  0  0  0
  147.5144  140.8974  153.2386 H   0  0  0  0  0  0  0  0  0  0  0  0
  145.8500  143.0736  153.0099 H   0  0  0  0  0  0  0  0  0  0  0  0
  143.8866  144.0367  154.2179 H   0  0  0  0  0  0  0  0  0  0  0  0
  143.6439  143.5588  156.7246 H   0  0  0  0  0  0  0  0  0  0  0  0
  147.1099  141.3064  156.7861 H   0  0  0  0  0  0  0  0  0  0  0  0
  150.3971  143.6178  156.8233 H   0  0  0  0  0  0  0  0  0  0  0  0
  151.1824  144.8844  158.8145 H   0  0  0  0  0  0  0  0  0  0  0  0
  152.8394  143.8426  160.3004 H   0  0  0  0  0  0  0  0  0  0  0  0
  154.9904  141.7442  159.6644 H   0  0  0  0  0  0  0  0  0  0  0  0
  154.0254  142.2069  161.0472 H   0  0  0  0  0  0  0  0  0  0  0  0
  154.5656  139.8025  161.2306 H   0  0  0  0  0  0  0  0  0  0  0  0
  152.8242  139.9739  160.9547 H   0  0  0  0  0  0  0  0  0  0  0  0
  145.2486  142.2598  157.7735 H   0  0  0  0  0  0  0  0  0  0  0  0
  1  2  2  0  0  0  0
  2  3  1  0  0  0  0
  2 12  1  0  0  0  0
  3  4  1  0  0  0  0
  4  5  1  0  0  0  0
  4 24  1  0  0  0  0
  4 25  1  0  0  0  0
  5  6  1  0  0  0  0
  5 26  1  0  0  0  0
  5 27  1  0  0  0  0
  6 11  1  0  0  0  0
  6  7  2  0  0  0  0
  7  8  1  0  0  0  0
  7 28  1  0  0  0  0
  8  9  2  0  0  0  0
  8 29  1  0  0  0  0
  9 10  1  0  0  0  0
  9 30  1  0  0  0  0
 10 11  2  0  0  0  0
 10 39  1  0  0  0  0
 11 31  1  0  0  0  0
 12 23  1  0  0  0  0
 12 13  2  0  0  0  0
 13 14  1  0  0  0  0
 13 32  1  0  0  0  0
 14 15  2  0  0  0  0
 14 33  1  0  0  0  0
 15 16  1  0  0  0  0
 15 34  1  0  0  0  0
 16 23  1  0  0  0  0
 16 17  1  0  0  0  0
 17 18  1  0  0  0  0
 17 35  1  0  0  0  0
 17 36  1  0  0  0  0
 18 19  1  0  0  0  0
 18 37  1  0  0  0  0
 18 38  1  0  0  0  0
 19 20  2  0  0  0  0
 19 21  2  0  0  0  0
 19 22  1  0  0  0  0
 22 23  2  0  0  0  0
M  CHG  1   3  -1
M  CHG  1  10   1
M  END
> <s_m_source_file>
AV-unprocessed.smi

> <i_m_source_file_index>
2188

> <i_lp_mmshare_version>
43012

> <i_f3d_flags>
0

> <s_epik_input>
W0NIMl0xW0NIMl1TKD1PKSg9TylOPUMoTjEyKUMoPVtDSF1bQ0hdPVtDSF0yKUMoPU8pW05IXVtDSDJdW0NIMl1jM1tjSF1bY0hdW2NIXW5bY0hdMw==

> <s_epik_cmdline>
J2VwaWtfcHl0aG9uJywgJy1waCcsICc3LjAnLCAnLXRuJywgJzgnLCAnLW1hJywgJzIwMCcsICctbWV0YWxfYmluZGluZycsICctaW1hZScsICc8aW5maWxlLm1hZT4nLCAnLW9tYWUnLCAnPG91dGZpbGUubWFlPic=

> <r_epik_Ionization_Penalty>
7.27179

> <r_epik_Ionization_Penalty_Charging>
7.27179

> <r_epik_Ionization_Penalty_Neutral>
0

> <r_epik_State_Penalty>
7.89047

> <r_epik_Charging_Adjusted_Penalty>
15.1623

> <i_epik_Tot_Q>
0

> <i_epik_Tot_abs_Q>
2

> <r_epik_Metal_State_Penalty>
3.9241

> <b_epik_Metal_Only>
1

> <s_lp_Force_Field>
OPLS_2005

> <r_lp_Energy>
37.465

> <b_lp_Chiralities_Consistent>
1

> <s_lp_Variant>
AV-unprocessed.smi:2188-4

> <Gold.Version>
5.8.1

> <Gold.Id.Protein>
6NUR|6NUR_protein|mol2

> <Gold.PLP.Fitness>
50.1210

> <Gold.PLP.PLP>
-46.4880

> <Gold.PLP.part.hbond>
-2.5618

> <Gold.PLP.part.metal>
0.0000

> <Gold.PLP.part.buried>
-6.2290

> <Gold.PLP.part.nonpolar>
-37.7712

> <Gold.PLP.part.repulsive>
0.1158

> <Gold.PLP.ligand.clash>
0.0000

> <Gold.PLP.ligand.torsion>
0.8869

> <Gold.PLP.Chemscore.Hbond>
1.7028

> <Gold.PLP.Chemscore.CHOScore>
0.0000

> <Gold.PLP.Chemscore.Metal>
0.0000

> <Gold.Chemscore.Hbonds>
donor molecule, donor type, donor heavy atom, donor atom, acceptor molecule, acceptor atom, score
      P1  H  7989  7998       L1     1  0.70
      P1  H  7997  8010       L1    20  0.32

> <Gold.PLP.Chemscore.Internal.Correction>
0.2984

> <Gold.Rescore>
     Score         DG    S(hbond)    S(metal)    S(lipo)     H(rot)  DE(clash)    DE(int)     intcor
     14.31     -16.80       1.08        0.00      99.02       1.51       0.11       2.37       ----

> <Gold.Chemscore.Fitness>
14.3128

> <Gold.Chemscore.DG>
-16.7994

> <Gold.Chemscore.ZeroCoef>
-5.4800

> <Gold.Chemscore.Hbond>
1.0784

> <Gold.Chemscore.Metal>
0.0000

> <Gold.Chemscore.Lipo>
99.0228

> <Gold.Chemscore.Internal_Hbond>
0.0000

> <Gold.Chemscore.DEClash>
0.1124

> <Gold.Chemscore.DEInternal>
2.3742

> <Gold.Chemscore.Rot>
1.5109

> <Gold.Chemscore.Internal.Correction>
   9.000000E+99

> <Gold.Chemscore.Hbonds>
donor molecule, donor type, donor heavy atom, donor atom, acceptor molecule, acceptor atom, score
      P1  H  7989  7998       L1     1  0.23
      P1  H  7997  8010       L1    20  0.32

> <Gold.Chemscore.Hbond.Weighted>
-3.6018

> <Gold.Chemscore.Metal.Weighted>
-0.0000

> <Gold.Chemscore.Lipo.Weighted>
-11.5857

> <Gold.Chemscore.Internal_Hbond.Weighted>
0.0000

> <Gold.Chemscore.DEClash.Weighted>
0.1124

> <Gold.Chemscore.DEInternal.Weighted>
2.3742

> <Gold.Chemscore.Rot.Weighted>
3.8680

> <Gold.Chemscore.Internal.Correction.Weighted>
   9.000000E+99

> <Gold.Protein.RotatedTorsions>
[ 6907 6896 6895 6894 ] final   21.06 input  -60.11 | X-H torsion
[ 7974 7965 7964 7962 ] final  118.25 input  175.53 | X-H torsion
[ 8008 7997 7996 7995 ] final  -26.80 input   59.86 | X-H torsion
[ 10167 10162 10161 10158 ] final  128.43 input  -65.29 | X-H torsion
[ 10718 10713 10712 10709 ] final  -20.66 input   66.30 | X-H torsion
[ 10763 10752 10751 10750 ] final -114.83 input  -60.55 | X-H torsion
[ 11005 11000 10999 10996 ] final   72.24 input  -57.11 | X-H torsion

> <Gold.Protein.ActiveResidues>
 VAL166  LYS551  ARG553  GLY616  TRP617  ASP618  TYR619  PRO620  LYS621  CYS622 
 ASP623  PHE694  ASN695  SER759  ASP760  ASP761  ALA762  ILE779  LEU786  VAL792 
 PHE793  MET794  SER795  GLU796  ALA797  LYS798  CYS799  TRP800  GLU811  SER814 

> <Gold.Protein.RotatedAtoms>
  151.9059  135.0359  160.0510 H   0  0  0  0  0  0  0  0  0  0  0  0  # atno 6907 bound_to 6896
  152.2319  133.5061  159.5229 H   0  0  0  0  0  0  0  0  0  0  0  0  # atno 6908 bound_to 6896
  150.7028  134.1121  159.4046 H   0  0  0  0  0  0  0  0  0  0  0  0  # atno 6909 bound_to 6896
  145.1574  139.3174  143.4535 H   0  0  0  0  0  0  0  0  0  0  0  0  # atno 7974 bound_to 7965
  154.4408  140.1889  156.0831 H   0  0  0  0  0  0  0  0  0  0  0  0  # atno 8008 bound_to 7997
  156.0423  140.3318  155.7231 H   0  0  0  0  0  0  0  0  0  0  0  0  # atno 8009 bound_to 7997
  155.5681  140.0610  157.2804 H   0  0  0  0  0  0  0  0  0  0  0  0  # atno 8010 bound_to 7997
  139.5528  144.6826  151.4273 H   0  0  0  0  0  0  0  0  0  0  0  0  # atno 10167 bound_to 10162
  156.5288  130.4650  149.6558 H   0  0  0  0  0  0  0  0  0  0  0  0  # atno 10718 bound_to 10713
  154.8456  135.4404  154.1567 H   0  0  0  0  0  0  0  0  0  0  0  0  # atno 10763 bound_to 10752
  153.2714  135.6945  153.7483 H   0  0  0  0  0  0  0  0  0  0  0  0  # atno 10764 bound_to 10752
  153.6722  135.3417  155.3131 H   0  0  0  0  0  0  0  0  0  0  0  0  # atno 10765 bound_to 10752
  139.9501  134.7242  156.0883 H   0  0  0  0  0  0  0  0  0  0  0  0  # atno 11005 bound_to 11000
  146.3487  140.1672  142.8590 LP  0  0  0  0  0  0  0  0  0  0  0  0  # atno 17320 bound_to 7965
  145.0366  140.8913  143.5077 LP  0  0  0  0  0  0  0  0  0  0  0  0  # atno 17321 bound_to 7965
  140.6794  143.8116  150.7101 LP  0  0  0  0  0  0  0  0  0  0  0  0  # atno 17342 bound_to 10162
  140.1565  143.4312  152.2096 LP  0  0  0  0  0  0  0  0  0  0  0  0  # atno 17343 bound_to 10162
  156.3079  130.7213  151.2099 LP  0  0  0  0  0  0  0  0  0  0  0  0  # atno 17370 bound_to 10713
  157.7425  131.0489  150.5019 LP  0  0  0  0  0  0  0  0  0  0  0  0  # atno 17371 bound_to 10713
  141.1162  133.6627  156.3099 LP  0  0  0  0  0  0  0  0  0  0  0  0  # atno 17394 bound_to 11000
  140.5739  134.5813  157.5464 LP  0  0  0  0  0  0  0  0  0  0  0  0  # atno 17395 bound_to 11000

$$$$
