AV-unprocessed.smi:2396|AV-procd|sdf|9492|dock9
  -GOLD-   2272013123D 1   1.00000     0.00000
 Structure written by MMmdl.
 32 32  0  0  0  0  0  0  0  0  1 V2000
  153.4718  142.2806  162.4998 C   0  0  0  0  0  0  0  0  0  0  0  0
  152.4499  143.3742  162.1623 C   0  0  0  0  0  0  0  0  0  0  0  0
  152.3479  143.5873  160.7234 N   0  0  0  0  0  0  0  0  0  0  0  0
  152.3290  142.6144  159.7995 C   0  0  0  0  0  0  0  0  0  0  0  0
  152.4000  141.4171  160.0803 O   0  0  0  0  0  0  0  0  0  0  0  0
  152.2174  143.0701  158.3403 C   0  0  0  0  0  0  0  0  0  0  0  0
  151.4686  142.1258  157.5279 N   0  0  0  0  0  0  0  0  0  0  0  0
  150.1884  142.2427  157.0370 C   0  0  0  0  0  0  0  0  0  0  0  0
  149.9039  141.1041  156.3366 C   0  0  0  0  0  0  0  0  0  0  0  0
  148.6089  140.7748  155.6375 C   0  0  0  0  0  0  0  0  0  0  0  0
  148.4907  141.4756  154.2754 C   0  0  0  0  0  0  0  0  0  0  0  0
  149.4475  140.9730  153.3667 O   0  0  0  0  0  0  0  0  0  0  0  0
  151.1045  140.3308  156.4479 C   0  0  0  0  0  0  0  0  0  0  0  0
  151.4330  138.9582  155.9076 C   0  0  0  0  0  0  0  0  0  0  0  0
  151.6423  138.1211  156.9233 F   0  0  0  0  0  0  0  0  0  0  0  0
  150.4537  138.4691  155.1500 F   0  0  0  0  0  0  0  0  0  0  0  0
  152.5403  139.0184  155.1671 F   0  0  0  0  0  0  0  0  0  0  0  0
  152.0295  140.9551  157.1663 N   0  0  0  0  0  0  0  0  0  0  0  0
  153.5154  142.1111  163.5759 H   0  0  0  0  0  0  0  0  0  0  0  0
  154.4737  142.5558  162.1684 H   0  0  0  0  0  0  0  0  0  0  0  0
  153.2086  141.3351  162.0250 H   0  0  0  0  0  0  0  0  0  0  0  0
  151.4664  143.0850  162.5337 H   0  0  0  0  0  0  0  0  0  0  0  0
  152.7099  144.3064  162.6664 H   0  0  0  0  0  0  0  0  0  0  0  0
  152.2893  144.5445  160.4070 H   0  0  0  0  0  0  0  0  0  0  0  0
  151.7211  144.0399  158.2825 H   0  0  0  0  0  0  0  0  0  0  0  0
  153.2182  143.1950  157.9245 H   0  0  0  0  0  0  0  0  0  0  0  0
  149.5849  143.1170  157.2323 H   0  0  0  0  0  0  0  0  0  0  0  0
  148.5512  139.6992  155.4673 H   0  0  0  0  0  0  0  0  0  0  0  0
  147.7404  141.0039  156.2543 H   0  0  0  0  0  0  0  0  0  0  0  0
  147.4882  141.3625  153.8612 H   0  0  0  0  0  0  0  0  0  0  0  0
  148.6710  142.5444  154.3928 H   0  0  0  0  0  0  0  0  0  0  0  0
  149.0108  140.3981  152.7569 H   0  0  0  0  0  0  0  0  0  0  0  0
  1  2  1  0  0  0  0
  1 19  1  0  0  0  0
  1 20  1  0  0  0  0
  1 21  1  0  0  0  0
  2  3  1  0  0  0  0
  2 22  1  0  0  0  0
  2 23  1  0  0  0  0
  3  4  1  0  0  0  0
  3 24  1  0  0  0  0
  4  5  2  0  0  0  0
  4  6  1  0  0  0  0
  6  7  1  0  0  0  0
  6 25  1  0  0  0  0
  6 26  1  0  0  0  0
  7 18  1  0  0  0  0
  7  8  1  0  0  0  0
  8  9  2  0  0  0  0
  8 27  1  0  0  0  0
  9 10  1  0  0  0  0
  9 13  1  0  0  0  0
 10 11  1  0  0  0  0
 10 28  1  0  0  0  0
 10 29  1  0  0  0  0
 11 12  1  0  0  0  0
 11 30  1  0  0  0  0
 11 31  1  0  0  0  0
 12 32  1  0  0  0  0
 13 14  1  0  0  0  0
 13 18  2  0  0  0  0
 14 15  1  0  0  0  0
 14 16  1  0  0  0  0
 14 17  1  0  0  0  0
M  END
> <s_m_source_file>
AV-unprocessed.smi

> <i_m_source_file_index>
2396

> <i_lp_mmshare_version>
43012

> <i_f3d_flags>
0

> <s_epik_input>
W0NIM11bQ0gyXVtOSF1DKD1PKVtDSDJdbjFbY0hdYyhjKG4xKUMoRikoRilGKVtDSDJdW0NIMl1bT0hd

> <s_epik_cmdline>
J2VwaWtfcHl0aG9uJywgJy1waCcsICc3LjAnLCAnLXRuJywgJzgnLCAnLW1hJywgJzIwMCcsICctbWV0YWxfYmluZGluZycsICctaW1hZScsICc8aW5maWxlLm1hZT4nLCAnLW9tYWUnLCAnPG91dGZpbGUubWFlPic=

> <r_lp_tautomer_probability>
1

> <r_epik_Ionization_Penalty>
2.37964e-07

> <r_epik_Ionization_Penalty_Charging>
0

> <r_epik_Ionization_Penalty_Neutral>
2.37964e-07

> <r_epik_State_Penalty>
-0

> <r_epik_Charging_Adjusted_Penalty>
0

> <i_epik_Tot_Q>
0

> <i_epik_Tot_abs_Q>
0

> <r_epik_Metal_State_Penalty>
-0

> <b_epik_Metal_Only>
0

> <s_lp_Force_Field>
OPLS_2005

> <r_lp_Energy>
5.98536

> <b_lp_Chiralities_Consistent>
1

> <s_lp_Variant>
AV-unprocessed.smi:2396-1

> <Gold.Version>
5.8.1

> <Gold.Id.Protein>
6NUR|6NUR_protein|mol2

> <Gold.PLP.Fitness>
42.0469

> <Gold.PLP.PLP>
-36.4416

> <Gold.PLP.part.hbond>
-3.0321

> <Gold.PLP.part.metal>
0.0000

> <Gold.PLP.part.buried>
0.0965

> <Gold.PLP.part.nonpolar>
-31.2137

> <Gold.PLP.part.repulsive>
0.0522

> <Gold.PLP.ligand.clash>
0.2363

> <Gold.PLP.ligand.torsion>
0.9768

> <Gold.PLP.Chemscore.Hbond>
1.6906

> <Gold.PLP.Chemscore.CHOScore>
0.8911

> <Gold.PLP.Chemscore.Metal>
0.0000

> <Gold.Chemscore.Hbonds>
donor molecule, donor type, donor heavy atom, donor atom, acceptor molecule, acceptor atom, score
      L1  H    12    32       P1  7957  0.48
      P1  H  7989  7998       L1    12  0.16
      P1  H  8011  8017       L1    12  1.00
      L1  C     8    27       P1  8028  0.95

> <Gold.PLP.Chemscore.Internal.Correction>
0.0498

> <Gold.Rescore>
     Score         DG    S(hbond)    S(metal)    S(lipo)     H(rot)  DE(clash)    DE(int)     intcor
      4.58      -9.84       0.92        0.00      73.70       2.86       1.67       3.59       ----

> <Gold.Chemscore.Fitness>
4.5772

> <Gold.Chemscore.DG>
-9.8415

> <Gold.Chemscore.ZeroCoef>
-5.4800

> <Gold.Chemscore.Hbond>
0.9183

> <Gold.Chemscore.Metal>
0.0000

> <Gold.Chemscore.Lipo>
73.6952

> <Gold.Chemscore.Internal_Hbond>
0.0000

> <Gold.Chemscore.DEClash>
1.6717

> <Gold.Chemscore.DEInternal>
3.5926

> <Gold.Chemscore.Rot>
2.8625

> <Gold.Chemscore.Internal.Correction>
   9.000000E+99

> <Gold.Chemscore.Hbonds>
donor molecule, donor type, donor heavy atom, donor atom, acceptor molecule, acceptor atom, score
      L1  H    12    32       P1  7957  0.48
      P1  H  7989  7998       L1    12  0.15
      P1  H  8011  8017       L1    12  0.14

> <Gold.Chemscore.Hbond.Weighted>
-3.0671

> <Gold.Chemscore.Metal.Weighted>
-0.0000

> <Gold.Chemscore.Lipo.Weighted>
-8.6223

> <Gold.Chemscore.Internal_Hbond.Weighted>
0.0000

> <Gold.Chemscore.DEClash.Weighted>
1.6717

> <Gold.Chemscore.DEInternal.Weighted>
3.5926

> <Gold.Chemscore.Rot.Weighted>
7.3279

> <Gold.Chemscore.Internal.Correction.Weighted>
   9.000000E+99

> <Gold.Protein.RotatedTorsions>
[ 6907 6896 6895 6894 ] final   95.35 input  -60.11 | X-H torsion
[ 7974 7965 7964 7962 ] final -140.04 input  175.53 | X-H torsion
[ 8008 7997 7996 7995 ] final  128.16 input   59.86 | X-H torsion
[ 10167 10162 10161 10158 ] final  119.59 input  -65.29 | X-H torsion
[ 10718 10713 10712 10709 ] final  -82.80 input   66.30 | X-H torsion
[ 10763 10752 10751 10750 ] final  109.69 input  -60.55 | X-H torsion
[ 11005 11000 10999 10996 ] final   52.45 input  -57.11 | X-H torsion

> <Gold.Protein.ActiveResidues>
 VAL166  LYS551  ARG553  GLY616  TRP617  ASP618  TYR619  PRO620  LYS621  CYS622 
 ASP623  PHE694  ASN695  SER759  ASP760  ASP761  ALA762  ILE779  LEU786  VAL792 
 PHE793  MET794  SER795  GLU796  ALA797  LYS798  CYS799  TRP800  GLU811  SER814 

> <Gold.Protein.RotatedAtoms>
  152.5444  134.1053  159.8335 H   0  0  0  0  0  0  0  0  0  0  0  0  # atno 6907 bound_to 6896
  151.1126  133.5154  159.2612 H   0  0  0  0  0  0  0  0  0  0  0  0  # atno 6908 bound_to 6896
  151.1867  135.0394  159.8870 H   0  0  0  0  0  0  0  0  0  0  0  0  # atno 6909 bound_to 6896
  144.8629  140.6247  143.5317 H   0  0  0  0  0  0  0  0  0  0  0  0  # atno 7974 bound_to 7965
  156.2908  140.2651  156.2390 H   0  0  0  0  0  0  0  0  0  0  0  0  # atno 8008 bound_to 7997
  154.9996  140.0388  157.2373 H   0  0  0  0  0  0  0  0  0  0  0  0  # atno 8009 bound_to 7997
  154.7613  140.2761  155.6217 H   0  0  0  0  0  0  0  0  0  0  0  0  # atno 8010 bound_to 7997
  139.6036  144.7064  151.3004 H   0  0  0  0  0  0  0  0  0  0  0  0  # atno 10167 bound_to 10162
  156.0027  130.4645  150.4160 H   0  0  0  0  0  0  0  0  0  0  0  0  # atno 10718 bound_to 10713
  153.4384  135.3772  155.2213 H   0  0  0  0  0  0  0  0  0  0  0  0  # atno 10763 bound_to 10752
  154.8753  135.3857  154.4183 H   0  0  0  0  0  0  0  0  0  0  0  0  # atno 10764 bound_to 10752
  153.4725  135.7087  153.6048 H   0  0  0  0  0  0  0  0  0  0  0  0  # atno 10765 bound_to 10752
  140.0848  134.5289  155.8910 H   0  0  0  0  0  0  0  0  0  0  0  0  # atno 11005 bound_to 11000
  145.4278  139.1554  143.4039 LP  0  0  0  0  0  0  0  0  0  0  0  0  # atno 17320 bound_to 7965
  146.2874  140.4392  142.8753 LP  0  0  0  0  0  0  0  0  0  0  0  0  # atno 17321 bound_to 7965
  140.7268  143.6979  150.7868 LP  0  0  0  0  0  0  0  0  0  0  0  0  # atno 17342 bound_to 10162
  140.0561  143.5201  152.2650 LP  0  0  0  0  0  0  0  0  0  0  0  0  # atno 17343 bound_to 10162
  157.2220  131.0484  151.2541 LP  0  0  0  0  0  0  0  0  0  0  0  0  # atno 17370 bound_to 10713
  157.3792  130.7222  149.6618 LP  0  0  0  0  0  0  0  0  0  0  0  0  # atno 17371 bound_to 10713
  141.2059  133.6651  156.6209 LP  0  0  0  0  0  0  0  0  0  0  0  0  # atno 17394 bound_to 11000
  140.3435  134.7829  157.4415 LP  0  0  0  0  0  0  0  0  0  0  0  0  # atno 17395 bound_to 11000

$$$$
