AV-unprocessed.smi:2119|AV-procd|sdf|8630|dock5
  -GOLD-   2272011373D 1   1.00000     0.00000
 Structure written by MMmdl.
 47 49  0  0  0  0  0  0  0  0  1 V2000
  146.5024  139.5046  153.7864 O   0  0  0  0  0  0  0  0  0  0  0  0
  147.2837  138.6958  153.2863 C   0  0  0  0  0  0  0  0  0  0  0  0
  146.9027  137.7271  152.4420 N   0  0  0  0  0  0  0  0  0  0  0  0
  145.5310  137.4888  151.9997 C   0  0  0  0  0  0  0  0  0  0  0  0
  144.8788  136.2197  152.6342 C   0  0  2  0  0  0  0  0  0  0  0  0
  145.4498  134.9460  151.9220 C   0  0  2  0  0  0  0  0  0  0  0  0
  144.8978  134.6668  150.5293 C   0  0  0  0  0  0  0  0  0  0  0  0
  145.2112  133.1834  150.3025 C   0  0  0  0  0  0  0  0  0  0  0  0
  145.7187  132.6956  151.5405 O   0  0  0  0  0  0  0  0  0  0  0  0
  145.2890  133.5708  152.5694 C   0  0  0  0  0  0  0  0  0  0  0  0
  143.3949  136.2448  152.7047 N   0  0  0  0  0  0  0  0  0  0  0  0
  142.8668  135.1237  153.4935 C   0  0  0  0  0  0  0  0  0  0  0  0
  141.3302  135.0782  153.4851 C   0  0  0  0  0  0  0  0  0  0  0  0
  140.8222  136.2982  154.0106 O   0  0  0  0  0  0  0  0  0  0  0  0
  141.2769  137.4333  153.2841 C   0  0  0  0  0  0  0  0  0  0  0  0
  142.8162  137.4671  153.2729 C   0  0  0  0  0  0  0  0  0  0  0  0
  148.6065  138.6428  153.5180 N   0  0  0  0  0  0  0  0  0  0  0  0
  149.4008  139.4882  154.3393 C   0  0  0  0  0  0  0  0  0  0  0  0
  148.9790  140.7433  154.8421 C   0  0  0  0  0  0  0  0  0  0  0  0
  149.8713  141.4934  155.6325 C   0  0  0  0  0  0  0  0  0  0  0  0
  151.1527  140.9668  155.8851 C   0  0  0  0  0  0  0  0  0  0  0  0
  151.5724  139.7784  155.4023 N   0  0  0  0  0  0  0  0  0  0  0  0
  150.7115  139.0650  154.6456 C   0  0  0  0  0  0  0  0  0  0  0  0
  147.6103  137.1034  152.0823 H   0  0  0  0  0  0  0  0  0  0  0  0
  144.9595  138.3865  152.2390 H   0  0  0  0  0  0  0  0  0  0  0  0
  145.5389  137.4126  150.9121 H   0  0  0  0  0  0  0  0  0  0  0  0
  145.2468  136.1929  153.6609 H   0  0  0  0  0  0  0  0  0  0  0  0
  146.5273  135.0818  151.8183 H   0  0  0  0  0  0  0  0  0  0  0  0
  143.8187  134.8257  150.5050 H   0  0  0  0  0  0  0  0  0  0  0  0
  145.3482  135.3022  149.7664 H   0  0  0  0  0  0  0  0  0  0  0  0
  144.3110  132.6343  150.0239 H   0  0  0  0  0  0  0  0  0  0  0  0
  145.9545  133.0385  149.5183 H   0  0  0  0  0  0  0  0  0  0  0  0
  145.8815  133.4496  153.4765 H   0  0  0  0  0  0  0  0  0  0  0  0
  144.2465  133.3321  152.7817 H   0  0  0  0  0  0  0  0  0  0  0  0
  143.2450  134.1659  153.1530 H   0  0  0  0  0  0  0  0  0  0  0  0
  143.2075  135.2153  154.5263 H   0  0  0  0  0  0  0  0  0  0  0  0
  140.9518  134.9176  152.4743 H   0  0  0  0  0  0  0  0  0  0  0  0
  140.9717  134.2512  154.0981 H   0  0  0  0  0  0  0  0  0  0  0  0
  140.8859  137.4004  152.2658 H   0  0  0  0  0  0  0  0  0  0  0  0
  140.8813  138.3358  153.7497 H   0  0  0  0  0  0  0  0  0  0  0  0
  143.1842  137.6183  154.2890 H   0  0  0  0  0  0  0  0  0  0  0  0
  143.1159  138.3371  152.6894 H   0  0  0  0  0  0  0  0  0  0  0  0
  149.0992  137.8715  153.0919 H   0  0  0  0  0  0  0  0  0  0  0  0
  148.0034  141.1512  154.6302 H   0  0  0  0  0  0  0  0  0  0  0  0
  149.5809  142.4537  156.0324 H   0  0  0  0  0  0  0  0  0  0  0  0
  151.8613  141.5173  156.4860 H   0  0  0  0  0  0  0  0  0  0  0  0
  151.0823  138.1203  154.2751 H   0  0  0  0  0  0  0  0  0  0  0  0
  1  2  2  0  0  0  0
  2  3  1  0  0  0  0
  2 17  1  0  0  0  0
  3  4  1  0  0  0  0
  3 24  1  0  0  0  0
  4  5  1  0  0  0  0
  4 25  1  0  0  0  0
  4 26  1  0  0  0  0
  5  6  1  0  0  0  0
  5 11  1  0  0  0  0
  5 27  1  0  0  0  0
  6 10  1  0  0  0  0
  6  7  1  0  0  0  0
  6 28  1  0  0  0  0
  7  8  1  0  0  0  0
  7 29  1  0  0  0  0
  7 30  1  0  0  0  0
  8  9  1  0  0  0  0
  8 31  1  0  0  0  0
  8 32  1  0  0  0  0
  9 10  1  0  0  0  0
 10 33  1  0  0  0  0
 10 34  1  0  0  0  0
 11 16  1  0  0  0  0
 11 12  1  0  0  0  0
 12 13  1  0  0  0  0
 12 35  1  0  0  0  0
 12 36  1  0  0  0  0
 13 14  1  0  0  0  0
 13 37  1  0  0  0  0
 13 38  1  0  0  0  0
 14 15  1  0  0  0  0
 15 16  1  0  0  0  0
 15 39  1  0  0  0  0
 15 40  1  0  0  0  0
 16 41  1  0  0  0  0
 16 42  1  0  0  0  0
 17 18  1  0  0  0  0
 17 43  1  0  0  0  0
 18 23  1  0  0  0  0
 18 19  2  0  0  0  0
 19 20  1  0  0  0  0
 19 44  1  0  0  0  0
 20 21  2  0  0  0  0
 20 45  1  0  0  0  0
 21 22  1  0  0  0  0
 21 46  1  0  0  0  0
 22 23  2  0  0  0  0
 23 47  1  0  0  0  0
M  END
> <s_m_source_file>
AV-unprocessed.smi

> <i_m_source_file_index>
2119

> <i_lp_mmshare_version>
43012

> <i_f3d_flags>
0

> <s_epik_input>
W2NIXTFuW2NIXVtjSF1bY0hdYzFbTkhdQyg9TylbTkhdW0NIMl1bQ0BIXShbQ0BASF0yW0NIMl1bQ0gyXU9bQ0gyXTIpTjNbQ0gyXVtDSDJdT1tDSDJdW0NIMl0z

> <s_epik_cmdline>
J2VwaWtfcHl0aG9uJywgJy1waCcsICc3LjAnLCAnLXRuJywgJzgnLCAnLW1hJywgJzIwMCcsICctbWV0YWxfYmluZGluZycsICctaW1hZScsICc8aW5maWxlLm1hZT4nLCAnLW9tYWUnLCAnPG91dGZpbGUubWFlPic=

> <r_epik_Ionization_Penalty>
0.129787

> <r_epik_Ionization_Penalty_Charging>
0

> <r_epik_Ionization_Penalty_Neutral>
0.129787

> <r_epik_State_Penalty>
0.121311

> <r_epik_Charging_Adjusted_Penalty>
0.121311

> <i_epik_Tot_Q>
0

> <i_epik_Tot_abs_Q>
0

> <r_epik_Metal_State_Penalty>
0.117931

> <b_epik_Metal_Only>
0

> <s_lp_Force_Field>
OPLS_2005

> <r_lp_Energy>
59.4027

> <b_lp_Chiralities_Consistent>
1

> <s_lp_Variant>
AV-unprocessed.smi:2119-1

> <Gold.Version>
5.8.1

> <Gold.Id.Protein>
6NUR|6NUR_protein|mol2

> <Gold.PLP.Fitness>
43.7775

> <Gold.PLP.PLP>
-38.8330

> <Gold.PLP.part.hbond>
-3.7332

> <Gold.PLP.part.metal>
0.0000

> <Gold.PLP.part.buried>
-4.2251

> <Gold.PLP.part.nonpolar>
-31.9192

> <Gold.PLP.part.repulsive>
0.6314

> <Gold.PLP.ligand.clash>
0.0000

> <Gold.PLP.ligand.torsion>
0.5291

> <Gold.PLP.Chemscore.Hbond>
1.9440

> <Gold.PLP.Chemscore.CHOScore>
0.0000

> <Gold.PLP.Chemscore.Metal>
0.0000

> <Gold.Chemscore.Hbonds>
donor molecule, donor type, donor heavy atom, donor atom, acceptor molecule, acceptor atom, score
      L1  H     3    24       P1  7948  1.00
      L1  H    17    43       P1  7948  0.94

> <Gold.PLP.Chemscore.Internal.Correction>
0.1708

> <Gold.Rescore>
     Score         DG    S(hbond)    S(metal)    S(lipo)     H(rot)  DE(clash)    DE(int)     intcor
     15.67     -17.80       1.96        0.00      85.57       1.65       0.35       1.77       ----

> <Gold.Chemscore.Fitness>
15.6716

> <Gold.Chemscore.DG>
-17.7974

> <Gold.Chemscore.ZeroCoef>
-5.4800

> <Gold.Chemscore.Hbond>
1.9556

> <Gold.Chemscore.Metal>
0.0000

> <Gold.Chemscore.Lipo>
85.5722

> <Gold.Chemscore.Internal_Hbond>
0.0000

> <Gold.Chemscore.DEClash>
0.3521

> <Gold.Chemscore.DEInternal>
1.7737

> <Gold.Chemscore.Rot>
1.6508

> <Gold.Chemscore.Internal.Correction>
   9.000000E+99

> <Gold.Chemscore.Hbonds>
donor molecule, donor type, donor heavy atom, donor atom, acceptor molecule, acceptor atom, score
      L1  H     3    24       P1  7948  0.99
      L1  H    17    43       P1  7948  0.85

> <Gold.Chemscore.Hbond.Weighted>
-6.5317

> <Gold.Chemscore.Metal.Weighted>
-0.0000

> <Gold.Chemscore.Lipo.Weighted>
-10.0119

> <Gold.Chemscore.Internal_Hbond.Weighted>
0.0000

> <Gold.Chemscore.DEClash.Weighted>
0.3521

> <Gold.Chemscore.DEInternal.Weighted>
1.7737

> <Gold.Chemscore.Rot.Weighted>
4.2262

> <Gold.Chemscore.Internal.Correction.Weighted>
   9.000000E+99

> <Gold.Protein.RotatedTorsions>
[ 6907 6896 6895 6894 ] final -120.98 input  -60.11 | X-H torsion
[ 7974 7965 7964 7962 ] final -132.15 input  175.53 | X-H torsion
[ 8008 7997 7996 7995 ] final  110.76 input   59.86 | X-H torsion
[ 10167 10162 10161 10158 ] final  -78.32 input  -65.29 | X-H torsion
[ 10718 10713 10712 10709 ] final -120.56 input   66.30 | X-H torsion
[ 10763 10752 10751 10750 ] final  -37.69 input  -60.55 | X-H torsion
[ 11005 11000 10999 10996 ] final -107.25 input  -57.11 | X-H torsion

> <Gold.Protein.ActiveResidues>
 VAL166  LYS551  ARG553  GLY616  TRP617  ASP618  TYR619  PRO620  LYS621  CYS622 
 ASP623  PHE694  ASN695  SER759  ASP760  ASP761  ALA762  ILE779  LEU786  VAL792 
 PHE793  MET794  SER795  GLU796  ALA797  LYS798  CYS799  TRP800  GLU811  SER814 

> <Gold.Protein.RotatedAtoms>
  150.8442  133.7888  159.3049 H   0  0  0  0  0  0  0  0  0  0  0  0  # atno 6907 bound_to 6896
  151.5580  135.1064  159.9975 H   0  0  0  0  0  0  0  0  0  0  0  0  # atno 6908 bound_to 6896
  152.4499  133.7567  159.6780 H   0  0  0  0  0  0  0  0  0  0  0  0  # atno 6909 bound_to 6896
  144.9312  140.7130  143.4905 H   0  0  0  0  0  0  0  0  0  0  0  0  # atno 7974 bound_to 7965
  156.2076  140.3032  155.9661 H   0  0  0  0  0  0  0  0  0  0  0  0  # atno 8008 bound_to 7997
  155.2803  140.0437  157.3032 H   0  0  0  0  0  0  0  0  0  0  0  0  # atno 8009 bound_to 7997
  154.5654  140.2333  155.8279 H   0  0  0  0  0  0  0  0  0  0  0  0  # atno 8010 bound_to 7997
  140.4693  143.2431  151.8230 H   0  0  0  0  0  0  0  0  0  0  0  0  # atno 10167 bound_to 10162
  156.1267  130.6365  150.9555 H   0  0  0  0  0  0  0  0  0  0  0  0  # atno 10718 bound_to 10713
  153.9005  135.6803  153.4755 H   0  0  0  0  0  0  0  0  0  0  0  0  # atno 10763 bound_to 10752
  153.1132  135.4773  154.9068 H   0  0  0  0  0  0  0  0  0  0  0  0  # atno 10764 bound_to 10752
  154.7578  135.3202  154.8391 H   0  0  0  0  0  0  0  0  0  0  0  0  # atno 10765 bound_to 10752
  141.0964  133.8964  157.1953 H   0  0  0  0  0  0  0  0  0  0  0  0  # atno 11005 bound_to 11000
  145.3139  139.1810  143.4624 LP  0  0  0  0  0  0  0  0  0  0  0  0  # atno 17320 bound_to 7965
  146.3247  140.3147  142.8629 LP  0  0  0  0  0  0  0  0  0  0  0  0  # atno 17321 bound_to 7965
  139.4816  144.4912  151.9183 LP  0  0  0  0  0  0  0  0  0  0  0  0  # atno 17342 bound_to 10162
  140.3997  144.2509  150.5894 LP  0  0  0  0  0  0  0  0  0  0  0  0  # atno 17343 bound_to 10162
  157.6448  131.0905  150.8175 LP  0  0  0  0  0  0  0  0  0  0  0  0  # atno 17370 bound_to 10713
  156.8265  130.5001  149.5336 LP  0  0  0  0  0  0  0  0  0  0  0  0  # atno 17371 bound_to 10713
  139.9801  135.0101  156.9729 LP  0  0  0  0  0  0  0  0  0  0  0  0  # atno 17394 bound_to 11000
  140.5130  134.0983  155.7274 LP  0  0  0  0  0  0  0  0  0  0  0  0  # atno 17395 bound_to 11000

$$$$
