AV-unprocessed.smi:3150|AV-procd|sdf|12013|dock2
  -GOLD-   2272017423D 1   1.00000     0.00000
 Structure written by MMmdl.
 32 33  0  0  0  0  0  0  0  0  2 V2000
  151.0157  138.0814  154.5578 C   0  0  0  0  0  0  0  0  0  0  0  0
  150.4503  139.3847  155.1411 C   0  0  2  0  0  0  0  0  0  0  0  0
  150.2330  140.2828  154.0553 O   0  0  0  0  0  0  0  0  0  0  0  0
  149.4097  141.4051  154.3486 C   0  0  0  0  0  0  0  0  0  0  0  0
  147.9597  140.9867  154.2332 C   0  0  0  0  0  0  0  0  0  0  0  0
  147.2737  140.9383  152.8866 C   0  0  0  0  0  0  0  0  0  0  0  0
  146.8978  142.0045  153.8836 C   0  0  0  0  0  0  0  0  0  0  0  0
  151.4158  140.0016  156.1661 C   0  0  0  0  0  0  0  0  0  0  0  0
  152.5728  139.5855  156.2414 O   0  0  0  0  0  0  0  0  0  0  0  0
  150.9066  140.9951  156.9175 N   0  0  0  0  0  0  0  0  0  0  0  0
  151.5379  141.7517  157.9429 C   0  0  0  0  0  0  0  0  0  0  0  0
  151.3954  143.0960  158.0611 N   0  0  0  0  0  0  0  0  0  0  0  0
  152.0299  143.7428  159.0602 C   0  0  0  0  0  0  0  0  0  0  0  0
  152.8457  143.0936  160.0034 C   0  0  0  0  0  0  0  0  0  0  0  0
  153.0023  141.7012  159.8949 C   0  0  0  0  0  0  0  0  0  0  0  0
  152.3421  141.0172  158.8543 C   0  0  0  0  0  0  0  0  0  0  0  0
  152.4948  139.6610  158.7497 O   0  5  0  0  0  0  0  0  0  0  0  0
  151.2143  137.3503  155.3424 H   0  0  0  0  0  0  0  0  0  0  0  0
  151.9461  138.2542  154.0156 H   0  0  0  0  0  0  0  0  0  0  0  0
  150.3078  137.6317  153.8614 H   0  0  0  0  0  0  0  0  0  0  0  0
  149.4945  139.1593  155.6187 H   0  0  0  0  0  0  0  0  0  0  0  0
  149.5934  141.7549  155.3652 H   0  0  0  0  0  0  0  0  0  0  0  0
  149.6053  142.2350  153.6682 H   0  0  0  0  0  0  0  0  0  0  0  0
  147.6637  140.2252  154.9524 H   0  0  0  0  0  0  0  0  0  0  0  0
  147.8471  141.2453  152.0140 H   0  0  0  0  0  0  0  0  0  0  0  0
  146.5608  140.1341  152.7162 H   0  0  0  0  0  0  0  0  0  0  0  0
  145.9336  141.9132  154.3794 H   0  0  0  0  0  0  0  0  0  0  0  0
  147.2199  143.0228  153.6740 H   0  0  0  0  0  0  0  0  0  0  0  0
  149.9425  141.2421  156.7453 H   0  0  0  0  0  0  0  0  0  0  0  0
  151.8823  144.8115  159.1089 H   0  0  0  0  0  0  0  0  0  0  0  0
  153.3373  143.6480  160.7885 H   0  0  0  0  0  0  0  0  0  0  0  0
  153.6213  141.1670  160.6011 H   0  0  0  0  0  0  0  0  0  0  0  0
  1  2  1  0  0  0  0
  1 18  1  0  0  0  0
  1 19  1  0  0  0  0
  1 20  1  0  0  0  0
  2  3  1  0  0  0  0
  2  8  1  0  0  0  0
  2 21  1  0  0  0  0
  3  4  1  0  0  0  0
  4  5  1  0  0  0  0
  4 22  1  0  0  0  0
  4 23  1  0  0  0  0
  5  7  1  0  0  0  0
  5  6  1  0  0  0  0
  5 24  1  0  0  0  0
  6  7  1  0  0  0  0
  6 25  1  0  0  0  0
  6 26  1  0  0  0  0
  7 27  1  0  0  0  0
  7 28  1  0  0  0  0
  8  9  2  0  0  0  0
  8 10  1  0  0  0  0
 10 29  1  0  0  0  0
 10 11  1  0  0  0  0
 11 16  2  0  0  0  0
 11 12  1  0  0  0  0
 12 13  2  0  0  0  0
 13 30  1  0  0  0  0
 13 14  1  0  0  0  0
 14 31  1  0  0  0  0
 14 15  2  0  0  0  0
 15 16  1  0  0  0  0
 15 32  1  0  0  0  0
 16 17  1  0  0  0  0
M  CHG  1  17  -1
M  END
> <s_m_source_file>
AV-unprocessed.smi

> <i_m_source_file_index>
3150

> <i_lp_mmshare_version>
43012

> <i_f3d_flags>
0

> <s_epik_input>
W0NIMl0xW0NIMl1bQ0hdMVtDSDJdT1tDQEBIXShbQ0gzXSlDKD1PKVtOSF1jMm5bY0hdW2NIXVtjSF1jMltPSF0=

> <s_epik_cmdline>
J2VwaWtfcHl0aG9uJywgJy1waCcsICc3LjAnLCAnLXRuJywgJzgnLCAnLW1hJywgJzIwMCcsICctbWV0YWxfYmluZGluZycsICctaW1hZScsICc8aW5maWxlLm1hZT4nLCAnLW9tYWUnLCAnPG91dGZpbGUubWFlPic=

> <r_epik_Ionization_Penalty>
4.12024

> <r_epik_Ionization_Penalty_Charging>
2.08551

> <r_epik_Ionization_Penalty_Neutral>
2.03473

> <r_epik_State_Penalty>
2.65726

> <r_epik_Charging_Adjusted_Penalty>
4.74277

> <i_epik_Tot_Q>
-1

> <i_epik_Tot_abs_Q>
1

> <r_epik_Metal_State_Penalty>
0.600747

> <b_epik_Metal_Only>
0

> <s_lp_Force_Field>
OPLS_2005

> <r_lp_Energy>
13.9624

> <b_lp_Chiralities_Consistent>
1

> <s_lp_Variant>
AV-unprocessed.smi:3150-7

> <Gold.Version>
5.8.1

> <Gold.Id.Protein>
6NUR|6NUR_protein|mol2

> <Gold.PLP.Fitness>
41.4996

> <Gold.PLP.PLP>
-37.4788

> <Gold.PLP.part.hbond>
-2.0000

> <Gold.PLP.part.metal>
0.0000

> <Gold.PLP.part.buried>
-5.1451

> <Gold.PLP.part.nonpolar>
-31.3019

> <Gold.PLP.part.repulsive>
1.1298

> <Gold.PLP.ligand.clash>
0.0000

> <Gold.PLP.ligand.torsion>
1.1354

> <Gold.PLP.Chemscore.Hbond>
1.8960

> <Gold.PLP.Chemscore.CHOScore>
0.0000

> <Gold.PLP.Chemscore.Metal>
0.0000

> <Gold.Chemscore.Hbonds>
donor molecule, donor type, donor heavy atom, donor atom, acceptor molecule, acceptor atom, score
      P1  H  7989  7998       L1     3  0.91
      P1  H  7997  8008       L1     9  1.00

> <Gold.PLP.Chemscore.Internal.Correction>
0.6035

> <Gold.Rescore>
     Score         DG    S(hbond)    S(metal)    S(lipo)     H(rot)  DE(clash)    DE(int)     intcor
     15.48     -17.22       1.78        0.00      85.44       1.64       0.08       1.65       ----

> <Gold.Chemscore.Fitness>
15.4805

> <Gold.Chemscore.DG>
-17.2198

> <Gold.Chemscore.ZeroCoef>
-5.4800

> <Gold.Chemscore.Hbond>
1.7780

> <Gold.Chemscore.Metal>
0.0000

> <Gold.Chemscore.Lipo>
85.4389

> <Gold.Chemscore.Internal_Hbond>
0.0000

> <Gold.Chemscore.DEClash>
0.0845

> <Gold.Chemscore.DEInternal>
1.6548

> <Gold.Chemscore.Rot>
1.6387

> <Gold.Chemscore.Internal.Correction>
   9.000000E+99

> <Gold.Chemscore.Hbonds>
donor molecule, donor type, donor heavy atom, donor atom, acceptor molecule, acceptor atom, score
      P1  H  7989  7998       L1     3  0.39
      P1  H  7997  8008       L1     9  0.97

> <Gold.Chemscore.Hbond.Weighted>
-5.9385

> <Gold.Chemscore.Metal.Weighted>
-0.0000

> <Gold.Chemscore.Lipo.Weighted>
-9.9964

> <Gold.Chemscore.Internal_Hbond.Weighted>
0.0000

> <Gold.Chemscore.DEClash.Weighted>
0.0845

> <Gold.Chemscore.DEInternal.Weighted>
1.6548

> <Gold.Chemscore.Rot.Weighted>
4.1950

> <Gold.Chemscore.Internal.Correction.Weighted>
   9.000000E+99

> <Gold.Protein.RotatedTorsions>
[ 6907 6896 6895 6894 ] final  -28.56 input  -60.11 | X-H torsion
[ 7974 7965 7964 7962 ] final -144.20 input  175.53 | X-H torsion
[ 8008 7997 7996 7995 ] final  -61.93 input   59.86 | X-H torsion
[ 10167 10162 10161 10158 ] final  -53.09 input  -65.29 | X-H torsion
[ 10718 10713 10712 10709 ] final  -11.21 input   66.30 | X-H torsion
[ 10763 10752 10751 10750 ] final   60.71 input  -60.55 | X-H torsion
[ 11005 11000 10999 10996 ] final  163.41 input  -57.11 | X-H torsion

> <Gold.Protein.ActiveResidues>
 VAL166  LYS551  ARG553  GLY616  TRP617  ASP618  TYR619  PRO620  LYS621  CYS622 
 ASP623  PHE694  ASN695  SER759  ASP760  ASP761  ALA762  ILE779  LEU786  VAL792 
 PHE793  MET794  SER795  GLU796  ALA797  LYS798  CYS799  TRP800  GLU811  SER814 

> <Gold.Protein.RotatedAtoms>
  151.1313  135.0132  159.8583 H   0  0  0  0  0  0  0  0  0  0  0  0  # atno 6907 bound_to 6896
  152.5451  134.1607  159.8566 H   0  0  0  0  0  0  0  0  0  0  0  0  # atno 6908 bound_to 6896
  151.1674  133.4761  159.2627 H   0  0  0  0  0  0  0  0  0  0  0  0  # atno 6909 bound_to 6896
  144.8315  140.5740  143.5512 H   0  0  0  0  0  0  0  0  0  0  0  0  # atno 7974 bound_to 7965
  154.4473  140.1007  156.6507 H   0  0  0  0  0  0  0  0  0  0  0  0  # atno 8008 bound_to 7997
  155.5400  140.3483  155.4426 H   0  0  0  0  0  0  0  0  0  0  0  0  # atno 8009 bound_to 7997
  156.0604  140.1325  156.9937 H   0  0  0  0  0  0  0  0  0  0  0  0  # atno 8010 bound_to 7997
  140.6503  143.2561  151.4742 H   0  0  0  0  0  0  0  0  0  0  0  0  # atno 10167 bound_to 10162
  156.6623  130.4985  149.6026 H   0  0  0  0  0  0  0  0  0  0  0  0  # atno 10718 bound_to 10713
  152.9929  135.5526  154.5917 H   0  0  0  0  0  0  0  0  0  0  0  0  # atno 10763 bound_to 10752
  154.5277  135.2811  155.1209 H   0  0  0  0  0  0  0  0  0  0  0  0  # atno 10764 bound_to 10752
  154.2537  135.6394  153.5302 H   0  0  0  0  0  0  0  0  0  0  0  0  # atno 10765 bound_to 10752
  140.2355  134.8091  157.3359 H   0  0  0  0  0  0  0  0  0  0  0  0  # atno 11005 bound_to 11000
  145.4886  139.1490  143.3722 LP  0  0  0  0  0  0  0  0  0  0  0  0  # atno 17320 bound_to 7965
  146.2617  140.5024  142.8851 LP  0  0  0  0  0  0  0  0  0  0  0  0  # atno 17321 bound_to 7965
  139.5717  144.1912  152.1846 LP  0  0  0  0  0  0  0  0  0  0  0  0  # atno 17342 bound_to 10162
  140.1211  144.5373  150.6862 LP  0  0  0  0  0  0  0  0  0  0  0  0  # atno 17343 bound_to 10162
  156.2001  130.6614  151.1158 LP  0  0  0  0  0  0  0  0  0  0  0  0  # atno 17370 bound_to 10713
  157.7105  131.0736  150.6516 LP  0  0  0  0  0  0  0  0  0  0  0  0  # atno 17371 bound_to 10713
  140.1707  134.4612  155.7834 LP  0  0  0  0  0  0  0  0  0  0  0  0  # atno 17394 bound_to 11000
  141.2215  133.6940  156.7702 LP  0  0  0  0  0  0  0  0  0  0  0  0  # atno 17395 bound_to 11000

$$$$
