AV-unprocessed.smi:3341|AV-procd|sdf|12883|dock7
  -GOLD-   2272019283D 1   1.00000     0.00000
 Structure written by MMmdl.
 46 47  0  0  0  0  0  0  0  0  2 V2000
  153.7456  141.0056  160.5560 C   0  0  0  0  0  0  0  0  0  0  0  0
  153.5125  142.5102  160.7379 C   0  0  0  0  0  0  0  0  0  0  0  0
  152.6043  143.0383  159.7385 N   0  0  0  0  0  0  0  0  0  0  0  0
  151.8988  142.3454  158.7745 C   0  0  0  0  0  0  0  0  0  0  0  0
  151.1893  143.2892  158.0866 C   0  0  0  0  0  0  0  0  0  0  0  0
  150.3032  143.1283  156.9915 N   0  0  0  0  0  0  0  0  0  0  0  0
  150.0137  141.9917  156.3374 C   0  0  0  0  0  0  0  0  0  0  0  0
  150.4688  140.8805  156.6097 O   0  0  0  0  0  0  0  0  0  0  0  0
  149.1509  142.2102  155.3351 N   0  0  0  0  0  0  0  0  0  0  0  0
  148.6514  141.1845  154.4264 C   0  0  0  0  0  0  0  0  0  0  0  0
  147.2220  141.5016  153.9457 C   0  0  0  0  0  0  0  0  0  0  0  0
  146.5485  140.3213  153.3471 N   0  3  1  0  0  0  0  0  0  0  0  0
  147.2585  139.8265  152.1390 C   0  0  0  0  0  0  0  0  0  0  0  0
  146.4726  138.6954  151.4570 C   0  0  0  0  0  0  0  0  0  0  0  0
  146.2021  137.5471  152.4369 C   0  0  0  0  0  0  0  0  0  0  0  0
  145.4910  138.0764  153.6933 C   0  0  1  0  0  0  0  0  0  0  0  0
  145.2284  136.9516  154.7048 C   0  0  0  0  0  0  0  0  0  0  0  0
  146.3040  139.2253  154.3238 C   0  0  0  0  0  0  0  0  0  0  0  0
  151.5144  144.5327  158.6885 C   0  0  0  0  0  0  0  0  0  0  0  0
  152.3698  144.3729  159.6866 N   0  0  0  0  0  0  0  0  0  0  0  0
  154.4350  140.6267  161.3105 H   0  0  0  0  0  0  0  0  0  0  0  0
  154.1722  140.7891  159.5760 H   0  0  0  0  0  0  0  0  0  0  0  0
  152.8134  140.4469  160.6468 H   0  0  0  0  0  0  0  0  0  0  0  0
  153.1030  142.7145  161.7281 H   0  0  0  0  0  0  0  0  0  0  0  0
  154.4586  143.0486  160.6692 H   0  0  0  0  0  0  0  0  0  0  0  0
  151.9687  141.2724  158.6732 H   0  0  0  0  0  0  0  0  0  0  0  0
  149.8500  143.9700  156.6670 H   0  0  0  0  0  0  0  0  0  0  0  0
  148.8283  143.1548  155.1816 H   0  0  0  0  0  0  0  0  0  0  0  0
  149.3437  141.1358  153.5871 H   0  0  0  0  0  0  0  0  0  0  0  0
  148.6836  140.2082  154.9133 H   0  0  0  0  0  0  0  0  0  0  0  0
  146.6406  141.8408  154.8042 H   0  0  0  0  0  0  0  0  0  0  0  0
  147.2257  142.3276  153.2329 H   0  0  0  0  0  0  0  0  0  0  0  0
  147.3941  140.6428  151.4282 H   0  0  0  0  0  0  0  0  0  0  0  0
  148.2548  139.4791  152.4178 H   0  0  0  0  0  0  0  0  0  0  0  0
  145.5271  139.0832  151.0755 H   0  0  0  0  0  0  0  0  0  0  0  0
  147.0261  138.3254  150.5934 H   0  0  0  0  0  0  0  0  0  0  0  0
  145.5965  136.7806  151.9520 H   0  0  0  0  0  0  0  0  0  0  0  0
  147.1442  137.0715  152.7137 H   0  0  0  0  0  0  0  0  0  0  0  0
  144.5223  138.4766  153.3897 H   0  0  0  0  0  0  0  0  0  0  0  0
  146.1600  136.5047  155.0535 H   0  0  0  0  0  0  0  0  0  0  0  0
  144.6246  136.1590  154.2621 H   0  0  0  0  0  0  0  0  0  0  0  0
  144.6914  137.3246  155.5774 H   0  0  0  0  0  0  0  0  0  0  0  0
  147.2594  138.8518  154.6965 H   0  0  0  0  0  0  0  0  0  0  0  0
  145.7590  139.6077  155.1862 H   0  0  0  0  0  0  0  0  0  0  0  0
  151.1667  145.5246  158.4402 H   0  0  0  0  0  0  0  0  0  0  0  0
  145.6445  140.6402  153.0287 H   0  0  0  0  0  0  0  0  0  0  0  0
  1  2  1  0  0  0  0
  1 21  1  0  0  0  0
  1 22  1  0  0  0  0
  1 23  1  0  0  0  0
  2  3  1  0  0  0  0
  2 24  1  0  0  0  0
  2 25  1  0  0  0  0
  3 20  1  0  0  0  0
  3  4  1  0  0  0  0
  4  5  2  0  0  0  0
  4 26  1  0  0  0  0
  5  6  1  0  0  0  0
  5 19  1  0  0  0  0
  6  7  1  0  0  0  0
  6 27  1  0  0  0  0
  7  8  2  0  0  0  0
  7  9  1  0  0  0  0
  9 10  1  0  0  0  0
  9 28  1  0  0  0  0
 10 11  1  0  0  0  0
 10 29  1  0  0  0  0
 10 30  1  0  0  0  0
 11 12  1  0  0  0  0
 11 31  1  0  0  0  0
 11 32  1  0  0  0  0
 12 18  1  0  0  0  0
 12 13  1  0  0  0  0
 12 46  1  0  0  0  0
 13 14  1  0  0  0  0
 13 33  1  0  0  0  0
 13 34  1  0  0  0  0
 14 15  1  0  0  0  0
 14 35  1  0  0  0  0
 14 36  1  0  0  0  0
 15 16  1  0  0  0  0
 15 37  1  0  0  0  0
 15 38  1  0  0  0  0
 16 17  1  0  0  0  0
 16 18  1  0  0  0  0
 16 39  1  0  0  0  0
 17 40  1  0  0  0  0
 17 41  1  0  0  0  0
 17 42  1  0  0  0  0
 18 43  1  0  0  0  0
 18 44  1  0  0  0  0
 19 20  2  0  0  0  0
 19 45  1  0  0  0  0
M  CHG  1  12   1
M  END
> <s_m_source_file>
AV-unprocessed.smi

> <i_m_source_file_index>
3341

> <i_lp_mmshare_version>
43012

> <i_f3d_flags>
0

> <s_epik_input>
W0NIM11bQ0gyXW4xW2NIXWMoW2NIXW4xKVtOSF1DKD1PKVtOSF1bQ0gyXVtDSDJdTjJbQ0gyXVtDSDJdW0NIMl1bQ0BASF0oW0NIM10pW0NIMl0y

> <s_epik_cmdline>
J2VwaWtfcHl0aG9uJywgJy1waCcsICc3LjAnLCAnLXRuJywgJzgnLCAnLW1hJywgJzIwMCcsICctbWV0YWxfYmluZGluZycsICctaW1hZScsICc8aW5maWxlLm1hZT4nLCAnLW9tYWUnLCAnPG91dGZpbGUubWFlPic=

> <r_lp_tautomer_probability>
1

> <r_epik_Ionization_Penalty>
0.00203389

> <r_epik_Ionization_Penalty_Charging>
0.00188267

> <r_epik_Ionization_Penalty_Neutral>
0.000151224

> <r_epik_State_Penalty>
0.0012808

> <r_epik_Charging_Adjusted_Penalty>
0.00316346

> <i_epik_Tot_Q>
1

> <i_epik_Tot_abs_Q>
1

> <r_epik_Metal_State_Penalty>
-0

> <b_epik_Metal_Only>
0

> <s_lp_Force_Field>
OPLS_2005

> <r_lp_Energy>
20.2182

> <b_lp_Chiralities_Consistent>
1

> <s_lp_Variant>
AV-unprocessed.smi:3341-1

> <Gold.Version>
5.8.1

> <Gold.Id.Protein>
6NUR|6NUR_protein|mol2

> <Gold.PLP.Fitness>
49.3794

> <Gold.PLP.PLP>
-38.0568

> <Gold.PLP.part.hbond>
-2.9208

> <Gold.PLP.part.metal>
0.0000

> <Gold.PLP.part.buried>
1.7950

> <Gold.PLP.part.nonpolar>
-38.4355

> <Gold.PLP.part.repulsive>
0.2599

> <Gold.PLP.ligand.clash>
0.0000

> <Gold.PLP.ligand.torsion>
0.2896

> <Gold.PLP.Chemscore.Hbond>
3.9585

> <Gold.PLP.Chemscore.CHOScore>
0.0000

> <Gold.PLP.Chemscore.Metal>
0.0000

> <Gold.Chemscore.Hbonds>
donor molecule, donor type, donor heavy atom, donor atom, acceptor molecule, acceptor atom, score
      L1  H     6    27       P1  8028  1.00
      L1  H     9    28       P1  8028  0.98
      L1  H    12    46       P1 10175  1.95

> <Gold.PLP.Chemscore.Internal.Correction>
0.0263

> <Gold.Rescore>
     Score         DG    S(hbond)    S(metal)    S(lipo)     H(rot)  DE(clash)    DE(int)     intcor
     19.71     -21.67       2.86        0.00      91.51       1.59       0.57       1.38       ----

> <Gold.Chemscore.Fitness>
19.7087

> <Gold.Chemscore.DG>
-21.6661

> <Gold.Chemscore.ZeroCoef>
-5.4800

> <Gold.Chemscore.Hbond>
2.8601

> <Gold.Chemscore.Metal>
0.0000

> <Gold.Chemscore.Lipo>
91.5061

> <Gold.Chemscore.Internal_Hbond>
0.0000

> <Gold.Chemscore.DEClash>
0.5738

> <Gold.Chemscore.DEInternal>
1.3836

> <Gold.Chemscore.Rot>
1.5909

> <Gold.Chemscore.Internal.Correction>
   9.000000E+99

> <Gold.Chemscore.Hbonds>
donor molecule, donor type, donor heavy atom, donor atom, acceptor molecule, acceptor atom, score
      L1  H     6    27       P1  8028  0.92
      L1  H     9    28       P1  8028  0.92
      L1  H    12    46       P1 10175  0.68

> <Gold.Chemscore.Hbond.Weighted>
-9.5526

> <Gold.Chemscore.Metal.Weighted>
-0.0000

> <Gold.Chemscore.Lipo.Weighted>
-10.7062

> <Gold.Chemscore.Internal_Hbond.Weighted>
0.0000

> <Gold.Chemscore.DEClash.Weighted>
0.5738

> <Gold.Chemscore.DEInternal.Weighted>
1.3836

> <Gold.Chemscore.Rot.Weighted>
4.0728

> <Gold.Chemscore.Internal.Correction.Weighted>
   9.000000E+99

> <Gold.Protein.RotatedTorsions>
[ 6907 6896 6895 6894 ] final  -52.90 input  -60.11 | X-H torsion
[ 7974 7965 7964 7962 ] final   -2.88 input  175.53 | X-H torsion
[ 8008 7997 7996 7995 ] final  -52.81 input   59.86 | X-H torsion
[ 10167 10162 10161 10158 ] final  147.90 input  -65.29 | X-H torsion
[ 10718 10713 10712 10709 ] final   14.88 input   66.30 | X-H torsion
[ 10763 10752 10751 10750 ] final -177.02 input  -60.55 | X-H torsion
[ 11005 11000 10999 10996 ] final -163.81 input  -57.11 | X-H torsion

> <Gold.Protein.ActiveResidues>
 VAL166  LYS551  ARG553  GLY616  TRP617  ASP618  TYR619  PRO620  LYS621  CYS622 
 ASP623  PHE694  ASN695  SER759  ASP760  ASP761  ALA762  ILE779  LEU786  VAL792 
 PHE793  MET794  SER795  GLU796  ALA797  LYS798  CYS799  TRP800  GLU811  SER814 

> <Gold.Protein.RotatedAtoms>
  150.8476  134.7790  159.6982 H   0  0  0  0  0  0  0  0  0  0  0  0  # atno 6907 bound_to 6896
  152.4549  134.5311  159.9821 H   0  0  0  0  0  0  0  0  0  0  0  0  # atno 6908 bound_to 6896
  151.5438  133.3390  159.2976 H   0  0  0  0  0  0  0  0  0  0  0  0  # atno 6909 bound_to 6896
  146.2398  140.1637  142.8332 H   0  0  0  0  0  0  0  0  0  0  0  0  # atno 7974 bound_to 7965
  154.4116  140.1215  156.5051 H   0  0  0  0  0  0  0  0  0  0  0  0  # atno 8008 bound_to 7997
  155.6855  140.3496  155.4853 H   0  0  0  0  0  0  0  0  0  0  0  0  # atno 8009 bound_to 7997
  155.9514  140.1105  157.0963 H   0  0  0  0  0  0  0  0  0  0  0  0  # atno 8010 bound_to 7997
  139.4883  144.5720  151.7036 H   0  0  0  0  0  0  0  0  0  0  0  0  # atno 10167 bound_to 10162
  157.0455  130.6248  149.5758 H   0  0  0  0  0  0  0  0  0  0  0  0  # atno 10718 bound_to 10713
  154.5652  135.2823  155.0881 H   0  0  0  0  0  0  0  0  0  0  0  0  # atno 10763 bound_to 10752
  154.2274  135.6380  153.5168 H   0  0  0  0  0  0  0  0  0  0  0  0  # atno 10764 bound_to 10752
  153.0041  135.5529  154.6258 H   0  0  0  0  0  0  0  0  0  0  0  0  # atno 10765 bound_to 10752
  140.5940  134.5016  157.5196 H   0  0  0  0  0  0  0  0  0  0  0  0  # atno 11005 bound_to 11000
  145.0068  140.8680  143.5248 LP  0  0  0  0  0  0  0  0  0  0  0  0  # atno 17320 bound_to 7965
  145.1664  139.2429  143.5364 LP  0  0  0  0  0  0  0  0  0  0  0  0  # atno 17321 bound_to 7965
  140.5309  144.0731  150.6053 LP  0  0  0  0  0  0  0  0  0  0  0  0  # atno 17342 bound_to 10162
  140.3721  143.2849  152.0266 LP  0  0  0  0  0  0  0  0  0  0  0  0  # atno 17343 bound_to 10162
  156.0024  130.5105  150.7711 LP  0  0  0  0  0  0  0  0  0  0  0  0  # atno 17370 bound_to 10713
  157.5071  131.0923  151.0244 LP  0  0  0  0  0  0  0  0  0  0  0  0  # atno 17371 bound_to 10713
  139.9261  134.8052  156.1063 LP  0  0  0  0  0  0  0  0  0  0  0  0  # atno 17394 bound_to 11000
  141.0916  133.6712  156.2554 LP  0  0  0  0  0  0  0  0  0  0  0  0  # atno 17395 bound_to 11000

$$$$
