AV-unprocessed.smi:1027|AV-procd|sdf|4472|dock7
  -GOLD-   22720 2443D 1   1.00000     0.00000
 Structure written by MMmdl.
 34 35  0  0  0  0  0  0  0  0  2 V2000
  153.0862  144.4956  158.0349 C   0  0  0  0  0  0  0  0  0  0  0  0
  152.2462  144.1572  159.2823 C   0  0  0  0  0  0  0  0  0  0  0  0
  151.8802  145.4578  160.0204 C   0  0  0  0  0  0  0  0  0  0  0  0
  152.9546  143.1309  160.2061 C   0  0  1  0  0  0  0  0  0  0  0  0
  152.0891  142.6887  161.4016 C   0  0  0  0  0  0  0  0  0  0  0  0
  153.3400  141.9458  159.4385 N   0  0  0  0  0  0  0  0  0  0  0  0
  154.1330  140.9479  159.8559 C   0  0  0  0  0  0  0  0  0  0  0  0
  154.6042  140.9687  160.9952 O   0  0  0  0  0  0  0  0  0  0  0  0
  154.3314  139.9866  158.9252 N   0  5  0  0  0  0  0  0  0  0  0  0
  154.3492  138.6938  159.2892 C   0  0  0  0  0  0  0  0  0  0  0  0
  155.2969  137.8426  158.8721 N   0  0  0  0  0  0  0  0  0  0  0  0
  155.1295  136.5570  159.3659 N   0  0  0  0  0  0  0  0  0  0  0  0
  154.0589  136.4569  160.1574 C   0  0  0  0  0  0  0  0  0  0  0  0
  153.6631  135.1737  160.8081 C   0  0  0  0  0  0  0  0  0  0  0  0
  153.4243  135.1053  162.2991 C   0  0  0  0  0  0  0  0  0  0  0  0
  154.6187  134.4098  161.6983 C   0  0  0  0  0  0  0  0  0  0  0  0
  153.1661  137.9549  160.3677 S   0  0  0  0  0  0  0  0  0  0  0  0
  154.0573  144.9058  158.3136 H   0  0  0  0  0  0  0  0  0  0  0  0
  152.5819  145.2329  157.4098 H   0  0  0  0  0  0  0  0  0  0  0  0
  153.2623  143.6190  157.4112 H   0  0  0  0  0  0  0  0  0  0  0  0
  151.3153  143.7090  158.9319 H   0  0  0  0  0  0  0  0  0  0  0  0
  152.7624  145.9268  160.4570 H   0  0  0  0  0  0  0  0  0  0  0  0
  151.1616  145.2826  160.8201 H   0  0  0  0  0  0  0  0  0  0  0  0
  151.4244  146.1788  159.3412 H   0  0  0  0  0  0  0  0  0  0  0  0
  153.8575  143.6044  160.5963 H   0  0  0  0  0  0  0  0  0  0  0  0
  151.8760  143.5174  162.0760 H   0  0  0  0  0  0  0  0  0  0  0  0
  152.5960  141.9257  161.9933 H   0  0  0  0  0  0  0  0  0  0  0  0
  151.1381  142.2708  161.0695 H   0  0  0  0  0  0  0  0  0  0  0  0
  152.9787  141.8800  158.4983 H   0  0  0  0  0  0  0  0  0  0  0  0
  153.0050  134.6003  160.1585 H   0  0  0  0  0  0  0  0  0  0  0  0
  153.6090  136.0053  162.8824 H   0  0  0  0  0  0  0  0  0  0  0  0
  152.6015  134.4842  162.6468 H   0  0  0  0  0  0  0  0  0  0  0  0
  154.5930  133.3234  161.6447 H   0  0  0  0  0  0  0  0  0  0  0  0
  155.5969  134.8434  161.8957 H   0  0  0  0  0  0  0  0  0  0  0  0
  1  2  1  0  0  0  0
  1 18  1  0  0  0  0
  1 19  1  0  0  0  0
  1 20  1  0  0  0  0
  2  3  1  0  0  0  0
  2  4  1  0  0  0  0
  2 21  1  0  0  0  0
  3 22  1  0  0  0  0
  3 23  1  0  0  0  0
  3 24  1  0  0  0  0
  4  5  1  0  0  0  0
  4  6  1  0  0  0  0
  4 25  1  0  0  0  0
  5 26  1  0  0  0  0
  5 27  1  0  0  0  0
  5 28  1  0  0  0  0
  6  7  1  0  0  0  0
  6 29  1  0  0  0  0
  7  8  2  0  0  0  0
  7  9  1  0  0  0  0
  9 10  1  0  0  0  0
 10 17  1  0  0  0  0
 10 11  2  0  0  0  0
 11 12  1  0  0  0  0
 12 13  2  0  0  0  0
 13 14  1  0  0  0  0
 13 17  1  0  0  0  0
 14 16  1  0  0  0  0
 14 15  1  0  0  0  0
 14 30  1  0  0  0  0
 15 16  1  0  0  0  0
 15 31  1  0  0  0  0
 15 32  1  0  0  0  0
 16 33  1  0  0  0  0
 16 34  1  0  0  0  0
M  CHG  1   9  -1
M  END
> <s_m_source_file>
AV-unprocessed.smi

> <i_m_source_file_index>
1027

> <i_lp_mmshare_version>
43012

> <i_f3d_flags>
0

> <s_epik_input>
W0NIM11bQ0hdKFtDSDNdKVtDQEhdKFtDSDNdKVtOSF1DKD1PKVtOSF1jMW5uYyhzMSlbQ0hdMltDSDJdW0NIMl0y

> <s_epik_cmdline>
J2VwaWtfcHl0aG9uJywgJy1waCcsICc3LjAnLCAnLXRuJywgJzgnLCAnLW1hJywgJzIwMCcsICctbWV0YWxfYmluZGluZycsICctaW1hZScsICc8aW5maWxlLm1hZT4nLCAnLW9tYWUnLCAnPG91dGZpbGUubWFlPic=

> <r_lp_tautomer_probability>
1

> <r_epik_Ionization_Penalty>
3.99975

> <r_epik_Ionization_Penalty_Charging>
3.83446

> <r_epik_Ionization_Penalty_Neutral>
0.165297

> <r_epik_State_Penalty>
3.83354

> <r_epik_Charging_Adjusted_Penalty>
7.668

> <i_epik_Tot_Q>
-1

> <i_epik_Tot_abs_Q>
1

> <r_epik_Metal_State_Penalty>
0.575872

> <b_epik_Metal_Only>
1

> <s_lp_Force_Field>
OPLS_2005

> <r_lp_Energy>
2.2869

> <b_lp_Chiralities_Consistent>
1

> <s_lp_Variant>
AV-unprocessed.smi:1027-4

> <Gold.Version>
5.8.1

> <Gold.Id.Protein>
6NUR|6NUR_protein|mol2

> <Gold.PLP.Fitness>
39.2393

> <Gold.PLP.PLP>
-34.8069

> <Gold.PLP.part.hbond>
-2.0000

> <Gold.PLP.part.metal>
0.0000

> <Gold.PLP.part.buried>
-3.4823

> <Gold.PLP.part.nonpolar>
-28.8997

> <Gold.PLP.part.repulsive>
0.0719

> <Gold.PLP.ligand.clash>
0.0000

> <Gold.PLP.ligand.torsion>
0.8504

> <Gold.PLP.Chemscore.Hbond>
1.9840

> <Gold.PLP.Chemscore.CHOScore>
0.0000

> <Gold.PLP.Chemscore.Metal>
0.0000

> <Gold.Chemscore.Hbonds>
donor molecule, donor type, donor heavy atom, donor atom, acceptor molecule, acceptor atom, score
      P1  H  7997  8008       L1     9  1.95

> <Gold.PLP.Chemscore.Internal.Correction>
0.1811

> <Gold.Rescore>
     Score         DG    S(hbond)    S(metal)    S(lipo)     H(rot)  DE(clash)    DE(int)     intcor
     13.13     -15.31       0.72        0.00      93.23       1.36       1.01       1.17       ----

> <Gold.Chemscore.Fitness>
13.1269

> <Gold.Chemscore.DG>
-15.3133

> <Gold.Chemscore.ZeroCoef>
-5.4800

> <Gold.Chemscore.Hbond>
0.7222

> <Gold.Chemscore.Metal>
0.0000

> <Gold.Chemscore.Lipo>
93.2269

> <Gold.Chemscore.Internal_Hbond>
0.0000

> <Gold.Chemscore.DEClash>
1.0119

> <Gold.Chemscore.DEInternal>
1.1745

> <Gold.Chemscore.Rot>
1.3618

> <Gold.Chemscore.Internal.Correction>
   9.000000E+99

> <Gold.Chemscore.Hbonds>
donor molecule, donor type, donor heavy atom, donor atom, acceptor molecule, acceptor atom, score
      P1  H  7997  8008       L1     9  0.47

> <Gold.Chemscore.Hbond.Weighted>
-2.4120

> <Gold.Chemscore.Metal.Weighted>
-0.0000

> <Gold.Chemscore.Lipo.Weighted>
-10.9075

> <Gold.Chemscore.Internal_Hbond.Weighted>
0.0000

> <Gold.Chemscore.DEClash.Weighted>
1.0119

> <Gold.Chemscore.DEInternal.Weighted>
1.1745

> <Gold.Chemscore.Rot.Weighted>
3.4863

> <Gold.Chemscore.Internal.Correction.Weighted>
   9.000000E+99

> <Gold.Protein.RotatedTorsions>
[ 6907 6896 6895 6894 ] final  137.68 input  -60.11 | X-H torsion
[ 7974 7965 7964 7962 ] final  122.22 input  175.53 | X-H torsion
[ 8008 7997 7996 7995 ] final -122.12 input   59.86 | X-H torsion
[ 10167 10162 10161 10158 ] final -161.57 input  -65.29 | X-H torsion
[ 10718 10713 10712 10709 ] final -104.96 input   66.30 | X-H torsion
[ 10763 10752 10751 10750 ] final -130.48 input  -60.55 | X-H torsion
[ 11005 11000 10999 10996 ] final  138.43 input  -57.11 | X-H torsion

> <Gold.Protein.ActiveResidues>
 VAL166  LYS551  ARG553  GLY616  TRP617  ASP618  TYR619  PRO620  LYS621  CYS622 
 ASP623  PHE694  ASN695  SER759  ASP760  ASP761  ALA762  ILE779  LEU786  VAL792 
 PHE793  MET794  SER795  GLU796  ALA797  LYS798  CYS799  TRP800  GLU811  SER814 

> <Gold.Protein.RotatedAtoms>
  152.2753  133.5420  159.5464 H   0  0  0  0  0  0  0  0  0  0  0  0  # atno 6907 bound_to 6896
  150.7175  134.0640  159.3850 H   0  0  0  0  0  0  0  0  0  0  0  0  # atno 6908 bound_to 6896
  151.8553  135.0543  160.0514 H   0  0  0  0  0  0  0  0  0  0  0  0  # atno 6909 bound_to 6896
  145.1101  139.3459  143.4767 H   0  0  0  0  0  0  0  0  0  0  0  0  # atno 7974 bound_to 7965
  155.1591  140.0405  157.2838 H   0  0  0  0  0  0  0  0  0  0  0  0  # atno 8008 bound_to 7997
  154.6349  140.2533  155.7363 H   0  0  0  0  0  0  0  0  0  0  0  0  # atno 8009 bound_to 7997
  156.2503  140.2867  156.0717 H   0  0  0  0  0  0  0  0  0  0  0  0  # atno 8010 bound_to 7997
  139.6455  144.0180  152.2124 H   0  0  0  0  0  0  0  0  0  0  0  0  # atno 10167 bound_to 10162
  156.0326  130.5540  150.7471 H   0  0  0  0  0  0  0  0  0  0  0  0  # atno 10718 bound_to 10713
  154.8755  135.3861  154.4089 H   0  0  0  0  0  0  0  0  0  0  0  0  # atno 10763 bound_to 10752
  153.4805  135.7030  153.5946 H   0  0  0  0  0  0  0  0  0  0  0  0  # atno 10764 bound_to 10752
  153.4363  135.3866  155.2169 H   0  0  0  0  0  0  0  0  0  0  0  0  # atno 10765 bound_to 10752
  140.0183  134.9408  157.0422 H   0  0  0  0  0  0  0  0  0  0  0  0  # atno 11005 bound_to 11000
  146.3526  140.1016  142.8608 LP  0  0  0  0  0  0  0  0  0  0  0  0  # atno 17320 bound_to 7965
  145.0857  140.9251  143.4799 LP  0  0  0  0  0  0  0  0  0  0  0  0  # atno 17321 bound_to 7965
  139.9880  144.6381  150.7840 LP  0  0  0  0  0  0  0  0  0  0  0  0  # atno 17342 bound_to 10162
  140.7512  143.2969  151.3181 LP  0  0  0  0  0  0  0  0  0  0  0  0  # atno 17343 bound_to 10162
  157.5025  131.0919  151.0297 LP  0  0  0  0  0  0  0  0  0  0  0  0  # atno 17370 bound_to 10713
  157.0674  130.5850  149.5396 LP  0  0  0  0  0  0  0  0  0  0  0  0  # atno 17371 bound_to 10713
  140.4431  134.1660  155.7175 LP  0  0  0  0  0  0  0  0  0  0  0  0  # atno 17394 bound_to 11000
  141.1757  133.8518  157.1427 LP  0  0  0  0  0  0  0  0  0  0  0  0  # atno 17395 bound_to 11000

$$$$
