AV-unprocessed.smi:340|AV-procd|sdf|2381|dock1
  -GOLD-   2262022303D 1   1.00000     0.00000
 Structure written by MMmdl.
 34 35  0  0  0  0  0  0  0  0  2 V2000
  155.6818  135.0621  158.4378 C   0  0  0  0  0  0  0  0  0  0  0  0
  154.5818  136.5283  158.3137 S   0  0  0  0  0  0  0  0  0  0  0  0
  155.4692  137.7012  158.3721 O   0  0  0  0  0  0  0  0  0  0  0  0
  153.7980  136.3386  157.0824 O   0  0  0  0  0  0  0  0  0  0  0  0
  153.6929  136.3478  159.6565 N   0  5  0  0  0  0  0  0  0  0  0  0
  153.8930  137.2627  160.7657 C   0  0  0  0  0  0  0  0  0  0  0  0
  153.6039  138.7014  160.3625 C   0  0  0  0  0  0  0  0  0  0  0  0
  154.4044  139.7659  160.8338 C   0  0  0  0  0  0  0  0  0  0  0  0
  154.0965  141.0806  160.4316 C   0  0  0  0  0  0  0  0  0  0  0  0
  153.0002  141.2883  159.5695 C   0  0  0  0  0  0  0  0  0  0  0  0
  152.6937  142.5942  159.1624 N   0  0  0  0  0  0  0  0  0  0  0  0
  152.4357  143.5015  160.2737 C   0  0  0  0  0  0  0  0  0  0  0  0
  152.2289  144.9323  159.7473 C   0  0  0  0  0  0  0  0  0  0  0  0
  151.1805  144.9409  158.7821 O   0  0  0  0  0  0  0  0  0  0  0  0
  151.4753  144.1077  157.6642 C   0  0  0  0  0  0  0  0  0  0  0  0
  151.6571  142.6564  158.1394 C   0  0  0  0  0  0  0  0  0  0  0  0
  152.2273  140.2738  159.1143 N   0  0  0  0  0  0  0  0  0  0  0  0
  152.5262  139.0149  159.5027 C   0  0  0  0  0  0  0  0  0  0  0  0
  156.3585  135.0462  157.5841 H   0  0  0  0  0  0  0  0  0  0  0  0
  155.0790  134.1545  158.4407 H   0  0  0  0  0  0  0  0  0  0  0  0
  156.2606  135.1189  159.3593 H   0  0  0  0  0  0  0  0  0  0  0  0
  153.2537  137.0165  161.6141 H   0  0  0  0  0  0  0  0  0  0  0  0
  154.9138  137.2173  161.1468 H   0  0  0  0  0  0  0  0  0  0  0  0
  155.2457  139.5962  161.4920 H   0  0  0  0  0  0  0  0  0  0  0  0
  154.6946  141.9112  160.7770 H   0  0  0  0  0  0  0  0  0  0  0  0
  151.5480  143.1762  160.8183 H   0  0  0  0  0  0  0  0  0  0  0  0
  153.2719  143.4766  160.9736 H   0  0  0  0  0  0  0  0  0  0  0  0
  151.9632  145.5999  160.5668 H   0  0  0  0  0  0  0  0  0  0  0  0
  153.1477  145.3205  159.3047 H   0  0  0  0  0  0  0  0  0  0  0  0
  150.6561  144.1694  156.9479 H   0  0  0  0  0  0  0  0  0  0  0  0
  152.3721  144.4658  157.1560 H   0  0  0  0  0  0  0  0  0  0  0  0
  151.9287  142.0166  157.2988 H   0  0  0  0  0  0  0  0  0  0  0  0
  150.7155  142.2795  158.5415 H   0  0  0  0  0  0  0  0  0  0  0  0
  151.8770  138.2470  159.1047 H   0  0  0  0  0  0  0  0  0  0  0  0
  1  2  1  0  0  0  0
  1 19  1  0  0  0  0
  1 20  1  0  0  0  0
  1 21  1  0  0  0  0
  2  3  2  0  0  0  0
  2  4  2  0  0  0  0
  2  5  1  0  0  0  0
  5  6  1  0  0  0  0
  6  7  1  0  0  0  0
  6 22  1  0  0  0  0
  6 23  1  0  0  0  0
  7 18  1  0  0  0  0
  7  8  2  0  0  0  0
  8  9  1  0  0  0  0
  8 24  1  0  0  0  0
  9 10  2  0  0  0  0
  9 25  1  0  0  0  0
 10 11  1  0  0  0  0
 10 17  1  0  0  0  0
 11 16  1  0  0  0  0
 11 12  1  0  0  0  0
 12 13  1  0  0  0  0
 12 26  1  0  0  0  0
 12 27  1  0  0  0  0
 13 14  1  0  0  0  0
 13 28  1  0  0  0  0
 13 29  1  0  0  0  0
 14 15  1  0  0  0  0
 15 16  1  0  0  0  0
 15 30  1  0  0  0  0
 15 31  1  0  0  0  0
 16 32  1  0  0  0  0
 16 33  1  0  0  0  0
 17 18  2  0  0  0  0
 18 34  1  0  0  0  0
M  CHG  1   5  -1
M  END
> <s_m_source_file>
AV-unprocessed.smi

> <i_m_source_file_index>
340

> <i_lp_mmshare_version>
43012

> <i_f3d_flags>
0

> <s_epik_input>
W0NIM11TKD1PKSg9TylbTkhdW0NIMl1jMVtjSF1bY0hdYyhuW2NIXTEpTjJbQ0gyXVtDSDJdT1tDSDJdW0NIMl0y

> <s_epik_cmdline>
J2VwaWtfcHl0aG9uJywgJy1waCcsICc3LjAnLCAnLXRuJywgJzgnLCAnLW1hJywgJzIwMCcsICctbWV0YWxfYmluZGluZycsICctaW1hZScsICc8aW5maWxlLm1hZT4nLCAnLW9tYWUnLCAnPG91dGZpbGUubWFlPic=

> <r_lp_tautomer_probability>
1

> <r_epik_Ionization_Penalty>
5.97683

> <r_epik_Ionization_Penalty_Charging>
5.90424

> <r_epik_Ionization_Penalty_Neutral>
0.0725937

> <r_epik_State_Penalty>
5.9092

> <r_epik_Charging_Adjusted_Penalty>
11.8134

> <i_epik_Tot_Q>
-1

> <i_epik_Tot_abs_Q>
1

> <r_epik_Metal_State_Penalty>
1.87112

> <b_epik_Metal_Only>
1

> <s_lp_Force_Field>
OPLS_2005

> <r_lp_Energy>
14.5027

> <b_lp_Chiralities_Consistent>
1

> <s_lp_Variant>
AV-unprocessed.smi:340-2

> <Gold.Version>
5.8.1

> <Gold.Id.Protein>
6NUR|6NUR_protein|mol2

> <Gold.PLP.Fitness>
40.2417

> <Gold.PLP.PLP>
-31.8836

> <Gold.PLP.part.hbond>
-2.0000

> <Gold.PLP.part.metal>
0.0000

> <Gold.PLP.part.buried>
-6.1425

> <Gold.PLP.part.nonpolar>
-24.5780

> <Gold.PLP.part.repulsive>
0.1308

> <Gold.PLP.ligand.clash>
0.0000

> <Gold.PLP.ligand.torsion>
0.8589

> <Gold.PLP.Chemscore.Hbond>
3.0000

> <Gold.PLP.Chemscore.CHOScore>
0.0000

> <Gold.PLP.Chemscore.Metal>
0.0000

> <Gold.Chemscore.Hbonds>
donor molecule, donor type, donor heavy atom, donor atom, acceptor molecule, acceptor atom, score
      P1  H  6896  6908       L1     5  1.50
      P1  H 10752 10763       L1     4  0.98

> <Gold.PLP.Chemscore.Internal.Correction>
1.0759

> <Gold.Rescore>
     Score         DG    S(hbond)    S(metal)    S(lipo)     H(rot)  DE(clash)    DE(int)     intcor
     15.62     -17.64       1.93        0.00      82.79       1.54       0.00       2.02       ----

> <Gold.Chemscore.Fitness>
15.6215

> <Gold.Chemscore.DG>
-17.6431

> <Gold.Chemscore.ZeroCoef>
-5.4800

> <Gold.Chemscore.Hbond>
1.9257

> <Gold.Chemscore.Metal>
0.0000

> <Gold.Chemscore.Lipo>
82.7853

> <Gold.Chemscore.Internal_Hbond>
0.0000

> <Gold.Chemscore.DEClash>
0.0021

> <Gold.Chemscore.DEInternal>
2.0194

> <Gold.Chemscore.Rot>
1.5448

> <Gold.Chemscore.Internal.Correction>
   9.000000E+99

> <Gold.Chemscore.Hbonds>
donor molecule, donor type, donor heavy atom, donor atom, acceptor molecule, acceptor atom, score
      P1  H  6896  6908       L1     5  0.66
      P1  H 10752 10763       L1     4  0.90

> <Gold.Chemscore.Hbond.Weighted>
-6.4317

> <Gold.Chemscore.Metal.Weighted>
-0.0000

> <Gold.Chemscore.Lipo.Weighted>
-9.6859

> <Gold.Chemscore.Internal_Hbond.Weighted>
0.0000

> <Gold.Chemscore.DEClash.Weighted>
0.0021

> <Gold.Chemscore.DEInternal.Weighted>
2.0194

> <Gold.Chemscore.Rot.Weighted>
3.9546

> <Gold.Chemscore.Internal.Correction.Weighted>
   9.000000E+99

> <Gold.Protein.RotatedTorsions>
[ 6907 6896 6895 6894 ] final  -55.55 input  -60.11 | X-H torsion
[ 7974 7965 7964 7962 ] final  150.22 input  175.53 | X-H torsion
[ 8008 7997 7996 7995 ] final -120.92 input   59.86 | X-H torsion
[ 10167 10162 10161 10158 ] final -166.20 input  -65.29 | X-H torsion
[ 10718 10713 10712 10709 ] final  -40.62 input   66.30 | X-H torsion
[ 10763 10752 10751 10750 ] final  150.93 input  -60.55 | X-H torsion
[ 11005 11000 10999 10996 ] final -149.64 input  -57.11 | X-H torsion

> <Gold.Protein.ActiveResidues>
 VAL166  LYS551  ARG553  GLY616  TRP617  ASP618  TYR619  PRO620  LYS621  CYS622 
 ASP623  PHE694  ASN695  SER759  ASP760  ASP761  ALA762  ILE779  LEU786  VAL792 
 PHE793  MET794  SER795  GLU796  ALA797  LYS798  CYS799  TRP800  GLU811  SER814 

> <Gold.Protein.RotatedAtoms>
  150.8242  134.7465  159.6798 H   0  0  0  0  0  0  0  0  0  0  0  0  # atno 6907 bound_to 6896
  152.4355  134.5692  159.9926 H   0  0  0  0  0  0  0  0  0  0  0  0  # atno 6908 bound_to 6896
  151.5869  133.3333  159.3055 H   0  0  0  0  0  0  0  0  0  0  0  0  # atno 6909 bound_to 6896
  144.8380  139.6381  143.6029 H   0  0  0  0  0  0  0  0  0  0  0  0  # atno 7974 bound_to 7965
  155.1396  140.0401  157.2795 H   0  0  0  0  0  0  0  0  0  0  0  0  # atno 8008 bound_to 7997
  154.6483  140.2563  155.7217 H   0  0  0  0  0  0  0  0  0  0  0  0  # atno 8009 bound_to 7997
  156.2565  140.2841  156.0906 H   0  0  0  0  0  0  0  0  0  0  0  0  # atno 8010 bound_to 7997
  139.6131  144.0775  152.1861 H   0  0  0  0  0  0  0  0  0  0  0  0  # atno 10167 bound_to 10162
  156.2793  130.4215  149.8354 H   0  0  0  0  0  0  0  0  0  0  0  0  # atno 10718 bound_to 10713
  154.0955  135.2849  155.3262 H   0  0  0  0  0  0  0  0  0  0  0  0  # atno 10763 bound_to 10752
  154.6591  135.5341  153.7998 H   0  0  0  0  0  0  0  0  0  0  0  0  # atno 10764 bound_to 10752
  153.0398  135.6529  154.1122 H   0  0  0  0  0  0  0  0  0  0  0  0  # atno 10765 bound_to 10752
  140.7486  134.3432  157.5131 H   0  0  0  0  0  0  0  0  0  0  0  0  # atno 11005 bound_to 11000
  146.2676  139.6557  142.9318 LP  0  0  0  0  0  0  0  0  0  0  0  0  # atno 17320 bound_to 7965
  145.4754  141.0437  143.2675 LP  0  0  0  0  0  0  0  0  0  0  0  0  # atno 17321 bound_to 7965
  140.0398  144.6016  150.7420 LP  0  0  0  0  0  0  0  0  0  0  0  0  # atno 17342 bound_to 10162
  140.7332  143.2715  151.3874 LP  0  0  0  0  0  0  0  0  0  0  0  0  # atno 17343 bound_to 10162
  156.5807  130.8464  151.3382 LP  0  0  0  0  0  0  0  0  0  0  0  0  # atno 17370 bound_to 10713
  157.7309  130.9693  150.1856 LP  0  0  0  0  0  0  0  0  0  0  0  0  # atno 17371 bound_to 10713
  139.8792  134.9127  156.3067 LP  0  0  0  0  0  0  0  0  0  0  0  0  # atno 17394 bound_to 11000
  140.9771  133.7290  156.0618 LP  0  0  0  0  0  0  0  0  0  0  0  0  # atno 17395 bound_to 11000

$$$$
