AV-unprocessed.smi:32|AV-procd|sdf|198|dock1
  -GOLD-   2262015463D 1   1.00000     0.00000
 Structure written by MMmdl.
 49 51  0  0  0  0  0  0  0  0  1 V2000
  152.9522  139.3916  157.3000 O   0  0  0  0  0  0  0  0  0  0  0  0
  151.7985  139.6715  156.9718 C   0  0  0  0  0  0  0  0  0  0  0  0
  150.9984  138.7406  156.0485 C   0  0  0  0  0  0  0  0  0  0  0  0
  150.3938  137.5933  156.7597 N   0  0  0  0  0  0  0  0  0  0  0  0
  150.6395  136.2887  156.2635 C   0  0  0  0  0  0  0  0  0  0  0  0
  151.3475  136.1060  155.2719 O   0  0  0  0  0  0  0  0  0  0  0  0
  149.9963  135.2041  156.9960 C   0  0  0  0  0  0  0  0  0  0  0  0
  150.1721  133.9336  156.5946 F   0  0  0  0  0  0  0  0  0  0  0  0
  149.2217  135.4560  158.0710 C   0  0  0  0  0  0  0  0  0  0  0  0
  148.9887  136.7349  158.5438 N   0  0  0  0  0  0  0  0  0  0  0  0
  148.0966  136.9856  159.7408 C   0  0  1  0  0  0  0  0  0  0  0  0
  146.7660  136.2446  159.5747 C   0  0  0  0  0  0  0  0  0  0  0  0
  147.0631  134.9236  160.2501 C   0  0  0  0  0  0  0  0  0  0  0  0
  147.9843  135.3564  161.3862 C   0  0  0  0  0  0  0  0  0  0  0  0
  148.7129  136.4782  160.8896 O   0  0  0  0  0  0  0  0  0  0  0  0
  149.5690  137.8398  157.8833 C   0  0  0  0  0  0  0  0  0  0  0  0
  149.3510  138.9895  158.2716 O   0  0  0  0  0  0  0  0  0  0  0  0
  151.1624  140.7873  157.3683 N   0  0  0  0  0  0  0  0  0  0  0  0
  151.6763  141.8515  158.2359 C   0  0  0  0  0  0  0  0  0  0  0  0
  152.0288  141.2803  159.6298 C   0  0  0  0  0  0  0  0  0  0  0  0
  152.9287  142.1742  160.4956 C   0  0  0  0  0  0  0  0  0  0  0  0
  152.3762  143.5824  160.7700 C   0  0  0  0  0  0  0  0  0  0  0  0
  152.4746  144.5049  159.5456 C   0  0  0  0  0  0  0  0  0  0  0  0
  151.2992  144.4225  158.5564 C   0  0  0  0  0  0  0  0  0  0  0  0
  150.6809  143.0334  158.3117 C   0  0  0  0  0  0  0  0  0  0  0  0
  150.2278  139.3181  155.5343 H   0  0  0  0  0  0  0  0  0  0  0  0
  151.6590  138.4110  155.2456 H   0  0  0  0  0  0  0  0  0  0  0  0
  148.7668  134.6125  158.5680 H   0  0  0  0  0  0  0  0  0  0  0  0
  147.9973  138.0695  159.8218 H   0  0  0  0  0  0  0  0  0  0  0  0
  145.9940  136.7880  160.1209 H   0  0  0  0  0  0  0  0  0  0  0  0
  146.4648  136.1540  158.5305 H   0  0  0  0  0  0  0  0  0  0  0  0
  146.1678  134.4085  160.5992 H   0  0  0  0  0  0  0  0  0  0  0  0
  147.5923  134.2609  159.5645 H   0  0  0  0  0  0  0  0  0  0  0  0
  147.3976  135.6768  162.2482 H   0  0  0  0  0  0  0  0  0  0  0  0
  148.6526  134.5580  161.7091 H   0  0  0  0  0  0  0  0  0  0  0  0
  150.2172  140.9130  157.0361 H   0  0  0  0  0  0  0  0  0  0  0  0
  152.5916  142.1911  157.7500 H   0  0  0  0  0  0  0  0  0  0  0  0
  151.1165  141.0546  160.1831 H   0  0  0  0  0  0  0  0  0  0  0  0
  152.5392  140.3243  159.5041 H   0  0  0  0  0  0  0  0  0  0  0  0
  153.0828  141.6714  161.4509 H   0  0  0  0  0  0  0  0  0  0  0  0
  153.9176  142.2475  160.0415 H   0  0  0  0  0  0  0  0  0  0  0  0
  151.3556  143.5407  161.1523 H   0  0  0  0  0  0  0  0  0  0  0  0
  152.9762  144.0208  161.5682 H   0  0  0  0  0  0  0  0  0  0  0  0
  152.5514  145.5377  159.8870 H   0  0  0  0  0  0  0  0  0  0  0  0
  153.4094  144.3094  159.0187 H   0  0  0  0  0  0  0  0  0  0  0  0
  150.5041  145.0875  158.8950 H   0  0  0  0  0  0  0  0  0  0  0  0
  151.6332  144.8338  157.6033 H   0  0  0  0  0  0  0  0  0  0  0  0
  150.1086  143.0960  157.3849 H   0  0  0  0  0  0  0  0  0  0  0  0
  149.9423  142.8317  159.0885 H   0  0  0  0  0  0  0  0  0  0  0  0
  1  2  2  0  0  0  0
  2  3  1  0  0  0  0
  2 18  1  0  0  0  0
  3  4  1  0  0  0  0
  3 26  1  0  0  0  0
  3 27  1  0  0  0  0
  4 16  1  0  0  0  0
  4  5  1  0  0  0  0
  5  6  2  0  0  0  0
  5  7  1  0  0  0  0
  7  8  1  0  0  0  0
  7  9  2  0  0  0  0
  9 10  1  0  0  0  0
  9 28  1  0  0  0  0
 10 11  1  0  0  0  0
 10 16  1  0  0  0  0
 11 15  1  0  0  0  0
 11 12  1  0  0  0  0
 11 29  1  0  0  0  0
 12 13  1  0  0  0  0
 12 30  1  0  0  0  0
 12 31  1  0  0  0  0
 13 14  1  0  0  0  0
 13 32  1  0  0  0  0
 13 33  1  0  0  0  0
 14 15  1  0  0  0  0
 14 34  1  0  0  0  0
 14 35  1  0  0  0  0
 16 17  2  0  0  0  0
 18 19  1  0  0  0  0
 18 36  1  0  0  0  0
 19 25  1  0  0  0  0
 19 20  1  0  0  0  0
 19 37  1  0  0  0  0
 20 21  1  0  0  0  0
 20 38  1  0  0  0  0
 20 39  1  0  0  0  0
 21 22  1  0  0  0  0
 21 40  1  0  0  0  0
 21 41  1  0  0  0  0
 22 23  1  0  0  0  0
 22 42  1  0  0  0  0
 22 43  1  0  0  0  0
 23 24  1  0  0  0  0
 23 44  1  0  0  0  0
 23 45  1  0  0  0  0
 24 25  1  0  0  0  0
 24 46  1  0  0  0  0
 24 47  1  0  0  0  0
 25 48  1  0  0  0  0
 25 49  1  0  0  0  0
M  END
> <s_m_source_file>
AV-unprocessed.smi

> <i_m_source_file_index>
32

> <i_lp_mmshare_version>
43012

> <i_f3d_flags>
0

> <s_epik_input>
W0NIMl0xW0NIMl1bQ0gyXVtDSDJdW0NIMl1bQ0gyXVtDSF0xW05IXUMoPU8pW0NIMl1uMmMoPU8pYyhGKVtjSF1uKGMyPU8pW0NAQEhdM1tDSDJdW0NIMl1bQ0gyXU8z

> <s_epik_cmdline>
J2VwaWtfcHl0aG9uJywgJy1waCcsICc3LjAnLCAnLXRuJywgJzgnLCAnLW1hJywgJzIwMCcsICctbWV0YWxfYmluZGluZycsICctaW1hZScsICc8aW5maWxlLm1hZT4nLCAnLW9tYWUnLCAnPG91dGZpbGUubWFlPic=

> <r_lp_tautomer_probability>
1

> <r_epik_Ionization_Penalty>
2.43741e-08

> <r_epik_Ionization_Penalty_Charging>
4.15308e-09

> <r_epik_Ionization_Penalty_Neutral>
2.0221e-08

> <r_epik_State_Penalty>
-0

> <r_epik_Charging_Adjusted_Penalty>
4.15308e-09

> <i_epik_Tot_Q>
0

> <i_epik_Tot_abs_Q>
0

> <r_epik_Metal_State_Penalty>
-0

> <b_epik_Metal_Only>
0

> <s_epik_Chemistry_Notes>
This compound contains an acetal/aminal-like group ( X-CH(R)-Y where X, Y are N, S, or O) that may be acid/base labile, releasing an aldehyde.

> <s_lp_Force_Field>
OPLS_2005

> <r_lp_Energy>
36.3437

> <b_lp_Chiralities_Consistent>
1

> <s_lp_Variant>
AV-unprocessed.smi:32-2

> <Gold.Version>
5.8.1

> <Gold.Id.Protein>
6NUR|6NUR_protein|mol2

> <Gold.PLP.Fitness>
47.0373

> <Gold.PLP.PLP>
-39.2118

> <Gold.PLP.part.hbond>
-2.9808

> <Gold.PLP.part.metal>
0.0000

> <Gold.PLP.part.buried>
-6.2761

> <Gold.PLP.part.nonpolar>
-30.3890

> <Gold.PLP.part.repulsive>
0.1971

> <Gold.PLP.ligand.clash>
0.0000

> <Gold.PLP.ligand.torsion>
0.5017

> <Gold.PLP.Chemscore.Hbond>
2.9280

> <Gold.PLP.Chemscore.CHOScore>
0.0000

> <Gold.PLP.Chemscore.Metal>
0.0000

> <Gold.Chemscore.Hbonds>
donor molecule, donor type, donor heavy atom, donor atom, acceptor molecule, acceptor atom, score
      P1  H  6931  6943       L1    15  0.93
      P1  H  7997  8010       L1     1  1.00
      P1  H 10752 10763       L1     6  1.00

> <Gold.PLP.Chemscore.Internal.Correction>
0.0450

> <Gold.Rescore>
     Score         DG    S(hbond)    S(metal)    S(lipo)     H(rot)  DE(clash)    DE(int)     intcor
     20.44     -22.20       2.83        0.00     102.01       1.82       0.03       1.74       ----

> <Gold.Chemscore.Fitness>
20.4385

> <Gold.Chemscore.DG>
-22.2050

> <Gold.Chemscore.ZeroCoef>
-5.4800

> <Gold.Chemscore.Hbond>
2.8326

> <Gold.Chemscore.Metal>
0.0000

> <Gold.Chemscore.Lipo>
102.0120

> <Gold.Chemscore.Internal_Hbond>
0.0000

> <Gold.Chemscore.DEClash>
0.0274

> <Gold.Chemscore.DEInternal>
1.7390

> <Gold.Chemscore.Rot>
1.8248

> <Gold.Chemscore.Internal.Correction>
   9.000000E+99

> <Gold.Chemscore.Hbonds>
donor molecule, donor type, donor heavy atom, donor atom, acceptor molecule, acceptor atom, score
      P1  H  6931  6943       L1    15  0.22
      P1  H  7997  8010       L1     1  0.99
      P1  H 10752 10763       L1     6  0.99

> <Gold.Chemscore.Hbond.Weighted>
-9.4610

> <Gold.Chemscore.Metal.Weighted>
-0.0000

> <Gold.Chemscore.Lipo.Weighted>
-11.9354

> <Gold.Chemscore.Internal_Hbond.Weighted>
0.0000

> <Gold.Chemscore.DEClash.Weighted>
0.0274

> <Gold.Chemscore.DEInternal.Weighted>
1.7390

> <Gold.Chemscore.Rot.Weighted>
4.6714

> <Gold.Chemscore.Internal.Correction.Weighted>
   9.000000E+99

> <Gold.Protein.RotatedTorsions>
[ 6907 6896 6895 6894 ] final   11.78 input  -60.11 | X-H torsion
[ 7974 7965 7964 7962 ] final   24.65 input  175.53 | X-H torsion
[ 8008 7997 7996 7995 ] final   65.92 input   59.86 | X-H torsion
[ 10167 10162 10161 10158 ] final -168.56 input  -65.29 | X-H torsion
[ 10718 10713 10712 10709 ] final  139.89 input   66.30 | X-H torsion
[ 10763 10752 10751 10750 ] final   51.34 input  -60.55 | X-H torsion
[ 11005 11000 10999 10996 ] final -147.48 input  -57.11 | X-H torsion

> <Gold.Protein.ActiveResidues>
 VAL166  LYS551  ARG553  GLY616  TRP617  ASP618  TYR619  PRO620  LYS621  CYS622 
 ASP623  PHE694  ASN695  SER759  ASP760  ASP761  ALA762  ILE779  LEU786  VAL792 
 PHE793  MET794  SER795  GLU796  ALA797  LYS798  CYS799  TRP800  GLU811  SER814 

> <Gold.Protein.RotatedAtoms>
  151.7598  135.0813  160.0343 H   0  0  0  0  0  0  0  0  0  0  0  0  # atno 6907 bound_to 6896
  152.3361  133.6009  159.5852 H   0  0  0  0  0  0  0  0  0  0  0  0  # atno 6908 bound_to 6896
  150.7451  133.9710  159.3587 H   0  0  0  0  0  0  0  0  0  0  0  0  # atno 6909 bound_to 6896
  146.1927  139.7575  142.8820 H   0  0  0  0  0  0  0  0  0  0  0  0  # atno 7974 bound_to 7965
  155.6692  140.3497  155.4812 H   0  0  0  0  0  0  0  0  0  0  0  0  # atno 8008 bound_to 7997
  155.9703  140.1154  157.0841 H   0  0  0  0  0  0  0  0  0  0  0  0  # atno 8009 bound_to 7997
  154.4164  140.1158  156.5283 H   0  0  0  0  0  0  0  0  0  0  0  0  # atno 8010 bound_to 7997
  139.5978  144.1075  152.1708 H   0  0  0  0  0  0  0  0  0  0  0  0  # atno 10167 bound_to 10162
  157.4094  131.1026  151.0470 H   0  0  0  0  0  0  0  0  0  0  0  0  # atno 10718 bound_to 10713
  152.9785  135.5849  154.4399 H   0  0  0  0  0  0  0  0  0  0  0  0  # atno 10763 bound_to 10752
  154.4001  135.2768  155.2103 H   0  0  0  0  0  0  0  0  0  0  0  0  # atno 10764 bound_to 10752
  154.3938  135.6119  153.5912 H   0  0  0  0  0  0  0  0  0  0  0  0  # atno 10765 bound_to 10752
  140.7712  134.3187  157.5074 H   0  0  0  0  0  0  0  0  0  0  0  0  # atno 11005 bound_to 11000
  145.3742  141.0348  143.3214 LP  0  0  0  0  0  0  0  0  0  0  0  0  # atno 17320 bound_to 7965
  144.8518  139.5310  143.6853 LP  0  0  0  0  0  0  0  0  0  0  0  0  # atno 17321 bound_to 7965
  140.0664  144.5814  150.7224 LP  0  0  0  0  0  0  0  0  0  0  0  0  # atno 17342 bound_to 10162
  140.7225  143.2603  151.4229 LP  0  0  0  0  0  0  0  0  0  0  0  0  # atno 17343 bound_to 10162
  157.1440  130.6155  149.5563 LP  0  0  0  0  0  0  0  0  0  0  0  0  # atno 17370 bound_to 10713
  155.9846  130.4871  150.6991 LP  0  0  0  0  0  0  0  0  0  0  0  0  # atno 17371 bound_to 10713
  139.8755  134.9262  156.3393 LP  0  0  0  0  0  0  0  0  0  0  0  0  # atno 17394 bound_to 11000
  140.9572  133.7412  156.0352 LP  0  0  0  0  0  0  0  0  0  0  0  0  # atno 17395 bound_to 11000

$$$$
