AV-unprocessed.smi:922|AV-procd|sdf|4176|dock3
  -GOLD-   22720 2 83D 1   1.00000     0.00000
 Structure written by MMmdl.
 33 34  0  0  0  0  0  0  0  0  1 V2000
  152.1467  141.9282  158.4154 C   0  0  0  0  0  0  0  0  0  0  0  0
  151.3338  141.0596  157.4502 C   0  0  1  0  0  0  0  0  0  0  0  0
  150.5673  141.9105  156.4205 C   0  0  0  0  0  0  0  0  0  0  0  0
  149.8997  141.0540  155.4490 N   0  0  0  0  0  0  0  0  0  0  0  0
  148.5429  141.1079  155.1259 C   0  0  0  0  0  0  0  0  0  0  0  0
  148.1170  140.8711  153.7503 C   0  0  0  0  0  0  0  0  0  0  0  0
  146.8846  140.9055  153.3755 N   0  0  0  0  0  0  0  0  0  0  0  0
  145.9260  141.1803  154.3168 N   0  0  0  0  0  0  0  0  0  0  0  0
  146.1333  141.4198  155.6322 C   0  0  0  0  0  0  0  0  0  0  0  0
  145.1966  141.6526  156.3941 O   0  0  0  0  0  0  0  0  0  0  0  0
  147.5487  141.3694  156.0287 C   0  0  0  0  0  0  0  0  0  0  0  0
  147.8774  141.6040  157.7130 Cl  0  0  0  0  0  0  0  0  0  0  0  0
  150.8620  140.1944  154.7686 C   0  0  0  0  0  0  0  0  0  0  0  0
  151.6520  139.3335  155.7810 C   0  0  0  0  0  0  0  0  0  0  0  0
  150.7659  138.2538  156.4385 C   0  0  0  0  0  0  0  0  0  0  0  0
  152.8343  138.6541  155.0731 C   0  0  0  0  0  0  0  0  0  0  0  0
  152.2389  140.1909  156.7672 O   0  0  0  0  0  0  0  0  0  0  0  0
  144.9830  141.1952  153.9554 H   0  0  0  0  0  0  0  0  0  0  0  0
  151.4989  142.6035  158.9750 H   0  0  0  0  0  0  0  0  0  0  0  0
  152.8799  142.5327  157.8808 H   0  0  0  0  0  0  0  0  0  0  0  0
  152.6844  141.3111  159.1355 H   0  0  0  0  0  0  0  0  0  0  0  0
  150.6372  140.4664  158.0412 H   0  0  0  0  0  0  0  0  0  0  0  0
  149.8518  142.5673  156.9149 H   0  0  0  0  0  0  0  0  0  0  0  0
  151.2598  142.5628  155.8871 H   0  0  0  0  0  0  0  0  0  0  0  0
  148.9163  140.6636  153.0387 H   0  0  0  0  0  0  0  0  0  0  0  0
  150.3604  139.5457  154.0497 H   0  0  0  0  0  0  0  0  0  0  0  0
  151.5425  140.8267  154.1966 H   0  0  0  0  0  0  0  0  0  0  0  0
  150.4118  137.5371  155.6972 H   0  0  0  0  0  0  0  0  0  0  0  0
  149.8820  138.6727  156.9183 H   0  0  0  0  0  0  0  0  0  0  0  0
  151.3204  137.6985  157.1954 H   0  0  0  0  0  0  0  0  0  0  0  0
  152.4929  137.9847  154.2827 H   0  0  0  0  0  0  0  0  0  0  0  0
  153.4281  138.0650  155.7731 H   0  0  0  0  0  0  0  0  0  0  0  0
  153.4988  139.3901  154.6194 H   0  0  0  0  0  0  0  0  0  0  0  0
  1  2  1  0  0  0  0
  1 19  1  0  0  0  0
  1 20  1  0  0  0  0
  1 21  1  0  0  0  0
  2 17  1  0  0  0  0
  2  3  1  0  0  0  0
  2 22  1  0  0  0  0
  3  4  1  0  0  0  0
  3 23  1  0  0  0  0
  3 24  1  0  0  0  0
  4  5  1  0  0  0  0
  4 13  1  0  0  0  0
  5 11  2  0  0  0  0
  5  6  1  0  0  0  0
  6  7  2  0  0  0  0
  6 25  1  0  0  0  0
  7  8  1  0  0  0  0
  8 18  1  0  0  0  0
  8  9  1  0  0  0  0
  9 10  2  0  0  0  0
  9 11  1  0  0  0  0
 11 12  1  0  0  0  0
 13 14  1  0  0  0  0
 13 26  1  0  0  0  0
 13 27  1  0  0  0  0
 14 15  1  0  0  0  0
 14 16  1  0  0  0  0
 14 17  1  0  0  0  0
 15 28  1  0  0  0  0
 15 29  1  0  0  0  0
 15 30  1  0  0  0  0
 16 31  1  0  0  0  0
 16 32  1  0  0  0  0
 16 33  1  0  0  0  0
M  END
> <s_m_source_file>
AV-unprocessed.smi

> <i_m_source_file_index>
922

> <i_lp_mmshare_version>
43012

> <i_f3d_flags>
0

> <s_epik_input>
W0NIM11bQ0BASF0oTzEpW0NIMl1OKFtDSDJdQzEoW0NIM10pW0NIM10pYzJbY0hdbltuSF1jKD1PKWMyQ2w=

> <s_epik_cmdline>
J2VwaWtfcHl0aG9uJywgJy1waCcsICc3LjAnLCAnLXRuJywgJzgnLCAnLW1hJywgJzIwMCcsICctbWV0YWxfYmluZGluZycsICctaW1hZScsICc8aW5maWxlLm1hZT4nLCAnLW9tYWUnLCAnPG91dGZpbGUubWFlPic=

> <r_lp_tautomer_probability>
0.986175

> <r_epik_Ionization_Penalty>
0.00909695

> <r_epik_Ionization_Penalty_Charging>
0.00909694

> <r_epik_Ionization_Penalty_Neutral>
4.87729e-09

> <r_epik_State_Penalty>
1.54226

> <r_epik_Charging_Adjusted_Penalty>
1.55136

> <i_epik_Tot_Q>
0

> <i_epik_Tot_abs_Q>
0

> <r_epik_Metal_State_Penalty>
3.93934

> <b_epik_Metal_Only>
0

> <s_lp_Force_Field>
OPLS_2005

> <r_lp_Energy>
35.5656

> <b_lp_Chiralities_Consistent>
1

> <s_lp_Variant>
AV-unprocessed.smi:922-4

> <Gold.Version>
5.8.1

> <Gold.Id.Protein>
6NUR|6NUR_protein|mol2

> <Gold.PLP.Fitness>
32.8598

> <Gold.PLP.PLP>
-24.8939

> <Gold.PLP.part.hbond>
-1.9219

> <Gold.PLP.part.metal>
0.0000

> <Gold.PLP.part.buried>
0.7332

> <Gold.PLP.part.nonpolar>
-24.5390

> <Gold.PLP.part.repulsive>
0.2237

> <Gold.PLP.ligand.clash>
0.0000

> <Gold.PLP.ligand.torsion>
0.4672

> <Gold.PLP.Chemscore.Hbond>
1.6553

> <Gold.PLP.Chemscore.CHOScore>
1.0000

> <Gold.PLP.Chemscore.Metal>
0.0000

> <Gold.Chemscore.Hbonds>
donor molecule, donor type, donor heavy atom, donor atom, acceptor molecule, acceptor atom, score
      L1  H     8    18       P1 10175  0.83
      P1  H  7997  8008       L1    17  0.78
      L1  C     6    25       P1  7957  1.00

> <Gold.PLP.Chemscore.Internal.Correction>
0.9344

> <Gold.Rescore>
     Score         DG    S(hbond)    S(metal)    S(lipo)     H(rot)  DE(clash)    DE(int)     intcor
     15.11     -16.67       1.09        0.00      64.49       0.00       0.03       1.53       ----

> <Gold.Chemscore.Fitness>
15.1104

> <Gold.Chemscore.DG>
-16.6710

> <Gold.Chemscore.ZeroCoef>
-5.4800

> <Gold.Chemscore.Hbond>
1.0915

> <Gold.Chemscore.Metal>
0.0000

> <Gold.Chemscore.Lipo>
64.4915

> <Gold.Chemscore.Internal_Hbond>
0.0000

> <Gold.Chemscore.DEClash>
0.0341

> <Gold.Chemscore.DEInternal>
1.5265

> <Gold.Chemscore.Rot>
0.0000

> <Gold.Chemscore.Internal.Correction>
   9.000000E+99

> <Gold.Chemscore.Hbonds>
donor molecule, donor type, donor heavy atom, donor atom, acceptor molecule, acceptor atom, score
      L1  H     8    18       P1 10175  0.51
      P1  H  7997  8008       L1    17  0.49

> <Gold.Chemscore.Hbond.Weighted>
-3.6455

> <Gold.Chemscore.Metal.Weighted>
-0.0000

> <Gold.Chemscore.Lipo.Weighted>
-7.5455

> <Gold.Chemscore.Internal_Hbond.Weighted>
0.0000

> <Gold.Chemscore.DEClash.Weighted>
0.0341

> <Gold.Chemscore.DEInternal.Weighted>
1.5265

> <Gold.Chemscore.Rot.Weighted>
0.0000

> <Gold.Chemscore.Internal.Correction.Weighted>
   9.000000E+99

> <Gold.Protein.RotatedTorsions>
[ 6907 6896 6895 6894 ] final  117.95 input  -60.11 | X-H torsion
[ 7974 7965 7964 7962 ] final  -57.57 input  175.53 | X-H torsion
[ 8008 7997 7996 7995 ] final  -54.16 input   59.86 | X-H torsion
[ 10167 10162 10161 10158 ] final -124.34 input  -65.29 | X-H torsion
[ 10718 10713 10712 10709 ] final   -5.08 input   66.30 | X-H torsion
[ 10763 10752 10751 10750 ] final -145.31 input  -60.55 | X-H torsion
[ 11005 11000 10999 10996 ] final -102.28 input  -57.11 | X-H torsion

> <Gold.Protein.ActiveResidues>
 VAL166  LYS551  ARG553  GLY616  TRP617  ASP618  TYR619  PRO620  LYS621  CYS622 
 ASP623  PHE694  ASN695  SER759  ASP760  ASP761  ALA762  ILE779  LEU786  VAL792 
 PHE793  MET794  SER795  GLU796  ALA797  LYS798  CYS799  TRP800  GLU811  SER814 

> <Gold.Protein.RotatedAtoms>
  152.4577  133.7757  159.6822 H   0  0  0  0  0  0  0  0  0  0  0  0  # atno 6907 bound_to 6896
  150.8509  133.7779  159.3032 H   0  0  0  0  0  0  0  0  0  0  0  0  # atno 6908 bound_to 6896
  151.5374  135.1071  159.9970 H   0  0  0  0  0  0  0  0  0  0  0  0  # atno 6909 bound_to 6896
  145.8495  140.8362  142.9993 H   0  0  0  0  0  0  0  0  0  0  0  0  # atno 7974 bound_to 7965
  154.4154  140.1183  156.5270 H   0  0  0  0  0  0  0  0  0  0  0  0  # atno 8008 bound_to 7997
  155.6644  140.3496  155.4775 H   0  0  0  0  0  0  0  0  0  0  0  0  # atno 8009 bound_to 7997
  155.9686  140.1137  157.0822 H   0  0  0  0  0  0  0  0  0  0  0  0  # atno 8010 bound_to 7997
  139.9938  143.5612  152.2331 H   0  0  0  0  0  0  0  0  0  0  0  0  # atno 10167 bound_to 10162
  156.7518  130.5242  149.5802 H   0  0  0  0  0  0  0  0  0  0  0  0  # atno 10718 bound_to 10713
  154.8389  135.3416  154.6485 H   0  0  0  0  0  0  0  0  0  0  0  0  # atno 10763 bound_to 10752
  153.7097  135.6964  153.5045 H   0  0  0  0  0  0  0  0  0  0  0  0  # atno 10764 bound_to 10752
  153.2461  135.4369  155.0702 H   0  0  0  0  0  0  0  0  0  0  0  0  # atno 10765 bound_to 10752
  141.1196  133.8545  157.1339 H   0  0  0  0  0  0  0  0  0  0  0  0  # atno 11005 bound_to 11000
  144.6730  140.0932  143.7464 LP  0  0  0  0  0  0  0  0  0  0  0  0  # atno 17320 bound_to 7965
  145.9374  139.2646  143.1289 LP  0  0  0  0  0  0  0  0  0  0  0  0  # atno 17321 bound_to 7965
  139.6321  144.7645  151.2515 LP  0  0  0  0  0  0  0  0  0  0  0  0  # atno 17342 bound_to 10162
  140.7445  143.6462  150.8290 LP  0  0  0  0  0  0  0  0  0  0  0  0  # atno 17343 bound_to 10162
  156.1396  130.6235  151.0449 LP  0  0  0  0  0  0  0  0  0  0  0  0  # atno 17370 bound_to 10713
  157.6774  131.0847  150.7460 LP  0  0  0  0  0  0  0  0  0  0  0  0  # atno 17371 bound_to 10713
  140.0143  134.9974  157.0460 LP  0  0  0  0  0  0  0  0  0  0  0  0  # atno 17394 bound_to 11000
  140.4547  134.1546  155.7185 LP  0  0  0  0  0  0  0  0  0  0  0  0  # atno 17395 bound_to 11000

$$$$
