AV-unprocessed.smi:739|AV-procd|sdf|3543|dock5
  -GOLD-   22720 0533D 1   1.00000     0.00000
 Structure written by MMmdl.
 32 34  0  0  0  0  0  0  0  0  1 V2000
  149.4952  142.1229  154.5764 O   0  0  0  0  0  0  0  0  0  0  0  0
  150.1862  141.4502  155.6089 C   0  0  1  0  0  0  0  0  0  0  0  0
  149.4821  141.7604  156.9447 C   0  0  0  0  0  0  0  0  0  0  0  0
  150.3899  142.3297  157.9254 N   0  0  0  0  0  0  0  0  0  0  0  0
  150.4352  143.6117  158.3354 C   0  0  0  0  0  0  0  0  0  0  0  0
  151.3575  143.9304  159.2391 N   0  0  0  0  0  0  0  0  0  0  0  0
  151.9848  142.7128  159.4400 C   0  0  0  0  0  0  0  0  0  0  0  0
  153.0648  142.3662  160.2829 C   0  0  0  0  0  0  0  0  0  0  0  0
  153.5469  141.0412  160.3189 C   0  0  0  0  0  0  0  0  0  0  0  0
  154.5838  140.7268  161.1311 F   0  0  0  0  0  0  0  0  0  0  0  0
  152.9562  140.0438  159.5147 C   0  0  0  0  0  0  0  0  0  0  0  0
  153.4268  138.7746  159.5533 F   0  0  0  0  0  0  0  0  0  0  0  0
  151.8768  140.3649  158.6700 C   0  0  0  0  0  0  0  0  0  0  0  0
  151.4006  141.6887  158.6349 C   0  0  0  0  0  0  0  0  0  0  0  0
  150.2969  139.9541  155.3482 C   0  0  0  0  0  0  0  0  0  0  0  0
  151.5683  139.3496  155.2433 C   0  0  0  0  0  0  0  0  0  0  0  0
  151.6797  137.9614  155.0341 C   0  0  0  0  0  0  0  0  0  0  0  0
  150.5205  137.1694  154.9270 C   0  0  0  0  0  0  0  0  0  0  0  0
  150.6277  135.8343  154.7289 F   0  0  0  0  0  0  0  0  0  0  0  0
  149.2495  137.7665  155.0286 C   0  0  0  0  0  0  0  0  0  0  0  0
  149.1375  139.1547  155.2387 C   0  0  0  0  0  0  0  0  0  0  0  0
  149.3110  143.0041  154.8643 H   0  0  0  0  0  0  0  0  0  0  0  0
  151.1907  141.8755  155.6318 H   0  0  0  0  0  0  0  0  0  0  0  0
  148.6747  142.4766  156.7848 H   0  0  0  0  0  0  0  0  0  0  0  0
  149.0234  140.8631  157.3622 H   0  0  0  0  0  0  0  0  0  0  0  0
  149.7543  144.3541  157.9451 H   0  0  0  0  0  0  0  0  0  0  0  0
  153.5255  143.1214  160.9022 H   0  0  0  0  0  0  0  0  0  0  0  0
  151.4248  139.6031  158.0525 H   0  0  0  0  0  0  0  0  0  0  0  0
  152.4634  139.9471  155.3350 H   0  0  0  0  0  0  0  0  0  0  0  0
  152.6550  137.5037  154.9593 H   0  0  0  0  0  0  0  0  0  0  0  0
  148.3598  137.1593  154.9495 H   0  0  0  0  0  0  0  0  0  0  0  0
  148.1579  139.6016  155.3257 H   0  0  0  0  0  0  0  0  0  0  0  0
  1  2  1  0  0  0  0
  1 22  1  0  0  0  0
  2  3  1  0  0  0  0
  2 15  1  0  0  0  0
  2 23  1  0  0  0  0
  3  4  1  0  0  0  0
  3 24  1  0  0  0  0
  3 25  1  0  0  0  0
  4 14  1  0  0  0  0
  4  5  1  0  0  0  0
  5  6  2  0  0  0  0
  5 26  1  0  0  0  0
  6  7  1  0  0  0  0
  7 14  2  0  0  0  0
  7  8  1  0  0  0  0
  8  9  2  0  0  0  0
  8 27  1  0  0  0  0
  9 10  1  0  0  0  0
  9 11  1  0  0  0  0
 11 12  1  0  0  0  0
 11 13  2  0  0  0  0
 13 14  1  0  0  0  0
 13 28  1  0  0  0  0
 15 21  1  0  0  0  0
 15 16  2  0  0  0  0
 16 17  1  0  0  0  0
 16 29  1  0  0  0  0
 17 18  2  0  0  0  0
 17 30  1  0  0  0  0
 18 19  1  0  0  0  0
 18 20  1  0  0  0  0
 20 21  2  0  0  0  0
 20 31  1  0  0  0  0
 21 32  1  0  0  0  0
M  END
> <s_m_source_file>
AV-unprocessed.smi

> <i_m_source_file_index>
739

> <i_lp_mmshare_version>
43012

> <i_f3d_flags>
0

> <s_epik_input>
W2NIXTFbY0hdYyhGKVtjSF1bY0hdYzFbQ0BIXShbT0hdKVtDSDJdbihbY0hdbjIpYyhjMjMpW2NIXWMoRiljKEYpW2NIXTM=

> <s_epik_cmdline>
J2VwaWtfcHl0aG9uJywgJy1waCcsICc3LjAnLCAnLXRuJywgJzgnLCAnLW1hJywgJzIwMCcsICctbWV0YWxfYmluZGluZycsICctaW1hZScsICc8aW5maWxlLm1hZT4nLCAnLW9tYWUnLCAnPG91dGZpbGUubWFlPic=

> <r_epik_Ionization_Penalty>
0.0156356

> <r_epik_Ionization_Penalty_Charging>
0

> <r_epik_Ionization_Penalty_Neutral>
0.0156356

> <r_epik_State_Penalty>
0.0122974

> <r_epik_Charging_Adjusted_Penalty>
0.0122974

> <i_epik_Tot_Q>
0

> <i_epik_Tot_abs_Q>
0

> <r_epik_Metal_State_Penalty>
1.24258e-05

> <b_epik_Metal_Only>
0

> <s_lp_Force_Field>
OPLS_2005

> <r_lp_Energy>
11.0695

> <b_lp_Chiralities_Consistent>
1

> <s_lp_Variant>
AV-unprocessed.smi:739-2

> <Gold.Version>
5.8.1

> <Gold.Id.Protein>
6NUR|6NUR_protein|mol2

> <Gold.PLP.Fitness>
47.7794

> <Gold.PLP.PLP>
-42.7248

> <Gold.PLP.part.hbond>
-2.5708

> <Gold.PLP.part.metal>
0.0000

> <Gold.PLP.part.buried>
-2.7671

> <Gold.PLP.part.nonpolar>
-37.3099

> <Gold.PLP.part.repulsive>
0.0609

> <Gold.PLP.ligand.clash>
0.0000

> <Gold.PLP.ligand.torsion>
0.8805

> <Gold.PLP.Chemscore.Hbond>
1.0884

> <Gold.PLP.Chemscore.CHOScore>
1.1788

> <Gold.PLP.Chemscore.Metal>
0.0000

> <Gold.Chemscore.Hbonds>
donor molecule, donor type, donor heavy atom, donor atom, acceptor molecule, acceptor atom, score
      L1  H     1    22       P1  8028  1.00
      P1  H  8011  8017       L1     1  0.10
      L1  C     5    26       P1  8028  0.68
      L1  C     5    26       P1  8029  0.48

> <Gold.PLP.Chemscore.Internal.Correction>
0.0141

> <Gold.Rescore>
     Score         DG    S(hbond)    S(metal)    S(lipo)     H(rot)  DE(clash)    DE(int)     intcor
     14.54     -15.42       1.02        0.00     101.17       2.07       0.11       0.78       ----

> <Gold.Chemscore.Fitness>
14.5357

> <Gold.Chemscore.DG>
-15.4210

> <Gold.Chemscore.ZeroCoef>
-5.4800

> <Gold.Chemscore.Hbond>
1.0190

> <Gold.Chemscore.Metal>
0.0000

> <Gold.Chemscore.Lipo>
101.1682

> <Gold.Chemscore.Internal_Hbond>
0.0000

> <Gold.Chemscore.DEClash>
0.1062

> <Gold.Chemscore.DEInternal>
0.7791

> <Gold.Chemscore.Rot>
2.0700

> <Gold.Chemscore.Internal.Correction>
   9.000000E+99

> <Gold.Chemscore.Hbonds>
donor molecule, donor type, donor heavy atom, donor atom, acceptor molecule, acceptor atom, score
      L1  H     1    22       P1  8028  1.00
      P1  H  8011  8017       L1     1  0.03

> <Gold.Chemscore.Hbond.Weighted>
-3.4035

> <Gold.Chemscore.Metal.Weighted>
-0.0000

> <Gold.Chemscore.Lipo.Weighted>
-11.8367

> <Gold.Chemscore.Internal_Hbond.Weighted>
0.0000

> <Gold.Chemscore.DEClash.Weighted>
0.1062

> <Gold.Chemscore.DEInternal.Weighted>
0.7791

> <Gold.Chemscore.Rot.Weighted>
5.2992

> <Gold.Chemscore.Internal.Correction.Weighted>
   9.000000E+99

> <Gold.Protein.RotatedTorsions>
[ 6907 6896 6895 6894 ] final   13.51 input  -60.11 | X-H torsion
[ 7974 7965 7964 7962 ] final    4.41 input  175.53 | X-H torsion
[ 8008 7997 7996 7995 ] final   82.69 input   59.86 | X-H torsion
[ 10167 10162 10161 10158 ] final  118.23 input  -65.29 | X-H torsion
[ 10718 10713 10712 10709 ] final  146.00 input   66.30 | X-H torsion
[ 10763 10752 10751 10750 ] final  -54.31 input  -60.55 | X-H torsion
[ 11005 11000 10999 10996 ] final  112.57 input  -57.11 | X-H torsion

> <Gold.Protein.ActiveResidues>
 VAL166  LYS551  ARG553  GLY616  TRP617  ASP618  TYR619  PRO620  LYS621  CYS622 
 ASP623  PHE694  ASN695  SER759  ASP760  ASP761  ALA762  ILE779  LEU786  VAL792 
 PHE793  MET794  SER795  GLU796  ALA797  LYS798  CYS799  TRP800  GLU811  SER814 

> <Gold.Protein.RotatedAtoms>
  151.7874  135.0745  160.0382 H   0  0  0  0  0  0  0  0  0  0  0  0  # atno 6907 bound_to 6896
  152.3181  133.5819  159.5734 H   0  0  0  0  0  0  0  0  0  0  0  0  # atno 6908 bound_to 6896
  150.7355  133.9969  159.3667 H   0  0  0  0  0  0  0  0  0  0  0  0  # atno 6909 bound_to 6896
  146.2444  140.0539  142.8373 H   0  0  0  0  0  0  0  0  0  0  0  0  # atno 7974 bound_to 7965
  155.9140  140.3425  155.6121 H   0  0  0  0  0  0  0  0  0  0  0  0  # atno 8008 bound_to 7997
  155.7353  140.0800  157.2289 H   0  0  0  0  0  0  0  0  0  0  0  0  # atno 8009 bound_to 7997
  154.4060  140.1580  156.2542 H   0  0  0  0  0  0  0  0  0  0  0  0  # atno 8010 bound_to 7997
  139.6125  144.7085  151.2811 H   0  0  0  0  0  0  0  0  0  0  0  0  # atno 10167 bound_to 10162
  157.3385  131.0932  151.1102 H   0  0  0  0  0  0  0  0  0  0  0  0  # atno 10718 bound_to 10713
  154.1728  135.6456  153.5014 H   0  0  0  0  0  0  0  0  0  0  0  0  # atno 10763 bound_to 10752
  153.0080  135.5387  154.6595 H   0  0  0  0  0  0  0  0  0  0  0  0  # atno 10764 bound_to 10752
  154.5939  135.2937  155.0579 H   0  0  0  0  0  0  0  0  0  0  0  0  # atno 10765 bound_to 10752
  139.8931  134.9532  156.6606 H   0  0  0  0  0  0  0  0  0  0  0  0  # atno 11005 bound_to 11000
  145.0960  140.9315  143.4741 LP  0  0  0  0  0  0  0  0  0  0  0  0  # atno 17320 bound_to 7965
  145.0721  139.3023  143.5826 LP  0  0  0  0  0  0  0  0  0  0  0  0  # atno 17321 bound_to 7965
  140.7329  143.6810  150.8001 LP  0  0  0  0  0  0  0  0  0  0  0  0  # atno 17342 bound_to 10162
  140.0407  143.5349  152.2719 LP  0  0  0  0  0  0  0  0  0  0  0  0  # atno 17343 bound_to 10162
  157.2323  130.6531  149.5855 LP  0  0  0  0  0  0  0  0  0  0  0  0  # atno 17370 bound_to 10713
  155.9704  130.4594  150.6037 LP  0  0  0  0  0  0  0  0  0  0  0  0  # atno 17371 bound_to 10713
  140.7450  133.8946  155.8305 LP  0  0  0  0  0  0  0  0  0  0  0  0  # atno 17394 bound_to 11000
  141.0047  134.1102  157.4282 LP  0  0  0  0  0  0  0  0  0  0  0  0  # atno 17395 bound_to 11000

$$$$
