AV-unprocessed.smi:215|AV-procd|sdf|1654|dock2
  -GOLD-   2262020 43D 1   1.00000     0.00000
 Structure written by MMmdl.
 59 62  0  0  0  0  0  0  0  0  2 V2000
  148.4004  135.2782  155.0435 C   0  0  0  0  0  0  0  0  0  0  0  0
  147.3617  136.4068  155.2030 C   0  0  2  0  0  0  0  0  0  0  0  0
  146.2732  136.4774  154.1147 C   0  0  2  0  0  0  0  0  0  0  0  0
  146.7004  136.0143  152.7557 N   0  3  1  0  0  0  0  0  0  0  0  0
  146.7284  134.5332  152.6667 C   0  0  0  0  0  0  0  0  0  0  0  0
  145.9943  136.6520  151.6070 C   0  0  0  0  0  0  0  0  0  0  0  0
  144.9446  135.7352  150.9534 C   0  0  0  0  0  0  0  0  0  0  0  0
  144.6764  136.1576  149.6332 O   0  0  0  0  0  0  0  0  0  0  0  0
  145.8047  137.9396  154.1782 C   0  0  0  0  0  0  0  0  0  0  0  0
  146.9932  138.7274  154.7450 C   0  0  0  0  0  0  0  0  0  0  0  0
  147.9360  137.7493  155.2769 N   0  0  0  0  0  0  0  0  0  0  0  0
  148.6898  138.1495  156.3343 C   0  0  0  0  0  0  0  0  0  0  0  0
  149.1313  137.2355  157.2384 N   0  0  0  0  0  0  0  0  0  0  0  0
  149.8658  137.6187  158.2864 C   0  0  0  0  0  0  0  0  0  0  0  0
  150.2729  138.8454  158.6147 N   0  0  0  0  0  0  0  0  0  0  0  0
  149.8404  139.7688  157.7094 C   0  0  0  0  0  0  0  0  0  0  0  0
  149.0451  139.5108  156.5566 C   0  0  0  0  0  0  0  0  0  0  0  0
  148.7942  140.7001  155.8819 N   0  0  0  0  0  0  0  0  0  0  0  0
  149.3986  141.6082  156.5990 C   0  0  0  0  0  0  0  0  0  0  0  0
  150.0782  141.1319  157.6974 N   0  0  0  0  0  0  0  0  0  0  0  0
  150.7989  141.9038  158.6670 C   0  0  0  0  0  0  0  0  0  0  0  0
  150.1900  143.1567  159.3014 C   0  0  0  0  0  0  0  0  0  0  0  0
  151.5964  143.7906  159.3844 C   0  0  0  0  0  0  0  0  0  0  0  0
  151.6643  145.2826  159.0189 C   0  0  0  0  0  0  0  0  0  0  0  0
  151.3070  146.0967  160.1173 O   0  0  0  0  0  0  0  0  0  0  0  0
  152.3441  143.5596  160.7132 C   0  0  0  0  0  0  0  0  0  0  0  0
  151.6162  144.0702  161.8120 O   0  0  0  0  0  0  0  0  0  0  0  0
  151.9583  142.8097  158.2466 C   0  0  0  0  0  0  0  0  0  0  0  0
  146.8389  136.2379  156.1458 H   0  0  0  0  0  0  0  0  0  0  0  0
  145.4600  135.8230  154.4330 H   0  0  0  0  0  0  0  0  0  0  0  0
  147.9089  134.3131  154.9179 H   0  0  0  0  0  0  0  0  0  0  0  0
  149.0457  135.1978  155.9174 H   0  0  0  0  0  0  0  0  0  0  0  0
  149.0468  135.4400  154.1821 H   0  0  0  0  0  0  0  0  0  0  0  0
  145.7208  134.1180  152.7022 H   0  0  0  0  0  0  0  0  0  0  0  0
  147.3007  134.1032  153.4892 H   0  0  0  0  0  0  0  0  0  0  0  0
  147.2041  134.1928  151.7485 H   0  0  0  0  0  0  0  0  0  0  0  0
  145.5188  137.5764  151.9365 H   0  0  0  0  0  0  0  0  0  0  0  0
  146.7054  136.9330  150.8323 H   0  0  0  0  0  0  0  0  0  0  0  0
  145.2463  134.6887  150.9538 H   0  0  0  0  0  0  0  0  0  0  0  0
  144.0143  135.7879  151.5199 H   0  0  0  0  0  0  0  0  0  0  0  0
  145.3844  135.8722  149.0751 H   0  0  0  0  0  0  0  0  0  0  0  0
  145.4469  138.3360  153.2279 H   0  0  0  0  0  0  0  0  0  0  0  0
  144.9746  138.0117  154.8818 H   0  0  0  0  0  0  0  0  0  0  0  0
  147.4825  139.2937  153.9523 H   0  0  0  0  0  0  0  0  0  0  0  0
  146.6656  139.4357  155.5076 H   0  0  0  0  0  0  0  0  0  0  0  0
  150.1728  136.8292  158.9566 H   0  0  0  0  0  0  0  0  0  0  0  0
  149.3719  142.6561  156.3372 H   0  0  0  0  0  0  0  0  0  0  0  0
  151.1199  141.1985  159.4351 H   0  0  0  0  0  0  0  0  0  0  0  0
  149.5255  143.6912  158.6195 H   0  0  0  0  0  0  0  0  0  0  0  0
  149.7062  142.9863  160.2637 H   0  0  0  0  0  0  0  0  0  0  0  0
  152.6583  145.5678  158.6736 H   0  0  0  0  0  0  0  0  0  0  0  0
  150.9808  145.5117  158.2010 H   0  0  0  0  0  0  0  0  0  0  0  0
  150.4517  146.4636  159.9525 H   0  0  0  0  0  0  0  0  0  0  0  0
  152.5383  142.5005  160.8835 H   0  0  0  0  0  0  0  0  0  0  0  0
  153.3193  144.0467  160.7069 H   0  0  0  0  0  0  0  0  0  0  0  0
  152.0874  144.8087  162.1666 H   0  0  0  0  0  0  0  0  0  0  0  0
  152.9419  142.3465  158.3286 H   0  0  0  0  0  0  0  0  0  0  0  0
  151.8123  143.2355  157.2521 H   0  0  0  0  0  0  0  0  0  0  0  0
  147.6637  136.3077  152.6738 H   0  0  0  0  0  0  0  0  0  0  0  0
  1  2  1  0  0  0  0
  1 31  1  0  0  0  0
  1 32  1  0  0  0  0
  1 33  1  0  0  0  0
  2 29  1  0  0  0  0
  2 11  1  0  0  0  0
  2  3  1  0  0  0  0
  3 30  1  0  0  0  0
  3  4  1  0  0  0  0
  3  9  1  0  0  0  0
  4  5  1  0  0  0  0
  4  6  1  0  0  0  0
  4 59  1  0  0  0  0
  5 34  1  0  0  0  0
  5 35  1  0  0  0  0
  5 36  1  0  0  0  0
  6  7  1  0  0  0  0
  6 37  1  0  0  0  0
  6 38  1  0  0  0  0
  7  8  1  0  0  0  0
  7 39  1  0  0  0  0
  7 40  1  0  0  0  0
  8 41  1  0  0  0  0
  9 10  1  0  0  0  0
  9 42  1  0  0  0  0
  9 43  1  0  0  0  0
 10 11  1  0  0  0  0
 10 44  1  0  0  0  0
 10 45  1  0  0  0  0
 11 12  1  0  0  0  0
 12 17  1  0  0  0  0
 12 13  2  0  0  0  0
 13 14  1  0  0  0  0
 14 15  2  0  0  0  0
 14 46  1  0  0  0  0
 15 16  1  0  0  0  0
 16 20  1  0  0  0  0
 16 17  2  0  0  0  0
 17 18  1  0  0  0  0
 18 19  2  0  0  0  0
 19 20  1  0  0  0  0
 19 47  1  0  0  0  0
 20 21  1  0  0  0  0
 21 28  1  0  0  0  0
 21 22  1  0  0  0  0
 21 48  1  0  0  0  0
 22 23  1  0  0  0  0
 22 49  1  0  0  0  0
 22 50  1  0  0  0  0
 23 24  1  0  0  0  0
 23 26  1  0  0  0  0
 23 28  1  0  0  0  0
 24 25  1  0  0  0  0
 24 51  1  0  0  0  0
 24 52  1  0  0  0  0
 25 53  1  0  0  0  0
 26 27  1  0  0  0  0
 26 54  1  0  0  0  0
 26 55  1  0  0  0  0
 27 56  1  0  0  0  0
 28 57  1  0  0  0  0
 28 58  1  0  0  0  0
M  CHG  1   4   1
M  END
> <s_m_source_file>
AV-unprocessed.smi

> <i_m_source_file_index>
215

> <i_lp_mmshare_version>
43012

> <i_f3d_flags>
0

> <s_epik_input>
W09IXVtDSDJdW0NIMl1OKFtDSDNdKVtDQEBIXShbQ0BIXTFbQ0gzXSlbQ0gyXVtDSDJdTjFjKG5bY0hdbjIpYyhjMjMpbltjSF1uM1tDSF0oW0NIMl00KVtDSDJdQzQoW0NIMl1bT0hdKVtDSDJdW09IXQ==

> <s_epik_cmdline>
J2VwaWtfcHl0aG9uJywgJy1waCcsICc3LjAnLCAnLXRuJywgJzgnLCAnLW1hJywgJzIwMCcsICctbWV0YWxfYmluZGluZycsICctaW1hZScsICc8aW5maWxlLm1hZT4nLCAnLW9tYWUnLCAnPG91dGZpbGUubWFlPic=

> <r_lp_tautomer_probability>
1

> <r_epik_Ionization_Penalty>
0.0036237

> <r_epik_Ionization_Penalty_Charging>
0.0032725

> <r_epik_Ionization_Penalty_Neutral>
0.000351196

> <r_epik_State_Penalty>
-0

> <r_epik_Charging_Adjusted_Penalty>
0.0032725

> <i_epik_Tot_Q>
1

> <i_epik_Tot_abs_Q>
1

> <r_epik_Metal_State_Penalty>
-0

> <b_epik_Metal_Only>
0

> <s_lp_Force_Field>
OPLS_2005

> <r_lp_Energy>
70.2974

> <b_lp_Chiralities_Consistent>
1

> <s_lp_Variant>
AV-unprocessed.smi:215-5

> <Gold.Version>
5.8.1

> <Gold.Id.Protein>
6NUR|6NUR_protein|mol2

> <Gold.PLP.Fitness>
45.1246

> <Gold.PLP.PLP>
-36.8892

> <Gold.PLP.part.hbond>
-5.9158

> <Gold.PLP.part.metal>
0.0000

> <Gold.PLP.part.buried>
-5.2160

> <Gold.PLP.part.nonpolar>
-25.9668

> <Gold.PLP.part.repulsive>
0.1245

> <Gold.PLP.ligand.clash>
0.0049

> <Gold.PLP.ligand.torsion>
2.1057

> <Gold.PLP.Chemscore.Hbond>
2.8240

> <Gold.PLP.Chemscore.CHOScore>
1.0000

> <Gold.PLP.Chemscore.Metal>
0.0000

> <Gold.Chemscore.Hbonds>
donor molecule, donor type, donor heavy atom, donor atom, acceptor molecule, acceptor atom, score
      L1  H     4    59       P1  7948  1.78
      L1  H     8    41       P1  7921  1.00
      L1  C    19    47       P1  8028  1.00

> <Gold.PLP.Chemscore.Internal.Correction>
0.9797

> <Gold.Rescore>
     Score         DG    S(hbond)    S(metal)    S(lipo)     H(rot)  DE(clash)    DE(int)     intcor
      5.31      -9.70       1.99        0.00      84.41       4.81       1.08       3.32       ----

> <Gold.Chemscore.Fitness>
5.3115

> <Gold.Chemscore.DG>
-9.7048

> <Gold.Chemscore.ZeroCoef>
-5.4800

> <Gold.Chemscore.Hbond>
1.9947

> <Gold.Chemscore.Metal>
0.0000

> <Gold.Chemscore.Lipo>
84.4055

> <Gold.Chemscore.Internal_Hbond>
0.0000

> <Gold.Chemscore.DEClash>
1.0755

> <Gold.Chemscore.DEInternal>
3.3177

> <Gold.Chemscore.Rot>
4.8098

> <Gold.Chemscore.Internal.Correction>
   9.000000E+99

> <Gold.Chemscore.Hbonds>
donor molecule, donor type, donor heavy atom, donor atom, acceptor molecule, acceptor atom, score
      L1  H     4    59       P1  7948  0.83
      L1  H     8    41       P1  7921  0.97

> <Gold.Chemscore.Hbond.Weighted>
-6.6624

> <Gold.Chemscore.Metal.Weighted>
-0.0000

> <Gold.Chemscore.Lipo.Weighted>
-9.8754

> <Gold.Chemscore.Internal_Hbond.Weighted>
0.0000

> <Gold.Chemscore.DEClash.Weighted>
1.0755

> <Gold.Chemscore.DEInternal.Weighted>
3.3177

> <Gold.Chemscore.Rot.Weighted>
12.3130

> <Gold.Chemscore.Internal.Correction.Weighted>
   9.000000E+99

> <Gold.Protein.RotatedTorsions>
[ 6907 6896 6895 6894 ] final  157.88 input  -60.11 | X-H torsion
[ 7974 7965 7964 7962 ] final   -2.62 input  175.53 | X-H torsion
[ 8008 7997 7996 7995 ] final  -76.43 input   59.86 | X-H torsion
[ 10167 10162 10161 10158 ] final -100.33 input  -65.29 | X-H torsion
[ 10718 10713 10712 10709 ] final  -71.10 input   66.30 | X-H torsion
[ 10763 10752 10751 10750 ] final  158.29 input  -60.55 | X-H torsion
[ 11005 11000 10999 10996 ] final   70.34 input  -57.11 | X-H torsion

> <Gold.Protein.ActiveResidues>
 VAL166  LYS551  ARG553  GLY616  TRP617  ASP618  TYR619  PRO620  LYS621  CYS622 
 ASP623  PHE694  ASN695  SER759  ASP760  ASP761  ALA762  ILE779  LEU786  VAL792 
 PHE793  MET794  SER795  GLU796  ALA797  LYS798  CYS799  TRP800  GLU811  SER814 

> <Gold.Protein.RotatedAtoms>
  152.0086  133.3852  159.4210 H   0  0  0  0  0  0  0  0  0  0  0  0  # atno 6907 bound_to 6896
  150.6902  134.3755  159.5020 H   0  0  0  0  0  0  0  0  0  0  0  0  # atno 6908 bound_to 6896
  152.1513  134.8986  160.0598 H   0  0  0  0  0  0  0  0  0  0  0  0  # atno 6909 bound_to 6896
  146.2402  140.1598  142.8333 H   0  0  0  0  0  0  0  0  0  0  0  0  # atno 7974 bound_to 7965
  154.5505  140.0727  156.8659 H   0  0  0  0  0  0  0  0  0  0  0  0  # atno 8008 bound_to 7997
  155.3003  140.3384  155.4230 H   0  0  0  0  0  0  0  0  0  0  0  0  # atno 8009 bound_to 7997
  156.1957  140.1702  156.7989 H   0  0  0  0  0  0  0  0  0  0  0  0  # atno 8010 bound_to 7997
  140.2530  143.3459  152.0697 H   0  0  0  0  0  0  0  0  0  0  0  0  # atno 10167 bound_to 10162
  156.0378  130.4344  150.2393 H   0  0  0  0  0  0  0  0  0  0  0  0  # atno 10718 bound_to 10713
  154.2136  135.2785  155.2949 H   0  0  0  0  0  0  0  0  0  0  0  0  # atno 10763 bound_to 10752
  154.5758  135.5604  153.7141 H   0  0  0  0  0  0  0  0  0  0  0  0  # atno 10764 bound_to 10752
  153.0058  135.6332  154.2276 H   0  0  0  0  0  0  0  0  0  0  0  0  # atno 10765 bound_to 10752
  139.9603  134.7072  156.0660 H   0  0  0  0  0  0  0  0  0  0  0  0  # atno 11005 bound_to 11000
  145.0098  140.8704  143.5231 LP  0  0  0  0  0  0  0  0  0  0  0  0  # atno 17320 bound_to 7965
  145.1630  139.2447  143.5381 LP  0  0  0  0  0  0  0  0  0  0  0  0  # atno 17321 bound_to 7965
  139.5040  144.6767  151.6111 LP  0  0  0  0  0  0  0  0  0  0  0  0  # atno 17342 bound_to 10162
  140.6025  143.9583  150.6396 LP  0  0  0  0  0  0  0  0  0  0  0  0  # atno 17343 bound_to 10162
  157.0491  131.0057  151.3259 LP  0  0  0  0  0  0  0  0  0  0  0  0  # atno 17370 bound_to 10713
  157.5153  130.7964  149.7750 LP  0  0  0  0  0  0  0  0  0  0  0  0  # atno 17371 bound_to 10713
  141.1280  133.6594  156.3387 LP  0  0  0  0  0  0  0  0  0  0  0  0  # atno 17394 bound_to 11000
  140.5515  134.6023  157.5409 LP  0  0  0  0  0  0  0  0  0  0  0  0  # atno 17395 bound_to 11000

$$$$
