AV-unprocessed.smi:1047|AV-procd|sdf|4572|dock8
  -GOLD-   22720 3 33D 1   1.00000     0.00000
 Structure written by MMmdl.
 56 58  0  0  0  0  0  0  0  0  2 V2000
  146.9655  131.8904  160.7191 C   0  0  0  0  0  0  0  0  0  0  0  0
  147.0686  132.8497  161.9134 C   0  0  0  0  0  0  0  0  0  0  0  0
  146.9110  134.2712  161.5169 N   0  3  1  0  0  0  0  0  0  0  0  0
  146.9021  135.1846  162.6839 C   0  0  0  0  0  0  0  0  0  0  0  0
  146.6865  136.6367  162.2282 C   0  0  0  0  0  0  0  0  0  0  0  0
  147.6935  136.9931  161.2903 O   0  0  0  0  0  0  0  0  0  0  0  0
  147.6466  136.1895  160.1157 C   0  0  1  0  0  0  0  0  0  0  0  0
  148.7087  136.7155  159.1389 C   0  0  0  0  0  0  0  0  0  0  0  0
  150.0447  136.5922  159.7099 N   0  0  0  0  0  0  0  0  0  0  0  0
  150.9837  137.6048  159.2321 C   0  0  0  0  0  0  0  0  0  0  0  0
  151.6403  137.1973  157.9006 C   0  0  2  0  0  0  0  0  0  0  0  0
  152.1928  135.9011  158.0288 O   0  0  0  0  0  0  0  0  0  0  0  0
  152.6836  138.2090  157.3828 C   0  0  0  0  0  0  0  0  0  0  0  0
  152.0690  139.3887  156.8019 N   0  0  0  0  0  0  0  0  0  0  0  0
  151.4815  139.4860  155.5941 C   0  0  0  0  0  0  0  0  0  0  0  0
  150.9805  140.6703  155.2548 N   0  0  0  0  0  0  0  0  0  0  0  0
  151.2735  141.4288  156.3754 C   0  0  0  0  0  0  0  0  0  0  0  0
  151.0069  142.7860  156.6594 C   0  0  0  0  0  0  0  0  0  0  0  0
  151.4021  143.3606  157.8885 C   0  0  0  0  0  0  0  0  0  0  0  0
  151.0921  144.8233  158.1532 C   0  0  0  0  0  0  0  0  0  0  0  0
  152.0769  142.5739  158.8563 C   0  0  0  0  0  0  0  0  0  0  0  0
  152.5073  143.1687  160.1855 C   0  0  0  0  0  0  0  0  0  0  0  0
  152.3546  141.2175  158.5871 C   0  0  0  0  0  0  0  0  0  0  0  0
  151.9540  140.6565  157.3616 C   0  0  0  0  0  0  0  0  0  0  0  0
  147.9087  134.7241  160.5156 C   0  0  0  0  0  0  0  0  0  0  0  0
  146.9975  130.8545  161.0573 H   0  0  0  0  0  0  0  0  0  0  0  0
  147.7847  132.0241  160.0135 H   0  0  0  0  0  0  0  0  0  0  0  0
  146.0283  132.0317  160.1799 H   0  0  0  0  0  0  0  0  0  0  0  0
  146.2788  132.5885  162.6192 H   0  0  0  0  0  0  0  0  0  0  0  0
  148.0133  132.7088  162.4405 H   0  0  0  0  0  0  0  0  0  0  0  0
  146.1097  134.8972  163.3762 H   0  0  0  0  0  0  0  0  0  0  0  0
  147.8470  135.0986  163.2228 H   0  0  0  0  0  0  0  0  0  0  0  0
  145.6969  136.7660  161.7872 H   0  0  0  0  0  0  0  0  0  0  0  0
  146.7449  137.3112  163.0826 H   0  0  0  0  0  0  0  0  0  0  0  0
  146.6604  136.2649  159.6524 H   0  0  0  0  0  0  0  0  0  0  0  0
  148.6431  136.1758  158.1932 H   0  0  0  0  0  0  0  0  0  0  0  0
  148.5109  137.7645  158.9152 H   0  0  0  0  0  0  0  0  0  0  0  0
  150.4187  135.6698  159.5084 H   0  0  0  0  0  0  0  0  0  0  0  0
  150.4734  138.5608  159.1073 H   0  0  0  0  0  0  0  0  0  0  0  0
  151.7604  137.7658  159.9807 H   0  0  0  0  0  0  0  0  0  0  0  0
  150.8477  137.1177  157.1554 H   0  0  0  0  0  0  0  0  0  0  0  0
  152.1812  135.4857  157.1798 H   0  0  0  0  0  0  0  0  0  0  0  0
  153.3344  138.5270  158.1982 H   0  0  0  0  0  0  0  0  0  0  0  0
  153.3284  137.7538  156.6306 H   0  0  0  0  0  0  0  0  0  0  0  0
  151.4204  138.6401  154.9248 H   0  0  0  0  0  0  0  0  0  0  0  0
  150.4924  143.3847  155.9222 H   0  0  0  0  0  0  0  0  0  0  0  0
  150.4143  144.9212  159.0013 H   0  0  0  0  0  0  0  0  0  0  0  0
  150.6188  145.2926  157.2904 H   0  0  0  0  0  0  0  0  0  0  0  0
  152.0057  145.3755  158.3738 H   0  0  0  0  0  0  0  0  0  0  0  0
  152.9815  142.4206  160.8214 H   0  0  0  0  0  0  0  0  0  0  0  0
  151.6463  143.5662  160.7232 H   0  0  0  0  0  0  0  0  0  0  0  0
  153.2220  143.9768  160.0288 H   0  0  0  0  0  0  0  0  0  0  0  0
  152.8711  140.6079  159.3138 H   0  0  0  0  0  0  0  0  0  0  0  0
  148.9139  134.6201  160.9275 H   0  0  0  0  0  0  0  0  0  0  0  0
  147.8608  134.0958  159.6267 H   0  0  0  0  0  0  0  0  0  0  0  0
  146.0010  134.3531  161.0861 H   0  0  0  0  0  0  0  0  0  0  0  0
  1  2  1  0  0  0  0
  1 26  1  0  0  0  0
  1 27  1  0  0  0  0
  1 28  1  0  0  0  0
  2  3  1  0  0  0  0
  2 29  1  0  0  0  0
  2 30  1  0  0  0  0
  3 25  1  0  0  0  0
  3  4  1  0  0  0  0
  3 56  1  0  0  0  0
  4  5  1  0  0  0  0
  4 31  1  0  0  0  0
  4 32  1  0  0  0  0
  5  6  1  0  0  0  0
  5 33  1  0  0  0  0
  5 34  1  0  0  0  0
  6  7  1  0  0  0  0
  7  8  1  0  0  0  0
  7 25  1  0  0  0  0
  7 35  1  0  0  0  0
  8  9  1  0  0  0  0
  8 36  1  0  0  0  0
  8 37  1  0  0  0  0
  9 10  1  0  0  0  0
  9 38  1  0  0  0  0
 10 11  1  0  0  0  0
 10 39  1  0  0  0  0
 10 40  1  0  0  0  0
 11 12  1  0  0  0  0
 11 13  1  0  0  0  0
 11 41  1  0  0  0  0
 12 42  1  0  0  0  0
 13 14  1  0  0  0  0
 13 43  1  0  0  0  0
 13 44  1  0  0  0  0
 14 24  1  0  0  0  0
 14 15  1  0  0  0  0
 15 16  2  0  0  0  0
 15 45  1  0  0  0  0
 16 17  1  0  0  0  0
 17 24  2  0  0  0  0
 17 18  1  0  0  0  0
 18 19  2  0  0  0  0
 18 46  1  0  0  0  0
 19 20  1  0  0  0  0
 19 21  1  0  0  0  0
 20 47  1  0  0  0  0
 20 48  1  0  0  0  0
 20 49  1  0  0  0  0
 21 22  1  0  0  0  0
 21 23  2  0  0  0  0
 22 50  1  0  0  0  0
 22 51  1  0  0  0  0
 22 52  1  0  0  0  0
 23 24  1  0  0  0  0
 23 53  1  0  0  0  0
 25 54  1  0  0  0  0
 25 55  1  0  0  0  0
M  CHG  1   3   1
M  END
> <s_m_source_file>
AV-unprocessed.smi

> <i_m_source_file_index>
1047

> <i_lp_mmshare_version>
43012

> <i_f3d_flags>
0

> <s_epik_input>
W0NIM11bQ0gyXU4xW0NIMl1bQ0gyXU9bQ0BIXShbQ0gyXTEpW0NIMl1bTkhdW0NIMl1bQ0BIXShbT0hdKVtDSDJdbihbY0hdbjIpYyhjMjMpW2NIXWMoW0NIM10pYyhbY0hdMylbQ0gzXQ==

> <s_epik_cmdline>
J2VwaWtfcHl0aG9uJywgJy1waCcsICc3LjAnLCAnLXRuJywgJzgnLCAnLW1hJywgJzIwMCcsICctbWV0YWxfYmluZGluZycsICctaW1hZScsICc8aW5maWxlLm1hZT4nLCAnLW9tYWUnLCAnPG91dGZpbGUubWFlPic=

> <r_epik_Ionization_Penalty>
1.19246

> <r_epik_Ionization_Penalty_Charging>
0.210041

> <r_epik_Ionization_Penalty_Neutral>
0.982415

> <r_epik_State_Penalty>
1.57595

> <r_epik_Charging_Adjusted_Penalty>
1.78599

> <i_epik_Tot_Q>
1

> <i_epik_Tot_abs_Q>
1

> <r_epik_Metal_State_Penalty>
1.46172

> <b_epik_Metal_Only>
0

> <s_lp_Force_Field>
OPLS_2005

> <r_lp_Energy>
30.4626

> <b_lp_Chiralities_Consistent>
1

> <s_lp_Variant>
AV-unprocessed.smi:1047-13

> <Gold.Version>
5.8.1

> <Gold.Id.Protein>
6NUR|6NUR_protein|mol2

> <Gold.PLP.Fitness>
56.2706

> <Gold.PLP.PLP>
-49.5301

> <Gold.PLP.part.hbond>
-5.0000

> <Gold.PLP.part.metal>
0.0000

> <Gold.PLP.part.buried>
-5.4000

> <Gold.PLP.part.nonpolar>
-38.4125

> <Gold.PLP.part.repulsive>
0.0832

> <Gold.PLP.ligand.clash>
0.0000

> <Gold.PLP.ligand.torsion>
0.7175

> <Gold.PLP.Chemscore.Hbond>
2.6619

> <Gold.PLP.Chemscore.CHOScore>
0.0000

> <Gold.PLP.Chemscore.Metal>
0.0000

> <Gold.Chemscore.Hbonds>
donor molecule, donor type, donor heavy atom, donor atom, acceptor molecule, acceptor atom, score
      P1  H  6896  6908       L1    12  0.14
      P1  H  6931  6943       L1     6  1.00
      P1  H  6934  6947       L1     6  0.67
      P1  H  7989  7998       L1    16  0.88

> <Gold.PLP.Chemscore.Internal.Correction>
0.1897

> <Gold.Rescore>
     Score         DG    S(hbond)    S(metal)    S(lipo)     H(rot)  DE(clash)    DE(int)     intcor
     21.00     -22.11       2.21        0.00     136.29       2.62       0.29       0.82       ----

> <Gold.Chemscore.Fitness>
20.9966

> <Gold.Chemscore.DG>
-22.1058

> <Gold.Chemscore.ZeroCoef>
-5.4800

> <Gold.Chemscore.Hbond>
2.2125

> <Gold.Chemscore.Metal>
0.0000

> <Gold.Chemscore.Lipo>
136.2869

> <Gold.Chemscore.Internal_Hbond>
0.0000

> <Gold.Chemscore.DEClash>
0.2906

> <Gold.Chemscore.DEInternal>
0.8185

> <Gold.Chemscore.Rot>
2.6209

> <Gold.Chemscore.Internal.Correction>
   9.000000E+99

> <Gold.Chemscore.Hbonds>
donor molecule, donor type, donor heavy atom, donor atom, acceptor molecule, acceptor atom, score
      P1  H  6896  6908       L1    12  0.09
      P1  H  6931  6943       L1     6  0.89
      P1  H  6934  6947       L1     6  0.14
      P1  H  7989  7998       L1    16  0.30

> <Gold.Chemscore.Hbond.Weighted>
-7.3898

> <Gold.Chemscore.Metal.Weighted>
-0.0000

> <Gold.Chemscore.Lipo.Weighted>
-15.9456

> <Gold.Chemscore.Internal_Hbond.Weighted>
0.0000

> <Gold.Chemscore.DEClash.Weighted>
0.2906

> <Gold.Chemscore.DEInternal.Weighted>
0.8185

> <Gold.Chemscore.Rot.Weighted>
6.7096

> <Gold.Chemscore.Internal.Correction.Weighted>
   9.000000E+99

> <Gold.Protein.RotatedTorsions>
[ 6907 6896 6895 6894 ] final -120.28 input  -60.11 | X-H torsion
[ 7974 7965 7964 7962 ] final -113.62 input  175.53 | X-H torsion
[ 8008 7997 7996 7995 ] final   48.42 input   59.86 | X-H torsion
[ 10167 10162 10161 10158 ] final  142.13 input  -65.29 | X-H torsion
[ 10718 10713 10712 10709 ] final  108.53 input   66.30 | X-H torsion
[ 10763 10752 10751 10750 ] final  -57.19 input  -60.55 | X-H torsion
[ 11005 11000 10999 10996 ] final  179.38 input  -57.11 | X-H torsion

> <Gold.Protein.ActiveResidues>
 VAL166  LYS551  ARG553  GLY616  TRP617  ASP618  TYR619  PRO620  LYS621  CYS622 
 ASP623  PHE694  ASN695  SER759  ASP760  ASP761  ALA762  ILE779  LEU786  VAL792 
 PHE793  MET794  SER795  GLU796  ALA797  LYS798  CYS799  TRP800  GLU811  SER814 

> <Gold.Protein.RotatedAtoms>
  150.8379  133.7983  159.3072 H   0  0  0  0  0  0  0  0  0  0  0  0  # atno 6907 bound_to 6896
  151.5693  135.1061  160.0001 H   0  0  0  0  0  0  0  0  0  0  0  0  # atno 6908 bound_to 6896
  152.4448  133.7474  159.6731 H   0  0  0  0  0  0  0  0  0  0  0  0  # atno 6909 bound_to 6896
  145.1298  140.8718  143.3764 H   0  0  0  0  0  0  0  0  0  0  0  0  # atno 7974 bound_to 7965
  155.3853  140.3430  155.4248 H   0  0  0  0  0  0  0  0  0  0  0  0  # atno 8008 bound_to 7997
  156.1588  140.1594  156.8681 H   0  0  0  0  0  0  0  0  0  0  0  0  # atno 8009 bound_to 7997
  154.5120  140.0788  156.7989 H   0  0  0  0  0  0  0  0  0  0  0  0  # atno 8010 bound_to 7997
  139.5002  144.6127  151.6235 H   0  0  0  0  0  0  0  0  0  0  0  0  # atno 10167 bound_to 10162
  157.6582  131.0895  150.6318 H   0  0  0  0  0  0  0  0  0  0  0  0  # atno 10718 bound_to 10713
  154.2185  135.6382  153.5137 H   0  0  0  0  0  0  0  0  0  0  0  0  # atno 10763 bound_to 10752
  152.9974  135.5491  154.6140 H   0  0  0  0  0  0  0  0  0  0  0  0  # atno 10764 bound_to 10752
  154.5594  135.2908  155.0907 H   0  0  0  0  0  0  0  0  0  0  0  0  # atno 10765 bound_to 10752
  140.4055  134.6739  157.4585 H   0  0  0  0  0  0  0  0  0  0  0  0  # atno 11005 bound_to 11000
  145.0648  139.3077  143.5862 LP  0  0  0  0  0  0  0  0  0  0  0  0  # atno 17320 bound_to 7965
  146.3515  140.0102  142.8668 LP  0  0  0  0  0  0  0  0  0  0  0  0  # atno 17321 bound_to 7965
  140.5806  143.9952  150.6266 LP  0  0  0  0  0  0  0  0  0  0  0  0  # atno 17342 bound_to 10162
  140.3100  143.3204  152.0888 LP  0  0  0  0  0  0  0  0  0  0  0  0  # atno 17343 bound_to 10162
  156.6623  130.4516  149.5683 LP  0  0  0  0  0  0  0  0  0  0  0  0  # atno 17370 bound_to 10713
  156.2058  130.6648  151.1216 LP  0  0  0  0  0  0  0  0  0  0  0  0  # atno 17371 bound_to 10713
  140.0305  134.6413  155.9113 LP  0  0  0  0  0  0  0  0  0  0  0  0  # atno 17394 bound_to 11000
  141.1841  133.6552  156.5143 LP  0  0  0  0  0  0  0  0  0  0  0  0  # atno 17395 bound_to 11000

$$$$
