AV-unprocessed.smi:1088|AV-procd|sdf|4730|dock9
  -GOLD-   22720 3263D 1   1.00000     0.00000
 Structure written by MMmdl.
 48 49  0  0  0  0  0  0  0  0  2 V2000
  143.9214  135.0394  152.3729 C   0  0  0  0  0  0  0  0  0  0  0  0
  145.1153  135.6199  151.8778 O   0  0  0  0  0  0  0  0  0  0  0  0
  145.7434  136.4636  152.8281 C   0  0  0  0  0  0  0  0  0  0  0  0
  146.4310  135.5932  153.8893 C   0  0  0  0  0  0  0  0  0  0  0  0
  147.4533  134.6970  153.2947 N   0  3  2  0  0  0  0  0  0  0  0  0
  146.9337  133.5937  152.4533 C   0  0  0  0  0  0  0  0  0  0  0  0
  147.9404  132.4406  152.5690 C   0  0  0  0  0  0  0  0  0  0  0  0
  149.1039  133.0106  153.3793 C   0  0  0  0  0  0  0  0  0  0  0  0
  148.4611  134.1218  154.2176 C   0  0  2  0  0  0  0  0  0  0  0  0
  147.8537  133.6008  155.5473 C   0  0  0  0  0  0  0  0  0  0  0  0
  147.9593  134.5800  156.6223 N   0  0  0  0  0  0  0  0  0  0  0  0
  148.6852  134.4315  157.7432 C   0  0  0  0  0  0  0  0  0  0  0  0
  149.3606  133.4279  157.9678 O   0  0  0  0  0  0  0  0  0  0  0  0
  148.6516  135.5606  158.7873 C   0  0  0  0  0  0  0  0  0  0  0  0
  147.9278  135.2340  160.0254 N   0  0  0  0  0  0  0  0  0  0  0  0
  148.0536  133.9717  160.5767 C   0  0  0  0  0  0  0  0  0  0  0  0
  147.4102  133.5813  161.6984 C   0  0  0  0  0  0  0  0  0  0  0  0
  146.5264  134.4953  162.4118 C   0  0  0  0  0  0  0  0  0  0  0  0
  145.9038  134.1726  163.4241 O   0  0  0  0  0  0  0  0  0  0  0  0
  146.4289  135.7850  161.8362 N   0  0  0  0  0  0  0  0  0  0  0  0
  145.5616  136.7616  162.4620 C   0  0  0  0  0  0  0  0  0  0  0  0
  147.0920  136.1820  160.6538 C   0  0  0  0  0  0  0  0  0  0  0  0
  146.9434  137.3064  160.1694 O   0  0  0  0  0  0  0  0  0  0  0  0
  143.4790  134.4026  151.6071 H   0  0  0  0  0  0  0  0  0  0  0  0
  143.1906  135.8048  152.6372 H   0  0  0  0  0  0  0  0  0  0  0  0
  144.1168  134.4230  153.2513 H   0  0  0  0  0  0  0  0  0  0  0  0
  146.4895  137.0825  152.3281 H   0  0  0  0  0  0  0  0  0  0  0  0
  145.0185  137.1385  153.2849 H   0  0  0  0  0  0  0  0  0  0  0  0
  146.9066  136.2437  154.6245 H   0  0  0  0  0  0  0  0  0  0  0  0
  145.6844  135.0029  154.4220 H   0  0  0  0  0  0  0  0  0  0  0  0
  145.9511  133.2670  152.7973 H   0  0  0  0  0  0  0  0  0  0  0  0
  146.8306  133.9349  151.4228 H   0  0  0  0  0  0  0  0  0  0  0  0
  147.4867  131.6067  153.1064 H   0  0  0  0  0  0  0  0  0  0  0  0
  148.2626  132.0692  151.5957 H   0  0  0  0  0  0  0  0  0  0  0  0
  149.6242  132.2519  153.9644 H   0  0  0  0  0  0  0  0  0  0  0  0
  149.8348  133.4501  152.6990 H   0  0  0  0  0  0  0  0  0  0  0  0
  149.1994  134.8920  154.4444 H   0  0  0  0  0  0  0  0  0  0  0  0
  146.8020  133.3384  155.4255 H   0  0  0  0  0  0  0  0  0  0  0  0
  148.3616  132.6917  155.8708 H   0  0  0  0  0  0  0  0  0  0  0  0
  147.4380  135.4378  156.5110 H   0  0  0  0  0  0  0  0  0  0  0  0
  149.6818  135.8243  159.0306 H   0  0  0  0  0  0  0  0  0  0  0  0
  148.2289  136.4537  158.3240 H   0  0  0  0  0  0  0  0  0  0  0  0
  148.6944  133.2560  160.0823 H   0  0  0  0  0  0  0  0  0  0  0  0
  147.5483  132.5770  162.0717 H   0  0  0  0  0  0  0  0  0  0  0  0
  146.0722  137.7260  162.4613 H   0  0  0  0  0  0  0  0  0  0  0  0
  145.3547  136.4862  163.4960 H   0  0  0  0  0  0  0  0  0  0  0  0
  144.6441  136.7938  161.8730 H   0  0  0  0  0  0  0  0  0  0  0  0
  147.9927  135.2762  152.6666 H   0  0  0  0  0  0  0  0  0  0  0  0
  1  2  1  0  0  0  0
  1 24  1  0  0  0  0
  1 25  1  0  0  0  0
  1 26  1  0  0  0  0
  2  3  1  0  0  0  0
  3  4  1  0  0  0  0
  3 27  1  0  0  0  0
  3 28  1  0  0  0  0
  4  5  1  0  0  0  0
  4 29  1  0  0  0  0
  4 30  1  0  0  0  0
  5  9  1  0  0  0  0
  5  6  1  0  0  0  0
  5 48  1  0  0  0  0
  6  7  1  0  0  0  0
  6 31  1  0  0  0  0
  6 32  1  0  0  0  0
  7  8  1  0  0  0  0
  7 33  1  0  0  0  0
  7 34  1  0  0  0  0
  8  9  1  0  0  0  0
  8 35  1  0  0  0  0
  8 36  1  0  0  0  0
  9 10  1  0  0  0  0
  9 37  1  0  0  0  0
 10 11  1  0  0  0  0
 10 38  1  0  0  0  0
 10 39  1  0  0  0  0
 11 12  1  0  0  0  0
 11 40  1  0  0  0  0
 12 13  2  0  0  0  0
 12 14  1  0  0  0  0
 14 15  1  0  0  0  0
 14 41  1  0  0  0  0
 14 42  1  0  0  0  0
 15 22  1  0  0  0  0
 15 16  1  0  0  0  0
 16 17  2  0  0  0  0
 16 43  1  0  0  0  0
 17 18  1  0  0  0  0
 17 44  1  0  0  0  0
 18 19  2  0  0  0  0
 18 20  1  0  0  0  0
 20 21  1  0  0  0  0
 20 22  1  0  0  0  0
 21 45  1  0  0  0  0
 21 46  1  0  0  0  0
 21 47  1  0  0  0  0
 22 23  2  0  0  0  0
M  CHG  1   5   1
M  END
> <s_m_source_file>
AV-unprocessed.smi

> <i_m_source_file_index>
1088

> <i_lp_mmshare_version>
43012

> <i_f3d_flags>
0

> <s_epik_input>
W0NIM11PW0NIMl1bQ0gyXU4xW0NIMl1bQ0gyXVtDSDJdW0NASF0xW0NIMl1bTkhdQyg9TylbQ0gyXW4yW2NIXVtjSF1jKD1PKW4oW0NIM10pYzI9Tw==

> <s_epik_cmdline>
J2VwaWtfcHl0aG9uJywgJy1waCcsICc3LjAnLCAnLXRuJywgJzgnLCAnLW1hJywgJzIwMCcsICctbWV0YWxfYmluZGluZycsICctaW1hZScsICc8aW5maWxlLm1hZT4nLCAnLW9tYWUnLCAnPG91dGZpbGUubWFlPic=

> <r_lp_tautomer_probability>
1

> <r_epik_Ionization_Penalty>
0.0127388

> <r_epik_Ionization_Penalty_Charging>
0.0127387

> <r_epik_Ionization_Penalty_Neutral>
8.26414e-08

> <r_epik_State_Penalty>
0.00987716

> <r_epik_Charging_Adjusted_Penalty>
0.0226159

> <i_epik_Tot_Q>
1

> <i_epik_Tot_abs_Q>
1

> <r_epik_Metal_State_Penalty>
0.00987836

> <b_epik_Metal_Only>
0

> <s_lp_Force_Field>
OPLS_2005

> <r_lp_Energy>
40.6263

> <b_lp_Chiralities_Consistent>
1

> <s_lp_Variant>
AV-unprocessed.smi:1088-3

> <Gold.Version>
5.8.1

> <Gold.Id.Protein>
6NUR|6NUR_protein|mol2

> <Gold.PLP.Fitness>
41.2079

> <Gold.PLP.PLP>
-31.0628

> <Gold.PLP.part.hbond>
-4.0000

> <Gold.PLP.part.metal>
0.0000

> <Gold.PLP.part.buried>
-2.2031

> <Gold.PLP.part.nonpolar>
-25.5964

> <Gold.PLP.part.repulsive>
0.2082

> <Gold.PLP.ligand.clash>
0.0000

> <Gold.PLP.ligand.torsion>
1.0252

> <Gold.PLP.Chemscore.Hbond>
4.0000

> <Gold.PLP.Chemscore.CHOScore>
0.0000

> <Gold.PLP.Chemscore.Metal>
0.0000

> <Gold.Chemscore.Hbonds>
donor molecule, donor type, donor heavy atom, donor atom, acceptor molecule, acceptor atom, score
      L1  H     5    48       P1  7948  2.00
      P1  H  6896  6907       L1    13  1.00
      P1  H  6934  6947       L1    23  1.00

> <Gold.PLP.Chemscore.Internal.Correction>
0.1955

> <Gold.Rescore>
     Score         DG    S(hbond)    S(metal)    S(lipo)     H(rot)  DE(clash)    DE(int)     intcor
     10.31     -15.60       2.99        0.00      57.38       2.57       1.79       3.50       ----

> <Gold.Chemscore.Fitness>
10.3074

> <Gold.Chemscore.DG>
-15.6011

> <Gold.Chemscore.ZeroCoef>
-5.4800

> <Gold.Chemscore.Hbond>
2.9895

> <Gold.Chemscore.Metal>
0.0000

> <Gold.Chemscore.Lipo>
57.3786

> <Gold.Chemscore.Internal_Hbond>
0.0000

> <Gold.Chemscore.DEClash>
1.7923

> <Gold.Chemscore.DEInternal>
3.5014

> <Gold.Chemscore.Rot>
2.5692

> <Gold.Chemscore.Internal.Correction>
   9.000000E+99

> <Gold.Chemscore.Hbonds>
donor molecule, donor type, donor heavy atom, donor atom, acceptor molecule, acceptor atom, score
      L1  H     5    48       P1  7948  0.95
      P1  H  6896  6907       L1    13  0.73
      P1  H  6934  6947       L1    23  1.00

> <Gold.Chemscore.Hbond.Weighted>
-9.9849

> <Gold.Chemscore.Metal.Weighted>
-0.0000

> <Gold.Chemscore.Lipo.Weighted>
-6.7133

> <Gold.Chemscore.Internal_Hbond.Weighted>
0.0000

> <Gold.Chemscore.DEClash.Weighted>
1.7923

> <Gold.Chemscore.DEInternal.Weighted>
3.5014

> <Gold.Chemscore.Rot.Weighted>
6.5772

> <Gold.Chemscore.Internal.Correction.Weighted>
   9.000000E+99

> <Gold.Protein.RotatedTorsions>
[ 6907 6896 6895 6894 ] final -116.81 input  -60.11 | X-H torsion
[ 7974 7965 7964 7962 ] final   17.16 input  175.53 | X-H torsion
[ 8008 7997 7996 7995 ] final -170.78 input   59.86 | X-H torsion
[ 10167 10162 10161 10158 ] final   93.62 input  -65.29 | X-H torsion
[ 10718 10713 10712 10709 ] final  152.97 input   66.30 | X-H torsion
[ 10763 10752 10751 10750 ] final  161.14 input  -60.55 | X-H torsion
[ 11005 11000 10999 10996 ] final  -26.05 input  -57.11 | X-H torsion

> <Gold.Protein.ActiveResidues>
 VAL166  LYS551  ARG553  GLY616  TRP617  ASP618  TYR619  PRO620  LYS621  CYS622 
 ASP623  PHE694  ASN695  SER759  ASP760  ASP761  ALA762  ILE779  LEU786  VAL792 
 PHE793  MET794  SER795  GLU796  ALA797  LYS798  CYS799  TRP800  GLU811  SER814 

> <Gold.Protein.RotatedAtoms>
  150.8086  133.8464  159.3193 H   0  0  0  0  0  0  0  0  0  0  0  0  # atno 6907 bound_to 6896
  151.6256  135.1026  160.0120 H   0  0  0  0  0  0  0  0  0  0  0  0  # atno 6908 bound_to 6896
  152.4177  133.7025  159.6489 H   0  0  0  0  0  0  0  0  0  0  0  0  # atno 6909 bound_to 6896
  146.2227  139.8643  142.8599 H   0  0  0  0  0  0  0  0  0  0  0  0  # atno 7974 bound_to 7965
  155.9228  140.1077  157.1193 H   0  0  0  0  0  0  0  0  0  0  0  0  # atno 8008 bound_to 7997
  154.4057  140.1252  156.4767 H   0  0  0  0  0  0  0  0  0  0  0  0  # atno 8009 bound_to 7997
  155.7175  140.3470  155.5003 H   0  0  0  0  0  0  0  0  0  0  0  0  # atno 8010 bound_to 7997
  139.8163  144.6751  150.9576 H   0  0  0  0  0  0  0  0  0  0  0  0  # atno 10167 bound_to 10162
  157.2509  131.0778  151.1730 H   0  0  0  0  0  0  0  0  0  0  0  0  # atno 10718 bound_to 10713
  154.2583  135.2769  155.2788 H   0  0  0  0  0  0  0  0  0  0  0  0  # atno 10763 bound_to 10752
  154.5406  135.5704  153.6839 H   0  0  0  0  0  0  0  0  0  0  0  0  # atno 10764 bound_to 10752
  152.9967  135.6250  154.2733 H   0  0  0  0  0  0  0  0  0  0  0  0  # atno 10765 bound_to 10752
  140.8994  133.7534  156.0524 H   0  0  0  0  0  0  0  0  0  0  0  0  # atno 11005 bound_to 11000
  145.2672  141.0097  143.3792 LP  0  0  0  0  0  0  0  0  0  0  0  0  # atno 17320 bound_to 7965
  144.9251  139.4364  143.6522 LP  0  0  0  0  0  0  0  0  0  0  0  0  # atno 17321 bound_to 7965
  140.7815  143.4136  151.0954 LP  0  0  0  0  0  0  0  0  0  0  0  0  # atno 17342 bound_to 10162
  139.7799  143.8370  152.3136 LP  0  0  0  0  0  0  0  0  0  0  0  0  # atno 17343 bound_to 10162
  157.3279  130.6970  149.6307 LP  0  0  0  0  0  0  0  0  0  0  0  0  # atno 17370 bound_to 10713
  155.9666  130.4316  150.4927 LP  0  0  0  0  0  0  0  0  0  0  0  0  # atno 17371 bound_to 10713
  140.8249  134.3246  157.5369 LP  0  0  0  0  0  0  0  0  0  0  0  0  # atno 17394 bound_to 11000
  139.8740  134.9330  156.3569 LP  0  0  0  0  0  0  0  0  0  0  0  0  # atno 17395 bound_to 11000

$$$$
