AV-unprocessed.smi:916|AV-procd|sdf|4158|dock6
  -GOLD-   22720 2 63D 1   1.00000     0.00000
 Structure written by MMmdl.
 43 44  0  0  0  0  0  0  0  0  1 V2000
  141.3311  136.3687  153.6897 C   0  0  0  0  0  0  0  0  0  0  0  0
  141.9865  135.0005  153.4719 C   0  0  0  0  0  0  0  0  0  0  0  0
  143.3202  135.1075  152.7966 C   0  0  0  0  0  0  0  0  0  0  0  0
  143.6481  134.6483  151.5443 C   0  0  0  0  0  0  0  0  0  0  0  0
  145.3097  134.9846  151.1382 S   0  0  0  0  0  0  0  0  0  0  0  0
  145.5004  135.7406  152.7121 C   0  0  0  0  0  0  0  0  0  0  0  0
  146.7292  136.3206  153.1223 N   0  0  0  0  0  0  0  0  0  0  0  0
  146.9667  137.0881  154.2001 C   0  0  0  0  0  0  0  0  0  0  0  0
  146.1421  137.3652  155.0718 O   0  0  0  0  0  0  0  0  0  0  0  0
  148.2377  137.5152  154.2189 N   0  0  0  0  0  0  0  0  0  0  0  0
  148.8324  138.3636  155.2472 C   0  0  0  0  0  0  0  0  0  0  0  0
  150.2507  138.8216  154.8569 C   0  0  2  0  0  0  0  0  0  0  0  0
  151.2592  137.6980  154.7064 C   0  0  0  0  0  0  0  0  0  0  0  0
  152.5845  138.4460  154.8060 C   0  0  0  0  0  0  0  0  0  0  0  0
  152.3425  139.5547  155.6668 O   0  0  0  0  0  0  0  0  0  0  0  0
  150.9454  139.6849  155.9207 C   0  0  1  0  0  0  0  0  0  0  0  0
  150.5234  141.1715  155.9813 C   0  0  0  0  0  0  0  0  0  0  0  0
  150.9352  141.8746  157.2874 C   0  0  0  0  0  0  0  0  0  0  0  0
  149.0132  141.3210  155.7406 C   0  0  0  0  0  0  0  0  0  0  0  0
  144.3876  135.7268  153.4546 N   0  0  0  0  0  0  0  0  0  0  0  0
  140.3653  136.2620  154.1839 H   0  0  0  0  0  0  0  0  0  0  0  0
  141.1648  136.8817  152.7419 H   0  0  0  0  0  0  0  0  0  0  0  0
  141.9557  137.0091  154.3131 H   0  0  0  0  0  0  0  0  0  0  0  0
  142.0943  134.4982  154.4338 H   0  0  0  0  0  0  0  0  0  0  0  0
  141.3191  134.3725  152.8808 H   0  0  0  0  0  0  0  0  0  0  0  0
  143.0128  134.1362  150.8370 H   0  0  0  0  0  0  0  0  0  0  0  0
  147.5151  136.1448  152.5139 H   0  0  0  0  0  0  0  0  0  0  0  0
  148.8425  137.2338  153.4612 H   0  0  0  0  0  0  0  0  0  0  0  0
  148.1859  139.2329  155.3661 H   0  0  0  0  0  0  0  0  0  0  0  0
  148.8432  137.8602  156.2157 H   0  0  0  0  0  0  0  0  0  0  0  0
  150.2067  139.3590  153.9101 H   0  0  0  0  0  0  0  0  0  0  0  0
  151.1668  136.9899  155.5313 H   0  0  0  0  0  0  0  0  0  0  0  0
  151.1551  137.1467  153.7714 H   0  0  0  0  0  0  0  0  0  0  0  0
  153.3905  137.8158  155.1830 H   0  0  0  0  0  0  0  0  0  0  0  0
  152.8804  138.8270  153.8280 H   0  0  0  0  0  0  0  0  0  0  0  0
  150.7650  139.2259  156.8945 H   0  0  0  0  0  0  0  0  0  0  0  0
  151.0224  141.6895  155.1619 H   0  0  0  0  0  0  0  0  0  0  0  0
  150.5026  141.3821  158.1587 H   0  0  0  0  0  0  0  0  0  0  0  0
  150.5968  142.9109  157.2943 H   0  0  0  0  0  0  0  0  0  0  0  0
  152.0163  141.8956  157.4168 H   0  0  0  0  0  0  0  0  0  0  0  0
  148.4358  140.8347  156.5276 H   0  0  0  0  0  0  0  0  0  0  0  0
  148.7192  140.8763  154.7895 H   0  0  0  0  0  0  0  0  0  0  0  0
  148.7203  142.3710  155.7148 H   0  0  0  0  0  0  0  0  0  0  0  0
  1  2  1  0  0  0  0
  1 21  1  0  0  0  0
  1 22  1  0  0  0  0
  1 23  1  0  0  0  0
  2  3  1  0  0  0  0
  2 24  1  0  0  0  0
  2 25  1  0  0  0  0
  3 20  1  0  0  0  0
  3  4  2  0  0  0  0
  4  5  1  0  0  0  0
  4 26  1  0  0  0  0
  5  6  1  0  0  0  0
  6  7  1  0  0  0  0
  6 20  2  0  0  0  0
  7  8  1  0  0  0  0
  7 27  1  0  0  0  0
  8  9  2  0  0  0  0
  8 10  1  0  0  0  0
 10 11  1  0  0  0  0
 10 28  1  0  0  0  0
 11 12  1  0  0  0  0
 11 29  1  0  0  0  0
 11 30  1  0  0  0  0
 12 16  1  0  0  0  0
 12 13  1  0  0  0  0
 12 31  1  0  0  0  0
 13 14  1  0  0  0  0
 13 32  1  0  0  0  0
 13 33  1  0  0  0  0
 14 15  1  0  0  0  0
 14 34  1  0  0  0  0
 14 35  1  0  0  0  0
 15 16  1  0  0  0  0
 16 17  1  0  0  0  0
 16 36  1  0  0  0  0
 17 18  1  0  0  0  0
 17 19  1  0  0  0  0
 17 37  1  0  0  0  0
 18 38  1  0  0  0  0
 18 39  1  0  0  0  0
 18 40  1  0  0  0  0
 19 41  1  0  0  0  0
 19 42  1  0  0  0  0
 19 43  1  0  0  0  0
M  END
> <s_m_source_file>
AV-unprocessed.smi

> <i_m_source_file_index>
916

> <i_lp_mmshare_version>
43012

> <i_f3d_flags>
0

> <s_epik_input>
W0NIM11bQ0gyXWMxW2NIXXNjKG4xKVtOSF1DKD1PKVtOSF1bQ0gyXVtDQEBIXTJbQ0gyXVtDSDJdT1tDQEhdMltDSF0oW0NIM10pW0NIM10=

> <s_epik_cmdline>
J2VwaWtfcHl0aG9uJywgJy1waCcsICc3LjAnLCAnLXRuJywgJzgnLCAnLW1hJywgJzIwMCcsICctbWV0YWxfYmluZGluZycsICctaW1hZScsICc8aW5maWxlLm1hZT4nLCAnLW9tYWUnLCAnPG91dGZpbGUubWFlPic=

> <r_lp_tautomer_probability>
0.999

> <r_epik_Ionization_Penalty>
0.000518907

> <r_epik_Ionization_Penalty_Charging>
0

> <r_epik_Ionization_Penalty_Neutral>
0.000518907

> <r_epik_State_Penalty>
0.000177984

> <r_epik_Charging_Adjusted_Penalty>
0.000177984

> <i_epik_Tot_Q>
0

> <i_epik_Tot_abs_Q>
0

> <r_epik_Metal_State_Penalty>
-0

> <b_epik_Metal_Only>
0

> <s_lp_Force_Field>
OPLS_2005

> <r_lp_Energy>
16.7546

> <b_lp_Chiralities_Consistent>
1

> <s_lp_Variant>
AV-unprocessed.smi:916-1

> <Gold.Version>
5.8.1

> <Gold.Id.Protein>
6NUR|6NUR_protein|mol2

> <Gold.PLP.Fitness>
45.7338

> <Gold.PLP.PLP>
-35.5650

> <Gold.PLP.part.hbond>
-3.2532

> <Gold.PLP.part.metal>
0.0000

> <Gold.PLP.part.buried>
-4.3042

> <Gold.PLP.part.nonpolar>
-28.1038

> <Gold.PLP.part.repulsive>
0.1159

> <Gold.PLP.ligand.clash>
0.0000

> <Gold.PLP.ligand.torsion>
0.4236

> <Gold.PLP.Chemscore.Hbond>
2.6508

> <Gold.PLP.Chemscore.CHOScore>
1.0000

> <Gold.PLP.Chemscore.Metal>
0.0000

> <Gold.Chemscore.Hbonds>
donor molecule, donor type, donor heavy atom, donor atom, acceptor molecule, acceptor atom, score
      L1  H     7    27       P1  7948  1.00
      L1  H    10    28       P1  7948  0.93
      P1  H  7997  8008       L1    15  0.67
      L1  C     4    26       P1 10186  1.00

> <Gold.PLP.Chemscore.Internal.Correction>
0.0638

> <Gold.Rescore>
     Score         DG    S(hbond)    S(metal)    S(lipo)     H(rot)  DE(clash)    DE(int)     intcor
     16.80     -19.52       2.61        0.00      78.78       1.52       0.02       2.70       ----

> <Gold.Chemscore.Fitness>
16.7971

> <Gold.Chemscore.DG>
-19.5174

> <Gold.Chemscore.ZeroCoef>
-5.4800

> <Gold.Chemscore.Hbond>
2.6109

> <Gold.Chemscore.Metal>
0.0000

> <Gold.Chemscore.Lipo>
78.7842

> <Gold.Chemscore.Internal_Hbond>
0.0000

> <Gold.Chemscore.DEClash>
0.0197

> <Gold.Chemscore.DEInternal>
2.7006

> <Gold.Chemscore.Rot>
1.5238

> <Gold.Chemscore.Internal.Correction>
   9.000000E+99

> <Gold.Chemscore.Hbonds>
donor molecule, donor type, donor heavy atom, donor atom, acceptor molecule, acceptor atom, score
      L1  H     7    27       P1  7948  0.97
      L1  H    10    28       P1  7948  0.90
      P1  H  7997  8008       L1    15  0.17

> <Gold.Chemscore.Hbond.Weighted>
-8.7205

> <Gold.Chemscore.Metal.Weighted>
-0.0000

> <Gold.Chemscore.Lipo.Weighted>
-9.2177

> <Gold.Chemscore.Internal_Hbond.Weighted>
0.0000

> <Gold.Chemscore.DEClash.Weighted>
0.0197

> <Gold.Chemscore.DEInternal.Weighted>
2.7006

> <Gold.Chemscore.Rot.Weighted>
3.9008

> <Gold.Chemscore.Internal.Correction.Weighted>
   9.000000E+99

> <Gold.Protein.RotatedTorsions>
[ 6907 6896 6895 6894 ] final  -54.59 input  -60.11 | X-H torsion
[ 7974 7965 7964 7962 ] final -173.87 input  175.53 | X-H torsion
[ 8008 7997 7996 7995 ] final  -25.12 input   59.86 | X-H torsion
[ 10167 10162 10161 10158 ] final  -79.63 input  -65.29 | X-H torsion
[ 10718 10713 10712 10709 ] final   74.46 input   66.30 | X-H torsion
[ 10763 10752 10751 10750 ] final   56.42 input  -60.55 | X-H torsion
[ 11005 11000 10999 10996 ] final  118.05 input  -57.11 | X-H torsion

> <Gold.Protein.ActiveResidues>
 VAL166  LYS551  ARG553  GLY616  TRP617  ASP618  TYR619  PRO620  LYS621  CYS622 
 ASP623  PHE694  ASN695  SER759  ASP760  ASP761  ALA762  ILE779  LEU786  VAL792 
 PHE793  MET794  SER795  GLU796  ALA797  LYS798  CYS799  TRP800  GLU811  SER814 

> <Gold.Protein.RotatedAtoms>
  150.8324  134.7583  159.6864 H   0  0  0  0  0  0  0  0  0  0  0  0  # atno 6907 bound_to 6896
  152.4427  134.5555  159.9889 H   0  0  0  0  0  0  0  0  0  0  0  0  # atno 6908 bound_to 6896
  151.5713  133.3352  159.3026 H   0  0  0  0  0  0  0  0  0  0  0  0  # atno 6909 bound_to 6896
  144.7135  140.1557  143.6380 H   0  0  0  0  0  0  0  0  0  0  0  0  # atno 7974 bound_to 7965
  154.4492  140.1935  156.0571 H   0  0  0  0  0  0  0  0  0  0  0  0  # atno 8008 bound_to 7997
  156.0611  140.3296  155.7435 H   0  0  0  0  0  0  0  0  0  0  0  0  # atno 8009 bound_to 7997
  155.5410  140.0586  157.2860 H   0  0  0  0  0  0  0  0  0  0  0  0  # atno 8010 bound_to 7997
  140.4575  143.2463  151.8397 H   0  0  0  0  0  0  0  0  0  0  0  0  # atno 10167 bound_to 10162
  157.6593  130.9679  150.1214 H   0  0  0  0  0  0  0  0  0  0  0  0  # atno 10718 bound_to 10713
  152.9832  135.5677  154.5226 H   0  0  0  0  0  0  0  0  0  0  0  0  # atno 10763 bound_to 10752
  154.4711  135.2785  155.1644 H   0  0  0  0  0  0  0  0  0  0  0  0  # atno 10764 bound_to 10752
  154.3191  135.6272  153.5553 H   0  0  0  0  0  0  0  0  0  0  0  0  # atno 10765 bound_to 10752
  139.9095  134.9616  156.7443 H   0  0  0  0  0  0  0  0  0  0  0  0  # atno 11005 bound_to 11000
  145.9076  139.2467  143.1456 LP  0  0  0  0  0  0  0  0  0  0  0  0  # atno 17320 bound_to 7965
  145.9748  140.8731  143.0144 LP  0  0  0  0  0  0  0  0  0  0  0  0  # atno 17321 bound_to 7965
  139.4802  144.5047  151.9014 LP  0  0  0  0  0  0  0  0  0  0  0  0  # atno 17342 bound_to 10162
  140.4133  144.2340  150.5888 LP  0  0  0  0  0  0  0  0  0  0  0  0  # atno 17343 bound_to 10162
  156.2084  130.3665  149.8700 LP  0  0  0  0  0  0  0  0  0  0  0  0  # atno 17370 bound_to 10713
  156.6585  130.8772  151.3543 LP  0  0  0  0  0  0  0  0  0  0  0  0  # atno 17371 bound_to 10713
  140.6824  133.9462  155.7918 LP  0  0  0  0  0  0  0  0  0  0  0  0  # atno 17394 bound_to 11000
  141.0500  134.0498  157.3795 LP  0  0  0  0  0  0  0  0  0  0  0  0  # atno 17395 bound_to 11000

$$$$
