AV-unprocessed.smi:2048|AV-procd|sdf|8321|dock1
  -GOLD-   2272010583D 1   1.00000     0.00000
 Structure written by MMmdl.
 27 28  0  0  0  0  0  0  0  0  1 V2000
  150.8221  140.7656  156.2101 O   0  0  0  0  0  0  0  0  0  0  0  0
  150.2375  141.8426  156.0885 C   0  0  0  0  0  0  0  0  0  0  0  0
  150.6399  142.9734  156.6862 N   0  0  0  0  0  0  0  0  0  0  0  0
  151.8036  143.0915  157.5572 C   0  0  0  0  0  0  0  0  0  0  0  0
  151.4356  143.7316  158.8933 C   0  0  0  0  0  0  0  0  0  0  0  0
  151.3076  145.2591  159.0000 C   0  0  0  0  0  0  0  0  0  0  0  0
  151.8678  145.1591  160.4213 C   0  0  0  0  0  0  0  0  0  0  0  0
  152.4860  143.8199  160.0101 C   0  0  0  0  0  0  0  0  0  0  0  0
  149.1279  142.0465  155.3567 N   0  0  0  0  0  0  0  0  0  0  0  0
  148.4114  141.1082  154.5677 C   0  0  0  0  0  0  0  0  0  0  0  0
  148.7963  139.8428  154.3639 N   0  0  0  0  0  0  0  0  0  0  0  0
  147.9019  139.1481  153.5454 C   0  0  0  0  0  0  0  0  0  0  0  0
  146.8342  139.9055  153.1318 C   0  0  0  0  0  0  0  0  0  0  0  0
  146.9103  141.5312  153.7572 S   0  0  0  0  0  0  0  0  0  0  0  0
  150.1003  143.8127  156.5335 H   0  0  0  0  0  0  0  0  0  0  0  0
  152.2582  142.1116  157.7119 H   0  0  0  0  0  0  0  0  0  0  0  0
  152.5504  143.6942  157.0397 H   0  0  0  0  0  0  0  0  0  0  0  0
  150.5338  143.2747  159.3073 H   0  0  0  0  0  0  0  0  0  0  0  0
  151.9771  145.7894  158.3207 H   0  0  0  0  0  0  0  0  0  0  0  0
  150.2866  145.6362  158.9345 H   0  0  0  0  0  0  0  0  0  0  0  0
  152.5873  145.9343  160.6862 H   0  0  0  0  0  0  0  0  0  0  0  0
  151.0877  145.0519  161.1769 H   0  0  0  0  0  0  0  0  0  0  0  0
  152.4175  143.0344  160.7635 H   0  0  0  0  0  0  0  0  0  0  0  0
  153.5038  143.9254  159.6304 H   0  0  0  0  0  0  0  0  0  0  0  0
  148.7550  142.9843  155.3595 H   0  0  0  0  0  0  0  0  0  0  0  0
  148.1032  138.1138  153.3077 H   0  0  0  0  0  0  0  0  0  0  0  0
  146.0109  139.6066  152.5001 H   0  0  0  0  0  0  0  0  0  0  0  0
  1  2  2  0  0  0  0
  2  3  1  0  0  0  0
  2  9  1  0  0  0  0
  3  4  1  0  0  0  0
  3 15  1  0  0  0  0
  4  5  1  0  0  0  0
  4 16  1  0  0  0  0
  4 17  1  0  0  0  0
  5  8  1  0  0  0  0
  5  6  1  0  0  0  0
  5 18  1  0  0  0  0
  6  7  1  0  0  0  0
  6 19  1  0  0  0  0
  6 20  1  0  0  0  0
  7  8  1  0  0  0  0
  7 21  1  0  0  0  0
  7 22  1  0  0  0  0
  8 23  1  0  0  0  0
  8 24  1  0  0  0  0
  9 10  1  0  0  0  0
  9 25  1  0  0  0  0
 10 14  1  0  0  0  0
 10 11  2  0  0  0  0
 11 12  1  0  0  0  0
 12 13  2  0  0  0  0
 12 26  1  0  0  0  0
 13 14  1  0  0  0  0
 13 27  1  0  0  0  0
M  END
> <s_m_source_file>
AV-unprocessed.smi

> <i_m_source_file_index>
2048

> <i_lp_mmshare_version>
43012

> <i_f3d_flags>
0

> <s_epik_input>
czFbY0hdW2NIXW5jMVtOSF1DKD1PKVtOSF1bQ0gyXVtDSF0yW0NIMl1bQ0gyXVtDSDJdMg==

> <s_epik_cmdline>
J2VwaWtfcHl0aG9uJywgJy1waCcsICc3LjAnLCAnLXRuJywgJzgnLCAnLW1hJywgJzIwMCcsICctbWV0YWxfYmluZGluZycsICctaW1hZScsICc8aW5maWxlLm1hZT4nLCAnLW9tYWUnLCAnPG91dGZpbGUubWFlPic=

> <r_lp_tautomer_probability>
0.999

> <r_epik_Ionization_Penalty>
0.000426276

> <r_epik_Ionization_Penalty_Charging>
0

> <r_epik_Ionization_Penalty_Neutral>
0.000426276

> <r_epik_State_Penalty>
0.000177984

> <r_epik_Charging_Adjusted_Penalty>
0.000177984

> <i_epik_Tot_Q>
0

> <i_epik_Tot_abs_Q>
0

> <r_epik_Metal_State_Penalty>
-0

> <b_epik_Metal_Only>
0

> <s_lp_Force_Field>
OPLS_2005

> <r_lp_Energy>
10.8025

> <b_lp_Chiralities_Consistent>
1

> <s_lp_Variant>
AV-unprocessed.smi:2048-1

> <Gold.Version>
5.8.1

> <Gold.Id.Protein>
6NUR|6NUR_protein|mol2

> <Gold.PLP.Fitness>
42.6906

> <Gold.PLP.PLP>
-30.9707

> <Gold.PLP.part.hbond>
-2.0000

> <Gold.PLP.part.metal>
0.0000

> <Gold.PLP.part.buried>
-4.1180

> <Gold.PLP.part.nonpolar>
-25.5620

> <Gold.PLP.part.repulsive>
0.3716

> <Gold.PLP.ligand.clash>
0.0000

> <Gold.PLP.ligand.torsion>
0.1434

> <Gold.PLP.Chemscore.Hbond>
2.0000

> <Gold.PLP.Chemscore.CHOScore>
1.9830

> <Gold.PLP.Chemscore.Metal>
0.0000

> <Gold.Chemscore.Hbonds>
donor molecule, donor type, donor heavy atom, donor atom, acceptor molecule, acceptor atom, score
      L1  H     3    15       P1  8028  1.00
      L1  H     9    25       P1  8028  1.00
      L1  C    12    26       P1  7948  1.00
      L1  C    13    27       P1 10175  0.98

> <Gold.PLP.Chemscore.Internal.Correction>
0.0578

> <Gold.Rescore>
     Score         DG    S(hbond)    S(metal)    S(lipo)     H(rot)  DE(clash)    DE(int)     intcor
     16.24     -17.77       1.91        0.00      78.60       1.28       0.09       1.43       ----

> <Gold.Chemscore.Fitness>
16.2421

> <Gold.Chemscore.DG>
-17.7681

> <Gold.Chemscore.ZeroCoef>
-5.4800

> <Gold.Chemscore.Hbond>
1.9059

> <Gold.Chemscore.Metal>
0.0000

> <Gold.Chemscore.Lipo>
78.5993

> <Gold.Chemscore.Internal_Hbond>
0.0000

> <Gold.Chemscore.DEClash>
0.0936

> <Gold.Chemscore.DEInternal>
1.4325

> <Gold.Chemscore.Rot>
1.2788

> <Gold.Chemscore.Internal.Correction>
   9.000000E+99

> <Gold.Chemscore.Hbonds>
donor molecule, donor type, donor heavy atom, donor atom, acceptor molecule, acceptor atom, score
      L1  H     3    15       P1  8028  0.97
      L1  H     9    25       P1  8028  0.97

> <Gold.Chemscore.Hbond.Weighted>
-6.3659

> <Gold.Chemscore.Metal.Weighted>
-0.0000

> <Gold.Chemscore.Lipo.Weighted>
-9.1961

> <Gold.Chemscore.Internal_Hbond.Weighted>
0.0000

> <Gold.Chemscore.DEClash.Weighted>
0.0936

> <Gold.Chemscore.DEInternal.Weighted>
1.4325

> <Gold.Chemscore.Rot.Weighted>
3.2738

> <Gold.Chemscore.Internal.Correction.Weighted>
   9.000000E+99

> <Gold.Protein.RotatedTorsions>
[ 6907 6896 6895 6894 ] final   67.82 input  -60.11 | X-H torsion
[ 7974 7965 7964 7962 ] final -132.95 input  175.53 | X-H torsion
[ 8008 7997 7996 7995 ] final  140.36 input   59.86 | X-H torsion
[ 10167 10162 10161 10158 ] final   17.02 input  -65.29 | X-H torsion
[ 10718 10713 10712 10709 ] final -142.02 input   66.30 | X-H torsion
[ 10763 10752 10751 10750 ] final   29.49 input  -60.55 | X-H torsion
[ 11005 11000 10999 10996 ] final  -52.02 input  -57.11 | X-H torsion

> <Gold.Protein.ActiveResidues>
 VAL166  LYS551  ARG553  GLY616  TRP617  ASP618  TYR619  PRO620  LYS621  CYS622 
 ASP623  PHE694  ASN695  SER759  ASP760  ASP761  ALA762  ILE779  LEU786  VAL792 
 PHE793  MET794  SER795  GLU796  ALA797  LYS798  CYS799  TRP800  GLU811  SER814 

> <Gold.Protein.RotatedAtoms>
  152.4578  134.5253  159.9794 H   0  0  0  0  0  0  0  0  0  0  0  0  # atno 6907 bound_to 6896
  151.5309  133.3443  159.2926 H   0  0  0  0  0  0  0  0  0  0  0  0  # atno 6908 bound_to 6896
  150.8529  134.7889  159.7085 H   0  0  0  0  0  0  0  0  0  0  0  0  # atno 6909 bound_to 6896
  144.9238  140.7046  143.4949 H   0  0  0  0  0  0  0  0  0  0  0  0  # atno 7974 bound_to 7965
  156.2980  140.2343  156.4388 H   0  0  0  0  0  0  0  0  0  0  0  0  # atno 8008 bound_to 7997
  154.8204  140.0438  157.1427 H   0  0  0  0  0  0  0  0  0  0  0  0  # atno 8009 bound_to 7997
  154.9321  140.3018  155.5166 H   0  0  0  0  0  0  0  0  0  0  0  0  # atno 8010 bound_to 7997
  140.5756  143.9080  150.6747 H   0  0  0  0  0  0  0  0  0  0  0  0  # atno 10167 bound_to 10162
  156.3410  130.7637  151.1773 H   0  0  0  0  0  0  0  0  0  0  0  0  # atno 10718 bound_to 10713
  153.0427  135.6487  154.0899 H   0  0  0  0  0  0  0  0  0  0  0  0  # atno 10763 bound_to 10752
  154.0603  135.2888  155.3327 H   0  0  0  0  0  0  0  0  0  0  0  0  # atno 10764 bound_to 10752
  154.6662  135.5373  153.8145 H   0  0  0  0  0  0  0  0  0  0  0  0  # atno 10765 bound_to 10752
  141.0902  133.6634  156.3963 H   0  0  0  0  0  0  0  0  0  0  0  0  # atno 11005 bound_to 11000
  145.3253  139.1776  143.4566 LP  0  0  0  0  0  0  0  0  0  0  0  0  # atno 17320 bound_to 7965
  146.3217  140.3275  142.8638 LP  0  0  0  0  0  0  0  0  0  0  0  0  # atno 17321 bound_to 7965
  140.2566  143.3554  152.1360 LP  0  0  0  0  0  0  0  0  0  0  0  0  # atno 17342 bound_to 10162
  139.5141  144.6942  151.5676 LP  0  0  0  0  0  0  0  0  0  0  0  0  # atno 17343 bound_to 10162
  157.7447  131.0454  150.4844 LP  0  0  0  0  0  0  0  0  0  0  0  0  # atno 17370 bound_to 10713
  156.5024  130.4120  149.6346 LP  0  0  0  0  0  0  0  0  0  0  0  0  # atno 17371 bound_to 10713
  140.5269  134.6250  157.5337 LP  0  0  0  0  0  0  0  0  0  0  0  0  # atno 17394 bound_to 11000
  139.9727  134.7267  156.0010 LP  0  0  0  0  0  0  0  0  0  0  0  0  # atno 17395 bound_to 11000

$$$$
