AV-unprocessed.smi:246|AV-procd|sdf|1883|dock7
  -GOLD-   2262020533D 1   1.00000     0.00000
 Structure written by MMmdl.
 57 60  0  0  0  0  0  0  0  0  1 V2000
  145.7968  129.8244  150.8792 C   0  0  0  0  0  0  0  0  0  0  0  0
  145.7496  130.3458  152.3224 C   0  0  0  0  0  0  0  0  0  0  0  0
  146.6606  131.4162  152.5300 O   0  0  0  0  0  0  0  0  0  0  0  0
  146.2466  132.6550  151.9724 C   0  0  0  0  0  0  0  0  0  0  0  0
  147.2474  133.7386  152.3827 C   0  0  0  0  0  0  0  0  0  0  0  0
  147.3301  133.7784  153.7993 O   0  0  0  0  0  0  0  0  0  0  0  0
  148.6579  133.9011  154.2868 C   0  0  2  0  0  0  0  0  0  0  0  0
  148.7847  133.2887  155.6828 C   0  0  0  0  0  0  0  0  0  0  0  0
  149.9861  134.0173  156.2916 C   0  0  0  0  0  0  0  0  0  0  0  0
  150.0337  135.3027  155.6085 N   0  0  0  0  0  0  0  0  0  0  0  0
  150.7042  136.3793  156.0916 C   0  0  0  0  0  0  0  0  0  0  0  0
  151.7194  136.1606  156.9685 N   0  0  0  0  0  0  0  0  0  0  0  0
  152.4192  137.1833  157.4667 C   0  0  0  0  0  0  0  0  0  0  0  0
  152.2754  138.4865  157.2265 N   0  0  0  0  0  0  0  0  0  0  0  0
  151.2560  138.7184  156.3513 C   0  0  0  0  0  0  0  0  0  0  0  0
  150.4266  137.7341  155.7394 C   0  0  0  0  0  0  0  0  0  0  0  0
  149.5015  138.3593  154.9093 N   0  0  0  0  0  0  0  0  0  0  0  0
  149.7660  139.6313  155.0260 C   0  0  0  0  0  0  0  0  0  0  0  0
  150.8034  139.9368  155.8755 N   0  0  0  0  0  0  0  0  0  0  0  0
  151.3060  141.2654  156.1890 C   0  0  0  0  0  0  0  0  0  0  0  0
  150.4526  142.0231  157.2302 C   0  0  1  0  0  0  0  0  0  0  0  0
  150.1243  141.1426  158.2878 O   0  0  0  0  0  0  0  0  0  0  0  0
  151.1457  143.2691  157.8186 C   0  0  2  0  0  0  0  0  0  0  0  0
  152.2119  142.9692  158.8738 C   0  0  0  0  0  0  0  0  0  0  0  0
  152.2444  144.2324  159.7219 C   0  0  0  0  0  0  0  0  0  0  0  0
  150.9710  144.9825  159.3230 C   0  0  0  0  0  0  0  0  0  0  0  0
  150.2212  144.0481  158.5614 O   0  0  0  0  0  0  0  0  0  0  0  0
  149.0818  135.3571  154.5120 C   0  0  0  0  0  0  0  0  0  0  0  0
  149.3655  133.4025  153.6216 H   0  0  0  0  0  0  0  0  0  0  0  0
  145.1712  128.9383  150.7701 H   0  0  0  0  0  0  0  0  0  0  0  0
  146.8131  129.5498  150.5959 H   0  0  0  0  0  0  0  0  0  0  0  0
  145.4376  130.5662  150.1666 H   0  0  0  0  0  0  0  0  0  0  0  0
  144.7358  130.6356  152.6029 H   0  0  0  0  0  0  0  0  0  0  0  0
  146.0371  129.5384  152.9962 H   0  0  0  0  0  0  0  0  0  0  0  0
  146.1700  132.6047  150.8862 H   0  0  0  0  0  0  0  0  0  0  0  0
  145.2598  132.9112  152.3603 H   0  0  0  0  0  0  0  0  0  0  0  0
  148.2310  133.5003  151.9753 H   0  0  0  0  0  0  0  0  0  0  0  0
  146.9475  134.7028  151.9703 H   0  0  0  0  0  0  0  0  0  0  0  0
  147.8912  133.5160  156.2662 H   0  0  0  0  0  0  0  0  0  0  0  0
  148.9075  132.2056  155.6653 H   0  0  0  0  0  0  0  0  0  0  0  0
  149.8766  134.1261  157.3713 H   0  0  0  0  0  0  0  0  0  0  0  0
  150.9112  133.4756  156.0907 H   0  0  0  0  0  0  0  0  0  0  0  0
  153.2081  136.9195  158.1556 H   0  0  0  0  0  0  0  0  0  0  0  0
  149.2053  140.3876  154.4960 H   0  0  0  0  0  0  0  0  0  0  0  0
  152.3311  141.1688  156.5481 H   0  0  0  0  0  0  0  0  0  0  0  0
  151.3632  141.8381  155.2625 H   0  0  0  0  0  0  0  0  0  0  0  0
  149.5191  142.3246  156.7535 H   0  0  0  0  0  0  0  0  0  0  0  0
  150.6045  140.3377  158.1669 H   0  0  0  0  0  0  0  0  0  0  0  0
  151.5774  143.8866  157.0285 H   0  0  0  0  0  0  0  0  0  0  0  0
  151.9056  142.1241  159.4919 H   0  0  0  0  0  0  0  0  0  0  0  0
  153.1810  142.7302  158.4344 H   0  0  0  0  0  0  0  0  0  0  0  0
  152.2495  143.9855  160.7843 H   0  0  0  0  0  0  0  0  0  0  0  0
  153.1283  144.8363  159.5126 H   0  0  0  0  0  0  0  0  0  0  0  0
  150.4031  145.3351  160.1841 H   0  0  0  0  0  0  0  0  0  0  0  0
  151.2112  145.8433  158.6971 H   0  0  0  0  0  0  0  0  0  0  0  0
  149.5220  135.7864  153.6118 H   0  0  0  0  0  0  0  0  0  0  0  0
  148.2289  135.9674  154.8115 H   0  0  0  0  0  0  0  0  0  0  0  0
  1  2  1  0  0  0  0
  1 30  1  0  0  0  0
  1 31  1  0  0  0  0
  1 32  1  0  0  0  0
  2  3  1  0  0  0  0
  2 33  1  0  0  0  0
  2 34  1  0  0  0  0
  3  4  1  0  0  0  0
  4  5  1  0  0  0  0
  4 35  1  0  0  0  0
  4 36  1  0  0  0  0
  5  6  1  0  0  0  0
  5 37  1  0  0  0  0
  5 38  1  0  0  0  0
  6  7  1  0  0  0  0
  7 29  1  0  0  0  0
  7 28  1  0  0  0  0
  7  8  1  0  0  0  0
  8  9  1  0  0  0  0
  8 39  1  0  0  0  0
  8 40  1  0  0  0  0
  9 10  1  0  0  0  0
  9 41  1  0  0  0  0
  9 42  1  0  0  0  0
 10 11  1  0  0  0  0
 10 28  1  0  0  0  0
 11 16  1  0  0  0  0
 11 12  2  0  0  0  0
 12 13  1  0  0  0  0
 13 14  2  0  0  0  0
 13 43  1  0  0  0  0
 14 15  1  0  0  0  0
 15 19  1  0  0  0  0
 15 16  2  0  0  0  0
 16 17  1  0  0  0  0
 17 18  2  0  0  0  0
 18 19  1  0  0  0  0
 18 44  1  0  0  0  0
 19 20  1  0  0  0  0
 20 21  1  0  0  0  0
 20 45  1  0  0  0  0
 20 46  1  0  0  0  0
 21 22  1  0  0  0  0
 21 23  1  0  0  0  0
 21 47  1  0  0  0  0
 22 48  1  0  0  0  0
 23 27  1  0  0  0  0
 23 24  1  0  0  0  0
 23 49  1  0  0  0  0
 24 25  1  0  0  0  0
 24 50  1  0  0  0  0
 24 51  1  0  0  0  0
 25 26  1  0  0  0  0
 25 52  1  0  0  0  0
 25 53  1  0  0  0  0
 26 27  1  0  0  0  0
 26 54  1  0  0  0  0
 26 55  1  0  0  0  0
 28 56  1  0  0  0  0
 28 57  1  0  0  0  0
M  END
> <s_m_source_file>
AV-unprocessed.smi

> <i_m_source_file_index>
246

> <i_lp_mmshare_version>
43012

> <i_f3d_flags>
0

> <s_epik_input>
W0NIM11bQ0gyXU9bQ0gyXVtDSDJdT1tDQEhdMVtDSDJdW0NIMl1OKFtDSDJdMSljKG5bY0hdbjIpYyhjMjMpbltjSF1uM1tDSDJdW0NASF0oW09IXSlbQ0BASF00W0NIMl1bQ0gyXVtDSDJdTzQ=

> <s_epik_cmdline>
J2VwaWtfcHl0aG9uJywgJy1waCcsICc3LjAnLCAnLXRuJywgJzgnLCAnLW1hJywgJzIwMCcsICctbWV0YWxfYmluZGluZycsICctaW1hZScsICc8aW5maWxlLm1hZT4nLCAnLW9tYWUnLCAnPG91dGZpbGUubWFlPic=

> <r_lp_tautomer_probability>
1

> <r_epik_Ionization_Penalty>
0.0024631

> <r_epik_Ionization_Penalty_Charging>
0

> <r_epik_Ionization_Penalty_Neutral>
0.0024631

> <r_epik_State_Penalty>
0.00162428

> <r_epik_Charging_Adjusted_Penalty>
0.00162428

> <i_epik_Tot_Q>
0

> <i_epik_Tot_abs_Q>
0

> <r_epik_Metal_State_Penalty>
-0

> <b_epik_Metal_Only>
0

> <s_lp_Force_Field>
OPLS_2005

> <r_lp_Energy>
48.0332

> <b_lp_Chiralities_Consistent>
1

> <s_lp_Variant>
AV-unprocessed.smi:246-4

> <Gold.Version>
5.8.1

> <Gold.Id.Protein>
6NUR|6NUR_protein|mol2

> <Gold.PLP.Fitness>
49.0403

> <Gold.PLP.PLP>
-45.5342

> <Gold.PLP.part.hbond>
-2.0000

> <Gold.PLP.part.metal>
0.0000

> <Gold.PLP.part.buried>
-5.0545

> <Gold.PLP.part.nonpolar>
-39.5337

> <Gold.PLP.part.repulsive>
0.4651

> <Gold.PLP.ligand.clash>
0.0000

> <Gold.PLP.ligand.torsion>
1.4367

> <Gold.PLP.Chemscore.Hbond>
2.0000

> <Gold.PLP.Chemscore.CHOScore>
0.0000

> <Gold.PLP.Chemscore.Metal>
0.0000

> <Gold.PLP.Chemscore.Internal.Correction>
0.3795

> <Gold.Rescore>
     Score         DG    S(hbond)    S(metal)    S(lipo)     H(rot)  DE(clash)    DE(int)     intcor
     12.65     -15.43       1.39        0.00     113.22       3.10       0.47       2.31       ----

> <Gold.Chemscore.Fitness>
12.6486

> <Gold.Chemscore.DG>
-15.4335

> <Gold.Chemscore.ZeroCoef>
-5.4800

> <Gold.Chemscore.Hbond>
1.3920

> <Gold.Chemscore.Metal>
0.0000

> <Gold.Chemscore.Lipo>
113.2219

> <Gold.Chemscore.Internal_Hbond>
0.0000

> <Gold.Chemscore.DEClash>
0.4742

> <Gold.Chemscore.DEInternal>
2.3107

> <Gold.Chemscore.Rot>
3.1026

> <Gold.Chemscore.Internal.Correction>
   9.000000E+99

> <Gold.Chemscore.Hbond.Weighted>
-4.6492

> <Gold.Chemscore.Metal.Weighted>
-0.0000

> <Gold.Chemscore.Lipo.Weighted>
-13.2470

> <Gold.Chemscore.Internal_Hbond.Weighted>
0.0000

> <Gold.Chemscore.DEClash.Weighted>
0.4742

> <Gold.Chemscore.DEInternal.Weighted>
2.3107

> <Gold.Chemscore.Rot.Weighted>
7.9426

> <Gold.Chemscore.Internal.Correction.Weighted>
   9.000000E+99

> <Gold.Protein.RotatedTorsions>
[ 6907 6896 6895 6894 ] final -106.96 input  -60.11 | X-H torsion
[ 7974 7965 7964 7962 ] final  106.50 input  175.53 | X-H torsion
[ 8008 7997 7996 7995 ] final   63.76 input   59.86 | X-H torsion
[ 10167 10162 10161 10158 ] final  135.15 input  -65.29 | X-H torsion
[ 10718 10713 10712 10709 ] final  140.49 input   66.30 | X-H torsion
[ 10763 10752 10751 10750 ] final  117.47 input  -60.55 | X-H torsion
[ 11005 11000 10999 10996 ] final   28.40 input  -57.11 | X-H torsion

> <Gold.Protein.ActiveResidues>
 VAL166  LYS551  ARG553  GLY616  TRP617  ASP618  TYR619  PRO620  LYS621  CYS622 
 ASP623  PHE694  ASN695  SER759  ASP760  ASP761  ALA762  ILE779  LEU786  VAL792 
 PHE793  MET794  SER795  GLU796  ALA797  LYS798  CYS799  TRP800  GLU811  SER814 

> <Gold.Protein.RotatedAtoms>
  150.7417  133.9899  159.3603 H   0  0  0  0  0  0  0  0  0  0  0  0  # atno 6907 bound_to 6896
  151.7846  135.0750  160.0388 H   0  0  0  0  0  0  0  0  0  0  0  0  # atno 6908 bound_to 6896
  152.3250  133.5859  159.5807 H   0  0  0  0  0  0  0  0  0  0  0  0  # atno 6909 bound_to 6896
  145.3059  139.2555  143.3789 H   0  0  0  0  0  0  0  0  0  0  0  0  # atno 7974 bound_to 7965
  155.6352  140.3496  155.4696 H   0  0  0  0  0  0  0  0  0  0  0  0  # atno 8008 bound_to 7997
  155.9970  140.1205  157.0607 H   0  0  0  0  0  0  0  0  0  0  0  0  # atno 8009 bound_to 7997
  154.4237  140.1108  156.5631 H   0  0  0  0  0  0  0  0  0  0  0  0  # atno 8010 bound_to 7997
  139.5228  144.6532  151.5241 H   0  0  0  0  0  0  0  0  0  0  0  0  # atno 10167 bound_to 10162
  157.4027  131.1018  151.0535 H   0  0  0  0  0  0  0  0  0  0  0  0  # atno 10718 bound_to 10713
  153.5528  135.3536  155.2766 H   0  0  0  0  0  0  0  0  0  0  0  0  # atno 10763 bound_to 10752
  154.8704  135.4118  154.2918 H   0  0  0  0  0  0  0  0  0  0  0  0  # atno 10764 bound_to 10752
  153.3647  135.7061  153.6753 H   0  0  0  0  0  0  0  0  0  0  0  0  # atno 10765 bound_to 10752
  140.3160  134.2596  155.7725 H   0  0  0  0  0  0  0  0  0  0  0  0  # atno 11005 bound_to 11000
  146.3135  140.3583  142.8662 LP  0  0  0  0  0  0  0  0  0  0  0  0  # atno 17320 bound_to 7965
  144.9056  140.7695  143.5840 LP  0  0  0  0  0  0  0  0  0  0  0  0  # atno 17321 bound_to 7965
  140.6345  143.9010  150.6635 LP  0  0  0  0  0  0  0  0  0  0  0  0  # atno 17342 bound_to 10162
  140.2325  143.3725  152.1554 LP  0  0  0  0  0  0  0  0  0  0  0  0  # atno 17343 bound_to 10162
  157.1528  130.6192  149.5587 LP  0  0  0  0  0  0  0  0  0  0  0  0  # atno 17370 bound_to 10713
  155.9828  130.4843  150.6898 LP  0  0  0  0  0  0  0  0  0  0  0  0  # atno 17371 bound_to 10713
  141.2097  133.7740  156.9977 LP  0  0  0  0  0  0  0  0  0  0  0  0  # atno 17394 bound_to 11000
  140.0983  134.9551  157.1883 LP  0  0  0  0  0  0  0  0  0  0  0  0  # atno 17395 bound_to 11000

$$$$
