AV-unprocessed.smi:1033|AV-procd|sdf|4504|dock10
  -GOLD-   22720 2503D 1   1.00000     0.00000
 Structure written by MMmdl.
 57 59  0  0  0  0  0  0  0  0  3 V2000
  153.4053  142.7742  160.3274 C   0  0  0  0  0  0  0  0  0  0  0  0
  152.5393  142.3710  159.1462 C   0  0  0  0  0  0  0  0  0  0  0  0
  152.4330  140.9984  158.8252 C   0  0  0  0  0  0  0  0  0  0  0  0
  151.6350  140.6613  157.7385 C   0  0  0  0  0  0  0  0  0  0  0  0
  151.3301  139.4198  157.1760 N   0  3  0  0  0  0  0  0  0  0  0  0
  150.4987  139.5950  156.1117 C   0  0  0  0  0  0  0  0  0  0  0  0
  150.2679  140.9303  155.9877 N   0  0  0  0  0  0  0  0  0  0  0  0
  149.4493  141.6607  155.0112 C   0  0  0  0  0  0  0  0  0  0  0  0
  147.9366  141.5556  155.2928 C   0  0  2  0  0  0  0  0  0  0  0  0
  147.6870  142.0808  156.5827 O   0  0  0  0  0  0  0  0  0  0  0  0
  147.4512  140.0925  155.2372 C   0  0  0  0  0  0  0  0  0  0  0  0
  148.3062  139.1735  154.4761 N   0  0  0  0  0  0  0  0  0  0  0  0
  148.1076  137.7749  154.8559 C   0  0  0  0  0  0  0  0  0  0  0  0
  146.7564  137.2012  154.3813 C   0  0  0  0  0  0  0  0  0  0  0  0
  146.6233  137.3382  152.9080 N   0  3  0  0  0  0  0  0  0  0  0  0
  145.3635  136.7415  152.3962 C   0  0  0  0  0  0  0  0  0  0  0  0
  145.6024  135.7256  151.2616 C   0  0  1  0  0  0  0  0  0  0  0  0
  144.4890  134.6729  151.1535 C   0  0  0  0  0  0  0  0  0  0  0  0
  145.6645  136.4294  150.0392 O   0  0  0  0  0  0  0  0  0  0  0  0
  146.8251  138.7520  152.4907 C   0  0  0  0  0  0  0  0  0  0  0  0
  148.1744  139.2789  153.0211 C   0  0  0  0  0  0  0  0  0  0  0  0
  150.9563  141.6347  156.9802 C   0  0  0  0  0  0  0  0  0  0  0  0
  151.0494  142.9911  157.2822 C   0  0  0  0  0  0  0  0  0  0  0  0
  151.8551  143.3542  158.3851 C   0  0  0  0  0  0  0  0  0  0  0  0
  151.9739  144.8264  158.7413 C   0  0  0  0  0  0  0  0  0  0  0  0
  153.8618  141.9054  160.8027 H   0  0  0  0  0  0  0  0  0  0  0  0
  152.8100  143.2909  161.0804 H   0  0  0  0  0  0  0  0  0  0  0  0
  154.2084  143.4371  160.0042 H   0  0  0  0  0  0  0  0  0  0  0  0
  152.9502  140.2446  159.4004 H   0  0  0  0  0  0  0  0  0  0  0  0
  150.0937  138.8159  155.4817 H   0  0  0  0  0  0  0  0  0  0  0  0
  149.7754  142.7017  155.0030 H   0  0  0  0  0  0  0  0  0  0  0  0
  149.6800  141.2564  154.0244 H   0  0  0  0  0  0  0  0  0  0  0  0
  147.3957  142.1539  154.5586 H   0  0  0  0  0  0  0  0  0  0  0  0
  148.1039  142.9261  156.6481 H   0  0  0  0  0  0  0  0  0  0  0  0
  147.4219  139.7264  156.2642 H   0  0  0  0  0  0  0  0  0  0  0  0
  146.4172  140.0530  154.8946 H   0  0  0  0  0  0  0  0  0  0  0  0
  148.9139  137.1740  154.4327 H   0  0  0  0  0  0  0  0  0  0  0  0
  148.1964  137.6675  155.9376 H   0  0  0  0  0  0  0  0  0  0  0  0
  146.7006  136.1469  154.6552 H   0  0  0  0  0  0  0  0  0  0  0  0
  145.9229  137.6984  154.8790 H   0  0  0  0  0  0  0  0  0  0  0  0
  144.8441  136.2338  153.2106 H   0  0  0  0  0  0  0  0  0  0  0  0
  144.6988  137.5411  152.0637 H   0  0  0  0  0  0  0  0  0  0  0  0
  146.5630  135.2271  151.3882 H   0  0  0  0  0  0  0  0  0  0  0  0
  144.4249  134.0707  152.0602 H   0  0  0  0  0  0  0  0  0  0  0  0
  144.6730  133.9911  150.3225 H   0  0  0  0  0  0  0  0  0  0  0  0
  143.5153  135.1374  150.9931 H   0  0  0  0  0  0  0  0  0  0  0  0
  145.9596  135.8401  149.3616 H   0  0  0  0  0  0  0  0  0  0  0  0
  146.8227  138.8266  151.4039 H   0  0  0  0  0  0  0  0  0  0  0  0
  146.0002  139.3701  152.8472 H   0  0  0  0  0  0  0  0  0  0  0  0
  148.3294  140.3075  152.6978 H   0  0  0  0  0  0  0  0  0  0  0  0
  148.9783  138.7082  152.5535 H   0  0  0  0  0  0  0  0  0  0  0  0
  150.5287  143.7383  156.7020 H   0  0  0  0  0  0  0  0  0  0  0  0
  151.3732  145.4479  158.0766 H   0  0  0  0  0  0  0  0  0  0  0  0
  153.0096  145.1569  158.6608 H   0  0  0  0  0  0  0  0  0  0  0  0
  151.6312  145.0036  159.7609 H   0  0  0  0  0  0  0  0  0  0  0  0
  147.3804  136.8019  152.5088 H   0  0  0  0  0  0  0  0  0  0  0  0
  151.6629  138.5182  157.4925 H   0  0  0  0  0  0  0  0  0  0  0  0
  1  2  1  0  0  0  0
  1 26  1  0  0  0  0
  1 27  1  0  0  0  0
  1 28  1  0  0  0  0
  2 24  1  0  0  0  0
  2  3  2  0  0  0  0
  3  4  1  0  0  0  0
  3 29  1  0  0  0  0
  4 22  2  0  0  0  0
  4  5  1  0  0  0  0
  5  6  2  0  0  0  0
  5 57  1  0  0  0  0
  6  7  1  0  0  0  0
  6 30  1  0  0  0  0
  7  8  1  0  0  0  0
  7 22  1  0  0  0  0
  8  9  1  0  0  0  0
  8 31  1  0  0  0  0
  8 32  1  0  0  0  0
  9 10  1  0  0  0  0
  9 11  1  0  0  0  0
  9 33  1  0  0  0  0
 10 34  1  0  0  0  0
 11 12  1  0  0  0  0
 11 35  1  0  0  0  0
 11 36  1  0  0  0  0
 12 21  1  0  0  0  0
 12 13  1  0  0  0  0
 13 14  1  0  0  0  0
 13 37  1  0  0  0  0
 13 38  1  0  0  0  0
 14 15  1  0  0  0  0
 14 39  1  0  0  0  0
 14 40  1  0  0  0  0
 15 16  1  0  0  0  0
 15 20  1  0  0  0  0
 15 56  1  0  0  0  0
 16 17  1  0  0  0  0
 16 41  1  0  0  0  0
 16 42  1  0  0  0  0
 17 18  1  0  0  0  0
 17 19  1  0  0  0  0
 17 43  1  0  0  0  0
 18 44  1  0  0  0  0
 18 45  1  0  0  0  0
 18 46  1  0  0  0  0
 19 47  1  0  0  0  0
 20 21  1  0  0  0  0
 20 48  1  0  0  0  0
 20 49  1  0  0  0  0
 21 50  1  0  0  0  0
 21 51  1  0  0  0  0
 22 23  1  0  0  0  0
 23 24  2  0  0  0  0
 23 52  1  0  0  0  0
 24 25  1  0  0  0  0
 25 53  1  0  0  0  0
 25 54  1  0  0  0  0
 25 55  1  0  0  0  0
M  CHG  1   5   1
M  CHG  1  15   1
M  END
> <s_m_source_file>
AV-unprocessed.smi

> <i_m_source_file_index>
1033

> <i_lp_mmshare_version>
43012

> <i_f3d_flags>
0

> <s_epik_input>
W0NIM11jKFtjSF0xKWMoW0NIM10pW2NIXWMoYzEyKW4oW2NIXW4yKVtDSDJdW0NASF0oW09IXSlbQ0gyXU4zW0NIMl1bQ0gyXU4oW0NIMl1bQ0gyXTMpW0NIMl1bQ0BIXShbQ0gzXSlbT0hd

> <s_epik_cmdline>
J2VwaWtfcHl0aG9uJywgJy1waCcsICc3LjAnLCAnLXRuJywgJzgnLCAnLW1hJywgJzIwMCcsICctbWV0YWxfYmluZGluZycsICctaW1hZScsICc8aW5maWxlLm1hZT4nLCAnLW9tYWUnLCAnPG91dGZpbGUubWFlPic=

> <r_epik_Ionization_Penalty>
1.28617

> <r_epik_Ionization_Penalty_Charging>
1.23646

> <r_epik_Ionization_Penalty_Neutral>
0.0497112

> <r_epik_State_Penalty>
1.79157

> <r_epik_Charging_Adjusted_Penalty>
3.02803

> <i_epik_Tot_Q>
2

> <i_epik_Tot_abs_Q>
2

> <r_epik_Metal_State_Penalty>
5.81739

> <b_epik_Metal_Only>
0

> <s_lp_Force_Field>
OPLS_2005

> <r_lp_Energy>
41.725

> <b_lp_Chiralities_Consistent>
1

> <s_lp_Variant>
AV-unprocessed.smi:1033-15

> <Gold.Version>
5.8.1

> <Gold.Id.Protein>
6NUR|6NUR_protein|mol2

> <Gold.PLP.Fitness>
55.3490

> <Gold.PLP.PLP>
-47.0286

> <Gold.PLP.part.hbond>
-4.0000

> <Gold.PLP.part.metal>
0.0000

> <Gold.PLP.part.buried>
1.9175

> <Gold.PLP.part.nonpolar>
-44.8005

> <Gold.PLP.part.repulsive>
0.2113

> <Gold.PLP.ligand.clash>
0.0000

> <Gold.PLP.ligand.torsion>
1.9175

> <Gold.PLP.Chemscore.Hbond>
4.0000

> <Gold.PLP.Chemscore.CHOScore>
0.0000

> <Gold.PLP.Chemscore.Metal>
0.0000

> <Gold.Chemscore.Hbonds>
donor molecule, donor type, donor heavy atom, donor atom, acceptor molecule, acceptor atom, score
      L1  H    10    34       P1  8028  0.62
      L1  H    15    56       P1  7948  2.00
      L1  H    19    47       P1  7921  1.00

> <Gold.PLP.Chemscore.Internal.Correction>
0.1553

> <Gold.Rescore>
     Score         DG    S(hbond)    S(metal)    S(lipo)     H(rot)  DE(clash)    DE(int)     intcor
     15.08     -20.72       2.16        0.00     137.52       3.15       2.08       3.56       ----

> <Gold.Chemscore.Fitness>
15.0767

> <Gold.Chemscore.DG>
-20.7203

> <Gold.Chemscore.ZeroCoef>
-5.4800

> <Gold.Chemscore.Hbond>
2.1587

> <Gold.Chemscore.Metal>
0.0000

> <Gold.Chemscore.Lipo>
137.5215

> <Gold.Chemscore.Internal_Hbond>
0.0000

> <Gold.Chemscore.DEClash>
2.0836

> <Gold.Chemscore.DEInternal>
3.5600

> <Gold.Chemscore.Rot>
3.1483

> <Gold.Chemscore.Internal.Correction>
   9.000000E+99

> <Gold.Chemscore.Hbonds>
donor molecule, donor type, donor heavy atom, donor atom, acceptor molecule, acceptor atom, score
      L1  H    10    34       P1  8028  0.24
      L1  H    15    56       P1  7948  1.00
      L1  H    19    47       P1  7921  0.95

> <Gold.Chemscore.Hbond.Weighted>
-7.2100

> <Gold.Chemscore.Metal.Weighted>
-0.0000

> <Gold.Chemscore.Lipo.Weighted>
-16.0900

> <Gold.Chemscore.Internal_Hbond.Weighted>
0.0000

> <Gold.Chemscore.DEClash.Weighted>
2.0836

> <Gold.Chemscore.DEInternal.Weighted>
3.5600

> <Gold.Chemscore.Rot.Weighted>
8.0597

> <Gold.Chemscore.Internal.Correction.Weighted>
   9.000000E+99

> <Gold.Protein.RotatedTorsions>
[ 6907 6896 6895 6894 ] final  165.85 input  -60.11 | X-H torsion
[ 7974 7965 7964 7962 ] final -179.34 input  175.53 | X-H torsion
[ 8008 7997 7996 7995 ] final  173.46 input   59.86 | X-H torsion
[ 10167 10162 10161 10158 ] final  -45.90 input  -65.29 | X-H torsion
[ 10718 10713 10712 10709 ] final   87.37 input   66.30 | X-H torsion
[ 10763 10752 10751 10750 ] final   62.79 input  -60.55 | X-H torsion
[ 11005 11000 10999 10996 ] final   -8.69 input  -57.11 | X-H torsion

> <Gold.Protein.ActiveResidues>
 VAL166  LYS551  ARG553  GLY616  TRP617  ASP618  TYR619  PRO620  LYS621  CYS622 
 ASP623  PHE694  ASN695  SER759  ASP760  ASP761  ALA762  ILE779  LEU786  VAL792 
 PHE793  MET794  SER795  GLU796  ALA797  LYS798  CYS799  TRP800  GLU811  SER814 

> <Gold.Protein.RotatedAtoms>
  151.8880  133.3509  159.3788 H   0  0  0  0  0  0  0  0  0  0  0  0  # atno 6907 bound_to 6896
  150.7110  134.4952  159.5544 H   0  0  0  0  0  0  0  0  0  0  0  0  # atno 6908 bound_to 6896
  152.2517  134.8126  160.0496 H   0  0  0  0  0  0  0  0  0  0  0  0  # atno 6909 bound_to 6896
  144.7136  140.0733  143.6428 H   0  0  0  0  0  0  0  0  0  0  0  0  # atno 7974 bound_to 7965
  156.1073  140.1459  156.9386 H   0  0  0  0  0  0  0  0  0  0  0  0  # atno 8008 bound_to 7997
  154.4743  140.0899  156.7266 H   0  0  0  0  0  0  0  0  0  0  0  0  # atno 8009 bound_to 7997
  155.4657  140.3440  155.4321 H   0  0  0  0  0  0  0  0  0  0  0  0  # atno 8010 bound_to 7997
  140.6839  143.2857  151.3705 H   0  0  0  0  0  0  0  0  0  0  0  0  # atno 10167 bound_to 10162
  157.6939  131.0253  150.3113 H   0  0  0  0  0  0  0  0  0  0  0  0  # atno 10718 bound_to 10713
  152.9995  135.5452  154.6248 H   0  0  0  0  0  0  0  0  0  0  0  0  # atno 10763 bound_to 10752
  154.5539  135.2828  155.0985 H   0  0  0  0  0  0  0  0  0  0  0  0  # atno 10764 bound_to 10752
  154.2213  135.6450  153.5198 H   0  0  0  0  0  0  0  0  0  0  0  0  # atno 10765 bound_to 10752
  140.7262  133.8787  155.8858 H   0  0  0  0  0  0  0  0  0  0  0  0  # atno 11005 bound_to 11000
  145.9765  139.2908  143.1068 LP  0  0  0  0  0  0  0  0  0  0  0  0  # atno 17320 bound_to 7965
  145.9059  140.9212  143.0479 LP  0  0  0  0  0  0  0  0  0  0  0  0  # atno 17321 bound_to 7965
  139.6183  144.0959  152.2366 LP  0  0  0  0  0  0  0  0  0  0  0  0  # atno 17342 bound_to 10162
  140.0395  144.6018  150.7423 LP  0  0  0  0  0  0  0  0  0  0  0  0  # atno 17343 bound_to 10162
  156.3614  130.3847  149.7248 LP  0  0  0  0  0  0  0  0  0  0  0  0  # atno 17370 bound_to 10713
  156.4693  130.7989  151.3007 LP  0  0  0  0  0  0  0  0  0  0  0  0  # atno 17371 bound_to 10713
  140.9960  134.1214  157.4363 LP  0  0  0  0  0  0  0  0  0  0  0  0  # atno 17394 bound_to 11000
  139.8836  135.0055  156.6315 LP  0  0  0  0  0  0  0  0  0  0  0  0  # atno 17395 bound_to 11000

$$$$
