AV-unprocessed.smi:1207|AV-procd|sdf|5056|dock5
  -GOLD-   22720 4 93D 1   1.00000     0.00000
 Structure written by MMmdl.
 52 54  0  0  0  0  0  0  0  0  2 V2000
  152.3961  143.5290  161.1276 C   0  0  0  0  0  0  0  0  0  0  0  0
  152.1531  142.6310  159.9263 C   0  0  0  0  0  0  0  0  0  0  0  0
  152.1504  141.2309  160.1204 C   0  0  0  0  0  0  0  0  0  0  0  0
  151.9317  140.4361  159.0015 C   0  0  0  0  0  0  0  0  0  0  0  0
  151.8746  139.0476  158.8607 N   0  3  0  0  0  0  0  0  0  0  0  0
  151.6372  138.7323  157.5571 C   0  0  0  0  0  0  0  0  0  0  0  0
  151.5401  139.8996  156.8650 N   0  0  0  0  0  0  0  0  0  0  0  0
  151.2979  140.1334  155.4356 C   0  0  0  0  0  0  0  0  0  0  0  0
  149.8007  140.1091  155.0725 C   0  0  1  0  0  0  0  0  0  0  0  0
  149.5608  141.0535  154.0474 O   0  0  0  0  0  0  0  0  0  0  0  0
  149.3633  138.7183  154.5714 C   0  0  0  0  0  0  0  0  0  0  0  0
  149.4596  137.6328  155.5509 N   0  0  0  0  0  0  0  0  0  0  0  0
  150.6996  136.8710  155.3965 C   0  0  0  0  0  0  0  0  0  0  0  0
  148.2919  136.7552  155.4573 C   0  0  0  0  0  0  0  0  0  0  0  0
  148.3952  135.5407  156.3445 C   0  0  0  0  0  0  0  0  0  0  0  0
  148.5164  134.1760  155.9558 C   0  0  0  0  0  0  0  0  0  0  0  0
  148.5745  133.6031  154.5690 C   0  0  0  0  0  0  0  0  0  0  0  0
  148.5850  133.3686  157.0011 N   0  0  0  0  0  0  0  0  0  0  0  0
  148.5124  134.1938  158.1278 O   0  0  0  0  0  0  0  0  0  0  0  0
  148.3994  135.4804  157.7110 C   0  0  0  0  0  0  0  0  0  0  0  0
  148.3126  136.5231  158.7735 C   0  0  0  0  0  0  0  0  0  0  0  0
  151.7171  140.9885  157.7241 C   0  0  0  0  0  0  0  0  0  0  0  0
  151.7132  142.3651  157.5151 C   0  0  0  0  0  0  0  0  0  0  0  0
  151.9372  143.1905  158.6402 C   0  0  0  0  0  0  0  0  0  0  0  0
  151.9435  144.6967  158.4427 C   0  0  0  0  0  0  0  0  0  0  0  0
  152.5124  142.9483  162.0431 H   0  0  0  0  0  0  0  0  0  0  0  0
  151.5599  144.2134  161.2725 H   0  0  0  0  0  0  0  0  0  0  0  0
  153.3044  144.1156  160.9876 H   0  0  0  0  0  0  0  0  0  0  0  0
  152.3143  140.7978  161.0963 H   0  0  0  0  0  0  0  0  0  0  0  0
  151.5469  137.7373  157.1454 H   0  0  0  0  0  0  0  0  0  0  0  0
  151.7352  141.1005  155.1829 H   0  0  0  0  0  0  0  0  0  0  0  0
  151.8510  139.3854  154.8664 H   0  0  0  0  0  0  0  0  0  0  0  0
  149.2279  140.4027  155.9504 H   0  0  0  0  0  0  0  0  0  0  0  0
  149.7399  140.6399  153.2164 H   0  0  0  0  0  0  0  0  0  0  0  0
  148.3326  138.8030  154.2231 H   0  0  0  0  0  0  0  0  0  0  0  0
  149.9496  138.4533  153.6902 H   0  0  0  0  0  0  0  0  0  0  0  0
  150.7603  136.0618  156.1244 H   0  0  0  0  0  0  0  0  0  0  0  0
  151.5769  137.4950  155.5576 H   0  0  0  0  0  0  0  0  0  0  0  0
  150.7706  136.4319  154.4007 H   0  0  0  0  0  0  0  0  0  0  0  0
  147.3998  137.3167  155.7377 H   0  0  0  0  0  0  0  0  0  0  0  0
  148.1344  136.4678  154.4169 H   0  0  0  0  0  0  0  0  0  0  0  0
  149.2717  134.1627  153.9453 H   0  0  0  0  0  0  0  0  0  0  0  0
  147.5956  133.6423  154.0909 H   0  0  0  0  0  0  0  0  0  0  0  0
  148.9007  132.5621  154.5746 H   0  0  0  0  0  0  0  0  0  0  0  0
  147.8372  137.4276  158.3936 H   0  0  0  0  0  0  0  0  0  0  0  0
  149.3069  136.7893  159.1317 H   0  0  0  0  0  0  0  0  0  0  0  0
  147.7290  136.1672  159.6225 H   0  0  0  0  0  0  0  0  0  0  0  0
  151.5494  142.7895  156.5355 H   0  0  0  0  0  0  0  0  0  0  0  0
  151.7782  144.9634  157.3983 H   0  0  0  0  0  0  0  0  0  0  0  0
  152.9017  145.1192  158.7464 H   0  0  0  0  0  0  0  0  0  0  0  0
  151.1552  145.1629  159.0342 H   0  0  0  0  0  0  0  0  0  0  0  0
  151.9908  138.3631  159.5970 H   0  0  0  0  0  0  0  0  0  0  0  0
  1  2  1  0  0  0  0
  1 26  1  0  0  0  0
  1 27  1  0  0  0  0
  1 28  1  0  0  0  0
  2 24  1  0  0  0  0
  2  3  2  0  0  0  0
  3  4  1  0  0  0  0
  3 29  1  0  0  0  0
  4 22  2  0  0  0  0
  4  5  1  0  0  0  0
  5  6  2  0  0  0  0
  5 52  1  0  0  0  0
  6  7  1  0  0  0  0
  6 30  1  0  0  0  0
  7  8  1  0  0  0  0
  7 22  1  0  0  0  0
  8  9  1  0  0  0  0
  8 31  1  0  0  0  0
  8 32  1  0  0  0  0
  9 10  1  0  0  0  0
  9 11  1  0  0  0  0
  9 33  1  0  0  0  0
 10 34  1  0  0  0  0
 11 12  1  0  0  0  0
 11 35  1  0  0  0  0
 11 36  1  0  0  0  0
 12 13  1  0  0  0  0
 12 14  1  0  0  0  0
 13 37  1  0  0  0  0
 13 38  1  0  0  0  0
 13 39  1  0  0  0  0
 14 15  1  0  0  0  0
 14 40  1  0  0  0  0
 14 41  1  0  0  0  0
 15 20  2  0  0  0  0
 15 16  1  0  0  0  0
 16 17  1  0  0  0  0
 16 18  2  0  0  0  0
 17 42  1  0  0  0  0
 17 43  1  0  0  0  0
 17 44  1  0  0  0  0
 18 19  1  0  0  0  0
 19 20  1  0  0  0  0
 20 21  1  0  0  0  0
 21 45  1  0  0  0  0
 21 46  1  0  0  0  0
 21 47  1  0  0  0  0
 22 23  1  0  0  0  0
 23 24  2  0  0  0  0
 23 48  1  0  0  0  0
 24 25  1  0  0  0  0
 25 49  1  0  0  0  0
 25 50  1  0  0  0  0
 25 51  1  0  0  0  0
M  CHG  1   5   1
M  END
> <s_m_source_file>
AV-unprocessed.smi

> <i_m_source_file_index>
1207

> <i_lp_mmshare_version>
43012

> <i_f3d_flags>
0

> <s_epik_input>
W0NIM11jKFtjSF0xKWMoW0NIM10pW2NIXWMoYzEyKW4oW2NIXW4yKVtDSDJdW0NASF0oW09IXSlbQ0gyXU4oW0NIM10pW0NIMl1jM2MoW0NIM10pbm9jM1tDSDNd

> <s_epik_cmdline>
J2VwaWtfcHl0aG9uJywgJy1waCcsICc3LjAnLCAnLXRuJywgJzgnLCAnLW1hJywgJzIwMCcsICctbWV0YWxfYmluZGluZycsICctaW1hZScsICc8aW5maWxlLm1hZT4nLCAnLW9tYWUnLCAnPG91dGZpbGUubWFlPic=

> <r_epik_Ionization_Penalty>
1.48114

> <r_epik_Ionization_Penalty_Charging>
1.21121

> <r_epik_Ionization_Penalty_Neutral>
0.269933

> <r_epik_State_Penalty>
1.53013

> <r_epik_Charging_Adjusted_Penalty>
2.74134

> <i_epik_Tot_Q>
1

> <i_epik_Tot_abs_Q>
1

> <r_epik_Metal_State_Penalty>
1.60462

> <b_epik_Metal_Only>
0

> <s_lp_Force_Field>
OPLS_2005

> <r_lp_Energy>
20.0432

> <b_lp_Chiralities_Consistent>
1

> <s_lp_Variant>
AV-unprocessed.smi:1207-8

> <Gold.Version>
5.8.1

> <Gold.Id.Protein>
6NUR|6NUR_protein|mol2

> <Gold.PLP.Fitness>
46.3351

> <Gold.PLP.PLP>
-43.0049

> <Gold.PLP.part.hbond>
-4.0000

> <Gold.PLP.part.metal>
0.0000

> <Gold.PLP.part.buried>
-2.8134

> <Gold.PLP.part.nonpolar>
-36.0071

> <Gold.PLP.part.repulsive>
0.1901

> <Gold.PLP.ligand.clash>
0.0000

> <Gold.PLP.ligand.torsion>
1.4453

> <Gold.PLP.Chemscore.Hbond>
1.9913

> <Gold.PLP.Chemscore.CHOScore>
0.0000

> <Gold.PLP.Chemscore.Metal>
0.0000

> <Gold.Chemscore.Hbonds>
donor molecule, donor type, donor heavy atom, donor atom, acceptor molecule, acceptor atom, score
      L1  H    10    34       P1  7957  0.73

> <Gold.PLP.Chemscore.Internal.Correction>
0.2471

> <Gold.Rescore>
     Score         DG    S(hbond)    S(metal)    S(lipo)     H(rot)  DE(clash)    DE(int)     intcor
     16.84     -19.83       1.95        0.00     120.61       2.46       1.42       1.58       ----

> <Gold.Chemscore.Fitness>
16.8381

> <Gold.Chemscore.DG>
-19.8327

> <Gold.Chemscore.ZeroCoef>
-5.4800

> <Gold.Chemscore.Hbond>
1.9542

> <Gold.Chemscore.Metal>
0.0000

> <Gold.Chemscore.Lipo>
120.6138

> <Gold.Chemscore.Internal_Hbond>
0.0000

> <Gold.Chemscore.DEClash>
1.4183

> <Gold.Chemscore.DEInternal>
1.5764

> <Gold.Chemscore.Rot>
2.4555

> <Gold.Chemscore.Internal.Correction>
   9.000000E+99

> <Gold.Chemscore.Hbonds>
donor molecule, donor type, donor heavy atom, donor atom, acceptor molecule, acceptor atom, score
      L1  H    10    34       P1  7957  0.73
      P1  H  6896  6908       L1    19  0.01

> <Gold.Chemscore.Hbond.Weighted>
-6.5270

> <Gold.Chemscore.Metal.Weighted>
-0.0000

> <Gold.Chemscore.Lipo.Weighted>
-14.1118

> <Gold.Chemscore.Internal_Hbond.Weighted>
0.0000

> <Gold.Chemscore.DEClash.Weighted>
1.4183

> <Gold.Chemscore.DEInternal.Weighted>
1.5764

> <Gold.Chemscore.Rot.Weighted>
6.2861

> <Gold.Chemscore.Internal.Correction.Weighted>
   9.000000E+99

> <Gold.Protein.RotatedTorsions>
[ 6907 6896 6895 6894 ] final  143.30 input  -60.11 | X-H torsion
[ 7974 7965 7964 7962 ] final -137.88 input  175.53 | X-H torsion
[ 8008 7997 7996 7995 ] final  -81.06 input   59.86 | X-H torsion
[ 10167 10162 10161 10158 ] final -157.47 input  -65.29 | X-H torsion
[ 10718 10713 10712 10709 ] final  154.08 input   66.30 | X-H torsion
[ 10763 10752 10751 10750 ] final  102.52 input  -60.55 | X-H torsion
[ 11005 11000 10999 10996 ] final   16.06 input  -57.11 | X-H torsion

> <Gold.Protein.ActiveResidues>
 VAL166  LYS551  ARG553  GLY616  TRP617  ASP618  TYR619  PRO620  LYS621  CYS622 
 ASP623  PHE694  ASN695  SER759  ASP760  ASP761  ALA762  ILE779  LEU786  VAL792 
 PHE793  MET794  SER795  GLU796  ALA797  LYS798  CYS799  TRP800  GLU811  SER814 

> <Gold.Protein.RotatedAtoms>
  152.2080  133.4890  159.5094 H   0  0  0  0  0  0  0  0  0  0  0  0  # atno 6907 bound_to 6896
  150.6984  134.1504  159.4147 H   0  0  0  0  0  0  0  0  0  0  0  0  # atno 6908 bound_to 6896
  151.9423  135.0207  160.0587 H   0  0  0  0  0  0  0  0  0  0  0  0  # atno 6909 bound_to 6896
  144.8805  140.6500  143.5209 H   0  0  0  0  0  0  0  0  0  0  0  0  # atno 7974 bound_to 7965
  154.5945  140.0653  156.9285 H   0  0  0  0  0  0  0  0  0  0  0  0  # atno 8008 bound_to 7997
  155.2237  140.3332  155.4294 H   0  0  0  0  0  0  0  0  0  0  0  0  # atno 8009 bound_to 7997
  156.2278  140.1827  156.7303 H   0  0  0  0  0  0  0  0  0  0  0  0  # atno 8010 bound_to 7997
  139.6768  143.9650  152.2315 H   0  0  0  0  0  0  0  0  0  0  0  0  # atno 10167 bound_to 10162
  157.2364  131.0750  151.1820 H   0  0  0  0  0  0  0  0  0  0  0  0  # atno 10718 bound_to 10713
  153.3407  135.4007  155.1569 H   0  0  0  0  0  0  0  0  0  0  0  0  # atno 10763 bound_to 10752
  154.8643  135.3633  154.5349 H   0  0  0  0  0  0  0  0  0  0  0  0  # atno 10764 bound_to 10752
  153.5794  135.7077  153.5529 H   0  0  0  0  0  0  0  0  0  0  0  0  # atno 10765 bound_to 10752
  140.4514  134.1221  155.7703 H   0  0  0  0  0  0  0  0  0  0  0  0  # atno 11005 bound_to 11000
  145.3963  139.1606  143.4201 LP  0  0  0  0  0  0  0  0  0  0  0  0  # atno 17320 bound_to 7965
  146.2991  140.4056  142.8710 LP  0  0  0  0  0  0  0  0  0  0  0  0  # atno 17321 bound_to 7965
  139.9429  144.6670  150.8248 LP  0  0  0  0  0  0  0  0  0  0  0  0  # atno 17342 bound_to 10162
  140.7638  143.3232  151.2574 LP  0  0  0  0  0  0  0  0  0  0  0  0  # atno 17343 bound_to 10162
  157.3425  130.7040  149.6390 LP  0  0  0  0  0  0  0  0  0  0  0  0  # atno 17370 bound_to 10713
  155.9672  130.4276  150.4750 LP  0  0  0  0  0  0  0  0  0  0  0  0  # atno 17371 bound_to 10713
  141.1662  133.8697  157.1706 LP  0  0  0  0  0  0  0  0  0  0  0  0  # atno 17394 bound_to 11000
  140.0005  135.0030  157.0178 LP  0  0  0  0  0  0  0  0  0  0  0  0  # atno 17395 bound_to 11000

$$$$
