AV-unprocessed.smi:1935|AV-procd|sdf|7827|dock2
  -GOLD-   22720 9573D 1   1.00000     0.00000
 Structure written by MMmdl.
 52 54  0  0  0  0  0  0  0  0  1 V2000
  151.2495  135.2014  155.7386 O   0  0  0  0  0  0  0  0  0  0  0  0
  150.5506  135.5315  154.7804 C   0  0  0  0  0  0  0  0  0  0  0  0
  150.4773  136.7840  154.3096 N   0  0  0  0  0  0  0  0  0  0  0  0
  151.1753  137.9316  154.8753 C   0  0  0  0  0  0  0  0  0  0  0  0
  150.6453  139.2512  154.2858 C   0  0  0  0  0  0  0  0  0  0  0  0
  150.5039  140.2831  155.3192 N   0  0  0  0  0  0  0  0  0  0  0  0
  149.2495  141.0512  155.2960 C   0  0  0  0  0  0  0  0  0  0  0  0
  148.2968  140.7229  156.4682 C   0  0  0  0  0  0  0  0  0  0  0  0
  148.9661  140.2878  157.7872 C   0  0  0  0  0  0  0  0  0  0  0  0
  150.0692  141.2343  158.3062 C   0  0  0  0  0  0  0  0  0  0  0  0
  151.2141  141.5714  157.3206 C   0  0  0  0  0  0  0  0  0  0  0  0
  151.4675  140.4994  156.2477 C   0  0  0  0  0  0  0  0  0  0  0  0
  152.5292  139.8766  156.2707 O   0  0  0  0  0  0  0  0  0  0  0  0
  149.7481  134.7056  154.0893 N   0  0  0  0  0  0  0  0  0  0  0  0
  149.5015  133.3278  154.3411 C   0  0  0  0  0  0  0  0  0  0  0  0
  150.4079  132.5501  155.1017 C   0  0  0  0  0  0  0  0  0  0  0  0
  150.1680  131.1749  155.2645 C   0  0  0  0  0  0  0  0  0  0  0  0
  149.0345  130.6210  154.6462 C   0  0  0  0  0  0  0  0  0  0  0  0
  148.1685  131.3459  153.9099 N   0  0  0  0  0  0  0  0  0  0  0  0
  148.3778  132.6769  153.7556 C   0  0  0  0  0  0  0  0  0  0  0  0
  147.4246  133.3893  152.9912 N   0  0  0  0  0  0  0  0  0  0  0  0
  146.0940  133.5864  153.5602 C   0  0  0  0  0  0  0  0  0  0  0  0
  145.1043  133.4931  152.3941 C   0  0  0  0  0  0  0  0  0  0  0  0
  145.9645  133.7786  151.1672 C   0  0  0  0  0  0  0  0  0  0  0  0
  147.3014  133.1547  151.5565 C   0  0  0  0  0  0  0  0  0  0  0  0
  149.8779  136.9606  153.5167 H   0  0  0  0  0  0  0  0  0  0  0  0
  151.0903  137.9271  155.9634 H   0  0  0  0  0  0  0  0  0  0  0  0
  152.2361  137.8234  154.6471 H   0  0  0  0  0  0  0  0  0  0  0  0
  151.3135  139.6010  153.4976 H   0  0  0  0  0  0  0  0  0  0  0  0
  149.6863  139.0849  153.7917 H   0  0  0  0  0  0  0  0  0  0  0  0
  149.4828  142.1161  155.2992 H   0  0  0  0  0  0  0  0  0  0  0  0
  148.7209  140.9037  154.3532 H   0  0  0  0  0  0  0  0  0  0  0  0
  147.6540  141.5844  156.6507 H   0  0  0  0  0  0  0  0  0  0  0  0
  147.6290  139.9193  156.1558 H   0  0  0  0  0  0  0  0  0  0  0  0
  148.1974  140.1896  158.5543 H   0  0  0  0  0  0  0  0  0  0  0  0
  149.3754  139.2834  157.6696 H   0  0  0  0  0  0  0  0  0  0  0  0
  149.6093  142.1670  158.6344 H   0  0  0  0  0  0  0  0  0  0  0  0
  150.5007  140.7911  159.2043 H   0  0  0  0  0  0  0  0  0  0  0  0
  151.0162  142.5232  156.8281 H   0  0  0  0  0  0  0  0  0  0  0  0
  152.1333  141.7369  157.8840 H   0  0  0  0  0  0  0  0  0  0  0  0
  149.1543  135.1343  153.3944 H   0  0  0  0  0  0  0  0  0  0  0  0
  151.2931  132.9849  155.5412 H   0  0  0  0  0  0  0  0  0  0  0  0
  150.8439  130.5584  155.8382 H   0  0  0  0  0  0  0  0  0  0  0  0
  148.8192  129.5670  154.7410 H   0  0  0  0  0  0  0  0  0  0  0  0
  145.8649  132.8547  154.3364 H   0  0  0  0  0  0  0  0  0  0  0  0
  146.0468  134.5797  154.0070 H   0  0  0  0  0  0  0  0  0  0  0  0
  144.7051  132.4799  152.3322 H   0  0  0  0  0  0  0  0  0  0  0  0
  144.2638  134.1800  152.4960 H   0  0  0  0  0  0  0  0  0  0  0  0
  145.5522  133.3617  150.2480 H   0  0  0  0  0  0  0  0  0  0  0  0
  146.0783  134.8553  151.0330 H   0  0  0  0  0  0  0  0  0  0  0  0
  148.1319  133.5992  151.0076 H   0  0  0  0  0  0  0  0  0  0  0  0
  147.2782  132.0860  151.3401 H   0  0  0  0  0  0  0  0  0  0  0  0
  1  2  2  0  0  0  0
  2  3  1  0  0  0  0
  2 14  1  0  0  0  0
  3  4  1  0  0  0  0
  3 26  1  0  0  0  0
  4  5  1  0  0  0  0
  4 27  1  0  0  0  0
  4 28  1  0  0  0  0
  5  6  1  0  0  0  0
  5 29  1  0  0  0  0
  5 30  1  0  0  0  0
  6 12  1  0  0  0  0
  6  7  1  0  0  0  0
  7  8  1  0  0  0  0
  7 31  1  0  0  0  0
  7 32  1  0  0  0  0
  8  9  1  0  0  0  0
  8 33  1  0  0  0  0
  8 34  1  0  0  0  0
  9 10  1  0  0  0  0
  9 35  1  0  0  0  0
  9 36  1  0  0  0  0
 10 11  1  0  0  0  0
 10 37  1  0  0  0  0
 10 38  1  0  0  0  0
 11 12  1  0  0  0  0
 11 39  1  0  0  0  0
 11 40  1  0  0  0  0
 12 13  2  0  0  0  0
 14 15  1  0  0  0  0
 14 41  1  0  0  0  0
 15 20  1  0  0  0  0
 15 16  2  0  0  0  0
 16 17  1  0  0  0  0
 16 42  1  0  0  0  0
 17 18  2  0  0  0  0
 17 43  1  0  0  0  0
 18 19  1  0  0  0  0
 18 44  1  0  0  0  0
 19 20  2  0  0  0  0
 20 21  1  0  0  0  0
 21 25  1  0  0  0  0
 21 22  1  0  0  0  0
 22 23  1  0  0  0  0
 22 45  1  0  0  0  0
 22 46  1  0  0  0  0
 23 24  1  0  0  0  0
 23 47  1  0  0  0  0
 23 48  1  0  0  0  0
 24 25  1  0  0  0  0
 24 49  1  0  0  0  0
 24 50  1  0  0  0  0
 25 51  1  0  0  0  0
 25 52  1  0  0  0  0
M  END
> <s_m_source_file>
AV-unprocessed.smi

> <i_m_source_file_index>
1935

> <i_lp_mmshare_version>
43012

> <i_f3d_flags>
0

> <s_epik_input>
Tz1DMVtDSDJdW0NIMl1bQ0gyXVtDSDJdW0NIMl1OMVtDSDJdW0NIMl1bTkhdQyg9TylbTkhdYzJbY0hdW2NIXVtjSF1uYzJOM1tDSDJdW0NIMl1bQ0gyXVtDSDJdMw==

> <s_epik_cmdline>
J2VwaWtfcHl0aG9uJywgJy1waCcsICc3LjAnLCAnLXRuJywgJzgnLCAnLW1hJywgJzIwMCcsICctbWV0YWxfYmluZGluZycsICctaW1hZScsICc8aW5maWxlLm1hZT4nLCAnLW9tYWUnLCAnPG91dGZpbGUubWFlPic=

> <r_lp_tautomer_probability>
1

> <r_epik_Ionization_Penalty>
0.0963547

> <r_epik_Ionization_Penalty_Charging>
0

> <r_epik_Ionization_Penalty_Neutral>
0.0963547

> <r_epik_State_Penalty>
0.0859578

> <r_epik_Charging_Adjusted_Penalty>
0.0859578

> <i_epik_Tot_Q>
0

> <i_epik_Tot_abs_Q>
0

> <r_epik_Metal_State_Penalty>
0.0738802

> <b_epik_Metal_Only>
0

> <s_lp_Force_Field>
OPLS_2005

> <r_lp_Energy>
50.6255

> <b_lp_Chiralities_Consistent>
1

> <s_lp_Variant>
AV-unprocessed.smi:1935-1

> <Gold.Version>
5.8.1

> <Gold.Id.Protein>
6NUR|6NUR_protein|mol2

> <Gold.PLP.Fitness>
50.5225

> <Gold.PLP.PLP>
-39.9497

> <Gold.PLP.part.hbond>
-5.2464

> <Gold.PLP.part.metal>
0.0000

> <Gold.PLP.part.buried>
-1.8148

> <Gold.PLP.part.nonpolar>
-33.2626

> <Gold.PLP.part.repulsive>
0.3611

> <Gold.PLP.ligand.clash>
0.0000

> <Gold.PLP.ligand.torsion>
0.7849

> <Gold.PLP.Chemscore.Hbond>
3.9200

> <Gold.PLP.Chemscore.CHOScore>
0.0000

> <Gold.PLP.Chemscore.Metal>
0.0000

> <Gold.Chemscore.Hbonds>
donor molecule, donor type, donor heavy atom, donor atom, acceptor molecule, acceptor atom, score
      L1  H     3    26       P1  7948  0.94
      L1  H    14    41       P1  7948  0.93
      P1  H  7997  8010       L1    13  1.00
      P1  H 10752 10764       L1     1  1.00

> <Gold.PLP.Chemscore.Internal.Correction>
0.3826

> <Gold.Rescore>
     Score         DG    S(hbond)    S(metal)    S(lipo)     H(rot)  DE(clash)    DE(int)     intcor
     14.13     -19.71       2.90        0.00      74.46       1.63       1.98       3.60       ----

> <Gold.Chemscore.Fitness>
14.1332

> <Gold.Chemscore.DG>
-19.7096

> <Gold.Chemscore.ZeroCoef>
-5.4800

> <Gold.Chemscore.Hbond>
2.8987

> <Gold.Chemscore.Metal>
0.0000

> <Gold.Chemscore.Lipo>
74.4552

> <Gold.Chemscore.Internal_Hbond>
0.0000

> <Gold.Chemscore.DEClash>
1.9800

> <Gold.Chemscore.DEInternal>
3.5964

> <Gold.Chemscore.Rot>
1.6262

> <Gold.Chemscore.Internal.Correction>
   9.000000E+99

> <Gold.Chemscore.Hbonds>
donor molecule, donor type, donor heavy atom, donor atom, acceptor molecule, acceptor atom, score
      L1  H     3    26       P1  7948  0.35
      L1  H    14    41       P1  7948  0.20
      P1  H  7997  8010       L1    13  1.00
      P1  H 10752 10764       L1     1  0.24

> <Gold.Chemscore.Hbond.Weighted>
-9.6815

> <Gold.Chemscore.Metal.Weighted>
-0.0000

> <Gold.Chemscore.Lipo.Weighted>
-8.7113

> <Gold.Chemscore.Internal_Hbond.Weighted>
0.0000

> <Gold.Chemscore.DEClash.Weighted>
1.9800

> <Gold.Chemscore.DEInternal.Weighted>
3.5964

> <Gold.Chemscore.Rot.Weighted>
4.1632

> <Gold.Chemscore.Internal.Correction.Weighted>
   9.000000E+99

> <Gold.Protein.RotatedTorsions>
[ 6907 6896 6895 6894 ] final  -51.14 input  -60.11 | X-H torsion
[ 7974 7965 7964 7962 ] final   35.44 input  175.53 | X-H torsion
[ 8008 7997 7996 7995 ] final   82.34 input   59.86 | X-H torsion
[ 10167 10162 10161 10158 ] final   32.27 input  -65.29 | X-H torsion
[ 10718 10713 10712 10709 ] final  -32.32 input   66.30 | X-H torsion
[ 10763 10752 10751 10750 ] final  -36.70 input  -60.55 | X-H torsion
[ 11005 11000 10999 10996 ] final   36.71 input  -57.11 | X-H torsion

> <Gold.Protein.ActiveResidues>
 VAL166  LYS551  ARG553  GLY616  TRP617  ASP618  TYR619  PRO620  LYS621  CYS622 
 ASP623  PHE694  ASN695  SER759  ASP760  ASP761  ALA762  ILE779  LEU786  VAL792 
 PHE793  MET794  SER795  GLU796  ALA797  LYS798  CYS799  TRP800  GLU811  SER814 

> <Gold.Protein.RotatedAtoms>
  150.8639  134.7998  159.7103 H   0  0  0  0  0  0  0  0  0  0  0  0  # atno 6907 bound_to 6896
  152.4667  134.5055  159.9747 H   0  0  0  0  0  0  0  0  0  0  0  0  # atno 6908 bound_to 6896
  151.5154  133.3438  159.2928 H   0  0  0  0  0  0  0  0  0  0  0  0  # atno 6909 bound_to 6896
  146.1283  139.6142  142.9244 H   0  0  0  0  0  0  0  0  0  0  0  0  # atno 7974 bound_to 7965
  155.9092  140.3428  155.6086 H   0  0  0  0  0  0  0  0  0  0  0  0  # atno 8008 bound_to 7997
  155.7407  140.0807  157.2265 H   0  0  0  0  0  0  0  0  0  0  0  0  # atno 8009 bound_to 7997
  154.4053  140.1571  156.2600 H   0  0  0  0  0  0  0  0  0  0  0  0  # atno 8010 bound_to 7997
  140.4514  144.1043  150.6192 H   0  0  0  0  0  0  0  0  0  0  0  0  # atno 10167 bound_to 10162
  156.3764  130.4348  149.7504 H   0  0  0  0  0  0  0  0  0  0  0  0  # atno 10718 bound_to 10713
  153.8840  135.6819  153.4765 H   0  0  0  0  0  0  0  0  0  0  0  0  # atno 10763 bound_to 10752
  153.1218  135.4736  154.9205 H   0  0  0  0  0  0  0  0  0  0  0  0  # atno 10764 bound_to 10752
  154.7655  135.3223  154.8247 H   0  0  0  0  0  0  0  0  0  0  0  0  # atno 10765 bound_to 10752
  140.2299  134.3540  155.7968 H   0  0  0  0  0  0  0  0  0  0  0  0  # atno 11005 bound_to 11000
  145.5318  141.0426  143.2379 LP  0  0  0  0  0  0  0  0  0  0  0  0  # atno 17320 bound_to 7965
  144.7664  139.6835  143.7213 LP  0  0  0  0  0  0  0  0  0  0  0  0  # atno 17321 bound_to 7965
  140.4203  143.2615  151.9724 LP  0  0  0  0  0  0  0  0  0  0  0  0  # atno 17342 bound_to 10162
  139.4797  144.5837  151.7890 LP  0  0  0  0  0  0  0  0  0  0  0  0  # atno 17343 bound_to 10162
  156.4612  130.7952  151.2972 LP  0  0  0  0  0  0  0  0  0  0  0  0  # atno 17370 bound_to 10713
  157.7488  131.0065  150.3155 LP  0  0  0  0  0  0  0  0  0  0  0  0  # atno 17371 bound_to 10713
  141.2218  133.7239  156.8714 LP  0  0  0  0  0  0  0  0  0  0  0  0  # atno 17394 bound_to 11000
  140.1762  134.9065  157.2893 LP  0  0  0  0  0  0  0  0  0  0  0  0  # atno 17395 bound_to 11000

$$$$
