AV-unprocessed.smi:59|AV-procd|sdf|585|dock1
  -GOLD-   2262016483D 1   1.00000     0.00000
 Structure written by MMmdl.
 29 30  0  0  0  0  0  0  0  0  2 V2000
  153.6574  138.0661  159.9105 C   0  0  0  0  0  0  0  0  0  0  0  0
  152.5685  138.6883  159.1670 N   0  0  0  0  0  0  0  0  0  0  0  0
  151.3496  138.1649  158.9977 C   0  0  0  0  0  0  0  0  0  0  0  0
  150.9471  137.1008  159.4687 O   0  0  0  0  0  0  0  0  0  0  0  0
  150.4924  139.0687  158.1224 C   0  0  2  0  0  0  0  0  0  0  0  0
  149.7665  138.3066  157.1717 O   0  0  0  0  0  0  0  0  0  0  0  0
  151.5119  140.0995  157.5656 C   0  0  2  0  0  0  0  0  0  0  0  0
  151.9069  139.8446  156.0947 C   0  0  0  0  0  0  0  0  0  0  0  0
  153.0727  139.4547  155.8581 O   0  0  0  0  0  0  0  0  0  0  0  0
  151.0292  140.0569  155.2296 O   0  5  0  0  0  0  0  0  0  0  0  0
  152.7394  139.9799  158.5094 C   0  0  1  0  0  0  0  0  0  0  0  0
  152.8145  141.1428  159.4739 C   0  0  0  0  0  0  0  0  0  0  0  0
  153.6770  141.3261  160.5948 C   0  0  0  0  0  0  0  0  0  0  0  0
  153.4660  142.4677  161.2291 N   0  0  0  0  0  0  0  0  0  0  0  0
  152.4636  143.0513  160.5418 N   0  0  0  0  0  0  0  0  0  0  0  0
  151.9630  144.3408  160.9673 C   0  0  0  0  0  0  0  0  0  0  0  0
  152.0511  142.2763  159.4798 C   0  0  0  0  0  0  0  0  0  0  0  0
  149.7751  139.5776  158.7671 H   0  0  0  0  0  0  0  0  0  0  0  0
  151.0821  141.1017  157.6158 H   0  0  0  0  0  0  0  0  0  0  0  0
  153.6691  139.9353  157.9386 H   0  0  0  0  0  0  0  0  0  0  0  0
  153.3612  137.8868  160.9445 H   0  0  0  0  0  0  0  0  0  0  0  0
  154.5433  138.7017  159.9185 H   0  0  0  0  0  0  0  0  0  0  0  0
  153.9295  137.1116  159.4591 H   0  0  0  0  0  0  0  0  0  0  0  0
  149.1033  137.8133  157.6294 H   0  0  0  0  0  0  0  0  0  0  0  0
  154.4463  140.6646  160.9650 H   0  0  0  0  0  0  0  0  0  0  0  0
  151.1581  144.6657  160.3074 H   0  0  0  0  0  0  0  0  0  0  0  0
  152.7666  145.0772  160.9358 H   0  0  0  0  0  0  0  0  0  0  0  0
  151.5800  144.2699  161.9858 H   0  0  0  0  0  0  0  0  0  0  0  0
  151.2542  142.5885  158.8209 H   0  0  0  0  0  0  0  0  0  0  0  0
  1  2  1  0  0  0  0
  1 21  1  0  0  0  0
  1 22  1  0  0  0  0
  1 23  1  0  0  0  0
  2 11  1  0  0  0  0
  2  3  1  0  0  0  0
  3  4  2  0  0  0  0
  3  5  1  0  0  0  0
  5 18  1  0  0  0  0
  5  6  1  0  0  0  0
  5  7  1  0  0  0  0
  6 24  1  0  0  0  0
  7 19  1  0  0  0  0
  7  8  1  0  0  0  0
  7 11  1  0  0  0  0
  8  9  2  0  0  0  0
  8 10  1  0  0  0  0
 11 20  1  0  0  0  0
 11 12  1  0  0  0  0
 12 17  2  0  0  0  0
 12 13  1  0  0  0  0
 13 14  2  0  0  0  0
 13 25  1  0  0  0  0
 14 15  1  0  0  0  0
 15 16  1  0  0  0  0
 15 17  1  0  0  0  0
 16 26  1  0  0  0  0
 16 27  1  0  0  0  0
 16 28  1  0  0  0  0
 17 29  1  0  0  0  0
M  CHG  1  10  -1
M  END
> <s_m_source_file>
AV-unprocessed.smi

> <i_m_source_file_index>
59

> <i_lp_mmshare_version>
43012

> <i_f3d_flags>
0

> <s_epik_input>
W0NIM11OMUMoPU8pW0NASF0oW09IXSlbQ0BIXShDKD1PKVtPSF0pW0NASF0xYzJbY0hdbm4oW0NIM10pW2NIXTI=

> <s_epik_cmdline>
J2VwaWtfcHl0aG9uJywgJy1waCcsICc3LjAnLCAnLXRuJywgJzgnLCAnLW1hJywgJzIwMCcsICctbWV0YWxfYmluZGluZycsICctaW1hZScsICc8aW5maWxlLm1hZT4nLCAnLW9tYWUnLCAnPG91dGZpbGUubWFlPic=

> <r_lp_tautomer_probability>
1

> <r_epik_Ionization_Penalty>
0.00173515

> <r_epik_Ionization_Penalty_Charging>
0.00120567

> <r_epik_Ionization_Penalty_Neutral>
0.000529476

> <r_epik_State_Penalty>
-0

> <r_epik_Charging_Adjusted_Penalty>
0.00120567

> <i_epik_Tot_Q>
-1

> <i_epik_Tot_abs_Q>
1

> <r_epik_Metal_State_Penalty>
-0

> <b_epik_Metal_Only>
0

> <s_lp_Force_Field>
OPLS_2005

> <r_lp_Energy>
7.95478

> <b_lp_Chiralities_Consistent>
1

> <s_lp_Variant>
AV-unprocessed.smi:59-1

> <Gold.Version>
5.8.1

> <Gold.Id.Protein>
6NUR|6NUR_protein|mol2

> <Gold.PLP.Fitness>
44.1684

> <Gold.PLP.PLP>
-32.6379

> <Gold.PLP.part.hbond>
-2.8365

> <Gold.PLP.part.metal>
0.0000

> <Gold.PLP.part.buried>
-5.9246

> <Gold.PLP.part.nonpolar>
-24.5360

> <Gold.PLP.part.repulsive>
0.0510

> <Gold.PLP.ligand.clash>
0.0000

> <Gold.PLP.ligand.torsion>
0.2411

> <Gold.PLP.Chemscore.Hbond>
4.0000

> <Gold.PLP.Chemscore.CHOScore>
0.0000

> <Gold.PLP.Chemscore.Metal>
0.0000

> <Gold.Chemscore.Hbonds>
donor molecule, donor type, donor heavy atom, donor atom, acceptor molecule, acceptor atom, score
      P1  H  6896  6907       L1     4  0.99
      P1  H  7989  7998       L1    10  1.00
      P1  H  7997  8010       L1     9  2.00

> <Gold.PLP.Chemscore.Internal.Correction>
0.0126

> <Gold.Rescore>
     Score         DG    S(hbond)    S(metal)    S(lipo)     H(rot)  DE(clash)    DE(int)     intcor
     16.06     -16.68       2.88        0.00      58.68       2.06       0.01       0.62       ----

> <Gold.Chemscore.Fitness>
16.0585

> <Gold.Chemscore.DG>
-16.6831

> <Gold.Chemscore.ZeroCoef>
-5.4800

> <Gold.Chemscore.Hbond>
2.8805

> <Gold.Chemscore.Metal>
0.0000

> <Gold.Chemscore.Lipo>
58.6812

> <Gold.Chemscore.Internal_Hbond>
0.0000

> <Gold.Chemscore.DEClash>
0.0089

> <Gold.Chemscore.DEInternal>
0.6157

> <Gold.Chemscore.Rot>
2.0639

> <Gold.Chemscore.Internal.Correction>
   9.000000E+99

> <Gold.Chemscore.Hbonds>
donor molecule, donor type, donor heavy atom, donor atom, acceptor molecule, acceptor atom, score
      P1  H  6896  6907       L1     4  0.92
      P1  H  7989  7998       L1    10  0.90
      P1  H  7997  8010       L1     9  0.92

> <Gold.Chemscore.Hbond.Weighted>
-9.6210

> <Gold.Chemscore.Metal.Weighted>
-0.0000

> <Gold.Chemscore.Lipo.Weighted>
-6.8657

> <Gold.Chemscore.Internal_Hbond.Weighted>
0.0000

> <Gold.Chemscore.DEClash.Weighted>
0.0089

> <Gold.Chemscore.DEInternal.Weighted>
0.6157

> <Gold.Chemscore.Rot.Weighted>
5.2837

> <Gold.Chemscore.Internal.Correction.Weighted>
   9.000000E+99

> <Gold.Protein.RotatedTorsions>
[ 6907 6896 6895 6894 ] final  -19.95 input  -60.11 | X-H torsion
[ 7974 7965 7964 7962 ] final   10.02 input  175.53 | X-H torsion
[ 8008 7997 7996 7995 ] final  102.41 input   59.86 | X-H torsion
[ 10167 10162 10161 10158 ] final   36.32 input  -65.29 | X-H torsion
[ 10718 10713 10712 10709 ] final  -33.14 input   66.30 | X-H torsion
[ 10763 10752 10751 10750 ] final -163.32 input  -60.55 | X-H torsion
[ 11005 11000 10999 10996 ] final   51.19 input  -57.11 | X-H torsion

> <Gold.Protein.ActiveResidues>
 VAL166  LYS551  ARG553  GLY616  TRP617  ASP618  TYR619  PRO620  LYS621  CYS622 
 ASP623  PHE694  ASN695  SER759  ASP760  ASP761  ALA762  ILE779  LEU786  VAL792 
 PHE793  MET794  SER795  GLU796  ALA797  LYS798  CYS799  TRP800  GLU811  SER814 

> <Gold.Protein.RotatedAtoms>
  151.2555  135.0636  159.9077 H   0  0  0  0  0  0  0  0  0  0  0  0  # atno 6907 bound_to 6896
  152.5374  134.0287  159.8025 H   0  0  0  0  0  0  0  0  0  0  0  0  # atno 6908 bound_to 6896
  151.0501  133.5582  159.2674 H   0  0  0  0  0  0  0  0  0  0  0  0  # atno 6909 bound_to 6896
  146.2395  139.9696  142.8448 H   0  0  0  0  0  0  0  0  0  0  0  0  # atno 7974 bound_to 7965
  156.1390  140.3181  155.8466 H   0  0  0  0  0  0  0  0  0  0  0  0  # atno 8008 bound_to 7997
  155.4190  140.0511  157.3044 H   0  0  0  0  0  0  0  0  0  0  0  0  # atno 8009 bound_to 7997
  154.4961  140.2111  155.9457 H   0  0  0  0  0  0  0  0  0  0  0  0  # atno 8010 bound_to 7997
  140.4138  144.1555  150.6141 H   0  0  0  0  0  0  0  0  0  0  0  0  # atno 10167 bound_to 10162
  156.3663  130.4332  149.7582 H   0  0  0  0  0  0  0  0  0  0  0  0  # atno 10718 bound_to 10713
  154.7134  135.3011  154.9162 H   0  0  0  0  0  0  0  0  0  0  0  0  # atno 10763 bound_to 10752
  154.0057  135.6701  153.4766 H   0  0  0  0  0  0  0  0  0  0  0  0  # atno 10764 bound_to 10752
  153.0773  135.5028  154.8345 H   0  0  0  0  0  0  0  0  0  0  0  0  # atno 10765 bound_to 10752
  140.0953  134.5154  155.8813 H   0  0  0  0  0  0  0  0  0  0  0  0  # atno 11005 bound_to 11000
  145.1694  140.9713  143.4331 LP  0  0  0  0  0  0  0  0  0  0  0  0  # atno 17320 bound_to 7965
  145.0043  139.3569  143.6152 LP  0  0  0  0  0  0  0  0  0  0  0  0  # atno 17321 bound_to 7965
  140.4608  143.2449  151.9222 LP  0  0  0  0  0  0  0  0  0  0  0  0  # atno 17342 bound_to 10162
  139.4782  144.5469  151.8445 LP  0  0  0  0  0  0  0  0  0  0  0  0  # atno 17343 bound_to 10162
  156.4727  130.8004  151.3021 LP  0  0  0  0  0  0  0  0  0  0  0  0  # atno 17370 bound_to 10713
  157.7479  131.0031  150.3024 LP  0  0  0  0  0  0  0  0  0  0  0  0  # atno 17371 bound_to 10713
  141.2090  133.6679  156.6410 LP  0  0  0  0  0  0  0  0  0  0  0  0  # atno 17394 bound_to 11000
  140.3295  134.7941  157.4315 LP  0  0  0  0  0  0  0  0  0  0  0  0  # atno 17395 bound_to 11000

$$$$
