AV-unprocessed.smi:2439|AV-procd|sdf|9605|dock1
  -GOLD-   2272013233D 1   1.00000     0.00000
 Structure written by MMmdl.
 41 43  0  0  0  0  0  0  0  0  2 V2000
  151.6457  137.1185  154.3709 N   0  0  0  0  0  0  0  0  0  0  0  0
  150.7174  137.8073  154.3228 C   0  0  0  0  0  0  0  0  0  0  0  0
  149.5478  138.6755  154.2632 C   0  0  0  0  0  0  0  0  0  0  0  0
  149.7305  140.0724  154.3385 C   0  0  0  0  0  0  0  0  0  0  0  0
  148.6057  140.9152  154.2796 C   0  0  0  0  0  0  0  0  0  0  0  0
  147.3365  140.3238  154.1480 C   0  0  0  0  0  0  0  0  0  0  0  0
  147.1477  138.9896  154.0746 N   0  0  0  0  0  0  0  0  0  0  0  0
  148.2264  138.1699  154.1303 C   0  0  0  0  0  0  0  0  0  0  0  0
  147.9985  136.7829  154.0533 N   0  0  0  0  0  0  0  0  0  0  0  0
  146.7414  136.1788  154.4795 C   0  0  0  0  0  0  0  0  0  0  0  0
  146.1771  135.1968  153.4382 C   0  0  2  0  0  0  0  0  0  0  0  0
  145.0490  134.3279  154.0367 C   0  0  0  0  0  0  0  0  0  0  0  0
  144.5862  133.2963  153.0768 N   0  3  1  0  0  0  0  0  0  0  0  0
  143.6925  133.8338  152.0147 C   0  0  0  0  0  0  0  0  0  0  0  0
  143.1858  132.7151  151.0930 C   0  0  0  0  0  0  0  0  0  0  0  0
  144.3615  131.9557  150.4684 C   0  0  0  0  0  0  0  0  0  0  0  0
  145.2737  131.4068  151.5738 C   0  0  0  0  0  0  0  0  0  0  0  0
  145.7347  132.5012  152.5603 C   0  0  1  0  0  0  0  0  0  0  0  0
  146.8316  133.4296  151.9981 C   0  0  0  0  0  0  0  0  0  0  0  0
  147.2356  134.3437  153.0114 O   0  0  0  0  0  0  0  0  0  0  0  0
  150.7187  140.4980  154.4401 H   0  0  0  0  0  0  0  0  0  0  0  0
  148.7137  141.9884  154.3353 H   0  0  0  0  0  0  0  0  0  0  0  0
  146.4490  140.9374  154.0996 H   0  0  0  0  0  0  0  0  0  0  0  0
  148.6883  136.1921  153.6106 H   0  0  0  0  0  0  0  0  0  0  0  0
  146.9091  135.6621  155.4248 H   0  0  0  0  0  0  0  0  0  0  0  0
  146.0167  136.9659  154.6912 H   0  0  0  0  0  0  0  0  0  0  0  0
  145.7953  135.7570  152.5840 H   0  0  0  0  0  0  0  0  0  0  0  0
  145.4147  133.8215  154.9312 H   0  0  0  0  0  0  0  0  0  0  0  0
  144.2099  134.9477  154.3548 H   0  0  0  0  0  0  0  0  0  0  0  0
  142.8414  134.3330  152.4791 H   0  0  0  0  0  0  0  0  0  0  0  0
  144.2096  134.5875  151.4207 H   0  0  0  0  0  0  0  0  0  0  0  0
  142.5587  132.0253  151.6598 H   0  0  0  0  0  0  0  0  0  0  0  0
  142.5549  133.1349  150.3091 H   0  0  0  0  0  0  0  0  0  0  0  0
  143.9928  131.1386  149.8472 H   0  0  0  0  0  0  0  0  0  0  0  0
  144.9248  132.6171  149.8093 H   0  0  0  0  0  0  0  0  0  0  0  0
  144.7298  130.6394  152.1265 H   0  0  0  0  0  0  0  0  0  0  0  0
  146.1369  130.9058  151.1338 H   0  0  0  0  0  0  0  0  0  0  0  0
  146.1703  131.9868  153.4186 H   0  0  0  0  0  0  0  0  0  0  0  0
  147.7001  132.8438  151.6967 H   0  0  0  0  0  0  0  0  0  0  0  0
  146.4956  133.9720  151.1137 H   0  0  0  0  0  0  0  0  0  0  0  0
  144.0130  132.6540  153.6053 H   0  0  0  0  0  0  0  0  0  0  0  0
  1  2  3  0  0  0  0
  2  3  1  0  0  0  0
  3  8  1  0  0  0  0
  3  4  2  0  0  0  0
  4  5  1  0  0  0  0
  4 21  1  0  0  0  0
  5  6  2  0  0  0  0
  5 22  1  0  0  0  0
  6  7  1  0  0  0  0
  6 23  1  0  0  0  0
  7  8  2  0  0  0  0
  8  9  1  0  0  0  0
  9 10  1  0  0  0  0
  9 24  1  0  0  0  0
 10 11  1  0  0  0  0
 10 25  1  0  0  0  0
 10 26  1  0  0  0  0
 11 20  1  0  0  0  0
 11 12  1  0  0  0  0
 11 27  1  0  0  0  0
 12 13  1  0  0  0  0
 12 28  1  0  0  0  0
 12 29  1  0  0  0  0
 13 18  1  0  0  0  0
 13 14  1  0  0  0  0
 13 41  1  0  0  0  0
 14 15  1  0  0  0  0
 14 30  1  0  0  0  0
 14 31  1  0  0  0  0
 15 16  1  0  0  0  0
 15 32  1  0  0  0  0
 15 33  1  0  0  0  0
 16 17  1  0  0  0  0
 16 34  1  0  0  0  0
 16 35  1  0  0  0  0
 17 18  1  0  0  0  0
 17 36  1  0  0  0  0
 17 37  1  0  0  0  0
 18 19  1  0  0  0  0
 18 38  1  0  0  0  0
 19 20  1  0  0  0  0
 19 39  1  0  0  0  0
 19 40  1  0  0  0  0
M  CHG  1  13   1
M  END
> <s_m_source_file>
AV-unprocessed.smi

> <i_m_source_file_index>
2439

> <i_lp_mmshare_version>
43012

> <i_f3d_flags>
0

> <s_epik_input>
TiNDYzFbY0hdW2NIXVtjSF1uYzFbTkhdW0NIMl1bQ0BIXShbQ0gyXTIpT1tDSDJdW0NAQEhdKE4yMylbQ0gyXVtDSDJdW0NIMl1bQ0gyXTM=

> <s_epik_cmdline>
J2VwaWtfcHl0aG9uJywgJy1waCcsICc3LjAnLCAnLXRuJywgJzgnLCAnLW1hJywgJzIwMCcsICctbWV0YWxfYmluZGluZycsICctaW1hZScsICc8aW5maWxlLm1hZT4nLCAnLW9tYWUnLCAnPG91dGZpbGUubWFlPic=

> <r_epik_Ionization_Penalty>
0.0803594

> <r_epik_Ionization_Penalty_Charging>
0.0803403

> <r_epik_Ionization_Penalty_Neutral>
1.90988e-05

> <r_epik_State_Penalty>
0.0711481

> <r_epik_Charging_Adjusted_Penalty>
0.151488

> <i_epik_Tot_Q>
1

> <i_epik_Tot_abs_Q>
1

> <r_epik_Metal_State_Penalty>
0.0711482

> <b_epik_Metal_Only>
0

> <s_lp_Force_Field>
OPLS_2005

> <r_lp_Energy>
31.3603

> <b_lp_Chiralities_Consistent>
1

> <s_lp_Variant>
AV-unprocessed.smi:2439-3

> <Gold.Version>
5.8.1

> <Gold.Id.Protein>
6NUR|6NUR_protein|mol2

> <Gold.PLP.Fitness>
39.9431

> <Gold.PLP.PLP>
-30.1543

> <Gold.PLP.part.hbond>
-2.9219

> <Gold.PLP.part.metal>
0.0000

> <Gold.PLP.part.buried>
-3.1867

> <Gold.PLP.part.nonpolar>
-26.2381

> <Gold.PLP.part.repulsive>
2.6483

> <Gold.PLP.ligand.clash>
0.0000

> <Gold.PLP.ligand.torsion>
0.3018

> <Gold.PLP.Chemscore.Hbond>
3.4640

> <Gold.PLP.Chemscore.CHOScore>
0.0000

> <Gold.PLP.Chemscore.Metal>
0.0000

> <Gold.Chemscore.Hbonds>
donor molecule, donor type, donor heavy atom, donor atom, acceptor molecule, acceptor atom, score
      L1  H     9    24       P1  7948  0.45
      L1  H    13    41       P1 10957  2.00
      P1  H 10752 10765       L1     1  1.00

> <Gold.PLP.Chemscore.Internal.Correction>
0.0003

> <Gold.Rescore>
     Score         DG    S(hbond)    S(metal)    S(lipo)     H(rot)  DE(clash)    DE(int)     intcor
     16.66     -18.59       2.39        0.00      71.36       1.27       1.57       0.35       ----

> <Gold.Chemscore.Fitness>
16.6579

> <Gold.Chemscore.DG>
-18.5869

> <Gold.Chemscore.ZeroCoef>
-5.4800

> <Gold.Chemscore.Hbond>
2.3946

> <Gold.Chemscore.Metal>
0.0000

> <Gold.Chemscore.Lipo>
71.3644

> <Gold.Chemscore.Internal_Hbond>
0.0000

> <Gold.Chemscore.DEClash>
1.5743

> <Gold.Chemscore.DEInternal>
0.3547

> <Gold.Chemscore.Rot>
1.2659

> <Gold.Chemscore.Internal.Correction>
   9.000000E+99

> <Gold.Chemscore.Hbonds>
donor molecule, donor type, donor heavy atom, donor atom, acceptor molecule, acceptor atom, score
      L1  H     9    24       P1  7948  0.46
      L1  H    13    41       P1 10957  0.54
      P1  H 10752 10765       L1     1  0.96

> <Gold.Chemscore.Hbond.Weighted>
-7.9981

> <Gold.Chemscore.Metal.Weighted>
-0.0000

> <Gold.Chemscore.Lipo.Weighted>
-8.3496

> <Gold.Chemscore.Internal_Hbond.Weighted>
0.0000

> <Gold.Chemscore.DEClash.Weighted>
1.5743

> <Gold.Chemscore.DEInternal.Weighted>
0.3547

> <Gold.Chemscore.Rot.Weighted>
3.2408

> <Gold.Chemscore.Internal.Correction.Weighted>
   9.000000E+99

> <Gold.Protein.RotatedTorsions>
[ 6907 6896 6895 6894 ] final  142.36 input  -60.11 | X-H torsion
[ 7974 7965 7964 7962 ] final -164.32 input  175.53 | X-H torsion
[ 8008 7997 7996 7995 ] final  126.82 input   59.86 | X-H torsion
[ 10167 10162 10161 10158 ] final   46.61 input  -65.29 | X-H torsion
[ 10718 10713 10712 10709 ] final  -91.97 input   66.30 | X-H torsion
[ 10763 10752 10751 10750 ] final  173.10 input  -60.55 | X-H torsion
[ 11005 11000 10999 10996 ] final  118.46 input  -57.11 | X-H torsion

> <Gold.Protein.ActiveResidues>
 VAL166  LYS551  ARG553  GLY616  TRP617  ASP618  TYR619  PRO620  LYS621  CYS622 
 ASP623  PHE694  ASN695  SER759  ASP760  ASP761  ALA762  ILE779  LEU786  VAL792 
 PHE793  MET794  SER795  GLU796  ALA797  LYS798  CYS799  TRP800  GLU811  SER814 

> <Gold.Protein.RotatedAtoms>
  152.2196  133.4973  159.5154 H   0  0  0  0  0  0  0  0  0  0  0  0  # atno 6907 bound_to 6896
  150.7009  134.1359  159.4096 H   0  0  0  0  0  0  0  0  0  0  0  0  # atno 6908 bound_to 6896
  151.9280  135.0269  160.0578 H   0  0  0  0  0  0  0  0  0  0  0  0  # atno 6909 bound_to 6896
  144.7300  140.2977  143.6210 H   0  0  0  0  0  0  0  0  0  0  0  0  # atno 7974 bound_to 7965
  156.2874  140.2683  156.2173 H   0  0  0  0  0  0  0  0  0  0  0  0  # atno 8008 bound_to 7997
  155.0204  140.0386  157.2453 H   0  0  0  0  0  0  0  0  0  0  0  0  # atno 8009 bound_to 7997
  154.7441  140.2730  155.6353 H   0  0  0  0  0  0  0  0  0  0  0  0  # atno 8010 bound_to 7997
  140.3122  144.2807  150.6198 H   0  0  0  0  0  0  0  0  0  0  0  0  # atno 10167 bound_to 10162
  155.9998  130.4969  150.5555 H   0  0  0  0  0  0  0  0  0  0  0  0  # atno 10718 bound_to 10713
  154.4354  135.2761  155.1884 H   0  0  0  0  0  0  0  0  0  0  0  0  # atno 10763 bound_to 10752
  154.3773  135.6095  153.5775 H   0  0  0  0  0  0  0  0  0  0  0  0  # atno 10764 bound_to 10752
  152.9838  135.5872  154.4672 H   0  0  0  0  0  0  0  0  0  0  0  0  # atno 10765 bound_to 10752
  139.9110  134.9620  156.7507 H   0  0  0  0  0  0  0  0  0  0  0  0  # atno 11005 bound_to 11000
  145.7791  139.1885  143.2168 LP  0  0  0  0  0  0  0  0  0  0  0  0  # atno 17320 bound_to 7965
  146.0848  140.7723  142.9624 LP  0  0  0  0  0  0  0  0  0  0  0  0  # atno 17321 bound_to 7965
  140.5558  143.2199  151.7850 LP  0  0  0  0  0  0  0  0  0  0  0  0  # atno 17342 bound_to 10162
  139.4891  144.4415  151.9758 LP  0  0  0  0  0  0  0  0  0  0  0  0  # atno 17343 bound_to 10162
  157.3472  131.0727  151.1741 LP  0  0  0  0  0  0  0  0  0  0  0  0  # atno 17370 bound_to 10713
  157.2570  130.6641  149.5957 LP  0  0  0  0  0  0  0  0  0  0  0  0  # atno 17371 bound_to 10713
  140.6776  133.9503  155.7892 LP  0  0  0  0  0  0  0  0  0  0  0  0  # atno 17394 bound_to 11000
  141.0533  134.0453  157.3755 LP  0  0  0  0  0  0  0  0  0  0  0  0  # atno 17395 bound_to 11000

$$$$
