AV-unprocessed.smi:1632|AV-procd|sdf|6528|dock8
  -GOLD-   22720 7203D 1   1.00000     0.00000
 Structure written by MMmdl.
 42 44  0  0  0  0  0  0  0  0  1 V2000
  153.5439  136.4014  160.0272 O   0  0  0  0  0  0  0  0  0  0  0  0
  152.9564  137.6837  160.0829 C   0  0  0  0  0  0  0  0  0  0  0  0
  152.0472  137.9153  158.8677 C   0  0  0  0  0  0  0  0  0  0  0  0
  152.5042  139.0839  157.9783 C   0  0  0  0  0  0  0  0  0  0  0  0
  152.3233  140.4220  158.6391 C   0  0  0  0  0  0  0  0  0  0  0  0
  152.8960  140.6789  159.8164 N   0  0  0  0  0  0  0  0  0  0  0  0
  152.4985  141.9735  160.0795 C   0  0  0  0  0  0  0  0  0  0  0  0
  152.7877  142.8183  161.1749 C   0  0  0  0  0  0  0  0  0  0  0  0
  152.2563  144.1235  161.2292 C   0  0  0  0  0  0  0  0  0  0  0  0
  151.4291  144.6001  160.1917 C   0  0  0  0  0  0  0  0  0  0  0  0
  151.1279  143.7731  159.0926 C   0  0  0  0  0  0  0  0  0  0  0  0
  151.6628  142.4715  159.0422 C   0  0  0  0  0  0  0  0  0  0  0  0
  151.5616  141.4276  158.1263 N   0  0  0  0  0  0  0  0  0  0  0  0
  150.7694  141.4709  156.9017 C   0  0  0  0  0  0  0  0  0  0  0  0
  149.3220  140.9824  157.1088 C   0  0  2  0  0  0  0  0  0  0  0  0
  149.3619  139.5876  157.3337 O   0  0  0  0  0  0  0  0  0  0  0  0
  148.3989  141.3476  155.9527 C   0  0  0  0  0  0  0  0  0  0  0  0
  147.2681  142.1643  156.1777 C   0  0  0  0  0  0  0  0  0  0  0  0
  146.4196  142.5169  155.1107 C   0  0  0  0  0  0  0  0  0  0  0  0
  146.6945  142.0538  153.8103 C   0  0  0  0  0  0  0  0  0  0  0  0
  147.8158  141.2340  153.5793 C   0  0  0  0  0  0  0  0  0  0  0  0
  148.6647  140.8780  154.6458 C   0  0  0  0  0  0  0  0  0  0  0  0
  149.7338  140.0815  154.4052 F   0  0  0  0  0  0  0  0  0  0  0  0
  154.4814  136.5018  159.9655 H   0  0  0  0  0  0  0  0  0  0  0  0
  152.3760  137.7573  161.0028 H   0  0  0  0  0  0  0  0  0  0  0  0
  153.7382  138.4417  160.1351 H   0  0  0  0  0  0  0  0  0  0  0  0
  151.9730  136.9992  158.2801 H   0  0  0  0  0  0  0  0  0  0  0  0
  151.0406  138.1222  159.2270 H   0  0  0  0  0  0  0  0  0  0  0  0
  153.5411  138.9212  157.6979 H   0  0  0  0  0  0  0  0  0  0  0  0
  151.9375  139.0859  157.0467 H   0  0  0  0  0  0  0  0  0  0  0  0
  153.4193  142.4612  161.9749 H   0  0  0  0  0  0  0  0  0  0  0  0
  152.4834  144.7609  162.0710 H   0  0  0  0  0  0  0  0  0  0  0  0
  151.0250  145.6006  160.2407 H   0  0  0  0  0  0  0  0  0  0  0  0
  150.4940  144.1358  158.2974 H   0  0  0  0  0  0  0  0  0  0  0  0
  150.7956  142.4612  156.4526 H   0  0  0  0  0  0  0  0  0  0  0  0
  151.2659  140.8208  156.1797 H   0  0  0  0  0  0  0  0  0  0  0  0
  148.9310  141.4186  158.0283 H   0  0  0  0  0  0  0  0  0  0  0  0
  149.9644  139.4159  158.0413 H   0  0  0  0  0  0  0  0  0  0  0  0
  147.0479  142.5242  157.1721 H   0  0  0  0  0  0  0  0  0  0  0  0
  145.5574  143.1421  155.2905 H   0  0  0  0  0  0  0  0  0  0  0  0
  146.0439  142.3232  152.9914 H   0  0  0  0  0  0  0  0  0  0  0  0
  148.0234  140.8740  152.5826 H   0  0  0  0  0  0  0  0  0  0  0  0
  1  2  1  0  0  0  0
  1 24  1  0  0  0  0
  2  3  1  0  0  0  0
  2 25  1  0  0  0  0
  2 26  1  0  0  0  0
  3  4  1  0  0  0  0
  3 27  1  0  0  0  0
  3 28  1  0  0  0  0
  4  5  1  0  0  0  0
  4 29  1  0  0  0  0
  4 30  1  0  0  0  0
  5 13  1  0  0  0  0
  5  6  2  0  0  0  0
  6  7  1  0  0  0  0
  7 12  2  0  0  0  0
  7  8  1  0  0  0  0
  8  9  2  0  0  0  0
  8 31  1  0  0  0  0
  9 10  1  0  0  0  0
  9 32  1  0  0  0  0
 10 11  2  0  0  0  0
 10 33  1  0  0  0  0
 11 12  1  0  0  0  0
 11 34  1  0  0  0  0
 12 13  1  0  0  0  0
 13 14  1  0  0  0  0
 14 15  1  0  0  0  0
 14 35  1  0  0  0  0
 14 36  1  0  0  0  0
 15 16  1  0  0  0  0
 15 17  1  0  0  0  0
 15 37  1  0  0  0  0
 16 38  1  0  0  0  0
 17 22  1  0  0  0  0
 17 18  2  0  0  0  0
 18 19  1  0  0  0  0
 18 39  1  0  0  0  0
 19 20  2  0  0  0  0
 19 40  1  0  0  0  0
 20 21  1  0  0  0  0
 20 41  1  0  0  0  0
 21 22  2  0  0  0  0
 21 42  1  0  0  0  0
 22 23  1  0  0  0  0
M  END
> <s_m_source_file>
AV-unprocessed.smi

> <i_m_source_file_index>
1632

> <i_lp_mmshare_version>
43012

> <i_f3d_flags>
0

> <s_epik_input>
W09IXVtDSDJdW0NIMl1bQ0gyXWMobjEpbihjKGMxMilbY0hdW2NIXVtjSF1bY0hdMilbQ0gyXVtDQEhdKFtPSF0pYzNbY0hdW2NIXVtjSF1bY0hdYzNG

> <s_epik_cmdline>
J2VwaWtfcHl0aG9uJywgJy1waCcsICc3LjAnLCAnLXRuJywgJzgnLCAnLW1hJywgJzIwMCcsICctbWV0YWxfYmluZGluZycsICctaW1hZScsICc8aW5maWxlLm1hZT4nLCAnLW9tYWUnLCAnPG91dGZpbGUubWFlPic=

> <r_epik_Ionization_Penalty>
0.182561

> <r_epik_Ionization_Penalty_Charging>
0

> <r_epik_Ionization_Penalty_Neutral>
0.182561

> <r_epik_State_Penalty>
0.172086

> <r_epik_Charging_Adjusted_Penalty>
0.172086

> <i_epik_Tot_Q>
0

> <i_epik_Tot_abs_Q>
0

> <r_epik_Metal_State_Penalty>
0.000199649

> <b_epik_Metal_Only>
0

> <s_lp_Force_Field>
OPLS_2005

> <r_lp_Energy>
12.9461

> <b_lp_Chiralities_Consistent>
1

> <s_lp_Variant>
AV-unprocessed.smi:1632-1

> <Gold.Version>
5.8.1

> <Gold.Id.Protein>
6NUR|6NUR_protein|mol2

> <Gold.PLP.Fitness>
49.0266

> <Gold.PLP.PLP>
-47.6968

> <Gold.PLP.part.hbond>
-1.0000

> <Gold.PLP.part.metal>
0.0000

> <Gold.PLP.part.buried>
-4.5537

> <Gold.PLP.part.nonpolar>
-41.4391

> <Gold.PLP.part.repulsive>
0.0000

> <Gold.PLP.ligand.clash>
0.0000

> <Gold.PLP.ligand.torsion>
0.8593

> <Gold.PLP.Chemscore.Hbond>
1.0000

> <Gold.PLP.Chemscore.CHOScore>
0.0000

> <Gold.PLP.Chemscore.Metal>
0.0000

> <Gold.Chemscore.Hbonds>
donor molecule, donor type, donor heavy atom, donor atom, acceptor molecule, acceptor atom, score
      P1  H  6896  6908       L1     1  1.00

> <Gold.PLP.Chemscore.Internal.Correction>
0.0483

> <Gold.Rescore>
     Score         DG    S(hbond)    S(metal)    S(lipo)     H(rot)  DE(clash)    DE(int)     intcor
     13.19     -15.47       0.99        0.00     124.34       3.07       0.13       2.15       ----

> <Gold.Chemscore.Fitness>
13.1870

> <Gold.Chemscore.DG>
-15.4723

> <Gold.Chemscore.ZeroCoef>
-5.4800

> <Gold.Chemscore.Hbond>
0.9925

> <Gold.Chemscore.Metal>
0.0000

> <Gold.Chemscore.Lipo>
124.3355

> <Gold.Chemscore.Internal_Hbond>
0.0000

> <Gold.Chemscore.DEClash>
0.1314

> <Gold.Chemscore.DEInternal>
2.1540

> <Gold.Chemscore.Rot>
3.0741

> <Gold.Chemscore.Internal.Correction>
   9.000000E+99

> <Gold.Chemscore.Hbonds>
donor molecule, donor type, donor heavy atom, donor atom, acceptor molecule, acceptor atom, score
      P1  H  6896  6908       L1     1  0.84

> <Gold.Chemscore.Hbond.Weighted>
-3.3149

> <Gold.Chemscore.Metal.Weighted>
-0.0000

> <Gold.Chemscore.Lipo.Weighted>
-14.5473

> <Gold.Chemscore.Internal_Hbond.Weighted>
0.0000

> <Gold.Chemscore.DEClash.Weighted>
0.1314

> <Gold.Chemscore.DEInternal.Weighted>
2.1540

> <Gold.Chemscore.Rot.Weighted>
7.8698

> <Gold.Chemscore.Internal.Correction.Weighted>
   9.000000E+99

> <Gold.Protein.RotatedTorsions>
[ 6907 6896 6895 6894 ] final  -81.49 input  -60.11 | X-H torsion
[ 7974 7965 7964 7962 ] final   96.47 input  175.53 | X-H torsion
[ 8008 7997 7996 7995 ] final   66.10 input   59.86 | X-H torsion
[ 10167 10162 10161 10158 ] final   39.88 input  -65.29 | X-H torsion
[ 10718 10713 10712 10709 ] final  174.49 input   66.30 | X-H torsion
[ 10763 10752 10751 10750 ] final   42.40 input  -60.55 | X-H torsion
[ 11005 11000 10999 10996 ] final   41.57 input  -57.11 | X-H torsion

> <Gold.Protein.ActiveResidues>
 VAL166  LYS551  ARG553  GLY616  TRP617  ASP618  TYR619  PRO620  LYS621  CYS622 
 ASP623  PHE694  ASN695  SER759  ASP760  ASP761  ALA762  ILE779  LEU786  VAL792 
 PHE793  MET794  SER795  GLU796  ALA797  LYS798  CYS799  TRP800  GLU811  SER814 

> <Gold.Protein.RotatedAtoms>
  150.6911  134.3809  159.5033 H   0  0  0  0  0  0  0  0  0  0  0  0  # atno 6907 bound_to 6896
  152.1612  134.8908  160.0550 H   0  0  0  0  0  0  0  0  0  0  0  0  # atno 6908 bound_to 6896
  151.9969  133.3776  159.4203 H   0  0  0  0  0  0  0  0  0  0  0  0  # atno 6909 bound_to 6896
  145.4384  139.2303  143.3105 H   0  0  0  0  0  0  0  0  0  0  0  0  # atno 7974 bound_to 7965
  155.6721  140.3497  155.4822 H   0  0  0  0  0  0  0  0  0  0  0  0  # atno 8008 bound_to 7997
  155.9679  140.1150  157.0861 H   0  0  0  0  0  0  0  0  0  0  0  0  # atno 8009 bound_to 7997
  154.4159  140.1163  156.5253 H   0  0  0  0  0  0  0  0  0  0  0  0  # atno 8010 bound_to 7997
  140.3797  144.1996  150.6131 H   0  0  0  0  0  0  0  0  0  0  0  0  # atno 10167 bound_to 10162
  156.9489  131.0025  151.2953 H   0  0  0  0  0  0  0  0  0  0  0  0  # atno 10718 bound_to 10713
  152.9884  135.6133  154.2943 H   0  0  0  0  0  0  0  0  0  0  0  0  # atno 10763 bound_to 10752
  154.2667  135.2780  155.2757 H   0  0  0  0  0  0  0  0  0  0  0  0  # atno 10764 bound_to 10752
  154.5158  135.5828  153.6698 H   0  0  0  0  0  0  0  0  0  0  0  0  # atno 10765 bound_to 10752
  140.1822  134.4090  155.8194 H   0  0  0  0  0  0  0  0  0  0  0  0  # atno 11005 bound_to 11000
  146.2569  140.5130  142.8870 LP  0  0  0  0  0  0  0  0  0  0  0  0  # atno 17320 bound_to 7965
  144.8137  140.6431  143.6398 LP  0  0  0  0  0  0  0  0  0  0  0  0  # atno 17321 bound_to 7965
  140.4950  143.2335  151.8762 LP  0  0  0  0  0  0  0  0  0  0  0  0  # atno 17342 bound_to 10162
  139.4796  144.5123  151.8915 LP  0  0  0  0  0  0  0  0  0  0  0  0  # atno 17343 bound_to 10162
  157.5735  130.8327  149.8424 LP  0  0  0  0  0  0  0  0  0  0  0  0  # atno 17370 bound_to 10713
  156.0371  130.3748  150.1530 LP  0  0  0  0  0  0  0  0  0  0  0  0  # atno 17371 bound_to 10713
  141.2223  133.7006  156.7950 LP  0  0  0  0  0  0  0  0  0  0  0  0  # atno 17394 bound_to 11000
  140.2254  134.8725  157.3421 LP  0  0  0  0  0  0  0  0  0  0  0  0  # atno 17395 bound_to 11000

$$$$
