AV-unprocessed.smi:3285|AV-procd|sdf|12585|dock5
  -GOLD-   2272018503D 1   1.00000     0.00000
 Structure written by MMmdl.
 45 46  0  0  0  0  0  0  0  0  2 V2000
  152.1123  139.2790  155.0841 C   0  0  0  0  0  0  0  0  0  0  0  0
  150.7301  139.7866  154.7878 C   0  0  0  0  0  0  0  0  0  0  0  0
  149.9102  139.0583  154.0494 N   0  0  0  0  0  0  0  0  0  0  0  0
  148.7246  139.7934  153.9547 O   0  0  0  0  0  0  0  0  0  0  0  0
  148.8803  140.9512  154.6458 C   0  0  0  0  0  0  0  0  0  0  0  0
  147.7162  141.8831  154.6636 C   0  0  0  0  0  0  0  0  0  0  0  0
  150.1299  141.0115  155.1987 C   0  0  0  0  0  0  0  0  0  0  0  0
  150.7376  142.1032  156.0371 C   0  0  0  0  0  0  0  0  0  0  0  0
  150.0574  142.2017  157.4084 C   0  0  0  0  0  0  0  0  0  0  0  0
  150.2526  143.5416  157.9999 N   0  3  0  0  0  0  0  0  0  0  0  0
  151.6515  144.0304  158.0282 C   0  0  1  0  0  0  0  0  0  0  0  0
  151.7844  145.2207  158.9929 C   0  0  0  0  0  0  0  0  0  0  0  0
  151.6550  144.7887  160.4623 C   0  0  0  0  0  0  0  0  0  0  0  0
  152.6666  143.6872  160.8387 C   0  0  1  0  0  0  0  0  0  0  0  0
  152.4954  143.3058  162.3198 C   0  0  0  0  0  0  0  0  0  0  0  0
  152.5364  142.4732  159.8811 C   0  0  2  0  0  0  0  0  0  0  0  0
  153.5660  141.3669  160.1729 C   0  0  0  0  0  0  0  0  0  0  0  0
  152.6593  142.9255  158.4095 C   0  0  0  0  0  0  0  0  0  0  0  0
  152.8613  139.8405  154.5257 H   0  0  0  0  0  0  0  0  0  0  0  0
  152.2220  138.2266  154.8195 H   0  0  0  0  0  0  0  0  0  0  0  0
  152.3454  139.3771  156.1442 H   0  0  0  0  0  0  0  0  0  0  0  0
  148.0274  142.8954  154.4057 H   0  0  0  0  0  0  0  0  0  0  0  0
  147.2598  141.9105  155.6532 H   0  0  0  0  0  0  0  0  0  0  0  0
  146.9530  141.5734  153.9488 H   0  0  0  0  0  0  0  0  0  0  0  0
  151.8053  141.9298  156.1764 H   0  0  0  0  0  0  0  0  0  0  0  0
  150.6596  143.0630  155.5251 H   0  0  0  0  0  0  0  0  0  0  0  0
  148.9923  141.9975  157.3020 H   0  0  0  0  0  0  0  0  0  0  0  0
  150.4671  141.4458  158.0800 H   0  0  0  0  0  0  0  0  0  0  0  0
  149.7145  144.1940  157.4479 H   0  0  0  0  0  0  0  0  0  0  0  0
  151.8886  144.3897  157.0259 H   0  0  0  0  0  0  0  0  0  0  0  0
  152.7568  145.6933  158.8472 H   0  0  0  0  0  0  0  0  0  0  0  0
  151.0403  145.9832  158.7594 H   0  0  0  0  0  0  0  0  0  0  0  0
  151.7992  145.6586  161.1041 H   0  0  0  0  0  0  0  0  0  0  0  0
  150.6403  144.4369  160.6531 H   0  0  0  0  0  0  0  0  0  0  0  0
  153.6680  144.1049  160.7223 H   0  0  0  0  0  0  0  0  0  0  0  0
  151.5396  142.8112  162.4954 H   0  0  0  0  0  0  0  0  0  0  0  0
  152.5324  144.1895  162.9579 H   0  0  0  0  0  0  0  0  0  0  0  0
  153.2868  142.6390  162.6609 H   0  0  0  0  0  0  0  0  0  0  0  0
  151.5459  142.0365  160.0167 H   0  0  0  0  0  0  0  0  0  0  0  0
  154.5857  141.7507  160.1259 H   0  0  0  0  0  0  0  0  0  0  0  0
  153.4845  140.5561  159.4487 H   0  0  0  0  0  0  0  0  0  0  0  0
  153.4191  140.9246  161.1578 H   0  0  0  0  0  0  0  0  0  0  0  0
  152.5635  142.0693  157.7422 H   0  0  0  0  0  0  0  0  0  0  0  0
  153.6681  143.3066  158.2440 H   0  0  0  0  0  0  0  0  0  0  0  0
  149.8881  143.5450  158.9419 H   0  0  0  0  0  0  0  0  0  0  0  0
  1  2  1  0  0  0  0
  1 19  1  0  0  0  0
  1 20  1  0  0  0  0
  1 21  1  0  0  0  0
  2  7  1  0  0  0  0
  2  3  2  0  0  0  0
  3  4  1  0  0  0  0
  4  5  1  0  0  0  0
  5  6  1  0  0  0  0
  5  7  2  0  0  0  0
  6 22  1  0  0  0  0
  6 23  1  0  0  0  0
  6 24  1  0  0  0  0
  7  8  1  0  0  0  0
  8  9  1  0  0  0  0
  8 25  1  0  0  0  0
  8 26  1  0  0  0  0
  9 10  1  0  0  0  0
  9 27  1  0  0  0  0
  9 28  1  0  0  0  0
 10 11  1  0  0  0  0
 10 29  1  0  0  0  0
 10 45  1  0  0  0  0
 11 18  1  0  0  0  0
 11 12  1  0  0  0  0
 11 30  1  0  0  0  0
 12 13  1  0  0  0  0
 12 31  1  0  0  0  0
 12 32  1  0  0  0  0
 13 14  1  0  0  0  0
 13 33  1  0  0  0  0
 13 34  1  0  0  0  0
 14 15  1  0  0  0  0
 14 16  1  0  0  0  0
 14 35  1  0  0  0  0
 15 36  1  0  0  0  0
 15 37  1  0  0  0  0
 15 38  1  0  0  0  0
 16 17  1  0  0  0  0
 16 18  1  0  0  0  0
 16 39  1  0  0  0  0
 17 40  1  0  0  0  0
 17 41  1  0  0  0  0
 17 42  1  0  0  0  0
 18 43  1  0  0  0  0
 18 44  1  0  0  0  0
M  CHG  1  10   1
M  END
> <s_m_source_file>
AV-unprocessed.smi

> <i_m_source_file_index>
3285

> <i_lp_mmshare_version>
43012

> <i_f3d_flags>
0

> <s_epik_input>
W0NIM11jMW5vYyhbQ0gzXSljMVtDSDJdW0NIMl1bTkhdW0NAQEhdMltDSDJdW0NIMl1bQ0BASF0oW0NIM10pW0NAQEhdKFtDSDNdKVtDSDJdMg==

> <s_epik_cmdline>
J2VwaWtfcHl0aG9uJywgJy1waCcsICc3LjAnLCAnLXRuJywgJzgnLCAnLW1hJywgJzIwMCcsICctbWV0YWxfYmluZGluZycsICctaW1hZScsICc8aW5maWxlLm1hZT4nLCAnLW9tYWUnLCAnPG91dGZpbGUubWFlPic=

> <r_lp_tautomer_probability>
1

> <r_epik_Ionization_Penalty>
0.000204615

> <r_epik_Ionization_Penalty_Charging>
0.000204615

> <r_epik_Ionization_Penalty_Neutral>
9.28663e-11

> <r_epik_State_Penalty>
-0

> <r_epik_Charging_Adjusted_Penalty>
0.000204615

> <i_epik_Tot_Q>
1

> <i_epik_Tot_abs_Q>
1

> <r_epik_Metal_State_Penalty>
-0

> <b_epik_Metal_Only>
0

> <s_lp_Force_Field>
OPLS_2005

> <r_lp_Energy>
13.8901

> <b_lp_Chiralities_Consistent>
1

> <s_lp_Variant>
AV-unprocessed.smi:3285-6

> <Gold.Version>
5.8.1

> <Gold.Id.Protein>
6NUR|6NUR_protein|mol2

> <Gold.PLP.Fitness>
53.5294

> <Gold.PLP.PLP>
-48.2180

> <Gold.PLP.part.hbond>
-1.0000

> <Gold.PLP.part.metal>
0.0000

> <Gold.PLP.part.buried>
-3.6152

> <Gold.PLP.part.nonpolar>
-43.4604

> <Gold.PLP.part.repulsive>
0.5504

> <Gold.PLP.ligand.clash>
0.0000

> <Gold.PLP.ligand.torsion>
0.3483

> <Gold.PLP.Chemscore.Hbond>
2.0000

> <Gold.PLP.Chemscore.CHOScore>
0.0000

> <Gold.PLP.Chemscore.Metal>
0.0000

> <Gold.Chemscore.Hbonds>
donor molecule, donor type, donor heavy atom, donor atom, acceptor molecule, acceptor atom, score
      L1  H    10    29       P1  8028  2.00

> <Gold.PLP.Chemscore.Internal.Correction>
0.0081

> <Gold.Rescore>
     Score         DG    S(hbond)    S(metal)    S(lipo)     H(rot)  DE(clash)    DE(int)     intcor
     19.73     -20.78       0.50        0.00     145.96       1.35       0.45       0.60       ----

> <Gold.Chemscore.Fitness>
19.7263

> <Gold.Chemscore.DG>
-20.7778

> <Gold.Chemscore.ZeroCoef>
-5.4800

> <Gold.Chemscore.Hbond>
0.4993

> <Gold.Chemscore.Metal>
0.0000

> <Gold.Chemscore.Lipo>
145.9588

> <Gold.Chemscore.Internal_Hbond>
0.0000

> <Gold.Chemscore.DEClash>
0.4481

> <Gold.Chemscore.DEInternal>
0.6033

> <Gold.Chemscore.Rot>
1.3465

> <Gold.Chemscore.Internal.Correction>
   9.000000E+99

> <Gold.Chemscore.Hbonds>
donor molecule, donor type, donor heavy atom, donor atom, acceptor molecule, acceptor atom, score
      L1  H    10    29       P1  8028  0.27

> <Gold.Chemscore.Hbond.Weighted>
-1.6676

> <Gold.Chemscore.Metal.Weighted>
-0.0000

> <Gold.Chemscore.Lipo.Weighted>
-17.0772

> <Gold.Chemscore.Internal_Hbond.Weighted>
0.0000

> <Gold.Chemscore.DEClash.Weighted>
0.4481

> <Gold.Chemscore.DEInternal.Weighted>
0.6033

> <Gold.Chemscore.Rot.Weighted>
3.4470

> <Gold.Chemscore.Internal.Correction.Weighted>
   9.000000E+99

> <Gold.Protein.RotatedTorsions>
[ 6907 6896 6895 6894 ] final -108.22 input  -60.11 | X-H torsion
[ 7974 7965 7964 7962 ] final  -68.37 input  175.53 | X-H torsion
[ 8008 7997 7996 7995 ] final -142.20 input   59.86 | X-H torsion
[ 10167 10162 10161 10158 ] final    8.07 input  -65.29 | X-H torsion
[ 10718 10713 10712 10709 ] final  176.58 input   66.30 | X-H torsion
[ 10763 10752 10751 10750 ] final -100.82 input  -60.55 | X-H torsion
[ 11005 11000 10999 10996 ] final    5.64 input  -57.11 | X-H torsion

> <Gold.Protein.ActiveResidues>
 VAL166  LYS551  ARG553  GLY616  TRP617  ASP618  TYR619  PRO620  LYS621  CYS622 
 ASP623  PHE694  ASN695  SER759  ASP760  ASP761  ALA762  ILE779  LEU786  VAL792 
 PHE793  MET794  SER795  GLU796  ALA797  LYS798  CYS799  TRP800  GLU811  SER814 

> <Gold.Protein.RotatedAtoms>
  150.7489  133.9709  159.3545 H   0  0  0  0  0  0  0  0  0  0  0  0  # atno 6907 bound_to 6896
  151.7643  135.0800  160.0359 H   0  0  0  0  0  0  0  0  0  0  0  0  # atno 6908 bound_to 6896
  152.3382  133.5999  159.5894 H   0  0  0  0  0  0  0  0  0  0  0  0  # atno 6909 bound_to 6896
  145.7173  140.9053  143.0649 H   0  0  0  0  0  0  0  0  0  0  0  0  # atno 7974 bound_to 7965
  155.4903  140.0567  157.2954 H   0  0  0  0  0  0  0  0  0  0  0  0  # atno 8008 bound_to 7997
  154.4626  140.2003  156.0156 H   0  0  0  0  0  0  0  0  0  0  0  0  # atno 8009 bound_to 7997
  156.0917  140.3232  155.7828 H   0  0  0  0  0  0  0  0  0  0  0  0  # atno 8010 bound_to 7997
  140.6335  143.7939  150.7328 H   0  0  0  0  0  0  0  0  0  0  0  0  # atno 10167 bound_to 10162
  156.9180  130.9931  151.3009 H   0  0  0  0  0  0  0  0  0  0  0  0  # atno 10718 bound_to 10713
  154.7609  135.4921  153.9463 H   0  0  0  0  0  0  0  0  0  0  0  0  # atno 10763 bound_to 10752
  153.1250  135.6740  153.9279 H   0  0  0  0  0  0  0  0  0  0  0  0  # atno 10764 bound_to 10752
  153.8999  135.3111  155.3427 H   0  0  0  0  0  0  0  0  0  0  0  0  # atno 10765 bound_to 10752
  140.5685  134.0125  155.7999 H   0  0  0  0  0  0  0  0  0  0  0  0  # atno 11005 bound_to 11000
  144.6926  139.9155  143.7465 LP  0  0  0  0  0  0  0  0  0  0  0  0  # atno 17320 bound_to 7965
  146.0658  139.3649  143.0553 LP  0  0  0  0  0  0  0  0  0  0  0  0  # atno 17321 bound_to 7965
  140.1555  143.4320  152.2102 LP  0  0  0  0  0  0  0  0  0  0  0  0  # atno 17342 bound_to 10162
  139.5547  144.7364  151.4329 LP  0  0  0  0  0  0  0  0  0  0  0  0  # atno 17343 bound_to 10162
  157.5926  130.8454  149.8681 LP  0  0  0  0  0  0  0  0  0  0  0  0  # atno 17370 bound_to 10713
  156.0504  130.3719  150.1214 LP  0  0  0  0  0  0  0  0  0  0  0  0  # atno 17371 bound_to 10713
  141.1071  133.9676  157.2977 LP  0  0  0  0  0  0  0  0  0  0  0  0  # atno 17394 bound_to 11000
  139.9373  135.0195  156.8597 LP  0  0  0  0  0  0  0  0  0  0  0  0  # atno 17395 bound_to 11000

$$$$
