AV-unprocessed.smi:1360|AV-procd|sdf|5554|dock6
  -GOLD-   22720 5143D 1   1.00000     0.00000
 Structure written by MMmdl.
 36 37  0  0  0  0  0  0  0  0  1 V2000
  147.1111  142.0438  155.1769 C   0  0  0  0  0  0  0  0  0  0  0  0
  148.3257  141.1375  155.4364 C   0  0  1  0  0  0  0  0  0  0  0  0
  148.9288  140.5395  154.1468 C   0  0  0  0  0  0  0  0  0  0  0  0
  150.0399  139.6434  154.4103 N   0  0  0  0  0  0  0  0  0  0  0  0
  150.0894  138.2751  154.2479 C   0  0  0  0  0  0  0  0  0  0  0  0
  151.3379  137.8667  154.6204 C   0  0  0  0  0  0  0  0  0  0  0  0
  151.9879  139.0733  155.0031 C   0  0  0  0  0  0  0  0  0  0  0  0
  151.2078  140.1350  154.8787 N   0  0  0  0  0  0  0  0  0  0  0  0
  149.3414  141.8980  156.1586 N   0  0  0  0  0  0  0  0  0  0  0  0
  150.1387  141.4135  157.1236 C   0  0  0  0  0  0  0  0  0  0  0  0
  150.1034  140.2431  157.5051 O   0  0  0  0  0  0  0  0  0  0  0  0
  151.1298  142.4026  157.7508 C   0  0  1  0  0  0  0  0  0  0  0  0
  150.3990  143.6428  158.3138 C   0  0  0  0  0  0  0  0  0  0  0  0
  151.3176  144.5168  159.1494 C   0  0  0  0  0  0  0  0  0  0  0  0
  152.5008  144.0974  159.6297 C   0  0  0  0  0  0  0  0  0  0  0  0
  153.0505  142.7010  159.3966 C   0  0  0  0  0  0  0  0  0  0  0  0
  151.9811  141.7355  158.8503 C   0  0  0  0  0  0  0  0  0  0  0  0
  146.2907  141.4919  154.7182 H   0  0  0  0  0  0  0  0  0  0  0  0
  147.3679  142.8710  154.5143 H   0  0  0  0  0  0  0  0  0  0  0  0
  146.7329  142.4671  156.1080 H   0  0  0  0  0  0  0  0  0  0  0  0
  147.9867  140.3178  156.0727 H   0  0  0  0  0  0  0  0  0  0  0  0
  148.1644  140.0000  153.5850 H   0  0  0  0  0  0  0  0  0  0  0  0
  149.2899  141.3342  153.4926 H   0  0  0  0  0  0  0  0  0  0  0  0
  149.2416  137.7138  153.8831 H   0  0  0  0  0  0  0  0  0  0  0  0
  151.7276  136.8596  154.6201 H   0  0  0  0  0  0  0  0  0  0  0  0
  152.9959  139.2085  155.3665 H   0  0  0  0  0  0  0  0  0  0  0  0
  149.4431  142.8707  155.9073 H   0  0  0  0  0  0  0  0  0  0  0  0
  151.8127  142.7398  156.9684 H   0  0  0  0  0  0  0  0  0  0  0  0
  150.0021  144.2410  157.4928 H   0  0  0  0  0  0  0  0  0  0  0  0
  149.5503  143.3558  158.9363 H   0  0  0  0  0  0  0  0  0  0  0  0
  150.9750  145.5183  159.3645 H   0  0  0  0  0  0  0  0  0  0  0  0
  153.1155  144.7727  160.2065 H   0  0  0  0  0  0  0  0  0  0  0  0
  153.8816  142.7781  158.6950 H   0  0  0  0  0  0  0  0  0  0  0  0
  153.4577  142.3136  160.3309 H   0  0  0  0  0  0  0  0  0  0  0  0
  151.3342  141.4200  159.6708 H   0  0  0  0  0  0  0  0  0  0  0  0
  152.4620  140.8316  158.4738 H   0  0  0  0  0  0  0  0  0  0  0  0
  1  2  1  0  0  0  0
  1 18  1  0  0  0  0
  1 19  1  0  0  0  0
  1 20  1  0  0  0  0
  2  3  1  0  0  0  0
  2  9  1  0  0  0  0
  2 21  1  0  0  0  0
  3  4  1  0  0  0  0
  3 22  1  0  0  0  0
  3 23  1  0  0  0  0
  4  8  1  0  0  0  0
  4  5  1  0  0  0  0
  5  6  2  0  0  0  0
  5 24  1  0  0  0  0
  6  7  1  0  0  0  0
  6 25  1  0  0  0  0
  7  8  2  0  0  0  0
  7 26  1  0  0  0  0
  9 10  1  0  0  0  0
  9 27  1  0  0  0  0
 10 11  2  0  0  0  0
 10 12  1  0  0  0  0
 12 17  1  0  0  0  0
 12 13  1  0  0  0  0
 12 28  1  0  0  0  0
 13 14  1  0  0  0  0
 13 29  1  0  0  0  0
 13 30  1  0  0  0  0
 14 15  2  0  0  0  0
 14 31  1  0  0  0  0
 15 16  1  0  0  0  0
 15 32  1  0  0  0  0
 16 17  1  0  0  0  0
 16 33  1  0  0  0  0
 16 34  1  0  0  0  0
 17 35  1  0  0  0  0
 17 36  1  0  0  0  0
M  END
> <s_m_source_file>
AV-unprocessed.smi

> <i_m_source_file_index>
1360

> <i_lp_mmshare_version>
43012

> <i_f3d_flags>
0

> <s_epik_input>
bjFbY0hdW2NIXVtjSF1uMVtDSDJdW0NAQEhdKFtDSDNdKVtOSF1DKD1PKVtDQEBIXTJbQ0gyXVtDSF09W0NIXVtDSDJdW0NIMl0y

> <s_epik_cmdline>
J2VwaWtfcHl0aG9uJywgJy1waCcsICc3LjAnLCAnLXRuJywgJzgnLCAnLW1hJywgJzIwMCcsICctbWV0YWxfYmluZGluZycsICctaW1hZScsICc8aW5maWxlLm1hZT4nLCAnLW9tYWUnLCAnPG91dGZpbGUubWFlPic=

> <r_lp_tautomer_probability>
1

> <r_epik_Ionization_Penalty>
0.000315076

> <r_epik_Ionization_Penalty_Charging>
0

> <r_epik_Ionization_Penalty_Neutral>
0.000315076

> <r_epik_State_Penalty>
-0

> <r_epik_Charging_Adjusted_Penalty>
0

> <i_epik_Tot_Q>
0

> <i_epik_Tot_abs_Q>
0

> <r_epik_Metal_State_Penalty>
-0

> <b_epik_Metal_Only>
0

> <s_lp_Force_Field>
OPLS_2005

> <r_lp_Energy>
7.88056

> <b_lp_Chiralities_Consistent>
1

> <s_lp_Variant>
AV-unprocessed.smi:1360-4

> <Gold.Version>
5.8.1

> <Gold.Id.Protein>
6NUR|6NUR_protein|mol2

> <Gold.PLP.Fitness>
46.4464

> <Gold.PLP.PLP>
-38.7601

> <Gold.PLP.part.hbond>
-2.0000

> <Gold.PLP.part.metal>
0.0000

> <Gold.PLP.part.buried>
-2.0729

> <Gold.PLP.part.nonpolar>
-35.1677

> <Gold.PLP.part.repulsive>
0.1311

> <Gold.PLP.ligand.clash>
0.0000

> <Gold.PLP.ligand.torsion>
0.4486

> <Gold.PLP.Chemscore.Hbond>
1.8500

> <Gold.PLP.Chemscore.CHOScore>
1.0000

> <Gold.PLP.Chemscore.Metal>
0.0000

> <Gold.Chemscore.Hbonds>
donor molecule, donor type, donor heavy atom, donor atom, acceptor molecule, acceptor atom, score
      L1  H     9    27       P1  8028  1.00
      P1  H  7989  7998       L1     8  0.80
      L1  C     5    24       P1  7948  1.00

> <Gold.PLP.Chemscore.Internal.Correction>
0.0335

> <Gold.Rescore>
     Score         DG    S(hbond)    S(metal)    S(lipo)     H(rot)  DE(clash)    DE(int)     intcor
     19.05     -19.84       1.91        0.00     101.22       1.51       0.07       0.73       ----

> <Gold.Chemscore.Fitness>
19.0452

> <Gold.Chemscore.DG>
-19.8428

> <Gold.Chemscore.ZeroCoef>
-5.4800

> <Gold.Chemscore.Hbond>
1.9086

> <Gold.Chemscore.Metal>
0.0000

> <Gold.Chemscore.Lipo>
101.2187

> <Gold.Chemscore.Internal_Hbond>
0.0000

> <Gold.Chemscore.DEClash>
0.0718

> <Gold.Chemscore.DEInternal>
0.7257

> <Gold.Chemscore.Rot>
1.5057

> <Gold.Chemscore.Internal.Correction>
   9.000000E+99

> <Gold.Chemscore.Hbonds>
donor molecule, donor type, donor heavy atom, donor atom, acceptor molecule, acceptor atom, score
      L1  H     9    27       P1  8028  0.98
      P1  H  7989  7998       L1     8  0.07

> <Gold.Chemscore.Hbond.Weighted>
-6.3748

> <Gold.Chemscore.Metal.Weighted>
-0.0000

> <Gold.Chemscore.Lipo.Weighted>
-11.8426

> <Gold.Chemscore.Internal_Hbond.Weighted>
0.0000

> <Gold.Chemscore.DEClash.Weighted>
0.0718

> <Gold.Chemscore.DEInternal.Weighted>
0.7257

> <Gold.Chemscore.Rot.Weighted>
3.8546

> <Gold.Chemscore.Internal.Correction.Weighted>
   9.000000E+99

> <Gold.Protein.RotatedTorsions>
[ 6907 6896 6895 6894 ] final  107.50 input  -60.11 | X-H torsion
[ 7974 7965 7964 7962 ] final  114.03 input  175.53 | X-H torsion
[ 8008 7997 7996 7995 ] final -102.78 input   59.86 | X-H torsion
[ 10167 10162 10161 10158 ] final   42.72 input  -65.29 | X-H torsion
[ 10718 10713 10712 10709 ] final   82.67 input   66.30 | X-H torsion
[ 10763 10752 10751 10750 ] final  -16.99 input  -60.55 | X-H torsion
[ 11005 11000 10999 10996 ] final   23.23 input  -57.11 | X-H torsion

> <Gold.Protein.ActiveResidues>
 VAL166  LYS551  ARG553  GLY616  TRP617  ASP618  TYR619  PRO620  LYS621  CYS622 
 ASP623  PHE694  ASN695  SER759  ASP760  ASP761  ALA762  ILE779  LEU786  VAL792 
 PHE793  MET794  SER795  GLU796  ALA797  LYS798  CYS799  TRP800  GLU811  SER814 

> <Gold.Protein.RotatedAtoms>
  152.5152  133.9226  159.7541 H   0  0  0  0  0  0  0  0  0  0  0  0  # atno 6907 bound_to 6896
  150.9594  133.6453  159.2764 H   0  0  0  0  0  0  0  0  0  0  0  0  # atno 6908 bound_to 6896
  151.3704  135.0926  159.9516 H   0  0  0  0  0  0  0  0  0  0  0  0  # atno 6909 bound_to 6896
  145.2095  139.2913  143.4276 H   0  0  0  0  0  0  0  0  0  0  0  0  # atno 7974 bound_to 7965
  154.8615  140.0426  157.1668 H   0  0  0  0  0  0  0  0  0  0  0  0  # atno 8008 bound_to 7997
  154.8835  140.2976  155.5391 H   0  0  0  0  0  0  0  0  0  0  0  0  # atno 8009 bound_to 7997
  156.2998  140.2407  156.3840 H   0  0  0  0  0  0  0  0  0  0  0  0  # atno 8010 bound_to 7997
  140.3516  144.2343  150.6145 H   0  0  0  0  0  0  0  0  0  0  0  0  # atno 10167 bound_to 10162
  157.6862  131.0058  150.2410 H   0  0  0  0  0  0  0  0  0  0  0  0  # atno 10718 bound_to 10713
  153.5670  135.7008  153.5521 H   0  0  0  0  0  0  0  0  0  0  0  0  # atno 10763 bound_to 10752
  153.3378  135.4029  155.1547 H   0  0  0  0  0  0  0  0  0  0  0  0  # atno 10764 bound_to 10752
  154.8639  135.3734  154.5191 H   0  0  0  0  0  0  0  0  0  0  0  0  # atno 10765 bound_to 10752
  140.3719  134.2013  155.7666 H   0  0  0  0  0  0  0  0  0  0  0  0  # atno 11005 bound_to 11000
  146.3400  140.2366  142.8594 LP  0  0  0  0  0  0  0  0  0  0  0  0  # atno 17320 bound_to 7965
  144.9870  140.8512  143.5363 LP  0  0  0  0  0  0  0  0  0  0  0  0  # atno 17321 bound_to 7965
  140.5214  143.2265  151.8383 LP  0  0  0  0  0  0  0  0  0  0  0  0  # atno 17342 bound_to 10162
  139.4825  144.4832  151.9279 LP  0  0  0  0  0  0  0  0  0  0  0  0  # atno 17343 bound_to 10162
  156.3024  130.3760  149.7738 LP  0  0  0  0  0  0  0  0  0  0  0  0  # atno 17370 bound_to 10713
  156.5363  130.8280  151.3254 LP  0  0  0  0  0  0  0  0  0  0  0  0  # atno 17371 bound_to 10713
  141.1952  133.8111  157.0726 LP  0  0  0  0  0  0  0  0  0  0  0  0  # atno 17394 bound_to 11000
  140.0545  134.9788  157.1196 LP  0  0  0  0  0  0  0  0  0  0  0  0  # atno 17395 bound_to 11000

$$$$
