AV-unprocessed.smi:53|AV-procd|sdf|522|dock9
  -GOLD-   2262016393D 1   1.00000     0.00000
 Structure written by MMmdl.
 30 31  0  0  0  0  0  0  0  0  1 V2000
  139.4597  137.7996  155.2184 N   0  0  0  0  0  0  0  0  0  0  0  0
  140.5529  137.2334  154.6884 C   0  0  0  0  0  0  0  0  0  0  0  0
  140.4264  136.1782  153.7087 C   0  0  0  0  0  0  0  0  0  0  0  0
  141.5734  135.6555  153.2217 C   0  0  0  0  0  0  0  0  0  0  0  0
  142.8228  136.1004  153.6352 N   0  0  0  0  0  0  0  0  0  0  0  0
  144.1121  135.5142  153.0885 C   0  0  1  0  0  0  0  0  0  0  0  0
  143.8187  134.4572  152.2204 O   0  0  0  0  0  0  0  0  0  0  0  0
  144.0945  134.8332  150.8737 C   0  0  2  0  0  0  0  0  0  0  0  0
  144.3662  133.5788  150.0298 C   0  0  0  0  0  0  0  0  0  0  0  0
  143.2036  132.7811  149.9613 O   0  0  0  0  0  0  0  0  0  0  0  0
  145.3167  135.7334  151.0490 C   0  0  1  0  0  0  0  0  0  0  0  0
  145.5855  136.5361  149.9142 O   0  0  0  0  0  0  0  0  0  0  0  0
  144.9591  136.5382  152.2945 C   0  0  1  0  0  0  0  0  0  0  0  0
  144.2576  137.7310  151.9747 O   0  0  0  0  0  0  0  0  0  0  0  0
  142.9127  137.1407  154.5910 C   0  0  0  0  0  0  0  0  0  0  0  0
  143.9990  137.5782  154.9689 O   0  0  0  0  0  0  0  0  0  0  0  0
  141.7407  137.6563  155.0751 N   0  0  0  0  0  0  0  0  0  0  0  0
  144.6362  135.0894  153.9468 H   0  0  0  0  0  0  0  0  0  0  0  0
  143.2655  135.4144  150.4654 H   0  0  0  0  0  0  0  0  0  0  0  0
  146.1931  135.1191  151.2620 H   0  0  0  0  0  0  0  0  0  0  0  0
  145.8467  136.8039  152.8695 H   0  0  0  0  0  0  0  0  0  0  0  0
  139.5520  138.5370  155.9017 H   0  0  0  0  0  0  0  0  0  0  0  0
  138.5435  137.4864  154.9312 H   0  0  0  0  0  0  0  0  0  0  0  0
  139.4752  135.8013  153.3605 H   0  0  0  0  0  0  0  0  0  0  0  0
  141.4848  134.8683  152.4890 H   0  0  0  0  0  0  0  0  0  0  0  0
  144.6283  133.8618  149.0099 H   0  0  0  0  0  0  0  0  0  0  0  0
  145.2002  133.0025  150.4312 H   0  0  0  0  0  0  0  0  0  0  0  0
  142.4556  133.3483  149.8523 H   0  0  0  0  0  0  0  0  0  0  0  0
  144.9203  137.2047  149.8560 H   0  0  0  0  0  0  0  0  0  0  0  0
  144.1376  137.7620  151.0375 H   0  0  0  0  0  0  0  0  0  0  0  0
  1  2  1  0  0  0  0
  1 22  1  0  0  0  0
  1 23  1  0  0  0  0
  2 17  2  0  0  0  0
  2  3  1  0  0  0  0
  3  4  2  0  0  0  0
  3 24  1  0  0  0  0
  4  5  1  0  0  0  0
  4 25  1  0  0  0  0
  5  6  1  0  0  0  0
  5 15  1  0  0  0  0
  6 18  1  0  0  0  0
  6 13  1  0  0  0  0
  6  7  1  0  0  0  0
  7  8  1  0  0  0  0
  8 19  1  0  0  0  0
  8  9  1  0  0  0  0
  8 11  1  0  0  0  0
  9 10  1  0  0  0  0
  9 26  1  0  0  0  0
  9 27  1  0  0  0  0
 10 28  1  0  0  0  0
 11 20  1  0  0  0  0
 11 12  1  0  0  0  0
 11 13  1  0  0  0  0
 12 29  1  0  0  0  0
 13 21  1  0  0  0  0
 13 14  1  0  0  0  0
 14 30  1  0  0  0  0
 15 16  2  0  0  0  0
 15 17  1  0  0  0  0
M  END
> <s_m_source_file>
AV-unprocessed.smi

> <i_m_source_file_index>
53

> <i_lp_mmshare_version>
43012

> <i_f3d_flags>
0

> <s_epik_input>
W05IMl1jMVtjSF1bY0hdbihjKD1PKW4xKVtDQEBIXTJPW0NASF0oW0NIMl1bT0hdKVtDQEBIXShbT0hdKVtDQEBIXTJbT0hd

> <s_epik_cmdline>
J2VwaWtfcHl0aG9uJywgJy1waCcsICc3LjAnLCAnLXRuJywgJzgnLCAnLW1hJywgJzIwMCcsICctbWV0YWxfYmluZGluZycsICctaW1hZScsICc8aW5maWxlLm1hZT4nLCAnLW9tYWUnLCAnPG91dGZpbGUubWFlPic=

> <r_lp_tautomer_probability>
0.99996

> <r_epik_Ionization_Penalty>
0.00069087

> <r_epik_Ionization_Penalty_Charging>
2.61959e-08

> <r_epik_Ionization_Penalty_Neutral>
0.000690844

> <r_epik_State_Penalty>
1.15523e-05

> <r_epik_Charging_Adjusted_Penalty>
1.15785e-05

> <i_epik_Tot_Q>
0

> <i_epik_Tot_abs_Q>
0

> <r_epik_Metal_State_Penalty>
-0

> <b_epik_Metal_Only>
0

> <s_epik_Chemistry_Notes>
This compound contains an acetal/aminal-like group ( X-CH(R)-Y where X, Y are N, S, or O) that may be acid/base labile, releasing an aldehyde.

> <s_lp_Force_Field>
OPLS_2005

> <r_lp_Energy>
37.6612

> <b_lp_Chiralities_Consistent>
1

> <s_lp_Variant>
AV-unprocessed.smi:53-10

> <Gold.Version>
5.8.1

> <Gold.Id.Protein>
6NUR|6NUR_protein|mol2

> <Gold.PLP.Fitness>
35.8989

> <Gold.PLP.PLP>
-26.9243

> <Gold.PLP.part.hbond>
-4.5334

> <Gold.PLP.part.metal>
0.0000

> <Gold.PLP.part.buried>
-6.4677

> <Gold.PLP.part.nonpolar>
-15.5842

> <Gold.PLP.part.repulsive>
0.2238

> <Gold.PLP.ligand.clash>
0.0000

> <Gold.PLP.ligand.torsion>
0.0330

> <Gold.PLP.Chemscore.Hbond>
2.9920

> <Gold.PLP.Chemscore.CHOScore>
0.0000

> <Gold.PLP.Chemscore.Metal>
0.0000

> <Gold.Chemscore.Hbonds>
donor molecule, donor type, donor heavy atom, donor atom, acceptor molecule, acceptor atom, score
      L1  H    10    28       P1 10186  1.00
      L1  H    12    29       P1 10171  1.00
      L1  H    14    30       P1 10171  0.89

> <Gold.PLP.Chemscore.Internal.Correction>
0.0645

> <Gold.Rescore>
     Score         DG    S(hbond)    S(metal)    S(lipo)     H(rot)  DE(clash)    DE(int)     intcor
     10.04     -10.24       2.99        0.00      36.39       3.71       0.02       0.18       ----

> <Gold.Chemscore.Fitness>
10.0396

> <Gold.Chemscore.DG>
-10.2437

> <Gold.Chemscore.ZeroCoef>
-5.4800

> <Gold.Chemscore.Hbond>
2.9947

> <Gold.Chemscore.Metal>
0.0000

> <Gold.Chemscore.Lipo>
36.3910

> <Gold.Chemscore.Internal_Hbond>
0.0000

> <Gold.Chemscore.DEClash>
0.0202

> <Gold.Chemscore.DEInternal>
0.1838

> <Gold.Chemscore.Rot>
3.7095

> <Gold.Chemscore.Internal.Correction>
   9.000000E+99

> <Gold.Chemscore.Hbonds>
donor molecule, donor type, donor heavy atom, donor atom, acceptor molecule, acceptor atom, score
      L1  H    10    28       P1 10186  1.00
      L1  H    12    29       P1 10171  1.00
      L1  H    14    30       P1 10171  0.82

> <Gold.Chemscore.Hbond.Weighted>
-10.0023

> <Gold.Chemscore.Metal.Weighted>
-0.0000

> <Gold.Chemscore.Lipo.Weighted>
-4.2578

> <Gold.Chemscore.Internal_Hbond.Weighted>
0.0000

> <Gold.Chemscore.DEClash.Weighted>
0.0202

> <Gold.Chemscore.DEInternal.Weighted>
0.1838

> <Gold.Chemscore.Rot.Weighted>
9.4964

> <Gold.Chemscore.Internal.Correction.Weighted>
   9.000000E+99

> <Gold.Protein.RotatedTorsions>
[ 6907 6896 6895 6894 ] final  134.99 input  -60.11 | X-H torsion
[ 7974 7965 7964 7962 ] final -166.19 input  175.53 | X-H torsion
[ 8008 7997 7996 7995 ] final -147.24 input   59.86 | X-H torsion
[ 10167 10162 10161 10158 ] final  135.66 input  -65.29 | X-H torsion
[ 10718 10713 10712 10709 ] final -177.67 input   66.30 | X-H torsion
[ 10763 10752 10751 10750 ] final   71.31 input  -60.55 | X-H torsion
[ 11005 11000 10999 10996 ] final  166.02 input  -57.11 | X-H torsion

> <Gold.Protein.ActiveResidues>
 VAL166  LYS551  ARG553  GLY616  TRP617  ASP618  TYR619  PRO620  LYS621  CYS622 
 ASP623  PHE694  ASN695  SER759  ASP760  ASP761  ALA762  ILE779  LEU786  VAL792 
 PHE793  MET794  SER795  GLU796  ALA797  LYS798  CYS799  TRP800  GLU811  SER814 

> <Gold.Protein.RotatedAtoms>
  152.3053  133.5697  159.5644 H   0  0  0  0  0  0  0  0  0  0  0  0  # atno 6907 bound_to 6896
  150.7297  134.0232  159.3717 H   0  0  0  0  0  0  0  0  0  0  0  0  # atno 6908 bound_to 6896
  151.8128  135.0676  160.0466 H   0  0  0  0  0  0  0  0  0  0  0  0  # atno 6909 bound_to 6896
  144.7251  140.2704  143.6251 H   0  0  0  0  0  0  0  0  0  0  0  0  # atno 7974 bound_to 7965
  155.5723  140.0635  157.2803 H   0  0  0  0  0  0  0  0  0  0  0  0  # atno 8008 bound_to 7997
  154.4357  140.1867  156.0937 H   0  0  0  0  0  0  0  0  0  0  0  0  # atno 8009 bound_to 7997
  156.0367  140.3300  155.7202 H   0  0  0  0  0  0  0  0  0  0  0  0  # atno 8010 bound_to 7997
  139.5209  144.6505  151.5315 H   0  0  0  0  0  0  0  0  0  0  0  0  # atno 10167 bound_to 10162
  156.8329  130.9659  151.3105 H   0  0  0  0  0  0  0  0  0  0  0  0  # atno 10718 bound_to 10713
  153.0392  135.5141  154.7574 H   0  0  0  0  0  0  0  0  0  0  0  0  # atno 10763 bound_to 10752
  154.6526  135.2927  154.9970 H   0  0  0  0  0  0  0  0  0  0  0  0  # atno 10764 bound_to 10752
  154.0849  135.6658  153.4896 H   0  0  0  0  0  0  0  0  0  0  0  0  # atno 10765 bound_to 10752
  140.2621  134.7894  157.3599 H   0  0  0  0  0  0  0  0  0  0  0  0  # atno 11005 bound_to 11000
  145.8049  139.1979  143.2027 LP  0  0  0  0  0  0  0  0  0  0  0  0  # atno 17320 bound_to 7965
  146.0645  140.7935  142.9718 LP  0  0  0  0  0  0  0  0  0  0  0  0  # atno 17321 bound_to 7965
  140.6308  143.9079  150.6604 LP  0  0  0  0  0  0  0  0  0  0  0  0  # atno 17342 bound_to 10162
  140.2383  143.3683  152.1508 LP  0  0  0  0  0  0  0  0  0  0  0  0  # atno 17343 bound_to 10162
  157.6397  130.8795  149.9425 LP  0  0  0  0  0  0  0  0  0  0  0  0  # atno 17370 bound_to 10713
  156.0924  130.3662  150.0371 LP  0  0  0  0  0  0  0  0  0  0  0  0  # atno 17371 bound_to 10713
  140.1454  134.4918  155.8000 LP  0  0  0  0  0  0  0  0  0  0  0  0  # atno 17394 bound_to 11000
  141.2189  133.6841  156.7285 LP  0  0  0  0  0  0  0  0  0  0  0  0  # atno 17395 bound_to 11000

$$$$
