AV-unprocessed.smi:2011|AV-procd|sdf|8153|dock4
  -GOLD-   2272010393D 1   1.00000     0.00000
 Structure written by MMmdl.
 26 27  0  0  0  0  0  0  0  0  1 V2000
  150.6431  140.5932  156.4315 O   0  0  0  0  0  0  0  0  0  0  0  0
  150.2182  141.7301  156.2239 C   0  0  0  0  0  0  0  0  0  0  0  0
  150.7171  142.8249  156.8157 N   0  0  0  0  0  0  0  0  0  0  0  0
  151.8091  142.8296  157.7822 C   0  0  0  0  0  0  0  0  0  0  0  0
  151.4403  143.6220  159.0338 C   0  0  0  0  0  0  0  0  0  0  0  0
  151.3857  145.1567  158.9801 C   0  0  0  0  0  0  0  0  0  0  0  0
  151.9069  145.1783  160.4195 C   0  0  0  0  0  0  0  0  0  0  0  0
  152.4670  143.7759  160.1655 C   0  0  0  0  0  0  0  0  0  0  0  0
  149.2079  142.0435  155.3935 N   0  0  0  0  0  0  0  0  0  0  0  0
  148.4378  141.1743  154.5760 C   0  0  0  0  0  0  0  0  0  0  0  0
  148.7581  139.8916  154.3436 N   0  0  0  0  0  0  0  0  0  0  0  0
  147.8386  139.2693  153.5090 N   0  0  0  0  0  0  0  0  0  0  0  0
  146.8631  140.1062  153.1443 C   0  0  0  0  0  0  0  0  0  0  0  0
  146.9719  141.7365  153.7854 S   0  0  0  0  0  0  0  0  0  0  0  0
  150.3092  143.7197  156.5873 H   0  0  0  0  0  0  0  0  0  0  0  0
  152.0863  141.8065  158.0412 H   0  0  0  0  0  0  0  0  0  0  0  0
  152.6833  143.2669  157.2993 H   0  0  0  0  0  0  0  0  0  0  0  0
  150.5072  143.2534  159.4659 H   0  0  0  0  0  0  0  0  0  0  0  0
  152.0957  145.5821  158.2687 H   0  0  0  0  0  0  0  0  0  0  0  0
  150.3865  145.5726  158.8482 H   0  0  0  0  0  0  0  0  0  0  0  0
  152.6581  145.9417  160.6237 H   0  0  0  0  0  0  0  0  0  0  0  0
  151.1054  145.1866  161.1600 H   0  0  0  0  0  0  0  0  0  0  0  0
  152.3420  143.0770  160.9932 H   0  0  0  0  0  0  0  0  0  0  0  0
  153.4971  143.7932  159.8059 H   0  0  0  0  0  0  0  0  0  0  0  0
  148.9623  143.0206  155.3359 H   0  0  0  0  0  0  0  0  0  0  0  0
  146.0741  139.7611  152.4925 H   0  0  0  0  0  0  0  0  0  0  0  0
  1  2  2  0  0  0  0
  2  3  1  0  0  0  0
  2  9  1  0  0  0  0
  3  4  1  0  0  0  0
  3 15  1  0  0  0  0
  4  5  1  0  0  0  0
  4 16  1  0  0  0  0
  4 17  1  0  0  0  0
  5  8  1  0  0  0  0
  5  6  1  0  0  0  0
  5 18  1  0  0  0  0
  6  7  1  0  0  0  0
  6 19  1  0  0  0  0
  6 20  1  0  0  0  0
  7  8  1  0  0  0  0
  7 21  1  0  0  0  0
  7 22  1  0  0  0  0
  8 23  1  0  0  0  0
  8 24  1  0  0  0  0
  9 10  1  0  0  0  0
  9 25  1  0  0  0  0
 10 14  1  0  0  0  0
 10 11  2  0  0  0  0
 11 12  1  0  0  0  0
 12 13  2  0  0  0  0
 13 14  1  0  0  0  0
 13 26  1  0  0  0  0
M  END
> <s_m_source_file>
AV-unprocessed.smi

> <i_m_source_file_index>
2011

> <i_lp_mmshare_version>
43012

> <i_f3d_flags>
0

> <s_epik_input>
czFbY0hdbm5jMVtOSF1DKD1PKVtOSF1bQ0gyXVtDSF0yW0NIMl1bQ0gyXVtDSDJdMg==

> <s_epik_cmdline>
J2VwaWtfcHl0aG9uJywgJy1waCcsICc3LjAnLCAnLXRuJywgJzgnLCAnLW1hJywgJzIwMCcsICctbWV0YWxfYmluZGluZycsICctaW1hZScsICc8aW5maWxlLm1hZT4nLCAnLW9tYWUnLCAnPG91dGZpbGUubWFlPic=

> <r_lp_tautomer_probability>
1

> <r_epik_Ionization_Penalty>
0.000339164

> <r_epik_Ionization_Penalty_Charging>
0

> <r_epik_Ionization_Penalty_Neutral>
0.000339164

> <r_epik_State_Penalty>
-0

> <r_epik_Charging_Adjusted_Penalty>
0

> <i_epik_Tot_Q>
0

> <i_epik_Tot_abs_Q>
0

> <r_epik_Metal_State_Penalty>
0.176475

> <b_epik_Metal_Only>
0

> <s_lp_Force_Field>
OPLS_2005

> <r_lp_Energy>
11.4486

> <b_lp_Chiralities_Consistent>
1

> <s_lp_Variant>
AV-unprocessed.smi:2011-1

> <Gold.Version>
5.8.1

> <Gold.Id.Protein>
6NUR|6NUR_protein|mol2

> <Gold.PLP.Fitness>
39.0281

> <Gold.PLP.PLP>
-30.3846

> <Gold.PLP.part.hbond>
-2.0000

> <Gold.PLP.part.metal>
0.0000

> <Gold.PLP.part.buried>
-6.4495

> <Gold.PLP.part.nonpolar>
-23.5608

> <Gold.PLP.part.repulsive>
1.3924

> <Gold.PLP.ligand.clash>
0.0000

> <Gold.PLP.ligand.torsion>
0.1204

> <Gold.PLP.Chemscore.Hbond>
1.9920

> <Gold.PLP.Chemscore.CHOScore>
0.9502

> <Gold.PLP.Chemscore.Metal>
0.0000

> <Gold.Chemscore.Hbonds>
donor molecule, donor type, donor heavy atom, donor atom, acceptor molecule, acceptor atom, score
      L1  H     3    15       P1  8028  0.98
      L1  H     9    25       P1  8028  1.00
      L1  C    13    26       P1 10175  0.96

> <Gold.PLP.Chemscore.Internal.Correction>
0.0578

> <Gold.Rescore>
     Score         DG    S(hbond)    S(metal)    S(lipo)     H(rot)  DE(clash)    DE(int)     intcor
     15.48     -17.08       1.96        0.00      72.57       1.34       0.23       1.37       ----

> <Gold.Chemscore.Fitness>
15.4821

> <Gold.Chemscore.DG>
-17.0822

> <Gold.Chemscore.ZeroCoef>
-5.4800

> <Gold.Chemscore.Hbond>
1.9568

> <Gold.Chemscore.Metal>
0.0000

> <Gold.Chemscore.Lipo>
72.5684

> <Gold.Chemscore.Internal_Hbond>
0.0000

> <Gold.Chemscore.DEClash>
0.2286

> <Gold.Chemscore.DEInternal>
1.3715

> <Gold.Chemscore.Rot>
1.3375

> <Gold.Chemscore.Internal.Correction>
   9.000000E+99

> <Gold.Chemscore.Hbonds>
donor molecule, donor type, donor heavy atom, donor atom, acceptor molecule, acceptor atom, score
      L1  H     3    15       P1  8028  0.92
      L1  H     9    25       P1  8028  1.00

> <Gold.Chemscore.Hbond.Weighted>
-6.5357

> <Gold.Chemscore.Metal.Weighted>
-0.0000

> <Gold.Chemscore.Lipo.Weighted>
-8.4905

> <Gold.Chemscore.Internal_Hbond.Weighted>
0.0000

> <Gold.Chemscore.DEClash.Weighted>
0.2286

> <Gold.Chemscore.DEInternal.Weighted>
1.3715

> <Gold.Chemscore.Rot.Weighted>
3.4240

> <Gold.Chemscore.Internal.Correction.Weighted>
   9.000000E+99

> <Gold.Protein.RotatedTorsions>
[ 6907 6896 6895 6894 ] final  117.77 input  -60.11 | X-H torsion
[ 7974 7965 7964 7962 ] final   84.88 input  175.53 | X-H torsion
[ 8008 7997 7996 7995 ] final -149.59 input   59.86 | X-H torsion
[ 10167 10162 10161 10158 ] final -145.30 input  -65.29 | X-H torsion
[ 10718 10713 10712 10709 ] final -144.32 input   66.30 | X-H torsion
[ 10763 10752 10751 10750 ] final  116.86 input  -60.55 | X-H torsion
[ 11005 11000 10999 10996 ] final -126.54 input  -57.11 | X-H torsion

> <Gold.Protein.ActiveResidues>
 VAL166  LYS551  ARG553  GLY616  TRP617  ASP618  TYR619  PRO620  LYS621  CYS622 
 ASP623  PHE694  ASN695  SER759  ASP760  ASP761  ALA762  ILE779  LEU786  VAL792 
 PHE793  MET794  SER795  GLU796  ALA797  LYS798  CYS799  TRP800  GLU811  SER814 

> <Gold.Protein.RotatedAtoms>
  152.4589  133.7781  159.6835 H   0  0  0  0  0  0  0  0  0  0  0  0  # atno 6907 bound_to 6896
  150.8526  133.7754  159.3026 H   0  0  0  0  0  0  0  0  0  0  0  0  # atno 6908 bound_to 6896
  151.5345  135.1071  159.9963 H   0  0  0  0  0  0  0  0  0  0  0  0  # atno 6909 bound_to 6896
  145.5928  139.2340  143.2289 H   0  0  0  0  0  0  0  0  0  0  0  0  # atno 7974 bound_to 7965
  155.6101  140.0671  157.2708 H   0  0  0  0  0  0  0  0  0  0  0  0  # atno 8008 bound_to 7997
  154.4256  140.1803  156.1311 H   0  0  0  0  0  0  0  0  0  0  0  0  # atno 8009 bound_to 7997
  156.0091  140.3328  155.6926 H   0  0  0  0  0  0  0  0  0  0  0  0  # atno 8010 bound_to 7997
  139.7818  143.8090  152.2639 H   0  0  0  0  0  0  0  0  0  0  0  0  # atno 10167 bound_to 10162
  156.3686  130.7776  151.1954 H   0  0  0  0  0  0  0  0  0  0  0  0  # atno 10718 bound_to 10713
  153.5437  135.3553  155.2729 H   0  0  0  0  0  0  0  0  0  0  0  0  # atno 10763 bound_to 10752
  154.8714  135.4097  154.3015 H   0  0  0  0  0  0  0  0  0  0  0  0  # atno 10764 bound_to 10752
  153.3727  135.7065  153.6693 H   0  0  0  0  0  0  0  0  0  0  0  0  # atno 10765 bound_to 10752
  140.9673  134.0854  157.3906 H   0  0  0  0  0  0  0  0  0  0  0  0  # atno 11005 bound_to 11000
  146.1634  140.6754  142.9267 LP  0  0  0  0  0  0  0  0  0  0  0  0  # atno 17320 bound_to 7965
  144.7343  140.4764  143.6915 LP  0  0  0  0  0  0  0  0  0  0  0  0  # atno 17321 bound_to 7965
  139.8155  144.7318  150.9641 LP  0  0  0  0  0  0  0  0  0  0  0  0  # atno 17342 bound_to 10162
  140.7818  143.4209  151.0843 LP  0  0  0  0  0  0  0  0  0  0  0  0  # atno 17343 bound_to 10162
  157.7481  131.0379  150.4476 LP  0  0  0  0  0  0  0  0  0  0  0  0  # atno 17370 bound_to 10713
  156.4699  130.4050  149.6524 LP  0  0  0  0  0  0  0  0  0  0  0  0  # atno 17371 bound_to 10713
  139.8899  135.0108  156.6706 LP  0  0  0  0  0  0  0  0  0  0  0  0  # atno 17394 bound_to 11000
  140.7380  133.9002  155.8258 LP  0  0  0  0  0  0  0  0  0  0  0  0  # atno 17395 bound_to 11000

$$$$
