AV-unprocessed.smi:1554|AV-procd|sdf|6260|dock5
  -GOLD-   22720 6443D 1   1.00000     0.00000
 Structure written by MMmdl.
 49 51  0  0  0  0  0  0  0  0  3 V2000
  145.5678  129.7638  151.9102 C   0  0  0  0  0  0  0  0  0  0  0  0
  145.5693  131.2726  151.7327 C   0  0  0  0  0  0  0  0  0  0  0  0
  144.5126  131.8674  151.0074 C   0  0  0  0  0  0  0  0  0  0  0  0
  144.5408  133.2493  150.8631 C   0  0  0  0  0  0  0  0  0  0  0  0
  143.6592  134.1172  150.2162 N   0  3  0  0  0  0  0  0  0  0  0  0
  144.1068  135.3966  150.3426 C   0  0  0  0  0  0  0  0  0  0  0  0
  145.2664  135.3593  151.0547 N   0  0  0  0  0  0  0  0  0  0  0  0
  146.1484  136.4656  151.4643 C   0  0  0  0  0  0  0  0  0  0  0  0
  145.5682  137.3401  152.5984 C   0  0  2  0  0  0  0  0  0  0  0  0
  144.3408  137.8924  152.1614 O   0  0  0  0  0  0  0  0  0  0  0  0
  146.5090  138.4872  153.0284 C   0  0  0  0  0  0  0  0  0  0  0  0
  147.7798  137.9996  153.6293 N   0  3  1  0  0  0  0  0  0  0  0  0
  148.7843  139.0591  153.9036 C   0  0  0  0  0  0  0  0  0  0  0  0
  148.4455  139.8442  155.1862 C   0  0  0  0  0  0  0  0  0  0  0  0
  148.2906  138.9460  156.2783 O   0  0  0  0  0  0  0  0  0  0  0  0
  147.2410  138.0076  156.0695 C   0  0  2  0  0  0  0  0  0  0  0  0
  147.1007  137.1577  157.3372 C   0  0  0  0  0  0  0  0  0  0  0  0
  147.5802  137.1524  154.8311 C   0  0  0  0  0  0  0  0  0  0  0  0
  145.5723  134.0388  151.4090 C   0  0  0  0  0  0  0  0  0  0  0  0
  146.6203  133.4671  152.1282 C   0  0  0  0  0  0  0  0  0  0  0  0
  146.6099  132.0628  152.2855 C   0  0  0  0  0  0  0  0  0  0  0  0
  147.7407  131.4131  153.0647 C   0  0  0  0  0  0  0  0  0  0  0  0
  144.6916  129.3086  151.4475 H   0  0  0  0  0  0  0  0  0  0  0  0
  145.5583  129.5020  152.9685 H   0  0  0  0  0  0  0  0  0  0  0  0
  146.4533  129.3231  151.4518 H   0  0  0  0  0  0  0  0  0  0  0  0
  143.7162  131.2722  150.5842 H   0  0  0  0  0  0  0  0  0  0  0  0
  143.6313  136.2817  149.9443 H   0  0  0  0  0  0  0  0  0  0  0  0
  147.0916  136.0214  151.7851 H   0  0  0  0  0  0  0  0  0  0  0  0
  146.3899  137.0751  150.5941 H   0  0  0  0  0  0  0  0  0  0  0  0
  145.3548  136.6850  153.4422 H   0  0  0  0  0  0  0  0  0  0  0  0
  144.3663  138.8297  152.2800 H   0  0  0  0  0  0  0  0  0  0  0  0
  146.7306  139.1286  152.1759 H   0  0  0  0  0  0  0  0  0  0  0  0
  145.9849  139.1167  153.7488 H   0  0  0  0  0  0  0  0  0  0  0  0
  149.7557  138.5783  154.0276 H   0  0  0  0  0  0  0  0  0  0  0  0
  148.8882  139.7366  153.0570 H   0  0  0  0  0  0  0  0  0  0  0  0
  149.2514  140.5404  155.4188 H   0  0  0  0  0  0  0  0  0  0  0  0
  147.5429  140.4436  155.0628 H   0  0  0  0  0  0  0  0  0  0  0  0
  146.3038  138.5437  155.9104 H   0  0  0  0  0  0  0  0  0  0  0  0
  146.2983  136.4267  157.2338 H   0  0  0  0  0  0  0  0  0  0  0  0
  146.8705  137.7816  158.2014 H   0  0  0  0  0  0  0  0  0  0  0  0
  148.0217  136.6157  157.5541 H   0  0  0  0  0  0  0  0  0  0  0  0
  146.8076  136.4047  154.6481 H   0  0  0  0  0  0  0  0  0  0  0  0
  148.5019  136.5977  155.0133 H   0  0  0  0  0  0  0  0  0  0  0  0
  147.4135  134.0630  152.5538 H   0  0  0  0  0  0  0  0  0  0  0  0
  148.4756  132.1495  153.3915 H   0  0  0  0  0  0  0  0  0  0  0  0
  148.2590  130.6779  152.4489 H   0  0  0  0  0  0  0  0  0  0  0  0
  147.3539  130.9119  153.9523 H   0  0  0  0  0  0  0  0  0  0  0  0
  148.1831  137.3907  152.9317 H   0  0  0  0  0  0  0  0  0  0  0  0
  142.8120  133.8592  149.7262 H   0  0  0  0  0  0  0  0  0  0  0  0
  1  2  1  0  0  0  0
  1 23  1  0  0  0  0
  1 24  1  0  0  0  0
  1 25  1  0  0  0  0
  2 21  1  0  0  0  0
  2  3  2  0  0  0  0
  3  4  1  0  0  0  0
  3 26  1  0  0  0  0
  4 19  2  0  0  0  0
  4  5  1  0  0  0  0
  5  6  2  0  0  0  0
  5 49  1  0  0  0  0
  6  7  1  0  0  0  0
  6 27  1  0  0  0  0
  7  8  1  0  0  0  0
  7 19  1  0  0  0  0
  8  9  1  0  0  0  0
  8 28  1  0  0  0  0
  8 29  1  0  0  0  0
  9 10  1  0  0  0  0
  9 11  1  0  0  0  0
  9 30  1  0  0  0  0
 10 31  1  0  0  0  0
 11 12  1  0  0  0  0
 11 32  1  0  0  0  0
 11 33  1  0  0  0  0
 12 18  1  0  0  0  0
 12 13  1  0  0  0  0
 12 48  1  0  0  0  0
 13 14  1  0  0  0  0
 13 34  1  0  0  0  0
 13 35  1  0  0  0  0
 14 15  1  0  0  0  0
 14 36  1  0  0  0  0
 14 37  1  0  0  0  0
 15 16  1  0  0  0  0
 16 17  1  0  0  0  0
 16 18  1  0  0  0  0
 16 38  1  0  0  0  0
 17 39  1  0  0  0  0
 17 40  1  0  0  0  0
 17 41  1  0  0  0  0
 18 42  1  0  0  0  0
 18 43  1  0  0  0  0
 19 20  1  0  0  0  0
 20 21  2  0  0  0  0
 20 44  1  0  0  0  0
 21 22  1  0  0  0  0
 22 45  1  0  0  0  0
 22 46  1  0  0  0  0
 22 47  1  0  0  0  0
M  CHG  1   5   1
M  CHG  1  12   1
M  END
> <s_m_source_file>
AV-unprocessed.smi

> <i_m_source_file_index>
1554

> <i_lp_mmshare_version>
43012

> <i_f3d_flags>
0

> <s_epik_input>
W0NIM11jKFtjSF0xKWMoW0NIM10pW2NIXWMoYzEyKW4oW2NIXW4yKVtDSDJdW0NASF0oW09IXSlbQ0gyXU4zW0NIMl1bQ0gyXU9bQ0BASF0oW0NIM10pW0NIMl0z

> <s_epik_cmdline>
J2VwaWtfcHl0aG9uJywgJy1waCcsICc3LjAnLCAnLXRuJywgJzgnLCAnLW1hJywgJzIwMCcsICctbWV0YWxfYmluZGluZycsICctaW1hZScsICc8aW5maWxlLm1hZT4nLCAnLW9tYWUnLCAnPG91dGZpbGUubWFlPic=

> <r_epik_Ionization_Penalty>
1.8848

> <r_epik_Ionization_Penalty_Charging>
1.88479

> <r_epik_Ionization_Penalty_Neutral>
1.42224e-05

> <r_epik_State_Penalty>
1.94551

> <r_epik_Charging_Adjusted_Penalty>
3.8303

> <i_epik_Tot_Q>
2

> <i_epik_Tot_abs_Q>
2

> <r_epik_Metal_State_Penalty>
5.95849

> <b_epik_Metal_Only>
0

> <s_lp_Force_Field>
OPLS_2005

> <r_lp_Energy>
33.2635

> <b_lp_Chiralities_Consistent>
1

> <s_lp_Variant>
AV-unprocessed.smi:1554-21

> <Gold.Version>
5.8.1

> <Gold.Id.Protein>
6NUR|6NUR_protein|mol2

> <Gold.PLP.Fitness>
50.0221

> <Gold.PLP.PLP>
-33.6306

> <Gold.PLP.part.hbond>
-4.0000

> <Gold.PLP.part.metal>
0.0000

> <Gold.PLP.part.buried>
-2.7477

> <Gold.PLP.part.nonpolar>
-27.6690

> <Gold.PLP.part.repulsive>
0.0286

> <Gold.PLP.ligand.clash>
0.0000

> <Gold.PLP.ligand.torsion>
0.1791

> <Gold.PLP.Chemscore.Hbond>
4.5680

> <Gold.PLP.Chemscore.CHOScore>
1.0000

> <Gold.PLP.Chemscore.Metal>
0.0000

> <Gold.Chemscore.Hbonds>
donor molecule, donor type, donor heavy atom, donor atom, acceptor molecule, acceptor atom, score
      L1  H     5    49       P1 10186  1.60
      L1  H    10    31       P1 10175  1.00
      L1  H    12    48       P1  7948  2.00
      L1  C     6    27       P1 10171  1.00

> <Gold.PLP.Chemscore.Internal.Correction>
0.0458

> <Gold.Rescore>
     Score         DG    S(hbond)    S(metal)    S(lipo)     H(rot)  DE(clash)    DE(int)     intcor
     18.14     -19.35       2.80        0.00      84.81       2.11       1.02       0.18       ----

> <Gold.Chemscore.Fitness>
18.1424

> <Gold.Chemscore.DG>
-19.3486

> <Gold.Chemscore.ZeroCoef>
-5.4800

> <Gold.Chemscore.Hbond>
2.8002

> <Gold.Chemscore.Metal>
0.0000

> <Gold.Chemscore.Lipo>
84.8146

> <Gold.Chemscore.Internal_Hbond>
0.0000

> <Gold.Chemscore.DEClash>
1.0247

> <Gold.Chemscore.DEInternal>
0.1815

> <Gold.Chemscore.Rot>
2.1122

> <Gold.Chemscore.Internal.Correction>
   9.000000E+99

> <Gold.Chemscore.Hbonds>
donor molecule, donor type, donor heavy atom, donor atom, acceptor molecule, acceptor atom, score
      L1  H     5    49       P1 10186  0.79
      L1  H    10    31       P1 10175  0.98
      L1  H    12    48       P1  7948  1.00

> <Gold.Chemscore.Hbond.Weighted>
-9.3526

> <Gold.Chemscore.Metal.Weighted>
-0.0000

> <Gold.Chemscore.Lipo.Weighted>
-9.9233

> <Gold.Chemscore.Internal_Hbond.Weighted>
0.0000

> <Gold.Chemscore.DEClash.Weighted>
1.0247

> <Gold.Chemscore.DEInternal.Weighted>
0.1815

> <Gold.Chemscore.Rot.Weighted>
5.4073

> <Gold.Chemscore.Internal.Correction.Weighted>
   9.000000E+99

> <Gold.Protein.RotatedTorsions>
[ 6907 6896 6895 6894 ] final  -17.00 input  -60.11 | X-H torsion
[ 7974 7965 7964 7962 ] final  -48.16 input  175.53 | X-H torsion
[ 8008 7997 7996 7995 ] final  -84.04 input   59.86 | X-H torsion
[ 10167 10162 10161 10158 ] final  149.67 input  -65.29 | X-H torsion
[ 10718 10713 10712 10709 ] final  121.89 input   66.30 | X-H torsion
[ 10763 10752 10751 10750 ] final -105.51 input  -60.55 | X-H torsion
[ 11005 11000 10999 10996 ] final  -12.79 input  -57.11 | X-H torsion

> <Gold.Protein.ActiveResidues>
 VAL166  LYS551  ARG553  GLY616  TRP617  ASP618  TYR619  PRO620  LYS621  CYS622 
 ASP623  PHE694  ASN695  SER759  ASP760  ASP761  ALA762  ILE779  LEU786  VAL792 
 PHE793  MET794  SER795  GLU796  ALA797  LYS798  CYS799  TRP800  GLU811  SER814 

> <Gold.Protein.RotatedAtoms>
  151.2999  135.0766  159.9234 H   0  0  0  0  0  0  0  0  0  0  0  0  # atno 6907 bound_to 6896
  152.5299  133.9844  159.7832 H   0  0  0  0  0  0  0  0  0  0  0  0  # atno 6908 bound_to 6896
  151.0129  133.5897  159.2711 H   0  0  0  0  0  0  0  0  0  0  0  0  # atno 6909 bound_to 6896
  145.9540  140.7544  142.9490 H   0  0  0  0  0  0  0  0  0  0  0  0  # atno 7974 bound_to 7965
  154.6255  140.0610  156.9668 H   0  0  0  0  0  0  0  0  0  0  0  0  # atno 8008 bound_to 7997
  155.1749  140.3294  155.4367 H   0  0  0  0  0  0  0  0  0  0  0  0  # atno 8009 bound_to 7997
  156.2455  140.1907  156.6849 H   0  0  0  0  0  0  0  0  0  0  0  0  # atno 8010 bound_to 7997
  139.4859  144.5583  151.7277 H   0  0  0  0  0  0  0  0  0  0  0  0  # atno 10167 bound_to 10162
  157.5784  131.1077  150.8235 H   0  0  0  0  0  0  0  0  0  0  0  0  # atno 10718 bound_to 10713
  154.7951  135.4746  154.0143 H   0  0  0  0  0  0  0  0  0  0  0  0  # atno 10763 bound_to 10752
  153.1692  135.6822  153.8639 H   0  0  0  0  0  0  0  0  0  0  0  0  # atno 10764 bound_to 10752
  153.8227  135.3202  155.3389 H   0  0  0  0  0  0  0  0  0  0  0  0  # atno 10765 bound_to 10752
  140.7693  133.8451  155.9193 H   0  0  0  0  0  0  0  0  0  0  0  0  # atno 11005 bound_to 11000
  144.6801  140.2482  143.7335 LP  0  0  0  0  0  0  0  0  0  0  0  0  # atno 17320 bound_to 7965
  145.8131  139.2012  143.1981 LP  0  0  0  0  0  0  0  0  0  0  0  0  # atno 17321 bound_to 7965
  140.5148  144.0969  150.6005 LP  0  0  0  0  0  0  0  0  0  0  0  0  # atno 17342 bound_to 10162
  140.3907  143.2754  152.0063 LP  0  0  0  0  0  0  0  0  0  0  0  0  # atno 17343 bound_to 10162
  156.8688  130.5139  149.5298 LP  0  0  0  0  0  0  0  0  0  0  0  0  # atno 17370 bound_to 10713
  156.0829  130.5835  150.9595 LP  0  0  0  0  0  0  0  0  0  0  0  0  # atno 17371 bound_to 10713
  140.9588  134.1682  157.4670 LP  0  0  0  0  0  0  0  0  0  0  0  0  # atno 17394 bound_to 11000
  139.8758  134.9937  156.5658 LP  0  0  0  0  0  0  0  0  0  0  0  0  # atno 17395 bound_to 11000

$$$$
