AV-unprocessed.smi:2477|AV-procd|sdf|9760|dock8
  -GOLD-   2272013403D 1   1.00000     0.00000
 Structure written by MMmdl.
 51 53  0  0  0  0  0  0  0  0  1 V2000
  143.3250  132.3872  149.8352 C   0  0  0  0  0  0  0  0  0  0  0  0
  144.4097  132.5339  150.8092 N   0  0  0  0  0  0  0  0  0  0  0  0
  144.8669  131.3717  151.4531 C   0  0  0  0  0  0  0  0  0  0  0  0
  145.8545  131.4116  152.3581 C   0  0  0  0  0  0  0  0  0  0  0  0
  146.4516  132.6889  152.6665 C   0  0  0  0  0  0  0  0  0  0  0  0
  146.0316  133.8226  152.0501 C   0  0  0  0  0  0  0  0  0  0  0  0
  146.5515  135.1053  152.2968 N   0  0  0  0  0  0  0  0  0  0  0  0
  145.9514  136.1776  152.8456 C   0  0  0  0  0  0  0  0  0  0  0  0
  144.7999  136.2169  153.2784 O   0  0  0  0  0  0  0  0  0  0  0  0
  146.7852  137.2264  152.8802 N   0  0  0  0  0  0  0  0  0  0  0  0
  146.4578  138.5500  153.4057 C   0  0  1  0  0  0  0  0  0  0  0  0
  145.8446  138.4199  154.8133 C   0  0  0  0  0  0  0  0  0  0  0  0
  145.5021  139.7960  155.4058 C   0  0  0  0  0  0  0  0  0  0  0  0
  146.7300  140.7192  155.4203 C   0  0  0  0  0  0  0  0  0  0  0  0
  147.3464  140.8484  154.0178 C   0  0  0  0  0  0  0  0  0  0  0  0
  147.7001  139.4711  153.4173 C   0  0  1  0  0  0  0  0  0  0  0  0
  148.7253  138.8245  154.1668 O   0  0  0  0  0  0  0  0  0  0  0  0
  150.0361  139.3454  153.9914 C   0  0  0  0  0  0  0  0  0  0  0  0
  151.0523  138.2088  153.9007 C   0  0  0  0  0  0  0  0  0  0  0  0
  152.3859  138.8433  154.3107 C   0  0  0  0  0  0  0  0  0  0  0  0
  152.0316  140.0763  155.1582 C   0  0  0  0  0  0  0  0  0  0  0  0
  150.5010  140.1292  155.2192 C   0  0  0  0  0  0  0  0  0  0  0  0
  144.9355  133.7695  151.0628 C   0  0  0  0  0  0  0  0  0  0  0  0
  144.5083  134.7744  150.4889 O   0  0  0  0  0  0  0  0  0  0  0  0
  143.0176  131.3496  149.7000 H   0  0  0  0  0  0  0  0  0  0  0  0
  143.6326  132.7631  148.8584 H   0  0  0  0  0  0  0  0  0  0  0  0
  142.4457  132.9486  150.1544 H   0  0  0  0  0  0  0  0  0  0  0  0
  144.3700  130.4556  151.1681 H   0  0  0  0  0  0  0  0  0  0  0  0
  146.1963  130.5101  152.8448 H   0  0  0  0  0  0  0  0  0  0  0  0
  147.2282  132.7004  153.4137 H   0  0  0  0  0  0  0  0  0  0  0  0
  147.5255  135.2150  152.0538 H   0  0  0  0  0  0  0  0  0  0  0  0
  147.7137  137.1081  152.5023 H   0  0  0  0  0  0  0  0  0  0  0  0
  145.7016  138.9968  152.7571 H   0  0  0  0  0  0  0  0  0  0  0  0
  144.9442  137.8057  154.7728 H   0  0  0  0  0  0  0  0  0  0  0  0
  146.5400  137.9036  155.4766 H   0  0  0  0  0  0  0  0  0  0  0  0
  144.7056  140.2568  154.8200 H   0  0  0  0  0  0  0  0  0  0  0  0
  145.1132  139.6787  156.4177 H   0  0  0  0  0  0  0  0  0  0  0  0
  146.4485  141.7043  155.7931 H   0  0  0  0  0  0  0  0  0  0  0  0
  147.4751  140.3283  156.1143 H   0  0  0  0  0  0  0  0  0  0  0  0
  146.6332  141.3485  153.3617 H   0  0  0  0  0  0  0  0  0  0  0  0
  148.2226  141.4952  154.0500 H   0  0  0  0  0  0  0  0  0  0  0  0
  148.0413  139.6064  152.3895 H   0  0  0  0  0  0  0  0  0  0  0  0
  150.1258  139.9684  153.0991 H   0  0  0  0  0  0  0  0  0  0  0  0
  150.7912  137.4254  154.6140 H   0  0  0  0  0  0  0  0  0  0  0  0
  151.0866  137.7544  152.9101 H   0  0  0  0  0  0  0  0  0  0  0  0
  153.0104  138.1364  154.8579 H   0  0  0  0  0  0  0  0  0  0  0  0
  152.9425  139.1526  153.4250 H   0  0  0  0  0  0  0  0  0  0  0  0
  152.4680  140.0260  156.1562 H   0  0  0  0  0  0  0  0  0  0  0  0
  152.4185  140.9759  154.6781 H   0  0  0  0  0  0  0  0  0  0  0  0
  150.1178  141.1493  155.2437 H   0  0  0  0  0  0  0  0  0  0  0  0
  150.1574  139.6271  156.1247 H   0  0  0  0  0  0  0  0  0  0  0  0
  1  2  1  0  0  0  0
  1 25  1  0  0  0  0
  1 26  1  0  0  0  0
  1 27  1  0  0  0  0
  2 23  1  0  0  0  0
  2  3  1  0  0  0  0
  3  4  2  0  0  0  0
  3 28  1  0  0  0  0
  4  5  1  0  0  0  0
  4 29  1  0  0  0  0
  5  6  2  0  0  0  0
  5 30  1  0  0  0  0
  6  7  1  0  0  0  0
  6 23  1  0  0  0  0
  7  8  1  0  0  0  0
  7 31  1  0  0  0  0
  8  9  2  0  0  0  0
  8 10  1  0  0  0  0
 10 11  1  0  0  0  0
 10 32  1  0  0  0  0
 11 16  1  0  0  0  0
 11 12  1  0  0  0  0
 11 33  1  0  0  0  0
 12 13  1  0  0  0  0
 12 34  1  0  0  0  0
 12 35  1  0  0  0  0
 13 14  1  0  0  0  0
 13 36  1  0  0  0  0
 13 37  1  0  0  0  0
 14 15  1  0  0  0  0
 14 38  1  0  0  0  0
 14 39  1  0  0  0  0
 15 16  1  0  0  0  0
 15 40  1  0  0  0  0
 15 41  1  0  0  0  0
 16 17  1  0  0  0  0
 16 42  1  0  0  0  0
 17 18  1  0  0  0  0
 18 22  1  0  0  0  0
 18 19  1  0  0  0  0
 18 43  1  0  0  0  0
 19 20  1  0  0  0  0
 19 44  1  0  0  0  0
 19 45  1  0  0  0  0
 20 21  1  0  0  0  0
 20 46  1  0  0  0  0
 20 47  1  0  0  0  0
 21 22  1  0  0  0  0
 21 48  1  0  0  0  0
 21 49  1  0  0  0  0
 22 50  1  0  0  0  0
 22 51  1  0  0  0  0
 23 24  2  0  0  0  0
M  END
> <s_m_source_file>
AV-unprocessed.smi

> <i_m_source_file_index>
2477

> <i_lp_mmshare_version>
43012

> <i_f3d_flags>
0

> <s_epik_input>
W0NIM11uMVtjSF1bY0hdW2NIXWMoYzE9TylbTkhdQyg9TylbTkhdW0NAQEhdMltDSDJdW0NIMl1bQ0gyXVtDSDJdW0NASF0yT1tDSF0zW0NIMl1bQ0gyXVtDSDJdW0NIMl0z

> <s_epik_cmdline>
J2VwaWtfcHl0aG9uJywgJy1waCcsICc3LjAnLCAnLXRuJywgJzgnLCAnLW1hJywgJzIwMCcsICctbWV0YWxfYmluZGluZycsICctaW1hZScsICc8aW5maWxlLm1hZT4nLCAnLW9tYWUnLCAnPG91dGZpbGUubWFlPic=

> <r_lp_tautomer_probability>
1

> <r_epik_Ionization_Penalty>
2.40753e-05

> <r_epik_Ionization_Penalty_Charging>
4.84018e-06

> <r_epik_Ionization_Penalty_Neutral>
1.92352e-05

> <r_epik_State_Penalty>
-0

> <r_epik_Charging_Adjusted_Penalty>
4.84018e-06

> <i_epik_Tot_Q>
0

> <i_epik_Tot_abs_Q>
0

> <r_epik_Metal_State_Penalty>
-0

> <b_epik_Metal_Only>
0

> <s_lp_Force_Field>
OPLS_2005

> <r_lp_Energy>
43.088

> <b_lp_Chiralities_Consistent>
1

> <s_lp_Variant>
AV-unprocessed.smi:2477-2

> <Gold.Version>
5.8.1

> <Gold.Id.Protein>
6NUR|6NUR_protein|mol2

> <Gold.PLP.Fitness>
43.1261

> <Gold.PLP.PLP>
-39.9349

> <Gold.PLP.part.hbond>
-2.0000

> <Gold.PLP.part.metal>
0.0000

> <Gold.PLP.part.buried>
-3.6000

> <Gold.PLP.part.nonpolar>
-35.5823

> <Gold.PLP.part.repulsive>
1.7117

> <Gold.PLP.ligand.clash>
0.0000

> <Gold.PLP.ligand.torsion>
1.4201

> <Gold.PLP.Chemscore.Hbond>
2.0000

> <Gold.PLP.Chemscore.CHOScore>
0.0000

> <Gold.PLP.Chemscore.Metal>
0.0000

> <Gold.Chemscore.Hbonds>
donor molecule, donor type, donor heavy atom, donor atom, acceptor molecule, acceptor atom, score
      L1  H     7    31       P1  7948  1.00
      L1  H    10    32       P1  7948  1.00

> <Gold.PLP.Chemscore.Internal.Correction>
0.0315

> <Gold.Rescore>
     Score         DG    S(hbond)    S(metal)    S(lipo)     H(rot)  DE(clash)    DE(int)     intcor
     16.20     -19.40       1.93        0.00      93.53       1.36       0.05       3.16       ----

> <Gold.Chemscore.Fitness>
16.1969

> <Gold.Chemscore.DG>
-19.4009

> <Gold.Chemscore.ZeroCoef>
-5.4800

> <Gold.Chemscore.Hbond>
1.9311

> <Gold.Chemscore.Metal>
0.0000

> <Gold.Chemscore.Lipo>
93.5329

> <Gold.Chemscore.Internal_Hbond>
0.0000

> <Gold.Chemscore.DEClash>
0.0465

> <Gold.Chemscore.DEInternal>
3.1574

> <Gold.Chemscore.Rot>
1.3564

> <Gold.Chemscore.Internal.Correction>
   9.000000E+99

> <Gold.Chemscore.Hbonds>
donor molecule, donor type, donor heavy atom, donor atom, acceptor molecule, acceptor atom, score
      L1  H     7    31       P1  7948  0.94
      L1  H    10    32       P1  7948  0.98

> <Gold.Chemscore.Hbond.Weighted>
-6.4499

> <Gold.Chemscore.Metal.Weighted>
-0.0000

> <Gold.Chemscore.Lipo.Weighted>
-10.9434

> <Gold.Chemscore.Internal_Hbond.Weighted>
0.0000

> <Gold.Chemscore.DEClash.Weighted>
0.0465

> <Gold.Chemscore.DEInternal.Weighted>
3.1574

> <Gold.Chemscore.Rot.Weighted>
3.4724

> <Gold.Chemscore.Internal.Correction.Weighted>
   9.000000E+99

> <Gold.Protein.RotatedTorsions>
[ 6907 6896 6895 6894 ] final -153.49 input  -60.11 | X-H torsion
[ 7974 7965 7964 7962 ] final  129.93 input  175.53 | X-H torsion
[ 8008 7997 7996 7995 ] final -146.97 input   59.86 | X-H torsion
[ 10167 10162 10161 10158 ] final  118.34 input  -65.29 | X-H torsion
[ 10718 10713 10712 10709 ] final -153.29 input   66.30 | X-H torsion
[ 10763 10752 10751 10750 ] final  170.80 input  -60.55 | X-H torsion
[ 11005 11000 10999 10996 ] final  132.20 input  -57.11 | X-H torsion

> <Gold.Protein.ActiveResidues>
 VAL166  LYS551  ARG553  GLY616  TRP617  ASP618  TYR619  PRO620  LYS621  CYS622 
 ASP623  PHE694  ASN695  SER759  ASP760  ASP761  ALA762  ILE779  LEU786  VAL792 
 PHE793  MET794  SER795  GLU796  ALA797  LYS798  CYS799  TRP800  GLU811  SER814 

> <Gold.Protein.RotatedAtoms>
  151.2434  133.4388  159.2608 H   0  0  0  0  0  0  0  0  0  0  0  0  # atno 6907 bound_to 6896
  151.0684  134.9783  159.8306 H   0  0  0  0  0  0  0  0  0  0  0  0  # atno 6908 bound_to 6896
  152.5408  134.2380  159.8904 H   0  0  0  0  0  0  0  0  0  0  0  0  # atno 6909 bound_to 6896
  145.0233  139.4112  143.5186 H   0  0  0  0  0  0  0  0  0  0  0  0  # atno 7974 bound_to 7965
  155.5679  140.0631  157.2813 H   0  0  0  0  0  0  0  0  0  0  0  0  # atno 8008 bound_to 7997
  154.4370  140.1874  156.0895 H   0  0  0  0  0  0  0  0  0  0  0  0  # atno 8009 bound_to 7997
  156.0398  140.3297  155.7235 H   0  0  0  0  0  0  0  0  0  0  0  0  # atno 8010 bound_to 7997
  139.6118  144.7083  151.2828 H   0  0  0  0  0  0  0  0  0  0  0  0  # atno 10167 bound_to 10162
  156.4838  130.8316  151.2541 H   0  0  0  0  0  0  0  0  0  0  0  0  # atno 10718 bound_to 10713
  154.4028  135.2755  155.2086 H   0  0  0  0  0  0  0  0  0  0  0  0  # atno 10763 bound_to 10752
  154.4104  135.6023  153.5953 H   0  0  0  0  0  0  0  0  0  0  0  0  # atno 10764 bound_to 10752
  152.9831  135.5948  154.4298 H   0  0  0  0  0  0  0  0  0  0  0  0  # atno 10765 bound_to 10752
  139.9776  134.9558  156.9548 H   0  0  0  0  0  0  0  0  0  0  0  0  # atno 11005 bound_to 11000
  146.3488  139.9743  142.8703 LP  0  0  0  0  0  0  0  0  0  0  0  0  # atno 17320 bound_to 7965
  145.1867  140.9792  143.4235 LP  0  0  0  0  0  0  0  0  0  0  0  0  # atno 17321 bound_to 7965
  140.7324  143.6824  150.7989 LP  0  0  0  0  0  0  0  0  0  0  0  0  # atno 17342 bound_to 10162
  140.0420  143.5336  152.2713 LP  0  0  0  0  0  0  0  0  0  0  0  0  # atno 17343 bound_to 10162
  157.7480  131.0036  150.3044 LP  0  0  0  0  0  0  0  0  0  0  0  0  # atno 17370 bound_to 10713
  156.3494  130.3828  149.7341 LP  0  0  0  0  0  0  0  0  0  0  0  0  # atno 17371 bound_to 10713
  140.5163  134.0952  155.7281 LP  0  0  0  0  0  0  0  0  0  0  0  0  # atno 17394 bound_to 11000
  141.1451  133.9069  157.2234 LP  0  0  0  0  0  0  0  0  0  0  0  0  # atno 17395 bound_to 11000

$$$$
