AV-unprocessed.smi:1115|AV-procd|sdf|4804|dock3
  -GOLD-   22720 3353D 1   1.00000     0.00000
 Structure written by MMmdl.
 52 53  0  0  0  0  0  0  0  0  3 V2000
  152.0155  140.5025  158.7282 C   0  0  0  0  0  0  0  0  0  0  0  0
  151.3154  140.7542  157.4754 N   0  0  0  0  0  0  0  0  0  0  0  0
  151.1111  142.1205  157.0070 C   0  0  0  0  0  0  0  0  0  0  0  0
  150.8814  139.6692  156.6835 C   0  0  0  0  0  0  0  0  0  0  0  0
  150.6528  139.7687  155.2892 C   0  0  0  0  0  0  0  0  0  0  0  0
  150.2209  138.6377  154.5666 C   0  0  0  0  0  0  0  0  0  0  0  0
  150.0107  137.4138  155.2354 C   0  0  0  0  0  0  0  0  0  0  0  0
  149.5890  136.3001  154.4588 N   0  0  0  0  0  0  0  0  0  0  0  0
  149.5606  135.0000  154.7994 C   0  0  0  0  0  0  0  0  0  0  0  0
  149.8713  134.5450  155.8997 O   0  0  0  0  0  0  0  0  0  0  0  0
  149.1221  134.2422  153.7838 N   0  0  0  0  0  0  0  0  0  0  0  0
  148.9737  132.7873  153.8108 C   0  0  0  0  0  0  0  0  0  0  0  0
  147.6352  132.2867  153.1885 C   0  0  0  0  0  0  0  0  0  0  0  0
  146.4815  132.4058  154.2166 C   0  0  0  0  0  0  0  0  0  0  0  0
  147.2423  133.1953  151.9970 C   0  0  0  0  0  0  0  0  0  0  0  0
  147.7497  130.8583  152.7188 N   0  3  0  0  0  0  0  0  0  0  0  0
  148.4669  129.9288  153.6375 C   0  0  0  0  0  0  0  0  0  0  0  0
  148.6795  128.5610  152.9682 C   0  0  0  0  0  0  0  0  0  0  0  0
  147.4247  128.0165  152.5861 O   0  0  0  0  0  0  0  0  0  0  0  0
  146.7623  128.8419  151.6388 C   0  0  0  0  0  0  0  0  0  0  0  0
  146.4827  130.2222  152.2570 C   0  0  0  0  0  0  0  0  0  0  0  0
  150.2617  137.3622  156.6276 C   0  0  0  0  0  0  0  0  0  0  0  0
  150.6757  138.4696  157.2802 N   0  3  0  0  0  0  0  0  0  0  0  0
  151.4007  139.9003  159.3980 H   0  0  0  0  0  0  0  0  0  0  0  0
  152.2523  141.4335  159.2438 H   0  0  0  0  0  0  0  0  0  0  0  0
  152.9518  139.9749  158.5433 H   0  0  0  0  0  0  0  0  0  0  0  0
  150.0476  142.3321  156.8938 H   0  0  0  0  0  0  0  0  0  0  0  0
  151.5997  142.2729  156.0440 H   0  0  0  0  0  0  0  0  0  0  0  0
  151.5232  142.8465  157.7083 H   0  0  0  0  0  0  0  0  0  0  0  0
  150.8020  140.6966  154.7578 H   0  0  0  0  0  0  0  0  0  0  0  0
  150.0492  138.7159  153.5029 H   0  0  0  0  0  0  0  0  0  0  0  0
  149.2351  136.5239  153.5401 H   0  0  0  0  0  0  0  0  0  0  0  0
  148.8830  134.7036  152.9181 H   0  0  0  0  0  0  0  0  0  0  0  0
  149.8228  132.3893  153.2566 H   0  0  0  0  0  0  0  0  0  0  0  0
  149.0907  132.4238  154.8320 H   0  0  0  0  0  0  0  0  0  0  0  0
  146.2220  133.4458  154.4165 H   0  0  0  0  0  0  0  0  0  0  0  0
  146.7402  131.9687  155.1810 H   0  0  0  0  0  0  0  0  0  0  0  0
  145.5753  131.9170  153.8568 H   0  0  0  0  0  0  0  0  0  0  0  0
  146.9621  134.1960  152.3280 H   0  0  0  0  0  0  0  0  0  0  0  0
  146.3895  132.7891  151.4518 H   0  0  0  0  0  0  0  0  0  0  0  0
  148.0600  133.3304  151.2895 H   0  0  0  0  0  0  0  0  0  0  0  0
  149.4436  130.3174  153.9189 H   0  0  0  0  0  0  0  0  0  0  0  0
  147.8972  129.7903  154.5565 H   0  0  0  0  0  0  0  0  0  0  0  0
  149.3347  128.6481  152.0998 H   0  0  0  0  0  0  0  0  0  0  0  0
  149.1633  127.8746  153.6635 H   0  0  0  0  0  0  0  0  0  0  0  0
  147.3638  128.9340  150.7330 H   0  0  0  0  0  0  0  0  0  0  0  0
  145.8257  128.3643  151.3504 H   0  0  0  0  0  0  0  0  0  0  0  0
  145.7893  130.1097  153.0905 H   0  0  0  0  0  0  0  0  0  0  0  0
  145.9824  130.8244  151.5013 H   0  0  0  0  0  0  0  0  0  0  0  0
  150.1632  136.4851  157.2487 H   0  0  0  0  0  0  0  0  0  0  0  0
  150.8467  138.3964  158.2833 H   0  0  0  0  0  0  0  0  0  0  0  0
  148.3297  130.9102  151.8934 H   0  0  0  0  0  0  0  0  0  0  0  0
  1  2  1  0  0  0  0
  1 24  1  0  0  0  0
  1 25  1  0  0  0  0
  1 26  1  0  0  0  0
  2  3  1  0  0  0  0
  2  4  1  0  0  0  0
  3 27  1  0  0  0  0
  3 28  1  0  0  0  0
  3 29  1  0  0  0  0
  4 23  1  0  0  0  0
  4  5  2  0  0  0  0
  5  6  1  0  0  0  0
  5 30  1  0  0  0  0
  6  7  2  0  0  0  0
  6 31  1  0  0  0  0
  7  8  1  0  0  0  0
  7 22  1  0  0  0  0
  8  9  1  0  0  0  0
  8 32  1  0  0  0  0
  9 10  2  0  0  0  0
  9 11  1  0  0  0  0
 11 12  1  0  0  0  0
 11 33  1  0  0  0  0
 12 13  1  0  0  0  0
 12 34  1  0  0  0  0
 12 35  1  0  0  0  0
 13 14  1  0  0  0  0
 13 15  1  0  0  0  0
 13 16  1  0  0  0  0
 14 36  1  0  0  0  0
 14 37  1  0  0  0  0
 14 38  1  0  0  0  0
 15 39  1  0  0  0  0
 15 40  1  0  0  0  0
 15 41  1  0  0  0  0
 16 21  1  0  0  0  0
 16 17  1  0  0  0  0
 16 52  1  0  0  0  0
 17 18  1  0  0  0  0
 17 42  1  0  0  0  0
 17 43  1  0  0  0  0
 18 19  1  0  0  0  0
 18 44  1  0  0  0  0
 18 45  1  0  0  0  0
 19 20  1  0  0  0  0
 20 21  1  0  0  0  0
 20 46  1  0  0  0  0
 20 47  1  0  0  0  0
 21 48  1  0  0  0  0
 21 49  1  0  0  0  0
 22 23  2  0  0  0  0
 22 50  1  0  0  0  0
 23 51  1  0  0  0  0
M  CHG  1  16   1
M  CHG  1  23   1
M  END
> <s_m_source_file>
AV-unprocessed.smi

> <i_m_source_file_index>
1115

> <i_lp_mmshare_version>
43012

> <i_f3d_flags>
0

> <s_epik_input>
W0NIM11OKFtDSDNdKWMxW2NIXVtjSF1jKFtjSF1uMSlbTkhdQyg9TylbTkhdW0NIMl1DKFtDSDNdKShbQ0gzXSlOMltDSDJdW0NIMl1PW0NIMl1bQ0gyXTI=

> <s_epik_cmdline>
J2VwaWtfcHl0aG9uJywgJy1waCcsICc3LjAnLCAnLXRuJywgJzgnLCAnLW1hJywgJzIwMCcsICctbWV0YWxfYmluZGluZycsICctaW1hZScsICc8aW5maWxlLm1hZT4nLCAnLW9tYWUnLCAnPG91dGZpbGUubWFlPic=

> <r_lp_tautomer_probability>
0.999994

> <r_epik_Ionization_Penalty>
0.90424

> <r_epik_Ionization_Penalty_Charging>
0.90422

> <r_epik_Ionization_Penalty_Neutral>
2.023e-05

> <r_epik_State_Penalty>
0.905868

> <r_epik_Charging_Adjusted_Penalty>
1.81009

> <i_epik_Tot_Q>
2

> <i_epik_Tot_abs_Q>
2

> <r_epik_Metal_State_Penalty>
1.19318

> <b_epik_Metal_Only>
0

> <s_lp_Force_Field>
OPLS_2005

> <r_lp_Energy>
35.8961

> <b_lp_Chiralities_Consistent>
1

> <s_lp_Variant>
AV-unprocessed.smi:1115-3

> <Gold.Version>
5.8.1

> <Gold.Id.Protein>
6NUR|6NUR_protein|mol2

> <Gold.PLP.Fitness>
43.5137

> <Gold.PLP.PLP>
-37.3291

> <Gold.PLP.part.hbond>
-3.0000

> <Gold.PLP.part.metal>
0.0000

> <Gold.PLP.part.buried>
-4.3353

> <Gold.PLP.part.nonpolar>
-30.1080

> <Gold.PLP.part.repulsive>
0.1428

> <Gold.PLP.ligand.clash>
0.0000

> <Gold.PLP.ligand.torsion>
1.0005

> <Gold.PLP.Chemscore.Hbond>
2.6944

> <Gold.PLP.Chemscore.CHOScore>
0.0000

> <Gold.PLP.Chemscore.Metal>
0.0000

> <Gold.Chemscore.Hbonds>
donor molecule, donor type, donor heavy atom, donor atom, acceptor molecule, acceptor atom, score
      L1  H     8    32       P1  7948  1.00
      L1  H    11    33       P1  7948  0.64
      L1  H    16    52       P1 10747  1.00

> <Gold.PLP.Chemscore.Internal.Correction>
0.1025

> <Gold.Rescore>
     Score         DG    S(hbond)    S(metal)    S(lipo)     H(rot)  DE(clash)    DE(int)     intcor
     16.64     -18.77       2.24        0.00      82.14       1.49       0.02       2.11       ----

> <Gold.Chemscore.Fitness>
16.6433

> <Gold.Chemscore.DG>
-18.7667

> <Gold.Chemscore.ZeroCoef>
-5.4800

> <Gold.Chemscore.Hbond>
2.2411

> <Gold.Chemscore.Metal>
0.0000

> <Gold.Chemscore.Lipo>
82.1384

> <Gold.Chemscore.Internal_Hbond>
0.0000

> <Gold.Chemscore.DEClash>
0.0155

> <Gold.Chemscore.DEInternal>
2.1079

> <Gold.Chemscore.Rot>
1.4878

> <Gold.Chemscore.Internal.Correction>
   9.000000E+99

> <Gold.Chemscore.Hbonds>
donor molecule, donor type, donor heavy atom, donor atom, acceptor molecule, acceptor atom, score
      L1  H     8    32       P1  7948  0.93
      L1  H    11    33       P1  7948  0.05
      L1  H    16    52       P1 10747  1.00

> <Gold.Chemscore.Hbond.Weighted>
-7.4854

> <Gold.Chemscore.Metal.Weighted>
-0.0000

> <Gold.Chemscore.Lipo.Weighted>
-9.6102

> <Gold.Chemscore.Internal_Hbond.Weighted>
0.0000

> <Gold.Chemscore.DEClash.Weighted>
0.0155

> <Gold.Chemscore.DEInternal.Weighted>
2.1079

> <Gold.Chemscore.Rot.Weighted>
3.8089

> <Gold.Chemscore.Internal.Correction.Weighted>
   9.000000E+99

> <Gold.Protein.RotatedTorsions>
[ 6907 6896 6895 6894 ] final   96.75 input  -60.11 | X-H torsion
[ 7974 7965 7964 7962 ] final   66.55 input  175.53 | X-H torsion
[ 8008 7997 7996 7995 ] final -143.25 input   59.86 | X-H torsion
[ 10167 10162 10161 10158 ] final   79.01 input  -65.29 | X-H torsion
[ 10718 10713 10712 10709 ] final   92.33 input   66.30 | X-H torsion
[ 10763 10752 10751 10750 ] final  -14.60 input  -60.55 | X-H torsion
[ 11005 11000 10999 10996 ] final -143.47 input  -57.11 | X-H torsion

> <Gold.Protein.ActiveResidues>
 VAL166  LYS551  ARG553  GLY616  TRP617  ASP618  TYR619  PRO620  LYS621  CYS622 
 ASP623  PHE694  ASN695  SER759  ASP760  ASP761  ALA762  ILE779  LEU786  VAL792 
 PHE793  MET794  SER795  GLU796  ALA797  LYS798  CYS799  TRP800  GLU811  SER814 

> <Gold.Protein.RotatedAtoms>
  152.5431  134.0838  159.8246 H   0  0  0  0  0  0  0  0  0  0  0  0  # atno 6907 bound_to 6896
  151.0937  133.5289  159.2621 H   0  0  0  0  0  0  0  0  0  0  0  0  # atno 6908 bound_to 6896
  151.2071  135.0475  159.8950 H   0  0  0  0  0  0  0  0  0  0  0  0  # atno 6909 bound_to 6896
  145.8253  139.3108  143.1019 H   0  0  0  0  0  0  0  0  0  0  0  0  # atno 7974 bound_to 7965
  155.5075  140.0580  157.2929 H   0  0  0  0  0  0  0  0  0  0  0  0  # atno 8008 bound_to 7997
  154.4564  140.1975  156.0317 H   0  0  0  0  0  0  0  0  0  0  0  0  # atno 8009 bound_to 7997
  156.0807  140.3247  155.7694 H   0  0  0  0  0  0  0  0  0  0  0  0  # atno 8010 bound_to 7997
  139.9648  144.5935  150.8039 H   0  0  0  0  0  0  0  0  0  0  0  0  # atno 10167 bound_to 10162
  157.6959  131.0439  150.3865 H   0  0  0  0  0  0  0  0  0  0  0  0  # atno 10718 bound_to 10713
  153.5307  135.7014  153.5685 H   0  0  0  0  0  0  0  0  0  0  0  0  # atno 10763 bound_to 10752
  153.3693  135.3949  155.1777 H   0  0  0  0  0  0  0  0  0  0  0  0  # atno 10764 bound_to 10752
  154.8685  135.3808  154.4804 H   0  0  0  0  0  0  0  0  0  0  0  0  # atno 10765 bound_to 10752
  140.8122  134.2731  157.4936 H   0  0  0  0  0  0  0  0  0  0  0  0  # atno 11005 bound_to 11000
  145.9631  140.8820  143.0201 LP  0  0  0  0  0  0  0  0  0  0  0  0  # atno 17320 bound_to 7965
  144.6744  140.1840  143.7403 LP  0  0  0  0  0  0  0  0  0  0  0  0  # atno 17321 bound_to 7965
  140.7541  143.3021  151.3054 LP  0  0  0  0  0  0  0  0  0  0  0  0  # atno 17342 bound_to 10162
  139.6526  144.0335  152.2637 LP  0  0  0  0  0  0  0  0  0  0  0  0  # atno 17343 bound_to 10162
  156.4273  130.3965  149.6784 LP  0  0  0  0  0  0  0  0  0  0  0  0  # atno 17370 bound_to 10713
  156.4014  130.7676  151.2684 LP  0  0  0  0  0  0  0  0  0  0  0  0  # atno 17371 bound_to 10713
  139.8713  134.9489  156.4010 LP  0  0  0  0  0  0  0  0  0  0  0  0  # atno 17394 bound_to 11000
  140.9186  133.7661  155.9879 LP  0  0  0  0  0  0  0  0  0  0  0  0  # atno 17395 bound_to 11000

$$$$
