AV-unprocessed.smi:967|AV-procd|sdf|4286|dock3
  -GOLD-   22720 2193D 1   1.00000     0.00000
 Structure written by MMmdl.
 43 44  0  0  0  0  0  0  0  0  2 V2000
  145.3027  137.6817  152.7903 C   0  0  0  0  0  0  0  0  0  0  0  0
  146.5760  138.1185  152.2381 N   0  0  0  0  0  0  0  0  0  0  0  0
  146.5622  138.5050  150.8351 C   0  0  0  0  0  0  0  0  0  0  0  0
  147.2335  139.0493  153.0542 C   0  0  0  0  0  0  0  0  0  0  0  0
  148.3907  138.6990  153.7804 C   0  0  0  0  0  0  0  0  0  0  0  0
  149.0200  139.6682  154.5881 C   0  0  0  0  0  0  0  0  0  0  0  0
  148.4933  140.9767  154.6527 C   0  0  0  0  0  0  0  0  0  0  0  0
  149.1549  141.9170  155.4880 N   0  0  0  0  0  0  0  0  0  0  0  0
  150.2065  141.7179  156.3015 C   0  0  0  0  0  0  0  0  0  0  0  0
  150.7733  140.6397  156.4770 O   0  0  0  0  0  0  0  0  0  0  0  0
  150.5554  142.8530  156.9240 N   0  0  0  0  0  0  0  0  0  0  0  0
  151.6368  143.0015  157.8946 C   0  0  2  0  0  0  0  0  0  0  0  0
  151.6072  141.8270  158.8900 C   0  0  0  0  0  0  0  0  0  0  0  0
  152.6811  141.9829  159.9811 C   0  0  0  0  0  0  0  0  0  0  0  0
  152.5815  143.3362  160.7103 C   0  0  2  0  0  0  0  0  0  0  0  0
  151.4199  143.3683  161.5162 O   0  0  0  0  0  0  0  0  0  0  0  0
  152.5685  144.5142  159.7177 C   0  0  0  0  0  0  0  0  0  0  0  0
  151.4939  144.3472  158.6289 C   0  0  0  0  0  0  0  0  0  0  0  0
  147.3211  141.2677  153.9124 C   0  0  0  0  0  0  0  0  0  0  0  0
  146.7475  140.3092  153.1527 N   0  3  0  0  0  0  0  0  0  0  0  0
  145.4085  137.4031  153.8398 H   0  0  0  0  0  0  0  0  0  0  0  0
  144.9352  136.8112  152.2463 H   0  0  0  0  0  0  0  0  0  0  0  0
  144.5537  138.4711  152.7162 H   0  0  0  0  0  0  0  0  0  0  0  0
  147.5551  138.8136  150.5062 H   0  0  0  0  0  0  0  0  0  0  0  0
  145.8694  139.3297  150.6638 H   0  0  0  0  0  0  0  0  0  0  0  0
  146.2496  137.6636  150.2162 H   0  0  0  0  0  0  0  0  0  0  0  0
  148.7933  137.6981  153.7215 H   0  0  0  0  0  0  0  0  0  0  0  0
  149.9056  139.4062  155.1489 H   0  0  0  0  0  0  0  0  0  0  0  0
  148.7488  142.8410  155.5092 H   0  0  0  0  0  0  0  0  0  0  0  0
  150.0235  143.6860  156.7179 H   0  0  0  0  0  0  0  0  0  0  0  0
  152.6043  142.9953  157.3893 H   0  0  0  0  0  0  0  0  0  0  0  0
  150.6229  141.7609  159.3559 H   0  0  0  0  0  0  0  0  0  0  0  0
  151.7594  140.8857  158.3603 H   0  0  0  0  0  0  0  0  0  0  0  0
  152.6120  141.1619  160.6957 H   0  0  0  0  0  0  0  0  0  0  0  0
  153.6658  141.9007  159.5192 H   0  0  0  0  0  0  0  0  0  0  0  0
  153.4353  143.4432  161.3800 H   0  0  0  0  0  0  0  0  0  0  0  0
  150.9800  144.1930  161.3764 H   0  0  0  0  0  0  0  0  0  0  0  0
  152.4218  145.4557  160.2484 H   0  0  0  0  0  0  0  0  0  0  0  0
  153.5461  144.5852  159.2393 H   0  0  0  0  0  0  0  0  0  0  0  0
  151.5657  145.1696  157.9162 H   0  0  0  0  0  0  0  0  0  0  0  0
  150.5037  144.4189  159.0816 H   0  0  0  0  0  0  0  0  0  0  0  0
  146.8103  142.2187  153.9033 H   0  0  0  0  0  0  0  0  0  0  0  0
  145.9046  140.5473  152.6298 H   0  0  0  0  0  0  0  0  0  0  0  0
  1  2  1  0  0  0  0
  1 21  1  0  0  0  0
  1 22  1  0  0  0  0
  1 23  1  0  0  0  0
  2  3  1  0  0  0  0
  2  4  1  0  0  0  0
  3 24  1  0  0  0  0
  3 25  1  0  0  0  0
  3 26  1  0  0  0  0
  4 20  1  0  0  0  0
  4  5  2  0  0  0  0
  5  6  1  0  0  0  0
  5 27  1  0  0  0  0
  6  7  2  0  0  0  0
  6 28  1  0  0  0  0
  7  8  1  0  0  0  0
  7 19  1  0  0  0  0
  8  9  1  0  0  0  0
  8 29  1  0  0  0  0
  9 10  2  0  0  0  0
  9 11  1  0  0  0  0
 11 12  1  0  0  0  0
 11 30  1  0  0  0  0
 12 18  1  0  0  0  0
 12 13  1  0  0  0  0
 12 31  1  0  0  0  0
 13 14  1  0  0  0  0
 13 32  1  0  0  0  0
 13 33  1  0  0  0  0
 14 15  1  0  0  0  0
 14 34  1  0  0  0  0
 14 35  1  0  0  0  0
 15 16  1  0  0  0  0
 15 17  1  0  0  0  0
 15 36  1  0  0  0  0
 16 37  1  0  0  0  0
 17 18  1  0  0  0  0
 17 38  1  0  0  0  0
 17 39  1  0  0  0  0
 18 40  1  0  0  0  0
 18 41  1  0  0  0  0
 19 20  2  0  0  0  0
 19 42  1  0  0  0  0
 20 43  1  0  0  0  0
M  CHG  1  20   1
M  END
> <s_m_source_file>
AV-unprocessed.smi

> <i_m_source_file_index>
967

> <i_lp_mmshare_version>
43012

> <i_f3d_flags>
0

> <s_epik_input>
W0NIM11OKFtDSDNdKWMxW2NIXVtjSF1jKFtjSF1uMSlbTkhdQyg9TylbTkhdW0NAQEhdMltDSDJdW0NIMl1bQ0BASF0oW09IXSlbQ0gyXVtDSDJdMg==

> <s_epik_cmdline>
J2VwaWtfcHl0aG9uJywgJy1waCcsICc3LjAnLCAnLXRuJywgJzgnLCAnLW1hJywgJzIwMCcsICctbWV0YWxfYmluZGluZycsICctaW1hZScsICc8aW5maWxlLm1hZT4nLCAnLW9tYWUnLCAnPG91dGZpbGUubWFlPic=

> <r_lp_tautomer_probability>
0.999994

> <r_epik_Ionization_Penalty>
0.251848

> <r_epik_Ionization_Penalty_Charging>
0.251826

> <r_epik_Ionization_Penalty_Neutral>
2.16844e-05

> <r_epik_State_Penalty>
0.243201

> <r_epik_Charging_Adjusted_Penalty>
0.495027

> <i_epik_Tot_Q>
1

> <i_epik_Tot_abs_Q>
1

> <r_epik_Metal_State_Penalty>
0.534113

> <b_epik_Metal_Only>
0

> <s_lp_Force_Field>
OPLS_2005

> <r_lp_Energy>
23.5814

> <b_lp_Chiralities_Consistent>
1

> <s_lp_Variant>
AV-unprocessed.smi:967-2

> <Gold.Version>
5.8.1

> <Gold.Id.Protein>
6NUR|6NUR_protein|mol2

> <Gold.PLP.Fitness>
51.8188

> <Gold.PLP.PLP>
-39.5940

> <Gold.PLP.part.hbond>
-4.6321

> <Gold.PLP.part.metal>
0.0000

> <Gold.PLP.part.buried>
-2.2840

> <Gold.PLP.part.nonpolar>
-34.7232

> <Gold.PLP.part.repulsive>
0.5133

> <Gold.PLP.ligand.clash>
0.0000

> <Gold.PLP.ligand.torsion>
0.3200

> <Gold.PLP.Chemscore.Hbond>
4.2235

> <Gold.PLP.Chemscore.CHOScore>
0.0000

> <Gold.PLP.Chemscore.Metal>
0.0000

> <Gold.Chemscore.Hbonds>
donor molecule, donor type, donor heavy atom, donor atom, acceptor molecule, acceptor atom, score
      L1  H     8    29       P1  8028  1.00
      L1  H    11    30       P1  8028  1.00
      L1  H    20    43       P1 10175  1.06
      P1  H  6933  6945       L1    16  0.23

> <Gold.PLP.Chemscore.Internal.Correction>
0.1943

> <Gold.Rescore>
     Score         DG    S(hbond)    S(metal)    S(lipo)     H(rot)  DE(clash)    DE(int)     intcor
     18.53     -23.20       2.87        0.00     107.36       1.73       1.69       2.98       ----

> <Gold.Chemscore.Fitness>
18.5307

> <Gold.Chemscore.DG>
-23.2005

> <Gold.Chemscore.ZeroCoef>
-5.4800

> <Gold.Chemscore.Hbond>
2.8706

> <Gold.Chemscore.Metal>
0.0000

> <Gold.Chemscore.Lipo>
107.3598

> <Gold.Chemscore.Internal_Hbond>
0.0000

> <Gold.Chemscore.DEClash>
1.6875

> <Gold.Chemscore.DEInternal>
2.9823

> <Gold.Chemscore.Rot>
1.7299

> <Gold.Chemscore.Internal.Correction>
   9.000000E+99

> <Gold.Chemscore.Hbonds>
donor molecule, donor type, donor heavy atom, donor atom, acceptor molecule, acceptor atom, score
      L1  H     8    29       P1  8028  0.97
      L1  H    11    30       P1  8028  0.98
      L1  H    20    43       P1 10175  0.28
      P1  H  6933  6945       L1    16  0.20

> <Gold.Chemscore.Hbond.Weighted>
-9.5879

> <Gold.Chemscore.Metal.Weighted>
-0.0000

> <Gold.Chemscore.Lipo.Weighted>
-12.5611

> <Gold.Chemscore.Internal_Hbond.Weighted>
0.0000

> <Gold.Chemscore.DEClash.Weighted>
1.6875

> <Gold.Chemscore.DEInternal.Weighted>
2.9823

> <Gold.Chemscore.Rot.Weighted>
4.4285

> <Gold.Chemscore.Internal.Correction.Weighted>
   9.000000E+99

> <Gold.Protein.RotatedTorsions>
[ 6907 6896 6895 6894 ] final  -29.06 input  -60.11 | X-H torsion
[ 7974 7965 7964 7962 ] final   73.77 input  175.53 | X-H torsion
[ 8008 7997 7996 7995 ] final  152.10 input   59.86 | X-H torsion
[ 10167 10162 10161 10158 ] final  -54.49 input  -65.29 | X-H torsion
[ 10718 10713 10712 10709 ] final  101.98 input   66.30 | X-H torsion
[ 10763 10752 10751 10750 ] final -143.50 input  -60.55 | X-H torsion
[ 11005 11000 10999 10996 ] final -140.12 input  -57.11 | X-H torsion

> <Gold.Protein.ActiveResidues>
 VAL166  LYS551  ARG553  GLY616  TRP617  ASP618  TYR619  PRO620  LYS621  CYS622 
 ASP623  PHE694  ASN695  SER759  ASP760  ASP761  ALA762  ILE779  LEU786  VAL792 
 PHE793  MET794  SER795  GLU796  ALA797  LYS798  CYS799  TRP800  GLU811  SER814 

> <Gold.Protein.RotatedAtoms>
  151.1243  135.0096  159.8552 H   0  0  0  0  0  0  0  0  0  0  0  0  # atno 6907 bound_to 6896
  152.5449  134.1685  159.8597 H   0  0  0  0  0  0  0  0  0  0  0  0  # atno 6908 bound_to 6896
  151.1746  133.4718  159.2627 H   0  0  0  0  0  0  0  0  0  0  0  0  # atno 6909 bound_to 6896
  145.7367  139.2705  143.1510 H   0  0  0  0  0  0  0  0  0  0  0  0  # atno 7974 bound_to 7965
  156.2644  140.2030  156.6280 H   0  0  0  0  0  0  0  0  0  0  0  0  # atno 8008 bound_to 7997
  154.6705  140.0550  157.0185 H   0  0  0  0  0  0  0  0  0  0  0  0  # atno 8009 bound_to 7997
  155.1144  140.3218  155.4516 H   0  0  0  0  0  0  0  0  0  0  0  0  # atno 8010 bound_to 7997
  140.6428  143.2517  151.4943 H   0  0  0  0  0  0  0  0  0  0  0  0  # atno 10167 bound_to 10162
  157.6815  131.0741  150.5335 H   0  0  0  0  0  0  0  0  0  0  0  0  # atno 10718 bound_to 10713
  154.8467  135.3466  154.6197 H   0  0  0  0  0  0  0  0  0  0  0  0  # atno 10763 bound_to 10752
  153.6805  135.6980  153.5124 H   0  0  0  0  0  0  0  0  0  0  0  0  # atno 10764 bound_to 10752
  153.2672  135.4304  155.0908 H   0  0  0  0  0  0  0  0  0  0  0  0  # atno 10765 bound_to 10752
  140.8454  134.2351  157.4789 H   0  0  0  0  0  0  0  0  0  0  0  0  # atno 11005 bound_to 11000
  146.0486  140.8092  142.9793 LP  0  0  0  0  0  0  0  0  0  0  0  0  # atno 17320 bound_to 7965
  144.6880  140.3019  143.7262 LP  0  0  0  0  0  0  0  0  0  0  0  0  # atno 17321 bound_to 7965
  139.5637  144.2094  152.1732 LP  0  0  0  0  0  0  0  0  0  0  0  0  # atno 17342 bound_to 10162
  140.1369  144.5237  150.6768 LP  0  0  0  0  0  0  0  0  0  0  0  0  # atno 17343 bound_to 10162
  156.5644  130.4264  149.6048 LP  0  0  0  0  0  0  0  0  0  0  0  0  # atno 17370 bound_to 10713
  156.2793  130.7062  151.1881 LP  0  0  0  0  0  0  0  0  0  0  0  0  # atno 17371 bound_to 10713
  139.8703  134.9656  156.4535 LP  0  0  0  0  0  0  0  0  0  0  0  0  # atno 17394 bound_to 11000
  140.8849  133.7890  155.9508 LP  0  0  0  0  0  0  0  0  0  0  0  0  # atno 17395 bound_to 11000

$$$$
