AV-unprocessed.smi:1396|AV-procd|sdf|5677|dock2
  -GOLD-   22720 5303D 1   1.00000     0.00000
 Structure written by MMmdl.
 46 47  0  0  0  0  0  0  0  0  3 V2000
  148.5824  126.4237  150.4782 C   0  0  0  0  0  0  0  0  0  0  0  0
  147.6733  127.5169  150.8004 N   0  5  0  0  0  0  0  0  0  0  0  0
  147.5643  128.0617  152.0418 C   0  0  0  0  0  0  0  0  0  0  0  0
  148.1431  127.7844  153.0976 O   0  0  0  0  0  0  0  0  0  0  0  0
  146.5126  129.1770  152.0654 C   0  0  0  0  0  0  0  0  0  0  0  0
  147.1659  130.4885  152.3018 N   0  3  2  0  0  0  0  0  0  0  0  0
  147.8627  130.5686  153.6142 C   0  0  0  0  0  0  0  0  0  0  0  0
  148.6343  131.8909  153.7514 C   0  0  0  0  0  0  0  0  0  0  0  0
  147.7019  133.0977  153.5656 C   0  0  1  0  0  0  0  0  0  0  0  0
  148.4757  134.3341  153.6219 N   0  0  0  0  0  0  0  0  0  0  0  0
  149.3100  134.6782  154.6132 C   0  0  0  0  0  0  0  0  0  0  0  0
  149.5090  133.9778  155.6055 O   0  0  0  0  0  0  0  0  0  0  0  0
  149.8960  135.8616  154.3641 N   0  0  0  0  0  0  0  0  0  0  0  0
  150.8538  136.5583  155.1497 C   0  0  0  0  0  0  0  0  0  0  0  0
  151.4487  137.7094  154.5955 C   0  0  0  0  0  0  0  0  0  0  0  0
  152.3919  138.4287  155.3531 C   0  0  0  0  0  0  0  0  0  0  0  0
  152.7057  137.9786  156.6505 C   0  0  0  0  0  0  0  0  0  0  0  0
  153.6333  138.6860  157.3877 O   0  0  0  0  0  0  0  0  0  0  0  0
  153.9012  138.2649  158.7206 C   0  0  0  0  0  0  0  0  0  0  0  0
  152.1277  136.8821  157.2000 N   0  0  0  0  0  0  0  0  0  0  0  0
  151.2248  136.1954  156.4679 C   0  0  0  0  0  0  0  0  0  0  0  0
  146.9617  132.9748  152.2215 C   0  0  0  0  0  0  0  0  0  0  0  0
  146.2311  131.6261  152.1093 C   0  0  0  0  0  0  0  0  0  0  0  0
  148.5364  126.1563  149.4228 H   0  0  0  0  0  0  0  0  0  0  0  0
  148.3528  125.5157  151.0368 H   0  0  0  0  0  0  0  0  0  0  0  0
  149.6234  126.6703  150.6897 H   0  0  0  0  0  0  0  0  0  0  0  0
  146.0259  129.1735  151.0890 H   0  0  0  0  0  0  0  0  0  0  0  0
  145.7247  129.0032  152.8020 H   0  0  0  0  0  0  0  0  0  0  0  0
  147.1341  130.4725  154.4206 H   0  0  0  0  0  0  0  0  0  0  0  0
  148.5632  129.7407  153.7247 H   0  0  0  0  0  0  0  0  0  0  0  0
  149.1152  131.9361  154.7293 H   0  0  0  0  0  0  0  0  0  0  0  0
  149.4350  131.9197  153.0105 H   0  0  0  0  0  0  0  0  0  0  0  0
  146.9718  133.0922  154.3774 H   0  0  0  0  0  0  0  0  0  0  0  0
  148.3762  134.9693  152.8436 H   0  0  0  0  0  0  0  0  0  0  0  0
  149.6810  136.2842  153.4727 H   0  0  0  0  0  0  0  0  0  0  0  0
  151.1918  138.0373  153.5988 H   0  0  0  0  0  0  0  0  0  0  0  0
  152.8661  139.3097  154.9463 H   0  0  0  0  0  0  0  0  0  0  0  0
  154.6482  138.9243  159.1624 H   0  0  0  0  0  0  0  0  0  0  0  0
  154.2994  137.2495  158.7460 H   0  0  0  0  0  0  0  0  0  0  0  0
  153.0066  138.3149  159.3428 H   0  0  0  0  0  0  0  0  0  0  0  0
  150.7862  135.3509  156.9753 H   0  0  0  0  0  0  0  0  0  0  0  0
  146.2445  133.7890  152.1105 H   0  0  0  0  0  0  0  0  0  0  0  0
  147.6700  133.0720  151.3972 H   0  0  0  0  0  0  0  0  0  0  0  0
  145.7627  131.5559  151.1269 H   0  0  0  0  0  0  0  0  0  0  0  0
  145.4298  131.5691  152.8479 H   0  0  0  0  0  0  0  0  0  0  0  0
  147.8737  130.5751  151.5862 H   0  0  0  0  0  0  0  0  0  0  0  0
  1  2  1  0  0  0  0
  1 24  1  0  0  0  0
  1 25  1  0  0  0  0
  1 26  1  0  0  0  0
  2  3  1  0  0  0  0
  3  4  2  0  0  0  0
  3  5  1  0  0  0  0
  5  6  1  0  0  0  0
  5 27  1  0  0  0  0
  5 28  1  0  0  0  0
  6 23  1  0  0  0  0
  6  7  1  0  0  0  0
  6 46  1  0  0  0  0
  7  8  1  0  0  0  0
  7 29  1  0  0  0  0
  7 30  1  0  0  0  0
  8  9  1  0  0  0  0
  8 31  1  0  0  0  0
  8 32  1  0  0  0  0
  9 10  1  0  0  0  0
  9 22  1  0  0  0  0
  9 33  1  0  0  0  0
 10 11  1  0  0  0  0
 10 34  1  0  0  0  0
 11 12  2  0  0  0  0
 11 13  1  0  0  0  0
 13 14  1  0  0  0  0
 13 35  1  0  0  0  0
 14 21  1  0  0  0  0
 14 15  2  0  0  0  0
 15 16  1  0  0  0  0
 15 36  1  0  0  0  0
 16 17  2  0  0  0  0
 16 37  1  0  0  0  0
 17 18  1  0  0  0  0
 17 20  1  0  0  0  0
 18 19  1  0  0  0  0
 19 38  1  0  0  0  0
 19 39  1  0  0  0  0
 19 40  1  0  0  0  0
 20 21  2  0  0  0  0
 21 41  1  0  0  0  0
 22 23  1  0  0  0  0
 22 42  1  0  0  0  0
 22 43  1  0  0  0  0
 23 44  1  0  0  0  0
 23 45  1  0  0  0  0
M  CHG  1   2  -1
M  CHG  1   6   1
M  END
> <s_m_source_file>
AV-unprocessed.smi

> <i_m_source_file_index>
1396

> <i_lp_mmshare_version>
43012

> <i_f3d_flags>
0

> <s_epik_input>
W0NIM11bTkhdQyg9TylbQ0gyXU4xW0NIMl1bQ0gyXVtDSF0oW0NIMl1bQ0gyXTEpW05IXUMoPU8pW05IXWMyW2NIXVtjSF1jKE9bQ0gzXSluW2NIXTI=

> <s_epik_cmdline>
J2VwaWtfcHl0aG9uJywgJy1waCcsICc3LjAnLCAnLXRuJywgJzgnLCAnLW1hJywgJzIwMCcsICctbWV0YWxfYmluZGluZycsICctaW1hZScsICc8aW5maWxlLm1hZT4nLCAnLW9tYWUnLCAnPG91dGZpbGUubWFlPic=

> <r_lp_tautomer_probability>
1

> <r_epik_Ionization_Penalty>
6.13954

> <r_epik_Ionization_Penalty_Charging>
6.13946

> <r_epik_Ionization_Penalty_Neutral>
7.8452e-05

> <r_epik_State_Penalty>
6.9595

> <r_epik_Charging_Adjusted_Penalty>
13.099

> <i_epik_Tot_Q>
0

> <i_epik_Tot_abs_Q>
2

> <r_epik_Metal_State_Penalty>
2.89145

> <b_epik_Metal_Only>
1

> <s_lp_Force_Field>
OPLS_2005

> <r_lp_Energy>
12.8454

> <b_lp_Chiralities_Consistent>
1

> <s_lp_Variant>
AV-unprocessed.smi:1396-4

> <Gold.Version>
5.8.1

> <Gold.Id.Protein>
6NUR|6NUR_protein|mol2

> <Gold.PLP.Fitness>
49.2233

> <Gold.PLP.PLP>
-37.4520

> <Gold.PLP.part.hbond>
-4.4853

> <Gold.PLP.part.metal>
0.0000

> <Gold.PLP.part.buried>
-4.8538

> <Gold.PLP.part.nonpolar>
-29.2287

> <Gold.PLP.part.repulsive>
0.3244

> <Gold.PLP.ligand.clash>
0.0000

> <Gold.PLP.ligand.torsion>
0.1462

> <Gold.PLP.Chemscore.Hbond>
3.9920

> <Gold.PLP.Chemscore.CHOScore>
0.0000

> <Gold.PLP.Chemscore.Metal>
0.0000

> <Gold.Chemscore.Hbonds>
donor molecule, donor type, donor heavy atom, donor atom, acceptor molecule, acceptor atom, score
      L1  H     6    46       P1 10747  1.00
      L1  H    10    34       P1  7948  1.00
      L1  H    13    35       P1  7948  1.00
      P1  H  7997  8008       L1    18  1.00

> <Gold.PLP.Chemscore.Internal.Correction>
0.0877

> <Gold.Rescore>
     Score         DG    S(hbond)    S(metal)    S(lipo)     H(rot)  DE(clash)    DE(int)     intcor
     17.57     -20.64       3.50        0.00      71.87       1.93       0.29       2.77       ----

> <Gold.Chemscore.Fitness>
17.5708

> <Gold.Chemscore.DG>
-20.6364

> <Gold.Chemscore.ZeroCoef>
-5.4800

> <Gold.Chemscore.Hbond>
3.4983

> <Gold.Chemscore.Metal>
0.0000

> <Gold.Chemscore.Lipo>
71.8685

> <Gold.Chemscore.Internal_Hbond>
0.0000

> <Gold.Chemscore.DEClash>
0.2946

> <Gold.Chemscore.DEInternal>
2.7711

> <Gold.Chemscore.Rot>
1.9283

> <Gold.Chemscore.Internal.Correction>
   9.000000E+99

> <Gold.Chemscore.Hbonds>
donor molecule, donor type, donor heavy atom, donor atom, acceptor molecule, acceptor atom, score
      L1  H     6    46       P1 10747  1.00
      L1  H    10    34       P1  7948  0.67
      L1  H    13    35       P1  7948  0.29
      P1  H  7997  8008       L1    18  0.86

> <Gold.Chemscore.Hbond.Weighted>
-11.6843

> <Gold.Chemscore.Metal.Weighted>
-0.0000

> <Gold.Chemscore.Lipo.Weighted>
-8.4086

> <Gold.Chemscore.Internal_Hbond.Weighted>
0.0000

> <Gold.Chemscore.DEClash.Weighted>
0.2946

> <Gold.Chemscore.DEInternal.Weighted>
2.7711

> <Gold.Chemscore.Rot.Weighted>
4.9365

> <Gold.Chemscore.Internal.Correction.Weighted>
   9.000000E+99

> <Gold.Protein.RotatedTorsions>
[ 6907 6896 6895 6894 ] final  -52.68 input  -60.11 | X-H torsion
[ 7974 7965 7964 7962 ] final -156.07 input  175.53 | X-H torsion
[ 8008 7997 7996 7995 ] final  -78.11 input   59.86 | X-H torsion
[ 10167 10162 10161 10158 ] final   97.36 input  -65.29 | X-H torsion
[ 10718 10713 10712 10709 ] final   94.60 input   66.30 | X-H torsion
[ 10763 10752 10751 10750 ] final -149.78 input  -60.55 | X-H torsion
[ 11005 11000 10999 10996 ] final   79.50 input  -57.11 | X-H torsion

> <Gold.Protein.ActiveResidues>
 VAL166  LYS551  ARG553  GLY616  TRP617  ASP618  TYR619  PRO620  LYS621  CYS622 
 ASP623  PHE694  ASN695  SER759  ASP760  ASP761  ALA762  ILE779  LEU786  VAL792 
 PHE793  MET794  SER795  GLU796  ALA797  LYS798  CYS799  TRP800  GLU811  SER814 

> <Gold.Protein.RotatedAtoms>
  150.8495  134.7816  159.6997 H   0  0  0  0  0  0  0  0  0  0  0  0  # atno 6907 bound_to 6896
  152.4564  134.5279  159.9812 H   0  0  0  0  0  0  0  0  0  0  0  0  # atno 6908 bound_to 6896
  151.5403  133.3396  159.2970 H   0  0  0  0  0  0  0  0  0  0  0  0  # atno 6909 bound_to 6896
  144.7610  140.4161  143.5976 H   0  0  0  0  0  0  0  0  0  0  0  0  # atno 7974 bound_to 7965
  154.5659  140.0699  156.8891 H   0  0  0  0  0  0  0  0  0  0  0  0  # atno 8008 bound_to 7997
  155.2724  140.3366  155.4246 H   0  0  0  0  0  0  0  0  0  0  0  0  # atno 8009 bound_to 7997
  156.2080  140.1747  156.7743 H   0  0  0  0  0  0  0  0  0  0  0  0  # atno 8010 bound_to 7997
  139.7808  144.6889  151.0025 H   0  0  0  0  0  0  0  0  0  0  0  0  # atno 10167 bound_to 10162
  157.6946  131.0518  150.4211 H   0  0  0  0  0  0  0  0  0  0  0  0  # atno 10718 bound_to 10713
  154.8157  135.3300  154.7181 H   0  0  0  0  0  0  0  0  0  0  0  0  # atno 10763 bound_to 10752
  153.7823  135.6917  153.4890 H   0  0  0  0  0  0  0  0  0  0  0  0  # atno 10764 bound_to 10752
  153.1972  135.4529  155.0170 H   0  0  0  0  0  0  0  0  0  0  0  0  # atno 10765 bound_to 10752
  139.9170  134.7848  156.1787 H   0  0  0  0  0  0  0  0  0  0  0  0  # atno 11005 bound_to 11000
  145.6619  139.1583  143.2803 LP  0  0  0  0  0  0  0  0  0  0  0  0  # atno 17320 bound_to 7965
  146.1673  140.6699  142.9249 LP  0  0  0  0  0  0  0  0  0  0  0  0  # atno 17321 bound_to 7965
  140.7818  143.4485  151.0448 LP  0  0  0  0  0  0  0  0  0  0  0  0  # atno 17342 bound_to 10162
  139.8165  143.7878  152.3174 LP  0  0  0  0  0  0  0  0  0  0  0  0  # atno 17343 bound_to 10162
  156.4586  130.4027  149.6590 LP  0  0  0  0  0  0  0  0  0  0  0  0  # atno 17370 bound_to 10713
  156.3713  130.7532  151.2515 LP  0  0  0  0  0  0  0  0  0  0  0  0  # atno 17371 bound_to 10713
  141.0655  133.6821  156.2037 LP  0  0  0  0  0  0  0  0  0  0  0  0  # atno 17394 bound_to 11000
  140.6591  134.4986  157.5582 LP  0  0  0  0  0  0  0  0  0  0  0  0  # atno 17395 bound_to 11000

$$$$
