AV-unprocessed.smi:2772|AV-procd|sdf|10664|dock8
  -GOLD-   2272015113D 1   1.00000     0.00000
 Structure written by MMmdl.
 55 57  0  0  0  0  0  0  0  0  3 V2000
  152.6149  143.5044  160.8117 C   0  0  0  0  0  0  0  0  0  0  0  0
  151.9871  143.1335  159.4844 C   0  0  0  0  0  0  0  0  0  0  0  0
  152.1714  143.9444  158.3459 C   0  0  0  0  0  0  0  0  0  0  0  0
  151.5628  143.5563  157.1367 C   0  0  0  0  0  0  0  0  0  0  0  0
  150.7834  142.3743  157.1113 C   0  0  0  0  0  0  0  0  0  0  0  0
  150.1323  141.8659  155.9543 N   0  0  0  0  0  0  0  0  0  0  0  0
  149.0461  141.0779  155.8795 C   0  0  0  0  0  0  0  0  0  0  0  0
  148.4214  140.6289  156.8401 O   0  0  0  0  0  0  0  0  0  0  0  0
  148.7252  140.8143  154.6044 N   0  0  0  0  0  0  0  0  0  0  0  0
  147.5995  139.9883  154.1771 C   0  0  2  0  0  0  0  0  0  0  0  0
  147.6114  138.6264  154.8882 C   0  0  0  0  0  0  0  0  0  0  0  0
  146.4725  137.7308  154.3767 C   0  0  0  0  0  0  0  0  0  0  0  0
  146.5505  137.5185  152.9022 N   0  3  1  0  0  0  0  0  0  0  0  0
  145.5489  136.5075  152.4253 C   0  0  2  0  0  0  0  0  0  0  0  0
  145.7022  135.1762  153.1994 C   0  0  0  0  0  0  0  0  0  0  0  0
  144.6887  134.1155  152.7367 C   0  0  0  0  0  0  0  0  0  0  0  0
  144.8102  133.8594  151.2825 N   0  3  1  0  0  0  0  0  0  0  0  0
  143.9267  132.7645  150.8261 C   0  0  0  0  0  0  0  0  0  0  0  0
  144.6258  135.1000  150.4934 C   0  0  0  0  0  0  0  0  0  0  0  0
  145.6362  136.1825  150.9120 C   0  0  0  0  0  0  0  0  0  0  0  0
  146.5334  138.8270  152.1841 C   0  0  0  0  0  0  0  0  0  0  0  0
  147.6617  139.7583  152.6618 C   0  0  0  0  0  0  0  0  0  0  0  0
  150.6768  141.6328  158.3071 C   0  0  0  0  0  0  0  0  0  0  0  0
  151.2565  141.9980  159.4704 N   0  0  0  0  0  0  0  0  0  0  0  0
  153.3740  144.2768  160.6848 H   0  0  0  0  0  0  0  0  0  0  0  0
  153.0897  142.6357  161.2689 H   0  0  0  0  0  0  0  0  0  0  0  0
  151.8544  143.8810  161.4961 H   0  0  0  0  0  0  0  0  0  0  0  0
  152.7693  144.8425  158.3927 H   0  0  0  0  0  0  0  0  0  0  0  0
  151.7178  144.1636  156.2589 H   0  0  0  0  0  0  0  0  0  0  0  0
  150.5788  142.0904  155.0771 H   0  0  0  0  0  0  0  0  0  0  0  0
  149.2967  141.2208  153.8781 H   0  0  0  0  0  0  0  0  0  0  0  0
  146.6674  140.5079  154.4094 H   0  0  0  0  0  0  0  0  0  0  0  0
  148.5689  138.1279  154.7290 H   0  0  0  0  0  0  0  0  0  0  0  0
  147.5097  138.7628  155.9656 H   0  0  0  0  0  0  0  0  0  0  0  0
  146.5215  136.7846  154.9120 H   0  0  0  0  0  0  0  0  0  0  0  0
  145.5096  138.1790  154.6283 H   0  0  0  0  0  0  0  0  0  0  0  0
  144.5523  136.9126  152.6109 H   0  0  0  0  0  0  0  0  0  0  0  0
  146.7145  134.7903  153.0687 H   0  0  0  0  0  0  0  0  0  0  0  0
  145.5698  135.3209  154.2704 H   0  0  0  0  0  0  0  0  0  0  0  0
  144.8585  133.1877  153.2847 H   0  0  0  0  0  0  0  0  0  0  0  0
  143.6727  134.4394  152.9690 H   0  0  0  0  0  0  0  0  0  0  0  0
  142.8765  133.0219  150.9706 H   0  0  0  0  0  0  0  0  0  0  0  0
  144.1333  131.8466  151.3780 H   0  0  0  0  0  0  0  0  0  0  0  0
  144.0853  132.5573  149.7673 H   0  0  0  0  0  0  0  0  0  0  0  0
  144.7498  134.8783  149.4325 H   0  0  0  0  0  0  0  0  0  0  0  0
  143.6063  135.4680  150.6226 H   0  0  0  0  0  0  0  0  0  0  0  0
  145.4293  137.0693  150.3124 H   0  0  0  0  0  0  0  0  0  0  0  0
  146.6449  135.8536  150.6572 H   0  0  0  0  0  0  0  0  0  0  0  0
  146.6786  138.6850  151.1141 H   0  0  0  0  0  0  0  0  0  0  0  0
  145.5629  139.3071  152.3197 H   0  0  0  0  0  0  0  0  0  0  0  0
  147.5961  140.7125  152.1374 H   0  0  0  0  0  0  0  0  0  0  0  0
  148.6259  139.3243  152.3922 H   0  0  0  0  0  0  0  0  0  0  0  0
  150.1035  140.7176  158.3347 H   0  0  0  0  0  0  0  0  0  0  0  0
  147.4596  137.1202  152.7143 H   0  0  0  0  0  0  0  0  0  0  0  0
  145.7571  133.5473  151.1191 H   0  0  0  0  0  0  0  0  0  0  0  0
  1  2  1  0  0  0  0
  1 25  1  0  0  0  0
  1 26  1  0  0  0  0
  1 27  1  0  0  0  0
  2 24  1  0  0  0  0
  2  3  2  0  0  0  0
  3  4  1  0  0  0  0
  3 28  1  0  0  0  0
  4  5  2  0  0  0  0
  4 29  1  0  0  0  0
  5  6  1  0  0  0  0
  5 23  1  0  0  0  0
  6  7  1  0  0  0  0
  6 30  1  0  0  0  0
  7  8  2  0  0  0  0
  7  9  1  0  0  0  0
  9 10  1  0  0  0  0
  9 31  1  0  0  0  0
 10 22  1  0  0  0  0
 10 11  1  0  0  0  0
 10 32  1  0  0  0  0
 11 12  1  0  0  0  0
 11 33  1  0  0  0  0
 11 34  1  0  0  0  0
 12 13  1  0  0  0  0
 12 35  1  0  0  0  0
 12 36  1  0  0  0  0
 13 14  1  0  0  0  0
 13 21  1  0  0  0  0
 13 54  1  0  0  0  0
 14 20  1  0  0  0  0
 14 15  1  0  0  0  0
 14 37  1  0  0  0  0
 15 16  1  0  0  0  0
 15 38  1  0  0  0  0
 15 39  1  0  0  0  0
 16 17  1  0  0  0  0
 16 40  1  0  0  0  0
 16 41  1  0  0  0  0
 17 18  1  0  0  0  0
 17 19  1  0  0  0  0
 17 55  1  0  0  0  0
 18 42  1  0  0  0  0
 18 43  1  0  0  0  0
 18 44  1  0  0  0  0
 19 20  1  0  0  0  0
 19 45  1  0  0  0  0
 19 46  1  0  0  0  0
 20 47  1  0  0  0  0
 20 48  1  0  0  0  0
 21 22  1  0  0  0  0
 21 49  1  0  0  0  0
 21 50  1  0  0  0  0
 22 51  1  0  0  0  0
 22 52  1  0  0  0  0
 23 24  2  0  0  0  0
 23 53  1  0  0  0  0
M  CHG  1  13   1
M  CHG  1  17   1
M  END
> <s_m_source_file>
AV-unprocessed.smi

> <i_m_source_file_index>
2772

> <i_lp_mmshare_version>
43012

> <i_f3d_flags>
0

> <s_epik_input>
W0NIM11jMVtjSF1bY0hdYyhbY0hdbjEpW05IXUMoPU8pW05IXVtDSF0yW0NIMl1bQ0gyXU4oW0NIMl1bQ0gyXTIpW0NIXTNbQ0gyXVtDSDJdTihbQ0gzXSlbQ0gyXVtDSDJdMw==

> <s_epik_cmdline>
J2VwaWtfcHl0aG9uJywgJy1waCcsICc3LjAnLCAnLXRuJywgJzgnLCAnLW1hJywgJzIwMCcsICctbWV0YWxfYmluZGluZycsICctaW1hZScsICc8aW5maWxlLm1hZT4nLCAnLW9tYWUnLCAnPG91dGZpbGUubWFlPic=

> <r_epik_Ionization_Penalty>
0.196786

> <r_epik_Ionization_Penalty_Charging>
0.180787

> <r_epik_Ionization_Penalty_Neutral>
0.0159988

> <r_epik_State_Penalty>
0.163322

> <r_epik_Charging_Adjusted_Penalty>
0.344109

> <i_epik_Tot_Q>
2

> <i_epik_Tot_abs_Q>
2

> <r_epik_Metal_State_Penalty>
0.163596

> <b_epik_Metal_Only>
0

> <s_lp_Force_Field>
OPLS_2005

> <r_lp_Energy>
43.2769

> <b_lp_Chiralities_Consistent>
1

> <s_lp_Variant>
AV-unprocessed.smi:2772-1

> <Gold.Version>
5.8.1

> <Gold.Id.Protein>
6NUR|6NUR_protein|mol2

> <Gold.PLP.Fitness>
44.9136

> <Gold.PLP.PLP>
-39.3356

> <Gold.PLP.part.hbond>
-2.3968

> <Gold.PLP.part.metal>
0.0000

> <Gold.PLP.part.buried>
-1.6976

> <Gold.PLP.part.nonpolar>
-36.6554

> <Gold.PLP.part.repulsive>
0.3058

> <Gold.PLP.ligand.clash>
0.0000

> <Gold.PLP.ligand.torsion>
0.2275

> <Gold.PLP.Chemscore.Hbond>
2.0000

> <Gold.PLP.Chemscore.CHOScore>
0.0000

> <Gold.PLP.Chemscore.Metal>
0.0000

> <Gold.Chemscore.Hbonds>
donor molecule, donor type, donor heavy atom, donor atom, acceptor molecule, acceptor atom, score
      L1  H    13    54       P1  7948  2.00

> <Gold.PLP.Chemscore.Internal.Correction>
0.0330

> <Gold.Rescore>
     Score         DG    S(hbond)    S(metal)    S(lipo)     H(rot)  DE(clash)    DE(int)     intcor
     15.42     -19.97       0.99        0.00     122.14       1.21       1.83       2.72       ----

> <Gold.Chemscore.Fitness>
15.4179

> <Gold.Chemscore.DG>
-19.9657

> <Gold.Chemscore.ZeroCoef>
-5.4800

> <Gold.Chemscore.Hbond>
0.9854

> <Gold.Chemscore.Metal>
0.0000

> <Gold.Chemscore.Lipo>
122.1351

> <Gold.Chemscore.Internal_Hbond>
0.0000

> <Gold.Chemscore.DEClash>
1.8259

> <Gold.Chemscore.DEInternal>
2.7219

> <Gold.Chemscore.Rot>
1.2092

> <Gold.Chemscore.Internal.Correction>
   9.000000E+99

> <Gold.Chemscore.Hbonds>
donor molecule, donor type, donor heavy atom, donor atom, acceptor molecule, acceptor atom, score
      L1  H    13    54       P1  7948  0.99

> <Gold.Chemscore.Hbond.Weighted>
-3.2913

> <Gold.Chemscore.Metal.Weighted>
-0.0000

> <Gold.Chemscore.Lipo.Weighted>
-14.2898

> <Gold.Chemscore.Internal_Hbond.Weighted>
0.0000

> <Gold.Chemscore.DEClash.Weighted>
1.8259

> <Gold.Chemscore.DEInternal.Weighted>
2.7219

> <Gold.Chemscore.Rot.Weighted>
3.0955

> <Gold.Chemscore.Internal.Correction.Weighted>
   9.000000E+99

> <Gold.Protein.RotatedTorsions>
[ 6907 6896 6895 6894 ] final   10.48 input  -60.11 | X-H torsion
[ 7974 7965 7964 7962 ] final   71.90 input  175.53 | X-H torsion
[ 8008 7997 7996 7995 ] final  126.39 input   59.86 | X-H torsion
[ 10167 10162 10161 10158 ] final -112.67 input  -65.29 | X-H torsion
[ 10718 10713 10712 10709 ] final  130.01 input   66.30 | X-H torsion
[ 10763 10752 10751 10750 ] final -133.25 input  -60.55 | X-H torsion
[ 11005 11000 10999 10996 ] final   93.79 input  -57.11 | X-H torsion

> <Gold.Protein.ActiveResidues>
 VAL166  LYS551  ARG553  GLY616  TRP617  ASP618  TYR619  PRO620  LYS621  CYS622 
 ASP623  PHE694  ASN695  SER759  ASP760  ASP761  ALA762  ILE779  LEU786  VAL792 
 PHE793  MET794  SER795  GLU796  ALA797  LYS798  CYS799  TRP800  GLU811  SER814 

> <Gold.Protein.RotatedAtoms>
  151.7389  135.0858  160.0312 H   0  0  0  0  0  0  0  0  0  0  0  0  # atno 6907 bound_to 6896
  152.3492  133.6155  159.5941 H   0  0  0  0  0  0  0  0  0  0  0  0  # atno 6908 bound_to 6896
  150.7529  133.9516  159.3529 H   0  0  0  0  0  0  0  0  0  0  0  0  # atno 6909 bound_to 6896
  145.7601  139.2797  143.1381 H   0  0  0  0  0  0  0  0  0  0  0  0  # atno 7974 bound_to 7965
  156.2862  140.2694  156.2103 H   0  0  0  0  0  0  0  0  0  0  0  0  # atno 8008 bound_to 7997
  155.0271  140.0386  157.2478 H   0  0  0  0  0  0  0  0  0  0  0  0  # atno 8009 bound_to 7997
  154.7386  140.2720  155.6398 H   0  0  0  0  0  0  0  0  0  0  0  0  # atno 8010 bound_to 7997
  140.1202  143.4450  152.1696 H   0  0  0  0  0  0  0  0  0  0  0  0  # atno 10167 bound_to 10162
  157.5101  131.1096  150.9304 H   0  0  0  0  0  0  0  0  0  0  0  0  # atno 10718 bound_to 10713
  154.8735  135.3772  154.4541 H   0  0  0  0  0  0  0  0  0  0  0  0  # atno 10763 bound_to 10752
  153.5215  135.7029  153.5734 H   0  0  0  0  0  0  0  0  0  0  0  0  # atno 10764 bound_to 10752
  153.3979  135.3956  155.1933 H   0  0  0  0  0  0  0  0  0  0  0  0  # atno 10765 bound_to 10752
  139.8806  134.8810  156.3770 H   0  0  0  0  0  0  0  0  0  0  0  0  # atno 11005 bound_to 11000
  146.0272  140.8292  142.9894 LP  0  0  0  0  0  0  0  0  0  0  0  0  # atno 17320 bound_to 7965
  144.6832  140.2716  143.7305 LP  0  0  0  0  0  0  0  0  0  0  0  0  # atno 17321 bound_to 7965
  139.5573  144.7381  151.4258 LP  0  0  0  0  0  0  0  0  0  0  0  0  # atno 17342 bound_to 10162
  140.6876  143.7937  150.7209 LP  0  0  0  0  0  0  0  0  0  0  0  0  # atno 17343 bound_to 10162
  156.9947  130.5577  149.5306 LP  0  0  0  0  0  0  0  0  0  0  0  0  # atno 17370 bound_to 10713
  156.0284  130.5376  150.8468 LP  0  0  0  0  0  0  0  0  0  0  0  0  # atno 17371 bound_to 10713
  140.9425  133.7505  156.0165 LP  0  0  0  0  0  0  0  0  0  0  0  0  # atno 17394 bound_to 11000
  140.8202  134.3298  157.5384 LP  0  0  0  0  0  0  0  0  0  0  0  0  # atno 17395 bound_to 11000

$$$$
