AV-unprocessed.smi:214|AV-procd|sdf|1649|dock5
  -GOLD-   2262020 33D 1   1.00000     0.00000
 Structure written by MMmdl.
 47 50  0  0  0  0  0  0  0  0  1 V2000
  151.7705  137.4594  159.7482 C   0  0  0  0  0  0  0  0  0  0  0  0
  150.9038  137.7979  158.6242 N   0  0  0  0  0  0  0  0  0  0  0  0
  150.6186  139.2097  158.3448 C   0  0  0  0  0  0  0  0  0  0  0  0
  151.8523  140.1070  158.5036 C   0  0  0  0  0  0  0  0  0  0  0  0
  152.8588  139.9286  157.8156 O   0  0  0  0  0  0  0  0  0  0  0  0
  151.7469  141.0863  159.4136 N   0  0  0  0  0  0  0  0  0  0  0  0
  152.7613  142.0408  159.7256 C   0  0  0  0  0  0  0  0  0  0  0  0
  152.7473  142.6527  161.1098 C   0  0  0  0  0  0  0  0  0  0  0  0
  152.3374  143.4801  159.9231 C   0  0  0  0  0  0  0  0  0  0  0  0
  149.9165  136.8975  158.4101 C   0  0  0  0  0  0  0  0  0  0  0  0
  149.8448  136.3359  157.1771 N   0  0  0  0  0  0  0  0  0  0  0  0
  148.8909  135.4423  156.9009 C   0  0  0  0  0  0  0  0  0  0  0  0
  147.9333  134.9702  157.7009 N   0  0  0  0  0  0  0  0  0  0  0  0
  148.0146  135.5140  158.9486 C   0  0  0  0  0  0  0  0  0  0  0  0
  148.9664  136.4789  159.3860 C   0  0  0  0  0  0  0  0  0  0  0  0
  148.7423  136.7893  160.7225 N   0  0  0  0  0  0  0  0  0  0  0  0
  147.7116  136.0597  161.0516 C   0  0  0  0  0  0  0  0  0  0  0  0
  147.2157  135.2566  160.0493 N   0  0  0  0  0  0  0  0  0  0  0  0
  146.0817  134.3496  160.1476 C   0  0  0  0  0  0  0  0  0  0  0  0
  145.7675  133.8745  161.5822 C   0  0  0  0  0  0  0  0  0  0  0  0
  147.0447  133.3995  162.2977 C   0  0  0  0  0  0  0  0  0  0  0  0
  147.7853  132.5036  161.4934 O   0  0  0  0  0  0  0  0  0  0  0  0
  144.8763  134.8089  162.4123 C   0  0  0  0  0  0  0  0  0  0  0  0
  143.9902  133.7298  162.7766 O   0  0  0  0  0  0  0  0  0  0  0  0
  144.5704  132.9237  161.7302 C   0  0  0  0  0  0  0  0  0  0  0  0
  152.3229  136.5401  159.5507 H   0  0  0  0  0  0  0  0  0  0  0  0
  151.1870  137.3220  160.6600 H   0  0  0  0  0  0  0  0  0  0  0  0
  152.5008  138.2476  159.9337 H   0  0  0  0  0  0  0  0  0  0  0  0
  150.2607  139.3418  157.3226 H   0  0  0  0  0  0  0  0  0  0  0  0
  149.8256  139.5556  159.0099 H   0  0  0  0  0  0  0  0  0  0  0  0
  150.8810  141.1611  159.9274 H   0  0  0  0  0  0  0  0  0  0  0  0
  153.7450  141.8881  159.2838 H   0  0  0  0  0  0  0  0  0  0  0  0
  151.9637  142.3414  161.7982 H   0  0  0  0  0  0  0  0  0  0  0  0
  153.7087  142.8739  161.5690 H   0  0  0  0  0  0  0  0  0  0  0  0
  153.0248  144.2548  159.5892 H   0  0  0  0  0  0  0  0  0  0  0  0
  151.2808  143.7194  159.8186 H   0  0  0  0  0  0  0  0  0  0  0  0
  148.8959  135.0494  155.8947 H   0  0  0  0  0  0  0  0  0  0  0  0
  147.2868  136.0805  162.0448 H   0  0  0  0  0  0  0  0  0  0  0  0
  145.2125  134.8461  159.7148 H   0  0  0  0  0  0  0  0  0  0  0  0
  146.2814  133.4972  159.4970 H   0  0  0  0  0  0  0  0  0  0  0  0
  147.6897  134.2476  162.5302 H   0  0  0  0  0  0  0  0  0  0  0  0
  146.8201  132.9241  163.2528 H   0  0  0  0  0  0  0  0  0  0  0  0
  148.0778  132.9649  160.7220 H   0  0  0  0  0  0  0  0  0  0  0  0
  145.3748  135.2536  163.2743 H   0  0  0  0  0  0  0  0  0  0  0  0
  144.3641  135.5713  161.8230 H   0  0  0  0  0  0  0  0  0  0  0  0
  143.9195  132.8813  160.8557 H   0  0  0  0  0  0  0  0  0  0  0  0
  144.8365  131.9210  162.0663 H   0  0  0  0  0  0  0  0  0  0  0  0
  1  2  1  0  0  0  0
  1 26  1  0  0  0  0
  1 27  1  0  0  0  0
  1 28  1  0  0  0  0
  2  3  1  0  0  0  0
  2 10  1  0  0  0  0
  3  4  1  0  0  0  0
  3 29  1  0  0  0  0
  3 30  1  0  0  0  0
  4  5  2  0  0  0  0
  4  6  1  0  0  0  0
  6  7  1  0  0  0  0
  6 31  1  0  0  0  0
  7  9  1  0  0  0  0
  7  8  1  0  0  0  0
  7 32  1  0  0  0  0
  8  9  1  0  0  0  0
  8 33  1  0  0  0  0
  8 34  1  0  0  0  0
  9 35  1  0  0  0  0
  9 36  1  0  0  0  0
 10 15  1  0  0  0  0
 10 11  2  0  0  0  0
 11 12  1  0  0  0  0
 12 13  2  0  0  0  0
 12 37  1  0  0  0  0
 13 14  1  0  0  0  0
 14 18  1  0  0  0  0
 14 15  2  0  0  0  0
 15 16  1  0  0  0  0
 16 17  2  0  0  0  0
 17 18  1  0  0  0  0
 17 38  1  0  0  0  0
 18 19  1  0  0  0  0
 19 20  1  0  0  0  0
 19 39  1  0  0  0  0
 19 40  1  0  0  0  0
 20 25  1  0  0  0  0
 20 21  1  0  0  0  0
 20 23  1  0  0  0  0
 21 22  1  0  0  0  0
 21 41  1  0  0  0  0
 21 42  1  0  0  0  0
 22 43  1  0  0  0  0
 23 24  1  0  0  0  0
 23 44  1  0  0  0  0
 23 45  1  0  0  0  0
 24 25  1  0  0  0  0
 25 46  1  0  0  0  0
 25 47  1  0  0  0  0
M  END
> <s_m_source_file>
AV-unprocessed.smi

> <i_m_source_file_index>
214

> <i_lp_mmshare_version>
43012

> <i_f3d_flags>
0

> <s_epik_input>
W0NIMl0xW0NIMl1bQ0hdMVtOSF1DKD1PKVtDSDJdTihbQ0gzXSljKG5bY0hdbjIpYyhjMjMpbltjSF1uM1tDSDJdQzQoW0NIMl1bT0hdKVtDSDJdT1tDSDJdNA==

> <s_epik_cmdline>
J2VwaWtfcHl0aG9uJywgJy1waCcsICc3LjAnLCAnLXRuJywgJzgnLCAnLW1hJywgJzIwMCcsICctbWV0YWxfYmluZGluZycsICctaW1hZScsICc8aW5maWxlLm1hZT4nLCAnLW9tYWUnLCAnPG91dGZpbGUubWFlPic=

> <r_lp_tautomer_probability>
1

> <r_epik_Ionization_Penalty>
0.000508869

> <r_epik_Ionization_Penalty_Charging>
0

> <r_epik_Ionization_Penalty_Neutral>
0.000508869

> <r_epik_State_Penalty>
0.000243319

> <r_epik_Charging_Adjusted_Penalty>
0.000243319

> <i_epik_Tot_Q>
0

> <i_epik_Tot_abs_Q>
0

> <r_epik_Metal_State_Penalty>
-0

> <b_epik_Metal_Only>
0

> <s_lp_Force_Field>
OPLS_2005

> <r_lp_Energy>
39.3286

> <b_lp_Chiralities_Consistent>
1

> <s_lp_Variant>
AV-unprocessed.smi:214-1

> <Gold.Version>
5.8.1

> <Gold.Id.Protein>
6NUR|6NUR_protein|mol2

> <Gold.PLP.Fitness>
41.5607

> <Gold.PLP.PLP>
-39.7226

> <Gold.PLP.part.hbond>
-2.8956

> <Gold.PLP.part.metal>
0.0000

> <Gold.PLP.part.buried>
-5.8132

> <Gold.PLP.part.nonpolar>
-31.4599

> <Gold.PLP.part.repulsive>
0.2541

> <Gold.PLP.ligand.clash>
0.0000

> <Gold.PLP.ligand.torsion>
2.3871

> <Gold.PLP.Chemscore.Hbond>
1.8465

> <Gold.PLP.Chemscore.CHOScore>
0.0000

> <Gold.PLP.Chemscore.Metal>
0.0000

> <Gold.Chemscore.Hbonds>
donor molecule, donor type, donor heavy atom, donor atom, acceptor molecule, acceptor atom, score
      P1  H  6931  6943       L1    16  0.93
      P1  H  7997  8009       L1     5  0.98

> <Gold.PLP.Chemscore.Internal.Correction>
1.0727

> <Gold.Rescore>
     Score         DG    S(hbond)    S(metal)    S(lipo)     H(rot)  DE(clash)    DE(int)     intcor
     10.50     -12.66       1.84        0.00      81.15       3.31       0.04       2.13       ----

> <Gold.Chemscore.Fitness>
10.4950

> <Gold.Chemscore.DG>
-12.6604

> <Gold.Chemscore.ZeroCoef>
-5.4800

> <Gold.Chemscore.Hbond>
1.8404

> <Gold.Chemscore.Metal>
0.0000

> <Gold.Chemscore.Lipo>
81.1536

> <Gold.Chemscore.Internal_Hbond>
0.0000

> <Gold.Chemscore.DEClash>
0.0367

> <Gold.Chemscore.DEInternal>
2.1288

> <Gold.Chemscore.Rot>
3.3052

> <Gold.Chemscore.Internal.Correction>
   9.000000E+99

> <Gold.Chemscore.Hbonds>
donor molecule, donor type, donor heavy atom, donor atom, acceptor molecule, acceptor atom, score
      P1  H  6931  6943       L1    16  0.79
      P1  H  7997  8009       L1     5  0.93

> <Gold.Chemscore.Hbond.Weighted>
-6.1469

> <Gold.Chemscore.Metal.Weighted>
-0.0000

> <Gold.Chemscore.Lipo.Weighted>
-9.4950

> <Gold.Chemscore.Internal_Hbond.Weighted>
0.0000

> <Gold.Chemscore.DEClash.Weighted>
0.0367

> <Gold.Chemscore.DEInternal.Weighted>
2.1288

> <Gold.Chemscore.Rot.Weighted>
8.4614

> <Gold.Chemscore.Internal.Correction.Weighted>
   9.000000E+99

> <Gold.Protein.RotatedTorsions>
[ 6907 6896 6895 6894 ] final   49.75 input  -60.11 | X-H torsion
[ 7974 7965 7964 7962 ] final  159.05 input  175.53 | X-H torsion
[ 8008 7997 7996 7995 ] final -178.82 input   59.86 | X-H torsion
[ 10167 10162 10161 10158 ] final  -28.69 input  -65.29 | X-H torsion
[ 10718 10713 10712 10709 ] final  -85.34 input   66.30 | X-H torsion
[ 10763 10752 10751 10750 ] final  -88.10 input  -60.55 | X-H torsion
[ 11005 11000 10999 10996 ] final   21.29 input  -57.11 | X-H torsion

> <Gold.Protein.ActiveResidues>
 VAL166  LYS551  ARG553  GLY616  TRP617  ASP618  TYR619  PRO620  LYS621  CYS622 
 ASP623  PHE694  ASN695  SER759  ASP760  ASP761  ALA762  ILE779  LEU786  VAL792 
 PHE793  MET794  SER795  GLU796  ALA797  LYS798  CYS799  TRP800  GLU811  SER814 

> <Gold.Protein.RotatedAtoms>
  152.2942  134.7686  160.0371 H   0  0  0  0  0  0  0  0  0  0  0  0  # atno 6907 bound_to 6896
  151.8222  133.3391  159.3596 H   0  0  0  0  0  0  0  0  0  0  0  0  # atno 6908 bound_to 6896
  150.7244  134.5492  159.5830 H   0  0  0  0  0  0  0  0  0  0  0  0  # atno 6909 bound_to 6896
  144.7811  139.7563  143.6259 H   0  0  0  0  0  0  0  0  0  0  0  0  # atno 7974 bound_to 7965
  156.0233  140.1266  157.0335 H   0  0  0  0  0  0  0  0  0  0  0  0  # atno 8008 bound_to 7997
  154.4320  140.1064  156.6064 H   0  0  0  0  0  0  0  0  0  0  0  0  # atno 8009 bound_to 7997
  155.5914  140.3469  155.4569 H   0  0  0  0  0  0  0  0  0  0  0  0  # atno 8010 bound_to 7997
  140.7267  143.3989  151.1299 H   0  0  0  0  0  0  0  0  0  0  0  0  # atno 10167 bound_to 10162
  155.9997  130.4728  150.4548 H   0  0  0  0  0  0  0  0  0  0  0  0  # atno 10718 bound_to 10713
  154.6409  135.5389  153.7788 H   0  0  0  0  0  0  0  0  0  0  0  0  # atno 10763 bound_to 10752
  153.0333  135.6459  154.1162 H   0  0  0  0  0  0  0  0  0  0  0  0  # atno 10764 bound_to 10752
  154.1086  135.2928  155.3215 H   0  0  0  0  0  0  0  0  0  0  0  0  # atno 10765 bound_to 10752
  140.3932  134.1796  155.7663 H   0  0  0  0  0  0  0  0  0  0  0  0  # atno 11005 bound_to 11000
  146.2020  139.5321  142.9737 LP  0  0  0  0  0  0  0  0  0  0  0  0  # atno 17320 bound_to 7965
  145.6047  141.0349  143.1999 LP  0  0  0  0  0  0  0  0  0  0  0  0  # atno 17321 bound_to 7965
  139.7606  143.8641  152.3099 LP  0  0  0  0  0  0  0  0  0  0  0  0  # atno 17342 bound_to 10162
  139.8526  144.7157  150.9196 LP  0  0  0  0  0  0  0  0  0  0  0  0  # atno 17343 bound_to 10162
  157.2577  131.0560  151.2340 LP  0  0  0  0  0  0  0  0  0  0  0  0  # atno 17370 bound_to 10713
  157.3465  130.7060  149.6414 LP  0  0  0  0  0  0  0  0  0  0  0  0  # atno 17371 bound_to 10713
  141.1883  133.8262  157.0999 LP  0  0  0  0  0  0  0  0  0  0  0  0  # atno 17394 bound_to 11000
  140.0391  134.9863  157.0927 LP  0  0  0  0  0  0  0  0  0  0  0  0  # atno 17395 bound_to 11000

$$$$
