AV-unprocessed.smi:2193|AV-procd|sdf|8899|dock4
  -GOLD-   2272012113D 1   1.00000     0.00000
 Structure written by MMmdl.
 40 42  0  0  0  0  0  0  0  0  1 V2000
  153.3101  136.7250  156.6105 O   0  0  0  0  0  0  0  0  0  0  0  0
  153.3093  137.1299  157.9648 C   0  0  0  0  0  0  0  0  0  0  0  0
  152.8841  138.5558  158.1771 C   0  0  0  0  0  0  0  0  0  0  0  0
  153.6482  139.4608  158.7939 N   0  0  0  0  0  0  0  0  0  0  0  0
  152.8724  140.6020  158.7457 C   0  0  0  0  0  0  0  0  0  0  0  0
  153.1254  141.9055  159.2300 C   0  0  0  0  0  0  0  0  0  0  0  0
  152.1693  142.9283  159.0606 C   0  0  0  0  0  0  0  0  0  0  0  0
  150.9489  142.6624  158.4065 C   0  0  0  0  0  0  0  0  0  0  0  0
  150.6770  141.3705  157.9164 C   0  0  0  0  0  0  0  0  0  0  0  0
  151.6351  140.3531  158.0876 C   0  0  0  0  0  0  0  0  0  0  0  0
  151.6831  139.0073  157.7349 N   0  0  0  0  0  0  0  0  0  0  0  0
  150.6481  138.2608  157.0311 C   0  0  0  0  0  0  0  0  0  0  0  0
  149.4029  137.9951  157.9024 C   0  0  1  0  0  0  0  0  0  0  0  0
  148.2897  137.6978  157.0828 O   0  0  0  0  0  0  0  0  0  0  0  0
  149.6083  136.8294  158.8807 C   0  0  0  0  0  0  0  0  0  0  0  0
  148.6771  136.9507  159.9478 O   0  0  0  0  0  0  0  0  0  0  0  0
  148.0073  135.8192  160.3613 C   0  0  0  0  0  0  0  0  0  0  0  0
  147.2001  135.9385  161.5117 C   0  0  0  0  0  0  0  0  0  0  0  0
  146.4773  134.8343  162.0030 C   0  0  0  0  0  0  0  0  0  0  0  0
  146.5551  133.5934  161.3445 C   0  0  0  0  0  0  0  0  0  0  0  0
  145.8593  132.5310  161.8138 F   0  0  0  0  0  0  0  0  0  0  0  0
  147.3576  133.4593  160.1965 C   0  0  0  0  0  0  0  0  0  0  0  0
  148.0812  134.5637  159.7055 C   0  0  0  0  0  0  0  0  0  0  0  0
  152.4149  136.6580  156.3162 H   0  0  0  0  0  0  0  0  0  0  0  0
  152.6406  136.4726  158.5210 H   0  0  0  0  0  0  0  0  0  0  0  0
  154.3135  136.9887  158.3631 H   0  0  0  0  0  0  0  0  0  0  0  0
  154.0570  142.1186  159.7328 H   0  0  0  0  0  0  0  0  0  0  0  0
  152.3732  143.9210  159.4346 H   0  0  0  0  0  0  0  0  0  0  0  0
  150.2214  143.4509  158.2816 H   0  0  0  0  0  0  0  0  0  0  0  0
  149.7426  141.1644  157.4163 H   0  0  0  0  0  0  0  0  0  0  0  0
  150.3700  138.8165  156.1348 H   0  0  0  0  0  0  0  0  0  0  0  0
  151.0730  137.3211  156.6776 H   0  0  0  0  0  0  0  0  0  0  0  0
  149.1534  138.8903  158.4722 H   0  0  0  0  0  0  0  0  0  0  0  0
  148.1273  138.4363  156.5162 H   0  0  0  0  0  0  0  0  0  0  0  0
  149.4419  135.8842  158.3607 H   0  0  0  0  0  0  0  0  0  0  0  0
  150.6320  136.8325  159.2594 H   0  0  0  0  0  0  0  0  0  0  0  0
  147.1339  136.8874  162.0237 H   0  0  0  0  0  0  0  0  0  0  0  0
  145.8626  134.9400  162.8847 H   0  0  0  0  0  0  0  0  0  0  0  0
  147.4183  132.5075  159.6899 H   0  0  0  0  0  0  0  0  0  0  0  0
  148.6843  134.4212  158.8220 H   0  0  0  0  0  0  0  0  0  0  0  0
  1  2  1  0  0  0  0
  1 24  1  0  0  0  0
  2  3  1  0  0  0  0
  2 25  1  0  0  0  0
  2 26  1  0  0  0  0
  3 11  1  0  0  0  0
  3  4  2  0  0  0  0
  4  5  1  0  0  0  0
  5 10  2  0  0  0  0
  5  6  1  0  0  0  0
  6  7  2  0  0  0  0
  6 27  1  0  0  0  0
  7  8  1  0  0  0  0
  7 28  1  0  0  0  0
  8  9  2  0  0  0  0
  8 29  1  0  0  0  0
  9 10  1  0  0  0  0
  9 30  1  0  0  0  0
 10 11  1  0  0  0  0
 11 12  1  0  0  0  0
 12 13  1  0  0  0  0
 12 31  1  0  0  0  0
 12 32  1  0  0  0  0
 13 14  1  0  0  0  0
 13 15  1  0  0  0  0
 13 33  1  0  0  0  0
 14 34  1  0  0  0  0
 15 16  1  0  0  0  0
 15 35  1  0  0  0  0
 15 36  1  0  0  0  0
 16 17  1  0  0  0  0
 17 23  1  0  0  0  0
 17 18  2  0  0  0  0
 18 19  1  0  0  0  0
 18 37  1  0  0  0  0
 19 20  2  0  0  0  0
 19 38  1  0  0  0  0
 20 21  1  0  0  0  0
 20 22  1  0  0  0  0
 22 23  2  0  0  0  0
 22 39  1  0  0  0  0
 23 40  1  0  0  0  0
M  END
> <s_m_source_file>
AV-unprocessed.smi

> <i_m_source_file_index>
2193

> <i_lp_mmshare_version>
43012

> <i_f3d_flags>
0

> <s_epik_input>
W2NIXTFbY0hdW2NIXVtjSF1jKGMxMiluKGMobjIpW0NIMl1bT0hdKVtDSDJdW0NASF0oW09IXSlbQ0gyXU9jM1tjSF1bY0hdYyhGKVtjSF1bY0hdMw==

> <s_epik_cmdline>
J2VwaWtfcHl0aG9uJywgJy1waCcsICc3LjAnLCAnLXRuJywgJzgnLCAnLW1hJywgJzIwMCcsICctbWV0YWxfYmluZGluZycsICctaW1hZScsICc8aW5maWxlLm1hZT4nLCAnLW9tYWUnLCAnPG91dGZpbGUubWFlPic=

> <r_lp_tautomer_probability>
1

> <r_epik_Ionization_Penalty>
0.0549747

> <r_epik_Ionization_Penalty_Charging>
0

> <r_epik_Ionization_Penalty_Neutral>
0.0549747

> <r_epik_State_Penalty>
0.0472568

> <r_epik_Charging_Adjusted_Penalty>
0.0472568

> <i_epik_Tot_Q>
0

> <i_epik_Tot_abs_Q>
0

> <r_epik_Metal_State_Penalty>
4.91905e-05

> <b_epik_Metal_Only>
0

> <s_lp_Force_Field>
OPLS_2005

> <r_lp_Energy>
14.6926

> <b_lp_Chiralities_Consistent>
1

> <s_lp_Variant>
AV-unprocessed.smi:2193-2

> <Gold.Version>
5.8.1

> <Gold.Id.Protein>
6NUR|6NUR_protein|mol2

> <Gold.PLP.Fitness>
47.6201

> <Gold.PLP.PLP>
-41.0623

> <Gold.PLP.part.hbond>
-4.0000

> <Gold.PLP.part.metal>
0.0000

> <Gold.PLP.part.buried>
-5.2244

> <Gold.PLP.part.nonpolar>
-32.7111

> <Gold.PLP.part.repulsive>
0.0000

> <Gold.PLP.ligand.clash>
0.0000

> <Gold.PLP.ligand.torsion>
0.8619

> <Gold.PLP.Chemscore.Hbond>
2.7163

> <Gold.PLP.Chemscore.CHOScore>
0.0000

> <Gold.PLP.Chemscore.Metal>
0.0000

> <Gold.Chemscore.Hbonds>
donor molecule, donor type, donor heavy atom, donor atom, acceptor molecule, acceptor atom, score
      P1  H  6931  6943       L1    16  0.11
      P1  H  7997  8009       L1     4  0.50

> <Gold.PLP.Chemscore.Internal.Correction>
0.1329

> <Gold.Rescore>
     Score         DG    S(hbond)    S(metal)    S(lipo)     H(rot)  DE(clash)    DE(int)     intcor
     14.74     -15.39       1.82        0.00     103.25       3.22       0.02       0.64       ----

> <Gold.Chemscore.Fitness>
14.7390

> <Gold.Chemscore.DG>
-15.3923

> <Gold.Chemscore.ZeroCoef>
-5.4800

> <Gold.Chemscore.Hbond>
1.8185

> <Gold.Chemscore.Metal>
0.0000

> <Gold.Chemscore.Lipo>
103.2537

> <Gold.Chemscore.Internal_Hbond>
0.0000

> <Gold.Chemscore.DEClash>
0.0164

> <Gold.Chemscore.DEInternal>
0.6369

> <Gold.Chemscore.Rot>
3.2196

> <Gold.Chemscore.Internal.Correction>
   9.000000E+99

> <Gold.Chemscore.Hbonds>
donor molecule, donor type, donor heavy atom, donor atom, acceptor molecule, acceptor atom, score
      P1  H  6931  6943       L1    16  0.07
      P1  H  7997  8009       L1     4  0.01

> <Gold.Chemscore.Hbond.Weighted>
-6.0738

> <Gold.Chemscore.Metal.Weighted>
-0.0000

> <Gold.Chemscore.Lipo.Weighted>
-12.0807

> <Gold.Chemscore.Internal_Hbond.Weighted>
0.0000

> <Gold.Chemscore.DEClash.Weighted>
0.0164

> <Gold.Chemscore.DEInternal.Weighted>
0.6369

> <Gold.Chemscore.Rot.Weighted>
8.2422

> <Gold.Chemscore.Internal.Correction.Weighted>
   9.000000E+99

> <Gold.Protein.RotatedTorsions>
[ 6907 6896 6895 6894 ] final  163.37 input  -60.11 | X-H torsion
[ 7974 7965 7964 7962 ] final -145.30 input  175.53 | X-H torsion
[ 8008 7997 7996 7995 ] final  144.19 input   59.86 | X-H torsion
[ 10167 10162 10161 10158 ] final  -73.82 input  -65.29 | X-H torsion
[ 10718 10713 10712 10709 ] final  -73.62 input   66.30 | X-H torsion
[ 10763 10752 10751 10750 ] final -144.26 input  -60.55 | X-H torsion
[ 11005 11000 10999 10996 ] final   25.27 input  -57.11 | X-H torsion

> <Gold.Protein.ActiveResidues>
 VAL166  LYS551  ARG553  GLY616  TRP617  ASP618  TYR619  PRO620  LYS621  CYS622 
 ASP623  PHE694  ASN695  SER759  ASP760  ASP761  ALA762  ILE779  LEU786  VAL792 
 PHE793  MET794  SER795  GLU796  ALA797  LYS798  CYS799  TRP800  GLU811  SER814 

> <Gold.Protein.RotatedAtoms>
  151.9261  133.3598  159.3914 H   0  0  0  0  0  0  0  0  0  0  0  0  # atno 6907 bound_to 6896
  150.7026  134.4585  159.5379 H   0  0  0  0  0  0  0  0  0  0  0  0  # atno 6908 bound_to 6896
  152.2217  134.8406  160.0536 H   0  0  0  0  0  0  0  0  0  0  0  0  # atno 6909 bound_to 6896
  144.8237  140.5601  143.5561 H   0  0  0  0  0  0  0  0  0  0  0  0  # atno 7974 bound_to 7965
  156.2914  140.2242  156.5013 H   0  0  0  0  0  0  0  0  0  0  0  0  # atno 8008 bound_to 7997
  154.7687  140.0468  157.1055 H   0  0  0  0  0  0  0  0  0  0  0  0  # atno 8009 bound_to 7997
  154.9900  140.3089  155.4913 H   0  0  0  0  0  0  0  0  0  0  0  0  # atno 8010 bound_to 7997
  140.5078  143.2350  151.7644 H   0  0  0  0  0  0  0  0  0  0  0  0  # atno 10167 bound_to 10162
  156.0273  130.4398  150.2770 H   0  0  0  0  0  0  0  0  0  0  0  0  # atno 10718 bound_to 10713
  154.8435  135.3445  154.6318 H   0  0  0  0  0  0  0  0  0  0  0  0  # atno 10763 bound_to 10752
  153.6928  135.6974  153.5090 H   0  0  0  0  0  0  0  0  0  0  0  0  # atno 10764 bound_to 10752
  153.2582  135.4331  155.0822 H   0  0  0  0  0  0  0  0  0  0  0  0  # atno 10765 bound_to 10752
  140.3497  134.2242  155.7681 H   0  0  0  0  0  0  0  0  0  0  0  0  # atno 11005 bound_to 11000
  145.5048  139.1481  143.3637 LP  0  0  0  0  0  0  0  0  0  0  0  0  # atno 17320 bound_to 7965
  146.2542  140.5188  142.8880 LP  0  0  0  0  0  0  0  0  0  0  0  0  # atno 17321 bound_to 7965
  139.4888  144.4432  151.9740 LP  0  0  0  0  0  0  0  0  0  0  0  0  # atno 17342 bound_to 10162
  140.3524  144.3073  150.5947 LP  0  0  0  0  0  0  0  0  0  0  0  0  # atno 17343 bound_to 10162
  157.0873  131.0160  151.3134 LP  0  0  0  0  0  0  0  0  0  0  0  0  # atno 17370 bound_to 10713
  157.4881  130.7805  149.7480 LP  0  0  0  0  0  0  0  0  0  0  0  0  # atno 17371 bound_to 10713
  141.2015  133.7960  157.0435 LP  0  0  0  0  0  0  0  0  0  0  0  0  # atno 17394 bound_to 11000
  140.0713  134.9700  157.1472 LP  0  0  0  0  0  0  0  0  0  0  0  0  # atno 17395 bound_to 11000

$$$$
