AV-unprocessed.smi:943|AV-procd|sdf|4229|dock5
  -GOLD-   22720 2133D 1   1.00000     0.00000
 Structure written by MMmdl.
 43 44  0  0  0  0  0  0  0  0  1 V2000
  151.9121  140.0309  155.4533 C   0  0  0  0  0  0  0  0  0  0  0  0
  150.6630  139.8454  156.3321 C   0  0  2  0  0  0  0  0  0  0  0  0
  150.2797  141.1718  157.0317 C   0  0  0  0  0  0  0  0  0  0  0  0
  151.4259  141.9329  157.7424 C   0  0  0  0  0  0  0  0  0  0  0  0
  151.7884  141.3221  159.1148 C   0  0  0  0  0  0  0  0  0  0  0  0
  152.8923  142.1226  159.8245 C   0  0  0  0  0  0  0  0  0  0  0  0
  152.5072  143.6003  159.9758 C   0  0  0  0  0  0  0  0  0  0  0  0
  152.1670  144.2177  158.6122 C   0  0  0  0  0  0  0  0  0  0  0  0
  151.0576  143.4228  157.9056 C   0  0  0  0  0  0  0  0  0  0  0  0
  150.8896  138.7092  157.3397 C   0  0  0  0  0  0  0  0  0  0  0  0
  152.0318  138.3524  157.6298 O   0  0  0  0  0  0  0  0  0  0  0  0
  149.7905  138.1608  157.8753 N   0  0  0  0  0  0  0  0  0  0  0  0
  149.7988  137.1108  158.8854 C   0  0  0  0  0  0  0  0  0  0  0  0
  148.4377  136.4010  158.9711 C   0  0  0  0  0  0  0  0  0  0  0  0
  148.0971  135.9322  160.3563 C   0  0  0  0  0  0  0  0  0  0  0  0
  147.9419  134.6308  160.7708 C   0  0  0  0  0  0  0  0  0  0  0  0
  147.5491  134.5251  162.4658 S   0  0  0  0  0  0  0  0  0  0  0  0
  147.6104  136.2779  162.5399 C   0  0  0  0  0  0  0  0  0  0  0  0
  147.9022  136.8662  161.3796 N   0  0  0  0  0  0  0  0  0  0  0  0
  152.1988  139.0973  154.9671 H   0  0  0  0  0  0  0  0  0  0  0  0
  152.7663  140.3788  156.0358 H   0  0  0  0  0  0  0  0  0  0  0  0
  151.7296  140.7634  154.6668 H   0  0  0  0  0  0  0  0  0  0  0  0
  149.8493  139.5569  155.6656 H   0  0  0  0  0  0  0  0  0  0  0  0
  149.8240  141.8350  156.2947 H   0  0  0  0  0  0  0  0  0  0  0  0
  149.4943  140.9666  157.7605 H   0  0  0  0  0  0  0  0  0  0  0  0
  152.3154  141.8925  157.1123 H   0  0  0  0  0  0  0  0  0  0  0  0
  150.9010  141.2842  159.7479 H   0  0  0  0  0  0  0  0  0  0  0  0
  152.1290  140.2937  158.9963 H   0  0  0  0  0  0  0  0  0  0  0  0
  153.0934  141.6892  160.8044 H   0  0  0  0  0  0  0  0  0  0  0  0
  153.8192  142.0460  159.2552 H   0  0  0  0  0  0  0  0  0  0  0  0
  151.6499  143.6899  160.6442 H   0  0  0  0  0  0  0  0  0  0  0  0
  153.3238  144.1522  160.4421 H   0  0  0  0  0  0  0  0  0  0  0  0
  151.8561  145.2547  158.7414 H   0  0  0  0  0  0  0  0  0  0  0  0
  153.0599  144.2376  157.9859 H   0  0  0  0  0  0  0  0  0  0  0  0
  150.8623  143.8672  156.9290 H   0  0  0  0  0  0  0  0  0  0  0  0
  150.1312  143.5130  158.4744 H   0  0  0  0  0  0  0  0  0  0  0  0
  148.8901  138.5144  157.5863 H   0  0  0  0  0  0  0  0  0  0  0  0
  150.5826  136.3880  158.6550 H   0  0  0  0  0  0  0  0  0  0  0  0
  150.0444  137.5507  159.8536 H   0  0  0  0  0  0  0  0  0  0  0  0
  147.6620  137.0778  158.6109 H   0  0  0  0  0  0  0  0  0  0  0  0
  148.4324  135.5563  158.2812 H   0  0  0  0  0  0  0  0  0  0  0  0
  148.0358  133.7298  160.1830 H   0  0  0  0  0  0  0  0  0  0  0  0
  147.4317  136.8673  163.4269 H   0  0  0  0  0  0  0  0  0  0  0  0
  1  2  1  0  0  0  0
  1 20  1  0  0  0  0
  1 21  1  0  0  0  0
  1 22  1  0  0  0  0
  2  3  1  0  0  0  0
  2 10  1  0  0  0  0
  2 23  1  0  0  0  0
  3  4  1  0  0  0  0
  3 24  1  0  0  0  0
  3 25  1  0  0  0  0
  4  9  1  0  0  0  0
  4  5  1  0  0  0  0
  4 26  1  0  0  0  0
  5  6  1  0  0  0  0
  5 27  1  0  0  0  0
  5 28  1  0  0  0  0
  6  7  1  0  0  0  0
  6 29  1  0  0  0  0
  6 30  1  0  0  0  0
  7  8  1  0  0  0  0
  7 31  1  0  0  0  0
  7 32  1  0  0  0  0
  8  9  1  0  0  0  0
  8 33  1  0  0  0  0
  8 34  1  0  0  0  0
  9 35  1  0  0  0  0
  9 36  1  0  0  0  0
 10 11  2  0  0  0  0
 10 12  1  0  0  0  0
 12 13  1  0  0  0  0
 12 37  1  0  0  0  0
 13 14  1  0  0  0  0
 13 38  1  0  0  0  0
 13 39  1  0  0  0  0
 14 15  1  0  0  0  0
 14 40  1  0  0  0  0
 14 41  1  0  0  0  0
 15 19  1  0  0  0  0
 15 16  2  0  0  0  0
 16 17  1  0  0  0  0
 16 42  1  0  0  0  0
 17 18  1  0  0  0  0
 18 19  2  0  0  0  0
 18 43  1  0  0  0  0
M  END
> <s_m_source_file>
AV-unprocessed.smi

> <i_m_source_file_index>
943

> <i_lp_mmshare_version>
43012

> <i_f3d_flags>
0

> <s_epik_input>
W0NIMl0xW0NIMl1bQ0gyXVtDSDJdW0NIMl1bQ0hdMVtDSDJdW0NAQEhdKFtDSDNdKUMoPU8pW05IXVtDSDJdW0NIMl1jMltjSF1zW2NIXW4y

> <s_epik_cmdline>
J2VwaWtfcHl0aG9uJywgJy1waCcsICc3LjAnLCAnLXRuJywgJzgnLCAnLW1hJywgJzIwMCcsICctbWV0YWxfYmluZGluZycsICctaW1hZScsICc8aW5maWxlLm1hZT4nLCAnLW9tYWUnLCAnPG91dGZpbGUubWFlPic=

> <r_lp_tautomer_probability>
1

> <r_epik_Ionization_Penalty>
0.000194757

> <r_epik_Ionization_Penalty_Charging>
0

> <r_epik_Ionization_Penalty_Neutral>
0.000194757

> <r_epik_State_Penalty>
-0

> <r_epik_Charging_Adjusted_Penalty>
0

> <i_epik_Tot_Q>
0

> <i_epik_Tot_abs_Q>
0

> <r_epik_Metal_State_Penalty>
-0

> <b_epik_Metal_Only>
0

> <s_lp_Force_Field>
OPLS_2005

> <r_lp_Energy>
6.00362

> <b_lp_Chiralities_Consistent>
1

> <s_lp_Variant>
AV-unprocessed.smi:943-1

> <Gold.Version>
5.8.1

> <Gold.Id.Protein>
6NUR|6NUR_protein|mol2

> <Gold.PLP.Fitness>
47.7772

> <Gold.PLP.PLP>
-44.7213

> <Gold.PLP.part.hbond>
-2.0000

> <Gold.PLP.part.metal>
0.0000

> <Gold.PLP.part.buried>
-3.5397

> <Gold.PLP.part.nonpolar>
-38.8690

> <Gold.PLP.part.repulsive>
0.1030

> <Gold.PLP.ligand.clash>
0.0000

> <Gold.PLP.ligand.torsion>
1.1373

> <Gold.PLP.Chemscore.Hbond>
1.7360

> <Gold.PLP.Chemscore.CHOScore>
0.0000

> <Gold.PLP.Chemscore.Metal>
0.0000

> <Gold.Chemscore.Hbonds>
donor molecule, donor type, donor heavy atom, donor atom, acceptor molecule, acceptor atom, score
      P1  H  6931  6943       L1    19  1.00
      P1  H  6934  6947       L1    19  0.22

> <Gold.PLP.Chemscore.Internal.Correction>
0.1225

> <Gold.Rescore>
     Score         DG    S(hbond)    S(metal)    S(lipo)     H(rot)  DE(clash)    DE(int)     intcor
     17.79     -19.23       1.02        0.00     122.89       1.58       0.22       1.21       ----

> <Gold.Chemscore.Fitness>
17.7945

> <Gold.Chemscore.DG>
-19.2268

> <Gold.Chemscore.ZeroCoef>
-5.4800

> <Gold.Chemscore.Hbond>
1.0213

> <Gold.Chemscore.Metal>
0.0000

> <Gold.Chemscore.Lipo>
122.8850

> <Gold.Chemscore.Internal_Hbond>
0.0000

> <Gold.Chemscore.DEClash>
0.2213

> <Gold.Chemscore.DEInternal>
1.2110

> <Gold.Chemscore.Rot>
1.5789

> <Gold.Chemscore.Internal.Correction>
   9.000000E+99

> <Gold.Chemscore.Hbonds>
donor molecule, donor type, donor heavy atom, donor atom, acceptor molecule, acceptor atom, score
      P1  H  6931  6943       L1    19  0.35
      P1  H  6934  6947       L1    19  0.23

> <Gold.Chemscore.Hbond.Weighted>
-3.4111

> <Gold.Chemscore.Metal.Weighted>
-0.0000

> <Gold.Chemscore.Lipo.Weighted>
-14.3775

> <Gold.Chemscore.Internal_Hbond.Weighted>
0.0000

> <Gold.Chemscore.DEClash.Weighted>
0.2213

> <Gold.Chemscore.DEInternal.Weighted>
1.2110

> <Gold.Chemscore.Rot.Weighted>
4.0419

> <Gold.Chemscore.Internal.Correction.Weighted>
   9.000000E+99

> <Gold.Protein.RotatedTorsions>
[ 6907 6896 6895 6894 ] final   47.82 input  -60.11 | X-H torsion
[ 7974 7965 7964 7962 ] final  -72.08 input  175.53 | X-H torsion
[ 8008 7997 7996 7995 ] final -145.39 input   59.86 | X-H torsion
[ 10167 10162 10161 10158 ] final -115.50 input  -65.29 | X-H torsion
[ 10718 10713 10712 10709 ] final  177.74 input   66.30 | X-H torsion
[ 10763 10752 10751 10750 ] final   71.80 input  -60.55 | X-H torsion
[ 11005 11000 10999 10996 ] final  -60.73 input  -57.11 | X-H torsion

> <Gold.Protein.ActiveResidues>
 VAL166  LYS551  ARG553  GLY616  TRP617  ASP618  TYR619  PRO620  LYS621  CYS622 
 ASP623  PHE694  ASN695  SER759  ASP760  ASP761  ALA762  ILE779  LEU786  VAL792 
 PHE793  MET794  SER795  GLU796  ALA797  LYS798  CYS799  TRP800  GLU811  SER814 

> <Gold.Protein.RotatedAtoms>
  152.2724  134.7918  160.0411 H   0  0  0  0  0  0  0  0  0  0  0  0  # atno 6907 bound_to 6896
  151.8526  133.3437  159.3686 H   0  0  0  0  0  0  0  0  0  0  0  0  # atno 6908 bound_to 6896
  150.7157  134.5212  159.5699 H   0  0  0  0  0  0  0  0  0  0  0  0  # atno 6909 bound_to 6896
  145.6697  140.9225  143.0889 H   0  0  0  0  0  0  0  0  0  0  0  0  # atno 7974 bound_to 7965
  155.5423  140.0609  157.2867 H   0  0  0  0  0  0  0  0  0  0  0  0  # atno 8008 bound_to 7997
  154.4448  140.1917  156.0647 H   0  0  0  0  0  0  0  0  0  0  0  0  # atno 8009 bound_to 7997
  156.0575  140.3276  155.7427 H   0  0  0  0  0  0  0  0  0  0  0  0  # atno 8010 bound_to 7997
  140.0894  143.4714  152.1879 H   0  0  0  0  0  0  0  0  0  0  0  0  # atno 10167 bound_to 10162
  156.9009  130.9878  151.3036 H   0  0  0  0  0  0  0  0  0  0  0  0  # atno 10718 bound_to 10713
  153.0420  135.5123  154.7648 H   0  0  0  0  0  0  0  0  0  0  0  0  # atno 10763 bound_to 10752
  154.6578  135.2934  154.9908 H   0  0  0  0  0  0  0  0  0  0  0  0  # atno 10764 bound_to 10752
  154.0770  135.6669  153.4885 H   0  0  0  0  0  0  0  0  0  0  0  0  # atno 10765 bound_to 10752
  141.1298  133.6624  156.5267 H   0  0  0  0  0  0  0  0  0  0  0  0  # atno 11005 bound_to 11000
  144.7061  139.8556  143.7429 LP  0  0  0  0  0  0  0  0  0  0  0  0  # atno 17320 bound_to 7965
  146.1056  139.4055  143.0320 LP  0  0  0  0  0  0  0  0  0  0  0  0  # atno 17321 bound_to 7965
  139.5733  144.7474  151.3831 LP  0  0  0  0  0  0  0  0  0  0  0  0  # atno 17342 bound_to 10162
  140.7036  143.7569  150.7445 LP  0  0  0  0  0  0  0  0  0  0  0  0  # atno 17343 bound_to 10162
  157.6027  130.8524  149.8827 LP  0  0  0  0  0  0  0  0  0  0  0  0  # atno 17370 bound_to 10713
  156.0582  130.3704  150.1041 LP  0  0  0  0  0  0  0  0  0  0  0  0  # atno 17371 bound_to 10713
  140.4249  134.7154  157.4910 LP  0  0  0  0  0  0  0  0  0  0  0  0  # atno 17394 bound_to 11000
  140.0334  134.6372  155.9075 LP  0  0  0  0  0  0  0  0  0  0  0  0  # atno 17395 bound_to 11000

$$$$
