AV-unprocessed.smi:427|AV-procd|sdf|2543|dock2
  -GOLD-   2262022503D 1   1.00000     0.00000
 Structure written by MMmdl.
 51 52  0  0  0  0  0  0  0  0  1 V2000
  148.0932  140.9093  157.5214 C   0  0  0  0  0  0  0  0  0  0  0  0
  149.4984  141.1891  158.0216 C   0  0  0  0  0  0  0  0  0  0  0  0
  149.9133  142.5217  158.2264 C   0  0  0  0  0  0  0  0  0  0  0  0
  151.2180  142.8180  158.6900 C   0  0  0  0  0  0  0  0  0  0  0  0
  151.7037  144.2613  158.9260 C   0  0  0  0  0  0  0  0  0  0  0  0
  152.8805  144.5732  157.9781 C   0  0  0  0  0  0  0  0  0  0  0  0
  152.1899  144.5066  160.3727 C   0  0  0  0  0  0  0  0  0  0  0  0
  150.5514  145.2489  158.6469 C   0  0  0  0  0  0  0  0  0  0  0  0
  152.0941  141.7376  158.9416 C   0  0  0  0  0  0  0  0  0  0  0  0
  151.6861  140.4064  158.7395 C   0  0  0  0  0  0  0  0  0  0  0  0
  150.3803  140.1164  158.2765 C   0  0  0  0  0  0  0  0  0  0  0  0
  149.9089  138.8394  158.0562 O   0  0  0  0  0  0  0  0  0  0  0  0
  150.8470  137.7972  157.8183 C   0  0  0  0  0  0  0  0  0  0  0  0
  150.7056  136.7165  158.9028 C   0  0  1  0  0  0  0  0  0  0  0  0
  151.5547  137.0710  159.9756 O   0  0  0  0  0  0  0  0  0  0  0  0
  149.2513  136.5491  159.3968 C   0  0  0  0  0  0  0  0  0  0  0  0
  149.1214  135.6040  160.4930 N   0  0  0  0  0  0  0  0  0  0  0  0
  148.5562  136.0677  161.7070 C   0  0  0  0  0  0  0  0  0  0  0  0
  148.1778  137.2304  161.8541 O   0  0  0  0  0  0  0  0  0  0  0  0
  148.4738  135.0659  162.7644 C   0  0  0  0  0  0  0  0  0  0  0  0
  148.9238  133.8079  162.5659 C   0  0  0  0  0  0  0  0  0  0  0  0
  149.4851  133.3928  161.3743 N   0  0  0  0  0  0  0  0  0  0  0  0
  149.9679  132.0568  161.1744 C   0  0  0  0  0  0  0  0  0  0  0  0
  149.6090  134.2906  160.2916 C   0  0  0  0  0  0  0  0  0  0  0  0
  150.1271  133.9420  159.2268 O   0  0  0  0  0  0  0  0  0  0  0  0
  147.5244  141.8292  157.3837 H   0  0  0  0  0  0  0  0  0  0  0  0
  147.5556  140.2825  158.2333 H   0  0  0  0  0  0  0  0  0  0  0  0
  148.1298  140.3874  156.5648 H   0  0  0  0  0  0  0  0  0  0  0  0
  149.2044  143.3072  158.0180 H   0  0  0  0  0  0  0  0  0  0  0  0
  153.2591  145.5836  158.1358 H   0  0  0  0  0  0  0  0  0  0  0  0
  152.5941  144.5009  156.9288 H   0  0  0  0  0  0  0  0  0  0  0  0
  153.7103  143.8842  158.1395 H   0  0  0  0  0  0  0  0  0  0  0  0
  153.0312  143.8622  160.6307 H   0  0  0  0  0  0  0  0  0  0  0  0
  151.3956  144.3356  161.1003 H   0  0  0  0  0  0  0  0  0  0  0  0
  152.5264  145.5353  160.5069 H   0  0  0  0  0  0  0  0  0  0  0  0
  150.8606  146.2795  158.8255 H   0  0  0  0  0  0  0  0  0  0  0  0
  149.6950  145.0481  159.2917 H   0  0  0  0  0  0  0  0  0  0  0  0
  150.2046  145.1955  157.6149 H   0  0  0  0  0  0  0  0  0  0  0  0
  153.0974  141.9205  159.2958 H   0  0  0  0  0  0  0  0  0  0  0  0
  152.3983  139.6232  158.9492 H   0  0  0  0  0  0  0  0  0  0  0  0
  150.6353  137.3458  156.8477 H   0  0  0  0  0  0  0  0  0  0  0  0
  151.8683  138.1815  157.7906 H   0  0  0  0  0  0  0  0  0  0  0  0
  151.0762  135.7772  158.4903 H   0  0  0  0  0  0  0  0  0  0  0  0
  151.0242  137.2110  160.7451 H   0  0  0  0  0  0  0  0  0  0  0  0
  148.7970  137.4970  159.6905 H   0  0  0  0  0  0  0  0  0  0  0  0
  148.6058  136.1811  158.5973 H   0  0  0  0  0  0  0  0  0  0  0  0
  148.0478  135.3365  163.7194 H   0  0  0  0  0  0  0  0  0  0  0  0
  148.8422  133.1007  163.3784 H   0  0  0  0  0  0  0  0  0  0  0  0
  149.3954  131.6197  160.3546 H   0  0  0  0  0  0  0  0  0  0  0  0
  149.8066  131.4988  162.0972 H   0  0  0  0  0  0  0  0  0  0  0  0
  151.0329  132.1218  160.9454 H   0  0  0  0  0  0  0  0  0  0  0  0
  1  2  1  0  0  0  0
  1 26  1  0  0  0  0
  1 27  1  0  0  0  0
  1 28  1  0  0  0  0
  2 11  1  0  0  0  0
  2  3  2  0  0  0  0
  3  4  1  0  0  0  0
  3 29  1  0  0  0  0
  4  5  1  0  0  0  0
  4  9  2  0  0  0  0
  5  6  1  0  0  0  0
  5  7  1  0  0  0  0
  5  8  1  0  0  0  0
  6 30  1  0  0  0  0
  6 31  1  0  0  0  0
  6 32  1  0  0  0  0
  7 33  1  0  0  0  0
  7 34  1  0  0  0  0
  7 35  1  0  0  0  0
  8 36  1  0  0  0  0
  8 37  1  0  0  0  0
  8 38  1  0  0  0  0
  9 10  1  0  0  0  0
  9 39  1  0  0  0  0
 10 11  2  0  0  0  0
 10 40  1  0  0  0  0
 11 12  1  0  0  0  0
 12 13  1  0  0  0  0
 13 14  1  0  0  0  0
 13 41  1  0  0  0  0
 13 42  1  0  0  0  0
 14 15  1  0  0  0  0
 14 16  1  0  0  0  0
 14 43  1  0  0  0  0
 15 44  1  0  0  0  0
 16 17  1  0  0  0  0
 16 45  1  0  0  0  0
 16 46  1  0  0  0  0
 17 24  1  0  0  0  0
 17 18  1  0  0  0  0
 18 19  2  0  0  0  0
 18 20  1  0  0  0  0
 20 21  2  0  0  0  0
 20 47  1  0  0  0  0
 21 22  1  0  0  0  0
 21 48  1  0  0  0  0
 22 23  1  0  0  0  0
 22 24  1  0  0  0  0
 23 49  1  0  0  0  0
 23 50  1  0  0  0  0
 23 51  1  0  0  0  0
 24 25  2  0  0  0  0
M  END
> <s_m_source_file>
AV-unprocessed.smi

> <i_m_source_file_index>
427

> <i_lp_mmshare_version>
43012

> <i_f3d_flags>
0

> <s_epik_input>
W0NIM11jMVtjSF1jKEMoW0NIM10pKFtDSDNdKVtDSDNdKVtjSF1bY0hdYzFPW0NIMl1bQ0BIXShbT0hdKVtDSDJdbjJjKD1PKVtjSF1bY0hdbihbQ0gzXSljMj1P

> <s_epik_cmdline>
J2VwaWtfcHl0aG9uJywgJy1waCcsICc3LjAnLCAnLXRuJywgJzgnLCAnLW1hJywgJzIwMCcsICctbWV0YWxfYmluZGluZycsICctaW1hZScsICc8aW5maWxlLm1hZT4nLCAnLW9tYWUnLCAnPG91dGZpbGUubWFlPic=

> <r_lp_tautomer_probability>
1

> <r_epik_Ionization_Penalty>
2.02112e-07

> <r_epik_Ionization_Penalty_Charging>
8.49383e-08

> <r_epik_Ionization_Penalty_Neutral>
1.17174e-07

> <r_epik_State_Penalty>
-0

> <r_epik_Charging_Adjusted_Penalty>
8.49383e-08

> <i_epik_Tot_Q>
0

> <i_epik_Tot_abs_Q>
0

> <r_epik_Metal_State_Penalty>
-0

> <b_epik_Metal_Only>
0

> <s_lp_Force_Field>
OPLS_2005

> <r_lp_Energy>
28.8364

> <b_lp_Chiralities_Consistent>
1

> <s_lp_Variant>
AV-unprocessed.smi:427-2

> <Gold.Version>
5.8.1

> <Gold.Id.Protein>
6NUR|6NUR_protein|mol2

> <Gold.PLP.Fitness>
55.3751

> <Gold.PLP.PLP>
-47.0671

> <Gold.PLP.part.hbond>
-4.0000

> <Gold.PLP.part.metal>
0.0000

> <Gold.PLP.part.buried>
-5.5706

> <Gold.PLP.part.nonpolar>
-35.7258

> <Gold.PLP.part.repulsive>
0.0000

> <Gold.PLP.ligand.clash>
0.0000

> <Gold.PLP.ligand.torsion>
1.0748

> <Gold.PLP.Chemscore.Hbond>
3.4728

> <Gold.PLP.Chemscore.CHOScore>
0.0000

> <Gold.PLP.Chemscore.Metal>
0.0000

> <Gold.Chemscore.Hbonds>
donor molecule, donor type, donor heavy atom, donor atom, acceptor molecule, acceptor atom, score
      P1  H  6931  6943       L1    19  0.49
      P1  H  6934  6947       L1    19  0.23

> <Gold.PLP.Chemscore.Internal.Correction>
0.0393

> <Gold.Rescore>
     Score         DG    S(hbond)    S(metal)    S(lipo)     H(rot)  DE(clash)    DE(int)     intcor
     17.55     -19.76       2.18        0.00     114.35       2.49       0.10       2.11       ----

> <Gold.Chemscore.Fitness>
17.5542

> <Gold.Chemscore.DG>
-19.7608

> <Gold.Chemscore.ZeroCoef>
-5.4800

> <Gold.Chemscore.Hbond>
2.1781

> <Gold.Chemscore.Metal>
0.0000

> <Gold.Chemscore.Lipo>
114.3484

> <Gold.Chemscore.Internal_Hbond>
0.0000

> <Gold.Chemscore.DEClash>
0.0985

> <Gold.Chemscore.DEInternal>
2.1082

> <Gold.Chemscore.Rot>
2.4894

> <Gold.Chemscore.Internal.Correction>
   9.000000E+99

> <Gold.Chemscore.Hbonds>
donor molecule, donor type, donor heavy atom, donor atom, acceptor molecule, acceptor atom, score
      P1  H  6931  6943       L1    19  0.49
      P1  H  6934  6947       L1    19  0.24

> <Gold.Chemscore.Hbond.Weighted>
-7.2748

> <Gold.Chemscore.Metal.Weighted>
-0.0000

> <Gold.Chemscore.Lipo.Weighted>
-13.3788

> <Gold.Chemscore.Internal_Hbond.Weighted>
0.0000

> <Gold.Chemscore.DEClash.Weighted>
0.0985

> <Gold.Chemscore.DEInternal.Weighted>
2.1082

> <Gold.Chemscore.Rot.Weighted>
6.3728

> <Gold.Chemscore.Internal.Correction.Weighted>
   9.000000E+99

> <Gold.Protein.RotatedTorsions>
[ 6907 6896 6895 6894 ] final    1.82 input  -60.11 | X-H torsion
[ 7974 7965 7964 7962 ] final  -74.79 input  175.53 | X-H torsion
[ 8008 7997 7996 7995 ] final   91.75 input   59.86 | X-H torsion
[ 10167 10162 10161 10158 ] final  -88.45 input  -65.29 | X-H torsion
[ 10718 10713 10712 10709 ] final   -0.23 input   66.30 | X-H torsion
[ 10763 10752 10751 10750 ] final   -6.39 input  -60.55 | X-H torsion
[ 11005 11000 10999 10996 ] final  105.33 input  -57.11 | X-H torsion

> <Gold.Protein.ActiveResidues>
 VAL166  LYS551  ARG553  GLY616  TRP617  ASP618  TYR619  PRO620  LYS621  CYS622 
 ASP623  PHE694  ASN695  SER759  ASP760  ASP761  ALA762  ILE779  LEU786  VAL792 
 PHE793  MET794  SER795  GLU796  ALA797  LYS798  CYS799  TRP800  GLU811  SER814 

> <Gold.Protein.RotatedAtoms>
  151.5988  135.1048  160.0055 H   0  0  0  0  0  0  0  0  0  0  0  0  # atno 6907 bound_to 6896
  152.4268  133.7205  159.6541 H   0  0  0  0  0  0  0  0  0  0  0  0  # atno 6908 bound_to 6896
  150.8158  133.8268  159.3183 H   0  0  0  0  0  0  0  0  0  0  0  0  # atno 6909 bound_to 6896
  145.6345  140.9328  143.1069 H   0  0  0  0  0  0  0  0  0  0  0  0  # atno 7974 bound_to 7965
  156.0274  140.3334  155.7103 H   0  0  0  0  0  0  0  0  0  0  0  0  # atno 8008 bound_to 7997
  155.5934  140.0648  157.2770 H   0  0  0  0  0  0  0  0  0  0  0  0  # atno 8009 bound_to 7997
  154.4340  140.1823  156.1086 H   0  0  0  0  0  0  0  0  0  0  0  0  # atno 8010 bound_to 7997
  140.3745  143.2778  151.9459 H   0  0  0  0  0  0  0  0  0  0  0  0  # atno 10167 bound_to 10162
  156.8235  130.5464  149.5694 H   0  0  0  0  0  0  0  0  0  0  0  0  # atno 10718 bound_to 10713
  153.4117  135.7008  153.6354 H   0  0  0  0  0  0  0  0  0  0  0  0  # atno 10763 bound_to 10752
  153.4846  135.3686  155.2460 H   0  0  0  0  0  0  0  0  0  0  0  0  # atno 10764 bound_to 10752
  154.8717  135.4074  154.3470 H   0  0  0  0  0  0  0  0  0  0  0  0  # atno 10765 bound_to 10752
  139.8801  134.9332  156.5497 H   0  0  0  0  0  0  0  0  0  0  0  0  # atno 11005 bound_to 11000
  144.7181  139.8126  143.7392 LP  0  0  0  0  0  0  0  0  0  0  0  0  # atno 17320 bound_to 7965
  146.1330  139.4369  143.0157 LP  0  0  0  0  0  0  0  0  0  0  0  0  # atno 17321 bound_to 7965
  139.4800  144.5876  151.7827 LP  0  0  0  0  0  0  0  0  0  0  0  0  # atno 17342 bound_to 10162
  140.5000  144.1184  150.5969 LP  0  0  0  0  0  0  0  0  0  0  0  0  # atno 17343 bound_to 10162
  156.0975  130.5943  150.9838 LP  0  0  0  0  0  0  0  0  0  0  0  0  # atno 17370 bound_to 10713
  157.6444  131.0906  150.8183 LP  0  0  0  0  0  0  0  0  0  0  0  0  # atno 17371 bound_to 10713
  140.8249  133.8325  155.8929 LP  0  0  0  0  0  0  0  0  0  0  0  0  # atno 17394 bound_to 11000
  140.9384  134.1933  157.4815 LP  0  0  0  0  0  0  0  0  0  0  0  0  # atno 17395 bound_to 11000

$$$$
