AV-unprocessed.smi:463|AV-procd|sdf|2634|dock4
  -GOLD-   2262023 43D 1   1.00000     0.00000
 Structure written by MMmdl.
 42 44  0  0  0  0  0  0  0  0  1 V2000
  144.9297  144.9380  153.0511 C   0  0  0  0  0  0  0  0  0  0  0  0
  145.4045  143.9591  154.1049 C   0  0  0  0  0  0  0  0  0  0  0  0
  144.8628  143.9984  155.4049 C   0  0  0  0  0  0  0  0  0  0  0  0
  145.3125  143.0905  156.3813 C   0  0  0  0  0  0  0  0  0  0  0  0
  146.3039  142.1417  156.0637 C   0  0  0  0  0  0  0  0  0  0  0  0
  146.8553  142.0919  154.7587 C   0  0  0  0  0  0  0  0  0  0  0  0
  147.8247  141.1981  154.3601 O   0  0  0  0  0  0  0  0  0  0  0  0
  148.7482  140.7234  155.3306 C   0  0  0  0  0  0  0  0  0  0  0  0
  149.8593  141.7638  155.5262 C   0  0  0  0  0  0  0  0  0  0  0  0
  150.8822  141.2961  156.4511 N   0  0  0  0  0  0  0  0  0  0  0  0
  151.5107  140.0925  156.4917 C   0  0  0  0  0  0  0  0  0  0  0  0
  151.2307  138.9904  155.5109 C   0  0  0  0  0  0  0  0  0  0  0  0
  152.4722  138.5476  154.7205 C   0  0  0  0  0  0  0  0  0  0  0  0
  152.1684  137.4706  153.8592 O   0  0  0  0  0  0  0  0  0  0  0  0
  152.4121  139.9439  157.4640 N   0  0  0  0  0  0  0  0  0  0  0  0
  152.3579  141.1578  158.1200 C   0  0  0  0  0  0  0  0  0  0  0  0
  153.0718  141.6267  159.2462 C   0  0  0  0  0  0  0  0  0  0  0  0
  152.8417  142.9248  159.7474 C   0  0  0  0  0  0  0  0  0  0  0  0
  151.8967  143.7705  159.1313 C   0  0  0  0  0  0  0  0  0  0  0  0
  151.1756  143.3232  158.0076 C   0  0  0  0  0  0  0  0  0  0  0  0
  151.4095  142.0269  157.5110 C   0  0  0  0  0  0  0  0  0  0  0  0
  146.3962  143.0079  153.7900 C   0  0  0  0  0  0  0  0  0  0  0  0
  143.9049  145.2555  153.2460 H   0  0  0  0  0  0  0  0  0  0  0  0
  144.9600  144.4849  152.0598 H   0  0  0  0  0  0  0  0  0  0  0  0
  145.5680  145.8216  153.0446 H   0  0  0  0  0  0  0  0  0  0  0  0
  144.1033  144.7237  155.6572 H   0  0  0  0  0  0  0  0  0  0  0  0
  144.8969  143.1218  157.3776 H   0  0  0  0  0  0  0  0  0  0  0  0
  146.6238  141.4627  156.8390 H   0  0  0  0  0  0  0  0  0  0  0  0
  148.2396  140.5483  156.2796 H   0  0  0  0  0  0  0  0  0  0  0  0
  149.1892  139.7800  155.0044 H   0  0  0  0  0  0  0  0  0  0  0  0
  150.3127  142.0242  154.5709 H   0  0  0  0  0  0  0  0  0  0  0  0
  149.4362  142.6884  155.9197 H   0  0  0  0  0  0  0  0  0  0  0  0
  150.8588  138.1365  156.0782 H   0  0  0  0  0  0  0  0  0  0  0  0
  150.4185  139.2626  154.8379 H   0  0  0  0  0  0  0  0  0  0  0  0
  152.8902  139.3764  154.1484 H   0  0  0  0  0  0  0  0  0  0  0  0
  153.2461  138.2116  155.4110 H   0  0  0  0  0  0  0  0  0  0  0  0
  152.3142  137.7484  152.9676 H   0  0  0  0  0  0  0  0  0  0  0  0
  153.7964  140.9857  159.7262 H   0  0  0  0  0  0  0  0  0  0  0  0
  153.3922  143.2727  160.6093 H   0  0  0  0  0  0  0  0  0  0  0  0
  151.7253  144.7629  159.5219 H   0  0  0  0  0  0  0  0  0  0  0  0
  150.4503  143.9679  157.5339 H   0  0  0  0  0  0  0  0  0  0  0  0
  146.8133  142.9778  152.7939 H   0  0  0  0  0  0  0  0  0  0  0  0
  1  2  1  0  0  0  0
  1 23  1  0  0  0  0
  1 24  1  0  0  0  0
  1 25  1  0  0  0  0
  2 22  1  0  0  0  0
  2  3  2  0  0  0  0
  3  4  1  0  0  0  0
  3 26  1  0  0  0  0
  4  5  2  0  0  0  0
  4 27  1  0  0  0  0
  5  6  1  0  0  0  0
  5 28  1  0  0  0  0
  6  7  1  0  0  0  0
  6 22  2  0  0  0  0
  7  8  1  0  0  0  0
  8  9  1  0  0  0  0
  8 29  1  0  0  0  0
  8 30  1  0  0  0  0
  9 10  1  0  0  0  0
  9 31  1  0  0  0  0
  9 32  1  0  0  0  0
 10 21  1  0  0  0  0
 10 11  1  0  0  0  0
 11 12  1  0  0  0  0
 11 15  2  0  0  0  0
 12 13  1  0  0  0  0
 12 33  1  0  0  0  0
 12 34  1  0  0  0  0
 13 14  1  0  0  0  0
 13 35  1  0  0  0  0
 13 36  1  0  0  0  0
 14 37  1  0  0  0  0
 15 16  1  0  0  0  0
 16 21  2  0  0  0  0
 16 17  1  0  0  0  0
 17 18  2  0  0  0  0
 17 38  1  0  0  0  0
 18 19  1  0  0  0  0
 18 39  1  0  0  0  0
 19 20  2  0  0  0  0
 19 40  1  0  0  0  0
 20 21  1  0  0  0  0
 20 41  1  0  0  0  0
 22 42  1  0  0  0  0
M  END
> <s_m_source_file>
AV-unprocessed.smi

> <i_m_source_file_index>
463

> <i_lp_mmshare_version>
43012

> <i_f3d_flags>
0

> <s_epik_input>
W0NIM11jMVtjSF1bY0hdW2NIXWMoW2NIXTEpT1tDSDJdW0NIMl1uKGMobjIpW0NIMl1bQ0gyXVtPSF0pYyhjMjMpW2NIXVtjSF1bY0hdW2NIXTM=

> <s_epik_cmdline>
J2VwaWtfcHl0aG9uJywgJy1waCcsICc3LjAnLCAnLXRuJywgJzgnLCAnLW1hJywgJzIwMCcsICctbWV0YWxfYmluZGluZycsICctaW1hZScsICc8aW5maWxlLm1hZT4nLCAnLW9tYWUnLCAnPG91dGZpbGUubWFlPic=

> <r_lp_tautomer_probability>
1

> <r_epik_Ionization_Penalty>
0.206757

> <r_epik_Ionization_Penalty_Charging>
0

> <r_epik_Ionization_Penalty_Neutral>
0.206757

> <r_epik_State_Penalty>
0.196743

> <r_epik_Charging_Adjusted_Penalty>
0.196743

> <i_epik_Tot_Q>
0

> <i_epik_Tot_abs_Q>
0

> <r_epik_Metal_State_Penalty>
0.000233299

> <b_epik_Metal_Only>
0

> <s_lp_Force_Field>
OPLS_2005

> <r_lp_Energy>
15.5684

> <b_lp_Chiralities_Consistent>
1

> <s_lp_Variant>
AV-unprocessed.smi:463-1

> <Gold.Version>
5.8.1

> <Gold.Id.Protein>
6NUR|6NUR_protein|mol2

> <Gold.PLP.Fitness>
55.2133

> <Gold.PLP.PLP>
-50.9055

> <Gold.PLP.part.hbond>
-3.0000

> <Gold.PLP.part.metal>
0.0000

> <Gold.PLP.part.buried>
-6.3845

> <Gold.PLP.part.nonpolar>
-40.7143

> <Gold.PLP.part.repulsive>
0.1400

> <Gold.PLP.ligand.clash>
0.0000

> <Gold.PLP.ligand.torsion>
0.6343

> <Gold.PLP.Chemscore.Hbond>
1.8230

> <Gold.PLP.Chemscore.CHOScore>
0.0000

> <Gold.PLP.Chemscore.Metal>
0.0000

> <Gold.Chemscore.Hbonds>
donor molecule, donor type, donor heavy atom, donor atom, acceptor molecule, acceptor atom, score
      P1  H  7997  8010       L1    15  0.71
      P1  H 10752 10765       L1    14  0.90

> <Gold.PLP.Chemscore.Internal.Correction>
0.1073

> <Gold.Rescore>
     Score         DG    S(hbond)    S(metal)    S(lipo)     H(rot)  DE(clash)    DE(int)     intcor
     16.26     -17.08       1.06        0.00     118.64       2.28       0.37       0.45       ----

> <Gold.Chemscore.Fitness>
16.2627

> <Gold.Chemscore.DG>
-17.0750

> <Gold.Chemscore.ZeroCoef>
-5.4800

> <Gold.Chemscore.Hbond>
1.0649

> <Gold.Chemscore.Metal>
0.0000

> <Gold.Chemscore.Lipo>
118.6367

> <Gold.Chemscore.Internal_Hbond>
0.0000

> <Gold.Chemscore.DEClash>
0.3656

> <Gold.Chemscore.DEInternal>
0.4467

> <Gold.Chemscore.Rot>
2.2821

> <Gold.Chemscore.Internal.Correction>
   9.000000E+99

> <Gold.Chemscore.Hbonds>
donor molecule, donor type, donor heavy atom, donor atom, acceptor molecule, acceptor atom, score
      P1  H  7997  8010       L1    15  0.11
      P1  H 10752 10765       L1    14  0.30

> <Gold.Chemscore.Hbond.Weighted>
-3.5566

> <Gold.Chemscore.Metal.Weighted>
-0.0000

> <Gold.Chemscore.Lipo.Weighted>
-13.8805

> <Gold.Chemscore.Internal_Hbond.Weighted>
0.0000

> <Gold.Chemscore.DEClash.Weighted>
0.3656

> <Gold.Chemscore.DEInternal.Weighted>
0.4467

> <Gold.Chemscore.Rot.Weighted>
5.8421

> <Gold.Chemscore.Internal.Correction.Weighted>
   9.000000E+99

> <Gold.Protein.RotatedTorsions>
[ 6907 6896 6895 6894 ] final    0.49 input  -60.11 | X-H torsion
[ 7974 7965 7964 7962 ] final  -64.61 input  175.53 | X-H torsion
[ 8008 7997 7996 7995 ] final   60.95 input   59.86 | X-H torsion
[ 10167 10162 10161 10158 ] final -136.05 input  -65.29 | X-H torsion
[ 10718 10713 10712 10709 ] final  -54.46 input   66.30 | X-H torsion
[ 10763 10752 10751 10750 ] final  136.81 input  -60.55 | X-H torsion
[ 11005 11000 10999 10996 ] final  -50.91 input  -57.11 | X-H torsion

> <Gold.Protein.ActiveResidues>
 VAL166  LYS551  ARG553  GLY616  TRP617  ASP618  TYR619  PRO620  LYS621  CYS622 
 ASP623  PHE694  ASN695  SER759  ASP760  ASP761  ALA762  ILE779  LEU786  VAL792 
 PHE793  MET794  SER795  GLU796  ALA797  LYS798  CYS799  TRP800  GLU811  SER814 

> <Gold.Protein.RotatedAtoms>
  151.5772  135.1060  160.0008 H   0  0  0  0  0  0  0  0  0  0  0  0  # atno 6907 bound_to 6896
  152.4372  133.7377  159.6634 H   0  0  0  0  0  0  0  0  0  0  0  0  # atno 6908 bound_to 6896
  150.8271  133.8083  159.3137 H   0  0  0  0  0  0  0  0  0  0  0  0  # atno 6909 bound_to 6896
  145.7645  140.8844  143.0412 H   0  0  0  0  0  0  0  0  0  0  0  0  # atno 7974 bound_to 7965
  155.5905  140.3492  155.4565 H   0  0  0  0  0  0  0  0  0  0  0  0  # atno 8008 bound_to 7997
  156.0305  140.1273  157.0288 H   0  0  0  0  0  0  0  0  0  0  0  0  # atno 8009 bound_to 7997
  154.4350  140.1044  156.6078 H   0  0  0  0  0  0  0  0  0  0  0  0  # atno 8010 bound_to 7997
  139.8717  143.6949  152.2639 H   0  0  0  0  0  0  0  0  0  0  0  0  # atno 10167 bound_to 10162
  156.1449  130.4153  150.0041 H   0  0  0  0  0  0  0  0  0  0  0  0  # atno 10718 bound_to 10713
  153.8626  135.3065  155.3438 H   0  0  0  0  0  0  0  0  0  0  0  0  # atno 10763 bound_to 10752
  154.7842  135.4819  153.9912 H   0  0  0  0  0  0  0  0  0  0  0  0  # atno 10764 bound_to 10752
  153.1453  135.6832  153.9059 H   0  0  0  0  0  0  0  0  0  0  0  0  # atno 10765 bound_to 10752
  141.0842  133.6646  156.3800 H   0  0  0  0  0  0  0  0  0  0  0  0  # atno 11005 bound_to 11000
  144.6824  139.9769  143.7483 LP  0  0  0  0  0  0  0  0  0  0  0  0  # atno 17320 bound_to 7965
  146.0231  139.3268  143.0801 LP  0  0  0  0  0  0  0  0  0  0  0  0  # atno 17321 bound_to 7965
  139.7278  144.7589  151.0851 LP  0  0  0  0  0  0  0  0  0  0  0  0  # atno 17342 bound_to 10162
  140.7759  143.5126  150.9634 LP  0  0  0  0  0  0  0  0  0  0  0  0  # atno 17343 bound_to 10162
  156.7916  130.9258  151.3646 LP  0  0  0  0  0  0  0  0  0  0  0  0  # atno 17370 bound_to 10713
  157.6608  130.8964  149.9825 LP  0  0  0  0  0  0  0  0  0  0  0  0  # atno 17371 bound_to 10713
  140.5400  134.6129  157.5377 LP  0  0  0  0  0  0  0  0  0  0  0  0  # atno 17394 bound_to 11000
  139.9659  134.7374  156.0140 LP  0  0  0  0  0  0  0  0  0  0  0  0  # atno 17395 bound_to 11000

$$$$
