AV-unprocessed.smi:2961|AV-procd|sdf|11313|dock9
  -GOLD-   2272016213D 1   1.00000     0.00000
 Structure written by MMmdl.
 48 50  0  0  0  0  0  0  0  0  1 V2000
  148.2974  133.3015  153.0394 C   0  0  0  0  0  0  0  0  0  0  0  0
  148.9204  133.5783  154.4034 C   0  0  0  0  0  0  0  0  0  0  0  0
  148.9427  132.6976  155.2629 O   0  0  0  0  0  0  0  0  0  0  0  0
  149.4250  134.8077  154.5877 N   0  0  0  0  0  0  0  0  0  0  0  0
  150.0706  135.2682  155.8114 C   0  0  0  0  0  0  0  0  0  0  0  0
  150.8943  136.5447  155.5739 C   0  0  0  0  0  0  0  0  0  0  0  0
  150.0416  137.7084  155.1703 C   0  0  0  0  0  0  0  0  0  0  0  0
  148.7907  137.5494  154.7368 N   0  0  0  0  0  0  0  0  0  0  0  0
  148.3975  138.8451  154.4635 C   0  0  0  0  0  0  0  0  0  0  0  0
  147.1704  139.3487  153.9757 C   0  0  0  0  0  0  0  0  0  0  0  0
  146.9983  140.7334  153.7702 C   0  0  0  0  0  0  0  0  0  0  0  0
  148.0480  141.6324  154.0497 C   0  0  0  0  0  0  0  0  0  0  0  0
  149.2791  141.1517  154.5359 C   0  0  0  0  0  0  0  0  0  0  0  0
  149.4462  139.7687  154.7378 C   0  0  0  0  0  0  0  0  0  0  0  0
  150.5032  138.9841  155.1877 N   0  0  0  0  0  0  0  0  0  0  0  0
  151.8185  139.4613  155.5862 C   0  0  0  0  0  0  0  0  0  0  0  0
  151.7297  140.5193  156.6924 C   0  0  0  0  0  0  0  0  0  0  0  0
  152.5543  140.1053  157.7723 O   0  0  0  0  0  0  0  0  0  0  0  0
  152.7049  140.9582  158.8447 C   0  0  0  0  0  0  0  0  0  0  0  0
  153.3179  140.4296  159.9991 C   0  0  0  0  0  0  0  0  0  0  0  0
  153.5106  141.2278  161.1425 C   0  0  0  0  0  0  0  0  0  0  0  0
  153.0905  142.5704  161.1423 C   0  0  0  0  0  0  0  0  0  0  0  0
  152.4760  143.1151  159.9972 C   0  0  0  0  0  0  0  0  0  0  0  0
  152.0245  144.5613  159.9913 C   0  0  0  0  0  0  0  0  0  0  0  0
  152.2862  142.3131  158.8523 C   0  0  0  0  0  0  0  0  0  0  0  0
  147.5839  134.0833  152.7769 H   0  0  0  0  0  0  0  0  0  0  0  0
  147.7709  132.3465  153.0408 H   0  0  0  0  0  0  0  0  0  0  0  0
  149.0698  133.2650  152.2708 H   0  0  0  0  0  0  0  0  0  0  0  0
  149.3621  135.4683  153.8264 H   0  0  0  0  0  0  0  0  0  0  0  0
  149.3181  135.4335  156.5840 H   0  0  0  0  0  0  0  0  0  0  0  0
  150.7184  134.4713  156.1776 H   0  0  0  0  0  0  0  0  0  0  0  0
  151.4300  136.8086  156.4867 H   0  0  0  0  0  0  0  0  0  0  0  0
  151.6618  136.3774  154.8187 H   0  0  0  0  0  0  0  0  0  0  0  0
  146.3601  138.6681  153.7589 H   0  0  0  0  0  0  0  0  0  0  0  0
  146.0562  141.1070  153.3965 H   0  0  0  0  0  0  0  0  0  0  0  0
  147.9082  142.6915  153.8899 H   0  0  0  0  0  0  0  0  0  0  0  0
  150.0845  141.8381  154.7505 H   0  0  0  0  0  0  0  0  0  0  0  0
  152.4264  138.6173  155.9121 H   0  0  0  0  0  0  0  0  0  0  0  0
  152.3186  139.8767  154.7108 H   0  0  0  0  0  0  0  0  0  0  0  0
  152.0637  141.4854  156.3102 H   0  0  0  0  0  0  0  0  0  0  0  0
  150.6961  140.6225  157.0255 H   0  0  0  0  0  0  0  0  0  0  0  0
  153.6428  139.3994  160.0085 H   0  0  0  0  0  0  0  0  0  0  0  0
  153.9805  140.8094  162.0202 H   0  0  0  0  0  0  0  0  0  0  0  0
  153.2414  143.1783  162.0224 H   0  0  0  0  0  0  0  0  0  0  0  0
  151.0823  144.6682  159.4527 H   0  0  0  0  0  0  0  0  0  0  0  0
  152.7726  145.1870  159.5040 H   0  0  0  0  0  0  0  0  0  0  0  0
  151.8757  144.9307  161.0064 H   0  0  0  0  0  0  0  0  0  0  0  0
  151.8173  142.7597  157.9884 H   0  0  0  0  0  0  0  0  0  0  0  0
  1  2  1  0  0  0  0
  1 26  1  0  0  0  0
  1 27  1  0  0  0  0
  1 28  1  0  0  0  0
  2  3  2  0  0  0  0
  2  4  1  0  0  0  0
  4  5  1  0  0  0  0
  4 29  1  0  0  0  0
  5  6  1  0  0  0  0
  5 30  1  0  0  0  0
  5 31  1  0  0  0  0
  6  7  1  0  0  0  0
  6 32  1  0  0  0  0
  6 33  1  0  0  0  0
  7 15  1  0  0  0  0
  7  8  2  0  0  0  0
  8  9  1  0  0  0  0
  9 14  2  0  0  0  0
  9 10  1  0  0  0  0
 10 11  2  0  0  0  0
 10 34  1  0  0  0  0
 11 12  1  0  0  0  0
 11 35  1  0  0  0  0
 12 13  2  0  0  0  0
 12 36  1  0  0  0  0
 13 14  1  0  0  0  0
 13 37  1  0  0  0  0
 14 15  1  0  0  0  0
 15 16  1  0  0  0  0
 16 17  1  0  0  0  0
 16 38  1  0  0  0  0
 16 39  1  0  0  0  0
 17 18  1  0  0  0  0
 17 40  1  0  0  0  0
 17 41  1  0  0  0  0
 18 19  1  0  0  0  0
 19 25  1  0  0  0  0
 19 20  2  0  0  0  0
 20 21  1  0  0  0  0
 20 42  1  0  0  0  0
 21 22  2  0  0  0  0
 21 43  1  0  0  0  0
 22 23  1  0  0  0  0
 22 44  1  0  0  0  0
 23 24  1  0  0  0  0
 23 25  2  0  0  0  0
 24 45  1  0  0  0  0
 24 46  1  0  0  0  0
 24 47  1  0  0  0  0
 25 48  1  0  0  0  0
M  END
> <s_m_source_file>
AV-unprocessed.smi

> <i_m_source_file_index>
2961

> <i_lp_mmshare_version>
43012

> <i_f3d_flags>
0

> <s_epik_input>
W0NIM11DKD1PKVtOSF1bQ0gyXVtDSDJdYyhuMSluKGMoYzEyKVtjSF1bY0hdW2NIXVtjSF0yKVtDSDJdW0NIMl1PYzNbY0hdW2NIXVtjSF1jKFtDSDNdKVtjSF0z

> <s_epik_cmdline>
J2VwaWtfcHl0aG9uJywgJy1waCcsICc3LjAnLCAnLXRuJywgJzgnLCAnLW1hJywgJzIwMCcsICctbWV0YWxfYmluZGluZycsICctaW1hZScsICc8aW5maWxlLm1hZT4nLCAnLW9tYWUnLCAnPG91dGZpbGUubWFlPic=

> <r_lp_tautomer_probability>
1

> <r_epik_Ionization_Penalty>
0.0984942

> <r_epik_Ionization_Penalty_Charging>
0

> <r_epik_Ionization_Penalty_Neutral>
0.0984942

> <r_epik_State_Penalty>
0.0885769

> <r_epik_Charging_Adjusted_Penalty>
0.0885769

> <i_epik_Tot_Q>
0

> <i_epik_Tot_abs_Q>
0

> <r_epik_Metal_State_Penalty>
0.0758518

> <b_epik_Metal_Only>
0

> <s_lp_Force_Field>
OPLS_2005

> <r_lp_Energy>
13.474

> <b_lp_Chiralities_Consistent>
1

> <s_lp_Variant>
AV-unprocessed.smi:2961-1

> <Gold.Version>
5.8.1

> <Gold.Id.Protein>
6NUR|6NUR_protein|mol2

> <Gold.PLP.Fitness>
58.9542

> <Gold.PLP.PLP>
-54.3888

> <Gold.PLP.part.hbond>
-2.0000

> <Gold.PLP.part.metal>
0.0000

> <Gold.PLP.part.buried>
-4.9543

> <Gold.PLP.part.nonpolar>
-47.8595

> <Gold.PLP.part.repulsive>
0.9157

> <Gold.PLP.ligand.clash>
0.0000

> <Gold.PLP.ligand.torsion>
0.8178

> <Gold.PLP.Chemscore.Hbond>
2.0000

> <Gold.PLP.Chemscore.CHOScore>
0.0000

> <Gold.PLP.Chemscore.Metal>
0.0000

> <Gold.Chemscore.Hbonds>
donor molecule, donor type, donor heavy atom, donor atom, acceptor molecule, acceptor atom, score
      L1  H     4    29       P1  7948  0.80
      P1  H  7997  8008       L1    18  0.78

> <Gold.PLP.Chemscore.Internal.Correction>
0.2010

> <Gold.Rescore>
     Score         DG    S(hbond)    S(metal)    S(lipo)     H(rot)  DE(clash)    DE(int)     intcor
     17.60     -19.89       1.17        0.00     135.89       2.11       0.06       2.23       ----

> <Gold.Chemscore.Fitness>
17.6013

> <Gold.Chemscore.DG>
-19.8903

> <Gold.Chemscore.ZeroCoef>
-5.4800

> <Gold.Chemscore.Hbond>
1.1699

> <Gold.Chemscore.Metal>
0.0000

> <Gold.Chemscore.Lipo>
135.8889

> <Gold.Chemscore.Internal_Hbond>
0.0000

> <Gold.Chemscore.DEClash>
0.0611

> <Gold.Chemscore.DEInternal>
2.2279

> <Gold.Chemscore.Rot>
2.1078

> <Gold.Chemscore.Internal.Correction>
   9.000000E+99

> <Gold.Chemscore.Hbonds>
donor molecule, donor type, donor heavy atom, donor atom, acceptor molecule, acceptor atom, score
      L1  H     4    29       P1  7948  0.31
      P1  H  7997  8008       L1    18  0.10

> <Gold.Chemscore.Hbond.Weighted>
-3.9074

> <Gold.Chemscore.Metal.Weighted>
-0.0000

> <Gold.Chemscore.Lipo.Weighted>
-15.8990

> <Gold.Chemscore.Internal_Hbond.Weighted>
0.0000

> <Gold.Chemscore.DEClash.Weighted>
0.0611

> <Gold.Chemscore.DEInternal.Weighted>
2.2279

> <Gold.Chemscore.Rot.Weighted>
5.3961

> <Gold.Chemscore.Internal.Correction.Weighted>
   9.000000E+99

> <Gold.Protein.RotatedTorsions>
[ 6907 6896 6895 6894 ] final  179.75 input  -60.11 | X-H torsion
[ 7974 7965 7964 7962 ] final  119.79 input  175.53 | X-H torsion
[ 8008 7997 7996 7995 ] final  -70.16 input   59.86 | X-H torsion
[ 10167 10162 10161 10158 ] final  154.16 input  -65.29 | X-H torsion
[ 10718 10713 10712 10709 ] final -173.98 input   66.30 | X-H torsion
[ 10763 10752 10751 10750 ] final  135.90 input  -60.55 | X-H torsion
[ 11005 11000 10999 10996 ] final   88.15 input  -57.11 | X-H torsion

> <Gold.Protein.ActiveResidues>
 VAL166  LYS551  ARG553  GLY616  TRP617  ASP618  TYR619  PRO620  LYS621  CYS622 
 ASP623  PHE694  ASN695  SER759  ASP760  ASP761  ALA762  ILE779  LEU786  VAL792 
 PHE793  MET794  SER795  GLU796  ALA797  LYS798  CYS799  TRP800  GLU811  SER814 

> <Gold.Protein.RotatedAtoms>
  151.6666  133.3315  159.3186 H   0  0  0  0  0  0  0  0  0  0  0  0  # atno 6907 bound_to 6896
  150.7888  134.6898  159.6500 H   0  0  0  0  0  0  0  0  0  0  0  0  # atno 6908 bound_to 6896
  152.3963  134.6363  160.0140 H   0  0  0  0  0  0  0  0  0  0  0  0  # atno 6909 bound_to 6896
  145.1389  139.3280  143.4626 H   0  0  0  0  0  0  0  0  0  0  0  0  # atno 7974 bound_to 7965
  154.4991  140.0839  156.7760 H   0  0  0  0  0  0  0  0  0  0  0  0  # atno 8008 bound_to 7997
  155.4045  140.3438  155.4241 H   0  0  0  0  0  0  0  0  0  0  0  0  # atno 8009 bound_to 7997
  156.1433  140.1536  156.8874 H   0  0  0  0  0  0  0  0  0  0  0  0  # atno 8010 bound_to 7997
  139.4824  144.5211  151.7875 H   0  0  0  0  0  0  0  0  0  0  0  0  # atno 10167 bound_to 10162
  156.7784  130.9474  151.3120 H   0  0  0  0  0  0  0  0  0  0  0  0  # atno 10718 bound_to 10713
  153.8476  135.3083  155.3430 H   0  0  0  0  0  0  0  0  0  0  0  0  # atno 10763 bound_to 10752
  154.7905  135.4785  154.0046 H   0  0  0  0  0  0  0  0  0  0  0  0  # atno 10764 bound_to 10752
  153.1538  135.6848  153.8936 H   0  0  0  0  0  0  0  0  0  0  0  0  # atno 10765 bound_to 10752
  139.8903  134.8469  156.2960 H   0  0  0  0  0  0  0  0  0  0  0  0  # atno 11005 bound_to 11000
  146.3507  140.1418  142.8594 LP  0  0  0  0  0  0  0  0  0  0  0  0  # atno 17320 bound_to 7965
  145.0554  140.9048  143.4970 LP  0  0  0  0  0  0  0  0  0  0  0  0  # atno 17321 bound_to 7965
  140.4725  144.1567  150.5920 LP  0  0  0  0  0  0  0  0  0  0  0  0  # atno 17342 bound_to 10162
  140.4367  143.2544  151.9526 LP  0  0  0  0  0  0  0  0  0  0  0  0  # atno 17343 bound_to 10162
  157.6658  130.9006  149.9929 LP  0  0  0  0  0  0  0  0  0  0  0  0  # atno 17370 bound_to 10713
  156.1234  130.3645  149.9850 LP  0  0  0  0  0  0  0  0  0  0  0  0  # atno 17371 bound_to 10713
  140.9945  133.7188  156.0864 LP  0  0  0  0  0  0  0  0  0  0  0  0  # atno 17394 bound_to 11000
  140.7581  134.3970  157.5530 LP  0  0  0  0  0  0  0  0  0  0  0  0  # atno 17395 bound_to 11000

$$$$
