AV-unprocessed.smi:1165|AV-procd|sdf|4928|dock9
  -GOLD-   22720 3513D 1   1.00000     0.00000
 Structure written by MMmdl.
 41 42  0  0  0  0  0  0  0  0  1 V2000
  153.8757  136.8207  164.3902 C   0  0  0  0  0  0  0  0  0  0  0  0
  154.9633  136.8969  163.3135 C   0  0  2  0  0  0  0  0  0  0  0  0
  154.7785  138.1171  162.3954 C   0  0  0  0  0  0  0  0  0  0  0  0
  155.7554  138.0908  161.2961 N   0  0  0  0  0  0  0  0  0  0  0  0
  156.0130  139.5498  160.3994 S   0  0  0  0  0  0  0  0  0  0  0  0
  157.2090  140.2231  160.9287 O   0  0  0  0  0  0  0  0  0  0  0  0
  155.8787  139.2413  158.9678 O   0  0  0  0  0  0  0  0  0  0  0  0
  154.6252  140.4432  160.9033 N   0  0  0  0  0  0  0  0  0  0  0  0
  154.3021  141.7075  160.2432 C   0  0  0  0  0  0  0  0  0  0  0  0
  153.2958  142.5041  161.0817 C   0  0  0  0  0  0  0  0  0  0  0  0
  152.4718  143.4485  160.2294 C   0  0  0  0  0  0  0  0  0  0  0  0
  152.6696  143.5269  158.8355 C   0  0  0  0  0  0  0  0  0  0  0  0
  151.8833  144.4254  158.0888 C   0  0  0  0  0  0  0  0  0  0  0  0
  150.9312  145.2100  158.7700 C   0  0  0  0  0  0  0  0  0  0  0  0
  150.7341  145.1441  160.1045 N   0  0  0  0  0  0  0  0  0  0  0  0
  151.4917  144.2794  160.8130 C   0  0  0  0  0  0  0  0  0  0  0  0
  155.7512  136.8238  160.5505 C   0  0  0  0  0  0  0  0  0  0  0  0
  155.8719  135.6165  161.5005 C   0  0  1  0  0  0  0  0  0  0  0  0
  157.2978  135.4120  162.0440 C   0  0  0  0  0  0  0  0  0  0  0  0
  154.9047  135.7001  162.5451 O   0  0  0  0  0  0  0  0  0  0  0  0
  153.8823  137.7111  165.0195 H   0  0  0  0  0  0  0  0  0  0  0  0
  154.0284  135.9561  165.0364 H   0  0  0  0  0  0  0  0  0  0  0  0
  152.8845  136.7324  163.9446 H   0  0  0  0  0  0  0  0  0  0  0  0
  155.9275  136.9650  163.8178 H   0  0  0  0  0  0  0  0  0  0  0  0
  153.7733  138.1287  161.9718 H   0  0  0  0  0  0  0  0  0  0  0  0
  154.8893  139.0337  162.9744 H   0  0  0  0  0  0  0  0  0  0  0  0
  154.5085  140.4593  161.9161 H   0  0  0  0  0  0  0  0  0  0  0  0
  155.2162  142.2862  160.1065 H   0  0  0  0  0  0  0  0  0  0  0  0
  153.8975  141.5011  159.2517 H   0  0  0  0  0  0  0  0  0  0  0  0
  152.6274  141.8243  161.6122 H   0  0  0  0  0  0  0  0  0  0  0  0
  153.8178  143.0829  161.8449 H   0  0  0  0  0  0  0  0  0  0  0  0
  153.4111  142.9123  158.3461 H   0  0  0  0  0  0  0  0  0  0  0  0
  152.0075  144.5123  157.0195 H   0  0  0  0  0  0  0  0  0  0  0  0
  150.3116  145.9095  158.2286 H   0  0  0  0  0  0  0  0  0  0  0  0
  151.3128  144.2524  161.8780 H   0  0  0  0  0  0  0  0  0  0  0  0
  154.8220  136.7601  159.9831 H   0  0  0  0  0  0  0  0  0  0  0  0
  156.5648  136.8118  159.8251 H   0  0  0  0  0  0  0  0  0  0  0  0
  155.6223  134.7212  160.9304 H   0  0  0  0  0  0  0  0  0  0  0  0
  157.9936  135.2013  161.2317 H   0  0  0  0  0  0  0  0  0  0  0  0
  157.3340  134.5698  162.7354 H   0  0  0  0  0  0  0  0  0  0  0  0
  157.6718  136.2922  162.5666 H   0  0  0  0  0  0  0  0  0  0  0  0
  1  2  1  0  0  0  0
  1 21  1  0  0  0  0
  1 22  1  0  0  0  0
  1 23  1  0  0  0  0
  2 20  1  0  0  0  0
  2  3  1  0  0  0  0
  2 24  1  0  0  0  0
  3  4  1  0  0  0  0
  3 25  1  0  0  0  0
  3 26  1  0  0  0  0
  4  5  1  0  0  0  0
  4 17  1  0  0  0  0
  5  6  2  0  0  0  0
  5  7  2  0  0  0  0
  5  8  1  0  0  0  0
  8  9  1  0  0  0  0
  8 27  1  0  0  0  0
  9 10  1  0  0  0  0
  9 28  1  0  0  0  0
  9 29  1  0  0  0  0
 10 11  1  0  0  0  0
 10 30  1  0  0  0  0
 10 31  1  0  0  0  0
 11 16  1  0  0  0  0
 11 12  2  0  0  0  0
 12 13  1  0  0  0  0
 12 32  1  0  0  0  0
 13 14  2  0  0  0  0
 13 33  1  0  0  0  0
 14 15  1  0  0  0  0
 14 34  1  0  0  0  0
 15 16  2  0  0  0  0
 16 35  1  0  0  0  0
 17 18  1  0  0  0  0
 17 36  1  0  0  0  0
 17 37  1  0  0  0  0
 18 19  1  0  0  0  0
 18 20  1  0  0  0  0
 18 38  1  0  0  0  0
 19 39  1  0  0  0  0
 19 40  1  0  0  0  0
 19 41  1  0  0  0  0
M  END
> <s_m_source_file>
AV-unprocessed.smi

> <i_m_source_file_index>
1165

> <i_lp_mmshare_version>
43012

> <i_f3d_flags>
0

> <s_epik_input>
W0NIM11bQ0BASF0xW0NIMl1OKFtDSDJdW0NASF0oTzEpW0NIM10pUyg9TykoPU8pW05IXVtDSDJdW0NIMl1jMltjSF1bY0hdW2NIXW5bY0hdMg==

> <s_epik_cmdline>
J2VwaWtfcHl0aG9uJywgJy1waCcsICc3LjAnLCAnLXRuJywgJzgnLCAnLW1hJywgJzIwMCcsICctbWV0YWxfYmluZGluZycsICctaW1hZScsICc8aW5maWxlLm1hZT4nLCAnLW9tYWUnLCAnPG91dGZpbGUubWFlPic=

> <r_epik_Ionization_Penalty>
0.0861056

> <r_epik_Ionization_Penalty_Charging>
0

> <r_epik_Ionization_Penalty_Neutral>
0.0861056

> <r_epik_State_Penalty>
0.0574425

> <r_epik_Charging_Adjusted_Penalty>
0.0574425

> <i_epik_Tot_Q>
0

> <i_epik_Tot_abs_Q>
0

> <r_epik_Metal_State_Penalty>
0.317425

> <b_epik_Metal_Only>
0

> <s_lp_Force_Field>
OPLS_2005

> <r_lp_Energy>
8.25328

> <b_lp_Chiralities_Consistent>
1

> <s_lp_Variant>
AV-unprocessed.smi:1165-1

> <Gold.Version>
5.8.1

> <Gold.Id.Protein>
6NUR|6NUR_protein|mol2

> <Gold.PLP.Fitness>
45.8554

> <Gold.PLP.PLP>
-40.5194

> <Gold.PLP.part.hbond>
-1.9379

> <Gold.PLP.part.metal>
0.0000

> <Gold.PLP.part.buried>
-5.4627

> <Gold.PLP.part.nonpolar>
-33.9925

> <Gold.PLP.part.repulsive>
0.2100

> <Gold.PLP.ligand.clash>
0.0000

> <Gold.PLP.ligand.torsion>
0.7253

> <Gold.PLP.Chemscore.Hbond>
1.0000

> <Gold.PLP.Chemscore.CHOScore>
0.9850

> <Gold.PLP.Chemscore.Metal>
0.0000

> <Gold.Chemscore.Hbonds>
donor molecule, donor type, donor heavy atom, donor atom, acceptor molecule, acceptor atom, score
      P1  H  7997  8010       L1     7  1.00
      L1  C    14    34       P1  8029  0.90

> <Gold.PLP.Chemscore.Internal.Correction>
0.8316

> <Gold.Rescore>
     Score         DG    S(hbond)    S(metal)    S(lipo)     H(rot)  DE(clash)    DE(int)     intcor
     17.52     -18.25       0.99        0.00     118.21       1.71       0.02       0.70       ----

> <Gold.Chemscore.Fitness>
17.5236

> <Gold.Chemscore.DG>
-18.2455

> <Gold.Chemscore.ZeroCoef>
-5.4800

> <Gold.Chemscore.Hbond>
0.9888

> <Gold.Chemscore.Metal>
0.0000

> <Gold.Chemscore.Lipo>
118.2081

> <Gold.Chemscore.Internal_Hbond>
0.0000

> <Gold.Chemscore.DEClash>
0.0243

> <Gold.Chemscore.DEInternal>
0.6976

> <Gold.Chemscore.Rot>
1.7060

> <Gold.Chemscore.Internal.Correction>
   9.000000E+99

> <Gold.Chemscore.Hbonds>
donor molecule, donor type, donor heavy atom, donor atom, acceptor molecule, acceptor atom, score
      P1  H  7997  8010       L1     7  1.00

> <Gold.Chemscore.Hbond.Weighted>
-3.3025

> <Gold.Chemscore.Metal.Weighted>
-0.0000

> <Gold.Chemscore.Lipo.Weighted>
-13.8304

> <Gold.Chemscore.Internal_Hbond.Weighted>
0.0000

> <Gold.Chemscore.DEClash.Weighted>
0.0243

> <Gold.Chemscore.DEInternal.Weighted>
0.6976

> <Gold.Chemscore.Rot.Weighted>
4.3674

> <Gold.Chemscore.Internal.Correction.Weighted>
   9.000000E+99

> <Gold.Protein.RotatedTorsions>
[ 6907 6896 6895 6894 ] final -137.36 input  -60.11 | X-H torsion
[ 7974 7965 7964 7962 ] final   52.91 input  175.53 | X-H torsion
[ 8008 7997 7996 7995 ] final  -34.35 input   59.86 | X-H torsion
[ 10167 10162 10161 10158 ] final   23.85 input  -65.29 | X-H torsion
[ 10718 10713 10712 10709 ] final  -21.28 input   66.30 | X-H torsion
[ 10763 10752 10751 10750 ] final -155.04 input  -60.55 | X-H torsion
[ 11005 11000 10999 10996 ] final  -63.96 input  -57.11 | X-H torsion

> <Gold.Protein.ActiveResidues>
 VAL166  LYS551  ARG553  GLY616  TRP617  ASP618  TYR619  PRO620  LYS621  CYS622 
 ASP623  PHE694  ASN695  SER759  ASP760  ASP761  ALA762  ILE779  LEU786  VAL792 
 PHE793  MET794  SER795  GLU796  ALA797  LYS798  CYS799  TRP800  GLU811  SER814 

> <Gold.Protein.RotatedAtoms>
  151.0215  133.5872  159.2670 H   0  0  0  0  0  0  0  0  0  0  0  0  # atno 6907 bound_to 6896
  151.2987  135.0762  159.9240 H   0  0  0  0  0  0  0  0  0  0  0  0  # atno 6908 bound_to 6896
  152.5324  133.9900  159.7901 H   0  0  0  0  0  0  0  0  0  0  0  0  # atno 6909 bound_to 6896
  145.9765  139.4200  143.0158 H   0  0  0  0  0  0  0  0  0  0  0  0  # atno 7974 bound_to 7965
  154.4123  140.1686  156.2036 H   0  0  0  0  0  0  0  0  0  0  0  0  # atno 8008 bound_to 7997
  155.9503  140.3401  155.6379 H   0  0  0  0  0  0  0  0  0  0  0  0  # atno 8009 bound_to 7997
  155.6878  140.0730  157.2450 H   0  0  0  0  0  0  0  0  0  0  0  0  # atno 8010 bound_to 7997
  140.5236  143.9962  150.6429 H   0  0  0  0  0  0  0  0  0  0  0  0  # atno 10167 bound_to 10162
  156.5203  130.4631  149.6600 H   0  0  0  0  0  0  0  0  0  0  0  0  # atno 10718 bound_to 10713
  154.7816  135.3176  154.7977 H   0  0  0  0  0  0  0  0  0  0  0  0  # atno 10763 bound_to 10752
  153.8687  135.6846  153.4780 H   0  0  0  0  0  0  0  0  0  0  0  0  # atno 10764 bound_to 10752
  153.1454  135.4721  154.9496 H   0  0  0  0  0  0  0  0  0  0  0  0  # atno 10765 bound_to 10752
  141.1410  133.6659  156.5760 H   0  0  0  0  0  0  0  0  0  0  0  0  # atno 11005 bound_to 11000
  145.7831  140.9848  143.1089 LP  0  0  0  0  0  0  0  0  0  0  0  0  # atno 17320 bound_to 7965
  144.6850  139.9589  143.7480 LP  0  0  0  0  0  0  0  0  0  0  0  0  # atno 17321 bound_to 7965
  140.3317  143.3073  152.0680 LP  0  0  0  0  0  0  0  0  0  0  0  0  # atno 17342 bound_to 10162
  139.4931  144.6504  151.6687 LP  0  0  0  0  0  0  0  0  0  0  0  0  # atno 17343 bound_to 10162
  156.3156  130.7252  151.2154 LP  0  0  0  0  0  0  0  0  0  0  0  0  # atno 17370 bound_to 10713
  157.7438  131.0469  150.4919 LP  0  0  0  0  0  0  0  0  0  0  0  0  # atno 17371 bound_to 10713
  140.3875  134.7469  157.4700 LP  0  0  0  0  0  0  0  0  0  0  0  0  # atno 17394 bound_to 11000
  140.0591  134.6021  155.8770 LP  0  0  0  0  0  0  0  0  0  0  0  0  # atno 17395 bound_to 11000

$$$$
