AV-unprocessed.smi:1709|AV-procd|sdf|6893|dock6
  -GOLD-   22720 8 93D 1   1.00000     0.00000
 Structure written by MMmdl.
 43 45  0  0  0  0  0  0  0  0  2 V2000
  149.6450  138.6971  153.9274 C   0  0  0  0  0  0  0  0  0  0  0  0
  150.7198  138.2191  154.8913 C   0  0  0  0  0  0  0  0  0  0  0  0
  151.5466  139.1715  155.5241 C   0  0  0  0  0  0  0  0  0  0  0  0
  152.5412  138.7329  156.4143 C   0  0  0  0  0  0  0  0  0  0  0  0
  152.6674  137.3515  156.6351 C   0  0  0  0  0  0  0  0  0  0  0  0
  151.8821  136.4348  156.0334 N   0  0  0  0  0  0  0  0  0  0  0  0
  150.9138  136.8390  155.1707 C   0  0  0  0  0  0  0  0  0  0  0  0
  150.0411  135.9382  154.4842 N   0  0  0  0  0  0  0  0  0  0  0  0
  149.5384  134.7328  154.8272 C   0  0  0  0  0  0  0  0  0  0  0  0
  149.8112  134.2171  155.9098 O   0  0  0  0  0  0  0  0  0  0  0  0
  148.7316  134.1453  153.9288 N   0  0  0  0  0  0  0  0  0  0  0  0
  148.0475  132.8691  154.1061 C   0  0  2  0  0  0  0  0  0  0  0  0
  149.0181  131.6819  154.2340 C   0  0  0  0  0  0  0  0  0  0  0  0
  148.3474  130.5212  153.4726 C   0  0  0  0  0  0  0  0  0  0  0  0
  147.0344  131.0411  153.0449 N   0  3  2  0  0  0  0  0  0  0  0  0
  146.4074  130.4025  151.8671 C   0  0  0  0  0  0  0  0  0  0  0  0
  145.0161  131.0245  151.6322 C   0  0  0  0  0  0  0  0  0  0  0  0
  145.0850  132.5626  151.5369 C   0  0  0  0  0  0  0  0  0  0  0  0
  145.8305  133.1624  152.7449 C   0  0  0  0  0  0  0  0  0  0  0  0
  147.2078  132.4924  152.8838 C   0  0  1  0  0  0  0  0  0  0  0  0
  149.6610  139.7821  153.8202 H   0  0  0  0  0  0  0  0  0  0  0  0
  148.6560  138.4106  154.2860 H   0  0  0  0  0  0  0  0  0  0  0  0
  149.7958  138.2618  152.9389 H   0  0  0  0  0  0  0  0  0  0  0  0
  151.4227  140.2271  155.3311 H   0  0  0  0  0  0  0  0  0  0  0  0
  153.1900  139.4371  156.9140 H   0  0  0  0  0  0  0  0  0  0  0  0
  153.4187  136.9707  157.3113 H   0  0  0  0  0  0  0  0  0  0  0  0
  149.7899  136.2398  153.5540 H   0  0  0  0  0  0  0  0  0  0  0  0
  148.5636  134.6384  153.0627 H   0  0  0  0  0  0  0  0  0  0  0  0
  147.4119  132.8904  154.9940 H   0  0  0  0  0  0  0  0  0  0  0  0
  149.9853  131.9073  153.7820 H   0  0  0  0  0  0  0  0  0  0  0  0
  149.1970  131.4316  155.2802 H   0  0  0  0  0  0  0  0  0  0  0  0
  148.9465  130.2502  152.6020 H   0  0  0  0  0  0  0  0  0  0  0  0
  148.2275  129.6317  154.0918 H   0  0  0  0  0  0  0  0  0  0  0  0
  147.0401  130.5389  150.9887 H   0  0  0  0  0  0  0  0  0  0  0  0
  146.3164  129.3293  152.0371 H   0  0  0  0  0  0  0  0  0  0  0  0
  144.5711  130.6134  150.7254 H   0  0  0  0  0  0  0  0  0  0  0  0
  144.3538  130.7458  152.4528 H   0  0  0  0  0  0  0  0  0  0  0  0
  145.5991  132.8459  150.6174 H   0  0  0  0  0  0  0  0  0  0  0  0
  144.0802  132.9807  151.4700 H   0  0  0  0  0  0  0  0  0  0  0  0
  145.9425  134.2390  152.6149 H   0  0  0  0  0  0  0  0  0  0  0  0
  145.2462  133.0151  153.6543 H   0  0  0  0  0  0  0  0  0  0  0  0
  147.7925  132.6740  151.9785 H   0  0  0  0  0  0  0  0  0  0  0  0
  146.4069  130.9153  153.8262 H   0  0  0  0  0  0  0  0  0  0  0  0
  1  2  1  0  0  0  0
  1 21  1  0  0  0  0
  1 22  1  0  0  0  0
  1 23  1  0  0  0  0
  2  7  1  0  0  0  0
  2  3  2  0  0  0  0
  3  4  1  0  0  0  0
  3 24  1  0  0  0  0
  4  5  2  0  0  0  0
  4 25  1  0  0  0  0
  5  6  1  0  0  0  0
  5 26  1  0  0  0  0
  6  7  2  0  0  0  0
  7  8  1  0  0  0  0
  8  9  1  0  0  0  0
  8 27  1  0  0  0  0
  9 10  2  0  0  0  0
  9 11  1  0  0  0  0
 11 12  1  0  0  0  0
 11 28  1  0  0  0  0
 12 20  1  0  0  0  0
 12 13  1  0  0  0  0
 12 29  1  0  0  0  0
 13 14  1  0  0  0  0
 13 30  1  0  0  0  0
 13 31  1  0  0  0  0
 14 15  1  0  0  0  0
 14 32  1  0  0  0  0
 14 33  1  0  0  0  0
 15 20  1  0  0  0  0
 15 16  1  0  0  0  0
 15 43  1  0  0  0  0
 16 17  1  0  0  0  0
 16 34  1  0  0  0  0
 16 35  1  0  0  0  0
 17 18  1  0  0  0  0
 17 36  1  0  0  0  0
 17 37  1  0  0  0  0
 18 19  1  0  0  0  0
 18 38  1  0  0  0  0
 18 39  1  0  0  0  0
 19 20  1  0  0  0  0
 19 40  1  0  0  0  0
 19 41  1  0  0  0  0
 20 42  1  0  0  0  0
M  CHG  1  15   1
M  END
> <s_m_source_file>
AV-unprocessed.smi

> <i_m_source_file_index>
1709

> <i_lp_mmshare_version>
43012

> <i_f3d_flags>
0

> <s_epik_input>
W0NIM11jMVtjSF1bY0hdW2NIXW5jMVtOSF1DKD1PKVtOSF1bQ0BIXShbQ0gyXVtDSDJdMilbQ0BASF0oTjIzKVtDSDJdW0NIMl1bQ0gyXVtDSDJdMw==

> <s_epik_cmdline>
J2VwaWtfcHl0aG9uJywgJy1waCcsICc3LjAnLCAnLXRuJywgJzgnLCAnLW1hJywgJzIwMCcsICctbWV0YWxfYmluZGluZycsICctaW1hZScsICc8aW5maWxlLm1hZT4nLCAnLW9tYWUnLCAnPG91dGZpbGUubWFlPic=

> <r_epik_Ionization_Penalty>
0.00101524

> <r_epik_Ionization_Penalty_Charging>
0.000974069

> <r_epik_Ionization_Penalty_Neutral>
4.11757e-05

> <r_epik_State_Penalty>
0.000633842

> <r_epik_Charging_Adjusted_Penalty>
0.00160791

> <i_epik_Tot_Q>
1

> <i_epik_Tot_abs_Q>
1

> <r_epik_Metal_State_Penalty>
-0

> <b_epik_Metal_Only>
0

> <s_lp_Force_Field>
OPLS_2005

> <r_lp_Energy>
38.5282

> <b_lp_Chiralities_Consistent>
1

> <s_lp_Variant>
AV-unprocessed.smi:1709-3

> <Gold.Version>
5.8.1

> <Gold.Id.Protein>
6NUR|6NUR_protein|mol2

> <Gold.PLP.Fitness>
39.0523

> <Gold.PLP.PLP>
-30.4841

> <Gold.PLP.part.hbond>
-3.4189

> <Gold.PLP.part.metal>
0.0000

> <Gold.PLP.part.buried>
-1.4756

> <Gold.PLP.part.nonpolar>
-27.0251

> <Gold.PLP.part.repulsive>
0.0952

> <Gold.PLP.ligand.clash>
0.0000

> <Gold.PLP.ligand.torsion>
0.2089

> <Gold.PLP.Chemscore.Hbond>
2.9920

> <Gold.PLP.Chemscore.CHOScore>
0.0000

> <Gold.PLP.Chemscore.Metal>
0.0000

> <Gold.Chemscore.Hbonds>
donor molecule, donor type, donor heavy atom, donor atom, acceptor molecule, acceptor atom, score
      L1  H     8    27       P1  7948  0.95
      L1  H    11    28       P1  7948  0.99
      P1  H 10752 10764       L1     6  1.00

> <Gold.PLP.Chemscore.Internal.Correction>
0.0100

> <Gold.Rescore>
     Score         DG    S(hbond)    S(metal)    S(lipo)     H(rot)  DE(clash)    DE(int)     intcor
     17.52     -18.64       1.92        0.00      79.43       1.00       0.15       0.98       ----

> <Gold.Chemscore.Fitness>
17.5159

> <Gold.Chemscore.DG>
-18.6408

> <Gold.Chemscore.ZeroCoef>
-5.4800

> <Gold.Chemscore.Hbond>
1.9246

> <Gold.Chemscore.Metal>
0.0000

> <Gold.Chemscore.Lipo>
79.4257

> <Gold.Chemscore.Internal_Hbond>
0.0000

> <Gold.Chemscore.DEClash>
0.1450

> <Gold.Chemscore.DEInternal>
0.9799

> <Gold.Chemscore.Rot>
1.0000

> <Gold.Chemscore.Internal.Correction>
   9.000000E+99

> <Gold.Chemscore.Hbonds>
donor molecule, donor type, donor heavy atom, donor atom, acceptor molecule, acceptor atom, score
      L1  H     8    27       P1  7948  0.21
      L1  H    11    28       P1  7948  0.27
      P1  H 10752 10764       L1     6  0.16

> <Gold.Chemscore.Hbond.Weighted>
-6.4280

> <Gold.Chemscore.Metal.Weighted>
-0.0000

> <Gold.Chemscore.Lipo.Weighted>
-9.2928

> <Gold.Chemscore.Internal_Hbond.Weighted>
0.0000

> <Gold.Chemscore.DEClash.Weighted>
0.1450

> <Gold.Chemscore.DEInternal.Weighted>
0.9799

> <Gold.Chemscore.Rot.Weighted>
2.5600

> <Gold.Chemscore.Internal.Correction.Weighted>
   9.000000E+99

> <Gold.Protein.RotatedTorsions>
[ 6907 6896 6895 6894 ] final  130.63 input  -60.11 | X-H torsion
[ 7974 7965 7964 7962 ] final  -95.46 input  175.53 | X-H torsion
[ 8008 7997 7996 7995 ] final  -75.69 input   59.86 | X-H torsion
[ 10167 10162 10161 10158 ] final   -5.78 input  -65.29 | X-H torsion
[ 10718 10713 10712 10709 ] final  -35.98 input   66.30 | X-H torsion
[ 10763 10752 10751 10750 ] final  -40.48 input  -60.55 | X-H torsion
[ 11005 11000 10999 10996 ] final  179.07 input  -57.11 | X-H torsion

> <Gold.Protein.ActiveResidues>
 VAL166  LYS551  ARG553  GLY616  TRP617  ASP618  TYR619  PRO620  LYS621  CYS622 
 ASP623  PHE694  ASN695  SER759  ASP760  ASP761  ALA762  ILE779  LEU786  VAL792 
 PHE793  MET794  SER795  GLU796  ALA797  LYS798  CYS799  TRP800  GLU811  SER814 

> <Gold.Protein.RotatedAtoms>
  152.3507  133.6176  159.5942 H   0  0  0  0  0  0  0  0  0  0  0  0  # atno 6907 bound_to 6896
  150.7536  133.9578  159.3515 H   0  0  0  0  0  0  0  0  0  0  0  0  # atno 6908 bound_to 6896
  151.7430  135.0851  160.0370 H   0  0  0  0  0  0  0  0  0  0  0  0  # atno 6909 bound_to 6896
  145.3598  140.9490  143.2507 H   0  0  0  0  0  0  0  0  0  0  0  0  # atno 7974 bound_to 7965
  154.5439  140.0740  156.8556 H   0  0  0  0  0  0  0  0  0  0  0  0  # atno 8008 bound_to 7997
  155.3126  140.3391  155.4225 H   0  0  0  0  0  0  0  0  0  0  0  0  # atno 8009 bound_to 7997
  156.1900  140.1682  156.8097 H   0  0  0  0  0  0  0  0  0  0  0  0  # atno 8010 bound_to 7997
  140.6975  143.6269  150.8559 H   0  0  0  0  0  0  0  0  0  0  0  0  # atno 10167 bound_to 10162
  156.3322  130.4281  149.7862 H   0  0  0  0  0  0  0  0  0  0  0  0  # atno 10718 bound_to 10713
  153.9466  135.6755  153.4744 H   0  0  0  0  0  0  0  0  0  0  0  0  # atno 10763 bound_to 10752
  153.0905  135.4877  154.8677 H   0  0  0  0  0  0  0  0  0  0  0  0  # atno 10764 bound_to 10752
  154.7348  135.3146  154.8788 H   0  0  0  0  0  0  0  0  0  0  0  0  # atno 10765 bound_to 10752
  140.4021  134.6768  157.4567 H   0  0  0  0  0  0  0  0  0  0  0  0  # atno 11005 bound_to 11000
  144.8655  139.5114  143.6792 LP  0  0  0  0  0  0  0  0  0  0  0  0  # atno 17320 bound_to 7965
  146.2932  139.7200  142.9146 LP  0  0  0  0  0  0  0  0  0  0  0  0  # atno 17321 bound_to 7965
  139.9989  143.5766  152.2883 LP  0  0  0  0  0  0  0  0  0  0  0  0  # atno 17342 bound_to 10162
  139.6448  144.7657  151.2266 LP  0  0  0  0  0  0  0  0  0  0  0  0  # atno 17343 bound_to 10162
  156.5130  130.8180  151.3176 LP  0  0  0  0  0  0  0  0  0  0  0  0  # atno 17370 bound_to 10713
  157.7432  130.9908  150.2577 LP  0  0  0  0  0  0  0  0  0  0  0  0  # atno 17371 bound_to 10713
  140.0329  134.6380  155.9083 LP  0  0  0  0  0  0  0  0  0  0  0  0  # atno 17394 bound_to 11000
  141.1853  133.6554  156.5191 LP  0  0  0  0  0  0  0  0  0  0  0  0  # atno 17395 bound_to 11000

$$$$
