AV-unprocessed.smi:2671|AV-procd|sdf|10349|dock3
  -GOLD-   2272014373D 1   1.00000     0.00000
 Structure written by MMmdl.
 29 30  0  0  0  0  0  0  0  0  1 V2000
  154.2206  140.0386  159.2028 O   0  0  0  0  0  0  0  0  0  0  0  0
  153.1882  140.6893  159.0586 C   0  0  0  0  0  0  0  0  0  0  0  0
  152.9869  142.0358  159.5919 C   0  0  0  0  0  0  0  0  0  0  0  0
  151.8159  142.6876  159.3900 C   0  0  0  0  0  0  0  0  0  0  0  0
  151.5890  144.0880  159.9363 C   0  0  0  0  0  0  0  0  0  0  0  0
  152.3473  144.9662  159.2808 F   0  0  0  0  0  0  0  0  0  0  0  0
  150.3139  144.4432  159.7799 F   0  0  0  0  0  0  0  0  0  0  0  0
  151.8878  144.1646  161.2342 F   0  0  0  0  0  0  0  0  0  0  0  0
  150.7776  142.0839  158.6646 N   0  0  0  0  0  0  0  0  0  0  0  0
  150.9323  140.8903  158.1823 C   0  0  0  0  0  0  0  0  0  0  0  0
  149.7687  139.8821  157.2197 S   0  0  0  0  0  0  0  0  0  0  0  0
  149.8771  140.6744  155.5894 C   0  0  0  0  0  0  0  0  0  0  0  0
  148.4939  140.8603  154.9508 C   0  0  1  0  0  0  0  0  0  0  0  0
  147.5127  141.6903  155.7813 C   0  0  0  0  0  0  0  0  0  0  0  0
  146.6038  142.3312  154.7417 C   0  0  0  0  0  0  0  0  0  0  0  0
  147.2869  142.0282  153.4059 C   0  0  0  0  0  0  0  0  0  0  0  0
  148.5999  141.6164  153.7557 O   0  0  0  0  0  0  0  0  0  0  0  0
  152.1302  140.1940  158.3766 N   0  0  0  0  0  0  0  0  0  0  0  0
  152.2171  139.2667  157.9868 H   0  0  0  0  0  0  0  0  0  0  0  0
  153.7800  142.5111  160.1508 H   0  0  0  0  0  0  0  0  0  0  0  0
  150.4977  140.0522  154.9439 H   0  0  0  0  0  0  0  0  0  0  0  0
  150.3822  141.6361  155.6869 H   0  0  0  0  0  0  0  0  0  0  0  0
  148.0553  139.8903  154.7084 H   0  0  0  0  0  0  0  0  0  0  0  0
  146.9661  141.0852  156.5050 H   0  0  0  0  0  0  0  0  0  0  0  0
  148.0426  142.4700  156.3302 H   0  0  0  0  0  0  0  0  0  0  0  0
  145.5963  141.9146  154.7683 H   0  0  0  0  0  0  0  0  0  0  0  0
  146.5272  143.4055  154.9128 H   0  0  0  0  0  0  0  0  0  0  0  0
  146.7800  141.2097  152.8928 H   0  0  0  0  0  0  0  0  0  0  0  0
  147.3059  142.8892  152.7374 H   0  0  0  0  0  0  0  0  0  0  0  0
  1  2  2  0  0  0  0
  2 18  1  0  0  0  0
  2  3  1  0  0  0  0
  3 20  1  0  0  0  0
  3  4  2  0  0  0  0
  4  5  1  0  0  0  0
  4  9  1  0  0  0  0
  5  6  1  0  0  0  0
  5  7  1  0  0  0  0
  5  8  1  0  0  0  0
  9 10  2  0  0  0  0
 10 11  1  0  0  0  0
 10 18  1  0  0  0  0
 11 12  1  0  0  0  0
 12 13  1  0  0  0  0
 12 21  1  0  0  0  0
 12 22  1  0  0  0  0
 13 17  1  0  0  0  0
 13 14  1  0  0  0  0
 13 23  1  0  0  0  0
 14 15  1  0  0  0  0
 14 24  1  0  0  0  0
 14 25  1  0  0  0  0
 15 16  1  0  0  0  0
 15 26  1  0  0  0  0
 15 27  1  0  0  0  0
 16 17  1  0  0  0  0
 16 28  1  0  0  0  0
 16 29  1  0  0  0  0
 18 19  1  0  0  0  0
M  END
> <s_m_source_file>
AV-unprocessed.smi

> <i_m_source_file_index>
2671

> <i_lp_mmshare_version>
43012

> <i_f3d_flags>
0

> <s_epik_input>
W09IXWMxW2NIXWMoQyhGKShGKUYpbmMobjEpU1tDSDJdW0NAQEhdMltDSDJdW0NIMl1bQ0gyXU8y

> <s_epik_cmdline>
J2VwaWtfcHl0aG9uJywgJy1waCcsICc3LjAnLCAnLXRuJywgJzgnLCAnLW1hJywgJzIwMCcsICctbWV0YWxfYmluZGluZycsICctaW1hZScsICc8aW5maWxlLm1hZT4nLCAnLW9tYWUnLCAnPG91dGZpbGUubWFlPic=

> <r_lp_tautomer_probability>
0.660323

> <r_epik_Ionization_Penalty>
0.14469

> <r_epik_Ionization_Penalty_Charging>
0.14469

> <r_epik_Ionization_Penalty_Neutral>
3.1007e-10

> <r_epik_State_Penalty>
0.804349

> <r_epik_Charging_Adjusted_Penalty>
0.949039

> <i_epik_Tot_Q>
0

> <i_epik_Tot_abs_Q>
0

> <r_epik_Metal_State_Penalty>
1.52783

> <b_epik_Metal_Only>
0

> <s_lp_Force_Field>
OPLS_2005

> <r_lp_Energy>
21.2292

> <b_lp_Chiralities_Consistent>
1

> <s_lp_Variant>
AV-unprocessed.smi:2671-4

> <Gold.Version>
5.8.1

> <Gold.Id.Protein>
6NUR|6NUR_protein|mol2

> <Gold.PLP.Fitness>
39.6238

> <Gold.PLP.PLP>
-36.1112

> <Gold.PLP.part.hbond>
-2.0000

> <Gold.PLP.part.metal>
0.0000

> <Gold.PLP.part.buried>
-6.7914

> <Gold.PLP.part.nonpolar>
-28.2393

> <Gold.PLP.part.repulsive>
0.3068

> <Gold.PLP.ligand.clash>
0.0000

> <Gold.PLP.ligand.torsion>
0.7694

> <Gold.PLP.Chemscore.Hbond>
1.6661

> <Gold.PLP.Chemscore.CHOScore>
0.0000

> <Gold.PLP.Chemscore.Metal>
0.0000

> <Gold.Chemscore.Hbonds>
donor molecule, donor type, donor heavy atom, donor atom, acceptor molecule, acceptor atom, score
      P1  H  7997  8008       L1     1  0.96
      P1  H  8011  8017       L1    17  0.64

> <Gold.PLP.Chemscore.Internal.Correction>
0.0531

> <Gold.Rescore>
     Score         DG    S(hbond)    S(metal)    S(lipo)     H(rot)  DE(clash)    DE(int)     intcor
     10.17     -11.56       0.92        0.00      62.81       1.69       0.69       0.70       ----

> <Gold.Chemscore.Fitness>
10.1676

> <Gold.Chemscore.DG>
-11.5564

> <Gold.Chemscore.ZeroCoef>
-5.4800

> <Gold.Chemscore.Hbond>
0.9161

> <Gold.Chemscore.Metal>
0.0000

> <Gold.Chemscore.Lipo>
62.8136

> <Gold.Chemscore.Internal_Hbond>
0.0000

> <Gold.Chemscore.DEClash>
0.6927

> <Gold.Chemscore.DEInternal>
0.6961

> <Gold.Chemscore.Rot>
1.6924

> <Gold.Chemscore.Internal.Correction>
   9.000000E+99

> <Gold.Chemscore.Hbonds>
donor molecule, donor type, donor heavy atom, donor atom, acceptor molecule, acceptor atom, score
      P1  H  7997  8008       L1     1  0.30
      P1  H  8011  8017       L1    17  0.27

> <Gold.Chemscore.Hbond.Weighted>
-3.0596

> <Gold.Chemscore.Metal.Weighted>
-0.0000

> <Gold.Chemscore.Lipo.Weighted>
-7.3492

> <Gold.Chemscore.Internal_Hbond.Weighted>
0.0000

> <Gold.Chemscore.DEClash.Weighted>
0.6927

> <Gold.Chemscore.DEInternal.Weighted>
0.6961

> <Gold.Chemscore.Rot.Weighted>
4.3324

> <Gold.Chemscore.Internal.Correction.Weighted>
   9.000000E+99

> <Gold.Protein.RotatedTorsions>
[ 6907 6896 6895 6894 ] final  114.87 input  -60.11 | X-H torsion
[ 7974 7965 7964 7962 ] final  -62.16 input  175.53 | X-H torsion
[ 8008 7997 7996 7995 ] final -112.57 input   59.86 | X-H torsion
[ 10167 10162 10161 10158 ] final  128.44 input  -65.29 | X-H torsion
[ 10718 10713 10712 10709 ] final  -85.49 input   66.30 | X-H torsion
[ 10763 10752 10751 10750 ] final   99.24 input  -60.55 | X-H torsion
[ 11005 11000 10999 10996 ] final  -76.66 input  -57.11 | X-H torsion

> <Gold.Protein.ActiveResidues>
 VAL166  LYS551  ARG553  GLY616  TRP617  ASP618  TYR619  PRO620  LYS621  CYS622 
 ASP623  PHE694  ASN695  SER759  ASP760  ASP761  ALA762  ILE779  LEU786  VAL792 
 PHE793  MET794  SER795  GLU796  ALA797  LYS798  CYS799  TRP800  GLU811  SER814 

> <Gold.Protein.RotatedAtoms>
  152.4776  133.8176  159.7036 H   0  0  0  0  0  0  0  0  0  0  0  0  # atno 6907 bound_to 6896
  150.8804  133.7371  159.2940 H   0  0  0  0  0  0  0  0  0  0  0  0  # atno 6908 bound_to 6896
  151.4877  135.1059  159.9847 H   0  0  0  0  0  0  0  0  0  0  0  0  # atno 6909 bound_to 6896
  145.7947  140.8689  143.0262 H   0  0  0  0  0  0  0  0  0  0  0  0  # atno 7974 bound_to 7965
  155.0072  140.0394  157.2384 H   0  0  0  0  0  0  0  0  0  0  0  0  # atno 8008 bound_to 7997
  154.7492  140.2763  155.6284 H   0  0  0  0  0  0  0  0  0  0  0  0  # atno 8009 bound_to 7997
  156.2881  140.2650  156.2241 H   0  0  0  0  0  0  0  0  0  0  0  0  # atno 8010 bound_to 7997
  139.5527  144.6825  151.4275 H   0  0  0  0  0  0  0  0  0  0  0  0  # atno 10167 bound_to 10162
  155.9996  130.4733  150.4571 H   0  0  0  0  0  0  0  0  0  0  0  0  # atno 10718 bound_to 10713
  153.2989  135.4120  155.1235 H   0  0  0  0  0  0  0  0  0  0  0  0  # atno 10763 bound_to 10752
  154.8543  135.3536  154.5879 H   0  0  0  0  0  0  0  0  0  0  0  0  # atno 10764 bound_to 10752
  153.6303  135.7061  153.5336 H   0  0  0  0  0  0  0  0  0  0  0  0  # atno 10765 bound_to 10752
  141.1655  133.6992  156.7702 H   0  0  0  0  0  0  0  0  0  0  0  0  # atno 11005 bound_to 11000
  144.6777  140.0173  143.7484 LP  0  0  0  0  0  0  0  0  0  0  0  0  # atno 17320 bound_to 7965
  145.9940  139.3038  143.0967 LP  0  0  0  0  0  0  0  0  0  0  0  0  # atno 17321 bound_to 7965
  140.6793  143.8117  150.7100 LP  0  0  0  0  0  0  0  0  0  0  0  0  # atno 17342 bound_to 10162
  140.1566  143.4311  152.2095 LP  0  0  0  0  0  0  0  0  0  0  0  0  # atno 17343 bound_to 10162
  157.2599  131.0564  151.2327 LP  0  0  0  0  0  0  0  0  0  0  0  0  # atno 17370 bound_to 10713
  157.3445  130.7050  149.6402 LP  0  0  0  0  0  0  0  0  0  0  0  0  # atno 17371 bound_to 10713
  140.2470  134.8570  157.3629 LP  0  0  0  0  0  0  0  0  0  0  0  0  # atno 17394 bound_to 11000
  140.1740  134.4573  155.7813 LP  0  0  0  0  0  0  0  0  0  0  0  0  # atno 17395 bound_to 11000

$$$$
