AV-unprocessed.smi:1487|AV-procd|sdf|6013|dock2
  -GOLD-   22720 6113D 1   1.00000     0.00000
 Structure written by MMmdl.
 48 50  0  0  0  0  0  0  0  0  2 V2000
  153.1517  142.8837  161.5016 C   0  0  0  0  0  0  0  0  0  0  0  0
  152.5669  142.5712  160.1352 C   0  0  0  0  0  0  0  0  0  0  0  0
  152.9102  141.3551  159.5024 C   0  0  0  0  0  0  0  0  0  0  0  0
  152.3878  141.0268  158.2325 C   0  0  0  0  0  0  0  0  0  0  0  0
  152.5810  139.9061  157.4430 N   0  0  0  0  0  0  0  0  0  0  0  0
  151.8295  140.1909  156.3836 C   0  0  0  0  0  0  0  0  0  0  0  0
  151.1653  141.3624  156.3961 N   0  0  0  0  0  0  0  0  0  0  0  0
  150.2895  141.8788  155.3601 C   0  0  0  0  0  0  0  0  0  0  0  0
  149.2935  140.8230  154.8406 C   0  0  2  0  0  0  0  0  0  0  0  0
  150.0166  139.9426  154.0034 O   0  0  0  0  0  0  0  0  0  0  0  0
  148.1158  141.4337  154.0458 C   0  0  0  0  0  0  0  0  0  0  0  0
  147.2626  142.3377  154.8600 N   0  3  2  0  0  0  0  0  0  0  0  0
  147.0270  141.8009  156.2261 C   0  0  0  0  0  0  0  0  0  0  0  0
  146.2714  142.8153  157.1010 C   0  0  0  0  0  0  0  0  0  0  0  0
  144.9480  143.2285  156.4448 C   0  0  0  0  0  0  0  0  0  0  0  0
  145.2116  143.7503  155.0248 C   0  0  2  0  0  0  0  0  0  0  0  0
  143.9805  144.0398  154.3975 O   0  0  0  0  0  0  0  0  0  0  0  0
  145.9858  142.7106  154.1929 C   0  0  0  0  0  0  0  0  0  0  0  0
  151.5084  141.9574  157.6059 C   0  0  0  0  0  0  0  0  0  0  0  0
  151.1602  143.1713  158.2246 C   0  0  0  0  0  0  0  0  0  0  0  0
  151.6883  143.4819  159.4952 C   0  0  0  0  0  0  0  0  0  0  0  0
  151.3035  144.7933  160.1569 C   0  0  0  0  0  0  0  0  0  0  0  0
  153.7972  142.0783  161.8529 H   0  0  0  0  0  0  0  0  0  0  0  0
  152.3580  143.0193  162.2364 H   0  0  0  0  0  0  0  0  0  0  0  0
  153.7475  143.7957  161.4623 H   0  0  0  0  0  0  0  0  0  0  0  0
  153.5801  140.6614  159.9893 H   0  0  0  0  0  0  0  0  0  0  0  0
  151.7542  139.5069  155.5507 H   0  0  0  0  0  0  0  0  0  0  0  0
  149.7573  142.7451  155.7553 H   0  0  0  0  0  0  0  0  0  0  0  0
  150.9119  142.2456  154.5424 H   0  0  0  0  0  0  0  0  0  0  0  0
  148.9278  140.2532  155.6940 H   0  0  0  0  0  0  0  0  0  0  0  0
  149.5719  139.8724  153.1728 H   0  0  0  0  0  0  0  0  0  0  0  0
  148.4748  141.9865  153.1770 H   0  0  0  0  0  0  0  0  0  0  0  0
  147.5092  140.6153  153.6549 H   0  0  0  0  0  0  0  0  0  0  0  0
  146.4657  140.8673  156.1601 H   0  0  0  0  0  0  0  0  0  0  0  0
  147.9806  141.5646  156.6999 H   0  0  0  0  0  0  0  0  0  0  0  0
  146.0810  142.3890  158.0866 H   0  0  0  0  0  0  0  0  0  0  0  0
  146.8935  143.6971  157.2607 H   0  0  0  0  0  0  0  0  0  0  0  0
  144.2741  142.3711  156.4104 H   0  0  0  0  0  0  0  0  0  0  0  0
  144.4534  143.9921  157.0465 H   0  0  0  0  0  0  0  0  0  0  0  0
  145.7872  144.6755  155.0791 H   0  0  0  0  0  0  0  0  0  0  0  0
  143.8545  143.4381  153.6795 H   0  0  0  0  0  0  0  0  0  0  0  0
  146.1802  143.1238  153.2041 H   0  0  0  0  0  0  0  0  0  0  0  0
  145.3799  141.8146  154.0469 H   0  0  0  0  0  0  0  0  0  0  0  0
  150.4915  143.8574  157.7264 H   0  0  0  0  0  0  0  0  0  0  0  0
  150.6237  145.3712  159.5303 H   0  0  0  0  0  0  0  0  0  0  0  0
  152.1887  145.4026  160.3407 H   0  0  0  0  0  0  0  0  0  0  0  0
  150.8054  144.6088  161.1090 H   0  0  0  0  0  0  0  0  0  0  0  0
  147.7913  143.1891  154.9839 H   0  0  0  0  0  0  0  0  0  0  0  0
  1  2  1  0  0  0  0
  1 23  1  0  0  0  0
  1 24  1  0  0  0  0
  1 25  1  0  0  0  0
  2 21  1  0  0  0  0
  2  3  2  0  0  0  0
  3  4  1  0  0  0  0
  3 26  1  0  0  0  0
  4 19  2  0  0  0  0
  4  5  1  0  0  0  0
  5  6  2  0  0  0  0
  6  7  1  0  0  0  0
  6 27  1  0  0  0  0
  7  8  1  0  0  0  0
  7 19  1  0  0  0  0
  8  9  1  0  0  0  0
  8 28  1  0  0  0  0
  8 29  1  0  0  0  0
  9 10  1  0  0  0  0
  9 11  1  0  0  0  0
  9 30  1  0  0  0  0
 10 31  1  0  0  0  0
 11 12  1  0  0  0  0
 11 32  1  0  0  0  0
 11 33  1  0  0  0  0
 12 18  1  0  0  0  0
 12 13  1  0  0  0  0
 12 48  1  0  0  0  0
 13 14  1  0  0  0  0
 13 34  1  0  0  0  0
 13 35  1  0  0  0  0
 14 15  1  0  0  0  0
 14 36  1  0  0  0  0
 14 37  1  0  0  0  0
 15 16  1  0  0  0  0
 15 38  1  0  0  0  0
 15 39  1  0  0  0  0
 16 17  1  0  0  0  0
 16 18  1  0  0  0  0
 16 40  1  0  0  0  0
 17 41  1  0  0  0  0
 18 42  1  0  0  0  0
 18 43  1  0  0  0  0
 19 20  1  0  0  0  0
 20 21  2  0  0  0  0
 20 44  1  0  0  0  0
 21 22  1  0  0  0  0
 22 45  1  0  0  0  0
 22 46  1  0  0  0  0
 22 47  1  0  0  0  0
M  CHG  1  12   1
M  END
> <s_m_source_file>
AV-unprocessed.smi

> <i_m_source_file_index>
1487

> <i_lp_mmshare_version>
43012

> <i_f3d_flags>
0

> <s_epik_input>
W0NIM11jKFtjSF0xKWMoW0NIM10pW2NIXWMoYzEyKW4oW2NIXW4yKVtDSDJdW0NASF0oW09IXSlbQ0gyXU4zW0NIMl1bQ0gyXVtDSDJdW0NAQEhdKFtPSF0pW0NIMl0z

> <s_epik_cmdline>
J2VwaWtfcHl0aG9uJywgJy1waCcsICc3LjAnLCAnLXRuJywgJzgnLCAnLW1hJywgJzIwMCcsICctbWV0YWxfYmluZGluZycsICctaW1hZScsICc8aW5maWxlLm1hZT4nLCAnLW9tYWUnLCAnPG91dGZpbGUubWFlPic=

> <r_epik_Ionization_Penalty>
0.0940186

> <r_epik_Ionization_Penalty_Charging>
0.00679686

> <r_epik_Ionization_Penalty_Neutral>
0.0872218

> <r_epik_State_Penalty>
0.0799311

> <r_epik_Charging_Adjusted_Penalty>
0.086728

> <i_epik_Tot_Q>
1

> <i_epik_Tot_abs_Q>
1

> <r_epik_Metal_State_Penalty>
7.95545e-05

> <b_epik_Metal_Only>
0

> <s_lp_Force_Field>
OPLS_2005

> <r_lp_Energy>
23.9156

> <b_lp_Chiralities_Consistent>
1

> <s_lp_Variant>
AV-unprocessed.smi:1487-7

> <Gold.Version>
5.8.1

> <Gold.Id.Protein>
6NUR|6NUR_protein|mol2

> <Gold.PLP.Fitness>
65.3217

> <Gold.PLP.PLP>
-48.2946

> <Gold.PLP.part.hbond>
-5.0000

> <Gold.PLP.part.metal>
0.0000

> <Gold.PLP.part.buried>
-6.6324

> <Gold.PLP.part.nonpolar>
-37.3646

> <Gold.PLP.part.repulsive>
0.1098

> <Gold.PLP.ligand.clash>
0.0000

> <Gold.PLP.ligand.torsion>
0.4123

> <Gold.PLP.Chemscore.Hbond>
5.9105

> <Gold.PLP.Chemscore.CHOScore>
0.0000

> <Gold.PLP.Chemscore.Metal>
0.0000

> <Gold.Chemscore.Hbonds>
donor molecule, donor type, donor heavy atom, donor atom, acceptor molecule, acceptor atom, score
      L1  H    10    31       P1  7957  0.98
      L1  H    12    48       P1  8028  2.00
      L1  H    17    41       P1 10174  0.67
      P1  H  7989  7998       L1    10  0.93
      P1  H  7997  8010       L1     5  1.00

> <Gold.PLP.Chemscore.Internal.Correction>
0.1202

> <Gold.Rescore>
     Score         DG    S(hbond)    S(metal)    S(lipo)     H(rot)  DE(clash)    DE(int)     intcor
     18.87     -20.94       2.53        0.00     118.36       2.67       0.53       1.55       ----

> <Gold.Chemscore.Fitness>
18.8659

> <Gold.Chemscore.DG>
-20.9426

> <Gold.Chemscore.ZeroCoef>
-5.4800

> <Gold.Chemscore.Hbond>
2.5306

> <Gold.Chemscore.Metal>
0.0000

> <Gold.Chemscore.Lipo>
118.3648

> <Gold.Chemscore.Internal_Hbond>
0.0000

> <Gold.Chemscore.DEClash>
0.5291

> <Gold.Chemscore.DEInternal>
1.5477

> <Gold.Chemscore.Rot>
2.6712

> <Gold.Chemscore.Internal.Correction>
   9.000000E+99

> <Gold.Chemscore.Hbonds>
donor molecule, donor type, donor heavy atom, donor atom, acceptor molecule, acceptor atom, score
      L1  H    10    31       P1  7957  0.88
      L1  H    12    48       P1  8028  0.64
      L1  H    17    41       P1 10174  0.33
      P1  H  7989  7998       L1    10  0.14
      P1  H  7997  8010       L1     5  0.16

> <Gold.Chemscore.Hbond.Weighted>
-8.4523

> <Gold.Chemscore.Metal.Weighted>
-0.0000

> <Gold.Chemscore.Lipo.Weighted>
-13.8487

> <Gold.Chemscore.Internal_Hbond.Weighted>
0.0000

> <Gold.Chemscore.DEClash.Weighted>
0.5291

> <Gold.Chemscore.DEInternal.Weighted>
1.5477

> <Gold.Chemscore.Rot.Weighted>
6.8383

> <Gold.Chemscore.Internal.Correction.Weighted>
   9.000000E+99

> <Gold.Protein.RotatedTorsions>
[ 6907 6896 6895 6894 ] final   75.21 input  -60.11 | X-H torsion
[ 7974 7965 7964 7962 ] final  -25.77 input  175.53 | X-H torsion
[ 8008 7997 7996 7995 ] final   57.19 input   59.86 | X-H torsion
[ 10167 10162 10161 10158 ] final  -20.30 input  -65.29 | X-H torsion
[ 10718 10713 10712 10709 ] final   63.14 input   66.30 | X-H torsion
[ 10763 10752 10751 10750 ] final  -24.49 input  -60.55 | X-H torsion
[ 11005 11000 10999 10996 ] final -161.13 input  -57.11 | X-H torsion

> <Gold.Protein.ActiveResidues>
 VAL166  LYS551  ARG553  GLY616  TRP617  ASP618  TYR619  PRO620  LYS621  CYS622 
 ASP623  PHE694  ASN695  SER759  ASP760  ASP761  ALA762  ILE779  LEU786  VAL792 
 PHE793  MET794  SER795  GLU796  ALA797  LYS798  CYS799  TRP800  GLU811  SER814 

> <Gold.Protein.RotatedAtoms>
  152.5014  134.4155  159.9462 H   0  0  0  0  0  0  0  0  0  0  0  0  # atno 6907 bound_to 6896
  151.4126  133.3716  159.2753 H   0  0  0  0  0  0  0  0  0  0  0  0  # atno 6908 bound_to 6896
  150.9281  134.8719  159.7592 H   0  0  0  0  0  0  0  0  0  0  0  0  # atno 6909 bound_to 6896
  146.1470  140.4930  142.8628 H   0  0  0  0  0  0  0  0  0  0  0  0  # atno 7974 bound_to 7965
  155.5297  140.3482  155.4423 H   0  0  0  0  0  0  0  0  0  0  0  0  # atno 8008 bound_to 7997
  156.0727  140.1367  156.9836 H   0  0  0  0  0  0  0  0  0  0  0  0  # atno 8009 bound_to 7997
  154.4536  140.0962  156.6668 H   0  0  0  0  0  0  0  0  0  0  0  0  # atno 8010 bound_to 7997
  140.7275  143.4736  151.0213 H   0  0  0  0  0  0  0  0  0  0  0  0  # atno 10167 bound_to 10162
  157.5950  130.9089  149.9677 H   0  0  0  0  0  0  0  0  0  0  0  0  # atno 10718 bound_to 10713
  153.6847  135.6965  153.5107 H   0  0  0  0  0  0  0  0  0  0  0  0  # atno 10763 bound_to 10752
  153.2458  135.4291  155.0745 H   0  0  0  0  0  0  0  0  0  0  0  0  # atno 10764 bound_to 10752
  154.8390  135.3519  154.6389 H   0  0  0  0  0  0  0  0  0  0  0  0  # atno 10765 bound_to 10752
  140.6238  134.4723  157.5225 H   0  0  0  0  0  0  0  0  0  0  0  0  # atno 11005 bound_to 11000
  144.7858  140.5933  143.6575 LP  0  0  0  0  0  0  0  0  0  0  0  0  # atno 17320 bound_to 7965
  145.4915  139.1488  143.3707 LP  0  0  0  0  0  0  0  0  0  0  0  0  # atno 17321 bound_to 7965
  139.8429  143.7539  152.3180 LP  0  0  0  0  0  0  0  0  0  0  0  0  # atno 17342 bound_to 10162
  139.7695  144.7481  151.0246 LP  0  0  0  0  0  0  0  0  0  0  0  0  # atno 17343 bound_to 10162
  156.1011  130.3656  150.0216 LP  0  0  0  0  0  0  0  0  0  0  0  0  # atno 17370 bound_to 10713
  156.8332  130.9399  151.3636 LP  0  0  0  0  0  0  0  0  0  0  0  0  # atno 17371 bound_to 10713
  139.9143  134.8279  156.1420 LP  0  0  0  0  0  0  0  0  0  0  0  0  # atno 17394 bound_to 11000
  141.0724  133.6791  156.2167 LP  0  0  0  0  0  0  0  0  0  0  0  0  # atno 17395 bound_to 11000

$$$$
