AV-unprocessed.smi:1242|AV-procd|sdf|5217|dock2
  -GOLD-   22720 4313D 1   1.00000     0.00000
 Structure written by MMmdl.
 39 40  0  0  0  0  0  0  0  0  1 V2000
  149.2958  141.1114  157.6841 O   0  0  0  0  0  0  0  0  0  0  0  0
  150.0153  141.7133  156.8858 C   0  0  0  0  0  0  0  0  0  0  0  0
  151.1392  142.6328  157.3824 C   0  0  0  0  0  0  0  0  0  0  0  0
  151.8989  142.0577  158.5048 N   0  0  0  0  0  0  0  0  0  0  0  0
  151.9180  142.7870  159.7100 C   0  0  0  0  0  0  0  0  0  0  0  0
  152.5609  142.3612  160.8143 C   0  0  0  0  0  0  0  0  0  0  0  0
  152.6056  143.1935  162.0862 C   0  0  0  0  0  0  0  0  0  0  0  0
  151.4239  143.1897  162.7037 F   0  0  0  0  0  0  0  0  0  0  0  0
  153.5228  142.7284  162.9353 F   0  0  0  0  0  0  0  0  0  0  0  0
  152.9155  144.4551  161.7911 F   0  0  0  0  0  0  0  0  0  0  0  0
  153.2792  141.1073  160.6992 C   0  0  0  0  0  0  0  0  0  0  0  0
  153.2756  140.4001  159.5525 C   0  0  0  0  0  0  0  0  0  0  0  0
  152.5504  140.8640  158.3677 C   0  0  0  0  0  0  0  0  0  0  0  0
  152.5319  140.2215  157.3175 O   0  0  0  0  0  0  0  0  0  0  0  0
  149.8669  141.6296  155.5540 N   0  0  0  0  0  0  0  0  0  0  0  0
  148.8795  140.8003  154.8591 C   0  0  1  0  0  0  0  0  0  0  0  0
  148.2257  141.6727  153.7630 C   0  0  0  0  0  0  0  0  0  0  0  0
  146.8436  141.1697  153.3111 C   0  0  0  0  0  0  0  0  0  0  0  0
  146.8472  139.8032  152.6095 C   0  0  0  0  0  0  0  0  0  0  0  0
  147.3376  138.6509  153.5023 C   0  0  0  0  0  0  0  0  0  0  0  0
  148.7888  138.6359  153.6301 N   0  0  0  0  0  0  0  0  0  0  0  0
  149.5578  139.5768  154.1987 C   0  0  0  0  0  0  0  0  0  0  0  0
  150.7838  139.4663  154.1890 O   0  0  0  0  0  0  0  0  0  0  0  0
  151.8132  142.8675  156.5561 H   0  0  0  0  0  0  0  0  0  0  0  0
  150.6945  143.5874  157.6667 H   0  0  0  0  0  0  0  0  0  0  0  0
  151.3687  143.7170  159.6813 H   0  0  0  0  0  0  0  0  0  0  0  0
  153.8252  140.7248  161.5488 H   0  0  0  0  0  0  0  0  0  0  0  0
  153.8192  139.4679  159.5039 H   0  0  0  0  0  0  0  0  0  0  0  0
  150.5037  142.1562  154.9743 H   0  0  0  0  0  0  0  0  0  0  0  0
  148.1256  140.4698  155.5759 H   0  0  0  0  0  0  0  0  0  0  0  0
  148.0845  142.6831  154.1504 H   0  0  0  0  0  0  0  0  0  0  0  0
  148.8883  141.7818  152.9026 H   0  0  0  0  0  0  0  0  0  0  0  0
  146.1732  141.1340  154.1706 H   0  0  0  0  0  0  0  0  0  0  0  0
  146.4129  141.9051  152.6309 H   0  0  0  0  0  0  0  0  0  0  0  0
  145.8271  139.5835  152.2929 H   0  0  0  0  0  0  0  0  0  0  0  0
  147.4396  139.8501  151.6948 H   0  0  0  0  0  0  0  0  0  0  0  0
  146.8658  138.6832  154.4853 H   0  0  0  0  0  0  0  0  0  0  0  0
  147.0460  137.7010  153.0537 H   0  0  0  0  0  0  0  0  0  0  0  0
  149.2632  137.8447  153.2193 H   0  0  0  0  0  0  0  0  0  0  0  0
  1  2  2  0  0  0  0
  2  3  1  0  0  0  0
  2 15  1  0  0  0  0
  3  4  1  0  0  0  0
  3 24  1  0  0  0  0
  3 25  1  0  0  0  0
  4 13  1  0  0  0  0
  4  5  1  0  0  0  0
  5  6  2  0  0  0  0
  5 26  1  0  0  0  0
  6  7  1  0  0  0  0
  6 11  1  0  0  0  0
  7  8  1  0  0  0  0
  7  9  1  0  0  0  0
  7 10  1  0  0  0  0
 11 12  2  0  0  0  0
 11 27  1  0  0  0  0
 12 13  1  0  0  0  0
 12 28  1  0  0  0  0
 13 14  2  0  0  0  0
 15 16  1  0  0  0  0
 15 29  1  0  0  0  0
 16 22  1  0  0  0  0
 16 17  1  0  0  0  0
 16 30  1  0  0  0  0
 17 18  1  0  0  0  0
 17 31  1  0  0  0  0
 17 32  1  0  0  0  0
 18 19  1  0  0  0  0
 18 33  1  0  0  0  0
 18 34  1  0  0  0  0
 19 20  1  0  0  0  0
 19 35  1  0  0  0  0
 19 36  1  0  0  0  0
 20 21  1  0  0  0  0
 20 37  1  0  0  0  0
 20 38  1  0  0  0  0
 21 22  1  0  0  0  0
 21 39  1  0  0  0  0
 22 23  2  0  0  0  0
M  END
> <s_m_source_file>
AV-unprocessed.smi

> <i_m_source_file_index>
1242

> <i_lp_mmshare_version>
43012

> <i_f3d_flags>
0

> <s_epik_input>
Tz1jMVtjSF1bY0hdYyhDKEYpKEYpRilbY0hdbjFbQ0gyXUMoPU8pW05IXVtDQEBIXTJbQ0gyXVtDSDJdW0NIMl1bQ0gyXVtOSF1DMj1P

> <s_epik_cmdline>
J2VwaWtfcHl0aG9uJywgJy1waCcsICc3LjAnLCAnLXRuJywgJzgnLCAnLW1hJywgJzIwMCcsICctbWV0YWxfYmluZGluZycsICctaW1hZScsICc8aW5maWxlLm1hZT4nLCAnLW9tYWUnLCAnPG91dGZpbGUubWFlPic=

> <r_lp_tautomer_probability>
1

> <r_epik_Ionization_Penalty>
6.92876e-08

> <r_epik_Ionization_Penalty_Charging>
1.59659e-08

> <r_epik_Ionization_Penalty_Neutral>
5.33217e-08

> <r_epik_State_Penalty>
-0

> <r_epik_Charging_Adjusted_Penalty>
1.59659e-08

> <i_epik_Tot_Q>
0

> <i_epik_Tot_abs_Q>
0

> <r_epik_Metal_State_Penalty>
-0

> <b_epik_Metal_Only>
0

> <s_lp_Force_Field>
OPLS_2005

> <r_lp_Energy>
23.3592

> <b_lp_Chiralities_Consistent>
1

> <s_lp_Variant>
AV-unprocessed.smi:1242-2

> <Gold.Version>
5.8.1

> <Gold.Id.Protein>
6NUR|6NUR_protein|mol2

> <Gold.PLP.Fitness>
42.4733

> <Gold.PLP.PLP>
-35.6006

> <Gold.PLP.part.hbond>
-4.1747

> <Gold.PLP.part.metal>
0.0000

> <Gold.PLP.part.buried>
8.4838

> <Gold.PLP.part.nonpolar>
-37.5410

> <Gold.PLP.part.repulsive>
0.3988

> <Gold.PLP.ligand.clash>
0.0000

> <Gold.PLP.ligand.torsion>
0.7602

> <Gold.PLP.Chemscore.Hbond>
2.7862

> <Gold.PLP.Chemscore.CHOScore>
0.0000

> <Gold.PLP.Chemscore.Metal>
0.0000

> <Gold.Chemscore.Hbonds>
donor molecule, donor type, donor heavy atom, donor atom, acceptor molecule, acceptor atom, score
      L1  H    21    39       P1  7948  0.70
      P1  H  7989  7998       L1    23  1.00
      P1  H  7997  8009       L1    14  1.00

> <Gold.PLP.Chemscore.Internal.Correction>
0.0345

> <Gold.Rescore>
     Score         DG    S(hbond)    S(metal)    S(lipo)     H(rot)  DE(clash)    DE(int)     intcor
     15.18     -20.25       2.36        0.00      96.59       1.72       3.40       1.67       ----

> <Gold.Chemscore.Fitness>
15.1761

> <Gold.Chemscore.DG>
-20.2538

> <Gold.Chemscore.ZeroCoef>
-5.4800

> <Gold.Chemscore.Hbond>
2.3589

> <Gold.Chemscore.Metal>
0.0000

> <Gold.Chemscore.Lipo>
96.5927

> <Gold.Chemscore.Internal_Hbond>
0.0000

> <Gold.Chemscore.DEClash>
3.4031

> <Gold.Chemscore.DEInternal>
1.6746

> <Gold.Chemscore.Rot>
1.7212

> <Gold.Chemscore.Internal.Correction>
   9.000000E+99

> <Gold.Chemscore.Hbonds>
donor molecule, donor type, donor heavy atom, donor atom, acceptor molecule, acceptor atom, score
      L1  H    21    39       P1  7948  0.67
      P1  H  7989  7998       L1    23  0.88
      P1  H  7997  8009       L1    14  0.57

> <Gold.Chemscore.Hbond.Weighted>
-7.8787

> <Gold.Chemscore.Metal.Weighted>
-0.0000

> <Gold.Chemscore.Lipo.Weighted>
-11.3013

> <Gold.Chemscore.Internal_Hbond.Weighted>
0.0000

> <Gold.Chemscore.DEClash.Weighted>
3.4031

> <Gold.Chemscore.DEInternal.Weighted>
1.6746

> <Gold.Chemscore.Rot.Weighted>
4.4062

> <Gold.Chemscore.Internal.Correction.Weighted>
   9.000000E+99

> <Gold.Protein.RotatedTorsions>
[ 6907 6896 6895 6894 ] final  -81.67 input  -60.11 | X-H torsion
[ 7974 7965 7964 7962 ] final -114.82 input  175.53 | X-H torsion
[ 8008 7997 7996 7995 ] final  178.49 input   59.86 | X-H torsion
[ 10167 10162 10161 10158 ] final -150.35 input  -65.29 | X-H torsion
[ 10718 10713 10712 10709 ] final   -0.29 input   66.30 | X-H torsion
[ 10763 10752 10751 10750 ] final  -32.35 input  -60.55 | X-H torsion
[ 11005 11000 10999 10996 ] final  159.15 input  -57.11 | X-H torsion

> <Gold.Protein.ActiveResidues>
 VAL166  LYS551  ARG553  GLY616  TRP617  ASP618  TYR619  PRO620  LYS621  CYS622 
 ASP623  PHE694  ASN695  SER759  ASP760  ASP761  ALA762  ILE779  LEU786  VAL792 
 PHE793  MET794  SER795  GLU796  ALA797  LYS798  CYS799  TRP800  GLU811  SER814 

> <Gold.Protein.RotatedAtoms>
  150.6908  134.3782  159.5022 H   0  0  0  0  0  0  0  0  0  0  0  0  # atno 6907 bound_to 6896
  152.1588  134.8926  160.0552 H   0  0  0  0  0  0  0  0  0  0  0  0  # atno 6908 bound_to 6896
  151.9995  133.3785  159.4213 H   0  0  0  0  0  0  0  0  0  0  0  0  # atno 6909 bound_to 6896
  145.1156  140.8638  143.3844 H   0  0  0  0  0  0  0  0  0  0  0  0  # atno 7974 bound_to 7965
  156.0541  140.1332  157.0017 H   0  0  0  0  0  0  0  0  0  0  0  0  # atno 8008 bound_to 7997
  154.4449  140.1005  156.6490 H   0  0  0  0  0  0  0  0  0  0  0  0  # atno 8009 bound_to 7997
  155.5478  140.3462  155.4464 H   0  0  0  0  0  0  0  0  0  0  0  0  # atno 8010 bound_to 7997
  139.7362  143.8732  152.2549 H   0  0  0  0  0  0  0  0  0  0  0  0  # atno 10167 bound_to 10162
  156.8226  130.5461  149.5695 H   0  0  0  0  0  0  0  0  0  0  0  0  # atno 10718 bound_to 10713
  153.8124  135.6881  153.4839 H   0  0  0  0  0  0  0  0  0  0  0  0  # atno 10763 bound_to 10752
  153.1620  135.4576  154.9784 H   0  0  0  0  0  0  0  0  0  0  0  0  # atno 10764 bound_to 10752
  154.7962  135.3320  154.7603 H   0  0  0  0  0  0  0  0  0  0  0  0  # atno 10765 bound_to 10752
  140.1934  134.8390  157.2938 H   0  0  0  0  0  0  0  0  0  0  0  0  # atno 11005 bound_to 11000
  145.0797  139.2969  143.5789 LP  0  0  0  0  0  0  0  0  0  0  0  0  # atno 17320 bound_to 7965
  146.3524  140.0300  142.8651 LP  0  0  0  0  0  0  0  0  0  0  0  0  # atno 17321 bound_to 7965
  139.8669  144.7088  150.9033 LP  0  0  0  0  0  0  0  0  0  0  0  0  # atno 17342 bound_to 10162
  140.7779  143.3770  151.1544 LP  0  0  0  0  0  0  0  0  0  0  0  0  # atno 17343 bound_to 10162
  156.0980  130.5947  150.9846 LP  0  0  0  0  0  0  0  0  0  0  0  0  # atno 17370 bound_to 10713
  157.6449  131.0905  150.8175 LP  0  0  0  0  0  0  0  0  0  0  0  0  # atno 17371 bound_to 10713
  140.2134  134.4111  155.7601 LP  0  0  0  0  0  0  0  0  0  0  0  0  # atno 17394 bound_to 11000
  141.2226  133.7129  156.8374 LP  0  0  0  0  0  0  0  0  0  0  0  0  # atno 17395 bound_to 11000

$$$$
