AV-unprocessed.smi:1509|AV-procd|sdf|6090|dock6
  -GOLD-   22720 6213D 1   1.00000     0.00000
 Structure written by MMmdl.
 42 43  0  0  0  0  0  0  0  0  2 V2000
  153.1922  141.9589  161.2702 C   0  0  0  0  0  0  0  0  0  0  0  0
  152.9852  142.3901  159.8112 C   0  0  2  0  0  0  0  0  0  0  0  0
  152.8668  143.9183  159.6888 C   0  0  0  0  0  0  0  0  0  0  0  0
  152.6356  144.3169  158.2262 C   0  0  0  0  0  0  0  0  0  0  0  0
  151.4136  143.5889  157.6445 C   0  0  0  0  0  0  0  0  0  0  0  0
  151.5550  142.1153  157.7723 N   0  3  2  0  0  0  0  0  0  0  0  0
  150.4486  141.3873  157.1003 C   0  0  0  0  0  0  0  0  0  0  0  0
  150.3972  141.6557  155.5863 C   0  0  0  0  0  0  0  0  0  0  0  0
  148.9851  141.4593  155.0096 C   0  0  0  0  0  0  0  0  0  0  0  0
  147.9836  142.2087  155.7594 N   0  0  0  0  0  0  0  0  0  0  0  0
  146.9484  141.6635  156.4174 C   0  0  0  0  0  0  0  0  0  0  0  0
  146.7224  140.4538  156.4383 O   0  0  0  0  0  0  0  0  0  0  0  0
  146.0306  142.6264  157.1719 C   0  0  0  0  0  0  0  0  0  0  0  0
  146.3939  142.6976  158.5748 N   0  0  0  0  0  0  0  0  0  0  0  0
  147.3952  143.3296  159.1909 C   0  0  0  0  0  0  0  0  0  0  0  0
  147.3687  143.1295  160.4997 N   0  0  0  0  0  0  0  0  0  0  0  0
  146.2620  142.3145  160.6706 N   0  0  0  0  0  0  0  0  0  0  0  0
  145.6793  142.0553  159.5321 N   0  0  0  0  0  0  0  0  0  0  0  0
  151.7497  141.7071  159.1903 C   0  0  0  0  0  0  0  0  0  0  0  0
  152.3436  142.2439  161.8928 H   0  0  0  0  0  0  0  0  0  0  0  0
  154.0850  142.4203  161.6931 H   0  0  0  0  0  0  0  0  0  0  0  0
  153.3136  140.8780  161.3476 H   0  0  0  0  0  0  0  0  0  0  0  0
  153.8644  142.0728  159.2480 H   0  0  0  0  0  0  0  0  0  0  0  0
  152.0403  144.2794  160.3028 H   0  0  0  0  0  0  0  0  0  0  0  0
  153.7694  144.4002  160.0661 H   0  0  0  0  0  0  0  0  0  0  0  0
  152.4970  145.3959  158.1522 H   0  0  0  0  0  0  0  0  0  0  0  0
  153.5212  144.0778  157.6359 H   0  0  0  0  0  0  0  0  0  0  0  0
  150.5036  143.9143  158.1516 H   0  0  0  0  0  0  0  0  0  0  0  0
  151.3062  143.8605  156.5937 H   0  0  0  0  0  0  0  0  0  0  0  0
  150.5304  140.3182  157.3028 H   0  0  0  0  0  0  0  0  0  0  0  0
  149.4977  141.7082  157.5280 H   0  0  0  0  0  0  0  0  0  0  0  0
  150.7310  142.6749  155.3864 H   0  0  0  0  0  0  0  0  0  0  0  0
  151.0893  140.9963  155.0638 H   0  0  0  0  0  0  0  0  0  0  0  0
  148.9565  141.7523  153.9587 H   0  0  0  0  0  0  0  0  0  0  0  0
  148.7123  140.4043  155.0444 H   0  0  0  0  0  0  0  0  0  0  0  0
  148.0944  143.2120  155.7949 H   0  0  0  0  0  0  0  0  0  0  0  0
  146.0846  143.6292  156.7455 H   0  0  0  0  0  0  0  0  0  0  0  0
  144.9957  142.2931  157.0805 H   0  0  0  0  0  0  0  0  0  0  0  0
  148.1383  143.9283  158.6848 H   0  0  0  0  0  0  0  0  0  0  0  0
  151.8758  140.6270  159.2551 H   0  0  0  0  0  0  0  0  0  0  0  0
  150.8546  141.9531  159.7644 H   0  0  0  0  0  0  0  0  0  0  0  0
  152.4010  141.8719  157.2770 H   0  0  0  0  0  0  0  0  0  0  0  0
  1  2  1  0  0  0  0
  1 20  1  0  0  0  0
  1 21  1  0  0  0  0
  1 22  1  0  0  0  0
  2 19  1  0  0  0  0
  2  3  1  0  0  0  0
  2 23  1  0  0  0  0
  3  4  1  0  0  0  0
  3 24  1  0  0  0  0
  3 25  1  0  0  0  0
  4  5  1  0  0  0  0
  4 26  1  0  0  0  0
  4 27  1  0  0  0  0
  5  6  1  0  0  0  0
  5 28  1  0  0  0  0
  5 29  1  0  0  0  0
  6  7  1  0  0  0  0
  6 19  1  0  0  0  0
  6 42  1  0  0  0  0
  7  8  1  0  0  0  0
  7 30  1  0  0  0  0
  7 31  1  0  0  0  0
  8  9  1  0  0  0  0
  8 32  1  0  0  0  0
  8 33  1  0  0  0  0
  9 10  1  0  0  0  0
  9 34  1  0  0  0  0
  9 35  1  0  0  0  0
 10 11  1  0  0  0  0
 10 36  1  0  0  0  0
 11 12  2  0  0  0  0
 11 13  1  0  0  0  0
 13 14  1  0  0  0  0
 13 37  1  0  0  0  0
 13 38  1  0  0  0  0
 14 18  1  0  0  0  0
 14 15  1  0  0  0  0
 15 16  2  0  0  0  0
 15 39  1  0  0  0  0
 16 17  1  0  0  0  0
 17 18  2  0  0  0  0
 19 40  1  0  0  0  0
 19 41  1  0  0  0  0
M  CHG  1   6   1
M  END
> <s_m_source_file>
AV-unprocessed.smi

> <i_m_source_file_index>
1509

> <i_lp_mmshare_version>
43012

> <i_f3d_flags>
0

> <s_epik_input>
W0NIM11bQ0BASF0xW0NIMl1bQ0gyXVtDSDJdTihbQ0gyXTEpW0NIMl1bQ0gyXVtDSDJdW05IXUMoPU8pW0NIMl1uMltjSF1ubm4y

> <s_epik_cmdline>
J2VwaWtfcHl0aG9uJywgJy1waCcsICc3LjAnLCAnLXRuJywgJzgnLCAnLW1hJywgJzIwMCcsICctbWV0YWxfYmluZGluZycsICctaW1hZScsICc8aW5maWxlLm1hZT4nLCAnLW9tYWUnLCAnPG91dGZpbGUubWFlPic=

> <r_lp_tautomer_probability>
1

> <r_epik_Ionization_Penalty>
0.00044216

> <r_epik_Ionization_Penalty_Charging>
0.000440775

> <r_epik_Ionization_Penalty_Neutral>
1.38512e-06

> <r_epik_State_Penalty>
0.000271914

> <r_epik_Charging_Adjusted_Penalty>
0.000712689

> <i_epik_Tot_Q>
1

> <i_epik_Tot_abs_Q>
1

> <r_epik_Metal_State_Penalty>
-0

> <b_epik_Metal_Only>
0

> <s_lp_Force_Field>
OPLS_2005

> <r_lp_Energy>
19.8667

> <b_lp_Chiralities_Consistent>
1

> <s_lp_Variant>
AV-unprocessed.smi:1509-1

> <Gold.Version>
5.8.1

> <Gold.Id.Protein>
6NUR|6NUR_protein|mol2

> <Gold.PLP.Fitness>
47.9987

> <Gold.PLP.PLP>
-38.1700

> <Gold.PLP.part.hbond>
-4.7170

> <Gold.PLP.part.metal>
0.0000

> <Gold.PLP.part.buried>
-4.0101

> <Gold.PLP.part.nonpolar>
-29.4608

> <Gold.PLP.part.repulsive>
0.1607

> <Gold.PLP.ligand.clash>
0.0000

> <Gold.PLP.ligand.torsion>
0.7362

> <Gold.PLP.Chemscore.Hbond>
2.7500

> <Gold.PLP.Chemscore.CHOScore>
1.0000

> <Gold.PLP.Chemscore.Metal>
0.0000

> <Gold.Chemscore.Hbonds>
donor molecule, donor type, donor heavy atom, donor atom, acceptor molecule, acceptor atom, score
      L1  H    10    36       P1  8028  1.00
      P1  H  6933  6944       L1    16  1.00
      P1  H  6934  6946       L1    17  0.60
      L1  C    15    39       P1  8029  1.00

> <Gold.PLP.Chemscore.Internal.Correction>
0.0511

> <Gold.Rescore>
     Score         DG    S(hbond)    S(metal)    S(lipo)     H(rot)  DE(clash)    DE(int)     intcor
     13.95     -14.60       1.73        0.00      93.50       2.97       0.11       0.55       ----

> <Gold.Chemscore.Fitness>
13.9479

> <Gold.Chemscore.DG>
-14.6021

> <Gold.Chemscore.ZeroCoef>
-5.4800

> <Gold.Chemscore.Hbond>
1.7308

> <Gold.Chemscore.Metal>
0.0000

> <Gold.Chemscore.Lipo>
93.4977

> <Gold.Chemscore.Internal_Hbond>
0.0000

> <Gold.Chemscore.DEClash>
0.1089

> <Gold.Chemscore.DEInternal>
0.5453

> <Gold.Chemscore.Rot>
2.9680

> <Gold.Chemscore.Internal.Correction>
   9.000000E+99

> <Gold.Chemscore.Hbonds>
donor molecule, donor type, donor heavy atom, donor atom, acceptor molecule, acceptor atom, score
      L1  H    10    36       P1  8028  0.70
      P1  H  6933  6944       L1    16  0.30
      P1  H  6934  6946       L1    17  0.02

> <Gold.Chemscore.Hbond.Weighted>
-5.7808

> <Gold.Chemscore.Metal.Weighted>
-0.0000

> <Gold.Chemscore.Lipo.Weighted>
-10.9392

> <Gold.Chemscore.Internal_Hbond.Weighted>
0.0000

> <Gold.Chemscore.DEClash.Weighted>
0.1089

> <Gold.Chemscore.DEInternal.Weighted>
0.5453

> <Gold.Chemscore.Rot.Weighted>
7.5980

> <Gold.Chemscore.Internal.Correction.Weighted>
   9.000000E+99

> <Gold.Protein.RotatedTorsions>
[ 6907 6896 6895 6894 ] final  134.95 input  -60.11 | X-H torsion
[ 7974 7965 7964 7962 ] final   70.54 input  175.53 | X-H torsion
[ 8008 7997 7996 7995 ] final  -10.35 input   59.86 | X-H torsion
[ 10167 10162 10161 10158 ] final -171.07 input  -65.29 | X-H torsion
[ 10718 10713 10712 10709 ] final   75.02 input   66.30 | X-H torsion
[ 10763 10752 10751 10750 ] final  -14.18 input  -60.55 | X-H torsion
[ 11005 11000 10999 10996 ] final  -32.67 input  -57.11 | X-H torsion

> <Gold.Protein.ActiveResidues>
 VAL166  LYS551  ARG553  GLY616  TRP617  ASP618  TYR619  PRO620  LYS621  CYS622 
 ASP623  PHE694  ASN695  SER759  ASP760  ASP761  ALA762  ILE779  LEU786  VAL792 
 PHE793  MET794  SER795  GLU796  ALA797  LYS798  CYS799  TRP800  GLU811  SER814 

> <Gold.Protein.RotatedAtoms>
  152.3058  133.5701  159.5647 H   0  0  0  0  0  0  0  0  0  0  0  0  # atno 6907 bound_to 6896
  150.7299  134.0225  159.3715 H   0  0  0  0  0  0  0  0  0  0  0  0  # atno 6908 bound_to 6896
  151.8122  135.0678  160.0465 H   0  0  0  0  0  0  0  0  0  0  0  0  # atno 6909 bound_to 6896
  145.7769  139.2869  143.1288 H   0  0  0  0  0  0  0  0  0  0  0  0  # atno 7974 bound_to 7965
  154.5562  140.2331  155.8406 H   0  0  0  0  0  0  0  0  0  0  0  0  # atno 8008 bound_to 7997
  156.1990  140.3057  155.9448 H   0  0  0  0  0  0  0  0  0  0  0  0  # atno 8009 bound_to 7997
  155.2975  140.0429  157.3018 H   0  0  0  0  0  0  0  0  0  0  0  0  # atno 8010 bound_to 7997
  139.5824  144.1394  152.1532 H   0  0  0  0  0  0  0  0  0  0  0  0  # atno 10167 bound_to 10162
  157.6617  130.9706  150.1294 H   0  0  0  0  0  0  0  0  0  0  0  0  # atno 10718 bound_to 10713
  153.5245  135.7015  153.5715 H   0  0  0  0  0  0  0  0  0  0  0  0  # atno 10763 bound_to 10752
  153.3749  135.3935  155.1815 H   0  0  0  0  0  0  0  0  0  0  0  0  # atno 10764 bound_to 10752
  154.8691  135.3821  154.4736 H   0  0  0  0  0  0  0  0  0  0  0  0  # atno 10765 bound_to 10752
  140.9572  133.7186  156.1311 H   0  0  0  0  0  0  0  0  0  0  0  0  # atno 11005 bound_to 11000
  146.0114  140.8432  142.9969 LP  0  0  0  0  0  0  0  0  0  0  0  0  # atno 17320 bound_to 7965
  144.6803  140.2495  143.7333 LP  0  0  0  0  0  0  0  0  0  0  0  0  # atno 17321 bound_to 7965
  140.0950  144.5589  150.7028 LP  0  0  0  0  0  0  0  0  0  0  0  0  # atno 17342 bound_to 10162
  140.7100  143.2498  151.4609 LP  0  0  0  0  0  0  0  0  0  0  0  0  # atno 17343 bound_to 10162
  156.2145  130.3669  149.8630 LP  0  0  0  0  0  0  0  0  0  0  0  0  # atno 17370 bound_to 10713
  156.6500  130.8739  151.3529 LP  0  0  0  0  0  0  0  0  0  0  0  0  # atno 17371 bound_to 10713
  140.7520  134.4035  157.5540 LP  0  0  0  0  0  0  0  0  0  0  0  0  # atno 17394 bound_to 11000
  139.8866  134.8905  156.2576 LP  0  0  0  0  0  0  0  0  0  0  0  0  # atno 17395 bound_to 11000

$$$$
