AV-unprocessed.smi:284|AV-procd|sdf|2162|dock7
  -GOLD-   2262021513D 1   1.00000     0.00000
 Structure written by MMmdl.
 60 62  0  0  0  0  0  0  0  0  1 V2000
  146.5037  137.1382  154.4167 C   0  0  0  0  0  0  0  0  0  0  0  0
  147.8773  136.6637  154.8658 C   0  0  0  0  0  0  0  0  0  0  0  0
  148.0755  135.4361  155.3991 C   0  0  0  0  0  0  0  0  0  0  0  0
  149.3112  134.9653  155.8150 N   0  0  0  0  0  0  0  0  0  0  0  0
  149.5309  133.5476  156.3280 C   0  0  1  0  0  0  0  0  0  0  0  0
  148.2564  132.8102  156.7650 C   0  0  0  0  0  0  0  0  0  0  0  0
  147.9694  131.8741  155.5908 C   0  0  1  0  0  0  0  0  0  0  0  0
  146.6545  132.0577  155.1060 O   0  0  0  0  0  0  0  0  0  0  0  0
  149.0233  132.2408  154.5304 C   0  0  2  0  0  0  0  0  0  0  0  0
  149.5484  131.0541  153.7086 C   0  0  0  0  0  0  0  0  0  0  0  0
  148.5269  130.5378  152.8819 O   0  0  0  0  0  0  0  0  0  0  0  0
  150.0843  132.7918  155.2996 O   0  0  0  0  0  0  0  0  0  0  0  0
  150.4543  135.7644  155.5966 C   0  0  0  0  0  0  0  0  0  0  0  0
  151.5814  135.3422  155.8670 O   0  0  0  0  0  0  0  0  0  0  0  0
  150.2806  137.0595  155.0586 N   0  0  0  0  0  0  0  0  0  0  0  0
  151.4824  137.8946  154.8383 C   0  0  0  0  0  0  0  0  0  0  0  0
  151.3464  139.3122  155.4162 C   0  0  0  0  0  0  0  0  0  0  0  0
  151.0130  140.2482  154.6890 O   0  0  0  0  0  0  0  0  0  0  0  0
  151.5725  139.4161  156.7386 N   0  0  0  0  0  0  0  0  0  0  0  0
  151.5643  140.5774  157.5585 C   0  0  0  0  0  0  0  0  0  0  0  0
  152.0772  140.6158  158.8757 C   0  0  0  0  0  0  0  0  0  0  0  0
  152.0104  141.8012  159.6331 C   0  0  0  0  0  0  0  0  0  0  0  0
  151.4226  142.9748  159.1003 C   0  0  0  0  0  0  0  0  0  0  0  0
  151.3270  144.2874  159.9015 C   0  0  0  0  0  0  0  0  0  0  0  0
  152.0645  145.4143  159.1479 C   0  0  0  0  0  0  0  0  0  0  0  0
  151.9540  144.1819  161.3103 C   0  0  0  0  0  0  0  0  0  0  0  0
  149.8444  144.6765  160.0753 C   0  0  0  0  0  0  0  0  0  0  0  0
  150.8983  142.9191  157.7876 C   0  0  0  0  0  0  0  0  0  0  0  0
  150.9647  141.7359  157.0285 C   0  0  0  0  0  0  0  0  0  0  0  0
  149.0142  137.5669  154.6815 C   0  0  0  0  0  0  0  0  0  0  0  0
  148.9049  138.7012  154.2117 O   0  0  0  0  0  0  0  0  0  0  0  0
  145.7300  136.3968  154.6184 H   0  0  0  0  0  0  0  0  0  0  0  0
  146.5029  137.3373  153.3444 H   0  0  0  0  0  0  0  0  0  0  0  0
  146.2270  138.0561  154.9366 H   0  0  0  0  0  0  0  0  0  0  0  0
  147.2103  134.7990  155.4785 H   0  0  0  0  0  0  0  0  0  0  0  0
  150.2260  133.6455  157.1633 H   0  0  0  0  0  0  0  0  0  0  0  0
  148.4921  132.2193  157.6506 H   0  0  0  0  0  0  0  0  0  0  0  0
  147.4510  133.4910  157.0401 H   0  0  0  0  0  0  0  0  0  0  0  0
  148.0922  130.8397  155.9144 H   0  0  0  0  0  0  0  0  0  0  0  0
  146.6681  131.9880  154.1635 H   0  0  0  0  0  0  0  0  0  0  0  0
  148.6524  133.0209  153.8631 H   0  0  0  0  0  0  0  0  0  0  0  0
  150.3724  131.3757  153.0715 H   0  0  0  0  0  0  0  0  0  0  0  0
  149.9321  130.2659  154.3572 H   0  0  0  0  0  0  0  0  0  0  0  0
  148.3281  129.6578  153.1632 H   0  0  0  0  0  0  0  0  0  0  0  0
  152.3757  137.4384  155.2671 H   0  0  0  0  0  0  0  0  0  0  0  0
  151.7078  137.9590  153.7721 H   0  0  0  0  0  0  0  0  0  0  0  0
  151.7360  138.5468  157.2256 H   0  0  0  0  0  0  0  0  0  0  0  0
  152.5139  139.7439  159.3371 H   0  0  0  0  0  0  0  0  0  0  0  0
  152.4169  141.7754  160.6319 H   0  0  0  0  0  0  0  0  0  0  0  0
  152.0349  146.3499  159.7073 H   0  0  0  0  0  0  0  0  0  0  0  0
  151.6239  145.6151  158.1714 H   0  0  0  0  0  0  0  0  0  0  0  0
  153.1135  145.1611  158.9891 H   0  0  0  0  0  0  0  0  0  0  0  0
  153.0129  143.9248  161.2618 H   0  0  0  0  0  0  0  0  0  0  0  0
  151.4503  143.4325  161.9222 H   0  0  0  0  0  0  0  0  0  0  0  0
  151.8807  145.1287  161.8468 H   0  0  0  0  0  0  0  0  0  0  0  0
  149.7407  145.5973  160.6504 H   0  0  0  0  0  0  0  0  0  0  0  0
  149.2920  143.8975  160.6019 H   0  0  0  0  0  0  0  0  0  0  0  0
  149.3487  144.8399  159.1181 H   0  0  0  0  0  0  0  0  0  0  0  0
  150.4333  143.7885  157.3480 H   0  0  0  0  0  0  0  0  0  0  0  0
  150.5532  141.7239  156.0297 H   0  0  0  0  0  0  0  0  0  0  0  0
  1  2  1  0  0  0  0
  1 32  1  0  0  0  0
  1 33  1  0  0  0  0
  1 34  1  0  0  0  0
  2 30  1  0  0  0  0
  2  3  2  0  0  0  0
  3  4  1  0  0  0  0
  3 35  1  0  0  0  0
  4  5  1  0  0  0  0
  4 13  1  0  0  0  0
  5 12  1  0  0  0  0
  5  6  1  0  0  0  0
  5 36  1  0  0  0  0
  6  7  1  0  0  0  0
  6 37  1  0  0  0  0
  6 38  1  0  0  0  0
  7  8  1  0  0  0  0
  7  9  1  0  0  0  0
  7 39  1  0  0  0  0
  8 40  1  0  0  0  0
  9 10  1  0  0  0  0
  9 12  1  0  0  0  0
  9 41  1  0  0  0  0
 10 11  1  0  0  0  0
 10 42  1  0  0  0  0
 10 43  1  0  0  0  0
 11 44  1  0  0  0  0
 13 14  2  0  0  0  0
 13 15  1  0  0  0  0
 15 16  1  0  0  0  0
 15 30  1  0  0  0  0
 16 17  1  0  0  0  0
 16 45  1  0  0  0  0
 16 46  1  0  0  0  0
 17 18  2  0  0  0  0
 17 19  1  0  0  0  0
 19 20  1  0  0  0  0
 19 47  1  0  0  0  0
 20 29  1  0  0  0  0
 20 21  2  0  0  0  0
 21 22  1  0  0  0  0
 21 48  1  0  0  0  0
 22 23  2  0  0  0  0
 22 49  1  0  0  0  0
 23 24  1  0  0  0  0
 23 28  1  0  0  0  0
 24 25  1  0  0  0  0
 24 26  1  0  0  0  0
 24 27  1  0  0  0  0
 25 50  1  0  0  0  0
 25 51  1  0  0  0  0
 25 52  1  0  0  0  0
 26 53  1  0  0  0  0
 26 54  1  0  0  0  0
 26 55  1  0  0  0  0
 27 56  1  0  0  0  0
 27 57  1  0  0  0  0
 27 58  1  0  0  0  0
 28 29  2  0  0  0  0
 28 59  1  0  0  0  0
 29 60  1  0  0  0  0
 30 31  2  0  0  0  0
M  END
> <s_m_source_file>
AV-unprocessed.smi

> <i_m_source_file_index>
284

> <i_lp_mmshare_version>
43012

> <i_f3d_flags>
0

> <s_epik_input>
W09IXVtDSDJdW0NAQEhdKE8xKVtDQEhdKFtPSF0pW0NIMl1bQ0BIXTFuKFtjSF1jMltDSDNdKWMoPU8pbihjMj1PKVtDSDJdQyg9TylbTkhdYzNbY0hdW2NIXWMoQyhbQ0gzXSkoW0NIM10pW0NIM10pW2NIXVtjSF0z

> <s_epik_cmdline>
J2VwaWtfcHl0aG9uJywgJy1waCcsICc3LjAnLCAnLXRuJywgJzgnLCAnLW1hJywgJzIwMCcsICctbWV0YWxfYmluZGluZycsICctaW1hZScsICc8aW5maWxlLm1hZT4nLCAnLW9tYWUnLCAnPG91dGZpbGUubWFlPic=

> <r_lp_tautomer_probability>
1

> <r_epik_Ionization_Penalty>
4.92358e-06

> <r_epik_Ionization_Penalty_Charging>
1.29777e-07

> <r_epik_Ionization_Penalty_Neutral>
4.79381e-06

> <r_epik_State_Penalty>
-0

> <r_epik_Charging_Adjusted_Penalty>
1.29777e-07

> <i_epik_Tot_Q>
0

> <i_epik_Tot_abs_Q>
0

> <r_epik_Metal_State_Penalty>
-0

> <b_epik_Metal_Only>
0

> <s_epik_Chemistry_Notes>
This compound contains an acetal/aminal-like group ( X-CH(R)-Y where X, Y are N, S, or O) that may be acid/base labile, releasing an aldehyde.

> <s_lp_Force_Field>
OPLS_2005

> <r_lp_Energy>
37.3947

> <b_lp_Chiralities_Consistent>
1

> <s_lp_Variant>
AV-unprocessed.smi:284-6

> <Gold.Version>
5.8.1

> <Gold.Id.Protein>
6NUR|6NUR_protein|mol2

> <Gold.PLP.Fitness>
51.3798

> <Gold.PLP.PLP>
-46.8898

> <Gold.PLP.part.hbond>
-2.9279

> <Gold.PLP.part.metal>
0.0000

> <Gold.PLP.part.buried>
-7.8807

> <Gold.PLP.part.nonpolar>
-36.5305

> <Gold.PLP.part.repulsive>
0.3791

> <Gold.PLP.ligand.clash>
0.0000

> <Gold.PLP.ligand.torsion>
0.8206

> <Gold.PLP.Chemscore.Hbond>
1.9913

> <Gold.PLP.Chemscore.CHOScore>
0.0000

> <Gold.PLP.Chemscore.Metal>
0.0000

> <Gold.Chemscore.Hbonds>
donor molecule, donor type, donor heavy atom, donor atom, acceptor molecule, acceptor atom, score
      P1  H  7989  7998       L1    18  0.88
      P1  H 10752 10763       L1    14  1.00

> <Gold.PLP.Chemscore.Internal.Correction>
0.1574

> <Gold.Rescore>
     Score         DG    S(hbond)    S(metal)    S(lipo)     H(rot)  DE(clash)    DE(int)     intcor
     12.14     -17.46       1.96        0.00     117.96       3.27       0.04       5.27       ----

> <Gold.Chemscore.Fitness>
12.1450

> <Gold.Chemscore.DG>
-17.4556

> <Gold.Chemscore.ZeroCoef>
-5.4800

> <Gold.Chemscore.Hbond>
1.9625

> <Gold.Chemscore.Metal>
0.0000

> <Gold.Chemscore.Lipo>
117.9572

> <Gold.Chemscore.Internal_Hbond>
0.0000

> <Gold.Chemscore.DEClash>
0.0414

> <Gold.Chemscore.DEInternal>
5.2692

> <Gold.Chemscore.Rot>
3.2735

> <Gold.Chemscore.Internal.Correction>
   9.000000E+99

> <Gold.Chemscore.Hbonds>
donor molecule, donor type, donor heavy atom, donor atom, acceptor molecule, acceptor atom, score
      P1  H  7989  7998       L1    18  0.84
      P1  H 10752 10763       L1    14  0.98

> <Gold.Chemscore.Hbond.Weighted>
-6.5546

> <Gold.Chemscore.Metal.Weighted>
-0.0000

> <Gold.Chemscore.Lipo.Weighted>
-13.8010

> <Gold.Chemscore.Internal_Hbond.Weighted>
0.0000

> <Gold.Chemscore.DEClash.Weighted>
0.0414

> <Gold.Chemscore.DEInternal.Weighted>
5.2692

> <Gold.Chemscore.Rot.Weighted>
8.3801

> <Gold.Chemscore.Internal.Correction.Weighted>
   9.000000E+99

> <Gold.Protein.RotatedTorsions>
[ 6907 6896 6895 6894 ] final  -31.43 input  -60.11 | X-H torsion
[ 7974 7965 7964 7962 ] final  -49.19 input  175.53 | X-H torsion
[ 8008 7997 7996 7995 ] final  102.32 input   59.86 | X-H torsion
[ 10167 10162 10161 10158 ] final -153.84 input  -65.29 | X-H torsion
[ 10718 10713 10712 10709 ] final   90.29 input   66.30 | X-H torsion
[ 10763 10752 10751 10750 ] final   75.38 input  -60.55 | X-H torsion
[ 11005 11000 10999 10996 ] final   -6.89 input  -57.11 | X-H torsion

> <Gold.Protein.ActiveResidues>
 VAL166  LYS551  ARG553  GLY616  TRP617  ASP618  TYR619  PRO620  LYS621  CYS622 
 ASP623  PHE694  ASN695  SER759  ASP760  ASP761  ALA762  ILE779  LEU786  VAL792 
 PHE793  MET794  SER795  GLU796  ALA797  LYS798  CYS799  TRP800  GLU811  SER814 

> <Gold.Protein.RotatedAtoms>
  151.0922  134.9922  159.8407 H   0  0  0  0  0  0  0  0  0  0  0  0  # atno 6907 bound_to 6896
  152.5430  134.2052  159.8738 H   0  0  0  0  0  0  0  0  0  0  0  0  # atno 6908 bound_to 6896
  151.2089  133.4523  159.2631 H   0  0  0  0  0  0  0  0  0  0  0  0  # atno 6909 bound_to 6896
  145.9432  140.7642  142.9541 H   0  0  0  0  0  0  0  0  0  0  0  0  # atno 7974 bound_to 7965
  156.1382  140.3183  155.8453 H   0  0  0  0  0  0  0  0  0  0  0  0  # atno 8008 bound_to 7997
  155.4205  140.0512  157.3043 H   0  0  0  0  0  0  0  0  0  0  0  0  # atno 8009 bound_to 7997
  154.4954  140.2108  155.9471 H   0  0  0  0  0  0  0  0  0  0  0  0  # atno 8010 bound_to 7997
  139.7063  143.9181  152.2450 H   0  0  0  0  0  0  0  0  0  0  0  0  # atno 10167 bound_to 10162
  157.6958  131.0365  150.3555 H   0  0  0  0  0  0  0  0  0  0  0  0  # atno 10718 bound_to 10713
  153.0651  135.4990  154.8181 H   0  0  0  0  0  0  0  0  0  0  0  0  # atno 10763 bound_to 10752
  154.6941  135.2989  154.9439 H   0  0  0  0  0  0  0  0  0  0  0  0  # atno 10764 bound_to 10752
  154.0184  135.6745  153.4823 H   0  0  0  0  0  0  0  0  0  0  0  0  # atno 10765 bound_to 10752
  140.7069  133.8942  155.8723 H   0  0  0  0  0  0  0  0  0  0  0  0  # atno 11005 bound_to 11000
  144.6782  140.2314  143.7355 LP  0  0  0  0  0  0  0  0  0  0  0  0  # atno 17320 bound_to 7965
  145.8271  139.2069  143.1904 LP  0  0  0  0  0  0  0  0  0  0  0  0  # atno 17321 bound_to 7965
  139.9038  144.6896  150.8637 LP  0  0  0  0  0  0  0  0  0  0  0  0  # atno 17342 bound_to 10162
  140.7722  143.3494  151.2045 LP  0  0  0  0  0  0  0  0  0  0  0  0  # atno 17343 bound_to 10162
  156.3998  130.3913  149.6968 LP  0  0  0  0  0  0  0  0  0  0  0  0  # atno 17370 bound_to 10713
  156.4289  130.7805  151.2825 LP  0  0  0  0  0  0  0  0  0  0  0  0  # atno 17371 bound_to 10713
  141.0117  134.1011  157.4214 LP  0  0  0  0  0  0  0  0  0  0  0  0  # atno 17394 bound_to 11000
  139.8882  135.0095  156.6605 LP  0  0  0  0  0  0  0  0  0  0  0  0  # atno 17395 bound_to 11000

$$$$
