AV-unprocessed.smi:3169|AV-procd|sdf|12103|dock3
  -GOLD-   2272017543D 1   1.00000     0.00000
 Structure written by MMmdl.
 36 37  0  0  0  0  0  0  0  0  2 V2000
  151.5035  135.7740  155.7272 O   0  0  0  0  0  0  0  0  0  0  0  0
  150.7936  135.9660  154.7397 C   0  0  0  0  0  0  0  0  0  0  0  0
  150.7608  137.1177  154.0552 N   0  0  0  0  0  0  0  0  0  0  0  0
  151.5499  138.2996  154.3803 C   0  0  0  0  0  0  0  0  0  0  0  0
  150.9984  139.0229  155.6205 C   0  0  0  0  0  0  0  0  0  0  0  0
  150.0949  140.1138  155.2538 N   0  0  0  0  0  0  0  0  0  0  0  0
  149.0029  140.0492  154.4272 C   0  0  0  0  0  0  0  0  0  0  0  0
  148.4729  141.3131  154.3819 C   0  0  0  0  0  0  0  0  0  0  0  0
  149.2639  142.0945  155.1814 N   0  3  0  0  0  0  0  0  0  0  0  0
  150.2498  141.3629  155.7110 C   0  0  0  0  0  0  0  0  0  0  0  0
  149.9546  135.0570  154.2249 N   0  0  0  0  0  0  0  0  0  0  0  0
  149.7425  133.7112  154.7483 C   0  0  0  0  0  0  0  0  0  0  0  0
  149.1448  132.7710  153.6873 C   0  0  2  0  0  0  0  0  0  0  0  0
  147.8577  133.2682  153.0275 C   0  0  0  0  0  0  0  0  0  0  0  0
  147.2358  131.9718  152.5628 C   0  0  0  0  0  0  0  0  0  0  0  0
  147.5787  131.0317  153.7151 C   0  0  0  0  0  0  0  0  0  0  0  0
  148.7925  131.5234  154.2791 O   0  0  0  0  0  0  0  0  0  0  0  0
  150.1474  137.1810  153.2557 H   0  0  0  0  0  0  0  0  0  0  0  0
  152.5935  138.0173  154.5313 H   0  0  0  0  0  0  0  0  0  0  0  0
  151.5306  138.9684  153.5194 H   0  0  0  0  0  0  0  0  0  0  0  0
  150.4482  138.3300  156.2587 H   0  0  0  0  0  0  0  0  0  0  0  0
  151.8048  139.4433  156.2237 H   0  0  0  0  0  0  0  0  0  0  0  0
  148.6924  139.1332  153.9455 H   0  0  0  0  0  0  0  0  0  0  0  0
  147.6152  141.7046  153.8545 H   0  0  0  0  0  0  0  0  0  0  0  0
  151.0204  141.7122  156.3754 H   0  0  0  0  0  0  0  0  0  0  0  0
  149.4156  135.3146  153.4112 H   0  0  0  0  0  0  0  0  0  0  0  0
  150.7118  133.3265  155.0661 H   0  0  0  0  0  0  0  0  0  0  0  0
  149.1158  133.7307  155.6416 H   0  0  0  0  0  0  0  0  0  0  0  0
  149.8865  132.5635  152.9141 H   0  0  0  0  0  0  0  0  0  0  0  0
  147.2088  133.7489  153.7611 H   0  0  0  0  0  0  0  0  0  0  0  0
  148.0381  133.9721  152.2147 H   0  0  0  0  0  0  0  0  0  0  0  0
  146.1639  132.0490  152.3789 H   0  0  0  0  0  0  0  0  0  0  0  0
  147.7181  131.6340  151.6444 H   0  0  0  0  0  0  0  0  0  0  0  0
  146.8035  131.0691  154.4810 H   0  0  0  0  0  0  0  0  0  0  0  0
  147.6823  129.9969  153.3884 H   0  0  0  0  0  0  0  0  0  0  0  0
  149.1249  143.0831  155.3497 H   0  0  0  0  0  0  0  0  0  0  0  0
  1  2  2  0  0  0  0
  2  3  1  0  0  0  0
  2 11  1  0  0  0  0
  3  4  1  0  0  0  0
  3 18  1  0  0  0  0
  4  5  1  0  0  0  0
  4 19  1  0  0  0  0
  4 20  1  0  0  0  0
  5  6  1  0  0  0  0
  5 21  1  0  0  0  0
  5 22  1  0  0  0  0
  6 10  1  0  0  0  0
  6  7  1  0  0  0  0
  7  8  2  0  0  0  0
  7 23  1  0  0  0  0
  8  9  1  0  0  0  0
  8 24  1  0  0  0  0
  9 10  2  0  0  0  0
  9 36  1  0  0  0  0
 10 25  1  0  0  0  0
 11 12  1  0  0  0  0
 11 26  1  0  0  0  0
 12 13  1  0  0  0  0
 12 27  1  0  0  0  0
 12 28  1  0  0  0  0
 13 17  1  0  0  0  0
 13 14  1  0  0  0  0
 13 29  1  0  0  0  0
 14 15  1  0  0  0  0
 14 30  1  0  0  0  0
 14 31  1  0  0  0  0
 15 16  1  0  0  0  0
 15 32  1  0  0  0  0
 15 33  1  0  0  0  0
 16 17  1  0  0  0  0
 16 34  1  0  0  0  0
 16 35  1  0  0  0  0
M  CHG  1   9   1
M  END
> <s_m_source_file>
AV-unprocessed.smi

> <i_m_source_file_index>
3169

> <i_lp_mmshare_version>
43012

> <i_f3d_flags>
0

> <s_epik_input>
TzFbQ0gyXVtDSDJdW0NIMl1bQ0BIXTFbQ0gyXVtOSF1DKD1PKVtOSF1bQ0gyXVtDSDJdbjJbY0hdW2NIXW5bY0hdMg==

> <s_epik_cmdline>
J2VwaWtfcHl0aG9uJywgJy1waCcsICc3LjAnLCAnLXRuJywgJzgnLCAnLW1hJywgJzIwMCcsICctbWV0YWxfYmluZGluZycsICctaW1hZScsICc8aW5maWxlLm1hZT4nLCAnLW9tYWUnLCAnPG91dGZpbGUubWFlPic=

> <r_lp_tautomer_probability>
1

> <r_epik_Ionization_Penalty>
0.256136

> <r_epik_Ionization_Penalty_Charging>
0

> <r_epik_Ionization_Penalty_Neutral>
0.256136

> <r_epik_State_Penalty>
0.247629

> <r_epik_Charging_Adjusted_Penalty>
0.247629

> <i_epik_Tot_Q>
1

> <i_epik_Tot_abs_Q>
1

> <r_epik_Metal_State_Penalty>
0.537113

> <b_epik_Metal_Only>
0

> <s_lp_Force_Field>
OPLS_2005

> <r_lp_Energy>
17.2765

> <b_lp_Chiralities_Consistent>
1

> <s_lp_Variant>
AV-unprocessed.smi:3169-1

> <Gold.Version>
5.8.1

> <Gold.Id.Protein>
6NUR|6NUR_protein|mol2

> <Gold.PLP.Fitness>
47.5746

> <Gold.PLP.PLP>
-34.3488

> <Gold.PLP.part.hbond>
-5.4760

> <Gold.PLP.part.metal>
0.0000

> <Gold.PLP.part.buried>
-2.9723

> <Gold.PLP.part.nonpolar>
-26.9105

> <Gold.PLP.part.repulsive>
0.4407

> <Gold.PLP.ligand.clash>
0.0000

> <Gold.PLP.ligand.torsion>
0.5481

> <Gold.PLP.Chemscore.Hbond>
4.7660

> <Gold.PLP.Chemscore.CHOScore>
0.0000

> <Gold.PLP.Chemscore.Metal>
0.0000

> <Gold.Chemscore.Hbonds>
donor molecule, donor type, donor heavy atom, donor atom, acceptor molecule, acceptor atom, score
      L1  H     3    18       P1  7948  0.78
      L1  H     9    36       P1  8028  2.00
      L1  H    11    26       P1  7948  0.75
      P1  H 10752 10764       L1     1  1.00

> <Gold.PLP.Chemscore.Internal.Correction>
0.0239

> <Gold.Rescore>
     Score         DG    S(hbond)    S(metal)    S(lipo)     H(rot)  DE(clash)    DE(int)     intcor
     13.48     -14.38       2.53        0.00      54.71       2.33       0.40       0.51       ----

> <Gold.Chemscore.Fitness>
13.4767

> <Gold.Chemscore.DG>
-14.3800

> <Gold.Chemscore.ZeroCoef>
-5.4800

> <Gold.Chemscore.Hbond>
2.5332

> <Gold.Chemscore.Metal>
0.0000

> <Gold.Chemscore.Lipo>
54.7070

> <Gold.Chemscore.Internal_Hbond>
0.0000

> <Gold.Chemscore.DEClash>
0.3958

> <Gold.Chemscore.DEInternal>
0.5075

> <Gold.Chemscore.Rot>
2.3288

> <Gold.Chemscore.Internal.Correction>
   9.000000E+99

> <Gold.Chemscore.Hbonds>
donor molecule, donor type, donor heavy atom, donor atom, acceptor molecule, acceptor atom, score
      L1  H     3    18       P1  7948  0.10
      L1  H     9    36       P1  8028  1.00
      L1  H    11    26       P1  7948  0.09
      P1  H 10752 10764       L1     1  0.49

> <Gold.Chemscore.Hbond.Weighted>
-8.4610

> <Gold.Chemscore.Metal.Weighted>
-0.0000

> <Gold.Chemscore.Lipo.Weighted>
-6.4007

> <Gold.Chemscore.Internal_Hbond.Weighted>
0.0000

> <Gold.Chemscore.DEClash.Weighted>
0.3958

> <Gold.Chemscore.DEInternal.Weighted>
0.5075

> <Gold.Chemscore.Rot.Weighted>
5.9617

> <Gold.Chemscore.Internal.Correction.Weighted>
   9.000000E+99

> <Gold.Protein.RotatedTorsions>
[ 6907 6896 6895 6894 ] final  -82.59 input  -60.11 | X-H torsion
[ 7974 7965 7964 7962 ] final   98.68 input  175.53 | X-H torsion
[ 8008 7997 7996 7995 ] final  170.61 input   59.86 | X-H torsion
[ 10167 10162 10161 10158 ] final  111.56 input  -65.29 | X-H torsion
[ 10718 10713 10712 10709 ] final  -60.31 input   66.30 | X-H torsion
[ 10763 10752 10751 10750 ] final  -27.99 input  -60.55 | X-H torsion
[ 11005 11000 10999 10996 ] final  -17.45 input  -57.11 | X-H torsion

> <Gold.Protein.ActiveResidues>
 VAL166  LYS551  ARG553  GLY616  TRP617  ASP618  TYR619  PRO620  LYS621  CYS622 
 ASP623  PHE694  ASN695  SER759  ASP760  ASP761  ALA762  ILE779  LEU786  VAL792 
 PHE793  MET794  SER795  GLU796  ALA797  LYS798  CYS799  TRP800  GLU811  SER814 

> <Gold.Protein.RotatedAtoms>
  150.6895  134.3642  159.4963 H   0  0  0  0  0  0  0  0  0  0  0  0  # atno 6907 bound_to 6896
  152.1466  134.9018  160.0560 H   0  0  0  0  0  0  0  0  0  0  0  0  # atno 6908 bound_to 6896
  152.0131  133.3834  159.4265 H   0  0  0  0  0  0  0  0  0  0  0  0  # atno 6909 bound_to 6896
  145.4090  139.2336  143.3259 H   0  0  0  0  0  0  0  0  0  0  0  0  # atno 7974 bound_to 7965
  156.1349  140.1533  156.9010 H   0  0  0  0  0  0  0  0  0  0  0  0  # atno 8008 bound_to 7997
  154.4939  140.0843  156.7693 H   0  0  0  0  0  0  0  0  0  0  0  0  # atno 8009 bound_to 7997
  155.4188  140.3422  155.4272 H   0  0  0  0  0  0  0  0  0  0  0  0  # atno 8010 bound_to 7997
  139.6602  144.7129  151.1880 H   0  0  0  0  0  0  0  0  0  0  0  0  # atno 10167 bound_to 10162
  156.0999  130.4187  150.0837 H   0  0  0  0  0  0  0  0  0  0  0  0  # atno 10718 bound_to 10713
  153.7411  135.6932  153.4967 H   0  0  0  0  0  0  0  0  0  0  0  0  # atno 10763 bound_to 10752
  153.2068  135.4417  155.0331 H   0  0  0  0  0  0  0  0  0  0  0  0  # atno 10764 bound_to 10752
  154.8220  135.3427  154.6937 H   0  0  0  0  0  0  0  0  0  0  0  0  # atno 10765 bound_to 10752
  140.8170  133.8097  155.9620 H   0  0  0  0  0  0  0  0  0  0  0  0  # atno 11005 bound_to 11000
  146.2714  140.4798  142.8813 LP  0  0  0  0  0  0  0  0  0  0  0  0  # atno 17320 bound_to 7965
  144.8322  140.6725  143.6283 LP  0  0  0  0  0  0  0  0  0  0  0  0  # atno 17321 bound_to 7965
  140.7576  143.6007  150.8703 LP  0  0  0  0  0  0  0  0  0  0  0  0  # atno 17342 bound_to 10162
  139.9663  143.6106  152.2987 LP  0  0  0  0  0  0  0  0  0  0  0  0  # atno 17343 bound_to 10162
  156.8826  130.9562  151.3597 LP  0  0  0  0  0  0  0  0  0  0  0  0  # atno 17370 bound_to 10713
  157.6167  130.8624  149.9041 LP  0  0  0  0  0  0  0  0  0  0  0  0  # atno 17371 bound_to 10713
  140.9139  134.2226  157.4969 LP  0  0  0  0  0  0  0  0  0  0  0  0  # atno 17394 bound_to 11000
  139.8710  134.9762  156.4913 LP  0  0  0  0  0  0  0  0  0  0  0  0  # atno 17395 bound_to 11000

$$$$
