AV-unprocessed.smi:247|AV-procd|sdf|1895|dock1
  -GOLD-   2262020563D 1   1.00000     0.00000
 Structure written by MMmdl.
 61 65  0  0  0  0  0  0  0  0  1 V2000
  148.6217  135.5771  154.5790 O   0  0  0  0  0  0  0  0  0  0  0  0
  148.4851  136.8616  155.1549 C   0  0  0  0  0  0  0  0  0  0  0  0
  149.8407  137.5055  155.5593 C   0  0  0  0  0  0  0  0  0  0  0  0
  150.3602  136.7991  156.8517 C   0  0  0  0  0  0  0  0  0  0  0  0
  149.4330  136.7993  157.9749 N   0  0  0  0  0  0  0  0  0  0  0  0
  148.9354  137.9022  158.6324 C   0  0  0  0  0  0  0  0  0  0  0  0
  148.1046  137.6444  159.6045 N   0  0  0  0  0  0  0  0  0  0  0  0
  148.0007  136.2584  159.6058 C   0  0  0  0  0  0  0  0  0  0  0  0
  147.2706  135.3195  160.3894 C   0  0  0  0  0  0  0  0  0  0  0  0
  146.4320  135.6938  161.3913 N   0  0  0  0  0  0  0  0  0  0  0  0
  146.9778  136.6077  162.3901 C   0  0  0  0  0  0  0  0  0  0  0  0
  145.8436  137.5652  162.7661 C   0  0  0  0  0  0  0  0  0  0  0  0
  144.5825  136.7953  162.3902 C   0  0  0  0  0  0  0  0  0  0  0  0
  145.0267  136.0201  161.1428 C   0  0  2  0  0  0  0  0  0  0  0  0
  144.1514  134.7907  160.7644 C   0  0  1  0  0  0  0  0  0  0  0  0
  144.2601  133.6234  161.7746 C   0  0  0  0  0  0  0  0  0  0  0  0
  143.4870  132.5116  161.3355 O   0  0  0  0  0  0  0  0  0  0  0  0
  142.0959  132.7995  161.2582 C   0  0  0  0  0  0  0  0  0  0  0  0
  141.8559  133.8980  160.2129 C   0  0  0  0  0  0  0  0  0  0  0  0
  142.6648  135.1552  160.5615 C   0  0  2  0  0  0  0  0  0  0  0  0
  142.5155  136.0934  159.5142 O   0  0  0  0  0  0  0  0  0  0  0  0
  147.4342  134.0026  160.0933 N   0  0  0  0  0  0  0  0  0  0  0  0
  148.2456  133.6264  159.1010 C   0  0  0  0  0  0  0  0  0  0  0  0
  148.9796  134.3892  158.2892 N   0  0  0  0  0  0  0  0  0  0  0  0
  148.8289  135.7122  158.5842 C   0  0  0  0  0  0  0  0  0  0  0  0
  150.8488  137.3881  154.3867 C   0  0  0  0  0  0  0  0  0  0  0  0
  152.1293  138.2060  154.6325 C   0  0  0  0  0  0  0  0  0  0  0  0
  151.7956  139.5708  154.8546 O   0  0  0  0  0  0  0  0  0  0  0  0
  150.9861  139.7669  156.0079 C   0  0  0  0  0  0  0  0  0  0  0  0
  149.6493  139.0161  155.8538 C   0  0  0  0  0  0  0  0  0  0  0  0
  148.9449  135.6760  153.6966 H   0  0  0  0  0  0  0  0  0  0  0  0
  147.9630  137.4972  154.4387 H   0  0  0  0  0  0  0  0  0  0  0  0
  147.8319  136.7581  156.0211 H   0  0  0  0  0  0  0  0  0  0  0  0
  150.6249  135.7610  156.6582 H   0  0  0  0  0  0  0  0  0  0  0  0
  151.2854  137.2726  157.1832 H   0  0  0  0  0  0  0  0  0  0  0  0
  149.2134  138.9124  158.3701 H   0  0  0  0  0  0  0  0  0  0  0  0
  147.2865  136.0262  163.2594 H   0  0  0  0  0  0  0  0  0  0  0  0
  147.8475  137.1569  162.0258 H   0  0  0  0  0  0  0  0  0  0  0  0
  145.8676  137.8602  163.8154 H   0  0  0  0  0  0  0  0  0  0  0  0
  145.9124  138.4702  162.1609 H   0  0  0  0  0  0  0  0  0  0  0  0
  144.3164  136.1246  163.2061 H   0  0  0  0  0  0  0  0  0  0  0  0
  143.7320  137.4508  162.2009 H   0  0  0  0  0  0  0  0  0  0  0  0
  145.0059  136.7252  160.3104 H   0  0  0  0  0  0  0  0  0  0  0  0
  144.5138  134.4047  159.8114 H   0  0  0  0  0  0  0  0  0  0  0  0
  145.2955  133.2955  161.8681 H   0  0  0  0  0  0  0  0  0  0  0  0
  143.9306  133.9171  162.7713 H   0  0  0  0  0  0  0  0  0  0  0  0
  141.5628  131.8912  160.9769 H   0  0  0  0  0  0  0  0  0  0  0  0
  141.7182  133.1014  162.2363 H   0  0  0  0  0  0  0  0  0  0  0  0
  142.1486  133.5258  159.2299 H   0  0  0  0  0  0  0  0  0  0  0  0
  140.7927  134.1340  160.1549 H   0  0  0  0  0  0  0  0  0  0  0  0
  142.2611  135.5945  161.4746 H   0  0  0  0  0  0  0  0  0  0  0  0
  142.7356  135.6711  158.6980 H   0  0  0  0  0  0  0  0  0  0  0  0
  148.3153  132.5619  158.9329 H   0  0  0  0  0  0  0  0  0  0  0  0
  151.0966  136.3476  154.1807 H   0  0  0  0  0  0  0  0  0  0  0  0
  150.3938  137.7632  153.4695 H   0  0  0  0  0  0  0  0  0  0  0  0
  152.7023  137.8155  155.4737 H   0  0  0  0  0  0  0  0  0  0  0  0
  152.7793  138.1461  153.7596 H   0  0  0  0  0  0  0  0  0  0  0  0
  151.5252  139.4568  156.9031 H   0  0  0  0  0  0  0  0  0  0  0  0
  150.7972  140.8348  156.1188 H   0  0  0  0  0  0  0  0  0  0  0  0
  149.1043  139.4928  155.0388 H   0  0  0  0  0  0  0  0  0  0  0  0
  149.0368  139.1564  156.7451 H   0  0  0  0  0  0  0  0  0  0  0  0
  1  2  1  0  0  0  0
  1 31  1  0  0  0  0
  2  3  1  0  0  0  0
  2 32  1  0  0  0  0
  2 33  1  0  0  0  0
  3 30  1  0  0  0  0
  3  4  1  0  0  0  0
  3 26  1  0  0  0  0
  4  5  1  0  0  0  0
  4 34  1  0  0  0  0
  4 35  1  0  0  0  0
  5 25  1  0  0  0  0
  5  6  1  0  0  0  0
  6  7  2  0  0  0  0
  6 36  1  0  0  0  0
  7  8  1  0  0  0  0
  8 25  2  0  0  0  0
  8  9  1  0  0  0  0
  9 10  1  0  0  0  0
  9 22  2  0  0  0  0
 10 14  1  0  0  0  0
 10 11  1  0  0  0  0
 11 12  1  0  0  0  0
 11 37  1  0  0  0  0
 11 38  1  0  0  0  0
 12 13  1  0  0  0  0
 12 39  1  0  0  0  0
 12 40  1  0  0  0  0
 13 14  1  0  0  0  0
 13 41  1  0  0  0  0
 13 42  1  0  0  0  0
 14 15  1  0  0  0  0
 14 43  1  0  0  0  0
 15 20  1  0  0  0  0
 15 16  1  0  0  0  0
 15 44  1  0  0  0  0
 16 17  1  0  0  0  0
 16 45  1  0  0  0  0
 16 46  1  0  0  0  0
 17 18  1  0  0  0  0
 18 19  1  0  0  0  0
 18 47  1  0  0  0  0
 18 48  1  0  0  0  0
 19 20  1  0  0  0  0
 19 49  1  0  0  0  0
 19 50  1  0  0  0  0
 20 21  1  0  0  0  0
 20 51  1  0  0  0  0
 21 52  1  0  0  0  0
 22 23  1  0  0  0  0
 23 24  2  0  0  0  0
 23 53  1  0  0  0  0
 24 25  1  0  0  0  0
 26 27  1  0  0  0  0
 26 54  1  0  0  0  0
 26 55  1  0  0  0  0
 27 28  1  0  0  0  0
 27 56  1  0  0  0  0
 27 57  1  0  0  0  0
 28 29  1  0  0  0  0
 29 30  1  0  0  0  0
 29 58  1  0  0  0  0
 29 59  1  0  0  0  0
 30 60  1  0  0  0  0
 30 61  1  0  0  0  0
M  END
> <s_m_source_file>
AV-unprocessed.smi

> <i_m_source_file_index>
247

> <i_lp_mmshare_version>
43012

> <i_f3d_flags>
0

> <s_epik_input>
W0NIMl0xW0NIMl1PW0NIMl1bQ0gyXUMxKFtDSDJdW09IXSlbQ0gyXW4oW2NIXW4yKWMoYzIzKW5bY0hdbmMzTjRbQ0gyXVtDSDJdW0NIMl1bQ0BIXTRbQ0BASF01W0NIMl1PW0NIMl1bQ0gyXVtDQEhdNVtPSF0=

> <s_epik_cmdline>
J2VwaWtfcHl0aG9uJywgJy1waCcsICc3LjAnLCAnLXRuJywgJzgnLCAnLW1hJywgJzIwMCcsICctbWV0YWxfYmluZGluZycsICctaW1hZScsICc8aW5maWxlLm1hZT4nLCAnLW9tYWUnLCAnPG91dGZpbGUubWFlPic=

> <r_lp_tautomer_probability>
1

> <r_epik_Ionization_Penalty>
0.00362597

> <r_epik_Ionization_Penalty_Charging>
0

> <r_epik_Ionization_Penalty_Neutral>
0.00362597

> <r_epik_State_Penalty>
0.00241433

> <r_epik_Charging_Adjusted_Penalty>
0.00241433

> <i_epik_Tot_Q>
0

> <i_epik_Tot_abs_Q>
0

> <r_epik_Metal_State_Penalty>
-0

> <b_epik_Metal_Only>
0

> <s_lp_Force_Field>
OPLS_2005

> <r_lp_Energy>
58.878

> <b_lp_Chiralities_Consistent>
1

> <s_lp_Variant>
AV-unprocessed.smi:247-8

> <Gold.Version>
5.8.1

> <Gold.Id.Protein>
6NUR|6NUR_protein|mol2

> <Gold.PLP.Fitness>
42.2197

> <Gold.PLP.PLP>
-33.8708

> <Gold.PLP.part.hbond>
-4.7422

> <Gold.PLP.part.metal>
0.0000

> <Gold.PLP.part.buried>
-7.8475

> <Gold.PLP.part.nonpolar>
-24.7406

> <Gold.PLP.part.repulsive>
0.1260

> <Gold.PLP.ligand.clash>
0.0000

> <Gold.PLP.ligand.torsion>
0.6339

> <Gold.PLP.Chemscore.Hbond>
3.0659

> <Gold.PLP.Chemscore.CHOScore>
0.0000

> <Gold.PLP.Chemscore.Metal>
0.0000

> <Gold.Chemscore.Hbonds>
donor molecule, donor type, donor heavy atom, donor atom, acceptor molecule, acceptor atom, score
      L1  H     1    31       P1  7948  1.00
      P1  H  6896  6907       L1    24  0.57
      P1  H  6934  6947       L1     7  0.41
      P1  H  7989  7998       L1    28  1.00

> <Gold.PLP.Chemscore.Internal.Correction>
0.4190

> <Gold.Rescore>
     Score         DG    S(hbond)    S(metal)    S(lipo)     H(rot)  DE(clash)    DE(int)     intcor
     14.10     -14.95       2.44        0.00      82.06       3.23       0.01       0.84       ----

> <Gold.Chemscore.Fitness>
14.1018

> <Gold.Chemscore.DG>
-14.9511

> <Gold.Chemscore.ZeroCoef>
-5.4800

> <Gold.Chemscore.Hbond>
2.4351

> <Gold.Chemscore.Metal>
0.0000

> <Gold.Chemscore.Lipo>
82.0603

> <Gold.Chemscore.Internal_Hbond>
0.0000

> <Gold.Chemscore.DEClash>
0.0060

> <Gold.Chemscore.DEInternal>
0.8433

> <Gold.Chemscore.Rot>
3.2278

> <Gold.Chemscore.Internal.Correction>
   9.000000E+99

> <Gold.Chemscore.Hbonds>
donor molecule, donor type, donor heavy atom, donor atom, acceptor molecule, acceptor atom, score
      L1  H     1    31       P1  7948  0.90
      P1  H  6896  6907       L1    24  0.01
      P1  H  6934  6947       L1     7  0.40
      P1  H  7989  7998       L1    28  0.90

> <Gold.Chemscore.Hbond.Weighted>
-8.1333

> <Gold.Chemscore.Metal.Weighted>
-0.0000

> <Gold.Chemscore.Lipo.Weighted>
-9.6011

> <Gold.Chemscore.Internal_Hbond.Weighted>
0.0000

> <Gold.Chemscore.DEClash.Weighted>
0.0060

> <Gold.Chemscore.DEInternal.Weighted>
0.8433

> <Gold.Chemscore.Rot.Weighted>
8.2633

> <Gold.Chemscore.Internal.Correction.Weighted>
   9.000000E+99

> <Gold.Protein.RotatedTorsions>
[ 6907 6896 6895 6894 ] final -111.18 input  -60.11 | X-H torsion
[ 7974 7965 7964 7962 ] final   69.36 input  175.53 | X-H torsion
[ 8008 7997 7996 7995 ] final  155.90 input   59.86 | X-H torsion
[ 10167 10162 10161 10158 ] final  -36.03 input  -65.29 | X-H torsion
[ 10718 10713 10712 10709 ] final   34.52 input   66.30 | X-H torsion
[ 10763 10752 10751 10750 ] final -167.20 input  -60.55 | X-H torsion
[ 11005 11000 10999 10996 ] final -106.84 input  -57.11 | X-H torsion

> <Gold.Protein.ActiveResidues>
 VAL166  LYS551  ARG553  GLY616  TRP617  ASP618  TYR619  PRO620  LYS621  CYS622 
 ASP623  PHE694  ASN695  SER759  ASP760  ASP761  ALA762  ILE779  LEU786  VAL792 
 PHE793  MET794  SER795  GLU796  ALA797  LYS798  CYS799  TRP800  GLU811  SER814 

> <Gold.Protein.RotatedAtoms>
  150.7673  133.9272  159.3415 H   0  0  0  0  0  0  0  0  0  0  0  0  # atno 6907 bound_to 6896
  151.7167  135.0900  160.0286 H   0  0  0  0  0  0  0  0  0  0  0  0  # atno 6908 bound_to 6896
  152.3675  133.6338  159.6097 H   0  0  0  0  0  0  0  0  0  0  0  0  # atno 6909 bound_to 6896
  145.7913  139.2935  143.1208 H   0  0  0  0  0  0  0  0  0  0  0  0  # atno 7974 bound_to 7965
  156.2453  140.1927  156.6872 H   0  0  0  0  0  0  0  0  0  0  0  0  # atno 8008 bound_to 7997
  154.6278  140.0600  156.9721 H   0  0  0  0  0  0  0  0  0  0  0  0  # atno 8009 bound_to 7997
  155.1759  140.3272  155.4386 H   0  0  0  0  0  0  0  0  0  0  0  0  # atno 8010 bound_to 7997
  140.7152  143.3436  151.2303 H   0  0  0  0  0  0  0  0  0  0  0  0  # atno 10167 bound_to 10162
  157.3113  130.7400  149.6727 H   0  0  0  0  0  0  0  0  0  0  0  0  # atno 10718 bound_to 10713
  154.6756  135.2946  154.9683 H   0  0  0  0  0  0  0  0  0  0  0  0  # atno 10763 bound_to 10752
  154.0696  135.6620  153.4826 H   0  0  0  0  0  0  0  0  0  0  0  0  # atno 10764 bound_to 10752
  153.0514  135.5171  154.7773 H   0  0  0  0  0  0  0  0  0  0  0  0  # atno 10765 bound_to 10752
  141.0984  133.8929  157.1905 H   0  0  0  0  0  0  0  0  0  0  0  0  # atno 11005 bound_to 11000
  145.9973  140.8551  143.0036 LP  0  0  0  0  0  0  0  0  0  0  0  0  # atno 17320 bound_to 7965
  144.6781  140.2302  143.7356 LP  0  0  0  0  0  0  0  0  0  0  0  0  # atno 17321 bound_to 7965
  139.6950  143.9628  152.2878 LP  0  0  0  0  0  0  0  0  0  0  0  0  # atno 17342 bound_to 10162
  139.9302  144.6746  150.8371 LP  0  0  0  0  0  0  0  0  0  0  0  0  # atno 17343 bound_to 10162
  155.9678  130.4250  150.4636 LP  0  0  0  0  0  0  0  0  0  0  0  0  # atno 17370 bound_to 10713
  157.2635  131.0572  151.2305 LP  0  0  0  0  0  0  0  0  0  0  0  0  # atno 17371 bound_to 10713
  139.9828  135.0092  156.9790 LP  0  0  0  0  0  0  0  0  0  0  0  0  # atno 17394 bound_to 11000
  140.5083  134.1028  155.7265 LP  0  0  0  0  0  0  0  0  0  0  0  0  # atno 17395 bound_to 11000

$$$$
