AV-unprocessed.smi:2881|AV-procd|sdf|11068|dock8
  -GOLD-   2272015543D 1   1.00000     0.00000
 Structure written by MMmdl.
 40 42  0  0  0  0  0  0  0  0  1 V2000
  152.5766  143.6092  162.4199 C   0  0  0  0  0  0  0  0  0  0  0  0
  152.1835  143.9341  161.0088 C   0  0  0  0  0  0  0  0  0  0  0  0
  152.2250  143.0836  159.8651 C   0  0  0  0  0  0  0  0  0  0  0  0
  151.7639  143.8670  158.8440 C   0  0  0  0  0  0  0  0  0  0  0  0
  151.5627  143.5788  157.3911 C   0  0  0  0  0  0  0  0  0  0  0  0
  150.9590  142.1898  157.1883 C   0  0  0  0  0  0  0  0  0  0  0  0
  151.4062  141.2267  157.8108 O   0  0  0  0  0  0  0  0  0  0  0  0
  149.9428  142.1003  156.3171 N   0  0  0  0  0  0  0  0  0  0  0  0
  149.2322  140.8678  155.9855 C   0  0  1  0  0  0  0  0  0  0  0  0
  147.6898  141.0162  156.0207 C   0  0  1  0  0  0  0  0  0  0  0  0
  147.2173  142.2219  155.1798 C   0  0  0  0  0  0  0  0  0  0  0  0
  147.4997  141.7577  153.7388 C   0  0  0  0  0  0  0  0  0  0  0  0
  148.0667  140.3389  153.9422 C   0  0  2  0  0  0  0  0  0  0  0  0
  147.2522  139.8556  155.1368 C   0  0  0  0  0  0  0  0  0  0  0  0
  149.4996  140.4375  154.5198 C   0  0  2  0  0  0  0  0  0  0  0  0
  150.2997  139.1238  154.4233 C   0  0  0  0  0  0  0  0  0  0  0  0
  149.8874  138.3779  153.2976 O   0  0  0  0  0  0  0  0  0  0  0  0
  151.4833  145.0947  159.4001 N   0  0  0  0  0  0  0  0  0  0  0  0
  151.7351  145.1471  160.7213 N   0  0  0  0  0  0  0  0  0  0  0  0
  151.1216  145.8929  158.8973 H   0  0  0  0  0  0  0  0  0  0  0  0
  152.7720  142.5433  162.5388 H   0  0  0  0  0  0  0  0  0  0  0  0
  151.7880  143.8812  163.1220 H   0  0  0  0  0  0  0  0  0  0  0  0
  153.4805  144.1465  162.7080 H   0  0  0  0  0  0  0  0  0  0  0  0
  152.5446  142.0537  159.8048 H   0  0  0  0  0  0  0  0  0  0  0  0
  152.5135  143.6446  156.8604 H   0  0  0  0  0  0  0  0  0  0  0  0
  150.9068  144.3280  156.9456 H   0  0  0  0  0  0  0  0  0  0  0  0
  149.6405  142.9425  155.8493 H   0  0  0  0  0  0  0  0  0  0  0  0
  149.5379  140.0755  156.6723 H   0  0  0  0  0  0  0  0  0  0  0  0
  147.2744  141.0016  157.0288 H   0  0  0  0  0  0  0  0  0  0  0  0
  146.1484  142.3880  155.3200 H   0  0  0  0  0  0  0  0  0  0  0  0
  147.7246  143.1540  155.4287 H   0  0  0  0  0  0  0  0  0  0  0  0
  146.5762  141.7280  153.1594 H   0  0  0  0  0  0  0  0  0  0  0  0
  148.1978  142.4144  153.2186 H   0  0  0  0  0  0  0  0  0  0  0  0
  147.9879  139.7155  153.0511 H   0  0  0  0  0  0  0  0  0  0  0  0
  147.5627  138.8814  155.5167 H   0  0  0  0  0  0  0  0  0  0  0  0
  146.1773  139.8352  154.9478 H   0  0  0  0  0  0  0  0  0  0  0  0
  150.0571  141.2099  153.9862 H   0  0  0  0  0  0  0  0  0  0  0  0
  151.3634  139.3396  154.3181 H   0  0  0  0  0  0  0  0  0  0  0  0
  150.1828  138.5160  155.3206 H   0  0  0  0  0  0  0  0  0  0  0  0
  150.0899  138.8726  152.5182 H   0  0  0  0  0  0  0  0  0  0  0  0
  1 21  1  0  0  0  0
  1 22  1  0  0  0  0
  1 23  1  0  0  0  0
  1  2  1  0  0  0  0
  2 19  2  0  0  0  0
  2  3  1  0  0  0  0
  3  4  2  0  0  0  0
  3 24  1  0  0  0  0
  4 18  1  0  0  0  0
  4  5  1  0  0  0  0
  5  6  1  0  0  0  0
  5 25  1  0  0  0  0
  5 26  1  0  0  0  0
  6  7  2  0  0  0  0
  6  8  1  0  0  0  0
  8  9  1  0  0  0  0
  8 27  1  0  0  0  0
  9 15  1  0  0  0  0
  9 10  1  0  0  0  0
  9 28  1  0  0  0  0
 10 14  1  0  0  0  0
 10 11  1  0  0  0  0
 10 29  1  0  0  0  0
 11 12  1  0  0  0  0
 11 30  1  0  0  0  0
 11 31  1  0  0  0  0
 12 13  1  0  0  0  0
 12 32  1  0  0  0  0
 12 33  1  0  0  0  0
 13 14  1  0  0  0  0
 13 15  1  0  0  0  0
 13 34  1  0  0  0  0
 14 35  1  0  0  0  0
 14 36  1  0  0  0  0
 15 16  1  0  0  0  0
 15 37  1  0  0  0  0
 16 17  1  0  0  0  0
 16 38  1  0  0  0  0
 16 39  1  0  0  0  0
 17 40  1  0  0  0  0
 18 19  1  0  0  0  0
 18 20  1  0  0  0  0
M  END
> <s_m_source_file>
AV-unprocessed.smi

> <i_m_source_file_index>
2881

> <i_lp_mmshare_version>
43012

> <i_f3d_flags>
0

> <s_epik_input>
W0NIM11jMVtjSF1jKG5bbkhdMSlbQ0gyXUMoPU8pW05IXVtDQEhdKFtDQEBIXTIzKVtDQEhdKFtDSDJdW09IXSlbQ0BASF0oW0NIMl0zKVtDSDJdW0NIMl0y

> <s_epik_cmdline>
J2VwaWtfcHl0aG9uJywgJy1waCcsICc3LjAnLCAnLXRuJywgJzgnLCAnLW1hJywgJzIwMCcsICctbWV0YWxfYmluZGluZycsICctaW1hZScsICc8aW5maWxlLm1hZT4nLCAnLW9tYWUnLCAnPG91dGZpbGUubWFlPic=

> <r_lp_tautomer_probability>
0.5

> <r_epik_Ionization_Penalty>
0.00013396

> <r_epik_Ionization_Penalty_Charging>
0

> <r_epik_Ionization_Penalty_Neutral>
0.00013396

> <r_epik_State_Penalty>
0.41068

> <r_epik_Charging_Adjusted_Penalty>
0.41068

> <i_epik_Tot_Q>
0

> <i_epik_Tot_abs_Q>
0

> <r_epik_Metal_State_Penalty>
0.41066

> <b_epik_Metal_Only>
0

> <s_lp_Force_Field>
OPLS_2005

> <r_lp_Energy>
46.8949

> <b_lp_Chiralities_Consistent>
1

> <s_lp_Variant>
AV-unprocessed.smi:2881-14

> <Gold.Version>
5.8.1

> <Gold.Id.Protein>
6NUR|6NUR_protein|mol2

> <Gold.PLP.Fitness>
43.7153

> <Gold.PLP.PLP>
-39.5881

> <Gold.PLP.part.hbond>
-3.1697

> <Gold.PLP.part.metal>
0.0000

> <Gold.PLP.part.buried>
-3.8035

> <Gold.PLP.part.nonpolar>
-31.3631

> <Gold.PLP.part.repulsive>
0.4173

> <Gold.PLP.ligand.clash>
0.0000

> <Gold.PLP.ligand.torsion>
0.9458

> <Gold.PLP.Chemscore.Hbond>
2.0000

> <Gold.PLP.Chemscore.CHOScore>
0.0000

> <Gold.PLP.Chemscore.Metal>
0.0000

> <Gold.Chemscore.Hbonds>
donor molecule, donor type, donor heavy atom, donor atom, acceptor molecule, acceptor atom, score
      L1  H     8    27       P1  8028  1.00
      L1  H    17    40       P1  7957  1.00

> <Gold.PLP.Chemscore.Internal.Correction>
0.0189

> <Gold.Rescore>
     Score         DG    S(hbond)    S(metal)    S(lipo)     H(rot)  DE(clash)    DE(int)     intcor
     15.03     -17.48       1.81        0.00     100.73       2.28       0.30       2.15       ----

> <Gold.Chemscore.Fitness>
15.0284

> <Gold.Chemscore.DG>
-17.4780

> <Gold.Chemscore.ZeroCoef>
-5.4800

> <Gold.Chemscore.Hbond>
1.8077

> <Gold.Chemscore.Metal>
0.0000

> <Gold.Chemscore.Lipo>
100.7297

> <Gold.Chemscore.Internal_Hbond>
0.0000

> <Gold.Chemscore.DEClash>
0.3013

> <Gold.Chemscore.DEInternal>
2.1484

> <Gold.Chemscore.Rot>
2.2755

> <Gold.Chemscore.Internal.Correction>
   9.000000E+99

> <Gold.Chemscore.Hbonds>
donor molecule, donor type, donor heavy atom, donor atom, acceptor molecule, acceptor atom, score
      L1  H     8    27       P1  8028  0.98
      L1  H    17    40       P1  7957  0.38

> <Gold.Chemscore.Hbond.Weighted>
-6.0379

> <Gold.Chemscore.Metal.Weighted>
-0.0000

> <Gold.Chemscore.Lipo.Weighted>
-11.7854

> <Gold.Chemscore.Internal_Hbond.Weighted>
0.0000

> <Gold.Chemscore.DEClash.Weighted>
0.3013

> <Gold.Chemscore.DEInternal.Weighted>
2.1484

> <Gold.Chemscore.Rot.Weighted>
5.8252

> <Gold.Chemscore.Internal.Correction.Weighted>
   9.000000E+99

> <Gold.Protein.RotatedTorsions>
[ 6907 6896 6895 6894 ] final  106.26 input  -60.11 | X-H torsion
[ 7974 7965 7964 7962 ] final  -22.02 input  175.53 | X-H torsion
[ 8008 7997 7996 7995 ] final -126.91 input   59.86 | X-H torsion
[ 10167 10162 10161 10158 ] final  147.89 input  -65.29 | X-H torsion
[ 10718 10713 10712 10709 ] final   92.57 input   66.30 | X-H torsion
[ 10763 10752 10751 10750 ] final -126.30 input  -60.55 | X-H torsion
[ 11005 11000 10999 10996 ] final -114.59 input  -57.11 | X-H torsion

> <Gold.Protein.ActiveResidues>
 VAL166  LYS551  ARG553  GLY616  TRP617  ASP618  TYR619  PRO620  LYS621  CYS622 
 ASP623  PHE694  ASN695  SER759  ASP760  ASP761  ALA762  ILE779  LEU786  VAL792 
 PHE793  MET794  SER795  GLU796  ALA797  LYS798  CYS799  TRP800  GLU811  SER814 

> <Gold.Protein.RotatedAtoms>
  152.5200  133.9408  159.7624 H   0  0  0  0  0  0  0  0  0  0  0  0  # atno 6907 bound_to 6896
  150.9738  133.6308  159.2740 H   0  0  0  0  0  0  0  0  0  0  0  0  # atno 6908 bound_to 6896
  151.3510  135.0890  159.9456 H   0  0  0  0  0  0  0  0  0  0  0  0  # atno 6909 bound_to 6896
  146.1700  140.4422  142.8536 H   0  0  0  0  0  0  0  0  0  0  0  0  # atno 7974 bound_to 7965
  155.2375  140.0427  157.2970 H   0  0  0  0  0  0  0  0  0  0  0  0  # atno 8008 bound_to 7997
  154.5849  140.2411  155.7971 H   0  0  0  0  0  0  0  0  0  0  0  0  # atno 8009 bound_to 7997
  156.2219  140.2967  155.9982 H   0  0  0  0  0  0  0  0  0  0  0  0  # atno 8010 bound_to 7997
  139.4883  144.5721  151.7035 H   0  0  0  0  0  0  0  0  0  0  0  0  # atno 10167 bound_to 10162
  157.6958  131.0448  150.3902 H   0  0  0  0  0  0  0  0  0  0  0  0  # atno 10718 bound_to 10713
  154.8744  135.4000  154.3409 H   0  0  0  0  0  0  0  0  0  0  0  0  # atno 10763 bound_to 10752
  153.4209  135.7023  153.6300 H   0  0  0  0  0  0  0  0  0  0  0  0  # atno 10764 bound_to 10752
  153.4963  135.3737  155.2487 H   0  0  0  0  0  0  0  0  0  0  0  0  # atno 10765 bound_to 10752
  141.0542  133.9639  157.2784 H   0  0  0  0  0  0  0  0  0  0  0  0  # atno 11005 bound_to 11000
  144.8148  140.6449  143.6391 LP  0  0  0  0  0  0  0  0  0  0  0  0  # atno 17320 bound_to 7965
  145.4367  139.1541  143.3993 LP  0  0  0  0  0  0  0  0  0  0  0  0  # atno 17321 bound_to 7965
  140.5310  144.0730  150.6054 LP  0  0  0  0  0  0  0  0  0  0  0  0  # atno 17342 bound_to 10162
  140.3720  143.2849  152.0267 LP  0  0  0  0  0  0  0  0  0  0  0  0  # atno 17343 bound_to 10162
  156.4307  130.3971  149.6762 LP  0  0  0  0  0  0  0  0  0  0  0  0  # atno 17370 bound_to 10713
  156.3981  130.7661  151.2667 LP  0  0  0  0  0  0  0  0  0  0  0  0  # atno 17371 bound_to 10713
  139.9376  135.0195  156.8604 LP  0  0  0  0  0  0  0  0  0  0  0  0  # atno 17394 bound_to 11000
  140.5997  134.0183  155.7532 LP  0  0  0  0  0  0  0  0  0  0  0  0  # atno 17395 bound_to 11000

$$$$
