AV-unprocessed.smi:36|AV-procd|sdf|297|dock10
  -GOLD-   2262016 93D 1   1.00000     0.00000
 Structure written by MMmdl.
 63 66  0  0  0  0  0  0  0  0  2 V2000
  145.4601  137.3928  160.1213 C   0  0  0  0  0  0  0  0  0  0  0  0
  145.7327  136.5448  161.3744 C   0  0  0  0  0  0  0  0  0  0  0  0
  147.1582  136.8125  161.8851 C   0  0  0  0  0  0  0  0  0  0  0  0
  144.7152  136.8914  162.4746 C   0  0  0  0  0  0  0  0  0  0  0  0
  145.5665  134.6918  160.9389 Si  0  0  0  0  0  0  0  0  0  0  0  0
  146.2349  133.5941  162.3388 C   0  0  0  0  0  0  0  0  0  0  0  0
  143.7611  134.2322  160.5670 C   0  0  0  0  0  0  0  0  0  0  0  0
  146.4841  134.4066  159.5476 O   0  0  0  0  0  0  0  0  0  0  0  0
  147.8933  134.3278  159.5415 C   0  0  0  0  0  0  0  0  0  0  0  0
  148.3598  133.9070  158.1424 C   0  0  2  0  0  0  0  0  0  0  0  0
  149.7656  134.1186  157.9870 O   0  0  0  0  0  0  0  0  0  0  0  0
  150.0375  134.7264  156.7570 C   0  0  2  0  0  0  0  0  0  0  0  0
  150.3362  136.1746  156.9987 N   0  0  0  0  0  0  0  0  0  0  0  0
  150.3571  136.8674  158.1574 C   0  0  0  0  0  0  0  0  0  0  0  0
  150.6665  138.1612  158.0939 N   0  0  0  0  0  0  0  0  0  0  0  0
  150.8885  138.3300  156.7353 C   0  0  0  0  0  0  0  0  0  0  0  0
  151.2587  139.4599  155.9561 C   0  0  0  0  0  0  0  0  0  0  0  0
  151.4752  140.6702  156.4925 N   0  5  0  0  0  0  0  0  0  0  0  0
  152.2387  140.7889  157.6082 C   0  0  0  0  0  0  0  0  0  0  0  0
  152.9416  139.9270  158.1403 O   0  0  0  0  0  0  0  0  0  0  0  0
  152.1186  142.1363  158.2681 C   0  0  0  0  0  0  0  0  0  0  0  0
  152.6888  142.3439  159.5449 C   0  0  0  0  0  0  0  0  0  0  0  0
  152.6069  143.6036  160.1695 C   0  0  0  0  0  0  0  0  0  0  0  0
  151.9628  144.6726  159.5191 C   0  0  0  0  0  0  0  0  0  0  0  0
  151.4033  144.4818  158.2419 C   0  0  0  0  0  0  0  0  0  0  0  0
  151.4841  143.2221  157.6167 C   0  0  0  0  0  0  0  0  0  0  0  0
  151.4122  139.2632  154.6214 N   0  0  0  0  0  0  0  0  0  0  0  0
  151.2037  138.0539  154.0875 C   0  0  0  0  0  0  0  0  0  0  0  0
  150.8468  136.9175  154.6940 N   0  0  0  0  0  0  0  0  0  0  0  0
  150.6969  137.1026  156.0379 C   0  0  0  0  0  0  0  0  0  0  0  0
  148.7638  134.5902  155.9224 C   0  0  0  0  0  0  0  0  0  0  0  0
  147.6946  134.6711  156.9920 C   0  0  1  0  0  0  0  0  0  0  0  0
  146.4967  134.0617  156.5570 O   0  0  0  0  0  0  0  0  0  0  0  0
  145.5498  138.4579  160.3374 H   0  0  0  0  0  0  0  0  0  0  0  0
  144.4557  137.2199  159.7338 H   0  0  0  0  0  0  0  0  0  0  0  0
  146.1656  137.1600  159.3233 H   0  0  0  0  0  0  0  0  0  0  0  0
  147.9035  136.5824  161.1232 H   0  0  0  0  0  0  0  0  0  0  0  0
  147.3855  136.2049  162.7616 H   0  0  0  0  0  0  0  0  0  0  0  0
  147.2890  137.8580  162.1661 H   0  0  0  0  0  0  0  0  0  0  0  0
  144.7928  137.9378  162.7716 H   0  0  0  0  0  0  0  0  0  0  0  0
  144.8732  136.2830  163.3661 H   0  0  0  0  0  0  0  0  0  0  0  0
  143.6920  136.7218  162.1387 H   0  0  0  0  0  0  0  0  0  0  0  0
  145.7043  133.7706  163.2742 H   0  0  0  0  0  0  0  0  0  0  0  0
  147.2927  133.7802  162.5237 H   0  0  0  0  0  0  0  0  0  0  0  0
  146.1297  132.5353  162.1024 H   0  0  0  0  0  0  0  0  0  0  0  0
  143.1168  134.4114  161.4273 H   0  0  0  0  0  0  0  0  0  0  0  0
  143.6631  133.1795  160.3030 H   0  0  0  0  0  0  0  0  0  0  0  0
  143.3628  134.8131  159.7355 H   0  0  0  0  0  0  0  0  0  0  0  0
  148.3257  135.2850  159.8326 H   0  0  0  0  0  0  0  0  0  0  0  0
  148.2056  133.5884  160.2794 H   0  0  0  0  0  0  0  0  0  0  0  0
  148.2026  132.8349  158.0124 H   0  0  0  0  0  0  0  0  0  0  0  0
  150.9378  134.3328  156.2838 H   0  0  0  0  0  0  0  0  0  0  0  0
  150.1365  136.4015  159.1053 H   0  0  0  0  0  0  0  0  0  0  0  0
  153.1879  141.5338  160.0566 H   0  0  0  0  0  0  0  0  0  0  0  0
  153.0404  143.7492  161.1479 H   0  0  0  0  0  0  0  0  0  0  0  0
  151.9007  145.6386  159.9979 H   0  0  0  0  0  0  0  0  0  0  0  0
  150.9136  145.3022  157.7385 H   0  0  0  0  0  0  0  0  0  0  0  0
  151.0575  143.0990  156.6316 H   0  0  0  0  0  0  0  0  0  0  0  0
  151.3440  137.9874  153.0189 H   0  0  0  0  0  0  0  0  0  0  0  0
  148.6827  135.3580  155.1523 H   0  0  0  0  0  0  0  0  0  0  0  0
  148.7716  133.6095  155.4442 H   0  0  0  0  0  0  0  0  0  0  0  0
  147.5096  135.7112  157.2644 H   0  0  0  0  0  0  0  0  0  0  0  0
  145.7789  134.4236  157.0532 H   0  0  0  0  0  0  0  0  0  0  0  0
  1  2  1  0  0  0  0
  1 34  1  0  0  0  0
  1 35  1  0  0  0  0
  1 36  1  0  0  0  0
  2  3  1  0  0  0  0
  2  4  1  0  0  0  0
  2  5  1  0  0  0  0
  3 37  1  0  0  0  0
  3 38  1  0  0  0  0
  3 39  1  0  0  0  0
  4 40  1  0  0  0  0
  4 41  1  0  0  0  0
  4 42  1  0  0  0  0
  5  6  1  0  0  0  0
  5  7  1  0  0  0  0
  5  8  1  0  0  0  0
  6 43  1  0  0  0  0
  6 44  1  0  0  0  0
  6 45  1  0  0  0  0
  7 46  1  0  0  0  0
  7 47  1  0  0  0  0
  7 48  1  0  0  0  0
  8  9  1  0  0  0  0
  9 10  1  0  0  0  0
  9 49  1  0  0  0  0
  9 50  1  0  0  0  0
 10 32  1  0  0  0  0
 10 11  1  0  0  0  0
 10 51  1  0  0  0  0
 11 12  1  0  0  0  0
 12 13  1  0  0  0  0
 12 31  1  0  0  0  0
 12 52  1  0  0  0  0
 13 30  1  0  0  0  0
 13 14  1  0  0  0  0
 14 15  2  0  0  0  0
 14 53  1  0  0  0  0
 15 16  1  0  0  0  0
 16 30  2  0  0  0  0
 16 17  1  0  0  0  0
 17 18  1  0  0  0  0
 17 27  2  0  0  0  0
 18 19  1  0  0  0  0
 19 20  2  0  0  0  0
 19 21  1  0  0  0  0
 21 26  1  0  0  0  0
 21 22  2  0  0  0  0
 22 23  1  0  0  0  0
 22 54  1  0  0  0  0
 23 24  2  0  0  0  0
 23 55  1  0  0  0  0
 24 25  1  0  0  0  0
 24 56  1  0  0  0  0
 25 26  2  0  0  0  0
 25 57  1  0  0  0  0
 26 58  1  0  0  0  0
 27 28  1  0  0  0  0
 28 29  2  0  0  0  0
 28 59  1  0  0  0  0
 29 30  1  0  0  0  0
 31 32  1  0  0  0  0
 31 60  1  0  0  0  0
 31 61  1  0  0  0  0
 32 33  1  0  0  0  0
 32 62  1  0  0  0  0
 33 63  1  0  0  0  0
M  CHG  1  18  -1
M  END
> <s_m_source_file>
AV-unprocessed.smi

> <i_m_source_file_index>
36

> <i_lp_mmshare_version>
43012

> <i_f3d_flags>
0

> <s_epik_input>
W0NIM11DKFtDSDNdKShbQ0gzXSlbU2ldKFtDSDNdKShbQ0gzXSlPW0NIMl1bQ0BASF0xT1tDQEhdKFtDSDJdW0NASF0xW09IXSluKFtjSF1uMiljKGMyMyluW2NIXW5jM1tOSF1DKD1PKWM0W2NIXVtjSF1bY0hdW2NIXVtjSF00

> <s_epik_cmdline>
J2VwaWtfcHl0aG9uJywgJy1waCcsICc3LjAnLCAnLXRuJywgJzgnLCAnLW1hJywgJzIwMCcsICctbWV0YWxfYmluZGluZycsICctaW1hZScsICc8aW5maWxlLm1hZT4nLCAnLW9tYWUnLCAnPG91dGZpbGUubWFlPic=

> <r_lp_tautomer_probability>
1

> <r_epik_Ionization_Penalty>
4.75685

> <r_epik_Ionization_Penalty_Charging>
3.55822

> <r_epik_Ionization_Penalty_Neutral>
1.19863

> <r_epik_State_Penalty>
3.564

> <r_epik_Charging_Adjusted_Penalty>
7.12222

> <i_epik_Tot_Q>
-1

> <i_epik_Tot_abs_Q>
1

> <r_epik_Metal_State_Penalty>
0.523258

> <b_epik_Metal_Only>
1

> <s_epik_Chemistry_Notes>
This compound contains an acetal/aminal-like group ( X-CH(R)-Y where X, Y are N, S, or O) that may be acid/base labile, releasing an aldehyde.

> <s_lp_Force_Field>
OPLS_2005

> <r_lp_Energy>
31.8386

> <b_lp_Chiralities_Consistent>
1

> <s_lp_Variant>
AV-unprocessed.smi:36-19

> <Gold.Version>
5.8.1

> <Gold.Id.Protein>
6NUR|6NUR_protein|mol2

> <Gold.PLP.Fitness>
57.1901

> <Gold.PLP.PLP>
-46.9501

> <Gold.PLP.part.hbond>
-3.0000

> <Gold.PLP.part.metal>
0.0000

> <Gold.PLP.part.buried>
-7.3309

> <Gold.PLP.part.nonpolar>
-36.0371

> <Gold.PLP.part.repulsive>
0.2721

> <Gold.PLP.ligand.clash>
0.0000

> <Gold.PLP.ligand.torsion>
1.0213

> <Gold.PLP.Chemscore.Hbond>
3.0000

> <Gold.PLP.Chemscore.CHOScore>
0.9636

> <Gold.PLP.Chemscore.Metal>
0.0000

> <Gold.Chemscore.Hbonds>
donor molecule, donor type, donor heavy atom, donor atom, acceptor molecule, acceptor atom, score
      P1  H  6896  6907       L1    11  1.00
      P1  H  7989  7998       L1    27  1.00
      P1  H  7997  8010       L1    20  1.00
      L1  C    28    59       P1  7949  1.00

> <Gold.PLP.Chemscore.Internal.Correction>
0.3919

> <Gold.Rescore>
     Score         DG    S(hbond)    S(metal)    S(lipo)     H(rot)  DE(clash)    DE(int)     intcor
     19.11     -21.48       2.79        0.00     115.51       2.67       0.10       2.26       ----

> <Gold.Chemscore.Fitness>
19.1143

> <Gold.Chemscore.DG>
-21.4751

> <Gold.Chemscore.ZeroCoef>
-5.4800

> <Gold.Chemscore.Hbond>
2.7894

> <Gold.Chemscore.Metal>
0.0000

> <Gold.Chemscore.Lipo>
115.5058

> <Gold.Chemscore.Internal_Hbond>
0.0000

> <Gold.Chemscore.DEClash>
0.0993

> <Gold.Chemscore.DEInternal>
2.2614

> <Gold.Chemscore.Rot>
2.6702

> <Gold.Chemscore.Internal.Correction>
   9.000000E+99

> <Gold.Chemscore.Hbonds>
donor molecule, donor type, donor heavy atom, donor atom, acceptor molecule, acceptor atom, score
      P1  H  6896  6907       L1    11  0.94
      P1  H  7989  7998       L1    27  0.92
      P1  H  7997  8010       L1    20  0.25

> <Gold.Chemscore.Hbond.Weighted>
-9.3166

> <Gold.Chemscore.Metal.Weighted>
-0.0000

> <Gold.Chemscore.Lipo.Weighted>
-13.5142

> <Gold.Chemscore.Internal_Hbond.Weighted>
0.0000

> <Gold.Chemscore.DEClash.Weighted>
0.0993

> <Gold.Chemscore.DEInternal.Weighted>
2.2614

> <Gold.Chemscore.Rot.Weighted>
6.8358

> <Gold.Chemscore.Internal.Correction.Weighted>
   9.000000E+99

> <Gold.Protein.RotatedTorsions>
[ 6907 6896 6895 6894 ] final -119.09 input  -60.11 | X-H torsion
[ 7974 7965 7964 7962 ] final  115.56 input  175.53 | X-H torsion
[ 8008 7997 7996 7995 ] final   36.45 input   59.86 | X-H torsion
[ 10167 10162 10161 10158 ] final  -27.68 input  -65.29 | X-H torsion
[ 10718 10713 10712 10709 ] final -147.46 input   66.30 | X-H torsion
[ 10763 10752 10751 10750 ] final  163.59 input  -60.55 | X-H torsion
[ 11005 11000 10999 10996 ] final  -84.77 input  -57.11 | X-H torsion

> <Gold.Protein.ActiveResidues>
 VAL166  LYS551  ARG553  GLY616  TRP617  ASP618  TYR619  PRO620  LYS621  CYS622 
 ASP623  PHE694  ASN695  SER759  ASP760  ASP761  ALA762  ILE779  LEU786  VAL792 
 PHE793  MET794  SER795  GLU796  ALA797  LYS798  CYS799  TRP800  GLU811  SER814 

> <Gold.Protein.RotatedAtoms>
  150.8275  133.8146  159.3112 H   0  0  0  0  0  0  0  0  0  0  0  0  # atno 6907 bound_to 6896
  151.5886  135.1053  160.0043 H   0  0  0  0  0  0  0  0  0  0  0  0  # atno 6908 bound_to 6896
  152.4359  133.7318  159.6648 H   0  0  0  0  0  0  0  0  0  0  0  0  # atno 6909 bound_to 6896
  145.1905  139.3003  143.4371 H   0  0  0  0  0  0  0  0  0  0  0  0  # atno 7974 bound_to 7965
  155.1875  140.3305  155.4364 H   0  0  0  0  0  0  0  0  0  0  0  0  # atno 8008 bound_to 7997
  156.2454  140.1916  156.6920 H   0  0  0  0  0  0  0  0  0  0  0  0  # atno 8009 bound_to 7997
  154.6228  140.0593  156.9622 H   0  0  0  0  0  0  0  0  0  0  0  0  # atno 8010 bound_to 7997
  140.7275  143.4073  151.1165 H   0  0  0  0  0  0  0  0  0  0  0  0  # atno 10167 bound_to 10162
  156.4078  130.7966  151.2181 H   0  0  0  0  0  0  0  0  0  0  0  0  # atno 10718 bound_to 10713
  154.2960  135.2760  155.2633 H   0  0  0  0  0  0  0  0  0  0  0  0  # atno 10763 bound_to 10752
  154.5091  135.5787  153.6594 H   0  0  0  0  0  0  0  0  0  0  0  0  # atno 10764 bound_to 10752
  152.9907  135.6176  154.3128 H   0  0  0  0  0  0  0  0  0  0  0  0  # atno 10765 bound_to 10752
  141.1647  133.7364  156.8917 H   0  0  0  0  0  0  0  0  0  0  0  0  # atno 11005 bound_to 11000
  146.3437  140.2115  142.8590 LP  0  0  0  0  0  0  0  0  0  0  0  0  # atno 17320 bound_to 7965
  145.0046  140.8662  143.5261 LP  0  0  0  0  0  0  0  0  0  0  0  0  # atno 17321 bound_to 7965
  139.7701  143.8507  152.3118 LP  0  0  0  0  0  0  0  0  0  0  0  0  # atno 17342 bound_to 10162
  139.8422  144.7204  150.9316 LP  0  0  0  0  0  0  0  0  0  0  0  0  # atno 17343 bound_to 10162
  157.7506  131.0267  150.3973 LP  0  0  0  0  0  0  0  0  0  0  0  0  # atno 17370 bound_to 10713
  156.4265  130.3963  149.6789 LP  0  0  0  0  0  0  0  0  0  0  0  0  # atno 17371 bound_to 10713
  140.1644  134.9143  157.2755 LP  0  0  0  0  0  0  0  0  0  0  0  0  # atno 17394 bound_to 11000
  140.2574  134.3611  155.7419 LP  0  0  0  0  0  0  0  0  0  0  0  0  # atno 17395 bound_to 11000

$$$$
