AV-unprocessed.smi:1394|AV-procd|sdf|5665|dock5
  -GOLD-   22720 5283D 1   1.00000     0.00000
 Structure written by MMmdl.
 41 42  0  0  0  0  0  0  0  0  1 V2000
  151.6601  145.5724  160.5336 C   0  0  0  0  0  0  0  0  0  0  0  0
  151.9939  144.0900  160.7819 C   0  0  2  0  0  0  0  0  0  0  0  0
  152.8020  143.9282  162.0854 C   0  0  0  0  0  0  0  0  0  0  0  0
  153.1437  142.4579  162.3688 C   0  0  0  0  0  0  0  0  0  0  0  0
  153.9024  141.8338  161.1903 C   0  0  0  0  0  0  0  0  0  0  0  0
  153.1027  141.9709  159.8866 C   0  0  0  0  0  0  0  0  0  0  0  0
  152.7405  143.4419  159.5888 C   0  0  1  0  0  0  0  0  0  0  0  0
  151.9209  143.5150  158.3811 N   0  0  0  0  0  0  0  0  0  0  0  0
  150.9377  142.6643  158.0514 C   0  0  0  0  0  0  0  0  0  0  0  0
  150.5982  141.7162  158.7611 O   0  0  0  0  0  0  0  0  0  0  0  0
  150.2284  142.9518  156.7201 C   0  0  0  0  0  0  0  0  0  0  0  0
  149.7274  141.7432  156.0430 N   0  0  0  0  0  0  0  0  0  0  0  0
  148.4026  141.7821  155.5728 C   0  0  0  0  0  0  0  0  0  0  0  0
  147.8482  140.7402  154.9387 C   0  0  0  0  0  0  0  0  0  0  0  0
  148.6491  139.5566  154.7422 C   0  0  0  0  0  0  0  0  0  0  0  0
  149.9246  139.4871  155.1888 C   0  0  0  0  0  0  0  0  0  0  0  0
  150.7882  138.2449  154.9819 C   0  0  0  0  0  0  0  0  0  0  0  0
  151.7838  138.4997  154.1319 F   0  0  0  0  0  0  0  0  0  0  0  0
  151.3194  137.8472  156.1385 F   0  0  0  0  0  0  0  0  0  0  0  0
  150.0816  137.2276  154.4864 F   0  0  0  0  0  0  0  0  0  0  0  0
  150.5246  140.6404  155.8908 C   0  0  0  0  0  0  0  0  0  0  0  0
  151.6795  140.6232  156.3203 O   0  0  0  0  0  0  0  0  0  0  0  0
  152.5642  146.1572  160.3617 H   0  0  0  0  0  0  0  0  0  0  0  0
  151.1426  146.0053  161.3898 H   0  0  0  0  0  0  0  0  0  0  0  0
  151.0112  145.7009  159.6672 H   0  0  0  0  0  0  0  0  0  0  0  0
  151.0483  143.5613  160.9155 H   0  0  0  0  0  0  0  0  0  0  0  0
  153.7238  144.5079  162.0212 H   0  0  0  0  0  0  0  0  0  0  0  0
  152.2397  144.3370  162.9255 H   0  0  0  0  0  0  0  0  0  0  0  0
  153.7414  142.3831  163.2778 H   0  0  0  0  0  0  0  0  0  0  0  0
  152.2270  141.8966  162.5538 H   0  0  0  0  0  0  0  0  0  0  0  0
  154.8719  142.3207  161.0787 H   0  0  0  0  0  0  0  0  0  0  0  0
  154.1052  140.7819  161.3933 H   0  0  0  0  0  0  0  0  0  0  0  0
  153.6807  141.5508  159.0626 H   0  0  0  0  0  0  0  0  0  0  0  0
  152.1922  141.3743  159.9586 H   0  0  0  0  0  0  0  0  0  0  0  0
  153.6640  144.0011  159.4245 H   0  0  0  0  0  0  0  0  0  0  0  0
  152.1280  144.2676  157.7405 H   0  0  0  0  0  0  0  0  0  0  0  0
  149.4102  143.6462  156.9157 H   0  0  0  0  0  0  0  0  0  0  0  0
  150.9094  143.4955  156.0624 H   0  0  0  0  0  0  0  0  0  0  0  0
  147.8705  142.7024  155.7652 H   0  0  0  0  0  0  0  0  0  0  0  0
  146.8284  140.7849  154.5855 H   0  0  0  0  0  0  0  0  0  0  0  0
  148.2062  138.7182  154.2255 H   0  0  0  0  0  0  0  0  0  0  0  0
  1  2  1  0  0  0  0
  1 23  1  0  0  0  0
  1 24  1  0  0  0  0
  1 25  1  0  0  0  0
  2  7  1  0  0  0  0
  2  3  1  0  0  0  0
  2 26  1  0  0  0  0
  3  4  1  0  0  0  0
  3 27  1  0  0  0  0
  3 28  1  0  0  0  0
  4  5  1  0  0  0  0
  4 29  1  0  0  0  0
  4 30  1  0  0  0  0
  5  6  1  0  0  0  0
  5 31  1  0  0  0  0
  5 32  1  0  0  0  0
  6  7  1  0  0  0  0
  6 33  1  0  0  0  0
  6 34  1  0  0  0  0
  7  8  1  0  0  0  0
  7 35  1  0  0  0  0
  8  9  1  0  0  0  0
  8 36  1  0  0  0  0
  9 10  2  0  0  0  0
  9 11  1  0  0  0  0
 11 12  1  0  0  0  0
 11 37  1  0  0  0  0
 11 38  1  0  0  0  0
 12 21  1  0  0  0  0
 12 13  1  0  0  0  0
 13 14  2  0  0  0  0
 13 39  1  0  0  0  0
 14 15  1  0  0  0  0
 14 40  1  0  0  0  0
 15 16  2  0  0  0  0
 15 41  1  0  0  0  0
 16 17  1  0  0  0  0
 16 21  1  0  0  0  0
 17 18  1  0  0  0  0
 17 19  1  0  0  0  0
 17 20  1  0  0  0  0
 21 22  2  0  0  0  0
M  END
> <s_m_source_file>
AV-unprocessed.smi

> <i_m_source_file_index>
1394

> <i_lp_mmshare_version>
43012

> <i_f3d_flags>
0

> <s_epik_input>
W0NIM11bQ0BASF0xW0NIMl1bQ0gyXVtDSDJdW0NIMl1bQ0BIXTFbTkhdQyg9TylbQ0gyXW4yW2NIXVtjSF1bY0hdYyhDKEYpKEYpRiljMj1P

> <s_epik_cmdline>
J2VwaWtfcHl0aG9uJywgJy1waCcsICc3LjAnLCAnLXRuJywgJzgnLCAnLW1hJywgJzIwMCcsICctbWV0YWxfYmluZGluZycsICctaW1hZScsICc8aW5maWxlLm1hZT4nLCAnLW9tYWUnLCAnPG91dGZpbGUubWFlPic=

> <r_lp_tautomer_probability>
1

> <r_epik_Ionization_Penalty>
2.11487e-08

> <r_epik_Ionization_Penalty_Charging>
2.10183e-09

> <r_epik_Ionization_Penalty_Neutral>
1.90469e-08

> <r_epik_State_Penalty>
-0

> <r_epik_Charging_Adjusted_Penalty>
2.10183e-09

> <i_epik_Tot_Q>
0

> <i_epik_Tot_abs_Q>
0

> <r_epik_Metal_State_Penalty>
-0

> <b_epik_Metal_Only>
0

> <s_lp_Force_Field>
OPLS_2005

> <r_lp_Energy>
20.2228

> <b_lp_Chiralities_Consistent>
1

> <s_lp_Variant>
AV-unprocessed.smi:1394-1

> <Gold.Version>
5.8.1

> <Gold.Id.Protein>
6NUR|6NUR_protein|mol2

> <Gold.PLP.Fitness>
56.7824

> <Gold.PLP.PLP>
-52.5879

> <Gold.PLP.part.hbond>
-1.0000

> <Gold.PLP.part.metal>
0.0000

> <Gold.PLP.part.buried>
0.7362

> <Gold.PLP.part.nonpolar>
-52.1085

> <Gold.PLP.part.repulsive>
0.0400

> <Gold.PLP.ligand.clash>
0.1366

> <Gold.PLP.ligand.torsion>
0.9894

> <Gold.PLP.Chemscore.Hbond>
0.9913

> <Gold.PLP.Chemscore.CHOScore>
1.0000

> <Gold.PLP.Chemscore.Metal>
0.0000

> <Gold.Chemscore.Hbonds>
donor molecule, donor type, donor heavy atom, donor atom, acceptor molecule, acceptor atom, score
      L1  C    13    39       P1  8028  0.86

> <Gold.PLP.Chemscore.Internal.Correction>
0.3362

> <Gold.Rescore>
     Score         DG    S(hbond)    S(metal)    S(lipo)     H(rot)  DE(clash)    DE(int)     intcor
     13.49     -18.69       0.92        0.00     119.90       1.52       0.50       4.70       ----

> <Gold.Chemscore.Fitness>
13.4931

> <Gold.Chemscore.DG>
-18.6941

> <Gold.Chemscore.ZeroCoef>
-5.4800

> <Gold.Chemscore.Hbond>
0.9243

> <Gold.Chemscore.Metal>
0.0000

> <Gold.Chemscore.Lipo>
119.9049

> <Gold.Chemscore.Internal_Hbond>
0.0000

> <Gold.Chemscore.DEClash>
0.5011

> <Gold.Chemscore.DEInternal>
4.6999

> <Gold.Chemscore.Rot>
1.5242

> <Gold.Chemscore.Internal.Correction>
   9.000000E+99

> <Gold.Chemscore.Hbond.Weighted>
-3.0871

> <Gold.Chemscore.Metal.Weighted>
-0.0000

> <Gold.Chemscore.Lipo.Weighted>
-14.0289

> <Gold.Chemscore.Internal_Hbond.Weighted>
0.0000

> <Gold.Chemscore.DEClash.Weighted>
0.5011

> <Gold.Chemscore.DEInternal.Weighted>
4.6999

> <Gold.Chemscore.Rot.Weighted>
3.9019

> <Gold.Chemscore.Internal.Correction.Weighted>
   9.000000E+99

> <Gold.Protein.RotatedTorsions>
[ 6907 6896 6895 6894 ] final  146.77 input  -60.11 | X-H torsion
[ 7974 7965 7964 7962 ] final  -31.31 input  175.53 | X-H torsion
[ 8008 7997 7996 7995 ] final  -50.79 input   59.86 | X-H torsion
[ 10167 10162 10161 10158 ] final  100.06 input  -65.29 | X-H torsion
[ 10718 10713 10712 10709 ] final  -95.50 input   66.30 | X-H torsion
[ 10763 10752 10751 10750 ] final -172.82 input  -60.55 | X-H torsion
[ 11005 11000 10999 10996 ] final   47.75 input  -57.11 | X-H torsion

> <Gold.Protein.ActiveResidues>
 VAL166  LYS551  ARG553  GLY616  TRP617  ASP618  TYR619  PRO620  LYS621  CYS622 
 ASP623  PHE694  ASN695  SER759  ASP760  ASP761  ALA762  ILE779  LEU786  VAL792 
 PHE793  MET794  SER795  GLU796  ALA797  LYS798  CYS799  TRP800  GLU811  SER814 

> <Gold.Protein.RotatedAtoms>
  152.1636  133.4597  159.4872 H   0  0  0  0  0  0  0  0  0  0  0  0  # atno 6907 bound_to 6896
  150.6910  134.2041  159.4343 H   0  0  0  0  0  0  0  0  0  0  0  0  # atno 6908 bound_to 6896
  151.9945  134.9961  160.0613 H   0  0  0  0  0  0  0  0  0  0  0  0  # atno 6909 bound_to 6896
  146.1077  140.5651  142.8792 H   0  0  0  0  0  0  0  0  0  0  0  0  # atno 7974 bound_to 7965
  154.4069  140.1263  156.4723 H   0  0  0  0  0  0  0  0  0  0  0  0  # atno 8008 bound_to 7997
  155.7167  140.3493  155.4978 H   0  0  0  0  0  0  0  0  0  0  0  0  # atno 8009 bound_to 7997
  155.9252  140.1059  157.1166 H   0  0  0  0  0  0  0  0  0  0  0  0  # atno 8010 bound_to 7997
  139.7561  144.6969  151.0360 H   0  0  0  0  0  0  0  0  0  0  0  0  # atno 10167 bound_to 10162
  156.0044  130.5112  150.6086 H   0  0  0  0  0  0  0  0  0  0  0  0  # atno 10718 bound_to 10713
  154.6149  135.2868  155.0391 H   0  0  0  0  0  0  0  0  0  0  0  0  # atno 10763 bound_to 10752
  154.1608  135.6488  153.4989 H   0  0  0  0  0  0  0  0  0  0  0  0  # atno 10764 bound_to 10752
  153.0210  135.5377  154.6916 H   0  0  0  0  0  0  0  0  0  0  0  0  # atno 10765 bound_to 10752
  140.1251  134.4778  155.8566 H   0  0  0  0  0  0  0  0  0  0  0  0  # atno 11005 bound_to 11000
  144.7484  140.5129  143.6819 LP  0  0  0  0  0  0  0  0  0  0  0  0  # atno 17320 bound_to 7965
  145.5728  139.1484  143.3279 LP  0  0  0  0  0  0  0  0  0  0  0  0  # atno 17321 bound_to 7965
  140.7803  143.4751  151.0093 LP  0  0  0  0  0  0  0  0  0  0  0  0  # atno 17342 bound_to 10162
  139.8438  143.7529  152.3180 LP  0  0  0  0  0  0  0  0  0  0  0  0  # atno 17343 bound_to 10162
  157.3922  131.0797  151.1383 LP  0  0  0  0  0  0  0  0  0  0  0  0  # atno 17370 bound_to 10713
  157.2072  130.6421  149.5760 LP  0  0  0  0  0  0  0  0  0  0  0  0  # atno 17371 bound_to 10713
  141.2159  133.6775  156.6963 LP  0  0  0  0  0  0  0  0  0  0  0  0  # atno 17394 bound_to 11000
  140.2914  134.8237  157.4020 LP  0  0  0  0  0  0  0  0  0  0  0  0  # atno 17395 bound_to 11000

$$$$
