AV-unprocessed.smi:47|AV-procd|sdf|423|dock1
  -GOLD-   2262016303D 1   1.00000     0.00000
 Structure written by MMmdl.
 32 34  0  0  0  0  0  0  0  0  2 V2000
  145.3081  141.3059  154.6689 O   0  0  0  0  0  0  0  0  0  0  0  0
  146.6532  140.8966  154.7955 C   0  0  1  0  0  0  0  0  0  0  0  0
  147.0383  139.8481  153.7538 C   0  0  0  0  0  0  0  0  0  0  0  0
  148.5011  139.9628  153.6135 N   0  3  0  0  0  0  0  0  0  0  0  0
  148.9161  141.3102  154.0642 C   0  0  2  0  0  0  0  0  0  0  0  0
  149.9258  141.2200  155.1677 C   0  0  0  0  0  0  0  0  0  0  0  0
  150.9183  140.3383  155.1140 N   0  0  0  0  0  0  0  0  0  0  0  0
  151.6009  140.6197  156.2429 N   0  0  0  0  0  0  0  0  0  0  0  0
  151.0210  141.6339  156.8973 C   0  0  0  0  0  0  0  0  0  0  0  0
  151.5051  142.2010  158.1578 C   0  0  0  0  0  0  0  0  0  0  0  0
  151.0022  143.4365  158.6276 C   0  0  0  0  0  0  0  0  0  0  0  0
  151.4670  143.9826  159.8399 C   0  0  0  0  0  0  0  0  0  0  0  0
  152.4387  143.2996  160.5949 C   0  0  0  0  0  0  0  0  0  0  0  0
  152.9457  142.0696  160.1362 C   0  0  0  0  0  0  0  0  0  0  0  0
  152.4815  141.5225  158.9242 C   0  0  0  0  0  0  0  0  0  0  0  0
  149.9406  142.0634  156.2441 N   0  0  0  0  0  0  0  0  0  0  0  0
  147.6316  142.0314  154.5039 C   0  0  0  0  0  0  0  0  0  0  0  0
  146.8254  140.5054  155.7993 H   0  0  0  0  0  0  0  0  0  0  0  0
  149.3648  141.8370  153.2206 H   0  0  0  0  0  0  0  0  0  0  0  0
  152.4342  140.1190  156.5177 H   0  0  0  0  0  0  0  0  0  0  0  0
  144.9191  140.8495  153.9380 H   0  0  0  0  0  0  0  0  0  0  0  0
  146.7357  138.8390  154.0343 H   0  0  0  0  0  0  0  0  0  0  0  0
  146.5859  140.0829  152.7890 H   0  0  0  0  0  0  0  0  0  0  0  0
  148.9390  139.2871  154.2241 H   0  0  0  0  0  0  0  0  0  0  0  0
  150.2565  143.9787  158.0651 H   0  0  0  0  0  0  0  0  0  0  0  0
  151.0778  144.9272  160.1907 H   0  0  0  0  0  0  0  0  0  0  0  0
  152.7950  143.7188  161.5244 H   0  0  0  0  0  0  0  0  0  0  0  0
  153.6921  141.5448  160.7143 H   0  0  0  0  0  0  0  0  0  0  0  0
  152.8847  140.5774  158.5913 H   0  0  0  0  0  0  0  0  0  0  0  0
  147.2569  142.6226  153.6666 H   0  0  0  0  0  0  0  0  0  0  0  0
  147.7743  142.7116  155.3450 H   0  0  0  0  0  0  0  0  0  0  0  0
  148.7855  139.7934  152.6594 H   0  0  0  0  0  0  0  0  0  0  0  0
  1  2  1  0  0  0  0
  1 21  1  0  0  0  0
  2 18  1  0  0  0  0
  2 17  1  0  0  0  0
  2  3  1  0  0  0  0
  3  4  1  0  0  0  0
  3 22  1  0  0  0  0
  3 23  1  0  0  0  0
  4  5  1  0  0  0  0
  4 24  1  0  0  0  0
  4 32  1  0  0  0  0
  5 19  1  0  0  0  0
  5  6  1  0  0  0  0
  5 17  1  0  0  0  0
  6 16  1  0  0  0  0
  6  7  2  0  0  0  0
  7  8  1  0  0  0  0
  8 20  1  0  0  0  0
  8  9  1  0  0  0  0
  9 10  1  0  0  0  0
  9 16  2  0  0  0  0
 10 15  1  0  0  0  0
 10 11  2  0  0  0  0
 11 12  1  0  0  0  0
 11 25  1  0  0  0  0
 12 13  2  0  0  0  0
 12 26  1  0  0  0  0
 13 14  1  0  0  0  0
 13 27  1  0  0  0  0
 14 15  2  0  0  0  0
 14 28  1  0  0  0  0
 15 29  1  0  0  0  0
 17 30  1  0  0  0  0
 17 31  1  0  0  0  0
M  CHG  1   4   1
M  END
> <s_m_source_file>
AV-unprocessed.smi

> <i_m_source_file_index>
47

> <i_lp_mmshare_version>
43012

> <i_f3d_flags>
0

> <s_epik_input>
W09IXVtDQEhdMVtDSDJdW05IXVtDQEBIXShbQ0gyXTEpYzJuW25IXWMobjIpLWMzW2NIXVtjSF1bY0hdW2NIXVtjSF0z

> <s_epik_cmdline>
J2VwaWtfcHl0aG9uJywgJy1waCcsICc3LjAnLCAnLXRuJywgJzgnLCAnLW1hJywgJzIwMCcsICctbWV0YWxfYmluZGluZycsICctaW1hZScsICc8aW5maWxlLm1hZT4nLCAnLW9tYWUnLCAnPG91dGZpbGUubWFlPic=

> <r_lp_tautomer_probability>
0.948284

> <r_epik_Ionization_Penalty>
0.163822

> <r_epik_Ionization_Penalty_Charging>
0.0371552

> <r_epik_Ionization_Penalty_Neutral>
0.126667

> <r_epik_State_Penalty>
0.318338

> <r_epik_Charging_Adjusted_Penalty>
0.355493

> <i_epik_Tot_Q>
1

> <i_epik_Tot_abs_Q>
1

> <r_epik_Metal_State_Penalty>
0.81572

> <b_epik_Metal_Only>
0

> <s_lp_Force_Field>
OPLS_2005

> <r_lp_Energy>
24.5404

> <b_lp_Chiralities_Consistent>
1

> <s_lp_Variant>
AV-unprocessed.smi:47-1

> <Gold.Version>
5.8.1

> <Gold.Id.Protein>
6NUR|6NUR_protein|mol2

> <Gold.PLP.Fitness>
41.8851

> <Gold.PLP.PLP>
-34.5877

> <Gold.PLP.part.hbond>
-3.0000

> <Gold.PLP.part.metal>
0.0000

> <Gold.PLP.part.buried>
-3.8842

> <Gold.PLP.part.nonpolar>
-28.8031

> <Gold.PLP.part.repulsive>
1.5932

> <Gold.PLP.ligand.clash>
0.0000

> <Gold.PLP.ligand.torsion>
0.6338

> <Gold.PLP.Chemscore.Hbond>
2.8500

> <Gold.PLP.Chemscore.CHOScore>
0.0000

> <Gold.PLP.Chemscore.Metal>
0.0000

> <Gold.Chemscore.Hbonds>
donor molecule, donor type, donor heavy atom, donor atom, acceptor molecule, acceptor atom, score
      L1  H     1    21       P1 10175  1.00
      L1  H     4    32       P1  7957  1.00
      P1  H  7989  7998       L1     7  0.85

> <Gold.PLP.Chemscore.Internal.Correction>
0.0150

> <Gold.Rescore>
     Score         DG    S(hbond)    S(metal)    S(lipo)     H(rot)  DE(clash)    DE(int)     intcor
     17.02     -18.36       2.02        0.00      85.05       1.50       0.63       0.71       ----

> <Gold.Chemscore.Fitness>
17.0226

> <Gold.Chemscore.DG>
-18.3597

> <Gold.Chemscore.ZeroCoef>
-5.4800

> <Gold.Chemscore.Hbond>
2.0238

> <Gold.Chemscore.Metal>
0.0000

> <Gold.Chemscore.Lipo>
85.0540

> <Gold.Chemscore.Internal_Hbond>
0.0000

> <Gold.Chemscore.DEClash>
0.6261

> <Gold.Chemscore.DEInternal>
0.7110

> <Gold.Chemscore.Rot>
1.4966

> <Gold.Chemscore.Internal.Correction>
   9.000000E+99

> <Gold.Chemscore.Hbonds>
donor molecule, donor type, donor heavy atom, donor atom, acceptor molecule, acceptor atom, score
      L1  H     1    21       P1 10175  0.93
      L1  H     4    32       P1  7957  0.99
      P1  H  7989  7998       L1     7  0.14

> <Gold.Chemscore.Hbond.Weighted>
-6.7596

> <Gold.Chemscore.Metal.Weighted>
-0.0000

> <Gold.Chemscore.Lipo.Weighted>
-9.9513

> <Gold.Chemscore.Internal_Hbond.Weighted>
0.0000

> <Gold.Chemscore.DEClash.Weighted>
0.6261

> <Gold.Chemscore.DEInternal.Weighted>
0.7110

> <Gold.Chemscore.Rot.Weighted>
3.8312

> <Gold.Chemscore.Internal.Correction.Weighted>
   9.000000E+99

> <Gold.Protein.RotatedTorsions>
[ 6907 6896 6895 6894 ] final -175.28 input  -60.11 | X-H torsion
[ 7974 7965 7964 7962 ] final  -97.06 input  175.53 | X-H torsion
[ 8008 7997 7996 7995 ] final   15.84 input   59.86 | X-H torsion
[ 10167 10162 10161 10158 ] final  156.54 input  -65.29 | X-H torsion
[ 10718 10713 10712 10709 ] final  -26.87 input   66.30 | X-H torsion
[ 10763 10752 10751 10750 ] final   33.27 input  -60.55 | X-H torsion
[ 11005 11000 10999 10996 ] final  109.72 input  -57.11 | X-H torsion

> <Gold.Protein.ActiveResidues>
 VAL166  LYS551  ARG553  GLY616  TRP617  ASP618  TYR619  PRO620  LYS621  CYS622 
 ASP623  PHE694  ASN695  SER759  ASP760  ASP761  ALA762  ILE779  LEU786  VAL792 
 PHE793  MET794  SER795  GLU796  ALA797  LYS798  CYS799  TRP800  GLU811  SER814 

> <Gold.Protein.RotatedAtoms>
  151.5860  133.3372  159.3017 H   0  0  0  0  0  0  0  0  0  0  0  0  # atno 6907 bound_to 6896
  150.8286  134.7532  159.6846 H   0  0  0  0  0  0  0  0  0  0  0  0  # atno 6908 bound_to 6896
  152.4373  134.5668  159.9961 H   0  0  0  0  0  0  0  0  0  0  0  0  # atno 6909 bound_to 6896
  145.3387  140.9455  143.2620 H   0  0  0  0  0  0  0  0  0  0  0  0  # atno 7974 bound_to 7965
  154.8684  140.2955  155.5496 H   0  0  0  0  0  0  0  0  0  0  0  0  # atno 8008 bound_to 7997
  156.3021  140.2465  156.3602 H   0  0  0  0  0  0  0  0  0  0  0  0  # atno 8009 bound_to 7997
  154.8843  140.0397  157.1790 H   0  0  0  0  0  0  0  0  0  0  0  0  # atno 8010 bound_to 7997
  139.4821  144.4999  151.8183 H   0  0  0  0  0  0  0  0  0  0  0  0  # atno 10167 bound_to 10162
  156.4456  130.4473  149.7023 H   0  0  0  0  0  0  0  0  0  0  0  0  # atno 10718 bound_to 10713
  153.0220  135.6391  154.1485 H   0  0  0  0  0  0  0  0  0  0  0  0  # atno 10763 bound_to 10752
  154.1218  135.2846  155.3208 H   0  0  0  0  0  0  0  0  0  0  0  0  # atno 10764 bound_to 10752
  154.6258  135.5509  153.7687 H   0  0  0  0  0  0  0  0  0  0  0  0  # atno 10765 bound_to 10752
  139.8867  134.9466  156.6169 H   0  0  0  0  0  0  0  0  0  0  0  0  # atno 11005 bound_to 11000
  144.8807  139.4908  143.6724 LP  0  0  0  0  0  0  0  0  0  0  0  0  # atno 17320 bound_to 7965
  146.3016  139.7445  142.9087 LP  0  0  0  0  0  0  0  0  0  0  0  0  # atno 17321 bound_to 7965
  140.4491  144.1879  150.5896 LP  0  0  0  0  0  0  0  0  0  0  0  0  # atno 17342 bound_to 10162
  140.4603  143.2451  151.9229 LP  0  0  0  0  0  0  0  0  0  0  0  0  # atno 17343 bound_to 10162
  156.3871  130.7608  151.2606 LP  0  0  0  0  0  0  0  0  0  0  0  0  # atno 17370 bound_to 10713
  157.7505  131.0279  150.4024 LP  0  0  0  0  0  0  0  0  0  0  0  0  # atno 17371 bound_to 10713
  140.7768  133.8692  155.8536 LP  0  0  0  0  0  0  0  0  0  0  0  0  # atno 17394 bound_to 11000
  140.9794  134.1425  157.4507 LP  0  0  0  0  0  0  0  0  0  0  0  0  # atno 17395 bound_to 11000

$$$$
