AV-unprocessed.smi:2058|AV-procd|sdf|8345|dock7
  -GOLD-   2272011 13D 1   1.00000     0.00000
 Structure written by MMmdl.
 42 43  0  0  0  0  0  0  0  0  1 V2000
  145.8623  136.3027  150.8182 C   0  0  0  0  0  0  0  0  0  0  0  0
  145.7975  137.5823  151.6658 C   0  0  1  0  0  0  0  0  0  0  0  0
  144.7643  137.4772  152.8056 C   0  0  0  0  0  0  0  0  0  0  0  0
  143.4644  137.7389  152.3208 O   0  0  0  0  0  0  0  0  0  0  0  0
  147.1250  137.8625  152.2065 N   0  0  0  0  0  0  0  0  0  0  0  0
  147.4040  138.7708  153.1524 C   0  0  0  0  0  0  0  0  0  0  0  0
  146.5506  139.4765  153.6892 O   0  0  0  0  0  0  0  0  0  0  0  0
  148.7168  138.7826  153.4393 N   0  0  0  0  0  0  0  0  0  0  0  0
  149.4067  139.5851  154.3872 C   0  0  0  0  0  0  0  0  0  0  0  0
  150.6905  139.1733  154.7934 C   0  0  0  0  0  0  0  0  0  0  0  0
  151.4021  139.9545  155.7229 C   0  0  0  0  0  0  0  0  0  0  0  0
  150.8141  141.1409  156.2198 C   0  0  0  0  0  0  0  0  0  0  0  0
  151.5075  141.9337  157.1594 N   0  0  0  0  0  0  0  0  0  0  0  0
  151.8490  141.2562  158.4118 C   0  0  0  0  0  0  0  0  0  0  0  0
  152.9241  142.0345  159.1890 C   0  0  0  0  0  0  0  0  0  0  0  0
  152.5025  143.4954  159.4043 C   0  0  0  0  0  0  0  0  0  0  0  0
  152.1640  144.1488  158.0564 C   0  0  0  0  0  0  0  0  0  0  0  0
  151.1013  143.3345  157.2986 C   0  0  0  0  0  0  0  0  0  0  0  0
  149.5881  141.5498  155.8108 N   0  0  0  0  0  0  0  0  0  0  0  0
  148.9069  140.7962  154.9220 C   0  0  0  0  0  0  0  0  0  0  0  0
  144.8983  136.0849  150.3577 H   0  0  0  0  0  0  0  0  0  0  0  0
  146.1447  135.4397  151.4218 H   0  0  0  0  0  0  0  0  0  0  0  0
  146.5926  136.4008  150.0143 H   0  0  0  0  0  0  0  0  0  0  0  0
  145.5164  138.4079  151.0087 H   0  0  0  0  0  0  0  0  0  0  0  0
  144.7908  136.4913  153.2709 H   0  0  0  0  0  0  0  0  0  0  0  0
  144.9755  138.2068  153.5882 H   0  0  0  0  0  0  0  0  0  0  0  0
  143.4910  137.7402  151.3763 H   0  0  0  0  0  0  0  0  0  0  0  0
  147.8896  137.3242  151.8268 H   0  0  0  0  0  0  0  0  0  0  0  0
  149.2799  138.0900  152.9679 H   0  0  0  0  0  0  0  0  0  0  0  0
  151.1280  138.2664  154.4018 H   0  0  0  0  0  0  0  0  0  0  0  0
  152.3895  139.6459  156.0329 H   0  0  0  0  0  0  0  0  0  0  0  0
  150.9452  141.1686  159.0163 H   0  0  0  0  0  0  0  0  0  0  0  0
  152.2050  140.2417  158.2370 H   0  0  0  0  0  0  0  0  0  0  0  0
  153.1111  141.5533  160.1493 H   0  0  0  0  0  0  0  0  0  0  0  0
  153.8652  142.0035  158.6382 H   0  0  0  0  0  0  0  0  0  0  0  0
  151.6331  143.5350  160.0615 H   0  0  0  0  0  0  0  0  0  0  0  0
  153.2989  144.0485  159.9031 H   0  0  0  0  0  0  0  0  0  0  0  0
  151.8110  145.1685  158.2118 H   0  0  0  0  0  0  0  0  0  0  0  0
  153.0674  144.2228  157.4496 H   0  0  0  0  0  0  0  0  0  0  0  0
  150.9451  143.7803  156.3154 H   0  0  0  0  0  0  0  0  0  0  0  0
  150.1489  143.3799  157.8289 H   0  0  0  0  0  0  0  0  0  0  0  0
  147.9502  141.2000  154.6301 H   0  0  0  0  0  0  0  0  0  0  0  0
  1  2  1  0  0  0  0
  1 21  1  0  0  0  0
  1 22  1  0  0  0  0
  1 23  1  0  0  0  0
  2  3  1  0  0  0  0
  2  5  1  0  0  0  0
  2 24  1  0  0  0  0
  3  4  1  0  0  0  0
  3 25  1  0  0  0  0
  3 26  1  0  0  0  0
  4 27  1  0  0  0  0
  5  6  1  0  0  0  0
  5 28  1  0  0  0  0
  6  7  2  0  0  0  0
  6  8  1  0  0  0  0
  8  9  1  0  0  0  0
  8 29  1  0  0  0  0
  9 20  1  0  0  0  0
  9 10  2  0  0  0  0
 10 11  1  0  0  0  0
 10 30  1  0  0  0  0
 11 12  2  0  0  0  0
 11 31  1  0  0  0  0
 12 13  1  0  0  0  0
 12 19  1  0  0  0  0
 13 18  1  0  0  0  0
 13 14  1  0  0  0  0
 14 15  1  0  0  0  0
 14 32  1  0  0  0  0
 14 33  1  0  0  0  0
 15 16  1  0  0  0  0
 15 34  1  0  0  0  0
 15 35  1  0  0  0  0
 16 17  1  0  0  0  0
 16 36  1  0  0  0  0
 16 37  1  0  0  0  0
 17 18  1  0  0  0  0
 17 38  1  0  0  0  0
 17 39  1  0  0  0  0
 18 40  1  0  0  0  0
 18 41  1  0  0  0  0
 19 20  2  0  0  0  0
 20 42  1  0  0  0  0
M  END
> <s_m_source_file>
AV-unprocessed.smi

> <i_m_source_file_index>
2058

> <i_lp_mmshare_version>
43012

> <i_f3d_flags>
0

> <s_epik_input>
W09IXVtDSDJdW0NAQEhdKFtDSDNdKVtOSF1DKD1PKVtOSF1jMVtjSF1bY0hdYyhuW2NIXTEpTjJbQ0gyXVtDSDJdW0NIMl1bQ0gyXVtDSDJdMg==

> <s_epik_cmdline>
J2VwaWtfcHl0aG9uJywgJy1waCcsICc3LjAnLCAnLXRuJywgJzgnLCAnLW1hJywgJzIwMCcsICctbWV0YWxfYmluZGluZycsICctaW1hZScsICc8aW5maWxlLm1hZT4nLCAnLW9tYWUnLCAnPG91dGZpbGUubWFlPic=

> <r_lp_tautomer_probability>
1

> <r_epik_Ionization_Penalty>
0.104828

> <r_epik_Ionization_Penalty_Charging>
0

> <r_epik_Ionization_Penalty_Neutral>
0.104828

> <r_epik_State_Penalty>
0.0887547

> <r_epik_Charging_Adjusted_Penalty>
0.0887547

> <i_epik_Tot_Q>
0

> <i_epik_Tot_abs_Q>
0

> <r_epik_Metal_State_Penalty>
0.0759464

> <b_epik_Metal_Only>
0

> <s_lp_Force_Field>
OPLS_2005

> <r_lp_Energy>
18.2312

> <b_lp_Chiralities_Consistent>
1

> <s_lp_Variant>
AV-unprocessed.smi:2058-2

> <Gold.Version>
5.8.1

> <Gold.Id.Protein>
6NUR|6NUR_protein|mol2

> <Gold.PLP.Fitness>
46.9522

> <Gold.PLP.PLP>
-40.5939

> <Gold.PLP.part.hbond>
-4.7956

> <Gold.PLP.part.metal>
0.0000

> <Gold.PLP.part.buried>
1.0974

> <Gold.PLP.part.nonpolar>
-37.8151

> <Gold.PLP.part.repulsive>
0.4385

> <Gold.PLP.ligand.clash>
0.0000

> <Gold.PLP.ligand.torsion>
0.7461

> <Gold.PLP.Chemscore.Hbond>
2.4766

> <Gold.PLP.Chemscore.CHOScore>
0.0000

> <Gold.PLP.Chemscore.Metal>
0.0000

> <Gold.Chemscore.Hbonds>
donor molecule, donor type, donor heavy atom, donor atom, acceptor molecule, acceptor atom, score
      L1  H     4    27       P1 10171  1.00
      L1  H     5    28       P1  7948  0.91
      L1  H     8    29       P1  7948  0.54

> <Gold.PLP.Chemscore.Internal.Correction>
0.4208

> <Gold.Rescore>
     Score         DG    S(hbond)    S(metal)    S(lipo)     H(rot)  DE(clash)    DE(int)     intcor
     14.64     -20.39       2.53        0.00      99.88       2.05       2.29       3.46       ----

> <Gold.Chemscore.Fitness>
14.6414

> <Gold.Chemscore.DG>
-20.3918

> <Gold.Chemscore.ZeroCoef>
-5.4800

> <Gold.Chemscore.Hbond>
2.5336

> <Gold.Chemscore.Metal>
0.0000

> <Gold.Chemscore.Lipo>
99.8778

> <Gold.Chemscore.Internal_Hbond>
0.0000

> <Gold.Chemscore.DEClash>
2.2866

> <Gold.Chemscore.DEInternal>
3.4638

> <Gold.Chemscore.Rot>
2.0453

> <Gold.Chemscore.Internal.Correction>
   9.000000E+99

> <Gold.Chemscore.Hbonds>
donor molecule, donor type, donor heavy atom, donor atom, acceptor molecule, acceptor atom, score
      L1  H     4    27       P1 10171  0.89
      L1  H     5    28       P1  7948  0.87
      L1  H     8    29       P1  7948  0.52

> <Gold.Chemscore.Hbond.Weighted>
-8.4621

> <Gold.Chemscore.Metal.Weighted>
-0.0000

> <Gold.Chemscore.Lipo.Weighted>
-11.6857

> <Gold.Chemscore.Internal_Hbond.Weighted>
0.0000

> <Gold.Chemscore.DEClash.Weighted>
2.2866

> <Gold.Chemscore.DEInternal.Weighted>
3.4638

> <Gold.Chemscore.Rot.Weighted>
5.2360

> <Gold.Chemscore.Internal.Correction.Weighted>
   9.000000E+99

> <Gold.Protein.RotatedTorsions>
[ 6907 6896 6895 6894 ] final   -5.83 input  -60.11 | X-H torsion
[ 7974 7965 7964 7962 ] final  139.07 input  175.53 | X-H torsion
[ 8008 7997 7996 7995 ] final   86.51 input   59.86 | X-H torsion
[ 10167 10162 10161 10158 ] final  -63.74 input  -65.29 | X-H torsion
[ 10718 10713 10712 10709 ] final  108.19 input   66.30 | X-H torsion
[ 10763 10752 10751 10750 ] final  -21.86 input  -60.55 | X-H torsion
[ 11005 11000 10999 10996 ] final   -0.67 input  -57.11 | X-H torsion

> <Gold.Protein.ActiveResidues>
 VAL166  LYS551  ARG553  GLY616  TRP617  ASP618  TYR619  PRO620  LYS621  CYS622 
 ASP623  PHE694  ASN695  SER759  ASP760  ASP761  ALA762  ILE779  LEU786  VAL792 
 PHE793  MET794  SER795  GLU796  ALA797  LYS798  CYS799  TRP800  GLU811  SER814 

> <Gold.Protein.RotatedAtoms>
  151.4753  135.1048  159.9762 H   0  0  0  0  0  0  0  0  0  0  0  0  # atno 6907 bound_to 6896
  152.4801  133.8228  159.7073 H   0  0  0  0  0  0  0  0  0  0  0  0  # atno 6908 bound_to 6896
  150.8866  133.7238  159.2943 H   0  0  0  0  0  0  0  0  0  0  0  0  # atno 6909 bound_to 6896
  144.9313  139.5044  143.5616 H   0  0  0  0  0  0  0  0  0  0  0  0  # atno 7974 bound_to 7965
  155.9637  140.3391  155.6513 H   0  0  0  0  0  0  0  0  0  0  0  0  # atno 8008 bound_to 7997
  155.6765  140.0733  157.2519 H   0  0  0  0  0  0  0  0  0  0  0  0  # atno 8009 bound_to 7997
  154.4149  140.1682  156.1924 H   0  0  0  0  0  0  0  0  0  0  0  0  # atno 8010 bound_to 7997
  140.5849  143.2332  151.6263 H   0  0  0  0  0  0  0  0  0  0  0  0  # atno 10167 bound_to 10162
  157.6597  131.0888  150.6268 H   0  0  0  0  0  0  0  0  0  0  0  0  # atno 10718 bound_to 10713
  153.6428  135.6984  153.5235 H   0  0  0  0  0  0  0  0  0  0  0  0  # atno 10763 bound_to 10752
  153.2768  135.4198  155.1040 H   0  0  0  0  0  0  0  0  0  0  0  0  # atno 10764 bound_to 10752
  154.8495  135.3592  154.5973 H   0  0  0  0  0  0  0  0  0  0  0  0  # atno 10765 bound_to 10752
  140.6388  133.9508  155.8315 H   0  0  0  0  0  0  0  0  0  0  0  0  # atno 11005 bound_to 11000
  146.3248  139.8265  142.8916 LP  0  0  0  0  0  0  0  0  0  0  0  0  # atno 17320 bound_to 7965
  145.3138  141.0226  143.3539 LP  0  0  0  0  0  0  0  0  0  0  0  0  # atno 17321 bound_to 7965
  139.5192  144.3261  152.0867 LP  0  0  0  0  0  0  0  0  0  0  0  0  # atno 17342 bound_to 10162
  140.2417  144.4262  150.6257 LP  0  0  0  0  0  0  0  0  0  0  0  0  # atno 17343 bound_to 10162
  156.6572  130.4502  149.5699 LP  0  0  0  0  0  0  0  0  0  0  0  0  # atno 17370 bound_to 10713
  156.2094  130.6669  151.1253 LP  0  0  0  0  0  0  0  0  0  0  0  0  # atno 17371 bound_to 10713
  141.0622  134.0330  157.3643 LP  0  0  0  0  0  0  0  0  0  0  0  0  # atno 17394 bound_to 11000
  139.9088  135.0186  156.7602 LP  0  0  0  0  0  0  0  0  0  0  0  0  # atno 17395 bound_to 11000

$$$$
