AV-unprocessed.smi:40|AV-procd|sdf|372|dock3
  -GOLD-   2262016213D 1   1.00000     0.00000
 Structure written by MMmdl.
 47 48  0  0  0  0  0  0  0  0  1 V2000
  143.7227  132.9785  150.8528 C   0  0  0  0  0  0  0  0  0  0  0  0
  144.5813  134.2103  150.5376 C   0  0  0  0  0  0  0  0  0  0  0  0
  144.7211  135.1899  151.7146 C   0  0  0  0  0  0  0  0  0  0  0  0
  145.5830  136.4244  151.3952 C   0  0  0  0  0  0  0  0  0  0  0  0
  145.5088  137.5060  152.4812 C   0  0  0  0  0  0  0  0  0  0  0  0
  146.7075  138.2623  152.4641 O   0  0  0  0  0  0  0  0  0  0  0  0
  147.2248  138.7576  153.6018 C   0  0  0  0  0  0  0  0  0  0  0  0
  146.6735  138.6795  154.6993 O   0  0  0  0  0  0  0  0  0  0  0  0
  148.4949  139.4260  153.3650 N   0  0  0  0  0  0  0  0  0  0  0  0
  149.3168  140.0459  154.2485 C   0  0  0  0  0  0  0  0  0  0  0  0
  150.4891  139.5465  154.6101 N   0  0  0  0  0  0  0  0  0  0  0  0
  151.3350  140.1421  155.5061 C   0  0  0  0  0  0  0  0  0  0  0  0
  152.4103  139.6202  155.7964 O   0  0  0  0  0  0  0  0  0  0  0  0
  150.9107  141.3617  156.0822 N   0  0  0  0  0  0  0  0  0  0  0  0
  151.8062  142.0863  157.0621 C   0  0  1  0  0  0  0  0  0  0  0  0
  151.2791  143.3641  157.2593 O   0  0  0  0  0  0  0  0  0  0  0  0
  151.4135  143.7284  158.6264 C   0  0  2  0  0  0  0  0  0  0  0  0
  152.7783  144.4187  158.8187 C   0  0  0  0  0  0  0  0  0  0  0  0
  151.2367  142.3927  159.3624 C   0  0  2  0  0  0  0  0  0  0  0  0
  151.8271  142.4013  160.6470 O   0  0  0  0  0  0  0  0  0  0  0  0
  151.9075  141.3851  158.4373 C   0  0  1  0  0  0  0  0  0  0  0  0
  151.2619  140.1259  158.5086 O   0  0  0  0  0  0  0  0  0  0  0  0
  149.6781  141.8930  155.7361 C   0  0  0  0  0  0  0  0  0  0  0  0
  148.8645  141.2838  154.8473 C   0  0  0  0  0  0  0  0  0  0  0  0
  147.6725  141.8179  154.5292 F   0  0  0  0  0  0  0  0  0  0  0  0
  152.7815  142.2005  156.5875 H   0  0  0  0  0  0  0  0  0  0  0  0
  150.6211  144.4266  158.8981 H   0  0  0  0  0  0  0  0  0  0  0  0
  150.1707  142.1757  159.4503 H   0  0  0  0  0  0  0  0  0  0  0  0
  152.9660  141.2721  158.6771 H   0  0  0  0  0  0  0  0  0  0  0  0
  143.6020  132.3566  149.9657 H   0  0  0  0  0  0  0  0  0  0  0  0
  142.7280  133.2675  151.1930 H   0  0  0  0  0  0  0  0  0  0  0  0
  144.1775  132.3593  151.6259 H   0  0  0  0  0  0  0  0  0  0  0  0
  145.5693  133.8942  150.2008 H   0  0  0  0  0  0  0  0  0  0  0  0
  144.1315  134.7389  149.6965 H   0  0  0  0  0  0  0  0  0  0  0  0
  143.7211  135.5180  152.0007 H   0  0  0  0  0  0  0  0  0  0  0  0
  145.1276  134.6694  152.5826 H   0  0  0  0  0  0  0  0  0  0  0  0
  146.6237  136.1219  151.2797 H   0  0  0  0  0  0  0  0  0  0  0  0
  145.2782  136.8518  150.4390 H   0  0  0  0  0  0  0  0  0  0  0  0
  144.6513  138.1595  152.3158 H   0  0  0  0  0  0  0  0  0  0  0  0
  145.3835  137.0377  153.4584 H   0  0  0  0  0  0  0  0  0  0  0  0
  148.8127  139.3756  152.4081 H   0  0  0  0  0  0  0  0  0  0  0  0
  152.9143  144.7474  159.8493 H   0  0  0  0  0  0  0  0  0  0  0  0
  152.8555  145.3013  158.1835 H   0  0  0  0  0  0  0  0  0  0  0  0
  153.6086  143.7585  158.5679 H   0  0  0  0  0  0  0  0  0  0  0  0
  152.6948  142.7687  160.5728 H   0  0  0  0  0  0  0  0  0  0  0  0
  150.6049  140.0892  157.8297 H   0  0  0  0  0  0  0  0  0  0  0  0
  149.3487  142.8170  156.1890 H   0  0  0  0  0  0  0  0  0  0  0  0
  1  2  1  0  0  0  0
  1 30  1  0  0  0  0
  1 31  1  0  0  0  0
  1 32  1  0  0  0  0
  2  3  1  0  0  0  0
  2 33  1  0  0  0  0
  2 34  1  0  0  0  0
  3  4  1  0  0  0  0
  3 35  1  0  0  0  0
  3 36  1  0  0  0  0
  4  5  1  0  0  0  0
  4 37  1  0  0  0  0
  4 38  1  0  0  0  0
  5  6  1  0  0  0  0
  5 39  1  0  0  0  0
  5 40  1  0  0  0  0
  6  7  1  0  0  0  0
  7  8  2  0  0  0  0
  7  9  1  0  0  0  0
  9 10  1  0  0  0  0
  9 41  1  0  0  0  0
 10 24  1  0  0  0  0
 10 11  2  0  0  0  0
 11 12  1  0  0  0  0
 12 13  2  0  0  0  0
 12 14  1  0  0  0  0
 14 15  1  0  0  0  0
 14 23  1  0  0  0  0
 15 26  1  0  0  0  0
 15 21  1  0  0  0  0
 15 16  1  0  0  0  0
 16 17  1  0  0  0  0
 17 27  1  0  0  0  0
 17 18  1  0  0  0  0
 17 19  1  0  0  0  0
 18 42  1  0  0  0  0
 18 43  1  0  0  0  0
 18 44  1  0  0  0  0
 19 28  1  0  0  0  0
 19 20  1  0  0  0  0
 19 21  1  0  0  0  0
 20 45  1  0  0  0  0
 21 29  1  0  0  0  0
 21 22  1  0  0  0  0
 22 46  1  0  0  0  0
 23 24  2  0  0  0  0
 23 47  1  0  0  0  0
 24 25  1  0  0  0  0
M  END
> <s_m_source_file>
AV-unprocessed.smi

> <i_m_source_file_index>
40

> <i_lp_mmshare_version>
43012

> <i_f3d_flags>
0

> <s_epik_input>
W0NIM11bQ0gyXVtDSDJdW0NIMl1bQ0gyXU9DKD1PKVtOSF1jMW5jKD1PKW4oW2NIXWMxRilbQ0BASF0yT1tDQEhdKFtDSDNdKVtDQEBIXShbT0hdKVtDQEhdMltPSF0=

> <s_epik_cmdline>
J2VwaWtfcHl0aG9uJywgJy1waCcsICc3LjAnLCAnLXRuJywgJzgnLCAnLW1hJywgJzIwMCcsICctbWV0YWxfYmluZGluZycsICctaW1hZScsICc8aW5maWxlLm1hZT4nLCAnLW9tYWUnLCAnPG91dGZpbGUubWFlPic=

> <r_lp_tautomer_probability>
1

> <r_epik_Ionization_Penalty>
2.29506e-06

> <r_epik_Ionization_Penalty_Charging>
8.26867e-09

> <r_epik_Ionization_Penalty_Neutral>
2.2868e-06

> <r_epik_State_Penalty>
-0

> <r_epik_Charging_Adjusted_Penalty>
8.26867e-09

> <i_epik_Tot_Q>
0

> <i_epik_Tot_abs_Q>
0

> <r_epik_Metal_State_Penalty>
-0

> <b_epik_Metal_Only>
0

> <s_epik_Chemistry_Notes>
This compound has an ester and may undergo hydrolysis at high or low pH. This compound contains an acetal/aminal-like group ( X-CH(R)-Y where X, Y are N, S, or O) that may be acid/base labile, releasing an aldehyde.

> <s_lp_Force_Field>
OPLS_2005

> <r_lp_Energy>
39.9495

> <b_lp_Chiralities_Consistent>
1

> <s_lp_Variant>
AV-unprocessed.smi:40-6

> <Gold.Version>
5.8.1

> <Gold.Id.Protein>
6NUR|6NUR_protein|mol2

> <Gold.PLP.Fitness>
48.0420

> <Gold.PLP.PLP>
-41.5019

> <Gold.PLP.part.hbond>
-3.7294

> <Gold.PLP.part.metal>
0.0000

> <Gold.PLP.part.buried>
-4.0443

> <Gold.PLP.part.nonpolar>
-36.0983

> <Gold.PLP.part.repulsive>
1.6237

> <Gold.PLP.ligand.clash>
0.0000

> <Gold.PLP.ligand.torsion>
1.3352

> <Gold.PLP.Chemscore.Hbond>
2.0003

> <Gold.PLP.Chemscore.CHOScore>
1.0000

> <Gold.PLP.Chemscore.Metal>
0.0000

> <Gold.Chemscore.Hbonds>
donor molecule, donor type, donor heavy atom, donor atom, acceptor molecule, acceptor atom, score
      L1  H     9    41       P1  7957  1.00
      P1  H  7997  8008       L1    13  0.96
      L1  C    23    47       P1  8028  1.00

> <Gold.PLP.Chemscore.Internal.Correction>
0.2096

> <Gold.Rescore>
     Score         DG    S(hbond)    S(metal)    S(lipo)     H(rot)  DE(clash)    DE(int)     intcor
      8.28     -12.61       1.95        0.00      86.09       3.70       1.88       2.44       ----

> <Gold.Chemscore.Fitness>
8.2831

> <Gold.Chemscore.DG>
-12.6065

> <Gold.Chemscore.ZeroCoef>
-5.4800

> <Gold.Chemscore.Hbond>
1.9504

> <Gold.Chemscore.Metal>
0.0000

> <Gold.Chemscore.Lipo>
86.0941

> <Gold.Chemscore.Internal_Hbond>
0.0000

> <Gold.Chemscore.DEClash>
1.8832

> <Gold.Chemscore.DEInternal>
2.4403

> <Gold.Chemscore.Rot>
3.6957

> <Gold.Chemscore.Internal.Correction>
   9.000000E+99

> <Gold.Chemscore.Hbonds>
donor molecule, donor type, donor heavy atom, donor atom, acceptor molecule, acceptor atom, score
      L1  H     9    41       P1  7957  0.94
      P1  H  6933  6945       L1    20  0.01
      P1  H  7997  8008       L1    13  0.90

> <Gold.Chemscore.Hbond.Weighted>
-6.5145

> <Gold.Chemscore.Metal.Weighted>
-0.0000

> <Gold.Chemscore.Lipo.Weighted>
-10.0730

> <Gold.Chemscore.Internal_Hbond.Weighted>
0.0000

> <Gold.Chemscore.DEClash.Weighted>
1.8832

> <Gold.Chemscore.DEInternal.Weighted>
2.4403

> <Gold.Chemscore.Rot.Weighted>
9.4610

> <Gold.Chemscore.Internal.Correction.Weighted>
   9.000000E+99

> <Gold.Protein.RotatedTorsions>
[ 6907 6896 6895 6894 ] final  117.17 input  -60.11 | X-H torsion
[ 7974 7965 7964 7962 ] final   97.70 input  175.53 | X-H torsion
[ 8008 7997 7996 7995 ] final  -38.33 input   59.86 | X-H torsion
[ 10167 10162 10161 10158 ] final  158.95 input  -65.29 | X-H torsion
[ 10718 10713 10712 10709 ] final  113.87 input   66.30 | X-H torsion
[ 10763 10752 10751 10750 ] final  171.76 input  -60.55 | X-H torsion
[ 11005 11000 10999 10996 ] final    2.40 input  -57.11 | X-H torsion

> <Gold.Protein.ActiveResidues>
 VAL166  LYS551  ARG553  GLY616  TRP617  ASP618  TYR619  PRO620  LYS621  CYS622 
 ASP623  PHE694  ASN695  SER759  ASP760  ASP761  ALA762  ILE779  LEU786  VAL792 
 PHE793  MET794  SER795  GLU796  ALA797  LYS798  CYS799  TRP800  GLU811  SER814 

> <Gold.Protein.RotatedAtoms>
  152.4629  133.7861  159.6876 H   0  0  0  0  0  0  0  0  0  0  0  0  # atno 6907 bound_to 6896
  150.8581  133.7675  159.3008 H   0  0  0  0  0  0  0  0  0  0  0  0  # atno 6908 bound_to 6896
  151.5249  135.1070  159.9940 H   0  0  0  0  0  0  0  0  0  0  0  0  # atno 6909 bound_to 6896
  145.4219  139.2320  143.3191 H   0  0  0  0  0  0  0  0  0  0  0  0  # atno 7974 bound_to 7965
  154.4038  140.1580  156.2683 H   0  0  0  0  0  0  0  0  0  0  0  0  # atno 8008 bound_to 7997
  155.8976  140.3435  155.5980 H   0  0  0  0  0  0  0  0  0  0  0  0  # atno 8009 bound_to 7997
  155.7486  140.0802  157.2203 H   0  0  0  0  0  0  0  0  0  0  0  0  # atno 8010 bound_to 7997
  139.4829  144.4776  151.8490 H   0  0  0  0  0  0  0  0  0  0  0  0  # atno 10167 bound_to 10162
  157.6313  131.0990  150.7104 H   0  0  0  0  0  0  0  0  0  0  0  0  # atno 10718 bound_to 10713
  154.4165  135.2757  155.2003 H   0  0  0  0  0  0  0  0  0  0  0  0  # atno 10763 bound_to 10752
  154.3967  135.6054  153.5877 H   0  0  0  0  0  0  0  0  0  0  0  0  # atno 10764 bound_to 10752
  152.9832  135.5916  154.4454 H   0  0  0  0  0  0  0  0  0  0  0  0  # atno 10765 bound_to 10752
  140.6047  133.9803  155.8149 H   0  0  0  0  0  0  0  0  0  0  0  0  # atno 11005 bound_to 11000
  146.2652  140.4945  142.8837 LP  0  0  0  0  0  0  0  0  0  0  0  0  # atno 17320 bound_to 7965
  144.8239  140.6596  143.6335 LP  0  0  0  0  0  0  0  0  0  0  0  0  # atno 17321 bound_to 7965
  140.4249  144.2193  150.5887 LP  0  0  0  0  0  0  0  0  0  0  0  0  # atno 17342 bound_to 10162
  140.4837  143.2370  151.8919 LP  0  0  0  0  0  0  0  0  0  0  0  0  # atno 17343 bound_to 10162
  156.7443  130.4749  149.5470 LP  0  0  0  0  0  0  0  0  0  0  0  0  # atno 17370 bound_to 10713
  156.1519  130.6316  151.0607 LP  0  0  0  0  0  0  0  0  0  0  0  0  # atno 17371 bound_to 10713
  141.0848  134.0007  157.3330 LP  0  0  0  0  0  0  0  0  0  0  0  0  # atno 17394 bound_to 11000
  139.9217  135.0200  156.8089 LP  0  0  0  0  0  0  0  0  0  0  0  0  # atno 17395 bound_to 11000

$$$$
