AV-unprocessed.smi:3245|AV-procd|sdf|12407|dock3
  -GOLD-   2272018283D 1   1.00000     0.00000
 Structure written by MMmdl.
 35 36  0  0  0  0  0  0  0  0  3 V2000
  146.1046  136.7111  153.2918 C   0  0  0  0  0  0  0  0  0  0  0  0
  145.8842  135.3038  152.7213 C   0  0  1  0  0  0  0  0  0  0  0  0
  145.3388  135.3792  151.2785 C   0  0  0  0  0  0  0  0  0  0  0  0
  145.2472  134.0785  150.6398 N   0  0  0  0  0  0  0  0  0  0  0  0
  144.1211  133.4142  150.2018 C   0  0  0  0  0  0  0  0  0  0  0  0
  144.5300  132.2136  149.6961 C   0  0  0  0  0  0  0  0  0  0  0  0
  145.9423  132.2365  149.8681 C   0  0  0  0  0  0  0  0  0  0  0  0
  146.3690  133.3559  150.4303 N   0  0  0  0  0  0  0  0  0  0  0  0
  147.1553  134.5459  152.7745 N   0  3  0  0  0  0  0  0  0  0  0  0
  147.5825  134.1453  154.1302 C   0  0  0  0  0  0  0  0  0  0  0  0
  148.9485  133.4470  154.0915 C   0  0  0  0  0  0  0  0  0  0  0  0
  149.4212  133.1478  155.4451 N   0  0  0  0  0  0  0  0  0  0  0  0
  149.7974  131.9357  155.8628 C   0  0  0  0  0  0  0  0  0  0  0  0
  149.8061  130.8849  155.2215 O   0  0  0  0  0  0  0  0  0  0  0  0
  150.2443  132.0686  157.2999 C   0  0  0  0  0  0  0  0  0  0  0  0
  150.0661  133.4817  157.5487 N   0  5  0  0  0  0  0  0  0  0  0  0
  149.5840  134.0584  156.4239 C   0  0  0  0  0  0  0  0  0  0  0  0
  149.3226  135.2499  156.2604 O   0  0  0  0  0  0  0  0  0  0  0  0
  145.1760  137.2827  153.2953 H   0  0  0  0  0  0  0  0  0  0  0  0
  146.8354  137.2690  152.7051 H   0  0  0  0  0  0  0  0  0  0  0  0
  146.4660  136.6668  154.3199 H   0  0  0  0  0  0  0  0  0  0  0  0
  145.1458  134.8096  153.3555 H   0  0  0  0  0  0  0  0  0  0  0  0
  144.3414  135.8207  151.2789 H   0  0  0  0  0  0  0  0  0  0  0  0
  145.9641  136.0313  150.6663 H   0  0  0  0  0  0  0  0  0  0  0  0
  143.1337  133.8423  150.2919 H   0  0  0  0  0  0  0  0  0  0  0  0
  143.9146  131.4347  149.2709 H   0  0  0  0  0  0  0  0  0  0  0  0
  146.6644  131.4774  149.6058 H   0  0  0  0  0  0  0  0  0  0  0  0
  147.0516  133.7166  152.2070 H   0  0  0  0  0  0  0  0  0  0  0  0
  147.6248  135.0309  154.7655 H   0  0  0  0  0  0  0  0  0  0  0  0
  146.8434  133.4758  154.5694 H   0  0  0  0  0  0  0  0  0  0  0  0
  148.8800  132.5226  153.5152 H   0  0  0  0  0  0  0  0  0  0  0  0
  149.6738  134.0710  153.5666 H   0  0  0  0  0  0  0  0  0  0  0  0
  149.6278  131.4370  157.9405 H   0  0  0  0  0  0  0  0  0  0  0  0
  151.2796  131.7409  157.3982 H   0  0  0  0  0  0  0  0  0  0  0  0
  147.8886  135.1171  152.3798 H   0  0  0  0  0  0  0  0  0  0  0  0
  1  2  1  0  0  0  0
  1 19  1  0  0  0  0
  1 20  1  0  0  0  0
  1 21  1  0  0  0  0
  2  3  1  0  0  0  0
  2  9  1  0  0  0  0
  2 22  1  0  0  0  0
  3  4  1  0  0  0  0
  3 23  1  0  0  0  0
  3 24  1  0  0  0  0
  4  8  1  0  0  0  0
  4  5  1  0  0  0  0
  5  6  2  0  0  0  0
  5 25  1  0  0  0  0
  6  7  1  0  0  0  0
  6 26  1  0  0  0  0
  7  8  2  0  0  0  0
  7 27  1  0  0  0  0
  9 10  1  0  0  0  0
  9 28  1  0  0  0  0
  9 35  1  0  0  0  0
 10 11  1  0  0  0  0
 10 29  1  0  0  0  0
 10 30  1  0  0  0  0
 11 12  1  0  0  0  0
 11 31  1  0  0  0  0
 11 32  1  0  0  0  0
 12 17  1  0  0  0  0
 12 13  1  0  0  0  0
 13 14  2  0  0  0  0
 13 15  1  0  0  0  0
 15 16  1  0  0  0  0
 15 33  1  0  0  0  0
 15 34  1  0  0  0  0
 16 17  1  0  0  0  0
 17 18  2  0  0  0  0
M  CHG  1   9   1
M  CHG  1  16  -1
M  END
> <s_m_source_file>
AV-unprocessed.smi

> <i_m_source_file_index>
3245

> <i_lp_mmshare_version>
43012

> <i_f3d_flags>
0

> <s_epik_input>
bjFbY0hdW2NIXVtjSF1uMVtDSDJdW0NAQEhdKFtDSDNdKVtOSF1bQ0gyXVtDSDJdTjJDKD1PKVtDSDJdW05IXUMyPU8=

> <s_epik_cmdline>
J2VwaWtfcHl0aG9uJywgJy1waCcsICc3LjAnLCAnLXRuJywgJzgnLCAnLW1hJywgJzIwMCcsICctbWV0YWxfYmluZGluZycsICctaW1hZScsICc8aW5maWxlLm1hZT4nLCAnLW9tYWUnLCAnPG91dGZpbGUubWFlPic=

> <r_lp_tautomer_probability>
1

> <r_epik_Ionization_Penalty>
5.1873

> <r_epik_Ionization_Penalty_Charging>
5.18729

> <r_epik_Ionization_Penalty_Neutral>
3.83745e-06

> <r_epik_State_Penalty>
5.18822

> <r_epik_Charging_Adjusted_Penalty>
10.3755

> <i_epik_Tot_Q>
0

> <i_epik_Tot_abs_Q>
2

> <r_epik_Metal_State_Penalty>
1.25934

> <b_epik_Metal_Only>
1

> <s_lp_Force_Field>
OPLS_2005

> <r_lp_Energy>
10.2516

> <b_lp_Chiralities_Consistent>
1

> <s_lp_Variant>
AV-unprocessed.smi:3245-6

> <Gold.Version>
5.8.1

> <Gold.Id.Protein>
6NUR|6NUR_protein|mol2

> <Gold.PLP.Fitness>
48.1784

> <Gold.PLP.PLP>
-30.4016

> <Gold.PLP.part.hbond>
-2.0000

> <Gold.PLP.part.metal>
0.0000

> <Gold.PLP.part.buried>
-5.1602

> <Gold.PLP.part.nonpolar>
-24.8188

> <Gold.PLP.part.repulsive>
0.2739

> <Gold.PLP.ligand.clash>
0.0000

> <Gold.PLP.ligand.torsion>
0.1507

> <Gold.PLP.Chemscore.Hbond>
4.0000

> <Gold.PLP.Chemscore.CHOScore>
2.0000

> <Gold.PLP.Chemscore.Metal>
0.0000

> <Gold.Chemscore.Hbonds>
donor molecule, donor type, donor heavy atom, donor atom, acceptor molecule, acceptor atom, score
      L1  H     9    35       P1  7948  2.00
      P1  H  6896  6907       L1    16  1.66
      L1  C     5    25       P1 10186  1.00
      L1  C     7    27       P1 10747  1.00

> <Gold.PLP.Chemscore.Internal.Correction>
0.0782

> <Gold.Rescore>
     Score         DG    S(hbond)    S(metal)    S(lipo)     H(rot)  DE(clash)    DE(int)     intcor
     11.43     -11.53       1.97        0.00      53.68       2.66       0.01       0.10       ----

> <Gold.Chemscore.Fitness>
11.4250

> <Gold.Chemscore.DG>
-11.5344

> <Gold.Chemscore.ZeroCoef>
-5.4800

> <Gold.Chemscore.Hbond>
1.9711

> <Gold.Chemscore.Metal>
0.0000

> <Gold.Chemscore.Lipo>
53.6809

> <Gold.Chemscore.Internal_Hbond>
0.0000

> <Gold.Chemscore.DEClash>
0.0069

> <Gold.Chemscore.DEInternal>
0.1025

> <Gold.Chemscore.Rot>
2.6601

> <Gold.Chemscore.Internal.Correction>
   9.000000E+99

> <Gold.Chemscore.Hbonds>
donor molecule, donor type, donor heavy atom, donor atom, acceptor molecule, acceptor atom, score
      L1  H     9    35       P1  7948  0.93
      P1  H  6896  6907       L1    16  0.14

> <Gold.Chemscore.Hbond.Weighted>
-6.5835

> <Gold.Chemscore.Metal.Weighted>
-0.0000

> <Gold.Chemscore.Lipo.Weighted>
-6.2807

> <Gold.Chemscore.Internal_Hbond.Weighted>
0.0000

> <Gold.Chemscore.DEClash.Weighted>
0.0069

> <Gold.Chemscore.DEInternal.Weighted>
0.1025

> <Gold.Chemscore.Rot.Weighted>
6.8098

> <Gold.Chemscore.Internal.Correction.Weighted>
   9.000000E+99

> <Gold.Protein.RotatedTorsions>
[ 6907 6896 6895 6894 ] final -141.35 input  -60.11 | X-H torsion
[ 7974 7965 7964 7962 ] final  140.31 input  175.53 | X-H torsion
[ 8008 7997 7996 7995 ] final  -18.85 input   59.86 | X-H torsion
[ 10167 10162 10161 10158 ] final   88.54 input  -65.29 | X-H torsion
[ 10718 10713 10712 10709 ] final   85.26 input   66.30 | X-H torsion
[ 10763 10752 10751 10750 ] final -119.64 input  -60.55 | X-H torsion
[ 11005 11000 10999 10996 ] final  -49.98 input  -57.11 | X-H torsion

> <Gold.Protein.ActiveResidues>
 VAL166  LYS551  ARG553  GLY616  TRP617  ASP618  TYR619  PRO620  LYS621  CYS622 
 ASP623  PHE694  ASN695  SER759  ASP760  ASP761  ALA762  ILE779  LEU786  VAL792 
 PHE793  MET794  SER795  GLU796  ALA797  LYS798  CYS799  TRP800  GLU811  SER814 

> <Gold.Protein.RotatedAtoms>
  151.0726  133.5454  159.2625 H   0  0  0  0  0  0  0  0  0  0  0  0  # atno 6907 bound_to 6896
  151.2388  135.0580  159.9026 H   0  0  0  0  0  0  0  0  0  0  0  0  # atno 6908 bound_to 6896
  152.5413  134.0504  159.8161 H   0  0  0  0  0  0  0  0  0  0  0  0  # atno 6909 bound_to 6896
  144.9199  139.5182  143.5668 H   0  0  0  0  0  0  0  0  0  0  0  0  # atno 7974 bound_to 7965
  154.4877  140.2104  155.9618 H   0  0  0  0  0  0  0  0  0  0  0  0  # atno 8008 bound_to 7997
  156.1260  140.3205  155.8247 H   0  0  0  0  0  0  0  0  0  0  0  0  # atno 8009 bound_to 7997
  155.4382  140.0508  157.3003 H   0  0  0  0  0  0  0  0  0  0  0  0  # atno 8010 bound_to 7997
  139.8662  144.6517  150.9001 H   0  0  0  0  0  0  0  0  0  0  0  0  # atno 10167 bound_to 10162
  157.6912  131.0167  150.2796 H   0  0  0  0  0  0  0  0  0  0  0  0  # atno 10718 bound_to 10713
  154.8623  135.4231  154.2331 H   0  0  0  0  0  0  0  0  0  0  0  0  # atno 10763 bound_to 10752
  153.3312  135.6988  153.6952 H   0  0  0  0  0  0  0  0  0  0  0  0  # atno 10764 bound_to 10752
  153.5968  135.3544  155.2904 H   0  0  0  0  0  0  0  0  0  0  0  0  # atno 10765 bound_to 10752
  141.0790  133.6658  156.3664 H   0  0  0  0  0  0  0  0  0  0  0  0  # atno 11005 bound_to 11000
  146.3199  139.8070  142.8953 LP  0  0  0  0  0  0  0  0  0  0  0  0  # atno 17320 bound_to 7965
  145.3314  141.0267  143.3444 LP  0  0  0  0  0  0  0  0  0  0  0  0  # atno 17321 bound_to 7965
  140.7768  143.3702  151.1664 LP  0  0  0  0  0  0  0  0  0  0  0  0  # atno 17342 bound_to 10162
  139.7327  143.9048  152.3024 LP  0  0  0  0  0  0  0  0  0  0  0  0  # atno 17343 bound_to 10162
  156.3345  130.3805  149.7462 LP  0  0  0  0  0  0  0  0  0  0  0  0  # atno 17370 bound_to 10713
  156.4991  130.8120  151.3125 LP  0  0  0  0  0  0  0  0  0  0  0  0  # atno 17371 bound_to 10713
  140.5510  134.6027  157.5407 LP  0  0  0  0  0  0  0  0  0  0  0  0  # atno 17394 bound_to 11000
  139.9603  134.7464  156.0252 LP  0  0  0  0  0  0  0  0  0  0  0  0  # atno 17395 bound_to 11000

$$$$
