AV-unprocessed.smi:699|AV-procd|sdf|3406|dock5
  -GOLD-   22720 0383D 1   1.00000     0.00000
 Structure written by MMmdl.
 35 36  0  0  0  0  0  0  0  0  2 V2000
  147.4106  131.9579  152.1506 N   0  0  0  0  0  0  0  0  0  0  0  0
  146.7368  132.9497  152.7384 C   0  0  0  0  0  0  0  0  0  0  0  0
  146.4817  132.9414  153.9412 O   0  0  0  0  0  0  0  0  0  0  0  0
  146.2865  134.1153  151.8448 C   0  0  1  0  0  0  0  0  0  0  0  0
  145.1693  133.7262  150.8657 C   0  0  0  0  0  0  0  0  0  0  0  0
  144.4653  135.0436  150.5551 C   0  0  0  0  0  0  0  0  0  0  0  0
  144.4769  135.8040  151.8806 C   0  0  0  0  0  0  0  0  0  0  0  0
  145.7220  135.3139  152.6472 C   0  0  2  0  0  0  0  0  0  0  0  0
  146.7280  136.3652  152.7897 N   0  0  0  0  0  0  0  0  0  0  0  0
  146.5076  137.5776  153.3178 C   0  0  0  0  0  0  0  0  0  0  0  0
  145.4095  137.9463  153.7330 O   0  0  0  0  0  0  0  0  0  0  0  0
  147.6273  138.3220  153.3107 N   0  0  0  0  0  0  0  0  0  0  0  0
  147.8181  139.6511  153.7797 C   0  0  0  0  0  0  0  0  0  0  0  0
  149.0478  139.9482  154.4087 C   0  0  0  0  0  0  0  0  0  0  0  0
  149.2817  141.2475  154.9034 C   0  0  0  0  0  0  0  0  0  0  0  0
  148.3274  142.1948  154.7817 N   0  3  0  0  0  0  0  0  0  0  0  0
  147.1320  141.9562  154.2010 C   0  0  0  0  0  0  0  0  0  0  0  0
  146.8412  140.6757  153.6872 C   0  0  0  0  0  0  0  0  0  0  0  0
  147.7225  131.1711  152.7015 H   0  0  0  0  0  0  0  0  0  0  0  0
  147.6040  131.9942  151.1605 H   0  0  0  0  0  0  0  0  0  0  0  0
  147.1345  134.4537  151.2456 H   0  0  0  0  0  0  0  0  0  0  0  0
  145.5565  133.2507  149.9640 H   0  0  0  0  0  0  0  0  0  0  0  0
  144.4611  133.0351  151.3259 H   0  0  0  0  0  0  0  0  0  0  0  0
  145.0372  135.5977  149.8096 H   0  0  0  0  0  0  0  0  0  0  0  0
  143.4581  134.9001  150.1630 H   0  0  0  0  0  0  0  0  0  0  0  0
  144.4565  136.8838  151.7274 H   0  0  0  0  0  0  0  0  0  0  0  0
  143.5832  135.5467  152.4506 H   0  0  0  0  0  0  0  0  0  0  0  0
  145.4096  134.9961  153.6446 H   0  0  0  0  0  0  0  0  0  0  0  0
  147.6581  136.1481  152.4633 H   0  0  0  0  0  0  0  0  0  0  0  0
  148.4313  137.9013  152.8681 H   0  0  0  0  0  0  0  0  0  0  0  0
  149.8113  139.1902  154.5092 H   0  0  0  0  0  0  0  0  0  0  0  0
  150.1957  141.5539  155.3911 H   0  0  0  0  0  0  0  0  0  0  0  0
  146.4451  142.7894  154.1697 H   0  0  0  0  0  0  0  0  0  0  0  0
  145.8716  140.5058  153.2450 H   0  0  0  0  0  0  0  0  0  0  0  0
  148.5154  143.1284  155.1479 H   0  0  0  0  0  0  0  0  0  0  0  0
  1  2  1  0  0  0  0
  1 19  1  0  0  0  0
  1 20  1  0  0  0  0
  2  3  2  0  0  0  0
  2  4  1  0  0  0  0
  4  8  1  0  0  0  0
  4  5  1  0  0  0  0
  4 21  1  0  0  0  0
  5  6  1  0  0  0  0
  5 22  1  0  0  0  0
  5 23  1  0  0  0  0
  6  7  1  0  0  0  0
  6 24  1  0  0  0  0
  6 25  1  0  0  0  0
  7  8  1  0  0  0  0
  7 26  1  0  0  0  0
  7 27  1  0  0  0  0
  8  9  1  0  0  0  0
  8 28  1  0  0  0  0
  9 10  1  0  0  0  0
  9 29  1  0  0  0  0
 10 11  2  0  0  0  0
 10 12  1  0  0  0  0
 12 13  1  0  0  0  0
 12 30  1  0  0  0  0
 13 18  1  0  0  0  0
 13 14  2  0  0  0  0
 14 15  1  0  0  0  0
 14 31  1  0  0  0  0
 15 16  2  0  0  0  0
 15 32  1  0  0  0  0
 16 17  1  0  0  0  0
 16 35  1  0  0  0  0
 17 18  2  0  0  0  0
 17 33  1  0  0  0  0
 18 34  1  0  0  0  0
M  CHG  1  16   1
M  END
> <s_m_source_file>
AV-unprocessed.smi

> <i_m_source_file_index>
699

> <i_lp_mmshare_version>
43012

> <i_f3d_flags>
0

> <s_epik_input>
W05IMl1DKD1PKVtDQEBIXTFbQ0gyXVtDSDJdW0NIMl1bQ0BIXTFbTkhdQyg9TylbTkhdYzJbY0hdW2NIXW5bY0hdW2NIXTI=

> <s_epik_cmdline>
J2VwaWtfcHl0aG9uJywgJy1waCcsICc3LjAnLCAnLXRuJywgJzgnLCAnLW1hJywgJzIwMCcsICctbWV0YWxfYmluZGluZycsICctaW1hZScsICc8aW5maWxlLm1hZT4nLCAnLW9tYWUnLCAnPG91dGZpbGUubWFlPic=

> <r_epik_Ionization_Penalty>
1.0332

> <r_epik_Ionization_Penalty_Charging>
1.03318

> <r_epik_Ionization_Penalty_Neutral>
1.91967e-05

> <r_epik_State_Penalty>
1.08452

> <r_epik_Charging_Adjusted_Penalty>
2.11769

> <i_epik_Tot_Q>
1

> <i_epik_Tot_abs_Q>
1

> <r_epik_Metal_State_Penalty>
1.18144

> <b_epik_Metal_Only>
0

> <s_lp_Force_Field>
OPLS_2005

> <r_lp_Energy>
26.7554

> <b_lp_Chiralities_Consistent>
1

> <s_lp_Variant>
AV-unprocessed.smi:699-8

> <Gold.Version>
5.8.1

> <Gold.Id.Protein>
6NUR|6NUR_protein|mol2

> <Gold.PLP.Fitness>
40.9707

> <Gold.PLP.PLP>
-29.3070

> <Gold.PLP.part.hbond>
-3.6709

> <Gold.PLP.part.metal>
0.0000

> <Gold.PLP.part.buried>
-5.0880

> <Gold.PLP.part.nonpolar>
-22.7556

> <Gold.PLP.part.repulsive>
0.5054

> <Gold.PLP.ligand.clash>
0.0000

> <Gold.PLP.ligand.torsion>
0.4809

> <Gold.PLP.Chemscore.Hbond>
4.2077

> <Gold.PLP.Chemscore.CHOScore>
0.0000

> <Gold.PLP.Chemscore.Metal>
0.0000

> <Gold.Chemscore.Hbonds>
donor molecule, donor type, donor heavy atom, donor atom, acceptor molecule, acceptor atom, score
      L1  H     1    20       P1 10747  0.46
      L1  H     9    29       P1  7948  0.73
      L1  H    12    30       P1  7948  0.83
      L1  H    16    35       P1  8028  2.00

> <Gold.PLP.Chemscore.Internal.Correction>
0.0025

> <Gold.Rescore>
     Score         DG    S(hbond)    S(metal)    S(lipo)     H(rot)  DE(clash)    DE(int)     intcor
     19.64     -20.20       3.61        0.00      55.61       1.50       0.01       0.56       ----

> <Gold.Chemscore.Fitness>
19.6378

> <Gold.Chemscore.DG>
-20.2046

> <Gold.Chemscore.ZeroCoef>
-5.4800

> <Gold.Chemscore.Hbond>
3.6132

> <Gold.Chemscore.Metal>
0.0000

> <Gold.Chemscore.Lipo>
55.6084

> <Gold.Chemscore.Internal_Hbond>
0.0000

> <Gold.Chemscore.DEClash>
0.0060

> <Gold.Chemscore.DEInternal>
0.5609

> <Gold.Chemscore.Rot>
1.5038

> <Gold.Chemscore.Internal.Correction>
   9.000000E+99

> <Gold.Chemscore.Hbonds>
donor molecule, donor type, donor heavy atom, donor atom, acceptor molecule, acceptor atom, score
      L1  H     1    20       P1 10747  0.45
      L1  H     9    29       P1  7948  0.73
      L1  H    12    30       P1  7948  0.78
      L1  H    16    35       P1  8028  1.00

> <Gold.Chemscore.Hbond.Weighted>
-12.0681

> <Gold.Chemscore.Metal.Weighted>
-0.0000

> <Gold.Chemscore.Lipo.Weighted>
-6.5062

> <Gold.Chemscore.Internal_Hbond.Weighted>
0.0000

> <Gold.Chemscore.DEClash.Weighted>
0.0060

> <Gold.Chemscore.DEInternal.Weighted>
0.5609

> <Gold.Chemscore.Rot.Weighted>
3.8496

> <Gold.Chemscore.Internal.Correction.Weighted>
   9.000000E+99

> <Gold.Protein.RotatedTorsions>
[ 6907 6896 6895 6894 ] final  107.31 input  -60.11 | X-H torsion
[ 7974 7965 7964 7962 ] final -173.42 input  175.53 | X-H torsion
[ 8008 7997 7996 7995 ] final   93.27 input   59.86 | X-H torsion
[ 10167 10162 10161 10158 ] final  140.07 input  -65.29 | X-H torsion
[ 10718 10713 10712 10709 ] final   14.00 input   66.30 | X-H torsion
[ 10763 10752 10751 10750 ] final  -26.30 input  -60.55 | X-H torsion
[ 11005 11000 10999 10996 ] final   52.75 input  -57.11 | X-H torsion

> <Gold.Protein.ActiveResidues>
 VAL166  LYS551  ARG553  GLY616  TRP617  ASP618  TYR619  PRO620  LYS621  CYS622 
 ASP623  PHE694  ASN695  SER759  ASP760  ASP761  ALA762  ILE779  LEU786  VAL792 
 PHE793  MET794  SER795  GLU796  ALA797  LYS798  CYS799  TRP800  GLU811  SER814 

> <Gold.Protein.RotatedAtoms>
  152.5159  133.9254  159.7554 H   0  0  0  0  0  0  0  0  0  0  0  0  # atno 6907 bound_to 6896
  150.9616  133.6431  159.2760 H   0  0  0  0  0  0  0  0  0  0  0  0  # atno 6908 bound_to 6896
  151.3674  135.0921  159.9507 H   0  0  0  0  0  0  0  0  0  0  0  0  # atno 6909 bound_to 6896
  144.7138  140.1625  143.6375 H   0  0  0  0  0  0  0  0  0  0  0  0  # atno 7974 bound_to 7965
  156.0449  140.3315  155.7285 H   0  0  0  0  0  0  0  0  0  0  0  0  # atno 8008 bound_to 7997
  155.5689  140.0626  157.2829 H   0  0  0  0  0  0  0  0  0  0  0  0  # atno 8009 bound_to 7997
  154.4409  140.1864  156.0847 H   0  0  0  0  0  0  0  0  0  0  0  0  # atno 8010 bound_to 7997
  139.5059  144.6256  151.5944 H   0  0  0  0  0  0  0  0  0  0  0  0  # atno 10167 bound_to 10162
  157.0327  130.6199  149.5738 H   0  0  0  0  0  0  0  0  0  0  0  0  # atno 10718 bound_to 10713
  153.7138  135.6949  153.5030 H   0  0  0  0  0  0  0  0  0  0  0  0  # atno 10763 bound_to 10752
  153.2253  135.4356  155.0534 H   0  0  0  0  0  0  0  0  0  0  0  0  # atno 10764 bound_to 10752
  154.8306  135.3471  154.6673 H   0  0  0  0  0  0  0  0  0  0  0  0  # atno 10765 bound_to 10752
  140.0823  134.5322  155.8934 H   0  0  0  0  0  0  0  0  0  0  0  0  # atno 11005 bound_to 11000
  145.9017  139.2434  143.1489 LP  0  0  0  0  0  0  0  0  0  0  0  0  # atno 17320 bound_to 7965
  145.9804  140.8687  143.0117 LP  0  0  0  0  0  0  0  0  0  0  0  0  # atno 17321 bound_to 7965
  140.5972  143.9674  150.6362 LP  0  0  0  0  0  0  0  0  0  0  0  0  # atno 17342 bound_to 10162
  140.2874  143.3347  152.1094 LP  0  0  0  0  0  0  0  0  0  0  0  0  # atno 17343 bound_to 10162
  156.0064  130.5151  150.7843 LP  0  0  0  0  0  0  0  0  0  0  0  0  # atno 17370 bound_to 10713
  157.5165  131.0929  151.0133 LP  0  0  0  0  0  0  0  0  0  0  0  0  # atno 17371 bound_to 10713
  141.2051  133.6644  156.6159 LP  0  0  0  0  0  0  0  0  0  0  0  0  # atno 17394 bound_to 11000
  140.3470  134.7801  157.4439 LP  0  0  0  0  0  0  0  0  0  0  0  0  # atno 17395 bound_to 11000

$$$$
