AV-unprocessed.smi:942|AV-procd|sdf|4223|dock1
  -GOLD-   22720 2133D 1   1.00000     0.00000
 Structure written by MMmdl.
 43 45  0  0  0  0  0  0  0  0  2 V2000
  152.2911  140.1739  156.5503 O   0  0  0  0  0  0  0  0  0  0  0  0
  151.3411  140.3764  157.3074 C   0  0  0  0  0  0  0  0  0  0  0  0
  150.2152  139.6454  157.2851 N   0  0  0  0  0  0  0  0  0  0  0  0
  149.9458  138.5229  156.3835 C   0  0  2  0  0  0  0  0  0  0  0  0
  151.1893  137.6123  156.2943 C   0  0  0  0  0  0  0  0  0  0  0  0
  151.6611  137.6404  154.8333 C   0  0  0  0  0  0  0  0  0  0  0  0
  151.0302  138.8929  154.2297 C   0  0  0  0  0  0  0  0  0  0  0  0
  149.6686  138.9641  154.9262 C   0  0  2  0  0  0  0  0  0  0  0  0
  148.9470  140.2407  154.7679 N   0  0  0  0  0  0  0  0  0  0  0  0
  147.6479  140.4522  154.3710 C   0  0  0  0  0  0  0  0  0  0  0  0
  147.4641  141.8101  154.3329 C   0  0  0  0  0  0  0  0  0  0  0  0
  148.6569  142.3730  154.6965 N   0  3  0  0  0  0  0  0  0  0  0  0
  149.5561  141.4193  154.9571 C   0  0  0  0  0  0  0  0  0  0  0  0
  151.4150  141.4878  158.3622 C   0  0  0  0  0  0  0  0  0  0  0  0
  151.5069  142.8799  157.7007 C   0  0  0  0  0  0  0  0  0  0  0  0
  151.6080  143.9951  158.7543 C   0  0  0  0  0  0  0  0  0  0  0  0
  152.7979  143.7624  159.6986 C   0  0  0  0  0  0  0  0  0  0  0  0
  152.7207  142.3769  160.3589 C   0  0  0  0  0  0  0  0  0  0  0  0
  152.6161  141.2622  159.3056 C   0  0  0  0  0  0  0  0  0  0  0  0
  149.4866  139.8832  157.9427 H   0  0  0  0  0  0  0  0  0  0  0  0
  149.0990  137.9461  156.7606 H   0  0  0  0  0  0  0  0  0  0  0  0
  151.9876  137.9652  156.9491 H   0  0  0  0  0  0  0  0  0  0  0  0
  150.9577  136.5925  156.6036 H   0  0  0  0  0  0  0  0  0  0  0  0
  152.7477  137.6368  154.7444 H   0  0  0  0  0  0  0  0  0  0  0  0
  151.2863  136.7584  154.3124 H   0  0  0  0  0  0  0  0  0  0  0  0
  151.6477  139.7555  154.4806 H   0  0  0  0  0  0  0  0  0  0  0  0
  150.9474  138.8389  153.1436 H   0  0  0  0  0  0  0  0  0  0  0  0
  149.0402  138.1988  154.4658 H   0  0  0  0  0  0  0  0  0  0  0  0
  146.9642  139.6484  154.1431 H   0  0  0  0  0  0  0  0  0  0  0  0
  146.5988  142.4023  154.0732 H   0  0  0  0  0  0  0  0  0  0  0  0
  150.5795  141.5718  155.2511 H   0  0  0  0  0  0  0  0  0  0  0  0
  150.5017  141.4564  158.9594 H   0  0  0  0  0  0  0  0  0  0  0  0
  152.3779  142.9296  157.0453 H   0  0  0  0  0  0  0  0  0  0  0  0
  150.6354  143.0550  157.0684 H   0  0  0  0  0  0  0  0  0  0  0  0
  151.7089  144.9627  158.2618 H   0  0  0  0  0  0  0  0  0  0  0  0
  150.6845  144.0371  159.3330 H   0  0  0  0  0  0  0  0  0  0  0  0
  153.7303  143.8494  159.1391 H   0  0  0  0  0  0  0  0  0  0  0  0
  152.8228  144.5385  160.4642 H   0  0  0  0  0  0  0  0  0  0  0  0
  153.5979  142.2147  160.9859 H   0  0  0  0  0  0  0  0  0  0  0  0
  151.8553  142.3357  161.0214 H   0  0  0  0  0  0  0  0  0  0  0  0
  152.5227  140.2990  159.8080 H   0  0  0  0  0  0  0  0  0  0  0  0
  153.5436  141.2224  158.7322 H   0  0  0  0  0  0  0  0  0  0  0  0
  148.8384  143.3673  154.7526 H   0  0  0  0  0  0  0  0  0  0  0  0
  1  2  2  0  0  0  0
  2  3  1  0  0  0  0
  2 14  1  0  0  0  0
  3  4  1  0  0  0  0
  3 20  1  0  0  0  0
  4  8  1  0  0  0  0
  4  5  1  0  0  0  0
  4 21  1  0  0  0  0
  5  6  1  0  0  0  0
  5 22  1  0  0  0  0
  5 23  1  0  0  0  0
  6  7  1  0  0  0  0
  6 24  1  0  0  0  0
  6 25  1  0  0  0  0
  7  8  1  0  0  0  0
  7 26  1  0  0  0  0
  7 27  1  0  0  0  0
  8  9  1  0  0  0  0
  8 28  1  0  0  0  0
  9 13  1  0  0  0  0
  9 10  1  0  0  0  0
 10 11  2  0  0  0  0
 10 29  1  0  0  0  0
 11 12  1  0  0  0  0
 11 30  1  0  0  0  0
 12 13  2  0  0  0  0
 12 43  1  0  0  0  0
 13 31  1  0  0  0  0
 14 19  1  0  0  0  0
 14 15  1  0  0  0  0
 14 32  1  0  0  0  0
 15 16  1  0  0  0  0
 15 33  1  0  0  0  0
 15 34  1  0  0  0  0
 16 17  1  0  0  0  0
 16 35  1  0  0  0  0
 16 36  1  0  0  0  0
 17 18  1  0  0  0  0
 17 37  1  0  0  0  0
 17 38  1  0  0  0  0
 18 19  1  0  0  0  0
 18 39  1  0  0  0  0
 18 40  1  0  0  0  0
 19 41  1  0  0  0  0
 19 42  1  0  0  0  0
M  CHG  1  12   1
M  END
> <s_m_source_file>
AV-unprocessed.smi

> <i_m_source_file_index>
942

> <i_lp_mmshare_version>
43012

> <i_f3d_flags>
0

> <s_epik_input>
W0NIMl0xW0NIMl1bQ0gyXVtDSDJdW0NIMl1bQ0hdMUMoPU8pW05IXVtDQEBIXTJbQ0gyXVtDSDJdW0NIMl1bQ0BIXTJuM1tjSF1bY0hdbltjSF0z

> <s_epik_cmdline>
J2VwaWtfcHl0aG9uJywgJy1waCcsICc3LjAnLCAnLXRuJywgJzgnLCAnLW1hJywgJzIwMCcsICctbWV0YWxfYmluZGluZycsICctaW1hZScsICc8aW5maWxlLm1hZT4nLCAnLW9tYWUnLCAnPG91dGZpbGUubWFlPic=

> <r_lp_tautomer_probability>
1

> <r_epik_Ionization_Penalty>
0.185467

> <r_epik_Ionization_Penalty_Charging>
0

> <r_epik_Ionization_Penalty_Neutral>
0.185467

> <r_epik_State_Penalty>
0.175036

> <r_epik_Charging_Adjusted_Penalty>
0.175036

> <i_epik_Tot_Q>
1

> <i_epik_Tot_abs_Q>
1

> <r_epik_Metal_State_Penalty>
0.487091

> <b_epik_Metal_Only>
0

> <s_lp_Force_Field>
OPLS_2005

> <r_lp_Energy>
33.7474

> <b_lp_Chiralities_Consistent>
1

> <s_lp_Variant>
AV-unprocessed.smi:942-3

> <Gold.Version>
5.8.1

> <Gold.Id.Protein>
6NUR|6NUR_protein|mol2

> <Gold.PLP.Fitness>
45.8515

> <Gold.PLP.PLP>
-37.8733

> <Gold.PLP.part.hbond>
-2.0000

> <Gold.PLP.part.metal>
0.0000

> <Gold.PLP.part.buried>
-4.3245

> <Gold.PLP.part.nonpolar>
-32.2874

> <Gold.PLP.part.repulsive>
0.3830

> <Gold.PLP.ligand.clash>
0.0000

> <Gold.PLP.ligand.torsion>
0.4757

> <Gold.PLP.Chemscore.Hbond>
2.9588

> <Gold.PLP.Chemscore.CHOScore>
0.0000

> <Gold.PLP.Chemscore.Metal>
0.0000

> <Gold.Chemscore.Hbonds>
donor molecule, donor type, donor heavy atom, donor atom, acceptor molecule, acceptor atom, score
      L1  H    12    43       P1  8028  1.98
      P1  H  7997  8010       L1     1  0.96

> <Gold.PLP.Chemscore.Internal.Correction>
0.0534

> <Gold.Rescore>
     Score         DG    S(hbond)    S(metal)    S(lipo)     H(rot)  DE(clash)    DE(int)     intcor
     15.56     -19.69       1.83        0.00     101.59       1.48       0.05       4.08       ----

> <Gold.Chemscore.Fitness>
15.5617

> <Gold.Chemscore.DG>
-19.6879

> <Gold.Chemscore.ZeroCoef>
-5.4800

> <Gold.Chemscore.Hbond>
1.8287

> <Gold.Chemscore.Metal>
0.0000

> <Gold.Chemscore.Lipo>
101.5940

> <Gold.Chemscore.Internal_Hbond>
0.0000

> <Gold.Chemscore.DEClash>
0.0490

> <Gold.Chemscore.DEInternal>
4.0772

> <Gold.Chemscore.Rot>
1.4790

> <Gold.Chemscore.Internal.Correction>
   9.000000E+99

> <Gold.Chemscore.Hbonds>
donor molecule, donor type, donor heavy atom, donor atom, acceptor molecule, acceptor atom, score
      L1  H    12    43       P1  8028  0.93
      P1  H  7997  8010       L1     1  0.90

> <Gold.Chemscore.Hbond.Weighted>
-6.1078

> <Gold.Chemscore.Metal.Weighted>
-0.0000

> <Gold.Chemscore.Lipo.Weighted>
-11.8865

> <Gold.Chemscore.Internal_Hbond.Weighted>
0.0000

> <Gold.Chemscore.DEClash.Weighted>
0.0490

> <Gold.Chemscore.DEInternal.Weighted>
4.0772

> <Gold.Chemscore.Rot.Weighted>
3.7863

> <Gold.Chemscore.Internal.Correction.Weighted>
   9.000000E+99

> <Gold.Protein.RotatedTorsions>
[ 6907 6896 6895 6894 ] final  111.64 input  -60.11 | X-H torsion
[ 7974 7965 7964 7962 ] final   81.33 input  175.53 | X-H torsion
[ 8008 7997 7996 7995 ] final   71.71 input   59.86 | X-H torsion
[ 10167 10162 10161 10158 ] final -126.71 input  -65.29 | X-H torsion
[ 10718 10713 10712 10709 ] final  105.34 input   66.30 | X-H torsion
[ 10763 10752 10751 10750 ] final   22.37 input  -60.55 | X-H torsion
[ 11005 11000 10999 10996 ] final  -22.75 input  -57.11 | X-H torsion

> <Gold.Protein.ActiveResidues>
 VAL166  LYS551  ARG553  GLY616  TRP617  ASP618  TYR619  PRO620  LYS621  CYS622 
 ASP623  PHE694  ASN695  SER759  ASP760  ASP761  ALA762  ILE779  LEU786  VAL792 
 PHE793  MET794  SER795  GLU796  ALA797  LYS798  CYS799  TRP800  GLU811  SER814 

> <Gold.Protein.RotatedAtoms>
  152.4959  133.8629  159.7259 H   0  0  0  0  0  0  0  0  0  0  0  0  # atno 6907 bound_to 6896
  150.9136  133.6958  159.2855 H   0  0  0  0  0  0  0  0  0  0  0  0  # atno 6908 bound_to 6896
  151.4359  135.1019  159.9708 H   0  0  0  0  0  0  0  0  0  0  0  0  # atno 6909 bound_to 6896
  145.6396  139.2422  143.2038 H   0  0  0  0  0  0  0  0  0  0  0  0  # atno 7974 bound_to 7965
  155.7580  140.3487  155.5183 H   0  0  0  0  0  0  0  0  0  0  0  0  # atno 8008 bound_to 7997
  155.8941  140.1023  157.1418 H   0  0  0  0  0  0  0  0  0  0  0  0  # atno 8009 bound_to 7997
  154.4036  140.1298  156.4340 H   0  0  0  0  0  0  0  0  0  0  0  0  # atno 8010 bound_to 7997
  139.9686  143.5871  152.2421 H   0  0  0  0  0  0  0  0  0  0  0  0  # atno 10167 bound_to 10162
  157.6709  131.0825  150.5842 H   0  0  0  0  0  0  0  0  0  0  0  0  # atno 10718 bound_to 10713
  153.0921  135.6649  153.9834 H   0  0  0  0  0  0  0  0  0  0  0  0  # atno 10763 bound_to 10752
  153.9428  135.2992  155.3443 H   0  0  0  0  0  0  0  0  0  0  0  0  # atno 10764 bound_to 10752
  154.7336  135.5111  153.9078 H   0  0  0  0  0  0  0  0  0  0  0  0  # atno 10765 bound_to 10752
  140.8686  133.7736  156.0160 H   0  0  0  0  0  0  0  0  0  0  0  0  # atno 11005 bound_to 11000
  146.1291  140.7209  142.9420 LP  0  0  0  0  0  0  0  0  0  0  0  0  # atno 17320 bound_to 7965
  144.7162  140.4218  143.7042 LP  0  0  0  0  0  0  0  0  0  0  0  0  # atno 17321 bound_to 7965
  139.6499  144.7660  151.2169 LP  0  0  0  0  0  0  0  0  0  0  0  0  # atno 17342 bound_to 10162
  140.7529  143.6178  150.8542 LP  0  0  0  0  0  0  0  0  0  0  0  0  # atno 17343 bound_to 10162
  156.6142  130.4388  149.5847 LP  0  0  0  0  0  0  0  0  0  0  0  0  # atno 17370 bound_to 10713
  156.2406  130.6849  151.1552 LP  0  0  0  0  0  0  0  0  0  0  0  0  # atno 17371 bound_to 10713
  140.8599  134.2853  157.5239 LP  0  0  0  0  0  0  0  0  0  0  0  0  # atno 17394 bound_to 11000
  139.8711  134.9512  156.4079 LP  0  0  0  0  0  0  0  0  0  0  0  0  # atno 17395 bound_to 11000

$$$$
