AV-unprocessed.smi:1800|AV-procd|sdf|7266|dock2
  -GOLD-   22720 8523D 1   1.00000     0.00000
 Structure written by MMmdl.
 35 36  0  0  0  0  0  0  0  0  2 V2000
  154.4710  140.5736  159.4187 C   0  0  0  0  0  0  0  0  0  0  0  0
  153.1764  141.3973  159.4561 C   0  0  1  0  0  0  0  0  0  0  0  0
  153.4573  142.9027  159.6968 C   0  0  0  0  0  0  0  0  0  0  0  0
  152.2936  143.7688  159.5255 N   0  0  0  0  0  0  0  0  0  0  0  0
  151.6631  144.5678  160.4611 C   0  0  0  0  0  0  0  0  0  0  0  0
  150.6284  145.1982  159.8319 C   0  0  0  0  0  0  0  0  0  0  0  0
  150.7111  144.7277  158.4923 C   0  0  0  0  0  0  0  0  0  0  0  0
  151.7155  143.8875  158.3071 N   0  0  0  0  0  0  0  0  0  0  0  0
  152.4639  141.2150  158.1988 N   0  5  0  0  0  0  0  0  0  0  0  0
  152.1230  139.7174  157.6770 S   0  0  0  0  0  0  0  0  0  0  0  0
  153.3412  138.9372  157.4061 O   0  0  0  0  0  0  0  0  0  0  0  0
  151.0792  139.0594  158.4807 O   0  0  0  0  0  0  0  0  0  0  0  0
  151.3620  140.1048  156.0262 C   0  0  0  0  0  0  0  0  0  0  0  0
  149.9053  139.6278  155.9522 C   0  0  0  0  0  0  0  0  0  0  0  0
  149.9463  138.1832  155.4307 C   0  0  0  0  0  0  0  0  0  0  0  0
  151.3722  137.9483  154.9105 C   0  0  0  0  0  0  0  0  0  0  0  0
  152.0408  139.3245  154.8958 C   0  0  0  0  0  0  0  0  0  0  0  0
  155.0245  140.6752  160.3522 H   0  0  0  0  0  0  0  0  0  0  0  0
  155.1263  140.8955  158.6081 H   0  0  0  0  0  0  0  0  0  0  0  0
  154.2596  139.5129  159.2772 H   0  0  0  0  0  0  0  0  0  0  0  0
  152.5939  141.0311  160.3028 H   0  0  0  0  0  0  0  0  0  0  0  0
  153.8211  143.0463  160.7148 H   0  0  0  0  0  0  0  0  0  0  0  0
  154.2566  143.2486  159.0389 H   0  0  0  0  0  0  0  0  0  0  0  0
  151.9953  144.6106  161.4877 H   0  0  0  0  0  0  0  0  0  0  0  0
  149.9190  145.8876  160.2640 H   0  0  0  0  0  0  0  0  0  0  0  0
  150.0789  144.9746  157.6523 H   0  0  0  0  0  0  0  0  0  0  0  0
  151.4531  141.1792  155.8653 H   0  0  0  0  0  0  0  0  0  0  0  0
  149.3873  139.7113  156.9079 H   0  0  0  0  0  0  0  0  0  0  0  0
  149.3619  140.2495  155.2399 H   0  0  0  0  0  0  0  0  0  0  0  0
  149.7109  137.4739  156.2252 H   0  0  0  0  0  0  0  0  0  0  0  0
  149.2086  138.0415  154.6406 H   0  0  0  0  0  0  0  0  0  0  0  0
  151.9073  137.2889  155.5950 H   0  0  0  0  0  0  0  0  0  0  0  0
  151.3832  137.4760  153.9281 H   0  0  0  0  0  0  0  0  0  0  0  0
  151.8300  139.8160  153.9453 H   0  0  0  0  0  0  0  0  0  0  0  0
  153.1246  139.2655  154.9935 H   0  0  0  0  0  0  0  0  0  0  0  0
  1  2  1  0  0  0  0
  1 18  1  0  0  0  0
  1 19  1  0  0  0  0
  1 20  1  0  0  0  0
  2  3  1  0  0  0  0
  2  9  1  0  0  0  0
  2 21  1  0  0  0  0
  3  4  1  0  0  0  0
  3 22  1  0  0  0  0
  3 23  1  0  0  0  0
  4  8  1  0  0  0  0
  4  5  1  0  0  0  0
  5  6  2  0  0  0  0
  5 24  1  0  0  0  0
  6  7  1  0  0  0  0
  6 25  1  0  0  0  0
  7  8  2  0  0  0  0
  7 26  1  0  0  0  0
  9 10  1  0  0  0  0
 10 11  2  0  0  0  0
 10 12  2  0  0  0  0
 10 13  1  0  0  0  0
 13 17  1  0  0  0  0
 13 14  1  0  0  0  0
 13 27  1  0  0  0  0
 14 15  1  0  0  0  0
 14 28  1  0  0  0  0
 14 29  1  0  0  0  0
 15 16  1  0  0  0  0
 15 30  1  0  0  0  0
 15 31  1  0  0  0  0
 16 17  1  0  0  0  0
 16 32  1  0  0  0  0
 16 33  1  0  0  0  0
 17 34  1  0  0  0  0
 17 35  1  0  0  0  0
M  CHG  1   9  -1
M  END
> <s_m_source_file>
AV-unprocessed.smi

> <i_m_source_file_index>
1800

> <i_lp_mmshare_version>
43012

> <i_f3d_flags>
0

> <s_epik_input>
bjFbY0hdW2NIXVtjSF1uMVtDSDJdW0NAQEhdKFtDSDNdKVtOSF1TKD1PKSg9TylbQ0hdMltDSDJdW0NIMl1bQ0gyXVtDSDJdMg==

> <s_epik_cmdline>
J2VwaWtfcHl0aG9uJywgJy1waCcsICc3LjAnLCAnLXRuJywgJzgnLCAnLW1hJywgJzIwMCcsICctbWV0YWxfYmluZGluZycsICctaW1hZScsICc8aW5maWxlLm1hZT4nLCAnLW9tYWUnLCAnPG91dGZpbGUubWFlPic=

> <r_lp_tautomer_probability>
1

> <r_epik_Ionization_Penalty>
6.58538

> <r_epik_Ionization_Penalty_Charging>
6.58536

> <r_epik_Ionization_Penalty_Neutral>
2.3841e-05

> <r_epik_State_Penalty>
6.58535

> <r_epik_Charging_Adjusted_Penalty>
13.1707

> <i_epik_Tot_Q>
-1

> <i_epik_Tot_abs_Q>
1

> <r_epik_Metal_State_Penalty>
2.50999

> <b_epik_Metal_Only>
1

> <s_lp_Force_Field>
OPLS_2005

> <r_lp_Energy>
15.5507

> <b_lp_Chiralities_Consistent>
1

> <s_lp_Variant>
AV-unprocessed.smi:1800-4

> <Gold.Version>
5.8.1

> <Gold.Id.Protein>
6NUR|6NUR_protein|mol2

> <Gold.PLP.Fitness>
44.9062

> <Gold.PLP.PLP>
-39.3956

> <Gold.PLP.part.hbond>
-1.0000

> <Gold.PLP.part.metal>
0.0000

> <Gold.PLP.part.buried>
-4.2357

> <Gold.PLP.part.nonpolar>
-34.8417

> <Gold.PLP.part.repulsive>
0.0460

> <Gold.PLP.ligand.clash>
0.0000

> <Gold.PLP.ligand.torsion>
0.8192

> <Gold.PLP.Chemscore.Hbond>
1.0000

> <Gold.PLP.Chemscore.CHOScore>
1.0000

> <Gold.PLP.Chemscore.Metal>
0.0000

> <Gold.Chemscore.Hbonds>
donor molecule, donor type, donor heavy atom, donor atom, acceptor molecule, acceptor atom, score
      P1  H  7997  8009       L1    11  0.94
      L1  C     7    26       P1  8028  0.53
      L1  C     7    26       P1  8029  0.29

> <Gold.PLP.Chemscore.Internal.Correction>
1.1489

> <Gold.Rescore>
     Score         DG    S(hbond)    S(metal)    S(lipo)     H(rot)  DE(clash)    DE(int)     intcor
     13.02     -15.32       0.94        0.00      90.35       1.51       0.03       2.27       ----

> <Gold.Chemscore.Fitness>
13.0188

> <Gold.Chemscore.DG>
-15.3159

> <Gold.Chemscore.ZeroCoef>
-5.4800

> <Gold.Chemscore.Hbond>
0.9407

> <Gold.Chemscore.Metal>
0.0000

> <Gold.Chemscore.Lipo>
90.3536

> <Gold.Chemscore.Internal_Hbond>
0.0000

> <Gold.Chemscore.DEClash>
0.0280

> <Gold.Chemscore.DEInternal>
2.2690

> <Gold.Chemscore.Rot>
1.5146

> <Gold.Chemscore.Internal.Correction>
   9.000000E+99

> <Gold.Chemscore.Hbonds>
donor molecule, donor type, donor heavy atom, donor atom, acceptor molecule, acceptor atom, score
      P1  H  7997  8009       L1    11  0.72

> <Gold.Chemscore.Hbond.Weighted>
-3.1418

> <Gold.Chemscore.Metal.Weighted>
-0.0000

> <Gold.Chemscore.Lipo.Weighted>
-10.5714

> <Gold.Chemscore.Internal_Hbond.Weighted>
0.0000

> <Gold.Chemscore.DEClash.Weighted>
0.0280

> <Gold.Chemscore.DEInternal.Weighted>
2.2690

> <Gold.Chemscore.Rot.Weighted>
3.8773

> <Gold.Chemscore.Internal.Correction.Weighted>
   9.000000E+99

> <Gold.Protein.RotatedTorsions>
[ 6907 6896 6895 6894 ] final   73.94 input  -60.11 | X-H torsion
[ 7974 7965 7964 7962 ] final   32.02 input  175.53 | X-H torsion
[ 8008 7997 7996 7995 ] final  145.17 input   59.86 | X-H torsion
[ 10167 10162 10161 10158 ] final  -51.43 input  -65.29 | X-H torsion
[ 10718 10713 10712 10709 ] final   83.87 input   66.30 | X-H torsion
[ 10763 10752 10751 10750 ] final   52.61 input  -60.55 | X-H torsion
[ 11005 11000 10999 10996 ] final  116.66 input  -57.11 | X-H torsion

> <Gold.Protein.ActiveResidues>
 VAL166  LYS551  ARG553  GLY616  TRP617  ASP618  TYR619  PRO620  LYS621  CYS622 
 ASP623  PHE694  ASN695  SER759  ASP760  ASP761  ALA762  ILE779  LEU786  VAL792 
 PHE793  MET794  SER795  GLU796  ALA797  LYS798  CYS799  TRP800  GLU811  SER814 

> <Gold.Protein.RotatedAtoms>
  152.4950  134.4346  159.9523 H   0  0  0  0  0  0  0  0  0  0  0  0  # atno 6907 bound_to 6896
  151.4327  133.3659  159.2778 H   0  0  0  0  0  0  0  0  0  0  0  0  # atno 6908 bound_to 6896
  150.9143  134.8584  159.7506 H   0  0  0  0  0  0  0  0  0  0  0  0  # atno 6909 bound_to 6896
  146.1513  139.6580  142.9097 H   0  0  0  0  0  0  0  0  0  0  0  0  # atno 7974 bound_to 7965
  156.2890  140.2216  156.5171 H   0  0  0  0  0  0  0  0  0  0  0  0  # atno 8008 bound_to 7997
  154.7560  140.0477  157.0955 H   0  0  0  0  0  0  0  0  0  0  0  0  # atno 8009 bound_to 7997
  155.0051  140.3106  155.4855 H   0  0  0  0  0  0  0  0  0  0  0  0  # atno 8010 bound_to 7997
  140.6589  143.2620  151.4502 H   0  0  0  0  0  0  0  0  0  0  0  0  # atno 10167 bound_to 10162
  157.6887  131.0109  150.2588 H   0  0  0  0  0  0  0  0  0  0  0  0  # atno 10718 bound_to 10713
  152.9790  135.5807  154.4607 H   0  0  0  0  0  0  0  0  0  0  0  0  # atno 10763 bound_to 10752
  154.4183  135.2771  155.1994 H   0  0  0  0  0  0  0  0  0  0  0  0  # atno 10764 bound_to 10752
  154.3754  135.6158  153.5816 H   0  0  0  0  0  0  0  0  0  0  0  0  # atno 10765 bound_to 10752
  139.9048  134.9601  156.7231 H   0  0  0  0  0  0  0  0  0  0  0  0  # atno 11005 bound_to 11000
  145.4816  141.0438  143.2642 LP  0  0  0  0  0  0  0  0  0  0  0  0  # atno 17320 bound_to 7965
  144.7907  139.6334  143.7114 LP  0  0  0  0  0  0  0  0  0  0  0  0  # atno 17321 bound_to 7965
  139.5817  144.1694  152.1977 LP  0  0  0  0  0  0  0  0  0  0  0  0  # atno 17342 bound_to 10162
  140.1021  144.5530  150.6982 LP  0  0  0  0  0  0  0  0  0  0  0  0  # atno 17343 bound_to 10162
  156.3171  130.3780  149.7608 LP  0  0  0  0  0  0  0  0  0  0  0  0  # atno 17370 bound_to 10713
  156.5190  130.8206  151.3197 LP  0  0  0  0  0  0  0  0  0  0  0  0  # atno 17371 bound_to 10713
  140.6984  133.9328  155.8009 LP  0  0  0  0  0  0  0  0  0  0  0  0  # atno 17394 bound_to 11000
  141.0390  134.0649  157.3925 LP  0  0  0  0  0  0  0  0  0  0  0  0  # atno 17395 bound_to 11000

$$$$
