AV-unprocessed.smi:108|AV-procd|sdf|1029|dock9
  -GOLD-   2262018 33D 1   1.00000     0.00000
 Structure written by MMmdl.
 59 62  0  0  0  0  0  0  0  0  1 V2000
  149.5271  137.1179  159.9968 O   0  0  0  0  0  0  0  0  0  0  0  0
  149.5330  137.0296  158.7669 C   0  0  0  0  0  0  0  0  0  0  0  0
  150.8213  137.3853  157.9930 C   0  0  0  0  0  0  0  0  0  0  0  0
  151.4542  138.6430  158.4478 N   0  0  0  0  0  0  0  0  0  0  0  0
  152.7095  138.5721  159.1001 C   0  0  0  0  0  0  0  0  0  0  0  0
  153.2864  137.4958  159.2628 O   0  0  0  0  0  0  0  0  0  0  0  0
  153.2426  139.8436  159.5730 C   0  0  0  0  0  0  0  0  0  0  0  0
  154.4065  139.8685  160.2446 F   0  0  0  0  0  0  0  0  0  0  0  0
  152.5760  140.9975  159.3647 C   0  0  0  0  0  0  0  0  0  0  0  0
  151.3739  141.0622  158.6813 N   0  0  0  0  0  0  0  0  0  0  0  0
  150.5935  142.3552  158.5548 C   0  0  2  0  0  0  0  0  0  0  0  0
  151.1274  143.3140  157.4761 C   0  0  0  0  0  0  0  0  0  0  0  0
  151.8508  144.3596  158.3020 C   0  0  0  0  0  0  0  0  0  0  0  0
  151.0152  144.3737  159.5759 C   0  0  0  0  0  0  0  0  0  0  0  0
  150.6676  143.0109  159.7861 O   0  0  0  0  0  0  0  0  0  0  0  0
  150.7590  139.8619  158.2573 C   0  0  0  0  0  0  0  0  0  0  0  0
  149.6406  139.8739  157.7373 O   0  0  0  0  0  0  0  0  0  0  0  0
  148.4363  136.6356  158.0723 N   0  0  0  0  0  0  0  0  0  0  0  0
  148.4795  136.4978  156.6064 C   0  0  0  0  0  0  0  0  0  0  0  0
  149.3397  135.3034  156.1389 C   0  0  0  0  0  0  0  0  0  0  0  0
  148.7245  134.5243  154.9885 C   0  0  0  0  0  0  0  0  0  0  0  0
  149.3948  133.4040  154.4518 C   0  0  0  0  0  0  0  0  0  0  0  0
  148.8135  132.6677  153.4016 C   0  0  0  0  0  0  0  0  0  0  0  0
  147.5618  133.0506  152.8822 C   0  0  0  0  0  0  0  0  0  0  0  0
  146.8918  134.1700  153.4132 C   0  0  0  0  0  0  0  0  0  0  0  0
  147.4718  134.9059  154.4648 C   0  0  0  0  0  0  0  0  0  0  0  0
  147.1420  136.3160  158.6998 C   0  0  0  0  0  0  0  0  0  0  0  0
  147.2308  135.5540  160.0176 C   0  0  0  0  0  0  0  0  0  0  0  0
  147.5020  134.1666  160.0603 C   0  0  0  0  0  0  0  0  0  0  0  0
  147.5731  133.4941  161.2956 C   0  0  0  0  0  0  0  0  0  0  0  0
  147.3816  134.2025  162.4968 C   0  0  0  0  0  0  0  0  0  0  0  0
  147.1219  135.5857  162.4620 C   0  0  0  0  0  0  0  0  0  0  0  0
  147.0486  136.2581  161.2267 C   0  0  0  0  0  0  0  0  0  0  0  0
  151.5251  136.5560  158.0688 H   0  0  0  0  0  0  0  0  0  0  0  0
  150.5914  137.4480  156.9289 H   0  0  0  0  0  0  0  0  0  0  0  0
  153.0161  141.8964  159.7653 H   0  0  0  0  0  0  0  0  0  0  0  0
  149.5664  142.0654  158.3267 H   0  0  0  0  0  0  0  0  0  0  0  0
  151.7335  142.8209  156.7162 H   0  0  0  0  0  0  0  0  0  0  0  0
  150.2717  143.7698  156.9763 H   0  0  0  0  0  0  0  0  0  0  0  0
  152.8694  144.0427  158.5260 H   0  0  0  0  0  0  0  0  0  0  0  0
  151.8976  145.3330  157.8131 H   0  0  0  0  0  0  0  0  0  0  0  0
  151.5523  144.7874  160.4297 H   0  0  0  0  0  0  0  0  0  0  0  0
  150.1040  144.9556  159.4298 H   0  0  0  0  0  0  0  0  0  0  0  0
  147.4690  136.3819  156.2129 H   0  0  0  0  0  0  0  0  0  0  0  0
  148.8493  137.4195  156.1538 H   0  0  0  0  0  0  0  0  0  0  0  0
  150.3262  135.6588  155.8397 H   0  0  0  0  0  0  0  0  0  0  0  0
  149.5118  134.6215  156.9726 H   0  0  0  0  0  0  0  0  0  0  0  0
  150.3518  133.0992  154.8509 H   0  0  0  0  0  0  0  0  0  0  0  0
  149.3274  131.8084  152.9968 H   0  0  0  0  0  0  0  0  0  0  0  0
  147.1155  132.4855  152.0773 H   0  0  0  0  0  0  0  0  0  0  0  0
  145.9314  134.4627  153.0154 H   0  0  0  0  0  0  0  0  0  0  0  0
  146.9507  135.7597  154.8727 H   0  0  0  0  0  0  0  0  0  0  0  0
  146.5755  137.2281  158.8905 H   0  0  0  0  0  0  0  0  0  0  0  0
  146.5170  135.7605  158.0003 H   0  0  0  0  0  0  0  0  0  0  0  0
  147.6556  133.6047  159.1511 H   0  0  0  0  0  0  0  0  0  0  0  0
  147.7750  132.4333  161.3209 H   0  0  0  0  0  0  0  0  0  0  0  0
  147.4359  133.6858  163.4437 H   0  0  0  0  0  0  0  0  0  0  0  0
  146.9783  136.1313  163.3828 H   0  0  0  0  0  0  0  0  0  0  0  0
  146.8484  137.3195  161.2098 H   0  0  0  0  0  0  0  0  0  0  0  0
  1  2  2  0  0  0  0
  2  3  1  0  0  0  0
  2 18  1  0  0  0  0
  3  4  1  0  0  0  0
  3 34  1  0  0  0  0
  3 35  1  0  0  0  0
  4 16  1  0  0  0  0
  4  5  1  0  0  0  0
  5  6  2  0  0  0  0
  5  7  1  0  0  0  0
  7  8  1  0  0  0  0
  7  9  2  0  0  0  0
  9 10  1  0  0  0  0
  9 36  1  0  0  0  0
 10 11  1  0  0  0  0
 10 16  1  0  0  0  0
 11 15  1  0  0  0  0
 11 12  1  0  0  0  0
 11 37  1  0  0  0  0
 12 13  1  0  0  0  0
 12 38  1  0  0  0  0
 12 39  1  0  0  0  0
 13 14  1  0  0  0  0
 13 40  1  0  0  0  0
 13 41  1  0  0  0  0
 14 15  1  0  0  0  0
 14 42  1  0  0  0  0
 14 43  1  0  0  0  0
 16 17  2  0  0  0  0
 18 19  1  0  0  0  0
 18 27  1  0  0  0  0
 19 20  1  0  0  0  0
 19 44  1  0  0  0  0
 19 45  1  0  0  0  0
 20 21  1  0  0  0  0
 20 46  1  0  0  0  0
 20 47  1  0  0  0  0
 21 26  1  0  0  0  0
 21 22  2  0  0  0  0
 22 23  1  0  0  0  0
 22 48  1  0  0  0  0
 23 24  2  0  0  0  0
 23 49  1  0  0  0  0
 24 25  1  0  0  0  0
 24 50  1  0  0  0  0
 25 26  2  0  0  0  0
 25 51  1  0  0  0  0
 26 52  1  0  0  0  0
 27 28  1  0  0  0  0
 27 53  1  0  0  0  0
 27 54  1  0  0  0  0
 28 33  1  0  0  0  0
 28 29  2  0  0  0  0
 29 30  1  0  0  0  0
 29 55  1  0  0  0  0
 30 31  2  0  0  0  0
 30 56  1  0  0  0  0
 31 32  1  0  0  0  0
 31 57  1  0  0  0  0
 32 33  2  0  0  0  0
 32 58  1  0  0  0  0
 33 59  1  0  0  0  0
M  END
> <s_m_source_file>
AV-unprocessed.smi

> <i_m_source_file_index>
108

> <i_lp_mmshare_version>
43012

> <i_f3d_flags>
0

> <s_epik_input>
W2NIXTFbY0hdW2NIXVtjSF1bY0hdYzFbQ0gyXVtDSDJdTihbQ0gyXWMyW2NIXVtjSF1bY0hdW2NIXVtjSF0yKUMoPU8pW0NIMl1uM2MoPU8pYyhGKVtjSF1uKGMzPU8pW0NAQEhdNFtDSDJdW0NIMl1bQ0gyXU80

> <s_epik_cmdline>
J2VwaWtfcHl0aG9uJywgJy1waCcsICc3LjAnLCAnLXRuJywgJzgnLCAnLW1hJywgJzIwMCcsICctbWV0YWxfYmluZGluZycsICctaW1hZScsICc8aW5maWxlLm1hZT4nLCAnLW9tYWUnLCAnPG91dGZpbGUubWFlPic=

> <r_lp_tautomer_probability>
1

> <r_epik_Ionization_Penalty>
5.46209e-09

> <r_epik_Ionization_Penalty_Charging>
4.22697e-09

> <r_epik_Ionization_Penalty_Neutral>
1.23512e-09

> <r_epik_State_Penalty>
-0

> <r_epik_Charging_Adjusted_Penalty>
4.22697e-09

> <i_epik_Tot_Q>
0

> <i_epik_Tot_abs_Q>
0

> <r_epik_Metal_State_Penalty>
-0

> <b_epik_Metal_Only>
0

> <s_epik_Chemistry_Notes>
This compound contains an acetal/aminal-like group ( X-CH(R)-Y where X, Y are N, S, or O) that may be acid/base labile, releasing an aldehyde.

> <s_lp_Force_Field>
OPLS_2005

> <r_lp_Energy>
39.1501

> <b_lp_Chiralities_Consistent>
1

> <s_lp_Variant>
AV-unprocessed.smi:108-1

> <Gold.Version>
5.8.1

> <Gold.Id.Protein>
6NUR|6NUR_protein|mol2

> <Gold.PLP.Fitness>
60.2976

> <Gold.PLP.PLP>
-62.1461

> <Gold.PLP.part.hbond>
-1.9463

> <Gold.PLP.part.metal>
0.0000

> <Gold.PLP.part.buried>
-8.6030

> <Gold.PLP.part.nonpolar>
-52.3695

> <Gold.PLP.part.repulsive>
0.0332

> <Gold.PLP.ligand.clash>
0.0000

> <Gold.PLP.ligand.torsion>
1.4946

> <Gold.PLP.Chemscore.Hbond>
0.3040

> <Gold.PLP.Chemscore.CHOScore>
0.0000

> <Gold.PLP.Chemscore.Metal>
0.0000

> <Gold.Chemscore.Hbonds>
donor molecule, donor type, donor heavy atom, donor atom, acceptor molecule, acceptor atom, score
      P1  H  6931  6943       L1     1  0.17

> <Gold.PLP.Chemscore.Internal.Correction>
0.2288

> <Gold.Rescore>
     Score         DG    S(hbond)    S(metal)    S(lipo)     H(rot)  DE(clash)    DE(int)     intcor
     13.95     -16.86       0.38        0.00     136.22       2.28       0.10       2.81       ----

> <Gold.Chemscore.Fitness>
13.9459

> <Gold.Chemscore.DG>
-16.8602

> <Gold.Chemscore.ZeroCoef>
-5.4800

> <Gold.Chemscore.Hbond>
0.3796

> <Gold.Chemscore.Metal>
0.0000

> <Gold.Chemscore.Lipo>
136.2214

> <Gold.Chemscore.Internal_Hbond>
0.0000

> <Gold.Chemscore.DEClash>
0.1023

> <Gold.Chemscore.DEInternal>
2.8120

> <Gold.Chemscore.Rot>
2.2756

> <Gold.Chemscore.Internal.Correction>
   9.000000E+99

> <Gold.Chemscore.Hbonds>
donor molecule, donor type, donor heavy atom, donor atom, acceptor molecule, acceptor atom, score
      P1  H  6931  6943       L1     1  0.18

> <Gold.Chemscore.Hbond.Weighted>
-1.2678

> <Gold.Chemscore.Metal.Weighted>
-0.0000

> <Gold.Chemscore.Lipo.Weighted>
-15.9379

> <Gold.Chemscore.Internal_Hbond.Weighted>
0.0000

> <Gold.Chemscore.DEClash.Weighted>
0.1023

> <Gold.Chemscore.DEInternal.Weighted>
2.8120

> <Gold.Chemscore.Rot.Weighted>
5.8255

> <Gold.Chemscore.Internal.Correction.Weighted>
   9.000000E+99

> <Gold.Protein.RotatedTorsions>
[ 6907 6896 6895 6894 ] final   25.81 input  -60.11 | X-H torsion
[ 7974 7965 7964 7962 ] final  -74.91 input  175.53 | X-H torsion
[ 8008 7997 7996 7995 ] final   98.97 input   59.86 | X-H torsion
[ 10167 10162 10161 10158 ] final  -74.34 input  -65.29 | X-H torsion
[ 10718 10713 10712 10709 ] final  -34.77 input   66.30 | X-H torsion
[ 10763 10752 10751 10750 ] final -103.53 input  -60.55 | X-H torsion
[ 11005 11000 10999 10996 ] final  165.46 input  -57.11 | X-H torsion

> <Gold.Protein.ActiveResidues>
 VAL166  LYS551  ARG553  GLY616  TRP617  ASP618  TYR619  PRO620  LYS621  CYS622 
 ASP623  PHE694  ASN695  SER759  ASP760  ASP761  ALA762  ILE779  LEU786  VAL792 
 PHE793  MET794  SER795  GLU796  ALA797  LYS798  CYS799  TRP800  GLU811  SER814 

> <Gold.Protein.RotatedAtoms>
  151.9781  135.0042  160.0555 H   0  0  0  0  0  0  0  0  0  0  0  0  # atno 6907 bound_to 6896
  152.1721  133.4646  159.4923 H   0  0  0  0  0  0  0  0  0  0  0  0  # atno 6908 bound_to 6896
  150.6903  134.1857  159.4309 H   0  0  0  0  0  0  0  0  0  0  0  0  # atno 6909 bound_to 6896
  145.6329  140.9332  143.1077 H   0  0  0  0  0  0  0  0  0  0  0  0  # atno 7974 bound_to 7965
  156.1058  140.3236  155.8004 H   0  0  0  0  0  0  0  0  0  0  0  0  # atno 8008 bound_to 7997
  155.4759  140.0550  157.2991 H   0  0  0  0  0  0  0  0  0  0  0  0  # atno 8009 bound_to 7997
  154.4726  140.2018  155.9971 H   0  0  0  0  0  0  0  0  0  0  0  0  # atno 8010 bound_to 7997
  140.5035  143.2357  151.7712 H   0  0  0  0  0  0  0  0  0  0  0  0  # atno 10167 bound_to 10162
  156.3466  130.4302  149.7740 H   0  0  0  0  0  0  0  0  0  0  0  0  # atno 10718 bound_to 10713
  154.7814  135.4820  153.9853 H   0  0  0  0  0  0  0  0  0  0  0  0  # atno 10763 bound_to 10752
  153.1499  135.6789  153.8905 H   0  0  0  0  0  0  0  0  0  0  0  0  # atno 10764 bound_to 10752
  153.8553  135.3162  155.3413 H   0  0  0  0  0  0  0  0  0  0  0  0  # atno 10765 bound_to 10752
  140.2564  134.7937  157.3549 H   0  0  0  0  0  0  0  0  0  0  0  0  # atno 11005 bound_to 11000
  144.7186  139.8107  143.7390 LP  0  0  0  0  0  0  0  0  0  0  0  0  # atno 17320 bound_to 7965
  146.1342  139.4384  143.0149 LP  0  0  0  0  0  0  0  0  0  0  0  0  # atno 17321 bound_to 7965
  139.4878  144.4489  151.9677 LP  0  0  0  0  0  0  0  0  0  0  0  0  # atno 17342 bound_to 10162
  140.3579  144.3009  150.5938 LP  0  0  0  0  0  0  0  0  0  0  0  0  # atno 17343 bound_to 10162
  156.4957  130.8105  151.3112 LP  0  0  0  0  0  0  0  0  0  0  0  0  # atno 17370 bound_to 10713
  157.7455  130.9961  150.2767 LP  0  0  0  0  0  0  0  0  0  0  0  0  # atno 17371 bound_to 10713
  140.1507  134.4853  155.7963 LP  0  0  0  0  0  0  0  0  0  0  0  0  # atno 17394 bound_to 11000
  141.2195  133.6861  156.7374 LP  0  0  0  0  0  0  0  0  0  0  0  0  # atno 17395 bound_to 11000

$$$$
