AV-unprocessed.smi:2088|AV-procd|sdf|8527|dock6
  -GOLD-   2272011243D 1   1.00000     0.00000
 Structure written by MMmdl.
 33 34  0  0  0  0  0  0  0  0  1 V2000
  150.0457  141.8744  158.1841 O   0  0  0  0  0  0  0  0  0  0  0  0
  150.6982  142.5942  157.4286 C   0  0  0  0  0  0  0  0  0  0  0  0
  151.6068  143.6797  158.0035 C   0  0  0  0  0  0  0  0  0  0  0  0
  152.2728  143.1982  159.2001 N   0  0  0  0  0  0  0  0  0  0  0  0
  152.2020  143.7026  160.4808 C   0  0  0  0  0  0  0  0  0  0  0  0
  152.9725  142.9024  161.2744 C   0  0  0  0  0  0  0  0  0  0  0  0
  153.4834  141.9158  160.3816 C   0  0  0  0  0  0  0  0  0  0  0  0
  154.3913  140.7549  160.6912 C   0  0  0  0  0  0  0  0  0  0  0  0
  154.6640  140.7155  161.9954 F   0  0  0  0  0  0  0  0  0  0  0  0
  153.8010  139.6119  160.3419 F   0  0  0  0  0  0  0  0  0  0  0  0
  155.5347  140.8780  160.0171 F   0  0  0  0  0  0  0  0  0  0  0  0
  153.0609  142.1031  159.1383 N   0  0  0  0  0  0  0  0  0  0  0  0
  150.6968  142.4683  156.0925 N   0  0  0  0  0  0  0  0  0  0  0  0
  150.0316  141.4090  155.3425 C   0  0  0  0  0  0  0  0  0  0  0  0
  150.6840  140.0440  155.6192 C   0  0  1  0  0  0  0  0  0  0  0  0
  149.9540  138.8414  155.0183 C   0  0  0  0  0  0  0  0  0  0  0  0
  151.0711  137.8290  154.9205 C   0  0  0  0  0  0  0  0  0  0  0  0
  152.2497  138.7070  154.5089 C   0  0  0  0  0  0  0  0  0  0  0  0
  151.9939  139.9967  155.0603 O   0  0  0  0  0  0  0  0  0  0  0  0
  152.3519  143.9859  157.2674 H   0  0  0  0  0  0  0  0  0  0  0  0
  151.0194  144.5631  158.2569 H   0  0  0  0  0  0  0  0  0  0  0  0
  151.6107  144.5748  160.7184 H   0  0  0  0  0  0  0  0  0  0  0  0
  153.1419  143.0028  162.3361 H   0  0  0  0  0  0  0  0  0  0  0  0
  151.2644  143.1116  155.5598 H   0  0  0  0  0  0  0  0  0  0  0  0
  148.9643  141.3733  155.5663 H   0  0  0  0  0  0  0  0  0  0  0  0
  150.1133  141.6442  154.2812 H   0  0  0  0  0  0  0  0  0  0  0  0
  150.7847  139.8945  156.6957 H   0  0  0  0  0  0  0  0  0  0  0  0
  149.1182  138.4998  155.6303 H   0  0  0  0  0  0  0  0  0  0  0  0
  149.5763  139.0777  154.0224 H   0  0  0  0  0  0  0  0  0  0  0  0
  151.2571  137.3821  155.8980 H   0  0  0  0  0  0  0  0  0  0  0  0
  150.8660  137.0276  154.2100 H   0  0  0  0  0  0  0  0  0  0  0  0
  153.2038  138.3086  154.8540 H   0  0  0  0  0  0  0  0  0  0  0  0
  152.2943  138.7995  153.4233 H   0  0  0  0  0  0  0  0  0  0  0  0
  1  2  2  0  0  0  0
  2  3  1  0  0  0  0
  2 13  1  0  0  0  0
  3  4  1  0  0  0  0
  3 20  1  0  0  0  0
  3 21  1  0  0  0  0
  4 12  1  0  0  0  0
  4  5  1  0  0  0  0
  5  6  2  0  0  0  0
  5 22  1  0  0  0  0
  6  7  1  0  0  0  0
  6 23  1  0  0  0  0
  7  8  1  0  0  0  0
  7 12  2  0  0  0  0
  8  9  1  0  0  0  0
  8 10  1  0  0  0  0
  8 11  1  0  0  0  0
 13 14  1  0  0  0  0
 13 24  1  0  0  0  0
 14 15  1  0  0  0  0
 14 25  1  0  0  0  0
 14 26  1  0  0  0  0
 15 19  1  0  0  0  0
 15 16  1  0  0  0  0
 15 27  1  0  0  0  0
 16 17  1  0  0  0  0
 16 28  1  0  0  0  0
 16 29  1  0  0  0  0
 17 18  1  0  0  0  0
 17 30  1  0  0  0  0
 17 31  1  0  0  0  0
 18 19  1  0  0  0  0
 18 32  1  0  0  0  0
 18 33  1  0  0  0  0
M  END
> <s_m_source_file>
AV-unprocessed.smi

> <i_m_source_file_index>
2088

> <i_lp_mmshare_version>
43012

> <i_f3d_flags>
0

> <s_epik_input>
TzFbQ0gyXVtDSDJdW0NIMl1bQ0BIXTFbQ0gyXVtOSF1DKD1PKVtDSDJdbjJbY0hdW2NIXWMobjIpQyhGKShGKUY=

> <s_epik_cmdline>
J2VwaWtfcHl0aG9uJywgJy1waCcsICc3LjAnLCAnLXRuJywgJzgnLCAnLW1hJywgJzIwMCcsICctbWV0YWxfYmluZGluZycsICctaW1hZScsICc8aW5maWxlLm1hZT4nLCAnLW9tYWUnLCAnPG91dGZpbGUubWFlPic=

> <r_lp_tautomer_probability>
1

> <r_epik_Ionization_Penalty>
2.25732e-07

> <r_epik_Ionization_Penalty_Charging>
0

> <r_epik_Ionization_Penalty_Neutral>
2.25732e-07

> <r_epik_State_Penalty>
-0

> <r_epik_Charging_Adjusted_Penalty>
0

> <i_epik_Tot_Q>
0

> <i_epik_Tot_abs_Q>
0

> <r_epik_Metal_State_Penalty>
-0

> <b_epik_Metal_Only>
0

> <s_lp_Force_Field>
OPLS_2005

> <r_lp_Energy>
19.1857

> <b_lp_Chiralities_Consistent>
1

> <s_lp_Variant>
AV-unprocessed.smi:2088-2

> <Gold.Version>
5.8.1

> <Gold.Id.Protein>
6NUR|6NUR_protein|mol2

> <Gold.PLP.Fitness>
47.3540

> <Gold.PLP.PLP>
-45.4726

> <Gold.PLP.part.hbond>
-2.0000

> <Gold.PLP.part.metal>
0.0000

> <Gold.PLP.part.buried>
-4.2948

> <Gold.PLP.part.nonpolar>
-39.4142

> <Gold.PLP.part.repulsive>
0.2204

> <Gold.PLP.ligand.clash>
0.0000

> <Gold.PLP.ligand.torsion>
0.3474

> <Gold.PLP.Chemscore.Hbond>
0.8512

> <Gold.PLP.Chemscore.CHOScore>
0.0000

> <Gold.PLP.Chemscore.Metal>
0.0000

> <Gold.Chemscore.Hbonds>
donor molecule, donor type, donor heavy atom, donor atom, acceptor molecule, acceptor atom, score
      P1  H  7989  7998       L1    19  0.73

> <Gold.PLP.Chemscore.Internal.Correction>
0.0226

> <Gold.Rescore>
     Score         DG    S(hbond)    S(metal)    S(lipo)     H(rot)  DE(clash)    DE(int)     intcor
     11.19     -11.51       0.00        0.00      92.93       1.89       0.01       0.31       ----

> <Gold.Chemscore.Fitness>
11.1892

> <Gold.Chemscore.DG>
-11.5080

> <Gold.Chemscore.ZeroCoef>
-5.4800

> <Gold.Chemscore.Hbond>
0.0001

> <Gold.Chemscore.Metal>
0.0000

> <Gold.Chemscore.Lipo>
92.9322

> <Gold.Chemscore.Internal_Hbond>
0.0000

> <Gold.Chemscore.DEClash>
0.0064

> <Gold.Chemscore.DEInternal>
0.3124

> <Gold.Chemscore.Rot>
1.8928

> <Gold.Chemscore.Internal.Correction>
   9.000000E+99

> <Gold.Chemscore.Hbonds>
donor molecule, donor type, donor heavy atom, donor atom, acceptor molecule, acceptor atom, score
      P1  H  7989  7998       L1    19  0.03

> <Gold.Chemscore.Hbond.Weighted>
-0.0004

> <Gold.Chemscore.Metal.Weighted>
-0.0000

> <Gold.Chemscore.Lipo.Weighted>
-10.8731

> <Gold.Chemscore.Internal_Hbond.Weighted>
0.0000

> <Gold.Chemscore.DEClash.Weighted>
0.0064

> <Gold.Chemscore.DEInternal.Weighted>
0.3124

> <Gold.Chemscore.Rot.Weighted>
4.8455

> <Gold.Chemscore.Internal.Correction.Weighted>
   9.000000E+99

> <Gold.Protein.RotatedTorsions>
[ 6907 6896 6895 6894 ] final  168.48 input  -60.11 | X-H torsion
[ 7974 7965 7964 7962 ] final  -64.83 input  175.53 | X-H torsion
[ 8008 7997 7996 7995 ] final   31.74 input   59.86 | X-H torsion
[ 10167 10162 10161 10158 ] final   66.03 input  -65.29 | X-H torsion
[ 10718 10713 10712 10709 ] final -174.04 input   66.30 | X-H torsion
[ 10763 10752 10751 10750 ] final -117.98 input  -60.55 | X-H torsion
[ 11005 11000 10999 10996 ] final  -68.97 input  -57.11 | X-H torsion

> <Gold.Protein.ActiveResidues>
 VAL166  LYS551  ARG553  GLY616  TRP617  ASP618  TYR619  PRO620  LYS621  CYS622 
 ASP623  PHE694  ASN695  SER759  ASP760  ASP761  ALA762  ILE779  LEU786  VAL792 
 PHE793  MET794  SER795  GLU796  ALA797  LYS798  CYS799  TRP800  GLU811  SER814 

> <Gold.Protein.RotatedAtoms>
  151.8470  133.3433  159.3660 H   0  0  0  0  0  0  0  0  0  0  0  0  # atno 6907 bound_to 6896
  150.7218  134.5336  159.5722 H   0  0  0  0  0  0  0  0  0  0  0  0  # atno 6908 bound_to 6896
  152.2822  134.7817  160.0445 H   0  0  0  0  0  0  0  0  0  0  0  0  # atno 6909 bound_to 6896
  145.7618  140.8857  143.0426 H   0  0  0  0  0  0  0  0  0  0  0  0  # atno 7974 bound_to 7965
  155.1113  140.3239  155.4521 H   0  0  0  0  0  0  0  0  0  0  0  0  # atno 8008 bound_to 7997
  156.2689  140.2043  156.6185 H   0  0  0  0  0  0  0  0  0  0  0  0  # atno 8009 bound_to 7997
  154.6754  140.0532  157.0197 H   0  0  0  0  0  0  0  0  0  0  0  0  # atno 8010 bound_to 7997
  140.1048  144.4871  150.7015 H   0  0  0  0  0  0  0  0  0  0  0  0  # atno 10167 bound_to 10162
  156.7792  130.9477  151.3120 H   0  0  0  0  0  0  0  0  0  0  0  0  # atno 10718 bound_to 10713
  154.8573  135.4290  154.2066 H   0  0  0  0  0  0  0  0  0  0  0  0  # atno 10763 bound_to 10752
  153.3101  135.6975  153.7129 H   0  0  0  0  0  0  0  0  0  0  0  0  # atno 10764 bound_to 10752
  153.6225  135.3499  155.2989 H   0  0  0  0  0  0  0  0  0  0  0  0  # atno 10765 bound_to 10752
  141.1544  133.6753  156.6527 H   0  0  0  0  0  0  0  0  0  0  0  0  # atno 11005 bound_to 11000
  144.6829  139.9733  143.7482 LP  0  0  0  0  0  0  0  0  0  0  0  0  # atno 17320 bound_to 7965
  146.0257  139.3290  143.0786 LP  0  0  0  0  0  0  0  0  0  0  0  0  # atno 17321 bound_to 7965
  140.6958  143.2403  151.5005 LP  0  0  0  0  0  0  0  0  0  0  0  0  # atno 17342 bound_to 10162
  139.5651  144.2061  152.1753 LP  0  0  0  0  0  0  0  0  0  0  0  0  # atno 17343 bound_to 10162
  157.6654  130.9003  149.9921 LP  0  0  0  0  0  0  0  0  0  0  0  0  # atno 17370 bound_to 10713
  156.1228  130.3645  149.9858 LP  0  0  0  0  0  0  0  0  0  0  0  0  # atno 17371 bound_to 10713
  140.3307  134.7931  157.4324 LP  0  0  0  0  0  0  0  0  0  0  0  0  # atno 17394 bound_to 11000
  140.1019  134.5462  155.8345 LP  0  0  0  0  0  0  0  0  0  0  0  0  # atno 17395 bound_to 11000

$$$$
