AV-unprocessed.smi:828|AV-procd|sdf|3862|dock4
  -GOLD-   22720 1313D 1   1.00000     0.00000
 Structure written by MMmdl.
 34 35  0  0  0  0  0  0  0  0  3 V2000
  151.2095  142.2204  156.8439 C   0  0  0  0  0  0  0  0  0  0  0  0
  151.3116  140.8944  156.1716 C   0  0  0  0  0  0  0  0  0  0  0  0
  152.4133  140.1425  156.2254 N   0  0  0  0  0  0  0  0  0  0  0  0
  152.2697  138.9537  155.5251 N   0  0  0  0  0  0  0  0  0  0  0  0
  151.0620  138.8193  154.9594 C   0  0  0  0  0  0  0  0  0  0  0  0
  150.7241  137.7404  154.2338 N   0  5  0  0  0  0  0  0  0  0  0  0
  151.0114  136.5017  154.6918 C   0  0  0  0  0  0  0  0  0  0  0  0
  151.8299  136.2183  155.5693 O   0  0  0  0  0  0  0  0  0  0  0  0
  150.2984  135.5326  154.1007 N   0  0  0  0  0  0  0  0  0  0  0  0
  150.3703  134.1051  154.3957 C   0  0  0  0  0  0  0  0  0  0  0  0
  149.0012  133.4168  154.2308 C   0  0  2  0  0  0  0  0  0  0  0  0
  149.0285  132.1443  153.3767 C   0  0  0  0  0  0  0  0  0  0  0  0
  147.5867  132.0181  152.9078 C   0  0  0  0  0  0  0  0  0  0  0  0
  147.1547  133.4706  152.6952 C   0  0  0  0  0  0  0  0  0  0  0  0
  148.0206  134.3054  153.5625 N   0  3  1  0  0  0  0  0  0  0  0  0
  147.2709  135.1864  154.4847 C   0  0  0  0  0  0  0  0  0  0  0  0
  149.9946  140.1939  155.2458 S   0  0  0  0  0  0  0  0  0  0  0  0
  151.2048  142.0901  157.9262 H   0  0  0  0  0  0  0  0  0  0  0  0
  150.2905  142.7265  156.5479 H   0  0  0  0  0  0  0  0  0  0  0  0
  152.0575  142.8476  156.5682 H   0  0  0  0  0  0  0  0  0  0  0  0
  149.6466  135.8171  153.3837 H   0  0  0  0  0  0  0  0  0  0  0  0
  151.0896  133.6682  153.7032 H   0  0  0  0  0  0  0  0  0  0  0  0
  150.7706  133.9302  155.3958 H   0  0  0  0  0  0  0  0  0  0  0  0
  148.6102  133.1483  155.2143 H   0  0  0  0  0  0  0  0  0  0  0  0
  149.6820  132.2777  152.5133 H   0  0  0  0  0  0  0  0  0  0  0  0
  149.3727  131.2687  153.9283 H   0  0  0  0  0  0  0  0  0  0  0  0
  147.4828  131.4079  152.0099 H   0  0  0  0  0  0  0  0  0  0  0  0
  146.9840  131.5634  153.6952 H   0  0  0  0  0  0  0  0  0  0  0  0
  147.3277  133.7677  151.6603 H   0  0  0  0  0  0  0  0  0  0  0  0
  146.0916  133.6038  152.9010 H   0  0  0  0  0  0  0  0  0  0  0  0
  146.6629  134.6037  155.1779 H   0  0  0  0  0  0  0  0  0  0  0  0
  146.6109  135.8493  153.9243 H   0  0  0  0  0  0  0  0  0  0  0  0
  147.9530  135.8076  155.0656 H   0  0  0  0  0  0  0  0  0  0  0  0
  148.5499  134.8998  152.9404 H   0  0  0  0  0  0  0  0  0  0  0  0
  1  2  1  0  0  0  0
  1 18  1  0  0  0  0
  1 19  1  0  0  0  0
  1 20  1  0  0  0  0
  2 17  1  0  0  0  0
  2  3  2  0  0  0  0
  3  4  1  0  0  0  0
  4  5  2  0  0  0  0
  5  6  1  0  0  0  0
  5 17  1  0  0  0  0
  6  7  1  0  0  0  0
  7  8  2  0  0  0  0
  7  9  1  0  0  0  0
  9 10  1  0  0  0  0
  9 21  1  0  0  0  0
 10 11  1  0  0  0  0
 10 22  1  0  0  0  0
 10 23  1  0  0  0  0
 11 15  1  0  0  0  0
 11 12  1  0  0  0  0
 11 24  1  0  0  0  0
 12 13  1  0  0  0  0
 12 25  1  0  0  0  0
 12 26  1  0  0  0  0
 13 14  1  0  0  0  0
 13 27  1  0  0  0  0
 13 28  1  0  0  0  0
 14 15  1  0  0  0  0
 14 29  1  0  0  0  0
 14 30  1  0  0  0  0
 15 16  1  0  0  0  0
 15 34  1  0  0  0  0
 16 31  1  0  0  0  0
 16 32  1  0  0  0  0
 16 33  1  0  0  0  0
M  CHG  1   6  -1
M  CHG  1  15   1
M  END
> <s_m_source_file>
AV-unprocessed.smi

> <i_m_source_file_index>
828

> <i_lp_mmshare_version>
43012

> <i_f3d_flags>
0

> <s_epik_input>
W0NIM11jMW5uYyhzMSlbTkhdQyg9TylbTkhdW0NIMl1bQ0BASF0yW0NIMl1bQ0gyXVtDSDJdTjJbQ0gzXQ==

> <s_epik_cmdline>
J2VwaWtfcHl0aG9uJywgJy1waCcsICc3LjAnLCAnLXRuJywgJzgnLCAnLW1hJywgJzIwMCcsICctbWV0YWxfYmluZGluZycsICctaW1hZScsICc8aW5maWxlLm1hZT4nLCAnLW9tYWUnLCAnPG91dGZpbGUubWFlPic=

> <r_lp_tautomer_probability>
1

> <r_epik_Ionization_Penalty>
3.94379

> <r_epik_Ionization_Penalty_Charging>
3.83377

> <r_epik_Ionization_Penalty_Neutral>
0.110023

> <r_epik_State_Penalty>
3.83036

> <r_epik_Charging_Adjusted_Penalty>
7.66413

> <i_epik_Tot_Q>
0

> <i_epik_Tot_abs_Q>
2

> <r_epik_Metal_State_Penalty>
0.575095

> <b_epik_Metal_Only>
1

> <s_lp_Force_Field>
OPLS_2005

> <r_lp_Energy>
18.3526

> <b_lp_Chiralities_Consistent>
1

> <s_lp_Variant>
AV-unprocessed.smi:828-5

> <Gold.Version>
5.8.1

> <Gold.Id.Protein>
6NUR|6NUR_protein|mol2

> <Gold.PLP.Fitness>
39.2595

> <Gold.PLP.PLP>
-26.8917

> <Gold.PLP.part.hbond>
-5.0000

> <Gold.PLP.part.metal>
0.0000

> <Gold.PLP.part.buried>
-2.1534

> <Gold.PLP.part.nonpolar>
-20.2243

> <Gold.PLP.part.repulsive>
0.3516

> <Gold.PLP.ligand.clash>
0.0000

> <Gold.PLP.ligand.torsion>
1.3274

> <Gold.PLP.Chemscore.Hbond>
5.0000

> <Gold.PLP.Chemscore.CHOScore>
0.0000

> <Gold.PLP.Chemscore.Metal>
0.0000

> <Gold.Chemscore.Hbonds>
donor molecule, donor type, donor heavy atom, donor atom, acceptor molecule, acceptor atom, score
      L1  H     9    21       P1  7948  0.80
      L1  H    15    34       P1  7948  2.00
      P1  H  7997  8010       L1     3  0.95
      P1  H 10752 10764       L1     8  0.96

> <Gold.PLP.Chemscore.Internal.Correction>
0.0224

> <Gold.Rescore>
     Score         DG    S(hbond)    S(metal)    S(lipo)     H(rot)  DE(clash)    DE(int)     intcor
     15.12     -18.69       3.40        0.00      44.64       1.31       0.29       3.28       ----

> <Gold.Chemscore.Fitness>
15.1176

> <Gold.Chemscore.DG>
-18.6937

> <Gold.Chemscore.ZeroCoef>
-5.4800

> <Gold.Chemscore.Hbond>
3.4003

> <Gold.Chemscore.Metal>
0.0000

> <Gold.Chemscore.Lipo>
44.6413

> <Gold.Chemscore.Internal_Hbond>
0.0000

> <Gold.Chemscore.DEClash>
0.2927

> <Gold.Chemscore.DEInternal>
3.2834

> <Gold.Chemscore.Rot>
1.3149

> <Gold.Chemscore.Internal.Correction>
   9.000000E+99

> <Gold.Chemscore.Hbonds>
donor molecule, donor type, donor heavy atom, donor atom, acceptor molecule, acceptor atom, score
      L1  H     9    21       P1  7948  0.12
      L1  H    15    34       P1  7948  0.50
      P1  H  7997  8010       L1     3  0.21
      P1  H 10752 10764       L1     8  0.88

> <Gold.Chemscore.Hbond.Weighted>
-11.3569

> <Gold.Chemscore.Metal.Weighted>
-0.0000

> <Gold.Chemscore.Lipo.Weighted>
-5.2230

> <Gold.Chemscore.Internal_Hbond.Weighted>
0.0000

> <Gold.Chemscore.DEClash.Weighted>
0.2927

> <Gold.Chemscore.DEInternal.Weighted>
3.2834

> <Gold.Chemscore.Rot.Weighted>
3.3662

> <Gold.Chemscore.Internal.Correction.Weighted>
   9.000000E+99

> <Gold.Protein.RotatedTorsions>
[ 6907 6896 6895 6894 ] final   86.56 input  -60.11 | X-H torsion
[ 7974 7965 7964 7962 ] final   47.52 input  175.53 | X-H torsion
[ 8008 7997 7996 7995 ] final   70.50 input   59.86 | X-H torsion
[ 10167 10162 10161 10158 ] final -139.21 input  -65.29 | X-H torsion
[ 10718 10713 10712 10709 ] final -133.98 input   66.30 | X-H torsion
[ 10763 10752 10751 10750 ] final  -23.02 input  -60.55 | X-H torsion
[ 11005 11000 10999 10996 ] final  -50.68 input  -57.11 | X-H torsion

> <Gold.Protein.ActiveResidues>
 VAL166  LYS551  ARG553  GLY616  TRP617  ASP618  TYR619  PRO620  LYS621  CYS622 
 ASP623  PHE694  ASN695  SER759  ASP760  ASP761  ALA762  ILE779  LEU786  VAL792 
 PHE793  MET794  SER795  GLU796  ALA797  LYS798  CYS799  TRP800  GLU811  SER814 

> <Gold.Protein.RotatedAtoms>
  152.5396  134.2412  159.8862 H   0  0  0  0  0  0  0  0  0  0  0  0  # atno 6907 bound_to 6896
  151.2380  133.4408  159.2614 H   0  0  0  0  0  0  0  0  0  0  0  0  # atno 6908 bound_to 6896
  151.0653  134.9777  159.8337 H   0  0  0  0  0  0  0  0  0  0  0  0  # atno 6909 bound_to 6896
  146.0290  139.4741  142.9850 H   0  0  0  0  0  0  0  0  0  0  0  0  # atno 7974 bound_to 7965
  155.7397  140.3490  155.5098 H   0  0  0  0  0  0  0  0  0  0  0  0  # atno 8008 bound_to 7997
  155.9106  140.1049  157.1304 H   0  0  0  0  0  0  0  0  0  0  0  0  # atno 8009 bound_to 7997
  154.4055  140.1268  156.4539 H   0  0  0  0  0  0  0  0  0  0  0  0  # atno 8010 bound_to 7997
  139.8402  143.7332  152.2663 H   0  0  0  0  0  0  0  0  0  0  0  0  # atno 10167 bound_to 10162
  156.2506  130.7151  151.1048 H   0  0  0  0  0  0  0  0  0  0  0  0  # atno 10718 bound_to 10713
  153.6611  135.6976  153.5177 H   0  0  0  0  0  0  0  0  0  0  0  0  # atno 10763 bound_to 10752
  153.2631  135.4238  155.0913 H   0  0  0  0  0  0  0  0  0  0  0  0  # atno 10764 bound_to 10752
  154.8451  135.3560  154.6156 H   0  0  0  0  0  0  0  0  0  0  0  0  # atno 10765 bound_to 10752
  141.0830  133.6649  156.3767 H   0  0  0  0  0  0  0  0  0  0  0  0  # atno 11005 bound_to 11000
  145.7071  141.0118  143.1473 LP  0  0  0  0  0  0  0  0  0  0  0  0  # atno 17320 bound_to 7965
  144.7022  139.8713  143.7441 LP  0  0  0  0  0  0  0  0  0  0  0  0  # atno 17321 bound_to 7965
  139.7566  144.7519  151.0426 LP  0  0  0  0  0  0  0  0  0  0  0  0  # atno 17342 bound_to 10162
  140.7799  143.4798  151.0033 LP  0  0  0  0  0  0  0  0  0  0  0  0  # atno 17343 bound_to 10162
  157.7213  131.0679  150.6124 LP  0  0  0  0  0  0  0  0  0  0  0  0  # atno 17370 bound_to 10713
  156.6204  130.4404  149.5824 LP  0  0  0  0  0  0  0  0  0  0  0  0  # atno 17371 bound_to 10713
  140.5427  134.6105  157.5384 LP  0  0  0  0  0  0  0  0  0  0  0  0  # atno 17394 bound_to 11000
  139.9645  134.7396  156.0167 LP  0  0  0  0  0  0  0  0  0  0  0  0  # atno 17395 bound_to 11000

$$$$
