AV-unprocessed.smi:2695|AV-procd|sdf|10411|dock6
  -GOLD-   2272014443D 1   1.00000     0.00000
 Structure written by MMmdl.
 42 43  0  0  0  0  0  0  0  0  1 V2000
  143.1630  135.4603  152.8174 C   0  0  0  0  0  0  0  0  0  0  0  0
  144.0516  134.4366  152.1218 C   0  0  0  0  0  0  0  0  0  0  0  0
  143.4814  133.4116  151.4467 C   0  0  0  0  0  0  0  0  0  0  0  0
  144.3092  132.3823  150.7941 C   0  0  0  0  0  0  0  0  0  0  0  0
  143.8160  131.4591  150.1495 O   0  0  0  0  0  0  0  0  0  0  0  0
  145.7617  132.5238  150.9674 C   0  0  0  0  0  0  0  0  0  0  0  0
  146.2394  133.5800  151.6534 C   0  0  0  0  0  0  0  0  0  0  0  0
  147.5558  133.7410  151.8578 O   0  0  0  0  0  0  0  0  0  0  0  0
  145.4515  134.5974  152.2275 N   0  0  0  0  0  0  0  0  0  0  0  0
  146.0575  135.7672  152.8897 C   0  0  0  0  0  0  0  0  0  0  0  0
  146.7617  135.4249  154.2103 C   0  0  0  0  0  0  0  0  0  0  0  0
  146.1156  135.1683  155.2272 O   0  0  0  0  0  0  0  0  0  0  0  0
  148.1029  135.4369  154.1717 N   0  0  0  0  0  0  0  0  0  0  0  0
  149.0018  135.1295  155.2860 C   0  0  2  0  0  0  0  0  0  0  0  0
  150.2993  135.9699  155.1557 C   0  0  0  0  0  0  0  0  0  0  0  0
  151.1255  136.0934  156.4418 C   0  0  0  0  0  0  0  0  0  0  0  0
  152.0266  137.3163  156.2372 C   0  0  0  0  0  0  0  0  0  0  0  0
  151.3598  138.1661  155.1471 C   0  0  0  0  0  0  0  0  0  0  0  0
  150.0671  137.4373  154.7691 C   0  0  0  0  0  0  0  0  0  0  0  0
  149.2425  133.6026  155.3173 C   0  0  0  0  0  0  0  0  0  0  0  0
  148.0966  132.9708  155.5767 F   0  0  0  0  0  0  0  0  0  0  0  0
  149.7082  133.1765  154.1426 F   0  0  0  0  0  0  0  0  0  0  0  0
  150.1108  133.2730  156.2724 F   0  0  0  0  0  0  0  0  0  0  0  0
  142.1426  135.0878  152.9139 H   0  0  0  0  0  0  0  0  0  0  0  0
  143.1244  136.3851  152.2412 H   0  0  0  0  0  0  0  0  0  0  0  0
  143.5118  135.6849  153.8252 H   0  0  0  0  0  0  0  0  0  0  0  0
  142.4071  133.3140  151.3831 H   0  0  0  0  0  0  0  0  0  0  0  0
  146.4156  131.7721  150.5495 H   0  0  0  0  0  0  0  0  0  0  0  0
  146.7730  136.2568  152.2279 H   0  0  0  0  0  0  0  0  0  0  0  0
  145.3139  136.5408  153.0776 H   0  0  0  0  0  0  0  0  0  0  0  0
  148.5437  135.6613  153.2915 H   0  0  0  0  0  0  0  0  0  0  0  0
  148.5181  135.3972  156.2270 H   0  0  0  0  0  0  0  0  0  0  0  0
  150.9349  135.5222  154.3897 H   0  0  0  0  0  0  0  0  0  0  0  0
  150.4648  136.2687  157.2920 H   0  0  0  0  0  0  0  0  0  0  0  0
  151.7070  135.1961  156.6545 H   0  0  0  0  0  0  0  0  0  0  0  0
  152.1544  137.8727  157.1664 H   0  0  0  0  0  0  0  0  0  0  0  0
  153.0176  137.0033  155.9066 H   0  0  0  0  0  0  0  0  0  0  0  0
  151.1600  139.1833  155.4854 H   0  0  0  0  0  0  0  0  0  0  0  0
  152.0181  138.2344  154.2801 H   0  0  0  0  0  0  0  0  0  0  0  0
  149.8204  137.5613  153.7141 H   0  0  0  0  0  0  0  0  0  0  0  0
  149.2389  137.8460  155.3500 H   0  0  0  0  0  0  0  0  0  0  0  0
  147.7209  134.6686  151.9302 H   0  0  0  0  0  0  0  0  0  0  0  0
  1  2  1  0  0  0  0
  1 24  1  0  0  0  0
  1 25  1  0  0  0  0
  1 26  1  0  0  0  0
  2  9  1  0  0  0  0
  2  3  2  0  0  0  0
  3  4  1  0  0  0  0
  3 27  1  0  0  0  0
  4  5  2  0  0  0  0
  4  6  1  0  0  0  0
  6  7  2  0  0  0  0
  6 28  1  0  0  0  0
  7  8  1  0  0  0  0
  7  9  1  0  0  0  0
  8 42  1  0  0  0  0
  9 10  1  0  0  0  0
 10 11  1  0  0  0  0
 10 29  1  0  0  0  0
 10 30  1  0  0  0  0
 11 12  2  0  0  0  0
 11 13  1  0  0  0  0
 13 14  1  0  0  0  0
 13 31  1  0  0  0  0
 14 15  1  0  0  0  0
 14 20  1  0  0  0  0
 14 32  1  0  0  0  0
 15 19  1  0  0  0  0
 15 16  1  0  0  0  0
 15 33  1  0  0  0  0
 16 17  1  0  0  0  0
 16 34  1  0  0  0  0
 16 35  1  0  0  0  0
 17 18  1  0  0  0  0
 17 36  1  0  0  0  0
 17 37  1  0  0  0  0
 18 19  1  0  0  0  0
 18 38  1  0  0  0  0
 18 39  1  0  0  0  0
 19 40  1  0  0  0  0
 19 41  1  0  0  0  0
 20 21  1  0  0  0  0
 20 22  1  0  0  0  0
 20 23  1  0  0  0  0
M  END
> <s_m_source_file>
AV-unprocessed.smi

> <i_m_source_file_index>
2695

> <i_lp_mmshare_version>
43012

> <i_f3d_flags>
0

> <s_epik_input>
W0NIM11jMVtjSF1jKFtPSF0pW2NIXWMoPU8pbjFbQ0gyXUMoPU8pW05IXVtDQEBIXShDKEYpKEYpRilbQ0hdMltDSDJdW0NIMl1bQ0gyXVtDSDJdMg==

> <s_epik_cmdline>
J2VwaWtfcHl0aG9uJywgJy1waCcsICc3LjAnLCAnLXRuJywgJzgnLCAnLW1hJywgJzIwMCcsICctbWV0YWxfYmluZGluZycsICctaW1hZScsICc8aW5maWxlLm1hZT4nLCAnLW9tYWUnLCAnPG91dGZpbGUubWFlPic=

> <r_epik_Ionization_Penalty>
1.35977e-07

> <r_epik_Ionization_Penalty_Charging>
0

> <r_epik_Ionization_Penalty_Neutral>
1.35977e-07

> <r_epik_State_Penalty>
2.53185

> <r_epik_Charging_Adjusted_Penalty>
2.53185

> <i_epik_Tot_Q>
0

> <i_epik_Tot_abs_Q>
0

> <r_epik_Metal_State_Penalty>
2.53184

> <b_epik_Metal_Only>
0

> <s_lp_Force_Field>
OPLS_2005

> <r_lp_Energy>
25.5635

> <b_lp_Chiralities_Consistent>
1

> <s_lp_Variant>
AV-unprocessed.smi:2695-5

> <Gold.Version>
5.8.1

> <Gold.Id.Protein>
6NUR|6NUR_protein|mol2

> <Gold.PLP.Fitness>
38.9662

> <Gold.PLP.PLP>
-32.1860

> <Gold.PLP.part.hbond>
-3.0000

> <Gold.PLP.part.metal>
0.0000

> <Gold.PLP.part.buried>
-1.6936

> <Gold.PLP.part.nonpolar>
-26.5217

> <Gold.PLP.part.repulsive>
0.1869

> <Gold.PLP.ligand.clash>
0.0000

> <Gold.PLP.ligand.torsion>
0.9183

> <Gold.PLP.Chemscore.Hbond>
2.7840

> <Gold.PLP.Chemscore.CHOScore>
0.0000

> <Gold.PLP.Chemscore.Metal>
0.0000

> <Gold.Chemscore.Hbonds>
donor molecule, donor type, donor heavy atom, donor atom, acceptor molecule, acceptor atom, score
      L1  H     8    42       P1  7948  0.99
      L1  H    13    31       P1  7948  1.00
      P1  H 10785 10796       L1     5  0.77

> <Gold.PLP.Chemscore.Internal.Correction>
0.2648

> <Gold.Rescore>
     Score         DG    S(hbond)    S(metal)    S(lipo)     H(rot)  DE(clash)    DE(int)     intcor
     10.76     -13.45       2.21        0.00      58.61       2.45       0.57       2.12       ----

> <Gold.Chemscore.Fitness>
10.7587

> <Gold.Chemscore.DG>
-13.4515

> <Gold.Chemscore.ZeroCoef>
-5.4800

> <Gold.Chemscore.Hbond>
2.2122

> <Gold.Chemscore.Metal>
0.0000

> <Gold.Chemscore.Lipo>
58.6143

> <Gold.Chemscore.Internal_Hbond>
0.0000

> <Gold.Chemscore.DEClash>
0.5701

> <Gold.Chemscore.DEInternal>
2.1227

> <Gold.Chemscore.Rot>
2.4512

> <Gold.Chemscore.Internal.Correction>
   9.000000E+99

> <Gold.Chemscore.Hbonds>
donor molecule, donor type, donor heavy atom, donor atom, acceptor molecule, acceptor atom, score
      L1  H     8    42       P1  7948  0.42
      L1  H    13    31       P1  7948  0.97
      P1  H 10785 10796       L1     5  0.72

> <Gold.Chemscore.Hbond.Weighted>
-7.3888

> <Gold.Chemscore.Metal.Weighted>
-0.0000

> <Gold.Chemscore.Lipo.Weighted>
-6.8579

> <Gold.Chemscore.Internal_Hbond.Weighted>
0.0000

> <Gold.Chemscore.DEClash.Weighted>
0.5701

> <Gold.Chemscore.DEInternal.Weighted>
2.1227

> <Gold.Chemscore.Rot.Weighted>
6.2752

> <Gold.Chemscore.Internal.Correction.Weighted>
   9.000000E+99

> <Gold.Protein.RotatedTorsions>
[ 6907 6896 6895 6894 ] final  -53.54 input  -60.11 | X-H torsion
[ 7974 7965 7964 7962 ] final  -59.40 input  175.53 | X-H torsion
[ 8008 7997 7996 7995 ] final  -94.16 input   59.86 | X-H torsion
[ 10167 10162 10161 10158 ] final  -56.57 input  -65.29 | X-H torsion
[ 10718 10713 10712 10709 ] final -100.22 input   66.30 | X-H torsion
[ 10763 10752 10751 10750 ] final   91.46 input  -60.55 | X-H torsion
[ 11005 11000 10999 10996 ] final    6.49 input  -57.11 | X-H torsion

> <Gold.Protein.ActiveResidues>
 VAL166  LYS551  ARG553  GLY616  TRP617  ASP618  TYR619  PRO620  LYS621  CYS622 
 ASP623  PHE694  ASN695  SER759  ASP760  ASP761  ALA762  ILE779  LEU786  VAL792 
 PHE793  MET794  SER795  GLU796  ALA797  LYS798  CYS799  TRP800  GLU811  SER814 

> <Gold.Protein.RotatedAtoms>
  150.8417  134.7712  159.6937 H   0  0  0  0  0  0  0  0  0  0  0  0  # atno 6907 bound_to 6896
  152.4503  134.5404  159.9847 H   0  0  0  0  0  0  0  0  0  0  0  0  # atno 6908 bound_to 6896
  151.5543  133.3375  159.2994 H   0  0  0  0  0  0  0  0  0  0  0  0  # atno 6909 bound_to 6896
  145.8279  140.8498  143.0098 H   0  0  0  0  0  0  0  0  0  0  0  0  # atno 7974 bound_to 7965
  154.7449  140.0492  157.0843 H   0  0  0  0  0  0  0  0  0  0  0  0  # atno 8008 bound_to 7997
  155.0131  140.3138  155.4803 H   0  0  0  0  0  0  0  0  0  0  0  0  # atno 8009 bound_to 7997
  156.2872  140.2180  156.5246 H   0  0  0  0  0  0  0  0  0  0  0  0  # atno 8010 bound_to 7997
  140.6309  143.2459  151.5243 H   0  0  0  0  0  0  0  0  0  0  0  0  # atno 10167 bound_to 10162
  156.0156  130.5318  150.6785 H   0  0  0  0  0  0  0  0  0  0  0  0  # atno 10718 bound_to 10713
  153.2085  135.4397  155.0352 H   0  0  0  0  0  0  0  0  0  0  0  0  # atno 10763 bound_to 10752
  154.8187  135.3327  154.7104 H   0  0  0  0  0  0  0  0  0  0  0  0  # atno 10764 bound_to 10752
  153.7544  135.6996  153.4994 H   0  0  0  0  0  0  0  0  0  0  0  0  # atno 10765 bound_to 10752
  140.5588  134.0212  155.7964 H   0  0  0  0  0  0  0  0  0  0  0  0  # atno 11005 bound_to 11000
  144.6742  140.0629  143.7475 LP  0  0  0  0  0  0  0  0  0  0  0  0  # atno 17320 bound_to 7965
  145.9603  139.2796  143.1159 LP  0  0  0  0  0  0  0  0  0  0  0  0  # atno 17321 bound_to 7965
  139.5523  144.2363  152.1552 LP  0  0  0  0  0  0  0  0  0  0  0  0  # atno 17342 bound_to 10162
  140.1607  144.5029  150.6634 LP  0  0  0  0  0  0  0  0  0  0  0  0  # atno 17343 bound_to 10162
  157.4492  131.0870  151.0863 LP  0  0  0  0  0  0  0  0  0  0  0  0  # atno 17370 bound_to 10713
  157.1384  130.6132  149.5548 LP  0  0  0  0  0  0  0  0  0  0  0  0  # atno 17371 bound_to 10713
  141.1127  133.9590  157.2880 LP  0  0  0  0  0  0  0  0  0  0  0  0  # atno 17394 bound_to 11000
  139.9418  135.0190  156.8731 LP  0  0  0  0  0  0  0  0  0  0  0  0  # atno 17395 bound_to 11000

$$$$
