AV-unprocessed.smi:1412|AV-procd|sdf|5743|dock4
  -GOLD-   22720 5383D 1   1.00000     0.00000
 Structure written by MMmdl.
 42 43  0  0  0  0  0  0  0  0  2 V2000
  146.5658  142.6896  154.0570 C   0  0  0  0  0  0  0  0  0  0  0  0
  146.2676  141.3443  154.7419 C   0  0  0  0  0  0  0  0  0  0  0  0
  147.0400  140.1076  154.1886 C   0  0  2  0  0  0  0  0  0  0  0  0
  147.1067  140.1997  152.6417 C   0  0  0  0  0  0  0  0  0  0  0  0
  146.2631  138.8025  154.5506 C   0  0  0  0  0  0  0  0  0  0  0  0
  144.8526  138.8189  154.1581 N   0  0  0  0  0  0  0  0  0  0  0  0
  143.9604  137.8508  154.4119 C   0  0  0  0  0  0  0  0  0  0  0  0
  144.2294  136.8305  155.0457 O   0  0  0  0  0  0  0  0  0  0  0  0
  142.7580  138.1475  153.8877 N   0  0  0  0  0  0  0  0  0  0  0  0
  141.5641  137.3795  153.9372 C   0  0  0  0  0  0  0  0  0  0  0  0
  141.5020  136.1320  154.4286 N   0  0  0  0  0  0  0  0  0  0  0  0
  140.2173  135.6095  154.3583 N   0  0  0  0  0  0  0  0  0  0  0  0
  139.3618  136.4821  153.8182 C   0  0  0  0  0  0  0  0  0  0  0  0
  140.0415  138.0299  153.3460 S   0  0  0  0  0  0  0  0  0  0  0  0
  148.4409  140.0510  154.7489 N   0  3  0  0  0  0  0  0  0  0  0  0
  149.3495  139.0298  154.1539 C   0  0  0  0  0  0  0  0  0  0  0  0
  150.6637  138.9499  154.9494 C   0  0  0  0  0  0  0  0  0  0  0  0
  151.2862  140.2265  154.9842 O   0  0  0  0  0  0  0  0  0  0  0  0
  150.4674  141.1952  155.6237 C   0  0  0  0  0  0  0  0  0  0  0  0
  149.1556  141.3558  154.8392 C   0  0  0  0  0  0  0  0  0  0  0  0
  145.9817  143.4859  154.5187 H   0  0  0  0  0  0  0  0  0  0  0  0
  146.3058  142.6751  152.9991 H   0  0  0  0  0  0  0  0  0  0  0  0
  147.6149  142.9702  154.1459 H   0  0  0  0  0  0  0  0  0  0  0  0
  146.4745  141.4673  155.8045 H   0  0  0  0  0  0  0  0  0  0  0  0
  145.1935  141.1781  154.6662 H   0  0  0  0  0  0  0  0  0  0  0  0
  146.1421  139.9868  152.1805 H   0  0  0  0  0  0  0  0  0  0  0  0
  147.8197  139.4873  152.2256 H   0  0  0  0  0  0  0  0  0  0  0  0
  147.3957  141.1941  152.3009 H   0  0  0  0  0  0  0  0  0  0  0  0
  146.7206  137.9430  154.0604 H   0  0  0  0  0  0  0  0  0  0  0  0
  146.3449  138.5839  155.6163 H   0  0  0  0  0  0  0  0  0  0  0  0
  144.5433  139.6141  153.6183 H   0  0  0  0  0  0  0  0  0  0  0  0
  142.6890  139.0189  153.3833 H   0  0  0  0  0  0  0  0  0  0  0  0
  138.3232  136.2122  153.6974 H   0  0  0  0  0  0  0  0  0  0  0  0
  148.9023  138.0377  154.1593 H   0  0  0  0  0  0  0  0  0  0  0  0
  149.5697  139.2784  153.1157 H   0  0  0  0  0  0  0  0  0  0  0  0
  150.4830  138.5913  155.9641 H   0  0  0  0  0  0  0  0  0  0  0  0
  151.3438  138.2401  154.4783 H   0  0  0  0  0  0  0  0  0  0  0  0
  150.2721  140.9045  156.6574 H   0  0  0  0  0  0  0  0  0  0  0  0
  151.0043  142.1434  155.6558 H   0  0  0  0  0  0  0  0  0  0  0  0
  149.3815  141.7338  153.8419 H   0  0  0  0  0  0  0  0  0  0  0  0
  148.5519  142.1116  155.3382 H   0  0  0  0  0  0  0  0  0  0  0  0
  148.3108  139.7543  155.7056 H   0  0  0  0  0  0  0  0  0  0  0  0
  1  2  1  0  0  0  0
  1 21  1  0  0  0  0
  1 22  1  0  0  0  0
  1 23  1  0  0  0  0
  2  3  1  0  0  0  0
  2 24  1  0  0  0  0
  2 25  1  0  0  0  0
  3  4  1  0  0  0  0
  3  5  1  0  0  0  0
  3 15  1  0  0  0  0
  4 26  1  0  0  0  0
  4 27  1  0  0  0  0
  4 28  1  0  0  0  0
  5  6  1  0  0  0  0
  5 29  1  0  0  0  0
  5 30  1  0  0  0  0
  6  7  1  0  0  0  0
  6 31  1  0  0  0  0
  7  8  2  0  0  0  0
  7  9  1  0  0  0  0
  9 10  1  0  0  0  0
  9 32  1  0  0  0  0
 10 14  1  0  0  0  0
 10 11  2  0  0  0  0
 11 12  1  0  0  0  0
 12 13  2  0  0  0  0
 13 14  1  0  0  0  0
 13 33  1  0  0  0  0
 15 20  1  0  0  0  0
 15 16  1  0  0  0  0
 15 42  1  0  0  0  0
 16 17  1  0  0  0  0
 16 34  1  0  0  0  0
 16 35  1  0  0  0  0
 17 18  1  0  0  0  0
 17 36  1  0  0  0  0
 17 37  1  0  0  0  0
 18 19  1  0  0  0  0
 19 20  1  0  0  0  0
 19 38  1  0  0  0  0
 19 39  1  0  0  0  0
 20 40  1  0  0  0  0
 20 41  1  0  0  0  0
M  CHG  1  15   1
M  END
> <s_m_source_file>
AV-unprocessed.smi

> <i_m_source_file_index>
1412

> <i_lp_mmshare_version>
43012

> <i_f3d_flags>
0

> <s_epik_input>
W0NIMl0xW0NIMl1PW0NIMl1bQ0gyXU4xW0NAQF0oW0NIM10pKFtDSDJdW0NIM10pW0NIMl1bTkhdQyg9TylbTkhdYzJubltjSF1zMg==

> <s_epik_cmdline>
J2VwaWtfcHl0aG9uJywgJy1waCcsICc3LjAnLCAnLXRuJywgJzgnLCAnLW1hJywgJzIwMCcsICctbWV0YWxfYmluZGluZycsICctaW1hZScsICc8aW5maWxlLm1hZT4nLCAnLW9tYWUnLCAnPG91dGZpbGUubWFlPic=

> <r_lp_tautomer_probability>
1

> <r_epik_Ionization_Penalty>
0.554649

> <r_epik_Ionization_Penalty_Charging>
0.553838

> <r_epik_Ionization_Penalty_Neutral>
0.000811527

> <r_epik_State_Penalty>
0.564424

> <r_epik_Charging_Adjusted_Penalty>
1.11826

> <i_epik_Tot_Q>
1

> <i_epik_Tot_abs_Q>
1

> <r_epik_Metal_State_Penalty>
0.786249

> <b_epik_Metal_Only>
0

> <s_lp_Force_Field>
OPLS_2005

> <r_lp_Energy>
32.8849

> <b_lp_Chiralities_Consistent>
1

> <s_lp_Variant>
AV-unprocessed.smi:1412-4

> <Gold.Version>
5.8.1

> <Gold.Id.Protein>
6NUR|6NUR_protein|mol2

> <Gold.PLP.Fitness>
44.8471

> <Gold.PLP.PLP>
-34.0542

> <Gold.PLP.part.hbond>
-5.0617

> <Gold.PLP.part.metal>
0.0000

> <Gold.PLP.part.buried>
-2.3311

> <Gold.PLP.part.nonpolar>
-26.3469

> <Gold.PLP.part.repulsive>
0.3244

> <Gold.PLP.ligand.clash>
0.0000

> <Gold.PLP.ligand.torsion>
0.6493

> <Gold.PLP.Chemscore.Hbond>
3.9760

> <Gold.PLP.Chemscore.CHOScore>
0.0000

> <Gold.PLP.Chemscore.Metal>
0.0000

> <Gold.Chemscore.Hbonds>
donor molecule, donor type, donor heavy atom, donor atom, acceptor molecule, acceptor atom, score
      L1  H     6    31       P1 10175  1.00
      L1  H     9    32       P1 10175  0.96
      P1  H  7989  7998       L1    18  1.00
      P1  H 11000 11005       L1    12  1.00

> <Gold.PLP.Chemscore.Internal.Correction>
0.1635

> <Gold.Rescore>
     Score         DG    S(hbond)    S(metal)    S(lipo)     H(rot)  DE(clash)    DE(int)     intcor
     15.95     -19.36       3.13        0.00      71.20       1.91       1.14       2.26       ----

> <Gold.Chemscore.Fitness>
15.9508

> <Gold.Chemscore.DG>
-19.3585

> <Gold.Chemscore.ZeroCoef>
-5.4800

> <Gold.Chemscore.Hbond>
3.1281

> <Gold.Chemscore.Metal>
0.0000

> <Gold.Chemscore.Lipo>
71.2015

> <Gold.Chemscore.Internal_Hbond>
0.0000

> <Gold.Chemscore.DEClash>
1.1431

> <Gold.Chemscore.DEInternal>
2.2646

> <Gold.Chemscore.Rot>
1.9140

> <Gold.Chemscore.Internal.Correction>
   9.000000E+99

> <Gold.Chemscore.Hbonds>
donor molecule, donor type, donor heavy atom, donor atom, acceptor molecule, acceptor atom, score
      L1  H     6    31       P1 10175  0.99
      L1  H     9    32       P1 10175  0.92
      P1  H  7989  7998       L1    18  0.45
      P1  H 11000 11005       L1    12  0.45

> <Gold.Chemscore.Hbond.Weighted>
-10.4477

> <Gold.Chemscore.Metal.Weighted>
-0.0000

> <Gold.Chemscore.Lipo.Weighted>
-8.3306

> <Gold.Chemscore.Internal_Hbond.Weighted>
0.0000

> <Gold.Chemscore.DEClash.Weighted>
1.1431

> <Gold.Chemscore.DEInternal.Weighted>
2.2646

> <Gold.Chemscore.Rot.Weighted>
4.8998

> <Gold.Chemscore.Internal.Correction.Weighted>
   9.000000E+99

> <Gold.Protein.RotatedTorsions>
[ 6907 6896 6895 6894 ] final    0.88 input  -60.11 | X-H torsion
[ 7974 7965 7964 7962 ] final  -28.00 input  175.53 | X-H torsion
[ 8008 7997 7996 7995 ] final  -44.58 input   59.86 | X-H torsion
[ 10167 10162 10161 10158 ] final  136.06 input  -65.29 | X-H torsion
[ 10718 10713 10712 10709 ] final  160.88 input   66.30 | X-H torsion
[ 10763 10752 10751 10750 ] final   53.58 input  -60.55 | X-H torsion
[ 11005 11000 10999 10996 ] final   49.89 input  -57.11 | X-H torsion

> <Gold.Protein.ActiveResidues>
 VAL166  LYS551  ARG553  GLY616  TRP617  ASP618  TYR619  PRO620  LYS621  CYS622 
 ASP623  PHE694  ASN695  SER759  ASP760  ASP761  ALA762  ILE779  LEU786  VAL792 
 PHE793  MET794  SER795  GLU796  ALA797  LYS798  CYS799  TRP800  GLU811  SER814 

> <Gold.Protein.RotatedAtoms>
  151.5836  135.1057  160.0022 H   0  0  0  0  0  0  0  0  0  0  0  0  # atno 6907 bound_to 6896
  152.4342  133.7326  159.6607 H   0  0  0  0  0  0  0  0  0  0  0  0  # atno 6908 bound_to 6896
  150.8237  133.8138  159.3150 H   0  0  0  0  0  0  0  0  0  0  0  0  # atno 6909 bound_to 6896
  146.1318  140.5226  142.8690 H   0  0  0  0  0  0  0  0  0  0  0  0  # atno 7974 bound_to 7965
  154.3998  140.1418  156.3707 H   0  0  0  0  0  0  0  0  0  0  0  0  # atno 8008 bound_to 7997
  155.8095  140.3473  155.5429 H   0  0  0  0  0  0  0  0  0  0  0  0  # atno 8009 bound_to 7997
  155.8401  140.0925  157.1730 H   0  0  0  0  0  0  0  0  0  0  0  0  # atno 8010 bound_to 7997
  139.5194  144.6485  151.5372 H   0  0  0  0  0  0  0  0  0  0  0  0  # atno 10167 bound_to 10162
  157.1443  131.0548  151.2311 H   0  0  0  0  0  0  0  0  0  0  0  0  # atno 10718 bound_to 10713
  152.9796  135.5774  154.4765 H   0  0  0  0  0  0  0  0  0  0  0  0  # atno 10763 bound_to 10752
  154.4320  135.2774  155.1908 H   0  0  0  0  0  0  0  0  0  0  0  0  # atno 10764 bound_to 10752
  154.3612  135.6188  153.5745 H   0  0  0  0  0  0  0  0  0  0  0  0  # atno 10765 bound_to 10752
  140.1065  134.5012  155.8716 H   0  0  0  0  0  0  0  0  0  0  0  0  # atno 11005 bound_to 11000
  144.7699  140.5613  143.6677 LP  0  0  0  0  0  0  0  0  0  0  0  0  # atno 17320 bound_to 7965
  145.5243  139.1476  143.3535 LP  0  0  0  0  0  0  0  0  0  0  0  0  # atno 17321 bound_to 7965
  140.6279  143.9132  150.6580 LP  0  0  0  0  0  0  0  0  0  0  0  0  # atno 17342 bound_to 10162
  140.2427  143.3651  152.1473 LP  0  0  0  0  0  0  0  0  0  0  0  0  # atno 17343 bound_to 10162
  157.4278  130.7474  149.6965 LP  0  0  0  0  0  0  0  0  0  0  0  0  # atno 17370 bound_to 10713
  155.9782  130.4053  150.3661 LP  0  0  0  0  0  0  0  0  0  0  0  0  # atno 17371 bound_to 10713
  141.2119  133.6713  156.6620 LP  0  0  0  0  0  0  0  0  0  0  0  0  # atno 17394 bound_to 11000
  140.3149  134.8055  157.4206 LP  0  0  0  0  0  0  0  0  0  0  0  0  # atno 17395 bound_to 11000

$$$$
