AV-unprocessed.smi:193|AV-procd|sdf|1519|dock10
  -GOLD-   2262019363D 1   1.00000     0.00000
 Structure written by MMmdl.
 61 65  0  0  0  0  0  0  0  0  1 V2000
  152.1073  138.9839  155.9951 C   0  0  0  0  0  0  0  0  0  0  0  0
  151.5117  140.3983  156.0528 C   0  0  1  0  0  0  0  0  0  0  0  0
  150.2108  140.4971  155.2258 C   0  0  0  0  0  0  0  0  0  0  0  0
  148.9840  140.2478  155.9812 N   0  0  0  0  0  0  0  0  0  0  0  0
  148.0782  139.5241  155.2751 C   0  0  0  0  0  0  0  0  0  0  0  0
  147.4472  140.0745  154.2027 N   0  0  0  0  0  0  0  0  0  0  0  0
  146.5764  139.3544  153.4896 C   0  0  0  0  0  0  0  0  0  0  0  0
  146.1967  138.0878  153.6688 N   0  0  0  0  0  0  0  0  0  0  0  0
  146.8252  137.5302  154.7430 C   0  0  0  0  0  0  0  0  0  0  0  0
  147.7751  138.1701  155.5887 C   0  0  0  0  0  0  0  0  0  0  0  0
  148.2045  137.2870  156.5709 N   0  0  0  0  0  0  0  0  0  0  0  0
  147.5485  136.1874  156.3200 C   0  0  0  0  0  0  0  0  0  0  0  0
  146.6890  136.2480  155.2462 N   0  0  0  0  0  0  0  0  0  0  0  0
  145.8379  135.1759  154.7521 C   0  0  0  0  0  0  0  0  0  0  0  0
  146.1636  134.7234  153.3061 C   0  0  0  0  0  0  0  0  0  0  0  0
  147.5637  134.5238  153.2191 O   0  0  0  0  0  0  0  0  0  0  0  0
  145.4632  133.3860  152.9919 C   0  0  0  0  0  0  0  0  0  0  0  0
  145.6200  132.9805  151.5156 C   0  0  0  0  0  0  0  0  0  0  0  0
  145.1455  134.0229  150.6722 O   0  0  0  0  0  0  0  0  0  0  0  0
  145.8916  135.2257  150.8125 C   0  0  0  0  0  0  0  0  0  0  0  0
  145.7555  135.7699  152.2459 C   0  0  0  0  0  0  0  0  0  0  0  0
  148.4679  141.4076  156.7109 C   0  0  0  0  0  0  0  0  0  0  0  0
  149.2643  141.7373  157.9811 C   0  0  0  0  0  0  0  0  0  0  0  0
  150.6556  142.1017  157.7082 N   0  0  0  0  0  0  0  0  0  0  0  0
  151.1644  142.7849  158.8884 C   0  0  1  0  0  0  0  0  0  0  0  0
  152.5949  143.2732  158.8457 C   0  0  0  0  0  0  0  0  0  0  0  0
  151.4583  144.2649  158.7681 C   0  0  2  0  0  0  0  0  0  0  0  0
  151.1787  145.2029  159.9217 C   0  0  0  0  0  0  0  0  0  0  0  0
  151.4434  140.8825  157.5177 C   0  0  0  0  0  0  0  0  0  0  0  0
  151.4749  138.2675  156.5189 H   0  0  0  0  0  0  0  0  0  0  0  0
  153.0926  138.9546  156.4610 H   0  0  0  0  0  0  0  0  0  0  0  0
  152.2217  138.6411  154.9664 H   0  0  0  0  0  0  0  0  0  0  0  0
  152.2270  141.0454  155.5431 H   0  0  0  0  0  0  0  0  0  0  0  0
  150.1421  141.5058  154.8158 H   0  0  0  0  0  0  0  0  0  0  0  0
  150.2819  139.8473  154.3520 H   0  0  0  0  0  0  0  0  0  0  0  0
  146.1203  139.8649  152.6543 H   0  0  0  0  0  0  0  0  0  0  0  0
  147.6685  135.2975  156.9207 H   0  0  0  0  0  0  0  0  0  0  0  0
  145.9121  134.3330  155.4408 H   0  0  0  0  0  0  0  0  0  0  0  0
  144.8044  135.5204  154.8082 H   0  0  0  0  0  0  0  0  0  0  0  0
  147.9287  135.1901  152.6573 H   0  0  0  0  0  0  0  0  0  0  0  0
  145.8408  132.5941  153.6402 H   0  0  0  0  0  0  0  0  0  0  0  0
  144.3985  133.4764  153.2109 H   0  0  0  0  0  0  0  0  0  0  0  0
  146.6593  132.7483  151.2779 H   0  0  0  0  0  0  0  0  0  0  0  0
  145.0425  132.0781  151.3145 H   0  0  0  0  0  0  0  0  0  0  0  0
  146.9374  135.0500  150.5567 H   0  0  0  0  0  0  0  0  0  0  0  0
  145.5126  135.9579  150.0994 H   0  0  0  0  0  0  0  0  0  0  0  0
  144.7167  136.0597  152.4096 H   0  0  0  0  0  0  0  0  0  0  0  0
  146.3480  136.6801  152.3473 H   0  0  0  0  0  0  0  0  0  0  0  0
  148.4424  142.2758  156.0508 H   0  0  0  0  0  0  0  0  0  0  0  0
  147.4366  141.2231  157.0146 H   0  0  0  0  0  0  0  0  0  0  0  0
  148.7687  142.5907  158.4465 H   0  0  0  0  0  0  0  0  0  0  0  0
  149.1987  140.9253  158.7069 H   0  0  0  0  0  0  0  0  0  0  0  0
  150.8171  142.4561  159.8669 H   0  0  0  0  0  0  0  0  0  0  0  0
  153.1661  143.2267  159.7705 H   0  0  0  0  0  0  0  0  0  0  0  0
  153.1678  143.0980  157.9371 H   0  0  0  0  0  0  0  0  0  0  0  0
  151.2856  144.7137  157.7914 H   0  0  0  0  0  0  0  0  0  0  0  0
  151.3731  144.7122  160.8759 H   0  0  0  0  0  0  0  0  0  0  0  0
  150.1361  145.5208  159.9000 H   0  0  0  0  0  0  0  0  0  0  0  0
  151.8139  146.0855  159.8480 H   0  0  0  0  0  0  0  0  0  0  0  0
  151.0805  140.0871  158.1707 H   0  0  0  0  0  0  0  0  0  0  0  0
  152.4721  141.0641  157.8337 H   0  0  0  0  0  0  0  0  0  0  0  0
  1  2  1  0  0  0  0
  1 30  1  0  0  0  0
  1 31  1  0  0  0  0
  1 32  1  0  0  0  0
  2 29  1  0  0  0  0
  2  3  1  0  0  0  0
  2 33  1  0  0  0  0
  3  4  1  0  0  0  0
  3 34  1  0  0  0  0
  3 35  1  0  0  0  0
  4  5  1  0  0  0  0
  4 22  1  0  0  0  0
  5 10  1  0  0  0  0
  5  6  2  0  0  0  0
  6  7  1  0  0  0  0
  7  8  2  0  0  0  0
  7 36  1  0  0  0  0
  8  9  1  0  0  0  0
  9 13  1  0  0  0  0
  9 10  2  0  0  0  0
 10 11  1  0  0  0  0
 11 12  2  0  0  0  0
 12 13  1  0  0  0  0
 12 37  1  0  0  0  0
 13 14  1  0  0  0  0
 14 15  1  0  0  0  0
 14 38  1  0  0  0  0
 14 39  1  0  0  0  0
 15 21  1  0  0  0  0
 15 16  1  0  0  0  0
 15 17  1  0  0  0  0
 16 40  1  0  0  0  0
 17 18  1  0  0  0  0
 17 41  1  0  0  0  0
 17 42  1  0  0  0  0
 18 19  1  0  0  0  0
 18 43  1  0  0  0  0
 18 44  1  0  0  0  0
 19 20  1  0  0  0  0
 20 21  1  0  0  0  0
 20 45  1  0  0  0  0
 20 46  1  0  0  0  0
 21 47  1  0  0  0  0
 21 48  1  0  0  0  0
 22 23  1  0  0  0  0
 22 49  1  0  0  0  0
 22 50  1  0  0  0  0
 23 24  1  0  0  0  0
 23 51  1  0  0  0  0
 23 52  1  0  0  0  0
 24 25  1  0  0  0  0
 24 29  1  0  0  0  0
 25 27  1  0  0  0  0
 25 26  1  0  0  0  0
 25 53  1  0  0  0  0
 26 27  1  0  0  0  0
 26 54  1  0  0  0  0
 26 55  1  0  0  0  0
 27 28  1  0  0  0  0
 27 56  1  0  0  0  0
 28 57  1  0  0  0  0
 28 58  1  0  0  0  0
 28 59  1  0  0  0  0
 29 60  1  0  0  0  0
 29 61  1  0  0  0  0
M  END
> <s_m_source_file>
AV-unprocessed.smi

> <i_m_source_file_index>
193

> <i_lp_mmshare_version>
43012

> <i_f3d_flags>
0

> <s_epik_input>
W0NIM11bQ0BASF0xW0NIMl1bQ0BIXTFOKFtDSDJdMilbQ0gyXVtDSDJdTihbQ0gyXVtDQEhdMltDSDNdKWMobltjSF1uMyljKGMzNCluW2NIXW40W0NIMl1DNShbT0hdKVtDSDJdW0NIMl1PW0NIMl1bQ0gyXTU=

> <s_epik_cmdline>
J2VwaWtfcHl0aG9uJywgJy1waCcsICc3LjAnLCAnLXRuJywgJzgnLCAnLW1hJywgJzIwMCcsICctbWV0YWxfYmluZGluZycsICctaW1hZScsICc8aW5maWxlLm1hZT4nLCAnLW9tYWUnLCAnPG91dGZpbGUubWFlPic=

> <r_lp_tautomer_probability>
1

> <r_epik_Ionization_Penalty>
1.45227

> <r_epik_Ionization_Penalty_Charging>
0

> <r_epik_Ionization_Penalty_Neutral>
1.45227

> <r_epik_State_Penalty>
2.02377

> <r_epik_Charging_Adjusted_Penalty>
2.02377

> <i_epik_Tot_Q>
0

> <i_epik_Tot_abs_Q>
0

> <r_epik_Metal_State_Penalty>
2.01937

> <b_epik_Metal_Only>
0

> <s_lp_Force_Field>
OPLS_2005

> <r_lp_Energy>
55.8214

> <b_lp_Chiralities_Consistent>
1

> <s_lp_Variant>
AV-unprocessed.smi:193-24

> <Gold.Version>
5.8.1

> <Gold.Id.Protein>
6NUR|6NUR_protein|mol2

> <Gold.PLP.Fitness>
43.1015

> <Gold.PLP.PLP>
-37.6076

> <Gold.PLP.part.hbond>
-0.7147

> <Gold.PLP.part.metal>
0.0000

> <Gold.PLP.part.buried>
-5.8411

> <Gold.PLP.part.nonpolar>
-32.1380

> <Gold.PLP.part.repulsive>
0.5707

> <Gold.PLP.ligand.clash>
0.0000

> <Gold.PLP.ligand.torsion>
0.9429

> <Gold.PLP.Chemscore.Hbond>
1.0000

> <Gold.PLP.Chemscore.CHOScore>
0.9881

> <Gold.PLP.Chemscore.Metal>
0.0000

> <Gold.Chemscore.Hbonds>
donor molecule, donor type, donor heavy atom, donor atom, acceptor molecule, acceptor atom, score
      L1  H    16    40       P1  7948  1.00
      L1  C     7    36       P1 10175  0.92

> <Gold.PLP.Chemscore.Internal.Correction>
1.4154

> <Gold.Rescore>
     Score         DG    S(hbond)    S(metal)    S(lipo)     H(rot)  DE(clash)    DE(int)     intcor
     13.21     -15.45       1.00        0.00     104.16       2.17       0.04       2.21       ----

> <Gold.Chemscore.Fitness>
13.2053

> <Gold.Chemscore.DG>
-15.4538

> <Gold.Chemscore.ZeroCoef>
-5.4800

> <Gold.Chemscore.Hbond>
0.9978

> <Gold.Chemscore.Metal>
0.0000

> <Gold.Chemscore.Lipo>
104.1622

> <Gold.Chemscore.Internal_Hbond>
0.0000

> <Gold.Chemscore.DEClash>
0.0389

> <Gold.Chemscore.DEInternal>
2.2095

> <Gold.Chemscore.Rot>
2.1664

> <Gold.Chemscore.Internal.Correction>
   9.000000E+99

> <Gold.Chemscore.Hbonds>
donor molecule, donor type, donor heavy atom, donor atom, acceptor molecule, acceptor atom, score
      L1  H    16    40       P1  7948  0.98

> <Gold.Chemscore.Hbond.Weighted>
-3.3328

> <Gold.Chemscore.Metal.Weighted>
-0.0000

> <Gold.Chemscore.Lipo.Weighted>
-12.1870

> <Gold.Chemscore.Internal_Hbond.Weighted>
0.0000

> <Gold.Chemscore.DEClash.Weighted>
0.0389

> <Gold.Chemscore.DEInternal.Weighted>
2.2095

> <Gold.Chemscore.Rot.Weighted>
5.5459

> <Gold.Chemscore.Internal.Correction.Weighted>
   9.000000E+99

> <Gold.Protein.RotatedTorsions>
[ 6907 6896 6895 6894 ] final    2.98 input  -60.11 | X-H torsion
[ 7974 7965 7964 7962 ] final  -50.26 input  175.53 | X-H torsion
[ 8008 7997 7996 7995 ] final   57.90 input   59.86 | X-H torsion
[ 10167 10162 10161 10158 ] final  170.94 input  -65.29 | X-H torsion
[ 10718 10713 10712 10709 ] final  -41.76 input   66.30 | X-H torsion
[ 10763 10752 10751 10750 ] final  -72.38 input  -60.55 | X-H torsion
[ 11005 11000 10999 10996 ] final -176.87 input  -57.11 | X-H torsion

> <Gold.Protein.ActiveResidues>
 VAL166  LYS551  ARG553  GLY616  TRP617  ASP618  TYR619  PRO620  LYS621  CYS622 
 ASP623  PHE694  ASN695  SER759  ASP760  ASP761  ALA762  ILE779  LEU786  VAL792 
 PHE793  MET794  SER795  GLU796  ALA797  LYS798  CYS799  TRP800  GLU811  SER814 

> <Gold.Protein.RotatedAtoms>
  151.6176  135.1035  160.0094 H   0  0  0  0  0  0  0  0  0  0  0  0  # atno 6907 bound_to 6896
  152.4175  133.7057  159.6460 H   0  0  0  0  0  0  0  0  0  0  0  0  # atno 6908 bound_to 6896
  150.8063  133.8431  159.3225 H   0  0  0  0  0  0  0  0  0  0  0  0  # atno 6909 bound_to 6896
  145.9317  140.7743  142.9596 H   0  0  0  0  0  0  0  0  0  0  0  0  # atno 7974 bound_to 7965
  155.5412  140.3484  155.4447 H   0  0  0  0  0  0  0  0  0  0  0  0  # atno 8008 bound_to 7997
  156.0650  140.1349  156.9923 H   0  0  0  0  0  0  0  0  0  0  0  0  # atno 8009 bound_to 7997
  154.4498  140.0977  156.6558 H   0  0  0  0  0  0  0  0  0  0  0  0  # atno 8010 bound_to 7997
  139.5032  144.3541  151.9892 H   0  0  0  0  0  0  0  0  0  0  0  0  # atno 10167 bound_to 10162
  156.2669  130.4202  149.8480 H   0  0  0  0  0  0  0  0  0  0  0  0  # atno 10718 bound_to 10713
  154.4448  135.5932  153.6153 H   0  0  0  0  0  0  0  0  0  0  0  0  # atno 10763 bound_to 10752
  152.9808  135.6007  154.3677 H   0  0  0  0  0  0  0  0  0  0  0  0  # atno 10764 bound_to 10752
  154.3532  135.2841  155.2339 H   0  0  0  0  0  0  0  0  0  0  0  0  # atno 10765 bound_to 10752
  140.4472  134.6376  157.4785 H   0  0  0  0  0  0  0  0  0  0  0  0  # atno 11005 bound_to 11000
  144.6766  140.2138  143.7374 LP  0  0  0  0  0  0  0  0  0  0  0  0  # atno 17320 bound_to 7965
  145.8417  139.2133  143.1824 LP  0  0  0  0  0  0  0  0  0  0  0  0  # atno 17321 bound_to 7965
  140.2978  144.3681  150.6069 LP  0  0  0  0  0  0  0  0  0  0  0  0  # atno 17342 bound_to 10162
  140.5897  143.2168  151.7276 LP  0  0  0  0  0  0  0  0  0  0  0  0  # atno 17343 bound_to 10162
  156.5975  130.8532  151.3423 LP  0  0  0  0  0  0  0  0  0  0  0  0  # atno 17370 bound_to 10713
  157.7270  130.9637  150.1682 LP  0  0  0  0  0  0  0  0  0  0  0  0  # atno 17371 bound_to 10713
  140.0030  134.6806  155.9499 LP  0  0  0  0  0  0  0  0  0  0  0  0  # atno 17394 bound_to 11000
  141.1680  133.6537  156.4548 LP  0  0  0  0  0  0  0  0  0  0  0  0  # atno 17395 bound_to 11000

$$$$
