AV-unprocessed.smi:1800|AV-procd|sdf|7265|dock10
  -GOLD-   22720 8523D 1   1.00000     0.00000
 Structure written by MMmdl.
 35 36  0  0  0  0  0  0  0  0  2 V2000
  152.6580  138.9806  154.9659 C   0  0  0  0  0  0  0  0  0  0  0  0
  151.9193  139.4459  156.2284 C   0  0  2  0  0  0  0  0  0  0  0  0
  151.1851  140.7926  156.0026 C   0  0  0  0  0  0  0  0  0  0  0  0
  149.9302  140.6786  155.2638 N   0  0  0  0  0  0  0  0  0  0  0  0
  149.0621  141.6812  154.8729 C   0  0  0  0  0  0  0  0  0  0  0  0
  148.0207  141.0899  154.2170 C   0  0  0  0  0  0  0  0  0  0  0  0
  148.3351  139.7034  154.2658 C   0  0  0  0  0  0  0  0  0  0  0  0
  149.4667  139.4583  154.9050 N   0  0  0  0  0  0  0  0  0  0  0  0
  152.8796  139.5743  157.3159 N   0  5  0  0  0  0  0  0  0  0  0  0
  152.3772  140.0563  158.7808 S   0  0  0  0  0  0  0  0  0  0  0  0
  150.9756  140.5076  158.7801 O   0  0  0  0  0  0  0  0  0  0  0  0
  152.7683  139.1100  159.8382 O   0  0  0  0  0  0  0  0  0  0  0  0
  153.4285  141.5712  159.0111 C   0  0  0  0  0  0  0  0  0  0  0  0
  154.3346  141.4468  160.2401 C   0  0  0  0  0  0  0  0  0  0  0  0
  153.4532  141.8530  161.4232 C   0  0  0  0  0  0  0  0  0  0  0  0
  152.4313  142.8512  160.8595 C   0  0  0  0  0  0  0  0  0  0  0  0
  152.5753  142.8059  159.3306 C   0  0  0  0  0  0  0  0  0  0  0  0
  151.9663  138.8572  154.1322 H   0  0  0  0  0  0  0  0  0  0  0  0
  153.1493  138.0205  155.1286 H   0  0  0  0  0  0  0  0  0  0  0  0
  153.4201  139.6989  154.6606 H   0  0  0  0  0  0  0  0  0  0  0  0
  151.1635  138.6904  156.4482 H   0  0  0  0  0  0  0  0  0  0  0  0
  150.9910  141.2838  156.9580 H   0  0  0  0  0  0  0  0  0  0  0  0
  151.8308  141.4690  155.4415 H   0  0  0  0  0  0  0  0  0  0  0  0
  149.2628  142.7211  155.0843 H   0  0  0  0  0  0  0  0  0  0  0  0
  147.1666  141.5748  153.7686 H   0  0  0  0  0  0  0  0  0  0  0  0
  147.7752  138.8724  153.8633 H   0  0  0  0  0  0  0  0  0  0  0  0
  154.0199  141.7023  158.1047 H   0  0  0  0  0  0  0  0  0  0  0  0
  154.7706  140.4554  160.3631 H   0  0  0  0  0  0  0  0  0  0  0  0
  155.1609  142.1525  160.1484 H   0  0  0  0  0  0  0  0  0  0  0  0
  152.9328  140.9760  161.8105 H   0  0  0  0  0  0  0  0  0  0  0  0
  154.0360  142.2739  162.2426 H   0  0  0  0  0  0  0  0  0  0  0  0
  151.4220  142.5731  161.1647 H   0  0  0  0  0  0  0  0  0  0  0  0
  152.6164  143.8594  161.2308 H   0  0  0  0  0  0  0  0  0  0  0  0
  153.1034  143.6992  158.9954 H   0  0  0  0  0  0  0  0  0  0  0  0
  151.6120  142.7952  158.8199 H   0  0  0  0  0  0  0  0  0  0  0  0
  1  2  1  0  0  0  0
  1 18  1  0  0  0  0
  1 19  1  0  0  0  0
  1 20  1  0  0  0  0
  2  3  1  0  0  0  0
  2  9  1  0  0  0  0
  2 21  1  0  0  0  0
  3  4  1  0  0  0  0
  3 22  1  0  0  0  0
  3 23  1  0  0  0  0
  4  8  1  0  0  0  0
  4  5  1  0  0  0  0
  5  6  2  0  0  0  0
  5 24  1  0  0  0  0
  6  7  1  0  0  0  0
  6 25  1  0  0  0  0
  7  8  2  0  0  0  0
  7 26  1  0  0  0  0
  9 10  1  0  0  0  0
 10 11  2  0  0  0  0
 10 12  2  0  0  0  0
 10 13  1  0  0  0  0
 13 17  1  0  0  0  0
 13 14  1  0  0  0  0
 13 27  1  0  0  0  0
 14 15  1  0  0  0  0
 14 28  1  0  0  0  0
 14 29  1  0  0  0  0
 15 16  1  0  0  0  0
 15 30  1  0  0  0  0
 15 31  1  0  0  0  0
 16 17  1  0  0  0  0
 16 32  1  0  0  0  0
 16 33  1  0  0  0  0
 17 34  1  0  0  0  0
 17 35  1  0  0  0  0
M  CHG  1   9  -1
M  END
> <s_m_source_file>
AV-unprocessed.smi

> <i_m_source_file_index>
1800

> <i_lp_mmshare_version>
43012

> <i_f3d_flags>
0

> <s_epik_input>
bjFbY0hdW2NIXVtjSF1uMVtDSDJdW0NAQEhdKFtDSDNdKVtOSF1TKD1PKSg9TylbQ0hdMltDSDJdW0NIMl1bQ0gyXVtDSDJdMg==

> <s_epik_cmdline>
J2VwaWtfcHl0aG9uJywgJy1waCcsICc3LjAnLCAnLXRuJywgJzgnLCAnLW1hJywgJzIwMCcsICctbWV0YWxfYmluZGluZycsICctaW1hZScsICc8aW5maWxlLm1hZT4nLCAnLW9tYWUnLCAnPG91dGZpbGUubWFlPic=

> <r_lp_tautomer_probability>
1

> <r_epik_Ionization_Penalty>
6.58538

> <r_epik_Ionization_Penalty_Charging>
6.58536

> <r_epik_Ionization_Penalty_Neutral>
2.3841e-05

> <r_epik_State_Penalty>
6.58535

> <r_epik_Charging_Adjusted_Penalty>
13.1707

> <i_epik_Tot_Q>
-1

> <i_epik_Tot_abs_Q>
1

> <r_epik_Metal_State_Penalty>
2.50999

> <b_epik_Metal_Only>
1

> <s_lp_Force_Field>
OPLS_2005

> <r_lp_Energy>
15.5641

> <b_lp_Chiralities_Consistent>
1

> <s_lp_Variant>
AV-unprocessed.smi:1800-3

> <Gold.Version>
5.8.1

> <Gold.Id.Protein>
6NUR|6NUR_protein|mol2

> <Gold.PLP.Fitness>
45.9485

> <Gold.PLP.PLP>
-37.3736

> <Gold.PLP.part.hbond>
-1.0000

> <Gold.PLP.part.metal>
0.0000

> <Gold.PLP.part.buried>
0.0891

> <Gold.PLP.part.nonpolar>
-34.6926

> <Gold.PLP.part.repulsive>
0.1037

> <Gold.PLP.ligand.clash>
0.0000

> <Gold.PLP.ligand.torsion>
0.7569

> <Gold.PLP.Chemscore.Hbond>
2.0000

> <Gold.PLP.Chemscore.CHOScore>
1.0000

> <Gold.PLP.Chemscore.Metal>
0.0000

> <Gold.Chemscore.Hbonds>
donor molecule, donor type, donor heavy atom, donor atom, acceptor molecule, acceptor atom, score
      P1  H  7997  8009       L1     9  2.00
      L1  C     5    24       P1  8028  1.00

> <Gold.PLP.Chemscore.Internal.Correction>
1.0886

> <Gold.Rescore>
     Score         DG    S(hbond)    S(metal)    S(lipo)     H(rot)  DE(clash)    DE(int)     intcor
     13.40     -15.97       0.87        0.00      97.88       1.51       0.31       2.25       ----

> <Gold.Chemscore.Fitness>
13.4042

> <Gold.Chemscore.DG>
-15.9661

> <Gold.Chemscore.ZeroCoef>
-5.4800

> <Gold.Chemscore.Hbond>
0.8717

> <Gold.Chemscore.Metal>
0.0000

> <Gold.Chemscore.Lipo>
97.8791

> <Gold.Chemscore.Internal_Hbond>
0.0000

> <Gold.Chemscore.DEClash>
0.3104

> <Gold.Chemscore.DEInternal>
2.2515

> <Gold.Chemscore.Rot>
1.5146

> <Gold.Chemscore.Internal.Correction>
   9.000000E+99

> <Gold.Chemscore.Hbonds>
donor molecule, donor type, donor heavy atom, donor atom, acceptor molecule, acceptor atom, score
      P1  H  7997  8009       L1     9  0.82

> <Gold.Chemscore.Hbond.Weighted>
-2.9116

> <Gold.Chemscore.Metal.Weighted>
-0.0000

> <Gold.Chemscore.Lipo.Weighted>
-11.4519

> <Gold.Chemscore.Internal_Hbond.Weighted>
0.0000

> <Gold.Chemscore.DEClash.Weighted>
0.3104

> <Gold.Chemscore.DEInternal.Weighted>
2.2515

> <Gold.Chemscore.Rot.Weighted>
3.8773

> <Gold.Chemscore.Internal.Correction.Weighted>
   9.000000E+99

> <Gold.Protein.RotatedTorsions>
[ 6907 6896 6895 6894 ] final  119.85 input  -60.11 | X-H torsion
[ 7974 7965 7964 7962 ] final   89.38 input  175.53 | X-H torsion
[ 8008 7997 7996 7995 ] final  157.92 input   59.86 | X-H torsion
[ 10167 10162 10161 10158 ] final -140.80 input  -65.29 | X-H torsion
[ 10718 10713 10712 10709 ] final    2.85 input   66.30 | X-H torsion
[ 10763 10752 10751 10750 ] final  -54.15 input  -60.55 | X-H torsion
[ 11005 11000 10999 10996 ] final   68.15 input  -57.11 | X-H torsion

> <Gold.Protein.ActiveResidues>
 VAL166  LYS551  ARG553  GLY616  TRP617  ASP618  TYR619  PRO620  LYS621  CYS622 
 ASP623  PHE694  ASN695  SER759  ASP760  ASP761  ALA762  ILE779  LEU786  VAL792 
 PHE793  MET794  SER795  GLU796  ALA797  LYS798  CYS799  TRP800  GLU811  SER814 

> <Gold.Protein.RotatedAtoms>
  152.4441  133.7503  159.6690 H   0  0  0  0  0  0  0  0  0  0  0  0  # atno 6907 bound_to 6896
  150.8338  133.8037  159.3094 H   0  0  0  0  0  0  0  0  0  0  0  0  # atno 6908 bound_to 6896
  151.5683  135.1066  160.0041 H   0  0  0  0  0  0  0  0  0  0  0  0  # atno 6909 bound_to 6896
  145.5331  139.2284  143.2607 H   0  0  0  0  0  0  0  0  0  0  0  0  # atno 7974 bound_to 7965
  156.2334  140.1872  156.7182 H   0  0  0  0  0  0  0  0  0  0  0  0  # atno 8008 bound_to 7997
  154.6063  140.0628  156.9463 H   0  0  0  0  0  0  0  0  0  0  0  0  # atno 8009 bound_to 7997
  155.2090  140.3298  155.4334 H   0  0  0  0  0  0  0  0  0  0  0  0  # atno 8010 bound_to 7997
  139.8247  143.7527  152.2666 H   0  0  0  0  0  0  0  0  0  0  0  0  # atno 10167 bound_to 10162
  156.8691  130.5613  149.5658 H   0  0  0  0  0  0  0  0  0  0  0  0  # atno 10718 bound_to 10713
  154.1703  135.6460  153.5007 H   0  0  0  0  0  0  0  0  0  0  0  0  # atno 10763 bound_to 10752
  153.0086  135.5381  154.6620 H   0  0  0  0  0  0  0  0  0  0  0  0  # atno 10764 bound_to 10752
  154.5957  135.2938  155.0561 H   0  0  0  0  0  0  0  0  0  0  0  0  # atno 10765 bound_to 10752
  139.9728  134.6871  156.0412 H   0  0  0  0  0  0  0  0  0  0  0  0  # atno 11005 bound_to 11000
  146.2031  140.6148  142.9093 LP  0  0  0  0  0  0  0  0  0  0  0  0  # atno 17320 bound_to 7965
  144.7615  140.5433  143.6732 LP  0  0  0  0  0  0  0  0  0  0  0  0  # atno 17321 bound_to 7965
  139.7716  144.7474  151.0216 LP  0  0  0  0  0  0  0  0  0  0  0  0  # atno 17342 bound_to 10162
  140.7811  143.4639  151.0240 LP  0  0  0  0  0  0  0  0  0  0  0  0  # atno 17343 bound_to 10162
  156.0736  130.5763  150.9431 LP  0  0  0  0  0  0  0  0  0  0  0  0  # atno 17370 bound_to 10713
  157.6206  131.0930  150.8629 LP  0  0  0  0  0  0  0  0  0  0  0  0  # atno 17371 bound_to 10713
  141.1407  133.6565  156.3722 LP  0  0  0  0  0  0  0  0  0  0  0  0  # atno 17394 bound_to 11000
  140.5256  134.6262  157.5333 LP  0  0  0  0  0  0  0  0  0  0  0  0  # atno 17395 bound_to 11000

$$$$
