AV-unprocessed.smi:45|AV-procd|sdf|417|dock9
  -GOLD-   2262016293D 1   1.00000     0.00000
 Structure written by MMmdl.
 60 63  0  0  0  0  0  0  0  0  3 V2000
  144.0382  132.4039  149.4608 C   0  0  0  0  0  0  0  0  0  0  0  0
  144.4356  131.4022  150.3852 O   0  0  0  0  0  0  0  0  0  0  0  0
  145.4661  131.6905  151.2560 C   0  0  0  0  0  0  0  0  0  0  0  0
  146.0239  132.9842  151.4174 C   0  0  0  0  0  0  0  0  0  0  0  0
  147.0831  133.1992  152.3197 C   0  0  0  0  0  0  0  0  0  0  0  0
  147.6048  132.1286  153.0732 C   0  0  0  0  0  0  0  0  0  0  0  0
  148.7652  132.3491  154.0243 C   0  0  0  0  0  0  0  0  0  0  0  0
  148.3696  133.0584  155.2307 N   0  0  0  0  0  0  0  0  0  0  0  0
  149.1672  134.1348  155.6454 C   0  0  0  0  0  0  0  0  0  0  0  0
  148.8073  135.3899  155.2679 N   0  3  0  0  0  0  0  0  0  0  0  0
  149.5211  136.4557  155.6693 C   0  0  0  0  0  0  0  0  0  0  0  0
  149.1165  137.7222  155.2502 N   0  0  0  0  0  0  0  0  0  0  0  0
  147.7422  137.9865  154.8391 C   0  0  0  0  0  0  0  0  0  0  0  0
  147.8266  139.0699  153.7655 C   0  0  0  0  0  0  0  0  0  0  0  0
  149.0816  139.8392  154.1566 C   0  0  0  0  0  0  0  0  0  0  0  0
  150.0106  138.7519  154.7174 C   0  0  1  0  0  0  0  0  0  0  0  0
  150.9986  139.3025  155.7674 C   0  0  0  0  0  0  0  0  0  0  0  0
  151.7895  140.3257  155.2011 O   0  0  0  0  0  0  0  0  0  0  0  0
  150.6071  136.3349  156.4456 N   0  0  0  0  0  0  0  0  0  0  0  0
  151.0005  135.1107  156.8484 C   0  0  0  0  0  0  0  0  0  0  0  0
  150.3047  133.9493  156.4667 C   0  0  0  0  0  0  0  0  0  0  0  0
  150.7491  132.5895  156.9233 C   0  0  0  0  0  0  0  0  0  0  0  0
  150.1431  131.6012  156.4954 O   0  0  0  0  0  0  0  0  0  0  0  0
  151.7635  132.6758  157.8260 N   0  5  0  0  0  0  0  0  0  0  0  0
  152.6034  131.5376  158.2055 C   0  0  0  0  0  0  0  0  0  0  0  0
  153.2071  130.8350  156.9909 C   0  0  0  0  0  0  0  0  0  0  0  0
  152.3595  130.1806  156.1862 N   0  0  0  0  0  0  0  0  0  0  0  0
  152.8852  129.5863  155.0931 C   0  0  0  0  0  0  0  0  0  0  0  0
  154.2634  129.6473  154.8064 C   0  0  0  0  0  0  0  0  0  0  0  0
  155.0590  130.3656  155.7207 C   0  0  0  0  0  0  0  0  0  0  0  0
  154.5287  130.9570  156.8131 N   0  0  0  0  0  0  0  0  0  0  0  0
  147.0519  130.8422  152.9216 C   0  0  0  0  0  0  0  0  0  0  0  0
  145.9919  130.6248  152.0202 C   0  0  0  0  0  0  0  0  0  0  0  0
  145.3506  129.0307  151.8462 Cl  0  0  0  0  0  0  0  0  0  0  0  0
  150.5659  138.3027  153.8926 H   0  0  0  0  0  0  0  0  0  0  0  0
  143.2320  132.0176  148.8372 H   0  0  0  0  0  0  0  0  0  0  0  0
  144.8600  132.6847  148.8003 H   0  0  0  0  0  0  0  0  0  0  0  0
  143.6634  133.2920  149.9713 H   0  0  0  0  0  0  0  0  0  0  0  0
  145.6590  133.8311  150.8567 H   0  0  0  0  0  0  0  0  0  0  0  0
  147.5000  134.1902  152.4253 H   0  0  0  0  0  0  0  0  0  0  0  0
  149.1827  131.3807  154.3017 H   0  0  0  0  0  0  0  0  0  0  0  0
  149.5515  132.9018  153.5076 H   0  0  0  0  0  0  0  0  0  0  0  0
  147.3739  133.2001  155.3326 H   0  0  0  0  0  0  0  0  0  0  0  0
  147.2445  137.0952  154.4545 H   0  0  0  0  0  0  0  0  0  0  0  0
  147.1819  138.3428  155.7040 H   0  0  0  0  0  0  0  0  0  0  0  0
  147.9655  138.6111  152.7855 H   0  0  0  0  0  0  0  0  0  0  0  0
  146.9353  139.6966  153.7230 H   0  0  0  0  0  0  0  0  0  0  0  0
  149.5238  140.3830  153.3214 H   0  0  0  0  0  0  0  0  0  0  0  0
  148.8310  140.5650  154.9317 H   0  0  0  0  0  0  0  0  0  0  0  0
  150.4652  139.6985  156.6324 H   0  0  0  0  0  0  0  0  0  0  0  0
  151.6710  138.5292  156.1362 H   0  0  0  0  0  0  0  0  0  0  0  0
  152.3163  140.7133  155.8837 H   0  0  0  0  0  0  0  0  0  0  0  0
  151.8792  135.0630  157.4752 H   0  0  0  0  0  0  0  0  0  0  0  0
  153.4056  131.8357  158.8832 H   0  0  0  0  0  0  0  0  0  0  0  0
  152.0273  130.7995  158.7648 H   0  0  0  0  0  0  0  0  0  0  0  0
  152.2023  129.0620  154.4410 H   0  0  0  0  0  0  0  0  0  0  0  0
  154.6849  129.1752  153.9314 H   0  0  0  0  0  0  0  0  0  0  0  0
  156.1241  130.4663  155.5745 H   0  0  0  0  0  0  0  0  0  0  0  0
  147.4472  130.0125  153.4892 H   0  0  0  0  0  0  0  0  0  0  0  0
  147.9839  135.5117  154.6795 H   0  0  0  0  0  0  0  0  0  0  0  0
  1  2  1  0  0  0  0
  1 36  1  0  0  0  0
  1 37  1  0  0  0  0
  1 38  1  0  0  0  0
  2  3  1  0  0  0  0
  3 33  1  0  0  0  0
  3  4  2  0  0  0  0
  4  5  1  0  0  0  0
  4 39  1  0  0  0  0
  5  6  2  0  0  0  0
  5 40  1  0  0  0  0
  6  7  1  0  0  0  0
  6 32  1  0  0  0  0
  7  8  1  0  0  0  0
  7 41  1  0  0  0  0
  7 42  1  0  0  0  0
  8  9  1  0  0  0  0
  8 43  1  0  0  0  0
  9 21  1  0  0  0  0
  9 10  2  0  0  0  0
 10 11  1  0  0  0  0
 10 60  1  0  0  0  0
 11 12  1  0  0  0  0
 11 19  2  0  0  0  0
 12 16  1  0  0  0  0
 12 13  1  0  0  0  0
 13 14  1  0  0  0  0
 13 44  1  0  0  0  0
 13 45  1  0  0  0  0
 14 15  1  0  0  0  0
 14 46  1  0  0  0  0
 14 47  1  0  0  0  0
 15 16  1  0  0  0  0
 15 48  1  0  0  0  0
 15 49  1  0  0  0  0
 16 35  1  0  0  0  0
 16 17  1  0  0  0  0
 17 18  1  0  0  0  0
 17 50  1  0  0  0  0
 17 51  1  0  0  0  0
 18 52  1  0  0  0  0
 19 20  1  0  0  0  0
 20 21  2  0  0  0  0
 20 53  1  0  0  0  0
 21 22  1  0  0  0  0
 22 23  2  0  0  0  0
 22 24  1  0  0  0  0
 24 25  1  0  0  0  0
 25 26  1  0  0  0  0
 25 54  1  0  0  0  0
 25 55  1  0  0  0  0
 26 31  1  0  0  0  0
 26 27  2  0  0  0  0
 27 28  1  0  0  0  0
 28 29  2  0  0  0  0
 28 56  1  0  0  0  0
 29 30  1  0  0  0  0
 29 57  1  0  0  0  0
 30 31  2  0  0  0  0
 30 58  1  0  0  0  0
 32 33  2  0  0  0  0
 32 59  1  0  0  0  0
 33 34  1  0  0  0  0
M  CHG  1  10   1
M  CHG  1  24  -1
M  END
> <s_m_source_file>
AV-unprocessed.smi

> <i_m_source_file_index>
45

> <i_lp_mmshare_version>
43012

> <i_f3d_flags>
0

> <s_epik_input>
W0NIM11PYzFbY0hdW2NIXWMoW2NIXWMxQ2wpW0NIMl1bTkhdYzJuYyhOM1tDSDJdW0NIMl1bQ0gyXVtDQEhdM1tDSDJdW09IXSluW2NIXWMyQyg9TylbTkhdW0NIMl1jNG5bY0hdW2NIXVtjSF1uNA==

> <s_epik_cmdline>
J2VwaWtfcHl0aG9uJywgJy1waCcsICc3LjAnLCAnLXRuJywgJzgnLCAnLW1hJywgJzIwMCcsICctbWV0YWxfYmluZGluZycsICctaW1hZScsICc8aW5maWxlLm1hZT4nLCAnLW9tYWUnLCAnPG91dGZpbGUubWFlPic=

> <r_lp_tautomer_probability>
0.424989

> <r_epik_Ionization_Penalty>
7.51351

> <r_epik_Ionization_Penalty_Charging>
7.51312

> <r_epik_Ionization_Penalty_Neutral>
0.00038389

> <r_epik_State_Penalty>
8.64696

> <r_epik_Charging_Adjusted_Penalty>
16.1601

> <i_epik_Tot_Q>
0

> <i_epik_Tot_abs_Q>
2

> <r_epik_Metal_State_Penalty>
4.61083

> <b_epik_Metal_Only>
1

> <s_epik_Chemistry_Notes>
This compound contains an electron-poor aromatic ring that is susceptible to covalent hydrolysis at low pH, typically resulting in measured values for nitrogen ring protonation that are around two units higher than predicted values.

> <s_lp_Force_Field>
OPLS_2005

> <r_lp_Energy>
39.4565

> <b_lp_Chiralities_Consistent>
1

> <s_lp_Variant>
AV-unprocessed.smi:45-11

> <Gold.Version>
5.8.1

> <Gold.Id.Protein>
6NUR|6NUR_protein|mol2

> <Gold.PLP.Fitness>
61.1804

> <Gold.PLP.PLP>
-53.0722

> <Gold.PLP.part.hbond>
-2.5941

> <Gold.PLP.part.metal>
0.0000

> <Gold.PLP.part.buried>
-5.6019

> <Gold.PLP.part.nonpolar>
-46.0561

> <Gold.PLP.part.repulsive>
0.1783

> <Gold.PLP.ligand.clash>
0.6340

> <Gold.PLP.ligand.torsion>
1.6073

> <Gold.PLP.Chemscore.Hbond>
2.7360

> <Gold.PLP.Chemscore.CHOScore>
0.9423

> <Gold.PLP.Chemscore.Metal>
0.0000

> <Gold.Chemscore.Hbonds>
donor molecule, donor type, donor heavy atom, donor atom, acceptor molecule, acceptor atom, score
      P1  H  6896  6909       L1    24  1.80
      P1  H  7989  7998       L1    18  0.82

> <Gold.PLP.Chemscore.Internal.Correction>
0.9219

> <Gold.Rescore>
     Score         DG    S(hbond)    S(metal)    S(lipo)     H(rot)  DE(clash)    DE(int)     intcor
     11.80     -17.78       1.51        0.00     131.03       3.16       0.11       5.87       ----

> <Gold.Chemscore.Fitness>
11.8027

> <Gold.Chemscore.DG>
-17.7764

> <Gold.Chemscore.ZeroCoef>
-5.4800

> <Gold.Chemscore.Hbond>
1.5113

> <Gold.Chemscore.Metal>
0.0000

> <Gold.Chemscore.Lipo>
131.0314

> <Gold.Chemscore.Internal_Hbond>
0.0000

> <Gold.Chemscore.DEClash>
0.1059

> <Gold.Chemscore.DEInternal>
5.8678

> <Gold.Chemscore.Rot>
3.1571

> <Gold.Chemscore.Internal.Correction>
   9.000000E+99

> <Gold.Chemscore.Hbonds>
donor molecule, donor type, donor heavy atom, donor atom, acceptor molecule, acceptor atom, score
      P1  H  6896  6909       L1    24  0.17
      P1  H  7989  7998       L1    18  0.81

> <Gold.Chemscore.Hbond.Weighted>
-5.0479

> <Gold.Chemscore.Metal.Weighted>
-0.0000

> <Gold.Chemscore.Lipo.Weighted>
-15.3307

> <Gold.Chemscore.Internal_Hbond.Weighted>
0.0000

> <Gold.Chemscore.DEClash.Weighted>
0.1059

> <Gold.Chemscore.DEInternal.Weighted>
5.8678

> <Gold.Chemscore.Rot.Weighted>
8.0822

> <Gold.Chemscore.Internal.Correction.Weighted>
   9.000000E+99

> <Gold.Protein.RotatedTorsions>
[ 6907 6896 6895 6894 ] final  -55.95 input  -60.11 | X-H torsion
[ 7974 7965 7964 7962 ] final   66.96 input  175.53 | X-H torsion
[ 8008 7997 7996 7995 ] final -137.93 input   59.86 | X-H torsion
[ 10167 10162 10161 10158 ] final -168.56 input  -65.29 | X-H torsion
[ 10718 10713 10712 10709 ] final  -40.67 input   66.30 | X-H torsion
[ 10763 10752 10751 10750 ] final  101.84 input  -60.55 | X-H torsion
[ 11005 11000 10999 10996 ] final   60.84 input  -57.11 | X-H torsion

> <Gold.Protein.ActiveResidues>
 VAL166  LYS551  ARG553  GLY616  TRP617  ASP618  TYR619  PRO620  LYS621  CYS622 
 ASP623  PHE694  ASN695  SER759  ASP760  ASP761  ALA762  ILE779  LEU786  VAL792 
 PHE793  MET794  SER795  GLU796  ALA797  LYS798  CYS799  TRP800  GLU811  SER814 

> <Gold.Protein.RotatedAtoms>
  150.8208  134.7415  159.6770 H   0  0  0  0  0  0  0  0  0  0  0  0  # atno 6907 bound_to 6896
  152.4324  134.5749  159.9941 H   0  0  0  0  0  0  0  0  0  0  0  0  # atno 6908 bound_to 6896
  151.5934  133.3326  159.3068 H   0  0  0  0  0  0  0  0  0  0  0  0  # atno 6909 bound_to 6896
  145.8204  139.3082  143.1046 H   0  0  0  0  0  0  0  0  0  0  0  0  # atno 7974 bound_to 7965
  155.4200  140.0518  157.3026 H   0  0  0  0  0  0  0  0  0  0  0  0  # atno 8008 bound_to 7997
  154.4907  140.2119  155.9514 H   0  0  0  0  0  0  0  0  0  0  0  0  # atno 8009 bound_to 7997
  156.1338  140.3167  155.8394 H   0  0  0  0  0  0  0  0  0  0  0  0  # atno 8010 bound_to 7997
  139.5978  144.1075  152.1709 H   0  0  0  0  0  0  0  0  0  0  0  0  # atno 10167 bound_to 10162
  156.2788  130.4215  149.8359 H   0  0  0  0  0  0  0  0  0  0  0  0  # atno 10718 bound_to 10713
  153.3318  135.4031  155.1502 H   0  0  0  0  0  0  0  0  0  0  0  0  # atno 10763 bound_to 10752
  154.8625  135.3612  154.5460 H   0  0  0  0  0  0  0  0  0  0  0  0  # atno 10764 bound_to 10752
  153.5899  135.7074  153.5487 H   0  0  0  0  0  0  0  0  0  0  0  0  # atno 10765 bound_to 10752
  140.0203  134.6163  155.9649 H   0  0  0  0  0  0  0  0  0  0  0  0  # atno 11005 bound_to 11000
  145.9681  140.8782  143.0176 LP  0  0  0  0  0  0  0  0  0  0  0  0  # atno 17320 bound_to 7965
  144.6748  140.1907  143.7397 LP  0  0  0  0  0  0  0  0  0  0  0  0  # atno 17321 bound_to 7965
  140.0664  144.5814  150.7224 LP  0  0  0  0  0  0  0  0  0  0  0  0  # atno 17342 bound_to 10162
  140.7226  143.2603  151.4229 LP  0  0  0  0  0  0  0  0  0  0  0  0  # atno 17343 bound_to 10162
  156.5814  130.8467  151.3384 LP  0  0  0  0  0  0  0  0  0  0  0  0  # atno 17370 bound_to 10713
  157.7308  130.9690  150.1849 LP  0  0  0  0  0  0  0  0  0  0  0  0  # atno 17371 bound_to 10713
  141.1769  133.6541  156.4865 LP  0  0  0  0  0  0  0  0  0  0  0  0  # atno 17394 bound_to 11000
  140.4399  134.7025  157.4986 LP  0  0  0  0  0  0  0  0  0  0  0  0  # atno 17395 bound_to 11000

$$$$
