AV-unprocessed.smi:3076|AV-procd|sdf|11726|dock7
  -GOLD-   2272017123D 1   1.00000     0.00000
 Structure written by MMmdl.
 21 21  0  0  0  0  0  0  0  0  2 V2000
  149.6444  142.6999  157.3208 N   0  3  0  0  0  0  0  0  0  0  0  0
  151.1127  142.6241  157.2239 C   0  0  0  0  0  0  0  0  0  0  0  0
  151.7913  143.8291  157.8996 C   0  0  1  0  0  0  0  0  0  0  0  0
  150.9364  144.9510  157.7932 O   0  0  0  0  0  0  0  0  0  0  0  0
  152.1425  143.5215  159.3465 C   0  0  0  0  0  0  0  0  0  0  0  0
  152.8970  142.3797  159.6953 C   0  0  0  0  0  0  0  0  0  0  0  0
  153.2017  142.1524  161.0511 C   0  0  0  0  0  0  0  0  0  0  0  0
  152.7401  143.0789  162.0069 C   0  0  0  0  0  0  0  0  0  0  0  0
  152.0202  144.1756  161.6871 N   0  0  0  0  0  0  0  0  0  0  0  0
  151.7319  144.3860  160.3850 C   0  0  0  0  0  0  0  0  0  0  0  0
  149.2343  141.8709  156.9151 H   0  0  0  0  0  0  0  0  0  0  0  0
  149.3148  143.5170  156.8274 H   0  0  0  0  0  0  0  0  0  0  0  0
  151.4511  141.6874  157.6691 H   0  0  0  0  0  0  0  0  0  0  0  0
  151.3778  142.5888  156.1666 H   0  0  0  0  0  0  0  0  0  0  0  0
  152.7119  144.0702  157.3659 H   0  0  0  0  0  0  0  0  0  0  0  0
  150.5417  144.9488  156.9337 H   0  0  0  0  0  0  0  0  0  0  0  0
  153.2402  141.6890  158.9388 H   0  0  0  0  0  0  0  0  0  0  0  0
  153.7763  141.2888  161.3522 H   0  0  0  0  0  0  0  0  0  0  0  0
  152.9566  142.9363  163.0553 H   0  0  0  0  0  0  0  0  0  0  0  0
  151.1576  145.2747  160.1667 H   0  0  0  0  0  0  0  0  0  0  0  0
  149.3805  142.7662  158.2938 H   0  0  0  0  0  0  0  0  0  0  0  0
  1  2  1  0  0  0  0
  1 11  1  0  0  0  0
  1 12  1  0  0  0  0
  1 21  1  0  0  0  0
  2  3  1  0  0  0  0
  2 13  1  0  0  0  0
  2 14  1  0  0  0  0
  3  4  1  0  0  0  0
  3  5  1  0  0  0  0
  3 15  1  0  0  0  0
  4 16  1  0  0  0  0
  5 10  1  0  0  0  0
  5  6  2  0  0  0  0
  6  7  1  0  0  0  0
  6 17  1  0  0  0  0
  7  8  2  0  0  0  0
  7 18  1  0  0  0  0
  8  9  1  0  0  0  0
  8 19  1  0  0  0  0
  9 10  2  0  0  0  0
 10 20  1  0  0  0  0
M  CHG  1   1   1
M  END
> <s_m_source_file>
AV-unprocessed.smi

> <i_m_source_file_index>
3076

> <i_lp_mmshare_version>
43012

> <i_f3d_flags>
0

> <s_epik_input>
W05IMl1bQ0gyXVtDQEhdKFtPSF0pYzFbY0hdW2NIXVtjSF1uW2NIXTE=

> <s_epik_cmdline>
J2VwaWtfcHl0aG9uJywgJy1waCcsICc3LjAnLCAnLXRuJywgJzgnLCAnLW1hJywgJzIwMCcsICctbWV0YWxfYmluZGluZycsICctaW1hZScsICc8aW5maWxlLm1hZT4nLCAnLW9tYWUnLCAnPG91dGZpbGUubWFlPic=

> <r_epik_Ionization_Penalty>
0.0145342

> <r_epik_Ionization_Penalty_Charging>
0.0140431

> <r_epik_Ionization_Penalty_Neutral>
0.000491123

> <r_epik_State_Penalty>
0.0109628

> <r_epik_Charging_Adjusted_Penalty>
0.0250059

> <i_epik_Tot_Q>
1

> <i_epik_Tot_abs_Q>
1

> <r_epik_Metal_State_Penalty>
0.0109916

> <b_epik_Metal_Only>
0

> <s_lp_Force_Field>
OPLS_2005

> <r_lp_Energy>
5.00299

> <b_lp_Chiralities_Consistent>
1

> <s_lp_Variant>
AV-unprocessed.smi:3076-2

> <Gold.Version>
5.8.1

> <Gold.Id.Protein>
6NUR|6NUR_protein|mol2

> <Gold.PLP.Fitness>
37.9202

> <Gold.PLP.PLP>
-29.8771

> <Gold.PLP.part.hbond>
-2.8168

> <Gold.PLP.part.metal>
0.0000

> <Gold.PLP.part.buried>
-3.7370

> <Gold.PLP.part.nonpolar>
-23.7791

> <Gold.PLP.part.repulsive>
0.2202

> <Gold.PLP.ligand.clash>
0.0000

> <Gold.PLP.ligand.torsion>
0.4819

> <Gold.PLP.Chemscore.Hbond>
3.0000

> <Gold.PLP.Chemscore.CHOScore>
0.0000

> <Gold.PLP.Chemscore.Metal>
0.0000

> <Gold.Chemscore.Hbonds>
donor molecule, donor type, donor heavy atom, donor atom, acceptor molecule, acceptor atom, score
      L1  H     1    12       P1  8028  2.00
      L1  H     4    16       P1  8028  0.94

> <Gold.PLP.Chemscore.Internal.Correction>
0.0070

> <Gold.Rescore>
     Score         DG    S(hbond)    S(metal)    S(lipo)     H(rot)  DE(clash)    DE(int)     intcor
     15.50     -16.10       1.85        0.00      79.39       1.90       0.01       0.58       ----

> <Gold.Chemscore.Fitness>
15.5042

> <Gold.Chemscore.DG>
-16.0960

> <Gold.Chemscore.ZeroCoef>
-5.4800

> <Gold.Chemscore.Hbond>
1.8522

> <Gold.Chemscore.Metal>
0.0000

> <Gold.Chemscore.Lipo>
79.3899

> <Gold.Chemscore.Internal_Hbond>
0.0000

> <Gold.Chemscore.DEClash>
0.0071

> <Gold.Chemscore.DEInternal>
0.5847

> <Gold.Chemscore.Rot>
1.8981

> <Gold.Chemscore.Internal.Correction>
   9.000000E+99

> <Gold.Chemscore.Hbonds>
donor molecule, donor type, donor heavy atom, donor atom, acceptor molecule, acceptor atom, score
      L1  H     1    12       P1  8028  0.94
      L1  H     4    16       P1  8028  0.43

> <Gold.Chemscore.Hbond.Weighted>
-6.1865

> <Gold.Chemscore.Metal.Weighted>
-0.0000

> <Gold.Chemscore.Lipo.Weighted>
-9.2886

> <Gold.Chemscore.Internal_Hbond.Weighted>
0.0000

> <Gold.Chemscore.DEClash.Weighted>
0.0071

> <Gold.Chemscore.DEInternal.Weighted>
0.5847

> <Gold.Chemscore.Rot.Weighted>
4.8592

> <Gold.Chemscore.Internal.Correction.Weighted>
   9.000000E+99

> <Gold.Protein.RotatedTorsions>
[ 6907 6896 6895 6894 ] final   60.55 input  -60.11 | X-H torsion
[ 7974 7965 7964 7962 ] final  -85.03 input  175.53 | X-H torsion
[ 8008 7997 7996 7995 ] final  107.30 input   59.86 | X-H torsion
[ 10167 10162 10161 10158 ] final  112.36 input  -65.29 | X-H torsion
[ 10718 10713 10712 10709 ] final  -10.62 input   66.30 | X-H torsion
[ 10763 10752 10751 10750 ] final   36.46 input  -60.55 | X-H torsion
[ 11005 11000 10999 10996 ] final -174.97 input  -57.11 | X-H torsion

> <Gold.Protein.ActiveResidues>
 VAL166  LYS551  ARG553  GLY616  TRP617  ASP618  TYR619  PRO620  LYS621  CYS622 
 ASP623  PHE694  ASN695  SER759  ASP760  ASP761  ALA762  ILE779  LEU786  VAL792 
 PHE793  MET794  SER795  GLU796  ALA797  LYS798  CYS799  TRP800  GLU811  SER814 

> <Gold.Protein.RotatedAtoms>
  152.4013  134.6282  160.0068 H   0  0  0  0  0  0  0  0  0  0  0  0  # atno 6907 bound_to 6896
  151.6486  133.3316  159.3154 H   0  0  0  0  0  0  0  0  0  0  0  0  # atno 6908 bound_to 6896
  150.7913  134.6981  159.6579 H   0  0  0  0  0  0  0  0  0  0  0  0  # atno 6909 bound_to 6896
  145.4987  140.9548  143.1772 H   0  0  0  0  0  0  0  0  0  0  0  0  # atno 7974 bound_to 7965
  156.1813  140.3097  155.9154 H   0  0  0  0  0  0  0  0  0  0  0  0  # atno 8008 bound_to 7997
  155.3378  140.0464  157.3061 H   0  0  0  0  0  0  0  0  0  0  0  0  # atno 8009 bound_to 7997
  154.5346  140.2241  155.8755 H   0  0  0  0  0  0  0  0  0  0  0  0  # atno 8010 bound_to 7997
  139.6541  144.7129  151.1991 H   0  0  0  0  0  0  0  0  0  0  0  0  # atno 10167 bound_to 10162
  156.6709  130.5009  149.6000 H   0  0  0  0  0  0  0  0  0  0  0  0  # atno 10718 bound_to 10713
  153.0076  135.6305  154.1989 H   0  0  0  0  0  0  0  0  0  0  0  0  # atno 10763 bound_to 10752
  154.1732  135.2817  155.3076 H   0  0  0  0  0  0  0  0  0  0  0  0  # atno 10764 bound_to 10752
  154.5892  135.5623  153.7321 H   0  0  0  0  0  0  0  0  0  0  0  0  # atno 10765 bound_to 10752
  140.4685  134.6187  157.4872 H   0  0  0  0  0  0  0  0  0  0  0  0  # atno 11005 bound_to 11000
  144.7792  139.6562  143.7161 LP  0  0  0  0  0  0  0  0  0  0  0  0  # atno 17320 bound_to 7965
  146.2240  139.5687  142.9600 LP  0  0  0  0  0  0  0  0  0  0  0  0  # atno 17321 bound_to 7965
  140.7551  143.6101  150.8614 LP  0  0  0  0  0  0  0  0  0  0  0  0  # atno 17342 bound_to 10162
  139.9752  143.6012  152.2961 LP  0  0  0  0  0  0  0  0  0  0  0  0  # atno 17343 bound_to 10162
  156.1939  130.6577  151.1093 LP  0  0  0  0  0  0  0  0  0  0  0  0  # atno 17370 bound_to 10713
  157.7077  131.0748  150.6609 LP  0  0  0  0  0  0  0  0  0  0  0  0  # atno 17371 bound_to 10713
  139.9900  134.7000  155.9706 LP  0  0  0  0  0  0  0  0  0  0  0  0  # atno 17394 bound_to 11000
  141.1588  133.6540  156.4249 LP  0  0  0  0  0  0  0  0  0  0  0  0  # atno 17395 bound_to 11000

$$$$
