AV-unprocessed.smi:1139|AV-procd|sdf|4870|dock4
  -GOLD-   22720 3443D 1   1.00000     0.00000
 Structure written by MMmdl.
 43 44  0  0  0  0  0  0  0  0  2 V2000
  147.2918  142.1026  154.3602 C   0  0  0  0  0  0  0  0  0  0  0  0
  148.3269  141.0443  154.6129 C   0  0  0  0  0  0  0  0  0  0  0  0
  149.3781  141.3325  155.3614 N   0  0  0  0  0  0  0  0  0  0  0  0
  150.1517  140.1686  155.4008 O   0  0  0  0  0  0  0  0  0  0  0  0
  149.5296  139.2148  154.6621 C   0  0  0  0  0  0  0  0  0  0  0  0
  150.2048  137.8882  154.5715 C   0  0  0  0  0  0  0  0  0  0  0  0
  148.3660  139.7026  154.1341 C   0  0  0  0  0  0  0  0  0  0  0  0
  147.3697  138.9943  153.2529 C   0  0  0  0  0  0  0  0  0  0  0  0
  146.7025  137.8671  154.0403 C   0  0  0  0  0  0  0  0  0  0  0  0
  145.8834  138.1299  154.9205 O   0  0  0  0  0  0  0  0  0  0  0  0
  147.0699  136.6166  153.7262 N   0  0  0  0  0  0  0  0  0  0  0  0
  146.5828  135.4219  154.4044 C   0  0  0  0  0  0  0  0  0  0  0  0
  146.8876  134.1318  153.6040 C   0  0  1  0  0  0  0  0  0  0  0  0
  145.9277  132.9910  154.0116 C   0  0  0  0  0  0  0  0  0  0  0  0
  146.8193  134.3744  152.1333 N   0  3  0  0  0  0  0  0  0  0  0  0
  147.0243  133.1890  151.2720 C   0  0  0  0  0  0  0  0  0  0  0  0
  146.4358  133.5757  149.9205 C   0  0  0  0  0  0  0  0  0  0  0  0
  145.2164  134.4062  150.3022 C   0  0  0  0  0  0  0  0  0  0  0  0
  145.5757  135.0327  151.6567 C   0  0  0  0  0  0  0  0  0  0  0  0
  147.5420  142.6838  153.4727 H   0  0  0  0  0  0  0  0  0  0  0  0
  147.2135  142.7943  155.1999 H   0  0  0  0  0  0  0  0  0  0  0  0
  146.3065  141.6637  154.2037 H   0  0  0  0  0  0  0  0  0  0  0  0
  150.2847  137.5671  153.5329 H   0  0  0  0  0  0  0  0  0  0  0  0
  149.6412  137.1315  155.1171 H   0  0  0  0  0  0  0  0  0  0  0  0
  151.2106  137.9282  154.9902 H   0  0  0  0  0  0  0  0  0  0  0  0
  146.5954  139.6770  152.9007 H   0  0  0  0  0  0  0  0  0  0  0  0
  147.8450  138.5921  152.3575 H   0  0  0  0  0  0  0  0  0  0  0  0
  147.7470  136.4887  152.9881 H   0  0  0  0  0  0  0  0  0  0  0  0
  147.0376  135.3630  155.3948 H   0  0  0  0  0  0  0  0  0  0  0  0
  145.5089  135.5438  154.5514 H   0  0  0  0  0  0  0  0  0  0  0  0
  147.9070  133.8212  153.8403 H   0  0  0  0  0  0  0  0  0  0  0  0
  146.0054  132.7591  155.0736 H   0  0  0  0  0  0  0  0  0  0  0  0
  146.1405  132.0625  153.4827 H   0  0  0  0  0  0  0  0  0  0  0  0
  144.8901  133.2573  153.8074 H   0  0  0  0  0  0  0  0  0  0  0  0
  148.0774  132.9172  151.1929 H   0  0  0  0  0  0  0  0  0  0  0  0
  146.4791  132.3363  151.6807 H   0  0  0  0  0  0  0  0  0  0  0  0
  147.1471  134.1921  149.3687 H   0  0  0  0  0  0  0  0  0  0  0  0
  146.1866  132.7126  149.3025 H   0  0  0  0  0  0  0  0  0  0  0  0
  144.9689  135.1527  149.5470 H   0  0  0  0  0  0  0  0  0  0  0  0
  144.3501  133.7536  150.4180 H   0  0  0  0  0  0  0  0  0  0  0  0
  144.7496  134.8896  152.3551 H   0  0  0  0  0  0  0  0  0  0  0  0
  145.7506  136.1051  151.5639 H   0  0  0  0  0  0  0  0  0  0  0  0
  147.5724  135.0078  151.9049 H   0  0  0  0  0  0  0  0  0  0  0  0
  1  2  1  0  0  0  0
  1 20  1  0  0  0  0
  1 21  1  0  0  0  0
  1 22  1  0  0  0  0
  2  7  1  0  0  0  0
  2  3  2  0  0  0  0
  3  4  1  0  0  0  0
  4  5  1  0  0  0  0
  5  6  1  0  0  0  0
  5  7  2  0  0  0  0
  6 23  1  0  0  0  0
  6 24  1  0  0  0  0
  6 25  1  0  0  0  0
  7  8  1  0  0  0  0
  8  9  1  0  0  0  0
  8 26  1  0  0  0  0
  8 27  1  0  0  0  0
  9 10  2  0  0  0  0
  9 11  1  0  0  0  0
 11 12  1  0  0  0  0
 11 28  1  0  0  0  0
 12 13  1  0  0  0  0
 12 29  1  0  0  0  0
 12 30  1  0  0  0  0
 13 14  1  0  0  0  0
 13 15  1  0  0  0  0
 13 31  1  0  0  0  0
 14 32  1  0  0  0  0
 14 33  1  0  0  0  0
 14 34  1  0  0  0  0
 15 19  1  0  0  0  0
 15 16  1  0  0  0  0
 15 43  1  0  0  0  0
 16 17  1  0  0  0  0
 16 35  1  0  0  0  0
 16 36  1  0  0  0  0
 17 18  1  0  0  0  0
 17 37  1  0  0  0  0
 17 38  1  0  0  0  0
 18 19  1  0  0  0  0
 18 39  1  0  0  0  0
 18 40  1  0  0  0  0
 19 41  1  0  0  0  0
 19 42  1  0  0  0  0
M  CHG  1  15   1
M  END
> <s_m_source_file>
AV-unprocessed.smi

> <i_m_source_file_index>
1139

> <i_lp_mmshare_version>
43012

> <i_f3d_flags>
0

> <s_epik_input>
W0NIM11jMW5vYyhbQ0gzXSljMVtDSDJdQyg9TylbTkhdW0NIMl1bQ0BIXShbQ0gzXSlOMltDSDJdW0NIMl1bQ0gyXVtDSDJdMg==

> <s_epik_cmdline>
J2VwaWtfcHl0aG9uJywgJy1waCcsICc3LjAnLCAnLXRuJywgJzgnLCAnLW1hJywgJzIwMCcsICctbWV0YWxfYmluZGluZycsICctaW1hZScsICc8aW5maWxlLm1hZT4nLCAnLW9tYWUnLCAnPG91dGZpbGUubWFlPic=

> <r_epik_Ionization_Penalty>
0.0050436

> <r_epik_Ionization_Penalty_Charging>
0.0050435

> <r_epik_Ionization_Penalty_Neutral>
9.69799e-08

> <r_epik_State_Penalty>
0.00366867

> <r_epik_Charging_Adjusted_Penalty>
0.00871217

> <i_epik_Tot_Q>
1

> <i_epik_Tot_abs_Q>
1

> <r_epik_Metal_State_Penalty>
-0

> <b_epik_Metal_Only>
0

> <s_lp_Force_Field>
OPLS_2005

> <r_lp_Energy>
24.7849

> <b_lp_Chiralities_Consistent>
1

> <s_lp_Variant>
AV-unprocessed.smi:1139-2

> <Gold.Version>
5.8.1

> <Gold.Id.Protein>
6NUR|6NUR_protein|mol2

> <Gold.PLP.Fitness>
41.1207

> <Gold.PLP.PLP>
-30.3173

> <Gold.PLP.part.hbond>
-3.6207

> <Gold.PLP.part.metal>
0.0000

> <Gold.PLP.part.buried>
-1.8272

> <Gold.PLP.part.nonpolar>
-25.0502

> <Gold.PLP.part.repulsive>
0.2880

> <Gold.PLP.ligand.clash>
0.0000

> <Gold.PLP.ligand.torsion>
0.6038

> <Gold.PLP.Chemscore.Hbond>
3.9920

> <Gold.PLP.Chemscore.CHOScore>
0.0000

> <Gold.PLP.Chemscore.Metal>
0.0000

> <Gold.Chemscore.Hbonds>
donor molecule, donor type, donor heavy atom, donor atom, acceptor molecule, acceptor atom, score
      L1  H    11    28       P1  7948  1.00
      L1  H    15    43       P1  7948  2.00

> <Gold.PLP.Chemscore.Internal.Correction>
0.0349

> <Gold.Rescore>
     Score         DG    S(hbond)    S(metal)    S(lipo)     H(rot)  DE(clash)    DE(int)     intcor
     15.25     -15.76       1.88        0.00      71.80       1.72       0.02       0.49       ----

> <Gold.Chemscore.Fitness>
15.2458

> <Gold.Chemscore.DG>
-15.7595

> <Gold.Chemscore.ZeroCoef>
-5.4800

> <Gold.Chemscore.Hbond>
1.8804

> <Gold.Chemscore.Metal>
0.0000

> <Gold.Chemscore.Lipo>
71.8018

> <Gold.Chemscore.Internal_Hbond>
0.0000

> <Gold.Chemscore.DEClash>
0.0202

> <Gold.Chemscore.DEInternal>
0.4935

> <Gold.Chemscore.Rot>
1.7195

> <Gold.Chemscore.Internal.Correction>
   9.000000E+99

> <Gold.Chemscore.Hbonds>
donor molecule, donor type, donor heavy atom, donor atom, acceptor molecule, acceptor atom, score
      L1  H    11    28       P1  7948  1.00
      L1  H    15    43       P1  7948  0.82

> <Gold.Chemscore.Hbond.Weighted>
-6.2805

> <Gold.Chemscore.Metal.Weighted>
-0.0000

> <Gold.Chemscore.Lipo.Weighted>
-8.4008

> <Gold.Chemscore.Internal_Hbond.Weighted>
0.0000

> <Gold.Chemscore.DEClash.Weighted>
0.0202

> <Gold.Chemscore.DEInternal.Weighted>
0.4935

> <Gold.Chemscore.Rot.Weighted>
4.4018

> <Gold.Chemscore.Internal.Correction.Weighted>
   9.000000E+99

> <Gold.Protein.RotatedTorsions>
[ 6907 6896 6895 6894 ] final    4.92 input  -60.11 | X-H torsion
[ 7974 7965 7964 7962 ] final  -31.08 input  175.53 | X-H torsion
[ 8008 7997 7996 7995 ] final  -74.91 input   59.86 | X-H torsion
[ 10167 10162 10161 10158 ] final  132.81 input  -65.29 | X-H torsion
[ 10718 10713 10712 10709 ] final -165.18 input   66.30 | X-H torsion
[ 10763 10752 10751 10750 ] final  109.75 input  -60.55 | X-H torsion
[ 11005 11000 10999 10996 ] final -170.52 input  -57.11 | X-H torsion

> <Gold.Protein.ActiveResidues>
 VAL166  LYS551  ARG553  GLY616  TRP617  ASP618  TYR619  PRO620  LYS621  CYS622 
 ASP623  PHE694  ASN695  SER759  ASP760  ASP761  ALA762  ILE779  LEU786  VAL792 
 PHE793  MET794  SER795  GLU796  ALA797  LYS798  CYS799  TRP800  GLU811  SER814 

> <Gold.Protein.RotatedAtoms>
  151.6492  135.1003  160.0156 H   0  0  0  0  0  0  0  0  0  0  0  0  # atno 6907 bound_to 6896
  152.4011  133.6814  159.6325 H   0  0  0  0  0  0  0  0  0  0  0  0  # atno 6908 bound_to 6896
  150.7910  133.8707  159.3299 H   0  0  0  0  0  0  0  0  0  0  0  0  # atno 6909 bound_to 6896
  146.1095  140.5622  142.8784 H   0  0  0  0  0  0  0  0  0  0  0  0  # atno 7974 bound_to 7965
  154.5371  140.0753  156.8447 H   0  0  0  0  0  0  0  0  0  0  0  0  # atno 8008 bound_to 7997
  155.3255  140.3398  155.4222 H   0  0  0  0  0  0  0  0  0  0  0  0  # atno 8009 bound_to 7997
  156.1839  140.1662  156.8209 H   0  0  0  0  0  0  0  0  0  0  0  0  # atno 8010 bound_to 7997
  139.5323  144.6645  151.4906 H   0  0  0  0  0  0  0  0  0  0  0  0  # atno 10167 bound_to 10162
  156.6497  130.9002  151.3011 H   0  0  0  0  0  0  0  0  0  0  0  0  # atno 10718 bound_to 10713
  153.4392  135.3770  155.2218 H   0  0  0  0  0  0  0  0  0  0  0  0  # atno 10763 bound_to 10752
  154.8753  135.3859  154.4173 H   0  0  0  0  0  0  0  0  0  0  0  0  # atno 10764 bound_to 10752
  153.4716  135.7087  153.6053 H   0  0  0  0  0  0  0  0  0  0  0  0  # atno 10765 bound_to 10752
  140.5186  134.5731  157.5041 H   0  0  0  0  0  0  0  0  0  0  0  0  # atno 11005 bound_to 11000
  144.7499  140.5164  143.6809 LP  0  0  0  0  0  0  0  0  0  0  0  0  # atno 17320 bound_to 7965
  145.5693  139.1483  143.3297 LP  0  0  0  0  0  0  0  0  0  0  0  0  # atno 17321 bound_to 7965
  140.6509  143.8698  150.6785 LP  0  0  0  0  0  0  0  0  0  0  0  0  # atno 17342 bound_to 10162
  140.2062  143.3920  152.1753 LP  0  0  0  0  0  0  0  0  0  0  0  0  # atno 17343 bound_to 10162
  157.7145  130.9480  150.1205 LP  0  0  0  0  0  0  0  0  0  0  0  0  # atno 17370 bound_to 10713
  156.2094  130.3665  149.8689 LP  0  0  0  0  0  0  0  0  0  0  0  0  # atno 17371 bound_to 10713
  139.9618  134.7439  156.0220 LP  0  0  0  0  0  0  0  0  0  0  0  0  # atno 17394 bound_to 11000
  141.1346  133.6578  156.3559 LP  0  0  0  0  0  0  0  0  0  0  0  0  # atno 17395 bound_to 11000

$$$$
