AV-unprocessed.smi:3145|AV-procd|sdf|11982|dock3
  -GOLD-   2272017383D 1   1.00000     0.00000
 Structure written by MMmdl.
 34 34  0  0  0  0  0  0  0  0  1 V2000
  145.4739  136.0797  150.2752 C   0  0  0  0  0  0  0  0  0  0  0  0
  145.1898  136.2206  151.7772 C   0  0  1  0  0  0  0  0  0  0  0  0
  144.9015  134.8438  152.4172 C   0  0  0  0  0  0  0  0  0  0  0  0
  145.1812  133.7279  151.5304 N   0  0  0  0  0  0  0  0  0  0  0  0
  144.2838  132.9227  150.8608 C   0  0  0  0  0  0  0  0  0  0  0  0
  145.0087  132.0064  150.1541 C   0  0  0  0  0  0  0  0  0  0  0  0
  146.3589  132.3389  150.4551 C   0  0  0  0  0  0  0  0  0  0  0  0
  146.4597  133.3695  151.2788 N   0  0  0  0  0  0  0  0  0  0  0  0
  146.3678  136.8269  152.3895 N   0  0  0  0  0  0  0  0  0  0  0  0
  146.5536  138.2255  151.9830 C   0  0  0  0  0  0  0  0  0  0  0  0
  147.2703  139.0266  153.0656 C   0  0  0  0  0  0  0  0  0  0  0  0
  146.7318  140.0137  153.5657 O   0  0  0  0  0  0  0  0  0  0  0  0
  148.4861  138.5863  153.4198 N   0  0  0  0  0  0  0  0  0  0  0  0
  149.3297  139.2114  154.4285 C   0  0  0  0  0  0  0  0  0  0  0  0
  150.7190  138.5633  154.4581 C   0  0  0  0  0  0  0  0  0  0  0  0
  151.6655  139.2604  155.3427 C   0  0  0  0  0  0  0  0  0  0  0  0
  152.4095  139.8089  156.0385 N   0  0  0  0  0  0  0  0  0  0  0  0
  144.6216  135.6396  149.7568 H   0  0  0  0  0  0  0  0  0  0  0  0
  146.3393  135.4423  150.0890 H   0  0  0  0  0  0  0  0  0  0  0  0
  145.6684  137.0501  149.8170 H   0  0  0  0  0  0  0  0  0  0  0  0
  144.3189  136.8700  151.8865 H   0  0  0  0  0  0  0  0  0  0  0  0
  145.5176  134.7152  153.3081 H   0  0  0  0  0  0  0  0  0  0  0  0
  143.8641  134.7847  152.7521 H   0  0  0  0  0  0  0  0  0  0  0  0
  143.2166  133.0656  150.9456 H   0  0  0  0  0  0  0  0  0  0  0  0
  144.6325  131.2192  149.5177 H   0  0  0  0  0  0  0  0  0  0  0  0
  147.2621  131.8658  150.1004 H   0  0  0  0  0  0  0  0  0  0  0  0
  147.1843  136.2759  152.1656 H   0  0  0  0  0  0  0  0  0  0  0  0
  147.1233  138.2628  151.0534 H   0  0  0  0  0  0  0  0  0  0  0  0
  145.5934  138.7027  151.7877 H   0  0  0  0  0  0  0  0  0  0  0  0
  148.8496  137.7681  152.9514 H   0  0  0  0  0  0  0  0  0  0  0  0
  149.4271  140.2743  154.2032 H   0  0  0  0  0  0  0  0  0  0  0  0
  148.8565  139.1321  155.4083 H   0  0  0  0  0  0  0  0  0  0  0  0
  150.6522  137.5232  154.7786 H   0  0  0  0  0  0  0  0  0  0  0  0
  151.1500  138.5634  153.4569 H   0  0  0  0  0  0  0  0  0  0  0  0
  1  2  1  0  0  0  0
  1 18  1  0  0  0  0
  1 19  1  0  0  0  0
  1 20  1  0  0  0  0
  2  3  1  0  0  0  0
  2  9  1  0  0  0  0
  2 21  1  0  0  0  0
  3  4  1  0  0  0  0
  3 22  1  0  0  0  0
  3 23  1  0  0  0  0
  4  8  1  0  0  0  0
  4  5  1  0  0  0  0
  5  6  2  0  0  0  0
  5 24  1  0  0  0  0
  6  7  1  0  0  0  0
  6 25  1  0  0  0  0
  7  8  2  0  0  0  0
  7 26  1  0  0  0  0
  9 10  1  0  0  0  0
  9 27  1  0  0  0  0
 10 11  1  0  0  0  0
 10 28  1  0  0  0  0
 10 29  1  0  0  0  0
 11 12  2  0  0  0  0
 11 13  1  0  0  0  0
 13 14  1  0  0  0  0
 13 30  1  0  0  0  0
 14 15  1  0  0  0  0
 14 31  1  0  0  0  0
 14 32  1  0  0  0  0
 15 16  1  0  0  0  0
 15 33  1  0  0  0  0
 15 34  1  0  0  0  0
 16 17  3  0  0  0  0
M  END
> <s_m_source_file>
AV-unprocessed.smi

> <i_m_source_file_index>
3145

> <i_lp_mmshare_version>
43012

> <i_f3d_flags>
0

> <s_epik_input>
bjFbY0hdW2NIXVtjSF1uMVtDSDJdW0NAQEhdKFtDSDNdKVtOSF1bQ0gyXUMoPU8pW05IXVtDSDJdW0NIMl1DI04=

> <s_epik_cmdline>
J2VwaWtfcHl0aG9uJywgJy1waCcsICc3LjAnLCAnLXRuJywgJzgnLCAnLW1hJywgJzIwMCcsICctbWV0YWxfYmluZGluZycsICctaW1hZScsICc8aW5maWxlLm1hZT4nLCAnLW9tYWUnLCAnPG91dGZpbGUubWFlPic=

> <r_lp_tautomer_probability>
1

> <r_epik_Ionization_Penalty>
0.765991

> <r_epik_Ionization_Penalty_Charging>
0

> <r_epik_Ionization_Penalty_Neutral>
0.765991

> <r_epik_State_Penalty>
0.794192

> <r_epik_Charging_Adjusted_Penalty>
0.794192

> <i_epik_Tot_Q>
0

> <i_epik_Tot_abs_Q>
0

> <r_epik_Metal_State_Penalty>
0.806127

> <b_epik_Metal_Only>
0

> <s_lp_Force_Field>
OPLS_2005

> <r_lp_Energy>
5.51507

> <b_lp_Chiralities_Consistent>
1

> <s_lp_Variant>
AV-unprocessed.smi:3145-4

> <Gold.Version>
5.8.1

> <Gold.Id.Protein>
6NUR|6NUR_protein|mol2

> <Gold.PLP.Fitness>
46.2347

> <Gold.PLP.PLP>
-33.7041

> <Gold.PLP.part.hbond>
-4.0000

> <Gold.PLP.part.metal>
0.0000

> <Gold.PLP.part.buried>
1.1304

> <Gold.PLP.part.nonpolar>
-30.8579

> <Gold.PLP.part.repulsive>
0.4130

> <Gold.PLP.ligand.clash>
0.0000

> <Gold.PLP.ligand.torsion>
1.1251

> <Gold.PLP.Chemscore.Hbond>
2.8960

> <Gold.PLP.Chemscore.CHOScore>
1.9861

> <Gold.PLP.Chemscore.Metal>
0.0000

> <Gold.Chemscore.Hbonds>
donor molecule, donor type, donor heavy atom, donor atom, acceptor molecule, acceptor atom, score
      L1  H     9    27       P1  7948  0.98
      L1  H    13    30       P1  7948  1.00
      P1  H  7997  8010       L1    17  1.00
      L1  C     7    26       P1 10747  0.89

> <Gold.PLP.Chemscore.Internal.Correction>
0.1345

> <Gold.Rescore>
     Score         DG    S(hbond)    S(metal)    S(lipo)     H(rot)  DE(clash)    DE(int)     intcor
     13.62     -16.13       2.88        0.00      70.06       2.80       1.72       0.79       ----

> <Gold.Chemscore.Fitness>
13.6172

> <Gold.Chemscore.DG>
-16.1342

> <Gold.Chemscore.ZeroCoef>
-5.4800

> <Gold.Chemscore.Hbond>
2.8824

> <Gold.Chemscore.Metal>
0.0000

> <Gold.Chemscore.Lipo>
70.0561

> <Gold.Chemscore.Internal_Hbond>
0.0000

> <Gold.Chemscore.DEClash>
1.7246

> <Gold.Chemscore.DEInternal>
0.7925

> <Gold.Chemscore.Rot>
2.8006

> <Gold.Chemscore.Internal.Correction>
   9.000000E+99

> <Gold.Chemscore.Hbonds>
donor molecule, donor type, donor heavy atom, donor atom, acceptor molecule, acceptor atom, score
      L1  H     9    27       P1  7948  0.93
      L1  H    13    30       P1  7948  1.00
      P1  H  7997  8010       L1    17  0.96

> <Gold.Chemscore.Hbond.Weighted>
-9.6273

> <Gold.Chemscore.Metal.Weighted>
-0.0000

> <Gold.Chemscore.Lipo.Weighted>
-8.1966

> <Gold.Chemscore.Internal_Hbond.Weighted>
0.0000

> <Gold.Chemscore.DEClash.Weighted>
1.7246

> <Gold.Chemscore.DEInternal.Weighted>
0.7925

> <Gold.Chemscore.Rot.Weighted>
7.1696

> <Gold.Chemscore.Internal.Correction.Weighted>
   9.000000E+99

> <Gold.Protein.RotatedTorsions>
[ 6907 6896 6895 6894 ] final -122.75 input  -60.11 | X-H torsion
[ 7974 7965 7964 7962 ] final  -68.74 input  175.53 | X-H torsion
[ 8008 7997 7996 7995 ] final   91.97 input   59.86 | X-H torsion
[ 10167 10162 10161 10158 ] final   25.18 input  -65.29 | X-H torsion
[ 10718 10713 10712 10709 ] final -159.31 input   66.30 | X-H torsion
[ 10763 10752 10751 10750 ] final  -67.64 input  -60.55 | X-H torsion
[ 11005 11000 10999 10996 ] final  -24.04 input  -57.11 | X-H torsion

> <Gold.Protein.ActiveResidues>
 VAL166  LYS551  ARG553  GLY616  TRP617  ASP618  TYR619  PRO620  LYS621  CYS622 
 ASP623  PHE694  ASN695  SER759  ASP760  ASP761  ALA762  ILE779  LEU786  VAL792 
 PHE793  MET794  SER795  GLU796  ALA797  LYS798  CYS799  TRP800  GLU811  SER814 

> <Gold.Protein.RotatedAtoms>
  150.8605  133.7650  159.2993 H   0  0  0  0  0  0  0  0  0  0  0  0  # atno 6907 bound_to 6896
  151.5294  135.1066  159.9908 H   0  0  0  0  0  0  0  0  0  0  0  0  # atno 6908 bound_to 6896
  152.4623  133.7804  159.6903 H   0  0  0  0  0  0  0  0  0  0  0  0  # atno 6909 bound_to 6896
  145.7127  140.9072  143.0672 H   0  0  0  0  0  0  0  0  0  0  0  0  # atno 7974 bound_to 7965
  156.0299  140.3331  155.7128 H   0  0  0  0  0  0  0  0  0  0  0  0  # atno 8008 bound_to 7997
  155.5900  140.0645  157.2779 H   0  0  0  0  0  0  0  0  0  0  0  0  # atno 8009 bound_to 7997
  154.4349  140.1829  156.1053 H   0  0  0  0  0  0  0  0  0  0  0  0  # atno 8010 bound_to 7997
  140.5127  144.0133  150.6380 H   0  0  0  0  0  0  0  0  0  0  0  0  # atno 10167 bound_to 10162
  156.5663  130.8669  151.2824 H   0  0  0  0  0  0  0  0  0  0  0  0  # atno 10718 bound_to 10713
  154.3774  135.6081  153.5772 H   0  0  0  0  0  0  0  0  0  0  0  0  # atno 10763 bound_to 10752
  152.9789  135.5852  154.4450 H   0  0  0  0  0  0  0  0  0  0  0  0  # atno 10764 bound_to 10752
  154.4214  135.2846  155.1951 H   0  0  0  0  0  0  0  0  0  0  0  0  # atno 10765 bound_to 10752
  140.8808  133.7655  156.0300 H   0  0  0  0  0  0  0  0  0  0  0  0  # atno 11005 bound_to 11000
  144.6937  139.9096  143.7463 LP  0  0  0  0  0  0  0  0  0  0  0  0  # atno 17320 bound_to 7965
  146.0698  139.3687  143.0530 LP  0  0  0  0  0  0  0  0  0  0  0  0  # atno 17321 bound_to 7965
  140.3460  143.2991  152.0537 LP  0  0  0  0  0  0  0  0  0  0  0  0  # atno 17342 bound_to 10162
  139.4900  144.6408  151.6881 LP  0  0  0  0  0  0  0  0  0  0  0  0  # atno 17343 bound_to 10162
  157.7358  130.9768  150.2100 LP  0  0  0  0  0  0  0  0  0  0  0  0  # atno 17370 bound_to 10713
  156.2754  130.3727  149.7989 LP  0  0  0  0  0  0  0  0  0  0  0  0  # atno 17371 bound_to 10713
  140.8463  134.3007  157.5293 LP  0  0  0  0  0  0  0  0  0  0  0  0  # atno 17394 bound_to 11000
  139.8719  134.9443  156.3878 LP  0  0  0  0  0  0  0  0  0  0  0  0  # atno 17395 bound_to 11000

$$$$
