AV-unprocessed.smi:2667|AV-procd|sdf|10335|dock6
  -GOLD-   2272014353D 1   1.00000     0.00000
 Structure written by MMmdl.
 44 46  0  0  0  0  0  0  0  0  1 V2000
  142.4745  146.6057  155.4413 C   0  0  0  0  0  0  0  0  0  0  0  0
  142.5975  145.1328  155.0202 C   0  0  0  0  0  0  0  0  0  0  0  0
  143.7038  144.8695  153.9868 C   0  0  0  0  0  0  0  0  0  0  0  0
  143.7167  145.5015  152.9295 O   0  0  0  0  0  0  0  0  0  0  0  0
  144.7225  143.8327  154.3226 C   0  0  0  0  0  0  0  0  0  0  0  0
  144.7887  143.2363  155.6033 C   0  0  0  0  0  0  0  0  0  0  0  0
  145.7600  142.2571  155.8856 C   0  0  0  0  0  0  0  0  0  0  0  0
  146.6844  141.8486  154.9045 C   0  0  0  0  0  0  0  0  0  0  0  0
  147.5923  140.8764  155.2655 O   0  0  0  0  0  0  0  0  0  0  0  0
  148.8216  140.8078  154.5554 C   0  0  0  0  0  0  0  0  0  0  0  0
  149.9707  141.1326  155.5271 C   0  0  1  0  0  0  0  0  0  0  0  0
  149.8125  142.4646  155.9699 O   0  0  0  0  0  0  0  0  0  0  0  0
  149.9948  140.2393  156.7832 C   0  0  0  0  0  0  0  0  0  0  0  0
  151.2526  140.3138  157.5044 N   0  0  0  0  0  0  0  0  0  0  0  0
  152.2498  139.4089  157.4848 C   0  0  0  0  0  0  0  0  0  0  0  0
  153.3262  139.6718  158.2203 N   0  0  0  0  0  0  0  0  0  0  0  0
  152.9898  140.8916  158.7817 C   0  0  0  0  0  0  0  0  0  0  0  0
  153.7097  141.7215  159.6707 C   0  0  0  0  0  0  0  0  0  0  0  0
  153.1564  142.9399  160.1168 C   0  0  0  0  0  0  0  0  0  0  0  0
  151.8778  143.3463  159.6829 C   0  0  0  0  0  0  0  0  0  0  0  0
  151.1419  142.5364  158.7968 C   0  0  0  0  0  0  0  0  0  0  0  0
  151.6980  141.3223  158.3527 C   0  0  0  0  0  0  0  0  0  0  0  0
  146.6267  142.4521  153.6243 C   0  0  0  0  0  0  0  0  0  0  0  0
  145.6570  143.4330  153.3407 C   0  0  0  0  0  0  0  0  0  0  0  0
  141.6626  146.7321  156.1573 H   0  0  0  0  0  0  0  0  0  0  0  0
  142.2614  147.2479  154.5858 H   0  0  0  0  0  0  0  0  0  0  0  0
  143.3894  146.9636  155.9148 H   0  0  0  0  0  0  0  0  0  0  0  0
  142.7908  144.5202  155.9011 H   0  0  0  0  0  0  0  0  0  0  0  0
  141.6465  144.8017  154.6024 H   0  0  0  0  0  0  0  0  0  0  0  0
  144.1031  143.5136  156.3898 H   0  0  0  0  0  0  0  0  0  0  0  0
  145.7930  141.8106  156.8687 H   0  0  0  0  0  0  0  0  0  0  0  0
  148.9717  139.8286  154.0972 H   0  0  0  0  0  0  0  0  0  0  0  0
  148.7847  141.5481  153.7561 H   0  0  0  0  0  0  0  0  0  0  0  0
  150.9272  141.0461  155.0096 H   0  0  0  0  0  0  0  0  0  0  0  0
  149.2603  142.9203  155.3530 H   0  0  0  0  0  0  0  0  0  0  0  0
  149.1970  140.5308  157.4680 H   0  0  0  0  0  0  0  0  0  0  0  0
  149.8069  139.1990  156.5143 H   0  0  0  0  0  0  0  0  0  0  0  0
  152.1801  138.5051  156.8972 H   0  0  0  0  0  0  0  0  0  0  0  0
  154.6897  141.4203  160.0097 H   0  0  0  0  0  0  0  0  0  0  0  0
  153.7164  143.5658  160.7961 H   0  0  0  0  0  0  0  0  0  0  0  0
  151.4621  144.2807  160.0307 H   0  0  0  0  0  0  0  0  0  0  0  0
  150.1616  142.8441  158.4643 H   0  0  0  0  0  0  0  0  0  0  0  0
  147.3162  142.1803  152.8396 H   0  0  0  0  0  0  0  0  0  0  0  0
  145.6382  143.8716  152.3535 H   0  0  0  0  0  0  0  0  0  0  0  0
  1  2  1  0  0  0  0
  1 25  1  0  0  0  0
  1 26  1  0  0  0  0
  1 27  1  0  0  0  0
  2  3  1  0  0  0  0
  2 28  1  0  0  0  0
  2 29  1  0  0  0  0
  3  4  2  0  0  0  0
  3  5  1  0  0  0  0
  5 24  1  0  0  0  0
  5  6  2  0  0  0  0
  6  7  1  0  0  0  0
  6 30  1  0  0  0  0
  7  8  2  0  0  0  0
  7 31  1  0  0  0  0
  8  9  1  0  0  0  0
  8 23  1  0  0  0  0
  9 10  1  0  0  0  0
 10 11  1  0  0  0  0
 10 32  1  0  0  0  0
 10 33  1  0  0  0  0
 11 12  1  0  0  0  0
 11 13  1  0  0  0  0
 11 34  1  0  0  0  0
 12 35  1  0  0  0  0
 13 14  1  0  0  0  0
 13 36  1  0  0  0  0
 13 37  1  0  0  0  0
 14 22  1  0  0  0  0
 14 15  1  0  0  0  0
 15 16  2  0  0  0  0
 15 38  1  0  0  0  0
 16 17  1  0  0  0  0
 17 22  2  0  0  0  0
 17 18  1  0  0  0  0
 18 19  2  0  0  0  0
 18 39  1  0  0  0  0
 19 20  1  0  0  0  0
 19 40  1  0  0  0  0
 20 21  2  0  0  0  0
 20 41  1  0  0  0  0
 21 22  1  0  0  0  0
 21 42  1  0  0  0  0
 23 24  2  0  0  0  0
 23 43  1  0  0  0  0
 24 44  1  0  0  0  0
M  END
> <s_m_source_file>
AV-unprocessed.smi

> <i_m_source_file_index>
2667

> <i_lp_mmshare_version>
43012

> <i_f3d_flags>
0

> <s_epik_input>
W0NIM11bQ0gyXUMoPU8pYzFbY0hdW2NIXWMoW2NIXVtjSF0xKU9bQ0gyXVtDQEhdKFtPSF0pW0NIMl1uKFtjSF1uMiljKGMyMylbY0hdW2NIXVtjSF1bY0hdMw==

> <s_epik_cmdline>
J2VwaWtfcHl0aG9uJywgJy1waCcsICc3LjAnLCAnLXRuJywgJzgnLCAnLW1hJywgJzIwMCcsICctbWV0YWxfYmluZGluZycsICctaW1hZScsICc8aW5maWxlLm1hZT4nLCAnLW9tYWUnLCAnPG91dGZpbGUubWFlPic=

> <r_lp_tautomer_probability>
0.9999

> <r_epik_Ionization_Penalty>
0.0583018

> <r_epik_Ionization_Penalty_Charging>
0

> <r_epik_Ionization_Penalty_Neutral>
0.0583018

> <r_epik_State_Penalty>
0.0504087

> <r_epik_Charging_Adjusted_Penalty>
0.0504087

> <i_epik_Tot_Q>
0

> <i_epik_Tot_abs_Q>
0

> <r_epik_Metal_State_Penalty>
5.26129e-05

> <b_epik_Metal_Only>
0

> <s_lp_Force_Field>
OPLS_2005

> <r_lp_Energy>
23.9231

> <b_lp_Chiralities_Consistent>
1

> <s_lp_Variant>
AV-unprocessed.smi:2667-2

> <Gold.Version>
5.8.1

> <Gold.Id.Protein>
6NUR|6NUR_protein|mol2

> <Gold.PLP.Fitness>
52.6331

> <Gold.PLP.PLP>
-50.2650

> <Gold.PLP.part.hbond>
-3.1911

> <Gold.PLP.part.metal>
0.0000

> <Gold.PLP.part.buried>
-9.1731

> <Gold.PLP.part.nonpolar>
-38.8808

> <Gold.PLP.part.repulsive>
0.1852

> <Gold.PLP.ligand.clash>
0.0000

> <Gold.PLP.ligand.torsion>
1.1331

> <Gold.PLP.Chemscore.Hbond>
1.4800

> <Gold.PLP.Chemscore.CHOScore>
0.0000

> <Gold.PLP.Chemscore.Metal>
0.0000

> <Gold.Chemscore.Hbonds>
donor molecule, donor type, donor heavy atom, donor atom, acceptor molecule, acceptor atom, score
      L1  H    12    35       P1  8028  0.38
      P1  H  7997  8010       L1    16  0.95

> <Gold.PLP.Chemscore.Internal.Correction>
0.1944

> <Gold.Rescore>
     Score         DG    S(hbond)    S(metal)    S(lipo)     H(rot)  DE(clash)    DE(int)     intcor
     12.79     -15.19       0.68        0.00     118.16       2.49       1.48       0.92       ----

> <Gold.Chemscore.Fitness>
12.7900

> <Gold.Chemscore.DG>
-15.1923

> <Gold.Chemscore.ZeroCoef>
-5.4800

> <Gold.Chemscore.Hbond>
0.6796

> <Gold.Chemscore.Metal>
0.0000

> <Gold.Chemscore.Lipo>
118.1635

> <Gold.Chemscore.Internal_Hbond>
0.0000

> <Gold.Chemscore.DEClash>
1.4793

> <Gold.Chemscore.DEInternal>
0.9231

> <Gold.Chemscore.Rot>
2.4932

> <Gold.Chemscore.Internal.Correction>
   9.000000E+99

> <Gold.Chemscore.Hbonds>
donor molecule, donor type, donor heavy atom, donor atom, acceptor molecule, acceptor atom, score
      L1  H    12    35       P1  8028  0.38
      P1  H  7997  8010       L1    16  0.11

> <Gold.Chemscore.Hbond.Weighted>
-2.2698

> <Gold.Chemscore.Metal.Weighted>
-0.0000

> <Gold.Chemscore.Lipo.Weighted>
-13.8251

> <Gold.Chemscore.Internal_Hbond.Weighted>
0.0000

> <Gold.Chemscore.DEClash.Weighted>
1.4793

> <Gold.Chemscore.DEInternal.Weighted>
0.9231

> <Gold.Chemscore.Rot.Weighted>
6.3826

> <Gold.Chemscore.Internal.Correction.Weighted>
   9.000000E+99

> <Gold.Protein.RotatedTorsions>
[ 6907 6896 6895 6894 ] final -141.31 input  -60.11 | X-H torsion
[ 7974 7965 7964 7962 ] final   90.74 input  175.53 | X-H torsion
[ 8008 7997 7996 7995 ] final   45.57 input   59.86 | X-H torsion
[ 10167 10162 10161 10158 ] final -151.03 input  -65.29 | X-H torsion
[ 10718 10713 10712 10709 ] final  162.30 input   66.30 | X-H torsion
[ 10763 10752 10751 10750 ] final  116.00 input  -60.55 | X-H torsion
[ 11005 11000 10999 10996 ] final   80.32 input  -57.11 | X-H torsion

> <Gold.Protein.ActiveResidues>
 VAL166  LYS551  ARG553  GLY616  TRP617  ASP618  TYR619  PRO620  LYS621  CYS622 
 ASP623  PHE694  ASN695  SER759  ASP760  ASP761  ALA762  ILE779  LEU786  VAL792 
 PHE793  MET794  SER795  GLU796  ALA797  LYS798  CYS799  TRP800  GLU811  SER814 

> <Gold.Protein.RotatedAtoms>
  151.0722  133.5457  159.2626 H   0  0  0  0  0  0  0  0  0  0  0  0  # atno 6907 bound_to 6896
  151.2392  135.0582  159.9028 H   0  0  0  0  0  0  0  0  0  0  0  0  # atno 6908 bound_to 6896
  152.5413  134.0499  159.8159 H   0  0  0  0  0  0  0  0  0  0  0  0  # atno 6909 bound_to 6896
  145.5150  139.2278  143.2703 H   0  0  0  0  0  0  0  0  0  0  0  0  # atno 7974 bound_to 7965
  155.3380  140.3406  155.4239 H   0  0  0  0  0  0  0  0  0  0  0  0  # atno 8008 bound_to 7997
  156.1828  140.1670  156.8279 H   0  0  0  0  0  0  0  0  0  0  0  0  # atno 8009 bound_to 7997
  154.5352  140.0736  156.8398 H   0  0  0  0  0  0  0  0  0  0  0  0  # atno 8010 bound_to 7997
  139.7302  143.8819  152.2532 H   0  0  0  0  0  0  0  0  0  0  0  0  # atno 10167 bound_to 10162
  157.1245  131.0501  151.2400 H   0  0  0  0  0  0  0  0  0  0  0  0  # atno 10718 bound_to 10713
  153.5306  135.3579  155.2674 H   0  0  0  0  0  0  0  0  0  0  0  0  # atno 10763 bound_to 10752
  154.8727  135.4067  154.3156 H   0  0  0  0  0  0  0  0  0  0  0  0  # atno 10764 bound_to 10752
  153.3844  135.7069  153.6609 H   0  0  0  0  0  0  0  0  0  0  0  0  # atno 10765 bound_to 10752
  139.9139  134.7911  156.1894 H   0  0  0  0  0  0  0  0  0  0  0  0  # atno 11005 bound_to 11000
  146.2142  140.5959  142.9046 LP  0  0  0  0  0  0  0  0  0  0  0  0  # atno 17320 bound_to 7965
  144.7706  140.5630  143.6672 LP  0  0  0  0  0  0  0  0  0  0  0  0  # atno 17321 bound_to 7965
  139.8740  144.7053  150.8954 LP  0  0  0  0  0  0  0  0  0  0  0  0  # atno 17342 bound_to 10162
  140.7770  143.3714  151.1642 LP  0  0  0  0  0  0  0  0  0  0  0  0  # atno 17343 bound_to 10162
  157.4447  130.7564  149.7099 LP  0  0  0  0  0  0  0  0  0  0  0  0  # atno 17370 bound_to 10713
  155.9821  130.4013  150.3434 LP  0  0  0  0  0  0  0  0  0  0  0  0  # atno 17371 bound_to 10713
  141.0593  133.6849  156.1922 LP  0  0  0  0  0  0  0  0  0  0  0  0  # atno 17394 bound_to 11000
  140.6686  134.4891  157.5586 LP  0  0  0  0  0  0  0  0  0  0  0  0  # atno 17395 bound_to 11000

$$$$
