AV-unprocessed.smi:1041|AV-procd|sdf|4534|dock1
  -GOLD-   22720 2563D 1   1.00000     0.00000
 Structure written by MMmdl.
 52 53  0  0  0  0  0  0  0  0  3 V2000
  144.6165  134.8344  150.8988 C   0  0  0  0  0  0  0  0  0  0  0  0
  144.6358  135.4813  152.1593 O   0  0  0  0  0  0  0  0  0  0  0  0
  144.9836  136.8523  152.0604 C   0  0  0  0  0  0  0  0  0  0  0  0
  145.1183  137.4359  153.4760 C   0  0  0  0  0  0  0  0  0  0  0  0
  145.6534  138.8213  153.4733 N   0  3  2  0  0  0  0  0  0  0  0  0
  146.7903  139.0164  152.5342 C   0  0  0  0  0  0  0  0  0  0  0  0
  147.2257  140.4928  152.4816 C   0  0  0  0  0  0  0  0  0  0  0  0
  147.5714  141.0503  153.8742 C   0  0  2  0  0  0  0  0  0  0  0  0
  148.9325  140.5269  154.3927 C   0  0  0  0  0  0  0  0  0  0  0  0
  149.6806  141.5519  155.1085 N   0  0  0  0  0  0  0  0  0  0  0  0
  150.0854  141.4773  156.3865 C   0  0  0  0  0  0  0  0  0  0  0  0
  149.7858  140.5453  157.1319 O   0  0  0  0  0  0  0  0  0  0  0  0
  150.9887  142.6021  156.9058 C   0  0  0  0  0  0  0  0  0  0  0  0
  151.7501  142.3338  158.2062 C   0  0  0  0  0  0  0  0  0  0  0  0
  151.8195  143.2282  159.2330 C   0  0  0  0  0  0  0  0  0  0  0  0
  151.1329  144.5820  159.1960 C   0  0  0  0  0  0  0  0  0  0  0  0
  152.5497  142.9407  160.3984 N   0  0  0  0  0  0  0  0  0  0  0  0
  153.1694  141.8265  160.4945 C   0  0  0  0  0  0  0  0  0  0  0  0
  153.9526  141.5247  161.7542 C   0  0  0  0  0  0  0  0  0  0  0  0
  153.1785  140.8648  159.5087 N   0  5  0  0  0  0  0  0  0  0  0  0
  152.4845  141.0643  158.3525 C   0  0  0  0  0  0  0  0  0  0  0  0
  152.4743  140.2347  157.4439 O   0  0  0  0  0  0  0  0  0  0  0  0
  146.3875  140.7804  154.8269 C   0  0  0  0  0  0  0  0  0  0  0  0
  145.9844  139.2968  154.8411 C   0  0  0  0  0  0  0  0  0  0  0  0
  144.3531  133.7849  151.0285 H   0  0  0  0  0  0  0  0  0  0  0  0
  145.5939  134.8792  150.4168 H   0  0  0  0  0  0  0  0  0  0  0  0
  143.8777  135.2875  150.2363 H   0  0  0  0  0  0  0  0  0  0  0  0
  145.9377  136.9458  151.5394 H   0  0  0  0  0  0  0  0  0  0  0  0
  144.2467  137.3966  151.4698 H   0  0  0  0  0  0  0  0  0  0  0  0
  144.1306  137.4246  153.9390 H   0  0  0  0  0  0  0  0  0  0  0  0
  145.7535  136.7989  154.0933 H   0  0  0  0  0  0  0  0  0  0  0  0
  147.6251  138.3807  152.8315 H   0  0  0  0  0  0  0  0  0  0  0  0
  146.5084  138.7060  151.5293 H   0  0  0  0  0  0  0  0  0  0  0  0
  148.0741  140.6099  151.8066 H   0  0  0  0  0  0  0  0  0  0  0  0
  146.4157  141.0840  152.0521 H   0  0  0  0  0  0  0  0  0  0  0  0
  147.6664  142.1322  153.7730 H   0  0  0  0  0  0  0  0  0  0  0  0
  148.7918  139.6903  155.0761 H   0  0  0  0  0  0  0  0  0  0  0  0
  149.5336  140.1456  153.5655 H   0  0  0  0  0  0  0  0  0  0  0  0
  149.9695  142.3598  154.5751 H   0  0  0  0  0  0  0  0  0  0  0  0
  151.7024  142.8399  156.1174 H   0  0  0  0  0  0  0  0  0  0  0  0
  150.3861  143.5047  157.0116 H   0  0  0  0  0  0  0  0  0  0  0  0
  150.0496  144.4594  159.1909 H   0  0  0  0  0  0  0  0  0  0  0  0
  151.4250  145.1368  158.3041 H   0  0  0  0  0  0  0  0  0  0  0  0
  151.3990  145.1836  160.0660 H   0  0  0  0  0  0  0  0  0  0  0  0
  153.8220  140.4826  162.0485 H   0  0  0  0  0  0  0  0  0  0  0  0
  153.6195  142.1534  162.5811 H   0  0  0  0  0  0  0  0  0  0  0  0
  155.0146  141.7075  161.5887 H   0  0  0  0  0  0  0  0  0  0  0  0
  146.6116  141.1170  155.8394 H   0  0  0  0  0  0  0  0  0  0  0  0
  145.5308  141.3740  154.5044 H   0  0  0  0  0  0  0  0  0  0  0  0
  145.1174  139.1744  155.4917 H   0  0  0  0  0  0  0  0  0  0  0  0
  146.7827  138.6852  155.2640 H   0  0  0  0  0  0  0  0  0  0  0  0
  144.9007  139.4125  153.1502 H   0  0  0  0  0  0  0  0  0  0  0  0
  1  2  1  0  0  0  0
  1 25  1  0  0  0  0
  1 26  1  0  0  0  0
  1 27  1  0  0  0  0
  2  3  1  0  0  0  0
  3  4  1  0  0  0  0
  3 28  1  0  0  0  0
  3 29  1  0  0  0  0
  4  5  1  0  0  0  0
  4 30  1  0  0  0  0
  4 31  1  0  0  0  0
  5 24  1  0  0  0  0
  5  6  1  0  0  0  0
  5 52  1  0  0  0  0
  6  7  1  0  0  0  0
  6 32  1  0  0  0  0
  6 33  1  0  0  0  0
  7  8  1  0  0  0  0
  7 34  1  0  0  0  0
  7 35  1  0  0  0  0
  8  9  1  0  0  0  0
  8 23  1  0  0  0  0
  8 36  1  0  0  0  0
  9 10  1  0  0  0  0
  9 37  1  0  0  0  0
  9 38  1  0  0  0  0
 10 11  1  0  0  0  0
 10 39  1  0  0  0  0
 11 12  2  0  0  0  0
 11 13  1  0  0  0  0
 13 14  1  0  0  0  0
 13 40  1  0  0  0  0
 13 41  1  0  0  0  0
 14 21  1  0  0  0  0
 14 15  2  0  0  0  0
 15 16  1  0  0  0  0
 15 17  1  0  0  0  0
 16 42  1  0  0  0  0
 16 43  1  0  0  0  0
 16 44  1  0  0  0  0
 17 18  2  0  0  0  0
 18 19  1  0  0  0  0
 18 20  1  0  0  0  0
 19 45  1  0  0  0  0
 19 46  1  0  0  0  0
 19 47  1  0  0  0  0
 20 21  1  0  0  0  0
 21 22  2  0  0  0  0
 23 24  1  0  0  0  0
 23 48  1  0  0  0  0
 23 49  1  0  0  0  0
 24 50  1  0  0  0  0
 24 51  1  0  0  0  0
M  CHG  1   5   1
M  CHG  1  20  -1
M  END
> <s_m_source_file>
AV-unprocessed.smi

> <i_m_source_file_index>
1041

> <i_lp_mmshare_version>
43012

> <i_f3d_flags>
0

> <s_epik_input>
W0NIM11PW0NIMl1bQ0gyXU4xW0NIMl1bQ0gyXVtDSF0oW0NIMl1bQ0gyXTEpW0NIMl1bTkhdQyg9TylbQ0gyXWMyYyhbQ0gzXSluYyhbQ0gzXSlbbkhdYzI9Tw==

> <s_epik_cmdline>
J2VwaWtfcHl0aG9uJywgJy1waCcsICc3LjAnLCAnLXRuJywgJzgnLCAnLW1hJywgJzIwMCcsICctbWV0YWxfYmluZGluZycsICctaW1hZScsICc8aW5maWxlLm1hZT4nLCAnLW9tYWUnLCAnPG91dGZpbGUubWFlPic=

> <r_lp_tautomer_probability>
0.839158

> <r_epik_Ionization_Penalty>
6.54961

> <r_epik_Ionization_Penalty_Charging>
0.00968647

> <r_epik_Ionization_Penalty_Neutral>
6.53992

> <r_epik_State_Penalty>
4.43892

> <r_epik_Charging_Adjusted_Penalty>
4.44861

> <i_epik_Tot_Q>
0

> <i_epik_Tot_abs_Q>
2

> <r_epik_Metal_State_Penalty>
0.818645

> <b_epik_Metal_Only>
1

> <s_lp_Force_Field>
OPLS_2005

> <r_lp_Energy>
22.1122

> <b_lp_Chiralities_Consistent>
1

> <s_lp_Variant>
AV-unprocessed.smi:1041-7

> <Gold.Version>
5.8.1

> <Gold.Id.Protein>
6NUR|6NUR_protein|mol2

> <Gold.PLP.Fitness>
48.1241

> <Gold.PLP.PLP>
-40.9596

> <Gold.PLP.part.hbond>
-2.0634

> <Gold.PLP.part.metal>
0.0000

> <Gold.PLP.part.buried>
-2.0935

> <Gold.PLP.part.nonpolar>
-35.8935

> <Gold.PLP.part.repulsive>
0.3302

> <Gold.PLP.ligand.clash>
0.0000

> <Gold.PLP.ligand.torsion>
0.9528

> <Gold.PLP.Chemscore.Hbond>
2.9913

> <Gold.PLP.Chemscore.CHOScore>
0.0000

> <Gold.PLP.Chemscore.Metal>
0.0000

> <Gold.Chemscore.Hbonds>
donor molecule, donor type, donor heavy atom, donor atom, acceptor molecule, acceptor atom, score
      L1  H     5    52       P1 10175  2.00
      P1  H  7997  8009       L1    22  0.93

> <Gold.PLP.Chemscore.Internal.Correction>
0.0964

> <Gold.Rescore>
     Score         DG    S(hbond)    S(metal)    S(lipo)     H(rot)  DE(clash)    DE(int)     intcor
     14.94     -17.25       1.94        0.00      96.66       2.35       1.54       0.76       ----

> <Gold.Chemscore.Fitness>
14.9439

> <Gold.Chemscore.DG>
-17.2478

> <Gold.Chemscore.ZeroCoef>
-5.4800

> <Gold.Chemscore.Hbond>
1.9399

> <Gold.Chemscore.Metal>
0.0000

> <Gold.Chemscore.Lipo>
96.6629

> <Gold.Chemscore.Internal_Hbond>
0.0000

> <Gold.Chemscore.DEClash>
1.5449

> <Gold.Chemscore.DEInternal>
0.7591

> <Gold.Chemscore.Rot>
2.3520

> <Gold.Chemscore.Internal.Correction>
   9.000000E+99

> <Gold.Chemscore.Hbonds>
donor molecule, donor type, donor heavy atom, donor atom, acceptor molecule, acceptor atom, score
      L1  H     5    52       P1 10175  1.00
      P1  H  7997  8009       L1    22  0.51

> <Gold.Chemscore.Hbond.Weighted>
-6.4794

> <Gold.Chemscore.Metal.Weighted>
-0.0000

> <Gold.Chemscore.Lipo.Weighted>
-11.3096

> <Gold.Chemscore.Internal_Hbond.Weighted>
0.0000

> <Gold.Chemscore.DEClash.Weighted>
1.5449

> <Gold.Chemscore.DEInternal.Weighted>
0.7591

> <Gold.Chemscore.Rot.Weighted>
6.0211

> <Gold.Chemscore.Internal.Correction.Weighted>
   9.000000E+99

> <Gold.Protein.RotatedTorsions>
[ 6907 6896 6895 6894 ] final   13.24 input  -60.11 | X-H torsion
[ 7974 7965 7964 7962 ] final  -79.35 input  175.53 | X-H torsion
[ 8008 7997 7996 7995 ] final  174.14 input   59.86 | X-H torsion
[ 10167 10162 10161 10158 ] final  -44.50 input  -65.29 | X-H torsion
[ 10718 10713 10712 10709 ] final  178.06 input   66.30 | X-H torsion
[ 10763 10752 10751 10750 ] final  -45.98 input  -60.55 | X-H torsion
[ 11005 11000 10999 10996 ] final   34.98 input  -57.11 | X-H torsion

> <Gold.Protein.ActiveResidues>
 VAL166  LYS551  ARG553  GLY616  TRP617  ASP618  TYR619  PRO620  LYS621  CYS622 
 ASP623  PHE694  ASN695  SER759  ASP760  ASP761  ALA762  ILE779  LEU786  VAL792 
 PHE793  MET794  SER795  GLU796  ALA797  LYS798  CYS799  TRP800  GLU811  SER814 

> <Gold.Protein.RotatedAtoms>
  151.7832  135.0756  160.0376 H   0  0  0  0  0  0  0  0  0  0  0  0  # atno 6907 bound_to 6896
  152.3208  133.5847  159.5752 H   0  0  0  0  0  0  0  0  0  0  0  0  # atno 6908 bound_to 6896
  150.7369  133.9929  159.3655 H   0  0  0  0  0  0  0  0  0  0  0  0  # atno 6909 bound_to 6896
  145.5743  140.9460  143.1378 H   0  0  0  0  0  0  0  0  0  0  0  0  # atno 7974 bound_to 7965
  156.1004  140.1442  156.9474 H   0  0  0  0  0  0  0  0  0  0  0  0  # atno 8008 bound_to 7997
  154.4699  140.0913  156.7163 H   0  0  0  0  0  0  0  0  0  0  0  0  # atno 8009 bound_to 7997
  155.4769  140.3443  155.4336 H   0  0  0  0  0  0  0  0  0  0  0  0  # atno 8010 bound_to 7997
  140.6894  143.2927  151.3504 H   0  0  0  0  0  0  0  0  0  0  0  0  # atno 10167 bound_to 10162
  156.8962  130.9863  151.3042 H   0  0  0  0  0  0  0  0  0  0  0  0  # atno 10718 bound_to 10713
  154.0375  135.6648  153.4786 H   0  0  0  0  0  0  0  0  0  0  0  0  # atno 10763 bound_to 10752
  153.0515  135.5081  154.7874 H   0  0  0  0  0  0  0  0  0  0  0  0  # atno 10764 bound_to 10752
  154.6839  135.3049  154.9540 H   0  0  0  0  0  0  0  0  0  0  0  0  # atno 10765 bound_to 10752
  140.2473  134.3345  155.7903 H   0  0  0  0  0  0  0  0  0  0  0  0  # atno 11005 bound_to 11000
  144.7423  139.7415  143.7306 LP  0  0  0  0  0  0  0  0  0  0  0  0  # atno 17320 bound_to 7965
  146.1762  139.4933  142.9896 LP  0  0  0  0  0  0  0  0  0  0  0  0  # atno 17321 bound_to 7965
  139.6283  144.0771  152.2454 LP  0  0  0  0  0  0  0  0  0  0  0  0  # atno 17342 bound_to 10162
  140.0237  144.6133  150.7545 LP  0  0  0  0  0  0  0  0  0  0  0  0  # atno 17343 bound_to 10162
  157.6054  130.8543  149.8867 LP  0  0  0  0  0  0  0  0  0  0  0  0  # atno 17370 bound_to 10713
  156.0604  130.3701  150.0994 LP  0  0  0  0  0  0  0  0  0  0  0  0  # atno 17371 bound_to 10713
  141.2205  133.7333  156.8981 LP  0  0  0  0  0  0  0  0  0  0  0  0  # atno 17394 bound_to 11000
  140.1593  134.9176  157.2694 LP  0  0  0  0  0  0  0  0  0  0  0  0  # atno 17395 bound_to 11000

$$$$
