AV-unprocessed.smi:1399|AV-procd|sdf|5681|dock8
  -GOLD-   22720 5303D 1   1.00000     0.00000
 Structure written by MMmdl.
 37 38  0  0  0  0  0  0  0  0  1 V2000
  145.0644  137.8140  151.9431 N   0  0  0  0  0  0  0  0  0  0  0  0
  146.3399  138.2062  151.9950 C   0  0  0  0  0  0  0  0  0  0  0  0
  146.8932  138.7726  151.0551 O   0  0  0  0  0  0  0  0  0  0  0  0
  147.1083  137.9121  153.2886 C   0  0  0  0  0  0  0  0  0  0  0  0
  147.5261  139.1133  154.0485 N   0  0  0  0  0  0  0  0  0  0  0  0
  148.1492  140.1321  153.1901 C   0  0  0  0  0  0  0  0  0  0  0  0
  148.5046  141.3868  154.0078 C   0  0  0  0  0  0  0  0  0  0  0  0
  149.4408  141.0438  155.1781 C   0  0  0  0  0  0  0  0  0  0  0  0
  149.6684  142.2103  156.0259 N   0  0  0  0  0  0  0  0  0  0  0  0
  150.5187  142.2586  157.0612 C   0  0  0  0  0  0  0  0  0  0  0  0
  151.2175  141.3084  157.4139 O   0  0  0  0  0  0  0  0  0  0  0  0
  150.5034  143.4661  157.6490 N   0  0  0  0  0  0  0  0  0  0  0  0
  151.2629  143.8881  158.7693 C   0  0  0  0  0  0  0  0  0  0  0  0
  152.3285  143.1480  159.3500 C   0  0  0  0  0  0  0  0  0  0  0  0
  152.8551  143.7886  160.3839 N   0  0  0  0  0  0  0  0  0  0  0  0
  152.1354  144.9302  160.4692 N   0  0  0  0  0  0  0  0  0  0  0  0
  151.1556  145.0340  159.5068 C   0  0  0  0  0  0  0  0  0  0  0  0
  148.8112  139.9128  156.0028 C   0  0  0  0  0  0  0  0  0  0  0  0
  148.4535  138.7109  155.1112 C   0  0  0  0  0  0  0  0  0  0  0  0
  152.3229  145.6216  161.1816 H   0  0  0  0  0  0  0  0  0  0  0  0
  144.5173  137.9927  151.1136 H   0  0  0  0  0  0  0  0  0  0  0  0
  144.6510  137.3463  152.7366 H   0  0  0  0  0  0  0  0  0  0  0  0
  146.4625  137.2927  153.9128 H   0  0  0  0  0  0  0  0  0  0  0  0
  147.9834  137.3039  153.0512 H   0  0  0  0  0  0  0  0  0  0  0  0
  149.0429  139.7266  152.7127 H   0  0  0  0  0  0  0  0  0  0  0  0
  147.4741  140.4332  152.3891 H   0  0  0  0  0  0  0  0  0  0  0  0
  148.9721  142.1262  153.3567 H   0  0  0  0  0  0  0  0  0  0  0  0
  147.5883  141.8438  154.3850 H   0  0  0  0  0  0  0  0  0  0  0  0
  150.3959  140.6918  154.7828 H   0  0  0  0  0  0  0  0  0  0  0  0
  149.1368  143.0404  155.8082 H   0  0  0  0  0  0  0  0  0  0  0  0
  149.8811  144.1565  157.2551 H   0  0  0  0  0  0  0  0  0  0  0  0
  152.7293  142.1875  159.0610 H   0  0  0  0  0  0  0  0  0  0  0  0
  150.4969  145.8874  159.4419 H   0  0  0  0  0  0  0  0  0  0  0  0
  149.4981  139.5967  156.7888 H   0  0  0  0  0  0  0  0  0  0  0  0
  147.9109  140.2714  156.5046 H   0  0  0  0  0  0  0  0  0  0  0  0
  147.9935  137.9399  155.7309 H   0  0  0  0  0  0  0  0  0  0  0  0
  149.3581  138.2752  154.6829 H   0  0  0  0  0  0  0  0  0  0  0  0
  1  2  1  0  0  0  0
  1 21  1  0  0  0  0
  1 22  1  0  0  0  0
  2  3  2  0  0  0  0
  2  4  1  0  0  0  0
  4  5  1  0  0  0  0
  4 23  1  0  0  0  0
  4 24  1  0  0  0  0
  5 19  1  0  0  0  0
  5  6  1  0  0  0  0
  6  7  1  0  0  0  0
  6 25  1  0  0  0  0
  6 26  1  0  0  0  0
  7  8  1  0  0  0  0
  7 27  1  0  0  0  0
  7 28  1  0  0  0  0
  8  9  1  0  0  0  0
  8 18  1  0  0  0  0
  8 29  1  0  0  0  0
  9 10  1  0  0  0  0
  9 30  1  0  0  0  0
 10 11  2  0  0  0  0
 10 12  1  0  0  0  0
 12 13  1  0  0  0  0
 12 31  1  0  0  0  0
 13 17  2  0  0  0  0
 13 14  1  0  0  0  0
 14 15  2  0  0  0  0
 14 32  1  0  0  0  0
 15 16  1  0  0  0  0
 16 20  1  0  0  0  0
 16 17  1  0  0  0  0
 17 33  1  0  0  0  0
 18 19  1  0  0  0  0
 18 34  1  0  0  0  0
 18 35  1  0  0  0  0
 19 36  1  0  0  0  0
 19 37  1  0  0  0  0
M  END
> <s_m_source_file>
AV-unprocessed.smi

> <i_m_source_file_index>
1399

> <i_lp_mmshare_version>
43012

> <i_f3d_flags>
0

> <s_epik_input>
W05IMl1DKD1PKVtDSDJdTjFbQ0gyXVtDSDJdW0NIXShbQ0gyXVtDSDJdMSlbTkhdQyg9TylbTkhdYzJbY0hdbltuSF1bY0hdMg==

> <s_epik_cmdline>
J2VwaWtfcHl0aG9uJywgJy1waCcsICc3LjAnLCAnLXRuJywgJzgnLCAnLW1hJywgJzIwMCcsICctbWV0YWxfYmluZGluZycsICctaW1hZScsICc8aW5maWxlLm1hZT4nLCAnLW9tYWUnLCAnPG91dGZpbGUubWFlPic=

> <r_lp_tautomer_probability>
0.5

> <r_epik_Ionization_Penalty>
0.164786

> <r_epik_Ionization_Penalty_Charging>
0

> <r_epik_Ionization_Penalty_Neutral>
0.164786

> <r_epik_State_Penalty>
0.154069

> <r_epik_Charging_Adjusted_Penalty>
0.154069

> <i_epik_Tot_Q>
0

> <i_epik_Tot_abs_Q>
0

> <r_epik_Metal_State_Penalty>
0.171367

> <b_epik_Metal_Only>
0

> <s_lp_Force_Field>
OPLS_2005

> <r_lp_Energy>
13.9175

> <b_lp_Chiralities_Consistent>
1

> <s_lp_Variant>
AV-unprocessed.smi:1399-1

> <Gold.Version>
5.8.1

> <Gold.Id.Protein>
6NUR|6NUR_protein|mol2

> <Gold.PLP.Fitness>
40.6213

> <Gold.PLP.PLP>
-28.9583

> <Gold.PLP.part.hbond>
-4.9857

> <Gold.PLP.part.metal>
0.0000

> <Gold.PLP.part.buried>
0.8169

> <Gold.PLP.part.nonpolar>
-25.2637

> <Gold.PLP.part.repulsive>
1.3133

> <Gold.PLP.ligand.clash>
0.0000

> <Gold.PLP.ligand.torsion>
0.1494

> <Gold.PLP.Chemscore.Hbond>
3.9840

> <Gold.PLP.Chemscore.CHOScore>
0.0000

> <Gold.PLP.Chemscore.Metal>
0.0000

> <Gold.Chemscore.Hbonds>
donor molecule, donor type, donor heavy atom, donor atom, acceptor molecule, acceptor atom, score
      L1  H     1    21       P1 10171  1.00
      L1  H     9    30       P1  8028  1.00
      L1  H    12    31       P1  8028  0.94
      P1  H  7954  7966       L1     3  0.93

> <Gold.PLP.Chemscore.Internal.Correction>
0.0097

> <Gold.Rescore>
     Score         DG    S(hbond)    S(metal)    S(lipo)     H(rot)  DE(clash)    DE(int)     intcor
     15.57     -20.26       3.76        0.00      64.16       2.06       1.83       2.85       ----

> <Gold.Chemscore.Fitness>
15.5729

> <Gold.Chemscore.DG>
-20.2559

> <Gold.Chemscore.ZeroCoef>
-5.4800

> <Gold.Chemscore.Hbond>
3.7568

> <Gold.Chemscore.Metal>
0.0000

> <Gold.Chemscore.Lipo>
64.1617

> <Gold.Chemscore.Internal_Hbond>
0.0000

> <Gold.Chemscore.DEClash>
1.8313

> <Gold.Chemscore.DEInternal>
2.8517

> <Gold.Chemscore.Rot>
2.0620

> <Gold.Chemscore.Internal.Correction>
   9.000000E+99

> <Gold.Chemscore.Hbonds>
donor molecule, donor type, donor heavy atom, donor atom, acceptor molecule, acceptor atom, score
      L1  H     1    21       P1 10171  0.97
      L1  H     9    30       P1  8028  0.98
      L1  H    12    31       P1  8028  0.54
      P1  H  7954  7966       L1     3  0.88

> <Gold.Chemscore.Hbond.Weighted>
-12.5477

> <Gold.Chemscore.Metal.Weighted>
-0.0000

> <Gold.Chemscore.Lipo.Weighted>
-7.5069

> <Gold.Chemscore.Internal_Hbond.Weighted>
0.0000

> <Gold.Chemscore.DEClash.Weighted>
1.8313

> <Gold.Chemscore.DEInternal.Weighted>
2.8517

> <Gold.Chemscore.Rot.Weighted>
5.2788

> <Gold.Chemscore.Internal.Correction.Weighted>
   9.000000E+99

> <Gold.Protein.RotatedTorsions>
[ 6907 6896 6895 6894 ] final -142.75 input  -60.11 | X-H torsion
[ 7974 7965 7964 7962 ] final  125.02 input  175.53 | X-H torsion
[ 8008 7997 7996 7995 ] final  140.08 input   59.86 | X-H torsion
[ 10167 10162 10161 10158 ] final -138.12 input  -65.29 | X-H torsion
[ 10718 10713 10712 10709 ] final  138.12 input   66.30 | X-H torsion
[ 10763 10752 10751 10750 ] final  -92.22 input  -60.55 | X-H torsion
[ 11005 11000 10999 10996 ] final   60.30 input  -57.11 | X-H torsion

> <Gold.Protein.ActiveResidues>
 VAL166  LYS551  ARG553  GLY616  TRP617  ASP618  TYR619  PRO620  LYS621  CYS622 
 ASP623  PHE694  ASN695  SER759  ASP760  ASP761  ALA762  ILE779  LEU786  VAL792 
 PHE793  MET794  SER795  GLU796  ALA797  LYS798  CYS799  TRP800  GLU811  SER814 

> <Gold.Protein.RotatedAtoms>
  151.0912  133.5314  159.2614 H   0  0  0  0  0  0  0  0  0  0  0  0  # atno 6907 bound_to 6896
  151.2181  135.0507  159.8948 H   0  0  0  0  0  0  0  0  0  0  0  0  # atno 6908 bound_to 6896
  152.5434  134.0718  159.8251 H   0  0  0  0  0  0  0  0  0  0  0  0  # atno 6909 bound_to 6896
  145.0777  139.3681  143.4925 H   0  0  0  0  0  0  0  0  0  0  0  0  # atno 7974 bound_to 7965
  156.2983  140.2351  156.4343 H   0  0  0  0  0  0  0  0  0  0  0  0  # atno 8008 bound_to 7997
  154.8243  140.0436  157.1453 H   0  0  0  0  0  0  0  0  0  0  0  0  # atno 8009 bound_to 7997
  154.9280  140.3013  155.5186 H   0  0  0  0  0  0  0  0  0  0  0  0  # atno 8010 bound_to 7997
  139.8510  143.7199  152.2658 H   0  0  0  0  0  0  0  0  0  0  0  0  # atno 10167 bound_to 10162
  157.4287  131.1046  151.0274 H   0  0  0  0  0  0  0  0  0  0  0  0  # atno 10718 bound_to 10713
  154.6839  135.5239  153.8300 H   0  0  0  0  0  0  0  0  0  0  0  0  # atno 10763 bound_to 10752
  153.0584  135.6559  154.0532 H   0  0  0  0  0  0  0  0  0  0  0  0  # atno 10764 bound_to 10752
  154.0415  135.2977  155.3334 H   0  0  0  0  0  0  0  0  0  0  0  0  # atno 10765 bound_to 10752
  140.0241  134.6108  155.9597 H   0  0  0  0  0  0  0  0  0  0  0  0  # atno 11005 bound_to 11000
  146.3530  140.0552  142.8633 LP  0  0  0  0  0  0  0  0  0  0  0  0  # atno 17320 bound_to 7965
  145.1216  140.9465  143.4597 LP  0  0  0  0  0  0  0  0  0  0  0  0  # atno 17321 bound_to 7965
  139.7465  144.7545  151.0571 LP  0  0  0  0  0  0  0  0  0  0  0  0  # atno 17342 bound_to 10162
  140.7787  143.4910  150.9893 LP  0  0  0  0  0  0  0  0  0  0  0  0  # atno 17343 bound_to 10162
  157.1178  130.6049  149.5497 LP  0  0  0  0  0  0  0  0  0  0  0  0  # atno 17370 bound_to 10713
  155.9905  130.4957  150.7261 LP  0  0  0  0  0  0  0  0  0  0  0  0  # atno 17371 bound_to 10713
  141.1792  133.6544  156.4951 LP  0  0  0  0  0  0  0  0  0  0  0  0  # atno 17394 bound_to 11000
  140.4336  134.7079  157.4955 LP  0  0  0  0  0  0  0  0  0  0  0  0  # atno 17395 bound_to 11000

$$$$
