AV-unprocessed.smi:540|AV-procd|sdf|2870|dock5
  -GOLD-   2262023363D 1   1.00000     0.00000
 Structure written by MMmdl.
 48 50  0  0  0  0  0  0  0  0  2 V2000
  148.6596  141.4062  154.5298 C   0  0  0  0  0  0  0  0  0  0  0  0
  149.4477  140.1266  154.2418 C   0  0  0  0  0  0  0  0  0  0  0  0
  150.6277  140.1385  155.0241 O   0  0  0  0  0  0  0  0  0  0  0  0
  151.4711  139.0268  154.7739 C   0  0  0  0  0  0  0  0  0  0  0  0
  152.2807  138.6994  156.0362 C   0  0  0  0  0  0  0  0  0  0  0  0
  151.4128  138.4220  157.1807 N   0  0  0  0  0  0  0  0  0  0  0  0
  151.1715  139.2160  158.2602 C   0  0  0  0  0  0  0  0  0  0  0  0
  151.7330  140.4875  158.3983 N   0  0  0  0  0  0  0  0  0  0  0  0
  151.1547  141.6915  157.8052 C   0  0  0  0  0  0  0  0  0  0  0  0
  151.0244  142.8208  158.8427 C   0  0  0  0  0  0  0  0  0  0  0  0
  152.3902  143.1624  159.4635 C   0  0  0  0  0  0  0  0  0  0  0  0
  152.2691  144.2262  160.5633 C   0  0  0  0  0  0  0  0  0  0  0  0
  153.0505  141.8736  159.9831 C   0  0  0  0  0  0  0  0  0  0  0  0
  153.0776  140.7941  158.8860 C   0  0  0  0  0  0  0  0  0  0  0  0
  150.3995  138.6620  159.1966 N   0  0  0  0  0  0  0  0  0  0  0  0
  150.1032  137.4184  158.6623 C   0  0  0  0  0  0  0  0  0  0  0  0
  150.7064  137.2433  157.4555 C   0  0  0  0  0  0  0  0  0  0  0  0
  150.6091  135.9924  156.6662 C   0  0  0  0  0  0  0  0  0  0  0  0
  151.1889  135.8677  155.5898 O   0  0  0  0  0  0  0  0  0  0  0  0
  149.8263  135.0506  157.2817 N   0  5  0  0  0  0  0  0  0  0  0  0
  149.1942  135.1907  158.4978 C   0  0  0  0  0  0  0  0  0  0  0  0
  148.5110  134.2880  158.9832 O   0  0  0  0  0  0  0  0  0  0  0  0
  149.3207  136.3603  159.1994 N   0  0  0  0  0  0  0  0  0  0  0  0
  148.6653  136.5352  160.4990 C   0  0  0  0  0  0  0  0  0  0  0  0
  147.7412  141.4402  153.9437 H   0  0  0  0  0  0  0  0  0  0  0  0
  149.2483  142.2901  154.2827 H   0  0  0  0  0  0  0  0  0  0  0  0
  148.3882  141.4688  155.5839 H   0  0  0  0  0  0  0  0  0  0  0  0
  148.8423  139.2525  154.4858 H   0  0  0  0  0  0  0  0  0  0  0  0
  149.6988  140.0722  153.1817 H   0  0  0  0  0  0  0  0  0  0  0  0
  150.8695  138.1635  154.4858 H   0  0  0  0  0  0  0  0  0  0  0  0
  152.1458  139.2457  153.9454 H   0  0  0  0  0  0  0  0  0  0  0  0
  152.9346  137.8540  155.8483 H   0  0  0  0  0  0  0  0  0  0  0  0
  152.9604  139.5139  156.2731 H   0  0  0  0  0  0  0  0  0  0  0  0
  151.7713  142.0145  156.9654 H   0  0  0  0  0  0  0  0  0  0  0  0
  150.1705  141.4603  157.3965 H   0  0  0  0  0  0  0  0  0  0  0  0
  150.5952  143.7055  158.3716 H   0  0  0  0  0  0  0  0  0  0  0  0
  150.3259  142.5157  159.6234 H   0  0  0  0  0  0  0  0  0  0  0  0
  153.0244  143.5699  158.6748 H   0  0  0  0  0  0  0  0  0  0  0  0
  151.6418  143.8785  161.3846 H   0  0  0  0  0  0  0  0  0  0  0  0
  151.8291  145.1446  160.1735 H   0  0  0  0  0  0  0  0  0  0  0  0
  153.2469  144.4776  160.9746 H   0  0  0  0  0  0  0  0  0  0  0  0
  154.0667  142.0830  160.3184 H   0  0  0  0  0  0  0  0  0  0  0  0
  152.5078  141.5032  160.8531 H   0  0  0  0  0  0  0  0  0  0  0  0
  153.5690  139.8899  159.2432 H   0  0  0  0  0  0  0  0  0  0  0  0
  153.6822  141.1405  158.0468 H   0  0  0  0  0  0  0  0  0  0  0  0
  147.5895  136.3766  160.4120 H   0  0  0  0  0  0  0  0  0  0  0  0
  148.8127  137.5316  160.9147 H   0  0  0  0  0  0  0  0  0  0  0  0
  149.0578  135.8181  161.2210 H   0  0  0  0  0  0  0  0  0  0  0  0
  1  2  1  0  0  0  0
  1 25  1  0  0  0  0
  1 26  1  0  0  0  0
  1 27  1  0  0  0  0
  2  3  1  0  0  0  0
  2 28  1  0  0  0  0
  2 29  1  0  0  0  0
  3  4  1  0  0  0  0
  4  5  1  0  0  0  0
  4 30  1  0  0  0  0
  4 31  1  0  0  0  0
  5  6  1  0  0  0  0
  5 32  1  0  0  0  0
  5 33  1  0  0  0  0
  6 17  1  0  0  0  0
  6  7  1  0  0  0  0
  7  8  1  0  0  0  0
  7 15  2  0  0  0  0
  8 14  1  0  0  0  0
  8  9  1  0  0  0  0
  9 10  1  0  0  0  0
  9 34  1  0  0  0  0
  9 35  1  0  0  0  0
 10 11  1  0  0  0  0
 10 36  1  0  0  0  0
 10 37  1  0  0  0  0
 11 12  1  0  0  0  0
 11 13  1  0  0  0  0
 11 38  1  0  0  0  0
 12 39  1  0  0  0  0
 12 40  1  0  0  0  0
 12 41  1  0  0  0  0
 13 14  1  0  0  0  0
 13 42  1  0  0  0  0
 13 43  1  0  0  0  0
 14 44  1  0  0  0  0
 14 45  1  0  0  0  0
 15 16  1  0  0  0  0
 16 23  1  0  0  0  0
 16 17  2  0  0  0  0
 17 18  1  0  0  0  0
 18 19  2  0  0  0  0
 18 20  1  0  0  0  0
 20 21  1  0  0  0  0
 21 22  2  0  0  0  0
 21 23  1  0  0  0  0
 23 24  1  0  0  0  0
 24 46  1  0  0  0  0
 24 47  1  0  0  0  0
 24 48  1  0  0  0  0
M  CHG  1  20  -1
M  END
> <s_m_source_file>
AV-unprocessed.smi

> <i_m_source_file_index>
540

> <i_lp_mmshare_version>
43012

> <i_f3d_flags>
0

> <s_epik_input>
W0NIM11uMWMoPU8pW25IXWMoPU8pYyhjMTIpbihbQ0gyXVtDSDJdT1tDSDJdW0NIM10pYyhuMilOM1tDSDJdW0NIMl1bQ0hdKFtDSDNdKVtDSDJdW0NIMl0z

> <s_epik_cmdline>
J2VwaWtfcHl0aG9uJywgJy1waCcsICc3LjAnLCAnLXRuJywgJzgnLCAnLW1hJywgJzIwMCcsICctbWV0YWxfYmluZGluZycsICctaW1hZScsICc8aW5maWxlLm1hZT4nLCAnLW9tYWUnLCAnPG91dGZpbGUubWFlPic=

> <r_lp_tautomer_probability>
1

> <r_epik_Ionization_Penalty>
5.11981

> <r_epik_Ionization_Penalty_Charging>
0.0737583

> <r_epik_Ionization_Penalty_Neutral>
5.04605

> <r_epik_State_Penalty>
5.03218

> <r_epik_Charging_Adjusted_Penalty>
5.10594

> <i_epik_Tot_Q>
-1

> <i_epik_Tot_abs_Q>
1

> <r_epik_Metal_State_Penalty>
1.14277

> <b_epik_Metal_Only>
1

> <s_lp_Force_Field>
OPLS_2005

> <r_lp_Energy>
41.1943

> <b_lp_Chiralities_Consistent>
1

> <s_lp_Variant>
AV-unprocessed.smi:540-2

> <Gold.Version>
5.8.1

> <Gold.Id.Protein>
6NUR|6NUR_protein|mol2

> <Gold.PLP.Fitness>
39.5359

> <Gold.PLP.PLP>
-39.4681

> <Gold.PLP.part.hbond>
-3.4143

> <Gold.PLP.part.metal>
0.0000

> <Gold.PLP.part.buried>
0.6726

> <Gold.PLP.part.nonpolar>
-35.7802

> <Gold.PLP.part.repulsive>
0.1332

> <Gold.PLP.ligand.clash>
0.0000

> <Gold.PLP.ligand.torsion>
1.8614

> <Gold.PLP.Chemscore.Hbond>
1.0875

> <Gold.PLP.Chemscore.CHOScore>
0.0000

> <Gold.PLP.Chemscore.Metal>
0.0000

> <Gold.Chemscore.Hbonds>
donor molecule, donor type, donor heavy atom, donor atom, acceptor molecule, acceptor atom, score
      P1  H  7989  7998       L1     3  0.05
      P1  H 10752 10765       L1    19  1.00

> <Gold.PLP.Chemscore.Internal.Correction>
0.5281

> <Gold.Rescore>
     Score         DG    S(hbond)    S(metal)    S(lipo)     H(rot)  DE(clash)    DE(int)     intcor
     12.92     -15.05       0.93        0.00      89.19       1.55       0.31       1.82       ----

> <Gold.Chemscore.Fitness>
12.9160

> <Gold.Chemscore.DG>
-15.0494

> <Gold.Chemscore.ZeroCoef>
-5.4800

> <Gold.Chemscore.Hbond>
0.9314

> <Gold.Chemscore.Metal>
0.0000

> <Gold.Chemscore.Lipo>
89.1906

> <Gold.Chemscore.Internal_Hbond>
0.0000

> <Gold.Chemscore.DEClash>
0.3146

> <Gold.Chemscore.DEInternal>
1.8188

> <Gold.Chemscore.Rot>
1.5534

> <Gold.Chemscore.Internal.Correction>
   9.000000E+99

> <Gold.Chemscore.Hbonds>
donor molecule, donor type, donor heavy atom, donor atom, acceptor molecule, acceptor atom, score
      P1  H 10752 10765       L1    19  0.94

> <Gold.Chemscore.Hbond.Weighted>
-3.1109

> <Gold.Chemscore.Metal.Weighted>
-0.0000

> <Gold.Chemscore.Lipo.Weighted>
-10.4353

> <Gold.Chemscore.Internal_Hbond.Weighted>
0.0000

> <Gold.Chemscore.DEClash.Weighted>
0.3146

> <Gold.Chemscore.DEInternal.Weighted>
1.8188

> <Gold.Chemscore.Rot.Weighted>
3.9768

> <Gold.Chemscore.Internal.Correction.Weighted>
   9.000000E+99

> <Gold.Protein.RotatedTorsions>
[ 6907 6896 6895 6894 ] final  104.14 input  -60.11 | X-H torsion
[ 7974 7965 7964 7962 ] final  -18.18 input  175.53 | X-H torsion
[ 8008 7997 7996 7995 ] final   -7.23 input   59.86 | X-H torsion
[ 10167 10162 10161 10158 ] final  -19.82 input  -65.29 | X-H torsion
[ 10718 10713 10712 10709 ] final -101.31 input   66.30 | X-H torsion
[ 10763 10752 10751 10750 ] final -157.05 input  -60.55 | X-H torsion
[ 11005 11000 10999 10996 ] final  -17.24 input  -57.11 | X-H torsion

> <Gold.Protein.ActiveResidues>
 VAL166  LYS551  ARG553  GLY616  TRP617  ASP618  TYR619  PRO620  LYS621  CYS622 
 ASP623  PHE694  ASN695  SER759  ASP760  ASP761  ALA762  ILE779  LEU786  VAL792 
 PHE793  MET794  SER795  GLU796  ALA797  LYS798  CYS799  TRP800  GLU811  SER814 

> <Gold.Protein.RotatedAtoms>
  152.5273  133.9720  159.7766 H   0  0  0  0  0  0  0  0  0  0  0  0  # atno 6907 bound_to 6896
  150.9990  133.6066  159.2704 H   0  0  0  0  0  0  0  0  0  0  0  0  # atno 6908 bound_to 6896
  151.3182  135.0818  159.9349 H   0  0  0  0  0  0  0  0  0  0  0  0  # atno 6909 bound_to 6896
  146.1905  140.3884  142.8460 H   0  0  0  0  0  0  0  0  0  0  0  0  # atno 7974 bound_to 7965
  154.5858  140.2412  155.7989 H   0  0  0  0  0  0  0  0  0  0  0  0  # atno 8008 bound_to 7997
  156.2212  140.2997  155.9913 H   0  0  0  0  0  0  0  0  0  0  0  0  # atno 8009 bound_to 7997
  155.2460  140.0409  157.2971 H   0  0  0  0  0  0  0  0  0  0  0  0  # atno 8010 bound_to 7997
  140.7271  143.4781  151.0154 H   0  0  0  0  0  0  0  0  0  0  0  0  # atno 10167 bound_to 10162
  156.0190  130.5367  150.6944 H   0  0  0  0  0  0  0  0  0  0  0  0  # atno 10718 bound_to 10713
  154.7666  135.3133  154.8274 H   0  0  0  0  0  0  0  0  0  0  0  0  # atno 10763 bound_to 10752
  153.9021  135.6814  153.4759 H   0  0  0  0  0  0  0  0  0  0  0  0  # atno 10764 bound_to 10752
  153.1273  135.4796  154.9225 H   0  0  0  0  0  0  0  0  0  0  0  0  # atno 10765 bound_to 10752
  140.8148  133.8113  155.9600 H   0  0  0  0  0  0  0  0  0  0  0  0  # atno 11005 bound_to 11000
  144.8477  140.6954  143.6188 LP  0  0  0  0  0  0  0  0  0  0  0  0  # atno 17320 bound_to 7965
  145.3808  139.1637  143.4282 LP  0  0  0  0  0  0  0  0  0  0  0  0  # atno 17321 bound_to 7965
  139.8478  143.7478  152.3179 LP  0  0  0  0  0  0  0  0  0  0  0  0  # atno 17342 bound_to 10162
  139.7650  144.7495  151.0308 LP  0  0  0  0  0  0  0  0  0  0  0  0  # atno 17343 bound_to 10162
  157.4618  131.0884  151.0737 LP  0  0  0  0  0  0  0  0  0  0  0  0  # atno 17370 bound_to 10713
  157.1223  130.6067  149.5508 LP  0  0  0  0  0  0  0  0  0  0  0  0  # atno 17371 bound_to 10713
  140.9160  134.2201  157.4956 LP  0  0  0  0  0  0  0  0  0  0  0  0  # atno 17394 bound_to 11000
  139.8712  134.9771  156.4947 LP  0  0  0  0  0  0  0  0  0  0  0  0  # atno 17395 bound_to 11000

$$$$
