AV-unprocessed.smi:87|AV-procd|sdf|820|dock7
  -GOLD-   2262017223D 1   1.00000     0.00000
 Structure written by MMmdl.
 58 60  0  0  0  0  0  0  0  0  1 V2000
  152.1761  144.8662  159.2141 C   0  0  0  0  0  0  0  0  0  0  0  0
  152.0482  143.7365  158.1817 C   0  0  0  0  0  0  0  0  0  0  0  0
  151.2237  142.5195  158.6651 C   0  0  0  0  0  0  0  0  0  0  0  0
  152.0712  141.5831  159.5577 C   0  0  0  0  0  0  0  0  0  0  0  0
  152.8293  142.3028  160.6832 C   0  0  0  0  0  0  0  0  0  0  0  0
  150.6220  141.7344  157.4705 C   0  0  0  0  0  0  0  0  0  0  0  0
  150.6752  140.2772  157.6219 N   0  0  0  0  0  0  0  0  0  0  0  0
  151.9233  139.5693  157.3393 C   0  0  0  0  0  0  0  0  0  0  0  0
  151.8339  138.6957  156.0788 C   0  0  0  0  0  0  0  0  0  0  0  0
  151.0256  139.3198  155.0216 C   0  0  0  0  0  0  0  0  0  0  0  0
  150.3896  139.8113  154.1897 N   0  0  0  0  0  0  0  0  0  0  0  0
  149.5031  139.5974  157.7556 C   0  0  0  0  0  0  0  0  0  0  0  0
  148.4452  140.0061  157.0059 N   0  0  0  0  0  0  0  0  0  0  0  0
  147.2687  139.3797  157.0878 C   0  0  0  0  0  0  0  0  0  0  0  0
  146.9321  138.3349  157.8444 N   0  0  0  0  0  0  0  0  0  0  0  0
  147.9879  137.9099  158.5947 C   0  0  0  0  0  0  0  0  0  0  0  0
  149.2968  138.4737  158.6123 C   0  0  0  0  0  0  0  0  0  0  0  0
  150.0988  137.7509  159.4902 N   0  0  0  0  0  0  0  0  0  0  0  0
  149.3116  136.8274  159.9685 C   0  0  0  0  0  0  0  0  0  0  0  0
  148.0255  136.8503  159.4837 N   0  0  0  0  0  0  0  0  0  0  0  0
  146.9486  135.9409  159.8380 C   0  0  0  0  0  0  0  0  0  0  0  0
  145.9854  136.5376  160.8901 C   0  0  2  0  0  0  0  0  0  0  0  0
  146.4370  137.8427  161.2024 O   0  0  0  0  0  0  0  0  0  0  0  0
  145.9258  135.7467  162.2193 C   0  0  2  0  0  0  0  0  0  0  0  0
  147.2863  135.3348  162.8084 C   0  0  0  0  0  0  0  0  0  0  0  0
  147.5167  133.9595  162.2270 C   0  0  0  0  0  0  0  0  0  0  0  0
  146.1051  133.3968  162.2541 C   0  0  0  0  0  0  0  0  0  0  0  0
  145.2702  134.5051  161.9417 O   0  0  0  0  0  0  0  0  0  0  0  0
  152.6851  145.7263  158.7785 H   0  0  0  0  0  0  0  0  0  0  0  0
  152.7504  144.5621  160.0881 H   0  0  0  0  0  0  0  0  0  0  0  0
  151.1957  145.2018  159.5534 H   0  0  0  0  0  0  0  0  0  0  0  0
  151.5777  144.1717  157.3014 H   0  0  0  0  0  0  0  0  0  0  0  0
  153.0392  143.4125  157.8621 H   0  0  0  0  0  0  0  0  0  0  0  0
  150.4050  142.8987  159.2777 H   0  0  0  0  0  0  0  0  0  0  0  0
  151.4389  140.8022  159.9819 H   0  0  0  0  0  0  0  0  0  0  0  0
  152.8158  141.0676  158.9535 H   0  0  0  0  0  0  0  0  0  0  0  0
  153.4788  141.6063  161.2137 H   0  0  0  0  0  0  0  0  0  0  0  0
  152.1549  142.7382  161.4195 H   0  0  0  0  0  0  0  0  0  0  0  0
  153.4567  143.1014  160.2863 H   0  0  0  0  0  0  0  0  0  0  0  0
  149.5885  142.0477  157.3203 H   0  0  0  0  0  0  0  0  0  0  0  0
  151.1324  141.9915  156.5436 H   0  0  0  0  0  0  0  0  0  0  0  0
  152.7459  140.2782  157.2561 H   0  0  0  0  0  0  0  0  0  0  0  0
  152.1742  138.9300  158.1859 H   0  0  0  0  0  0  0  0  0  0  0  0
  152.8293  138.5142  155.6734 H   0  0  0  0  0  0  0  0  0  0  0  0
  151.3924  137.7233  156.2931 H   0  0  0  0  0  0  0  0  0  0  0  0
  146.4855  139.7717  156.4559 H   0  0  0  0  0  0  0  0  0  0  0  0
  149.6507  136.0968  160.6884 H   0  0  0  0  0  0  0  0  0  0  0  0
  146.4186  135.6975  158.9180 H   0  0  0  0  0  0  0  0  0  0  0  0
  147.3830  135.0101  160.2044 H   0  0  0  0  0  0  0  0  0  0  0  0
  144.9868  136.6121  160.4576 H   0  0  0  0  0  0  0  0  0  0  0  0
  145.9493  138.1597  161.9474 H   0  0  0  0  0  0  0  0  0  0  0  0
  145.3625  136.3096  162.9654 H   0  0  0  0  0  0  0  0  0  0  0  0
  148.1060  136.0222  162.6104 H   0  0  0  0  0  0  0  0  0  0  0  0
  147.1973  135.2514  163.8926 H   0  0  0  0  0  0  0  0  0  0  0  0
  147.8782  134.0359  161.2008 H   0  0  0  0  0  0  0  0  0  0  0  0
  148.2254  133.3622  162.8010 H   0  0  0  0  0  0  0  0  0  0  0  0
  145.9637  132.5762  161.5503 H   0  0  0  0  0  0  0  0  0  0  0  0
  145.8556  133.0374  163.2533 H   0  0  0  0  0  0  0  0  0  0  0  0
  1  2  1  0  0  0  0
  1 29  1  0  0  0  0
  1 30  1  0  0  0  0
  1 31  1  0  0  0  0
  2  3  1  0  0  0  0
  2 32  1  0  0  0  0
  2 33  1  0  0  0  0
  3  4  1  0  0  0  0
  3  6  1  0  0  0  0
  3 34  1  0  0  0  0
  4  5  1  0  0  0  0
  4 35  1  0  0  0  0
  4 36  1  0  0  0  0
  5 37  1  0  0  0  0
  5 38  1  0  0  0  0
  5 39  1  0  0  0  0
  6  7  1  0  0  0  0
  6 40  1  0  0  0  0
  6 41  1  0  0  0  0
  7  8  1  0  0  0  0
  7 12  1  0  0  0  0
  8  9  1  0  0  0  0
  8 42  1  0  0  0  0
  8 43  1  0  0  0  0
  9 10  1  0  0  0  0
  9 44  1  0  0  0  0
  9 45  1  0  0  0  0
 10 11  3  0  0  0  0
 12 17  1  0  0  0  0
 12 13  2  0  0  0  0
 13 14  1  0  0  0  0
 14 15  2  0  0  0  0
 14 46  1  0  0  0  0
 15 16  1  0  0  0  0
 16 20  1  0  0  0  0
 16 17  2  0  0  0  0
 17 18  1  0  0  0  0
 18 19  2  0  0  0  0
 19 20  1  0  0  0  0
 19 47  1  0  0  0  0
 20 21  1  0  0  0  0
 21 22  1  0  0  0  0
 21 48  1  0  0  0  0
 21 49  1  0  0  0  0
 22 23  1  0  0  0  0
 22 24  1  0  0  0  0
 22 50  1  0  0  0  0
 23 51  1  0  0  0  0
 24 28  1  0  0  0  0
 24 25  1  0  0  0  0
 24 52  1  0  0  0  0
 25 26  1  0  0  0  0
 25 53  1  0  0  0  0
 25 54  1  0  0  0  0
 26 27  1  0  0  0  0
 26 55  1  0  0  0  0
 26 56  1  0  0  0  0
 27 28  1  0  0  0  0
 27 57  1  0  0  0  0
 27 58  1  0  0  0  0
M  END
> <s_m_source_file>
AV-unprocessed.smi

> <i_m_source_file_index>
87

> <i_lp_mmshare_version>
43012

> <i_f3d_flags>
0

> <s_epik_input>
W0NIM11bQ0gyXVtDSF0oW0NIMl1bQ0gzXSlbQ0gyXU4oW0NIMl1bQ0gyXUMjTiljKG5bY0hdbjEpYyhjMTIpbltjSF1uMltDSDJdW0NASF0oW09IXSlbQ0BASF0zW0NIMl1bQ0gyXVtDSDJdTzM=

> <s_epik_cmdline>
J2VwaWtfcHl0aG9uJywgJy1waCcsICc3LjAnLCAnLXRuJywgJzgnLCAnLW1hJywgJzIwMCcsICctbWV0YWxfYmluZGluZycsICctaW1hZScsICc8aW5maWxlLm1hZT4nLCAnLW9tYWUnLCAnPG91dGZpbGUubWFlPic=

> <r_lp_tautomer_probability>
1

> <r_epik_Ionization_Penalty>
0.000348566

> <r_epik_Ionization_Penalty_Charging>
0

> <r_epik_Ionization_Penalty_Neutral>
0.000348566

> <r_epik_State_Penalty>
-0

> <r_epik_Charging_Adjusted_Penalty>
0

> <i_epik_Tot_Q>
0

> <i_epik_Tot_abs_Q>
0

> <r_epik_Metal_State_Penalty>
-0

> <b_epik_Metal_Only>
0

> <s_lp_Force_Field>
OPLS_2005

> <r_lp_Energy>
36.7846

> <b_lp_Chiralities_Consistent>
1

> <s_lp_Variant>
AV-unprocessed.smi:87-1

> <Gold.Version>
5.8.1

> <Gold.Id.Protein>
6NUR|6NUR_protein|mol2

> <Gold.PLP.Fitness>
49.4834

> <Gold.PLP.PLP>
-50.5311

> <Gold.PLP.part.hbond>
-2.6475

> <Gold.PLP.part.metal>
0.0000

> <Gold.PLP.part.buried>
-6.1892

> <Gold.PLP.part.nonpolar>
-43.1832

> <Gold.PLP.part.repulsive>
0.1682

> <Gold.PLP.ligand.clash>
0.0072

> <Gold.PLP.ligand.torsion>
3.1473

> <Gold.PLP.Chemscore.Hbond>
1.5070

> <Gold.PLP.Chemscore.CHOScore>
0.0000

> <Gold.PLP.Chemscore.Metal>
0.0000

> <Gold.Chemscore.Hbonds>
donor molecule, donor type, donor heavy atom, donor atom, acceptor molecule, acceptor atom, score
      P1  H  6934  6947       L1    23  0.59
      P1  H  7989  7998       L1    11  0.95

> <Gold.PLP.Chemscore.Internal.Correction>
0.7331

> <Gold.Rescore>
     Score         DG    S(hbond)    S(metal)    S(lipo)     H(rot)  DE(clash)    DE(int)     intcor
     11.60     -15.47       1.51        0.00     115.88       3.37       0.13       3.74       ----

> <Gold.Chemscore.Fitness>
11.5954

> <Gold.Chemscore.DG>
-15.4650

> <Gold.Chemscore.ZeroCoef>
-5.4800

> <Gold.Chemscore.Hbond>
1.5112

> <Gold.Chemscore.Metal>
0.0000

> <Gold.Chemscore.Lipo>
115.8770

> <Gold.Chemscore.Internal_Hbond>
0.0000

> <Gold.Chemscore.DEClash>
0.1270

> <Gold.Chemscore.DEInternal>
3.7426

> <Gold.Chemscore.Rot>
3.3672

> <Gold.Chemscore.Internal.Correction>
   9.000000E+99

> <Gold.Chemscore.Hbonds>
donor molecule, donor type, donor heavy atom, donor atom, acceptor molecule, acceptor atom, score
      P1  H  6934  6947       L1    23  0.10
      P1  H  7989  7998       L1    11  0.21

> <Gold.Chemscore.Hbond.Weighted>
-5.0475

> <Gold.Chemscore.Metal.Weighted>
-0.0000

> <Gold.Chemscore.Lipo.Weighted>
-13.5576

> <Gold.Chemscore.Internal_Hbond.Weighted>
0.0000

> <Gold.Chemscore.DEClash.Weighted>
0.1270

> <Gold.Chemscore.DEInternal.Weighted>
3.7426

> <Gold.Chemscore.Rot.Weighted>
8.6201

> <Gold.Chemscore.Internal.Correction.Weighted>
   9.000000E+99

> <Gold.Protein.RotatedTorsions>
[ 6907 6896 6895 6894 ] final   75.05 input  -60.11 | X-H torsion
[ 7974 7965 7964 7962 ] final    3.31 input  175.53 | X-H torsion
[ 8008 7997 7996 7995 ] final    9.69 input   59.86 | X-H torsion
[ 10167 10162 10161 10158 ] final   90.51 input  -65.29 | X-H torsion
[ 10718 10713 10712 10709 ] final -127.01 input   66.30 | X-H torsion
[ 10763 10752 10751 10750 ] final -123.75 input  -60.55 | X-H torsion
[ 11005 11000 10999 10996 ] final -143.05 input  -57.11 | X-H torsion

> <Gold.Protein.ActiveResidues>
 VAL166  LYS551  ARG553  GLY616  TRP617  ASP618  TYR619  PRO620  LYS621  CYS622 
 ASP623  PHE694  ASN695  SER759  ASP760  ASP761  ALA762  ILE779  LEU786  VAL792 
 PHE793  MET794  SER795  GLU796  ALA797  LYS798  CYS799  TRP800  GLU811  SER814 

> <Gold.Protein.RotatedAtoms>
  152.5007  134.4179  159.9470 H   0  0  0  0  0  0  0  0  0  0  0  0  # atno 6907 bound_to 6896
  151.4150  133.3709  159.2756 H   0  0  0  0  0  0  0  0  0  0  0  0  # atno 6908 bound_to 6896
  150.9264  134.8702  159.7582 H   0  0  0  0  0  0  0  0  0  0  0  0  # atno 6909 bound_to 6896
  146.2445  140.0705  142.8363 H   0  0  0  0  0  0  0  0  0  0  0  0  # atno 7974 bound_to 7965
  154.7834  140.2823  155.6046 H   0  0  0  0  0  0  0  0  0  0  0  0  # atno 8008 bound_to 7997
  156.2953  140.2618  156.2593 H   0  0  0  0  0  0  0  0  0  0  0  0  # atno 8009 bound_to 7997
  154.9756  140.0375  157.2244 H   0  0  0  0  0  0  0  0  0  0  0  0  # atno 8010 bound_to 7997
  139.8466  144.6614  150.9219 H   0  0  0  0  0  0  0  0  0  0  0  0  # atno 10167 bound_to 10162
  156.1817  130.6736  151.0313 H   0  0  0  0  0  0  0  0  0  0  0  0  # atno 10718 bound_to 10713
  154.8713  135.4087  154.2994 H   0  0  0  0  0  0  0  0  0  0  0  0  # atno 10763 bound_to 10752
  153.3856  135.7013  153.6538 H   0  0  0  0  0  0  0  0  0  0  0  0  # atno 10764 bound_to 10752
  153.5342  135.3661  155.2661 H   0  0  0  0  0  0  0  0  0  0  0  0  # atno 10765 bound_to 10752
  140.8163  134.2684  157.4919 H   0  0  0  0  0  0  0  0  0  0  0  0  # atno 11005 bound_to 11000
  145.0820  140.9227  143.4819 LP  0  0  0  0  0  0  0  0  0  0  0  0  # atno 17320 bound_to 7965
  145.0860  139.2925  143.5759 LP  0  0  0  0  0  0  0  0  0  0  0  0  # atno 17321 bound_to 7965
  140.7792  143.3864  151.1386 LP  0  0  0  0  0  0  0  0  0  0  0  0  # atno 17342 bound_to 10162
  139.7506  143.8784  152.3075 LP  0  0  0  0  0  0  0  0  0  0  0  0  # atno 17343 bound_to 10162
  157.6873  131.0821  150.7208 LP  0  0  0  0  0  0  0  0  0  0  0  0  # atno 17370 bound_to 10713
  156.7265  130.4696  149.5510 LP  0  0  0  0  0  0  0  0  0  0  0  0  # atno 17371 bound_to 10713
  139.8711  134.9511  156.4075 LP  0  0  0  0  0  0  0  0  0  0  0  0  # atno 17394 bound_to 11000
  140.9145  133.7688  155.9831 LP  0  0  0  0  0  0  0  0  0  0  0  0  # atno 17395 bound_to 11000

$$$$
