AV-unprocessed.smi:1205|AV-procd|sdf|5042|dock10
  -GOLD-   22720 4 63D 1   1.00000     0.00000
 Structure written by MMmdl.
 49 50  0  0  0  0  0  0  0  0  2 V2000
  139.1415  145.2458  152.4128 C   0  0  0  0  0  0  0  0  0  0  0  0
  140.0934  144.1694  152.8435 C   0  0  0  0  0  0  0  0  0  0  0  0
  141.5026  144.2676  153.0336 C   0  0  0  0  0  0  0  0  0  0  0  0
  141.8433  142.9996  153.4182 C   0  0  0  0  0  0  0  0  0  0  0  0
  143.0693  142.5004  153.7278 N   0  0  0  0  0  0  0  0  0  0  0  0
  143.9506  142.9439  154.6409 C   0  0  0  0  0  0  0  0  0  0  0  0
  143.7894  143.9152  155.3801 O   0  0  0  0  0  0  0  0  0  0  0  0
  145.0523  142.1805  154.6613 N   0  0  0  0  0  0  0  0  0  0  0  0
  146.1963  142.3903  155.5429 C   0  0  0  0  0  0  0  0  0  0  0  0
  147.3569  141.4033  155.2553 C   0  0  1  0  0  0  0  0  0  0  0  0
  147.7140  141.3251  153.7588 C   0  0  0  0  0  0  0  0  0  0  0  0
  148.5746  141.6751  156.0731 N   0  3  2  0  0  0  0  0  0  0  0  0
  149.7661  140.8993  155.6396 C   0  0  0  0  0  0  0  0  0  0  0  0
  151.0374  141.4251  156.3252 C   0  0  0  0  0  0  0  0  0  0  0  0
  150.8875  141.4128  157.8539 C   0  0  0  0  0  0  0  0  0  0  0  0
  149.6133  142.1548  158.3012 C   0  0  1  0  0  0  0  0  0  0  0  0
  149.7390  143.6838  158.1830 C   0  0  0  0  0  0  0  0  0  0  0  0
  148.3814  141.6119  157.5488 C   0  0  0  0  0  0  0  0  0  0  0  0
  140.7068  142.2221  153.4455 N   0  0  0  0  0  0  0  0  0  0  0  0
  140.5568  140.8194  153.7814 C   0  0  0  0  0  0  0  0  0  0  0  0
  139.6265  142.9505  153.0901 N   0  0  0  0  0  0  0  0  0  0  0  0
  139.6574  146.1961  152.2738 H   0  0  0  0  0  0  0  0  0  0  0  0
  138.3590  145.3993  153.1562 H   0  0  0  0  0  0  0  0  0  0  0  0
  138.6603  144.9887  151.4688 H   0  0  0  0  0  0  0  0  0  0  0  0
  142.1359  145.1316  152.9006 H   0  0  0  0  0  0  0  0  0  0  0  0
  143.3413  141.6794  153.2075 H   0  0  0  0  0  0  0  0  0  0  0  0
  145.1055  141.4015  154.0209 H   0  0  0  0  0  0  0  0  0  0  0  0
  146.5240  143.4194  155.3969 H   0  0  0  0  0  0  0  0  0  0  0  0
  145.8664  142.3156  156.5801 H   0  0  0  0  0  0  0  0  0  0  0  0
  147.0218  140.4016  155.5275 H   0  0  0  0  0  0  0  0  0  0  0  0
  146.8792  140.9392  153.1733 H   0  0  0  0  0  0  0  0  0  0  0  0
  148.5586  140.6562  153.5914 H   0  0  0  0  0  0  0  0  0  0  0  0
  147.9740  142.3007  153.3487 H   0  0  0  0  0  0  0  0  0  0  0  0
  149.6275  139.8424  155.8705 H   0  0  0  0  0  0  0  0  0  0  0  0
  149.8896  140.9742  154.5586 H   0  0  0  0  0  0  0  0  0  0  0  0
  151.8945  140.8176  156.0331 H   0  0  0  0  0  0  0  0  0  0  0  0
  151.2500  142.4373  155.9798 H   0  0  0  0  0  0  0  0  0  0  0  0
  150.8372  140.3784  158.1962 H   0  0  0  0  0  0  0  0  0  0  0  0
  151.7703  141.8465  158.3250 H   0  0  0  0  0  0  0  0  0  0  0  0
  149.4695  141.9405  159.3610 H   0  0  0  0  0  0  0  0  0  0  0  0
  149.8661  144.0043  157.1491 H   0  0  0  0  0  0  0  0  0  0  0  0
  150.5934  144.0518  158.7518 H   0  0  0  0  0  0  0  0  0  0  0  0
  148.8495  144.1792  158.5731 H   0  0  0  0  0  0  0  0  0  0  0  0
  147.4978  142.1754  157.8469 H   0  0  0  0  0  0  0  0  0  0  0  0
  148.2083  140.5777  157.8493 H   0  0  0  0  0  0  0  0  0  0  0  0
  141.0816  140.6051  154.7126 H   0  0  0  0  0  0  0  0  0  0  0  0
  140.9783  140.2065  152.9843 H   0  0  0  0  0  0  0  0  0  0  0  0
  139.5032  140.5653  153.9057 H   0  0  0  0  0  0  0  0  0  0  0  0
  148.8072  142.6371  155.8718 H   0  0  0  0  0  0  0  0  0  0  0  0
  1  2  1  0  0  0  0
  1 22  1  0  0  0  0
  1 23  1  0  0  0  0
  1 24  1  0  0  0  0
  2 21  2  0  0  0  0
  2  3  1  0  0  0  0
  3  4  2  0  0  0  0
  3 25  1  0  0  0  0
  4  5  1  0  0  0  0
  4 19  1  0  0  0  0
  5  6  1  0  0  0  0
  5 26  1  0  0  0  0
  6  7  2  0  0  0  0
  6  8  1  0  0  0  0
  8  9  1  0  0  0  0
  8 27  1  0  0  0  0
  9 10  1  0  0  0  0
  9 28  1  0  0  0  0
  9 29  1  0  0  0  0
 10 11  1  0  0  0  0
 10 12  1  0  0  0  0
 10 30  1  0  0  0  0
 11 31  1  0  0  0  0
 11 32  1  0  0  0  0
 11 33  1  0  0  0  0
 12 18  1  0  0  0  0
 12 13  1  0  0  0  0
 12 49  1  0  0  0  0
 13 14  1  0  0  0  0
 13 34  1  0  0  0  0
 13 35  1  0  0  0  0
 14 15  1  0  0  0  0
 14 36  1  0  0  0  0
 14 37  1  0  0  0  0
 15 16  1  0  0  0  0
 15 38  1  0  0  0  0
 15 39  1  0  0  0  0
 16 17  1  0  0  0  0
 16 18  1  0  0  0  0
 16 40  1  0  0  0  0
 17 41  1  0  0  0  0
 17 42  1  0  0  0  0
 17 43  1  0  0  0  0
 18 44  1  0  0  0  0
 18 45  1  0  0  0  0
 19 20  1  0  0  0  0
 19 21  1  0  0  0  0
 20 46  1  0  0  0  0
 20 47  1  0  0  0  0
 20 48  1  0  0  0  0
M  CHG  1  12   1
M  END
> <s_m_source_file>
AV-unprocessed.smi

> <i_m_source_file_index>
1205

> <i_lp_mmshare_version>
43012

> <i_f3d_flags>
0

> <s_epik_input>
W0NIM11jMVtjSF1jKG4objEpW0NIM10pW05IXUMoPU8pW05IXVtDSDJdW0NASF0oW0NIM10pTjJbQ0gyXVtDSDJdW0NIMl1bQ0BASF0oW0NIM10pW0NIMl0y

> <s_epik_cmdline>
J2VwaWtfcHl0aG9uJywgJy1waCcsICc3LjAnLCAnLXRuJywgJzgnLCAnLW1hJywgJzIwMCcsICctbWV0YWxfYmluZGluZycsICctaW1hZScsICc8aW5maWxlLm1hZT4nLCAnLW9tYWUnLCAnPG91dGZpbGUubWFlPic=

> <r_lp_tautomer_probability>
1

> <r_epik_Ionization_Penalty>
0.0020309

> <r_epik_Ionization_Penalty_Charging>
0.00195276

> <r_epik_Ionization_Penalty_Neutral>
7.81448e-05

> <r_epik_State_Penalty>
0.00133177

> <r_epik_Charging_Adjusted_Penalty>
0.00328452

> <i_epik_Tot_Q>
1

> <i_epik_Tot_abs_Q>
1

> <r_epik_Metal_State_Penalty>
-0

> <b_epik_Metal_Only>
0

> <s_lp_Force_Field>
OPLS_2005

> <r_lp_Energy>
24.2005

> <b_lp_Chiralities_Consistent>
1

> <s_lp_Variant>
AV-unprocessed.smi:1205-4

> <Gold.Version>
5.8.1

> <Gold.Id.Protein>
6NUR|6NUR_protein|mol2

> <Gold.PLP.Fitness>
38.8853

> <Gold.PLP.PLP>
-31.1143

> <Gold.PLP.part.hbond>
-2.0000

> <Gold.PLP.part.metal>
0.0000

> <Gold.PLP.part.buried>
-6.3345

> <Gold.PLP.part.nonpolar>
-22.7309

> <Gold.PLP.part.repulsive>
0.1111

> <Gold.PLP.ligand.clash>
0.0000

> <Gold.PLP.ligand.torsion>
0.6658

> <Gold.PLP.Chemscore.Hbond>
3.0000

> <Gold.PLP.Chemscore.CHOScore>
0.0000

> <Gold.PLP.Chemscore.Metal>
0.0000

> <Gold.Chemscore.Hbonds>
donor molecule, donor type, donor heavy atom, donor atom, acceptor molecule, acceptor atom, score
      L1  H     8    27       P1 10175  0.26
      L1  H    12    49       P1  8028  1.69

> <Gold.PLP.Chemscore.Internal.Correction>
0.1025

> <Gold.Rescore>
     Score         DG    S(hbond)    S(metal)    S(lipo)     H(rot)  DE(clash)    DE(int)     intcor
     15.33     -16.35       1.98        0.00      68.57       1.47       0.45       0.57       ----

> <Gold.Chemscore.Fitness>
15.3333

> <Gold.Chemscore.DG>
-16.3527

> <Gold.Chemscore.ZeroCoef>
-5.4800

> <Gold.Chemscore.Hbond>
1.9770

> <Gold.Chemscore.Metal>
0.0000

> <Gold.Chemscore.Lipo>
68.5651

> <Gold.Chemscore.Internal_Hbond>
0.0000

> <Gold.Chemscore.DEClash>
0.4499

> <Gold.Chemscore.DEInternal>
0.5695

> <Gold.Chemscore.Rot>
1.4658

> <Gold.Chemscore.Internal.Correction>
   9.000000E+99

> <Gold.Chemscore.Hbonds>
donor molecule, donor type, donor heavy atom, donor atom, acceptor molecule, acceptor atom, score
      L1  H     8    27       P1 10175  0.12
      L1  H    12    49       P1  8028  0.84

> <Gold.Chemscore.Hbond.Weighted>
-6.6031

> <Gold.Chemscore.Metal.Weighted>
-0.0000

> <Gold.Chemscore.Lipo.Weighted>
-8.0221

> <Gold.Chemscore.Internal_Hbond.Weighted>
0.0000

> <Gold.Chemscore.DEClash.Weighted>
0.4499

> <Gold.Chemscore.DEInternal.Weighted>
0.5695

> <Gold.Chemscore.Rot.Weighted>
3.7526

> <Gold.Chemscore.Internal.Correction.Weighted>
   9.000000E+99

> <Gold.Protein.RotatedTorsions>
[ 6907 6896 6895 6894 ] final -155.99 input  -60.11 | X-H torsion
[ 7974 7965 7964 7962 ] final  -73.43 input  175.53 | X-H torsion
[ 8008 7997 7996 7995 ] final  119.45 input   59.86 | X-H torsion
[ 10167 10162 10161 10158 ] final   56.34 input  -65.29 | X-H torsion
[ 10718 10713 10712 10709 ] final  -80.50 input   66.30 | X-H torsion
[ 10763 10752 10751 10750 ] final -149.43 input  -60.55 | X-H torsion
[ 11005 11000 10999 10996 ] final   68.94 input  -57.11 | X-H torsion

> <Gold.Protein.ActiveResidues>
 VAL166  LYS551  ARG553  GLY616  TRP617  ASP618  TYR619  PRO620  LYS621  CYS622 
 ASP623  PHE694  ASN695  SER759  ASP760  ASP761  ALA762  ILE779  LEU786  VAL792 
 PHE793  MET794  SER795  GLU796  ALA797  LYS798  CYS799  TRP800  GLU811  SER814 

> <Gold.Protein.RotatedAtoms>
  151.2809  133.4210  159.2626 H   0  0  0  0  0  0  0  0  0  0  0  0  # atno 6907 bound_to 6896
  151.0362  134.9575  159.8147 H   0  0  0  0  0  0  0  0  0  0  0  0  # atno 6908 bound_to 6896
  152.5356  134.2768  159.9045 H   0  0  0  0  0  0  0  0  0  0  0  0  # atno 6909 bound_to 6896
  145.6523  140.9279  143.0978 H   0  0  0  0  0  0  0  0  0  0  0  0  # atno 7974 bound_to 7965
  156.2596  140.2852  156.0993 H   0  0  0  0  0  0  0  0  0  0  0  0  # atno 8008 bound_to 7997
  155.1377  140.0395  157.2808 H   0  0  0  0  0  0  0  0  0  0  0  0  # atno 8009 bound_to 7997
  154.6552  140.2554  155.7175 H   0  0  0  0  0  0  0  0  0  0  0  0  # atno 8010 bound_to 7997
  140.2097  144.3901  150.6494 H   0  0  0  0  0  0  0  0  0  0  0  0  # atno 10167 bound_to 10162
  156.0069  130.4576  150.3810 H   0  0  0  0  0  0  0  0  0  0  0  0  # atno 10718 bound_to 10713
  154.8177  135.3309  154.7128 H   0  0  0  0  0  0  0  0  0  0  0  0  # atno 10763 bound_to 10752
  153.7766  135.6921  153.4900 H   0  0  0  0  0  0  0  0  0  0  0  0  # atno 10764 bound_to 10752
  153.2008  135.4517  155.0212 H   0  0  0  0  0  0  0  0  0  0  0  0  # atno 10765 bound_to 10752
  139.9682  134.6945  156.0501 H   0  0  0  0  0  0  0  0  0  0  0  0  # atno 11005 bound_to 11000
  144.7118  139.8342  143.7412 LP  0  0  0  0  0  0  0  0  0  0  0  0  # atno 17320 bound_to 7965
  146.1194  139.4209  143.0238 LP  0  0  0  0  0  0  0  0  0  0  0  0  # atno 17321 bound_to 7965
  140.6332  143.2190  151.6451 LP  0  0  0  0  0  0  0  0  0  0  0  0  # atno 17342 bound_to 10162
  139.5184  144.3284  152.0848 LP  0  0  0  0  0  0  0  0  0  0  0  0  # atno 17343 bound_to 10162
  157.1890  131.0410  151.2710 LP  0  0  0  0  0  0  0  0  0  0  0  0  # atno 17370 bound_to 10713
  157.4078  130.7368  149.6816 LP  0  0  0  0  0  0  0  0  0  0  0  0  # atno 17371 bound_to 10713
  141.1362  133.6574  156.3600 LP  0  0  0  0  0  0  0  0  0  0  0  0  # atno 17394 bound_to 11000
  140.5350  134.6175  157.5362 LP  0  0  0  0  0  0  0  0  0  0  0  0  # atno 17395 bound_to 11000

$$$$
