AV-unprocessed.smi:1445|AV-procd|sdf|5886|dock4
  -GOLD-   22720 5563D 1   1.00000     0.00000
 Structure written by MMmdl.
 46 47  0  0  0  0  0  0  0  0  2 V2000
  151.0501  143.6006  158.1997 C   0  0  0  0  0  0  0  0  0  0  0  0
  151.8476  142.6767  158.9323 O   0  0  0  0  0  0  0  0  0  0  0  0
  152.1399  142.9607  160.2528 C   0  0  0  0  0  0  0  0  0  0  0  0
  151.5856  144.0647  160.8140 N   0  0  0  0  0  0  0  0  0  0  0  0
  151.8724  144.3442  162.1022 C   0  0  0  0  0  0  0  0  0  0  0  0
  152.7250  143.5508  162.8913 C   0  0  0  0  0  0  0  0  0  0  0  0
  153.3010  142.4052  162.3118 C   0  0  0  0  0  0  0  0  0  0  0  0
  152.9954  142.0887  160.9660 C   0  0  0  0  0  0  0  0  0  0  0  0
  153.5375  140.9650  160.2837 N   0  0  0  0  0  0  0  0  0  0  0  0
  154.7181  140.3588  160.4932 C   0  0  0  0  0  0  0  0  0  0  0  0
  155.5501  140.6929  161.3370 O   0  0  0  0  0  0  0  0  0  0  0  0
  154.8801  139.3071  159.6775 N   0  0  0  0  0  0  0  0  0  0  0  0
  156.0443  138.4287  159.6823 C   0  0  0  0  0  0  0  0  0  0  0  0
  155.6654  136.9982  160.1123 C   0  0  0  0  0  0  0  0  0  0  0  0
  155.8750  136.7710  161.5638 N   0  3  2  0  0  0  0  0  0  0  0  0
  155.8337  135.3289  161.9191 C   0  0  0  0  0  0  0  0  0  0  0  0
  156.1984  135.1106  163.3959 C   0  0  0  0  0  0  0  0  0  0  0  0
  155.2814  135.9288  164.3157 C   0  0  0  0  0  0  0  0  0  0  0  0
  155.2713  137.4158  163.9155 C   0  0  1  0  0  0  0  0  0  0  0  0
  156.5635  138.1499  164.3133 C   0  0  0  0  0  0  0  0  0  0  0  0
  154.9509  137.5705  162.4145 C   0  0  0  0  0  0  0  0  0  0  0  0
  150.9127  143.2319  157.1834 H   0  0  0  0  0  0  0  0  0  0  0  0
  151.5296  144.5783  158.1343 H   0  0  0  0  0  0  0  0  0  0  0  0
  150.0613  143.7154  158.6461 H   0  0  0  0  0  0  0  0  0  0  0  0
  151.4139  145.2311  162.5138 H   0  0  0  0  0  0  0  0  0  0  0  0
  152.9365  143.8179  163.9161 H   0  0  0  0  0  0  0  0  0  0  0  0
  153.9737  141.8025  162.9020 H   0  0  0  0  0  0  0  0  0  0  0  0
  152.9176  140.5225  159.6209 H   0  0  0  0  0  0  0  0  0  0  0  0
  154.1489  139.0989  159.0129 H   0  0  0  0  0  0  0  0  0  0  0  0
  156.4640  138.4144  158.6761 H   0  0  0  0  0  0  0  0  0  0  0  0
  156.8114  138.8549  160.3296 H   0  0  0  0  0  0  0  0  0  0  0  0
  154.6308  136.7665  159.8538 H   0  0  0  0  0  0  0  0  0  0  0  0
  156.2849  136.3040  159.5425 H   0  0  0  0  0  0  0  0  0  0  0  0
  154.8393  134.9298  161.7123 H   0  0  0  0  0  0  0  0  0  0  0  0
  156.5350  134.7735  161.2951 H   0  0  0  0  0  0  0  0  0  0  0  0
  156.1210  134.0516  163.6439 H   0  0  0  0  0  0  0  0  0  0  0  0
  157.2398  135.3873  163.5639 H   0  0  0  0  0  0  0  0  0  0  0  0
  154.2673  135.5328  164.2488 H   0  0  0  0  0  0  0  0  0  0  0  0
  155.5859  135.8130  165.3565 H   0  0  0  0  0  0  0  0  0  0  0  0
  154.4645  137.8946  164.4720 H   0  0  0  0  0  0  0  0  0  0  0  0
  157.4338  137.7603  163.7855 H   0  0  0  0  0  0  0  0  0  0  0  0
  156.7537  138.0549  165.3827 H   0  0  0  0  0  0  0  0  0  0  0  0
  156.4917  139.2143  164.0882 H   0  0  0  0  0  0  0  0  0  0  0  0
  154.9942  138.6250  162.1439 H   0  0  0  0  0  0  0  0  0  0  0  0
  153.9258  137.2480  162.2235 H   0  0  0  0  0  0  0  0  0  0  0  0
  156.8131  137.0834  161.7707 H   0  0  0  0  0  0  0  0  0  0  0  0
  1  2  1  0  0  0  0
  1 22  1  0  0  0  0
  1 23  1  0  0  0  0
  1 24  1  0  0  0  0
  2  3  1  0  0  0  0
  3  8  1  0  0  0  0
  3  4  2  0  0  0  0
  4  5  1  0  0  0  0
  5  6  2  0  0  0  0
  5 25  1  0  0  0  0
  6  7  1  0  0  0  0
  6 26  1  0  0  0  0
  7  8  2  0  0  0  0
  7 27  1  0  0  0  0
  8  9  1  0  0  0  0
  9 10  1  0  0  0  0
  9 28  1  0  0  0  0
 10 11  2  0  0  0  0
 10 12  1  0  0  0  0
 12 13  1  0  0  0  0
 12 29  1  0  0  0  0
 13 14  1  0  0  0  0
 13 30  1  0  0  0  0
 13 31  1  0  0  0  0
 14 15  1  0  0  0  0
 14 32  1  0  0  0  0
 14 33  1  0  0  0  0
 15 21  1  0  0  0  0
 15 16  1  0  0  0  0
 15 46  1  0  0  0  0
 16 17  1  0  0  0  0
 16 34  1  0  0  0  0
 16 35  1  0  0  0  0
 17 18  1  0  0  0  0
 17 36  1  0  0  0  0
 17 37  1  0  0  0  0
 18 19  1  0  0  0  0
 18 38  1  0  0  0  0
 18 39  1  0  0  0  0
 19 20  1  0  0  0  0
 19 21  1  0  0  0  0
 19 40  1  0  0  0  0
 20 41  1  0  0  0  0
 20 42  1  0  0  0  0
 20 43  1  0  0  0  0
 21 44  1  0  0  0  0
 21 45  1  0  0  0  0
M  CHG  1  15   1
M  END
> <s_m_source_file>
AV-unprocessed.smi

> <i_m_source_file_index>
1445

> <i_lp_mmshare_version>
43012

> <i_f3d_flags>
0

> <s_epik_input>
W0NIM11PYzFuW2NIXVtjSF1bY0hdYzFbTkhdQyg9TylbTkhdW0NIMl1bQ0gyXU4yW0NIMl1bQ0gyXVtDSDJdW0NAQEhdKFtDSDNdKVtDSDJdMg==

> <s_epik_cmdline>
J2VwaWtfcHl0aG9uJywgJy1waCcsICc3LjAnLCAnLXRuJywgJzgnLCAnLW1hJywgJzIwMCcsICctbWV0YWxfYmluZGluZycsICctaW1hZScsICc8aW5maWxlLm1hZT4nLCAnLW9tYWUnLCAnPG91dGZpbGUubWFlPic=

> <r_lp_tautomer_probability>
1

> <r_epik_Ionization_Penalty>
0.00179544

> <r_epik_Ionization_Penalty_Charging>
0.00171832

> <r_epik_Ionization_Penalty_Neutral>
7.71118e-05

> <r_epik_State_Penalty>
0.0011618

> <r_epik_Charging_Adjusted_Penalty>
0.00288012

> <i_epik_Tot_Q>
1

> <i_epik_Tot_abs_Q>
1

> <r_epik_Metal_State_Penalty>
-0

> <b_epik_Metal_Only>
0

> <s_lp_Force_Field>
OPLS_2005

> <r_lp_Energy>
21.8434

> <b_lp_Chiralities_Consistent>
1

> <s_lp_Variant>
AV-unprocessed.smi:1445-2

> <Gold.Version>
5.8.1

> <Gold.Id.Protein>
6NUR|6NUR_protein|mol2

> <Gold.PLP.Fitness>
42.3874

> <Gold.PLP.PLP>
-43.3217

> <Gold.PLP.part.hbond>
-1.0000

> <Gold.PLP.part.metal>
0.0000

> <Gold.PLP.part.buried>
-3.3697

> <Gold.PLP.part.nonpolar>
-38.3263

> <Gold.PLP.part.repulsive>
0.2517

> <Gold.PLP.ligand.clash>
0.0000

> <Gold.PLP.ligand.torsion>
0.5055

> <Gold.PLP.Chemscore.Hbond>
0.0000

> <Gold.PLP.Chemscore.CHOScore>
0.0000

> <Gold.PLP.Chemscore.Metal>
0.0000

> <Gold.PLP.Chemscore.Internal.Correction>
0.0767

> <Gold.Rescore>
     Score         DG    S(hbond)    S(metal)    S(lipo)     H(rot)  DE(clash)    DE(int)     intcor
     11.09     -13.78       0.00        0.00     108.39       1.71       0.06       2.63       ----

> <Gold.Chemscore.Fitness>
11.0921

> <Gold.Chemscore.DG>
-13.7824

> <Gold.Chemscore.ZeroCoef>
-5.4800

> <Gold.Chemscore.Hbond>
0.0000

> <Gold.Chemscore.Metal>
0.0000

> <Gold.Chemscore.Lipo>
108.3921

> <Gold.Chemscore.Internal_Hbond>
0.0000

> <Gold.Chemscore.DEClash>
0.0591

> <Gold.Chemscore.DEInternal>
2.6313

> <Gold.Chemscore.Rot>
1.7107

> <Gold.Chemscore.Internal.Correction>
   9.000000E+99

> <Gold.Chemscore.Hbond.Weighted>
-0.0000

> <Gold.Chemscore.Metal.Weighted>
-0.0000

> <Gold.Chemscore.Lipo.Weighted>
-12.6819

> <Gold.Chemscore.Internal_Hbond.Weighted>
0.0000

> <Gold.Chemscore.DEClash.Weighted>
0.0591

> <Gold.Chemscore.DEInternal.Weighted>
2.6313

> <Gold.Chemscore.Rot.Weighted>
4.3794

> <Gold.Chemscore.Internal.Correction.Weighted>
   9.000000E+99

> <Gold.Protein.RotatedTorsions>
[ 6907 6896 6895 6894 ] final -163.19 input  -60.11 | X-H torsion
[ 7974 7965 7964 7962 ] final   -5.82 input  175.53 | X-H torsion
[ 8008 7997 7996 7995 ] final   93.22 input   59.86 | X-H torsion
[ 10167 10162 10161 10158 ] final -125.48 input  -65.29 | X-H torsion
[ 10718 10713 10712 10709 ] final -118.07 input   66.30 | X-H torsion
[ 10763 10752 10751 10750 ] final  144.63 input  -60.55 | X-H torsion
[ 11005 11000 10999 10996 ] final   22.06 input  -57.11 | X-H torsion

> <Gold.Protein.ActiveResidues>
 VAL166  LYS551  ARG553  GLY616  TRP617  ASP618  TYR619  PRO620  LYS621  CYS622 
 ASP623  PHE694  ASN695  SER759  ASP760  ASP761  ALA762  ILE779  LEU786  VAL792 
 PHE793  MET794  SER795  GLU796  ALA797  LYS798  CYS799  TRP800  GLU811  SER814 

> <Gold.Protein.RotatedAtoms>
  151.3921  133.3785  159.2721 H   0  0  0  0  0  0  0  0  0  0  0  0  # atno 6907 bound_to 6896
  150.9497  134.8899  159.7674 H   0  0  0  0  0  0  0  0  0  0  0  0  # atno 6908 bound_to 6896
  152.5106  134.3876  159.9425 H   0  0  0  0  0  0  0  0  0  0  0  0  # atno 6909 bound_to 6896
  146.2345  140.2077  142.8335 H   0  0  0  0  0  0  0  0  0  0  0  0  # atno 7974 bound_to 7965
  156.0442  140.3315  155.7278 H   0  0  0  0  0  0  0  0  0  0  0  0  # atno 8008 bound_to 7997
  155.5698  140.0627  157.2827 H   0  0  0  0  0  0  0  0  0  0  0  0  # atno 8009 bound_to 7997
  154.4406  140.1862  156.0856 H   0  0  0  0  0  0  0  0  0  0  0  0  # atno 8010 bound_to 7997
  139.9817  143.5736  152.2376 H   0  0  0  0  0  0  0  0  0  0  0  0  # atno 10167 bound_to 10162
  156.1079  130.6225  150.9244 H   0  0  0  0  0  0  0  0  0  0  0  0  # atno 10718 bound_to 10713
  153.9921  135.2931  155.3411 H   0  0  0  0  0  0  0  0  0  0  0  0  # atno 10763 bound_to 10752
  154.7208  135.5110  153.8812 H   0  0  0  0  0  0  0  0  0  0  0  0  # atno 10764 bound_to 10752
  153.0805  135.6677  154.0172 H   0  0  0  0  0  0  0  0  0  0  0  0  # atno 10765 bound_to 10752
  140.3847  134.1883  155.7663 H   0  0  0  0  0  0  0  0  0  0  0  0  # atno 11005 bound_to 11000
  144.9731  140.8388  143.5443 LP  0  0  0  0  0  0  0  0  0  0  0  0  # atno 17320 bound_to 7965
  145.2061  139.2227  143.5167 LP  0  0  0  0  0  0  0  0  0  0  0  0  # atno 17321 bound_to 7965
  139.6405  144.7654  151.2349 LP  0  0  0  0  0  0  0  0  0  0  0  0  # atno 17342 bound_to 10162
  140.7487  143.6325  150.8410 LP  0  0  0  0  0  0  0  0  0  0  0  0  # atno 17343 bound_to 10162
  157.6258  131.0926  150.8537 LP  0  0  0  0  0  0  0  0  0  0  0  0  # atno 17370 bound_to 10713
  156.8653  130.5127  149.5300 LP  0  0  0  0  0  0  0  0  0  0  0  0  # atno 17371 bound_to 10713
  141.1911  133.8201  157.0891 LP  0  0  0  0  0  0  0  0  0  0  0  0  # atno 17394 bound_to 11000
  140.0452  134.9834  157.1035 LP  0  0  0  0  0  0  0  0  0  0  0  0  # atno 17395 bound_to 11000

$$$$
