AV-unprocessed.smi:1910|AV-procd|sdf|7736|dock5
  -GOLD-   22720 9473D 1   1.00000     0.00000
 Structure written by MMmdl.
 40 41  0  0  0  0  0  0  0  0  1 V2000
  151.7505  138.3722  154.4094 C   0  0  0  0  0  0  0  0  0  0  0  0
  150.4026  138.2905  153.9594 O   0  0  0  0  0  0  0  0  0  0  0  0
  149.5889  139.3978  154.1076 C   0  0  0  0  0  0  0  0  0  0  0  0
  150.1192  140.5168  154.6624 N   0  0  0  0  0  0  0  0  0  0  0  0
  149.3263  141.5971  154.8137 C   0  0  0  0  0  0  0  0  0  0  0  0
  147.9731  141.6181  154.4303 C   0  0  0  0  0  0  0  0  0  0  0  0
  147.4204  140.4590  153.8548 C   0  0  0  0  0  0  0  0  0  0  0  0
  148.2437  139.3199  153.6757 C   0  0  0  0  0  0  0  0  0  0  0  0
  147.7939  138.0897  153.1176 N   0  0  0  0  0  0  0  0  0  0  0  0
  146.5542  137.5710  153.0902 C   0  0  0  0  0  0  0  0  0  0  0  0
  145.5472  138.0957  153.5646 O   0  0  0  0  0  0  0  0  0  0  0  0
  146.5407  136.3885  152.4592 N   0  0  0  0  0  0  0  0  0  0  0  0
  145.3577  135.5586  152.2539 C   0  0  0  0  0  0  0  0  0  0  0  0
  145.5712  134.1114  152.7428 C   0  0  0  0  0  0  0  0  0  0  0  0
  145.2406  133.0746  151.7669 N   0  0  0  0  0  0  0  0  0  0  0  0
  143.9090  133.2544  151.1934 C   0  0  0  0  0  0  0  0  0  0  0  0
  143.5838  132.1725  150.1488 C   0  0  0  0  0  0  0  0  0  0  0  0
  144.5791  132.1756  149.1309 O   0  0  0  0  0  0  0  0  0  0  0  0
  145.8896  131.9586  149.6439 C   0  0  0  0  0  0  0  0  0  0  0  0
  146.2204  133.0405  150.6865 C   0  0  0  0  0  0  0  0  0  0  0  0
  152.2501  137.4215  154.2249 H   0  0  0  0  0  0  0  0  0  0  0  0
  151.8020  138.5696  155.4813 H   0  0  0  0  0  0  0  0  0  0  0  0
  152.3044  139.1458  153.8755 H   0  0  0  0  0  0  0  0  0  0  0  0
  149.7826  142.4686  155.2593 H   0  0  0  0  0  0  0  0  0  0  0  0
  147.3710  142.5025  154.5781 H   0  0  0  0  0  0  0  0  0  0  0  0
  146.3785  140.4691  153.5778 H   0  0  0  0  0  0  0  0  0  0  0  0
  148.5021  137.5609  152.6297 H   0  0  0  0  0  0  0  0  0  0  0  0
  147.4124  136.0335  152.0943 H   0  0  0  0  0  0  0  0  0  0  0  0
  144.5205  136.0047  152.7932 H   0  0  0  0  0  0  0  0  0  0  0  0
  145.0770  135.5796  151.2004 H   0  0  0  0  0  0  0  0  0  0  0  0
  146.5867  133.9716  153.1172 H   0  0  0  0  0  0  0  0  0  0  0  0
  144.9239  133.9738  153.6100 H   0  0  0  0  0  0  0  0  0  0  0  0
  143.1533  133.2232  151.9782 H   0  0  0  0  0  0  0  0  0  0  0  0
  143.8361  134.2388  150.7287 H   0  0  0  0  0  0  0  0  0  0  0  0
  143.5349  131.1876  150.6157 H   0  0  0  0  0  0  0  0  0  0  0  0
  142.6101  132.3616  149.6967 H   0  0  0  0  0  0  0  0  0  0  0  0
  145.9548  130.9630  150.0857 H   0  0  0  0  0  0  0  0  0  0  0  0
  146.6045  131.9919  148.8219 H   0  0  0  0  0  0  0  0  0  0  0  0
  146.2615  134.0131  150.1937 H   0  0  0  0  0  0  0  0  0  0  0  0
  147.2147  132.8552  151.0940 H   0  0  0  0  0  0  0  0  0  0  0  0
  1  2  1  0  0  0  0
  1 21  1  0  0  0  0
  1 22  1  0  0  0  0
  1 23  1  0  0  0  0
  2  3  1  0  0  0  0
  3  8  1  0  0  0  0
  3  4  2  0  0  0  0
  4  5  1  0  0  0  0
  5  6  2  0  0  0  0
  5 24  1  0  0  0  0
  6  7  1  0  0  0  0
  6 25  1  0  0  0  0
  7  8  2  0  0  0  0
  7 26  1  0  0  0  0
  8  9  1  0  0  0  0
  9 10  1  0  0  0  0
  9 27  1  0  0  0  0
 10 11  2  0  0  0  0
 10 12  1  0  0  0  0
 12 13  1  0  0  0  0
 12 28  1  0  0  0  0
 13 14  1  0  0  0  0
 13 29  1  0  0  0  0
 13 30  1  0  0  0  0
 14 15  1  0  0  0  0
 14 31  1  0  0  0  0
 14 32  1  0  0  0  0
 15 20  1  0  0  0  0
 15 16  1  0  0  0  0
 16 17  1  0  0  0  0
 16 33  1  0  0  0  0
 16 34  1  0  0  0  0
 17 18  1  0  0  0  0
 17 35  1  0  0  0  0
 17 36  1  0  0  0  0
 18 19  1  0  0  0  0
 19 20  1  0  0  0  0
 19 37  1  0  0  0  0
 19 38  1  0  0  0  0
 20 39  1  0  0  0  0
 20 40  1  0  0  0  0
M  END
> <s_m_source_file>
AV-unprocessed.smi

> <i_m_source_file_index>
1910

> <i_lp_mmshare_version>
43012

> <i_f3d_flags>
0

> <s_epik_input>
W0NIM11PYzFuW2NIXVtjSF1bY0hdYzFbTkhdQyg9TylbTkhdW0NIMl1bQ0gyXU4yW0NIMl1bQ0gyXU9bQ0gyXVtDSDJdMg==

> <s_epik_cmdline>
J2VwaWtfcHl0aG9uJywgJy1waCcsICc3LjAnLCAnLXRuJywgJzgnLCAnLW1hJywgJzIwMCcsICctbWV0YWxfYmluZGluZycsICctaW1hZScsICc8aW5maWxlLm1hZT4nLCAnLW9tYWUnLCAnPG91dGZpbGUubWFlPic=

> <r_lp_tautomer_probability>
1

> <r_epik_Ionization_Penalty>
0.266083

> <r_epik_Ionization_Penalty_Charging>
0

> <r_epik_Ionization_Penalty_Neutral>
0.266083

> <r_epik_State_Penalty>
0.257924

> <r_epik_Charging_Adjusted_Penalty>
0.257924

> <i_epik_Tot_Q>
0

> <i_epik_Tot_abs_Q>
0

> <r_epik_Metal_State_Penalty>
0.257922

> <b_epik_Metal_Only>
0

> <s_lp_Force_Field>
OPLS_2005

> <r_lp_Energy>
30.1373

> <b_lp_Chiralities_Consistent>
1

> <s_lp_Variant>
AV-unprocessed.smi:1910-1

> <Gold.Version>
5.8.1

> <Gold.Id.Protein>
6NUR|6NUR_protein|mol2

> <Gold.PLP.Fitness>
45.3116

> <Gold.PLP.PLP>
-34.6676

> <Gold.PLP.part.hbond>
-3.4643

> <Gold.PLP.part.metal>
0.0000

> <Gold.PLP.part.buried>
-3.1618

> <Gold.PLP.part.nonpolar>
-30.6136

> <Gold.PLP.part.repulsive>
0.9123

> <Gold.PLP.ligand.clash>
0.0000

> <Gold.PLP.ligand.torsion>
0.5857

> <Gold.PLP.Chemscore.Hbond>
2.9280

> <Gold.PLP.Chemscore.CHOScore>
1.0000

> <Gold.PLP.Chemscore.Metal>
0.0000

> <Gold.Chemscore.Hbonds>
donor molecule, donor type, donor heavy atom, donor atom, acceptor molecule, acceptor atom, score
      L1  H     9    27       P1  7948  1.00
      L1  H    12    28       P1  7948  1.00
      P1  H  7989  7998       L1     4  0.91
      L1  C     5    24       P1  8028  1.00

> <Gold.PLP.Chemscore.Internal.Correction>
0.0314

> <Gold.Rescore>
     Score         DG    S(hbond)    S(metal)    S(lipo)     H(rot)  DE(clash)    DE(int)     intcor
     15.17     -16.88       2.08        0.00      76.66       1.76       0.17       1.53       ----

> <Gold.Chemscore.Fitness>
15.1684

> <Gold.Chemscore.DG>
-16.8752

> <Gold.Chemscore.ZeroCoef>
-5.4800

> <Gold.Chemscore.Hbond>
2.0773

> <Gold.Chemscore.Metal>
0.0000

> <Gold.Chemscore.Lipo>
76.6604

> <Gold.Chemscore.Internal_Hbond>
0.0000

> <Gold.Chemscore.DEClash>
0.1732

> <Gold.Chemscore.DEInternal>
1.5337

> <Gold.Chemscore.Rot>
1.7626

> <Gold.Chemscore.Internal.Correction>
   9.000000E+99

> <Gold.Chemscore.Hbonds>
donor molecule, donor type, donor heavy atom, donor atom, acceptor molecule, acceptor atom, score
      L1  H     9    27       P1  7948  0.93
      L1  H    12    28       P1  7948  0.90
      P1  H  7989  7998       L1     4  0.25

> <Gold.Chemscore.Hbond.Weighted>
-6.9383

> <Gold.Chemscore.Metal.Weighted>
-0.0000

> <Gold.Chemscore.Lipo.Weighted>
-8.9693

> <Gold.Chemscore.Internal_Hbond.Weighted>
0.0000

> <Gold.Chemscore.DEClash.Weighted>
0.1732

> <Gold.Chemscore.DEInternal.Weighted>
1.5337

> <Gold.Chemscore.Rot.Weighted>
4.5123

> <Gold.Chemscore.Internal.Correction.Weighted>
   9.000000E+99

> <Gold.Protein.RotatedTorsions>
[ 6907 6896 6895 6894 ] final  -94.15 input  -60.11 | X-H torsion
[ 7974 7965 7964 7962 ] final  169.95 input  175.53 | X-H torsion
[ 8008 7997 7996 7995 ] final -122.71 input   59.86 | X-H torsion
[ 10167 10162 10161 10158 ] final -112.90 input  -65.29 | X-H torsion
[ 10718 10713 10712 10709 ] final    7.94 input   66.30 | X-H torsion
[ 10763 10752 10751 10750 ] final  -91.75 input  -60.55 | X-H torsion
[ 11005 11000 10999 10996 ] final   21.40 input  -57.11 | X-H torsion

> <Gold.Protein.ActiveResidues>
 VAL166  LYS551  ARG553  GLY616  TRP617  ASP618  TYR619  PRO620  LYS621  CYS622 
 ASP623  PHE694  ASN695  SER759  ASP760  ASP761  ALA762  ILE779  LEU786  VAL792 
 PHE793  MET794  SER795  GLU796  ALA797  LYS798  CYS799  TRP800  GLU811  SER814 

> <Gold.Protein.RotatedAtoms>
  150.6936  134.1857  159.4265 H   0  0  0  0  0  0  0  0  0  0  0  0  # atno 6907 bound_to 6896
  151.9830  135.0016  160.0567 H   0  0  0  0  0  0  0  0  0  0  0  0  # atno 6908 bound_to 6896
  152.1738  133.4626  159.4959 H   0  0  0  0  0  0  0  0  0  0  0  0  # atno 6909 bound_to 6896
  144.7339  139.9130  143.6416 H   0  0  0  0  0  0  0  0  0  0  0  0  # atno 7974 bound_to 7965
  155.1686  140.0407  157.2858 H   0  0  0  0  0  0  0  0  0  0  0  0  # atno 8008 bound_to 7997
  154.6285  140.2518  155.7435 H   0  0  0  0  0  0  0  0  0  0  0  0  # atno 8009 bound_to 7997
  156.2472  140.2880  156.0626 H   0  0  0  0  0  0  0  0  0  0  0  0  # atno 8010 bound_to 7997
  140.1177  143.4471  152.1711 H   0  0  0  0  0  0  0  0  0  0  0  0  # atno 10167 bound_to 10162
  156.9443  130.5873  149.5654 H   0  0  0  0  0  0  0  0  0  0  0  0  # atno 10718 bound_to 10713
  154.6792  135.5256  153.8240 H   0  0  0  0  0  0  0  0  0  0  0  0  # atno 10763 bound_to 10752
  153.0553  135.6548  154.0602 H   0  0  0  0  0  0  0  0  0  0  0  0  # atno 10764 bound_to 10752
  154.0491  135.2971  155.3323 H   0  0  0  0  0  0  0  0  0  0  0  0  # atno 10765 bound_to 10752
  140.3920  134.1809  155.7663 H   0  0  0  0  0  0  0  0  0  0  0  0  # atno 11005 bound_to 11000
  146.0987  139.3981  143.0360 LP  0  0  0  0  0  0  0  0  0  0  0  0  # atno 17320 bound_to 7965
  145.7609  140.9935  143.1200 LP  0  0  0  0  0  0  0  0  0  0  0  0  # atno 17321 bound_to 7965
  139.5585  144.7389  151.4223 LP  0  0  0  0  0  0  0  0  0  0  0  0  # atno 17342 bound_to 10162
  140.6890  143.7907  150.7227 LP  0  0  0  0  0  0  0  0  0  0  0  0  # atno 17343 bound_to 10162
  156.0390  130.5475  150.8725 LP  0  0  0  0  0  0  0  0  0  0  0  0  # atno 17370 bound_to 10713
  157.5764  131.0946  150.9339 LP  0  0  0  0  0  0  0  0  0  0  0  0  # atno 17371 bound_to 10713
  141.1887  133.8254  157.0984 LP  0  0  0  0  0  0  0  0  0  0  0  0  # atno 17394 bound_to 11000
  140.0399  134.9859  157.0942 LP  0  0  0  0  0  0  0  0  0  0  0  0  # atno 17395 bound_to 11000

$$$$
