AV-unprocessed.smi:1410|AV-procd|sdf|5736|dock7
  -GOLD-   22720 5373D 1   1.00000     0.00000
 Structure written by MMmdl.
 39 40  0  0  0  0  0  0  0  0  3 V2000
  142.6094  140.3883  154.9198 N   0  5  0  0  0  0  0  0  0  0  0  0
  143.0508  141.2204  155.8823 C   0  0  0  0  0  0  0  0  0  0  0  0
  142.7923  141.1924  157.0835 O   0  0  0  0  0  0  0  0  0  0  0  0
  143.9624  142.3212  155.3305 C   0  0  0  0  0  0  0  0  0  0  0  0
  145.1769  141.7280  154.7161 N   0  3  2  0  0  0  0  0  0  0  0  0
  145.9861  140.9261  155.6740 C   0  0  0  0  0  0  0  0  0  0  0  0
  147.1646  140.2357  154.9658 C   0  0  0  0  0  0  0  0  0  0  0  0
  148.0581  141.2448  154.2188 C   0  0  2  0  0  0  0  0  0  0  0  0
  148.8033  142.0975  155.1446 N   0  0  0  0  0  0  0  0  0  0  0  0
  149.7700  141.6814  155.9758 C   0  0  0  0  0  0  0  0  0  0  0  0
  150.1489  140.5124  156.0412 O   0  0  0  0  0  0  0  0  0  0  0  0
  150.2357  142.6973  156.7232 N   0  0  0  0  0  0  0  0  0  0  0  0
  151.2311  142.6728  157.7376 C   0  0  0  0  0  0  0  0  0  0  0  0
  151.7342  143.9100  158.1907 C   0  0  0  0  0  0  0  0  0  0  0  0
  152.7312  143.9142  159.1867 C   0  0  0  0  0  0  0  0  0  0  0  0
  153.2421  142.7892  159.7293 N   0  0  0  0  0  0  0  0  0  0  0  0
  152.7698  141.6056  159.2842 C   0  0  0  0  0  0  0  0  0  0  0  0
  151.7744  141.4894  158.2932 C   0  0  0  0  0  0  0  0  0  0  0  0
  147.1905  142.0997  153.2796 C   0  0  0  0  0  0  0  0  0  0  0  0
  146.0027  142.7458  154.0173 C   0  0  0  0  0  0  0  0  0  0  0  0
  142.8543  140.5914  153.9432 H   0  0  0  0  0  0  0  0  0  0  0  0
  143.3863  142.8556  154.5739 H   0  0  0  0  0  0  0  0  0  0  0  0
  144.2374  143.0600  156.0867 H   0  0  0  0  0  0  0  0  0  0  0  0
  146.3505  141.5707  156.4753 H   0  0  0  0  0  0  0  0  0  0  0  0
  145.3668  140.1631  156.1456 H   0  0  0  0  0  0  0  0  0  0  0  0
  147.7490  139.6622  155.6860 H   0  0  0  0  0  0  0  0  0  0  0  0
  146.7730  139.5090  154.2528 H   0  0  0  0  0  0  0  0  0  0  0  0
  148.7789  140.6962  153.6097 H   0  0  0  0  0  0  0  0  0  0  0  0
  148.5578  143.0765  155.1585 H   0  0  0  0  0  0  0  0  0  0  0  0
  149.7730  143.5855  156.5985 H   0  0  0  0  0  0  0  0  0  0  0  0
  151.3622  144.8419  157.7907 H   0  0  0  0  0  0  0  0  0  0  0  0
  153.1298  144.8476  159.5561 H   0  0  0  0  0  0  0  0  0  0  0  0
  153.2025  140.7211  159.7279 H   0  0  0  0  0  0  0  0  0  0  0  0
  151.4622  140.5063  157.9778 H   0  0  0  0  0  0  0  0  0  0  0  0
  147.7970  142.8685  152.7990 H   0  0  0  0  0  0  0  0  0  0  0  0
  146.8082  141.4699  152.4752 H   0  0  0  0  0  0  0  0  0  0  0  0
  145.3872  143.2834  153.2949 H   0  0  0  0  0  0  0  0  0  0  0  0
  146.3579  143.4830  154.7389 H   0  0  0  0  0  0  0  0  0  0  0  0
  144.8445  141.0909  154.0063 H   0  0  0  0  0  0  0  0  0  0  0  0
  1  2  1  0  0  0  0
  1 21  1  0  0  0  0
  2  3  2  0  0  0  0
  2  4  1  0  0  0  0
  4  5  1  0  0  0  0
  4 22  1  0  0  0  0
  4 23  1  0  0  0  0
  5 20  1  0  0  0  0
  5  6  1  0  0  0  0
  5 39  1  0  0  0  0
  6  7  1  0  0  0  0
  6 24  1  0  0  0  0
  6 25  1  0  0  0  0
  7  8  1  0  0  0  0
  7 26  1  0  0  0  0
  7 27  1  0  0  0  0
  8  9  1  0  0  0  0
  8 19  1  0  0  0  0
  8 28  1  0  0  0  0
  9 10  1  0  0  0  0
  9 29  1  0  0  0  0
 10 11  2  0  0  0  0
 10 12  1  0  0  0  0
 12 13  1  0  0  0  0
 12 30  1  0  0  0  0
 13 18  1  0  0  0  0
 13 14  2  0  0  0  0
 14 15  1  0  0  0  0
 14 31  1  0  0  0  0
 15 16  2  0  0  0  0
 15 32  1  0  0  0  0
 16 17  1  0  0  0  0
 17 18  2  0  0  0  0
 17 33  1  0  0  0  0
 18 34  1  0  0  0  0
 19 20  1  0  0  0  0
 19 35  1  0  0  0  0
 19 36  1  0  0  0  0
 20 37  1  0  0  0  0
 20 38  1  0  0  0  0
M  CHG  1   1  -1
M  CHG  1   5   1
M  END
> <s_m_source_file>
AV-unprocessed.smi

> <i_m_source_file_index>
1410

> <i_lp_mmshare_version>
43012

> <i_f3d_flags>
0

> <s_epik_input>
W05IMl1DKD1PKVtDSDJdTjFbQ0gyXVtDSDJdW0NIXShbQ0gyXVtDSDJdMSlbTkhdQyg9TylbTkhdYzJbY0hdW2NIXW5bY0hdW2NIXTI=

> <s_epik_cmdline>
J2VwaWtfcHl0aG9uJywgJy1waCcsICc3LjAnLCAnLXRuJywgJzgnLCAnLW1hJywgJzIwMCcsICctbWV0YWxfYmluZGluZycsICctaW1hZScsICc8aW5maWxlLm1hZT4nLCAnLW9tYWUnLCAnPG91dGZpbGUubWFlPic=

> <r_epik_Ionization_Penalty>
5.8279

> <r_epik_Ionization_Penalty_Charging>
5.7288

> <r_epik_Ionization_Penalty_Neutral>
0.0990993

> <r_epik_State_Penalty>
6.63321

> <r_epik_Charging_Adjusted_Penalty>
12.362

> <i_epik_Tot_Q>
0

> <i_epik_Tot_abs_Q>
2

> <r_epik_Metal_State_Penalty>
2.69435

> <b_epik_Metal_Only>
1

> <s_lp_Force_Field>
OPLS_2005

> <r_lp_Energy>
12.1382

> <b_lp_Chiralities_Consistent>
1

> <s_lp_Variant>
AV-unprocessed.smi:1410-8

> <Gold.Version>
5.8.1

> <Gold.Id.Protein>
6NUR|6NUR_protein|mol2

> <Gold.PLP.Fitness>
47.7520

> <Gold.PLP.PLP>
-32.9311

> <Gold.PLP.part.hbond>
-4.0000

> <Gold.PLP.part.metal>
0.0000

> <Gold.PLP.part.buried>
-6.5258

> <Gold.PLP.part.nonpolar>
-23.6733

> <Gold.PLP.part.repulsive>
0.2765

> <Gold.PLP.ligand.clash>
0.0000

> <Gold.PLP.ligand.torsion>
0.1036

> <Gold.PLP.Chemscore.Hbond>
5.0000

> <Gold.PLP.Chemscore.CHOScore>
0.0000

> <Gold.PLP.Chemscore.Metal>
0.0000

> <Gold.Chemscore.Hbonds>
donor molecule, donor type, donor heavy atom, donor atom, acceptor molecule, acceptor atom, score
      L1  H     1    21       P1 10175  1.00
      L1  H     5    39       P1 10175  2.00
      L1  H     9    29       P1  8028  1.00
      L1  H    12    30       P1  8028  1.00

> <Gold.PLP.Chemscore.Internal.Correction>
0.0281

> <Gold.Rescore>
     Score         DG    S(hbond)    S(metal)    S(lipo)     H(rot)  DE(clash)    DE(int)     intcor
     20.18     -22.98       3.77        0.00      84.31       1.94       1.51       1.29       ----

> <Gold.Chemscore.Fitness>
20.1792

> <Gold.Chemscore.DG>
-22.9806

> <Gold.Chemscore.ZeroCoef>
-5.4800

> <Gold.Chemscore.Hbond>
3.7704

> <Gold.Chemscore.Metal>
0.0000

> <Gold.Chemscore.Lipo>
84.3067

> <Gold.Chemscore.Internal_Hbond>
0.0000

> <Gold.Chemscore.DEClash>
1.5121

> <Gold.Chemscore.DEInternal>
1.2892

> <Gold.Chemscore.Rot>
1.9361

> <Gold.Chemscore.Internal.Correction>
   9.000000E+99

> <Gold.Chemscore.Hbonds>
donor molecule, donor type, donor heavy atom, donor atom, acceptor molecule, acceptor atom, score
      L1  H     1    21       P1 10175  0.78
      L1  H     5    39       P1 10175  0.74
      L1  H     9    29       P1  8028  0.96
      L1  H    12    30       P1  8028  0.97

> <Gold.Chemscore.Hbond.Weighted>
-12.5930

> <Gold.Chemscore.Metal.Weighted>
-0.0000

> <Gold.Chemscore.Lipo.Weighted>
-9.8639

> <Gold.Chemscore.Internal_Hbond.Weighted>
0.0000

> <Gold.Chemscore.DEClash.Weighted>
1.5121

> <Gold.Chemscore.DEInternal.Weighted>
1.2892

> <Gold.Chemscore.Rot.Weighted>
4.9563

> <Gold.Chemscore.Internal.Correction.Weighted>
   9.000000E+99

> <Gold.Protein.RotatedTorsions>
[ 6907 6896 6895 6894 ] final  -24.80 input  -60.11 | X-H torsion
[ 7974 7965 7964 7962 ] final   86.55 input  175.53 | X-H torsion
[ 8008 7997 7996 7995 ] final  -65.75 input   59.86 | X-H torsion
[ 10167 10162 10161 10158 ] final  -12.69 input  -65.29 | X-H torsion
[ 10718 10713 10712 10709 ] final -101.37 input   66.30 | X-H torsion
[ 10763 10752 10751 10750 ] final  -24.57 input  -60.55 | X-H torsion
[ 11005 11000 10999 10996 ] final -116.32 input  -57.11 | X-H torsion

> <Gold.Protein.ActiveResidues>
 VAL166  LYS551  ARG553  GLY616  TRP617  ASP618  TYR619  PRO620  LYS621  CYS622 
 ASP623  PHE694  ASN695  SER759  ASP760  ASP761  ALA762  ILE779  LEU786  VAL792 
 PHE793  MET794  SER795  GLU796  ALA797  LYS798  CYS799  TRP800  GLU811  SER814 

> <Gold.Protein.RotatedAtoms>
  151.1844  135.0375  159.8805 H   0  0  0  0  0  0  0  0  0  0  0  0  # atno 6907 bound_to 6896
  152.5443  134.1027  159.8335 H   0  0  0  0  0  0  0  0  0  0  0  0  # atno 6908 bound_to 6896
  151.1148  133.5100  159.2636 H   0  0  0  0  0  0  0  0  0  0  0  0  # atno 6909 bound_to 6896
  145.5708  139.2313  143.2407 H   0  0  0  0  0  0  0  0  0  0  0  0  # atno 7974 bound_to 7965
  154.4691  140.0927  156.7098 H   0  0  0  0  0  0  0  0  0  0  0  0  # atno 8008 bound_to 7997
  155.4774  140.3466  155.4316 H   0  0  0  0  0  0  0  0  0  0  0  0  # atno 8009 bound_to 7997
  156.1008  140.1421  156.9458 H   0  0  0  0  0  0  0  0  0  0  0  0  # atno 8010 bound_to 7997
  140.7166  143.5505  150.9306 H   0  0  0  0  0  0  0  0  0  0  0  0  # atno 10167 bound_to 10162
  156.0192  130.5370  150.6954 H   0  0  0  0  0  0  0  0  0  0  0  0  # atno 10718 bound_to 10713
  153.6858  135.6964  153.5104 H   0  0  0  0  0  0  0  0  0  0  0  0  # atno 10763 bound_to 10752
  153.2450  135.4293  155.0737 H   0  0  0  0  0  0  0  0  0  0  0  0  # atno 10764 bound_to 10752
  154.8387  135.3517  154.6401 H   0  0  0  0  0  0  0  0  0  0  0  0  # atno 10765 bound_to 10752
  141.0430  133.9806  157.2964 H   0  0  0  0  0  0  0  0  0  0  0  0  # atno 11005 bound_to 11000
  146.1786  140.6534  142.9200 LP  0  0  0  0  0  0  0  0  0  0  0  0  # atno 17320 bound_to 7965
  144.7439  140.5015  143.6850 LP  0  0  0  0  0  0  0  0  0  0  0  0  # atno 17321 bound_to 7965
  139.9230  143.6584  152.3093 LP  0  0  0  0  0  0  0  0  0  0  0  0  # atno 17342 bound_to 10162
  139.7007  144.7635  151.1278 LP  0  0  0  0  0  0  0  0  0  0  0  0  # atno 17343 bound_to 10162
  157.4626  131.0885  151.0729 LP  0  0  0  0  0  0  0  0  0  0  0  0  # atno 17370 bound_to 10713
  157.1213  130.6063  149.5506 LP  0  0  0  0  0  0  0  0  0  0  0  0  # atno 17371 bound_to 10713
  139.9290  135.0200  156.8335 LP  0  0  0  0  0  0  0  0  0  0  0  0  # atno 17394 bound_to 11000
  140.6199  134.0003  155.7614 LP  0  0  0  0  0  0  0  0  0  0  0  0  # atno 17395 bound_to 11000

$$$$
