AV-unprocessed.smi:37|AV-procd|sdf|329|dock10
  -GOLD-   2262016163D 1   1.00000     0.00000
 Structure written by MMmdl.
 43 44  0  0  0  0  0  0  0  0  2 V2000
  151.8199  145.3480  160.2138 C   0  0  0  0  0  0  0  0  0  0  0  0
  152.1485  144.6745  158.8734 C   0  0  0  0  0  0  0  0  0  0  0  0
  152.0174  143.1502  158.9040 C   0  0  0  0  0  0  0  0  0  0  0  0
  152.8522  142.4222  159.4442 O   0  0  0  0  0  0  0  0  0  0  0  0
  150.9040  142.7381  158.2871 O   0  0  0  0  0  0  0  0  0  0  0  0
  150.3868  141.4405  158.5333 C   0  0  0  0  0  0  0  0  0  0  0  0
  149.1899  141.1299  157.6151 C   0  0  2  0  0  0  0  0  0  0  0  0
  148.2773  140.1916  158.1824 O   0  0  0  0  0  0  0  0  0  0  0  0
  147.7254  139.3772  157.1838 C   0  0  2  0  0  0  0  0  0  0  0  0
  148.2236  137.9523  157.3583 N   0  0  0  0  0  0  0  0  0  0  0  0
  149.1375  137.3901  156.4807 C   0  0  0  0  0  0  0  0  0  0  0  0
  149.5798  136.1266  156.6401 C   0  0  0  0  0  0  0  0  0  0  0  0
  150.4615  135.6114  155.7660 F   0  0  0  0  0  0  0  0  0  0  0  0
  149.0957  135.3277  157.7632 C   0  0  0  0  0  0  0  0  0  0  0  0
  149.4765  134.1647  157.8853 O   0  0  0  0  0  0  0  0  0  0  0  0
  148.2330  135.9188  158.6390 N   0  5  0  0  0  0  0  0  0  0  0  0
  147.7953  137.2033  158.4897 C   0  0  0  0  0  0  0  0  0  0  0  0
  147.0430  137.7530  159.2943 O   0  0  0  0  0  0  0  0  0  0  0  0
  148.1783  139.9620  155.8320 C   0  0  1  0  0  0  0  0  0  0  0  0
  146.8486  141.3147  155.2227 Br  0  0  0  0  0  0  0  0  0  0  0  0
  149.4812  140.6623  156.1823 C   0  0  2  0  0  0  0  0  0  0  0  0
  150.5737  139.7506  156.1325 O   0  0  0  0  0  0  0  0  0  0  0  0
  151.0096  139.2646  154.9559 C   0  0  0  0  0  0  0  0  0  0  0  0
  150.5608  139.5544  153.8468 O   0  0  0  0  0  0  0  0  0  0  0  0
  152.1816  138.2963  155.1089 C   0  0  0  0  0  0  0  0  0  0  0  0
  153.4209  138.7319  154.3150 C   0  0  0  0  0  0  0  0  0  0  0  0
  151.9207  146.4303  160.1331 H   0  0  0  0  0  0  0  0  0  0  0  0
  152.4940  145.0123  161.0027 H   0  0  0  0  0  0  0  0  0  0  0  0
  150.7974  145.1349  160.5278 H   0  0  0  0  0  0  0  0  0  0  0  0
  151.4867  145.0605  158.0975 H   0  0  0  0  0  0  0  0  0  0  0  0
  153.1657  144.9287  158.5739 H   0  0  0  0  0  0  0  0  0  0  0  0
  151.1746  140.7033  158.3742 H   0  0  0  0  0  0  0  0  0  0  0  0
  150.0758  141.3621  159.5760 H   0  0  0  0  0  0  0  0  0  0  0  0
  148.6190  142.0554  157.5283 H   0  0  0  0  0  0  0  0  0  0  0  0
  146.6425  139.3027  157.2959 H   0  0  0  0  0  0  0  0  0  0  0  0
  149.5236  137.9575  155.6506 H   0  0  0  0  0  0  0  0  0  0  0  0
  148.2717  139.2149  155.0442 H   0  0  0  0  0  0  0  0  0  0  0  0
  149.6832  141.5100  155.5257 H   0  0  0  0  0  0  0  0  0  0  0  0
  152.4338  138.2290  156.1676 H   0  0  0  0  0  0  0  0  0  0  0  0
  151.8654  137.3013  154.7960 H   0  0  0  0  0  0  0  0  0  0  0  0
  154.2798  138.1124  154.5725 H   0  0  0  0  0  0  0  0  0  0  0  0
  153.6870  139.7696  154.5204 H   0  0  0  0  0  0  0  0  0  0  0  0
  153.2559  138.6305  153.2424 H   0  0  0  0  0  0  0  0  0  0  0  0
  1  2  1  0  0  0  0
  1 27  1  0  0  0  0
  1 28  1  0  0  0  0
  1 29  1  0  0  0  0
  2  3  1  0  0  0  0
  2 30  1  0  0  0  0
  2 31  1  0  0  0  0
  3  4  2  0  0  0  0
  3  5  1  0  0  0  0
  5  6  1  0  0  0  0
  6  7  1  0  0  0  0
  6 32  1  0  0  0  0
  6 33  1  0  0  0  0
  7 21  1  0  0  0  0
  7  8  1  0  0  0  0
  7 34  1  0  0  0  0
  8  9  1  0  0  0  0
  9 10  1  0  0  0  0
  9 19  1  0  0  0  0
  9 35  1  0  0  0  0
 10 17  1  0  0  0  0
 10 11  1  0  0  0  0
 11 12  2  0  0  0  0
 11 36  1  0  0  0  0
 12 13  1  0  0  0  0
 12 14  1  0  0  0  0
 14 15  2  0  0  0  0
 14 16  1  0  0  0  0
 16 17  1  0  0  0  0
 17 18  2  0  0  0  0
 19 20  1  0  0  0  0
 19 21  1  0  0  0  0
 19 37  1  0  0  0  0
 21 22  1  0  0  0  0
 21 38  1  0  0  0  0
 22 23  1  0  0  0  0
 23 24  2  0  0  0  0
 23 25  1  0  0  0  0
 25 26  1  0  0  0  0
 25 39  1  0  0  0  0
 25 40  1  0  0  0  0
 26 41  1  0  0  0  0
 26 42  1  0  0  0  0
 26 43  1  0  0  0  0
M  CHG  1  16  -1
M  END
> <s_m_source_file>
AV-unprocessed.smi

> <i_m_source_file_index>
37

> <i_lp_mmshare_version>
43012

> <i_f3d_flags>
0

> <s_epik_input>
W0NIM11bQ0gyXUMoPU8pT1tDSDJdW0NAQEhdMU9bQ0BASF0objJbY0hdYyhGKWMoPU8pW25IXWMyPU8pW0NAQEhdKEJyKVtDQEhdMU9DKD1PKVtDSDJdW0NIM10=

> <s_epik_cmdline>
J2VwaWtfcHl0aG9uJywgJy1waCcsICc3LjAnLCAnLXRuJywgJzgnLCAnLW1hJywgJzIwMCcsICctbWV0YWxfYmluZGluZycsICctaW1hZScsICc8aW5maWxlLm1hZT4nLCAnLW9tYWUnLCAnPG91dGZpbGUubWFlPic=

> <r_epik_Ionization_Penalty>
1.08158

> <r_epik_Ionization_Penalty_Charging>
9.05154e-09

> <r_epik_Ionization_Penalty_Neutral>
1.08158

> <r_epik_State_Penalty>
1.13706

> <r_epik_Charging_Adjusted_Penalty>
1.13706

> <i_epik_Tot_Q>
-1

> <i_epik_Tot_abs_Q>
1

> <r_epik_Metal_State_Penalty>
0.00343535

> <b_epik_Metal_Only>
0

> <s_epik_Chemistry_Notes>
This compound has an ester and may undergo hydrolysis at high or low pH. This compound contains an acetal/aminal-like group ( X-CH(R)-Y where X, Y are N, S, or O) that may be acid/base labile, releasing an aldehyde.

> <s_lp_Force_Field>
OPLS_2005

> <r_lp_Energy>
30.7461

> <b_lp_Chiralities_Consistent>
1

> <s_lp_Variant>
AV-unprocessed.smi:37-27

> <Gold.Version>
5.8.1

> <Gold.Id.Protein>
6NUR|6NUR_protein|mol2

> <Gold.PLP.Fitness>
40.6993

> <Gold.PLP.PLP>
-34.4868

> <Gold.PLP.part.hbond>
-4.0000

> <Gold.PLP.part.metal>
0.0000

> <Gold.PLP.part.buried>
-5.7352

> <Gold.PLP.part.nonpolar>
-26.4249

> <Gold.PLP.part.repulsive>
1.5565

> <Gold.PLP.ligand.clash>
0.0000

> <Gold.PLP.ligand.torsion>
0.9219

> <Gold.PLP.Chemscore.Hbond>
2.6240

> <Gold.PLP.Chemscore.CHOScore>
0.0000

> <Gold.PLP.Chemscore.Metal>
0.0000

> <Gold.Chemscore.Hbonds>
donor molecule, donor type, donor heavy atom, donor atom, acceptor molecule, acceptor atom, score
      P1  H  6896  6907       L1    15  1.00
      P1  H  6934  6947       L1    18  0.68
      P1  H  7989  7998       L1    24  0.95

> <Gold.PLP.Chemscore.Internal.Correction>
0.1843

> <Gold.Rescore>
     Score         DG    S(hbond)    S(metal)    S(lipo)     H(rot)  DE(clash)    DE(int)     intcor
      9.28     -13.04       2.56        0.00      63.04       3.27       0.16       3.61       ----

> <Gold.Chemscore.Fitness>
9.2792

> <Gold.Chemscore.DG>
-13.0439

> <Gold.Chemscore.ZeroCoef>
-5.4800

> <Gold.Chemscore.Hbond>
2.5604

> <Gold.Chemscore.Metal>
0.0000

> <Gold.Chemscore.Lipo>
63.0401

> <Gold.Chemscore.Internal_Hbond>
0.0000

> <Gold.Chemscore.DEClash>
0.1580

> <Gold.Chemscore.DEInternal>
3.6068

> <Gold.Chemscore.Rot>
3.2669

> <Gold.Chemscore.Internal.Correction>
   9.000000E+99

> <Gold.Chemscore.Hbonds>
donor molecule, donor type, donor heavy atom, donor atom, acceptor molecule, acceptor atom, score
      P1  H  6896  6907       L1    15  0.74
      P1  H  6934  6947       L1    18  0.65
      P1  H  7989  7998       L1    24  0.21

> <Gold.Chemscore.Hbond.Weighted>
-8.5516

> <Gold.Chemscore.Metal.Weighted>
-0.0000

> <Gold.Chemscore.Lipo.Weighted>
-7.3757

> <Gold.Chemscore.Internal_Hbond.Weighted>
0.0000

> <Gold.Chemscore.DEClash.Weighted>
0.1580

> <Gold.Chemscore.DEInternal.Weighted>
3.6068

> <Gold.Chemscore.Rot.Weighted>
8.3634

> <Gold.Chemscore.Internal.Correction.Weighted>
   9.000000E+99

> <Gold.Protein.RotatedTorsions>
[ 6907 6896 6895 6894 ] final -104.01 input  -60.11 | X-H torsion
[ 7974 7965 7964 7962 ] final   53.41 input  175.53 | X-H torsion
[ 8008 7997 7996 7995 ] final -123.77 input   59.86 | X-H torsion
[ 10167 10162 10161 10158 ] final -161.86 input  -65.29 | X-H torsion
[ 10718 10713 10712 10709 ] final   25.75 input   66.30 | X-H torsion
[ 10763 10752 10751 10750 ] final  138.64 input  -60.55 | X-H torsion
[ 11005 11000 10999 10996 ] final   84.51 input  -57.11 | X-H torsion

> <Gold.Protein.ActiveResidues>
 VAL166  LYS551  ARG553  GLY616  TRP617  ASP618  TYR619  PRO620  LYS621  CYS622 
 ASP623  PHE694  ASN695  SER759  ASP760  ASP761  ALA762  ILE779  LEU786  VAL792 
 PHE793  MET794  SER795  GLU796  ALA797  LYS798  CYS799  TRP800  GLU811  SER814 

> <Gold.Protein.RotatedAtoms>
  150.7267  134.0342  159.3743 H   0  0  0  0  0  0  0  0  0  0  0  0  # atno 6907 bound_to 6896
  151.8313  135.0618  160.0446 H   0  0  0  0  0  0  0  0  0  0  0  0  # atno 6908 bound_to 6896
  152.2931  133.5545  159.5607 H   0  0  0  0  0  0  0  0  0  0  0  0  # atno 6909 bound_to 6896
  145.9714  139.4153  143.0187 H   0  0  0  0  0  0  0  0  0  0  0  0  # atno 7974 bound_to 7965
  155.1859  140.0412  157.2891 H   0  0  0  0  0  0  0  0  0  0  0  0  # atno 8008 bound_to 7997
  154.6171  140.2491  155.7567 H   0  0  0  0  0  0  0  0  0  0  0  0  # atno 8009 bound_to 7997
  156.2413  140.2902  156.0462 H   0  0  0  0  0  0  0  0  0  0  0  0  # atno 8010 bound_to 7997
  139.6434  144.0217  152.2109 H   0  0  0  0  0  0  0  0  0  0  0  0  # atno 10167 bound_to 10162
  157.1975  130.6875  149.6175 H   0  0  0  0  0  0  0  0  0  0  0  0  # atno 10718 bound_to 10713
  153.8929  135.3031  155.3447 H   0  0  0  0  0  0  0  0  0  0  0  0  # atno 10763 bound_to 10752
  154.7707  135.4887  153.9647 H   0  0  0  0  0  0  0  0  0  0  0  0  # atno 10764 bound_to 10752
  153.1287  135.6799  153.9312 H   0  0  0  0  0  0  0  0  0  0  0  0  # atno 10765 bound_to 10752
  139.8998  134.8221  156.2455 H   0  0  0  0  0  0  0  0  0  0  0  0  # atno 11005 bound_to 11000
  145.7900  140.9819  143.1054 LP  0  0  0  0  0  0  0  0  0  0  0  0  # atno 17320 bound_to 7965
  144.6838  139.9670  143.7481 LP  0  0  0  0  0  0  0  0  0  0  0  0  # atno 17321 bound_to 7965
  139.9913  144.6360  150.7812 LP  0  0  0  0  0  0  0  0  0  0  0  0  # atno 17342 bound_to 10162
  140.7502  143.2952  151.3224 LP  0  0  0  0  0  0  0  0  0  0  0  0  # atno 17343 bound_to 10162
  155.9704  130.4594  150.6034 LP  0  0  0  0  0  0  0  0  0  0  0  0  # atno 17370 bound_to 10713
  157.3799  131.0779  151.1485 LP  0  0  0  0  0  0  0  0  0  0  0  0  # atno 17371 bound_to 10713
  141.0257  133.7016  156.1344 LP  0  0  0  0  0  0  0  0  0  0  0  0  # atno 17394 bound_to 11000
  140.7169  134.4401  157.5578 LP  0  0  0  0  0  0  0  0  0  0  0  0  # atno 17395 bound_to 11000

$$$$
