AV-unprocessed.smi:148|AV-procd|sdf|1214|dock3
  -GOLD-   2262018393D 1   1.00000     0.00000
 Structure written by MMmdl.
 63 67  0  0  0  0  0  0  0  0  1 V2000
  148.9652  135.7419  154.3960 O   0  0  0  0  0  0  0  0  0  0  0  0
  149.1664  134.3458  154.4683 C   0  0  0  0  0  0  0  0  0  0  0  0
  149.7111  133.9286  155.8551 C   0  0  2  0  0  0  0  0  0  0  0  0
  151.0702  134.6107  156.1630 C   0  0  0  0  0  0  0  0  0  0  0  0
  150.9228  136.0111  156.5185 N   0  0  0  0  0  0  0  0  0  0  0  0
  150.3978  136.5087  157.6892 C   0  0  0  0  0  0  0  0  0  0  0  0
  150.3570  137.8103  157.7706 N   0  0  0  0  0  0  0  0  0  0  0  0
  150.8961  138.2431  156.5646 C   0  0  0  0  0  0  0  0  0  0  0  0
  151.1342  139.5195  155.9790 C   0  0  0  0  0  0  0  0  0  0  0  0
  150.8300  140.7070  156.5524 N   0  0  0  0  0  0  0  0  0  0  0  0
  151.7300  140.9445  157.6821 C   0  0  0  0  0  0  0  0  0  0  0  0
  151.5932  142.3733  158.2250 C   0  0  0  0  0  0  0  0  0  0  0  0
  150.1331  142.6727  158.5793 C   0  0  0  0  0  0  0  0  0  0  0  0
  149.2462  142.4303  157.3517 C   0  0  0  0  0  0  0  0  0  0  0  0
  149.4038  140.9856  156.8096 C   0  0  1  0  0  0  0  0  0  0  0  0
  148.4699  140.6838  155.5921 C   0  0  1  0  0  0  0  0  0  0  0  0
  146.9651  140.8280  155.8971 C   0  0  0  0  0  0  0  0  0  0  0  0
  146.2978  141.3258  154.6052 C   0  0  0  0  0  0  0  0  0  0  0  0
  147.3871  141.3059  153.5315 C   0  0  0  0  0  0  0  0  0  0  0  0
  148.6847  141.5114  154.3113 C   0  0  2  0  0  0  0  0  0  0  0  0
  149.7958  141.0754  153.5572 O   0  0  0  0  0  0  0  0  0  0  0  0
  151.7210  139.5586  154.7574 N   0  0  0  0  0  0  0  0  0  0  0  0
  152.0277  138.4217  154.1262 C   0  0  0  0  0  0  0  0  0  0  0  0
  151.8427  137.1640  154.5337 N   0  0  0  0  0  0  0  0  0  0  0  0
  151.2727  137.1227  155.7722 C   0  0  0  0  0  0  0  0  0  0  0  0
  149.7427  132.3836  156.0207 C   0  0  2  0  0  0  0  0  0  0  0  0
  150.9161  131.6664  155.3497 C   0  0  0  0  0  0  0  0  0  0  0  0
  150.2599  130.5299  154.5653 C   0  0  0  0  0  0  0  0  0  0  0  0
  149.0177  130.3314  155.2201 O   0  0  0  0  0  0  0  0  0  0  0  0
  148.5095  131.6213  155.5166 C   0  0  0  0  0  0  0  0  0  0  0  0
  148.6929  135.9610  153.5179 H   0  0  0  0  0  0  0  0  0  0  0  0
  148.2304  133.8323  154.2472 H   0  0  0  0  0  0  0  0  0  0  0  0
  149.8651  134.0844  153.6741 H   0  0  0  0  0  0  0  0  0  0  0  0
  149.0012  134.3012  156.5955 H   0  0  0  0  0  0  0  0  0  0  0  0
  151.5843  134.1189  156.9877 H   0  0  0  0  0  0  0  0  0  0  0  0
  151.7389  134.5472  155.3051 H   0  0  0  0  0  0  0  0  0  0  0  0
  150.0356  135.8704  158.4821 H   0  0  0  0  0  0  0  0  0  0  0  0
  151.5066  140.2286  158.4746 H   0  0  0  0  0  0  0  0  0  0  0  0
  152.7644  140.7706  157.3808 H   0  0  0  0  0  0  0  0  0  0  0  0
  152.2278  142.5023  159.1019 H   0  0  0  0  0  0  0  0  0  0  0  0
  151.9449  143.0852  157.4769 H   0  0  0  0  0  0  0  0  0  0  0  0
  149.8102  142.0357  159.4036 H   0  0  0  0  0  0  0  0  0  0  0  0
  150.0324  143.7036  158.9201 H   0  0  0  0  0  0  0  0  0  0  0  0
  148.2112  142.6423  157.6156 H   0  0  0  0  0  0  0  0  0  0  0  0
  149.5253  143.1556  156.5880 H   0  0  0  0  0  0  0  0  0  0  0  0
  149.0982  140.3182  157.6155 H   0  0  0  0  0  0  0  0  0  0  0  0
  148.5795  139.6371  155.3067 H   0  0  0  0  0  0  0  0  0  0  0  0
  146.5493  139.8694  156.2103 H   0  0  0  0  0  0  0  0  0  0  0  0
  146.7664  141.5303  156.7053 H   0  0  0  0  0  0  0  0  0  0  0  0
  145.4370  140.7188  154.3231 H   0  0  0  0  0  0  0  0  0  0  0  0
  145.9439  142.3475  154.7491 H   0  0  0  0  0  0  0  0  0  0  0  0
  147.3935  140.3303  153.0428 H   0  0  0  0  0  0  0  0  0  0  0  0
  147.2329  142.0622  152.7612 H   0  0  0  0  0  0  0  0  0  0  0  0
  148.7922  142.5723  154.5315 H   0  0  0  0  0  0  0  0  0  0  0  0
  149.5129  140.3842  152.9773 H   0  0  0  0  0  0  0  0  0  0  0  0
  152.4826  138.5364  153.1534 H   0  0  0  0  0  0  0  0  0  0  0  0
  149.8344  132.1591  157.0844 H   0  0  0  0  0  0  0  0  0  0  0  0
  151.5196  132.3031  154.7039 H   0  0  0  0  0  0  0  0  0  0  0  0
  151.5834  131.2611  156.1114 H   0  0  0  0  0  0  0  0  0  0  0  0
  150.0785  130.8305  153.5321 H   0  0  0  0  0  0  0  0  0  0  0  0
  150.8611  129.6206  154.5566 H   0  0  0  0  0  0  0  0  0  0  0  0
  147.7133  131.5754  156.2599 H   0  0  0  0  0  0  0  0  0  0  0  0
  148.0955  132.0481  154.6040 H   0  0  0  0  0  0  0  0  0  0  0  0
  1  2  1  0  0  0  0
  1 31  1  0  0  0  0
  2  3  1  0  0  0  0
  2 32  1  0  0  0  0
  2 33  1  0  0  0  0
  3  4  1  0  0  0  0
  3 26  1  0  0  0  0
  3 34  1  0  0  0  0
  4  5  1  0  0  0  0
  4 35  1  0  0  0  0
  4 36  1  0  0  0  0
  5 25  1  0  0  0  0
  5  6  1  0  0  0  0
  6  7  2  0  0  0  0
  6 37  1  0  0  0  0
  7  8  1  0  0  0  0
  8 25  2  0  0  0  0
  8  9  1  0  0  0  0
  9 10  1  0  0  0  0
  9 22  2  0  0  0  0
 10 15  1  0  0  0  0
 10 11  1  0  0  0  0
 11 12  1  0  0  0  0
 11 38  1  0  0  0  0
 11 39  1  0  0  0  0
 12 13  1  0  0  0  0
 12 40  1  0  0  0  0
 12 41  1  0  0  0  0
 13 14  1  0  0  0  0
 13 42  1  0  0  0  0
 13 43  1  0  0  0  0
 14 15  1  0  0  0  0
 14 44  1  0  0  0  0
 14 45  1  0  0  0  0
 15 16  1  0  0  0  0
 15 46  1  0  0  0  0
 16 20  1  0  0  0  0
 16 17  1  0  0  0  0
 16 47  1  0  0  0  0
 17 18  1  0  0  0  0
 17 48  1  0  0  0  0
 17 49  1  0  0  0  0
 18 19  1  0  0  0  0
 18 50  1  0  0  0  0
 18 51  1  0  0  0  0
 19 20  1  0  0  0  0
 19 52  1  0  0  0  0
 19 53  1  0  0  0  0
 20 21  1  0  0  0  0
 20 54  1  0  0  0  0
 21 55  1  0  0  0  0
 22 23  1  0  0  0  0
 23 24  2  0  0  0  0
 23 56  1  0  0  0  0
 24 25  1  0  0  0  0
 26 30  1  0  0  0  0
 26 27  1  0  0  0  0
 26 57  1  0  0  0  0
 27 28  1  0  0  0  0
 27 58  1  0  0  0  0
 27 59  1  0  0  0  0
 28 29  1  0  0  0  0
 28 60  1  0  0  0  0
 28 61  1  0  0  0  0
 29 30  1  0  0  0  0
 30 62  1  0  0  0  0
 30 63  1  0  0  0  0
M  END
> <s_m_source_file>
AV-unprocessed.smi

> <i_m_source_file_index>
148

> <i_lp_mmshare_version>
43012

> <i_f3d_flags>
0

> <s_epik_input>
W0NIMl0xT1tDSDJdW0NIMl1bQ0BIXTFbQ0BIXShbQ0gyXVtPSF0pW0NIMl1uKFtjSF1uMiljKGMyMyluW2NIXW5jM040W0NIMl1bQ0gyXVtDSDJdW0NIMl1bQ0BIXTRbQ0BASF01W0NIMl1bQ0gyXVtDSDJdW0NASF01W09IXQ==

> <s_epik_cmdline>
J2VwaWtfcHl0aG9uJywgJy1waCcsICc3LjAnLCAnLXRuJywgJzgnLCAnLW1hJywgJzIwMCcsICctbWV0YWxfYmluZGluZycsICctaW1hZScsICc8aW5maWxlLm1hZT4nLCAnLW9tYWUnLCAnPG91dGZpbGUubWFlPic=

> <r_lp_tautomer_probability>
1

> <r_epik_Ionization_Penalty>
0.00556303

> <r_epik_Ionization_Penalty_Charging>
0

> <r_epik_Ionization_Penalty_Neutral>
0.00556303

> <r_epik_State_Penalty>
0.00401767

> <r_epik_Charging_Adjusted_Penalty>
0.00401767

> <i_epik_Tot_Q>
0

> <i_epik_Tot_abs_Q>
0

> <r_epik_Metal_State_Penalty>
-0

> <b_epik_Metal_Only>
0

> <s_lp_Force_Field>
OPLS_2005

> <r_lp_Energy>
68.8384

> <b_lp_Chiralities_Consistent>
1

> <s_lp_Variant>
AV-unprocessed.smi:148-13

> <Gold.Version>
5.8.1

> <Gold.Id.Protein>
6NUR|6NUR_protein|mol2

> <Gold.PLP.Fitness>
52.5755

> <Gold.PLP.PLP>
-39.5049

> <Gold.PLP.part.hbond>
-5.7440

> <Gold.PLP.part.metal>
0.0000

> <Gold.PLP.part.buried>
-4.9912

> <Gold.PLP.part.nonpolar>
-28.5305

> <Gold.PLP.part.repulsive>
0.2164

> <Gold.PLP.ligand.clash>
0.0000

> <Gold.PLP.ligand.torsion>
0.6556

> <Gold.PLP.Chemscore.Hbond>
4.6400

> <Gold.PLP.Chemscore.CHOScore>
0.0000

> <Gold.PLP.Chemscore.Metal>
0.0000

> <Gold.Chemscore.Hbonds>
donor molecule, donor type, donor heavy atom, donor atom, acceptor molecule, acceptor atom, score
      L1  H     1    31       P1  7948  1.00
      L1  H    21    55       P1  7957  0.72
      P1  H  7989  7998       L1    22  1.00
      P1  H  8011  8017       L1    21  0.75
      P1  H 10752 10765       L1    24  1.00

> <Gold.PLP.Chemscore.Internal.Correction>
0.4617

> <Gold.Rescore>
     Score         DG    S(hbond)    S(metal)    S(lipo)     H(rot)  DE(clash)    DE(int)     intcor
     17.45     -20.20       3.80        0.00      90.03       3.32       1.80       0.96       ----

> <Gold.Chemscore.Fitness>
17.4465

> <Gold.Chemscore.DG>
-20.2016

> <Gold.Chemscore.ZeroCoef>
-5.4800

> <Gold.Chemscore.Hbond>
3.7989

> <Gold.Chemscore.Metal>
0.0000

> <Gold.Chemscore.Lipo>
90.0273

> <Gold.Chemscore.Internal_Hbond>
0.0000

> <Gold.Chemscore.DEClash>
1.7964

> <Gold.Chemscore.DEInternal>
0.9586

> <Gold.Chemscore.Rot>
3.3203

> <Gold.Chemscore.Internal.Correction>
   9.000000E+99

> <Gold.Chemscore.Hbonds>
donor molecule, donor type, donor heavy atom, donor atom, acceptor molecule, acceptor atom, score
      L1  H     1    31       P1  7948  0.97
      L1  H    21    55       P1  7957  0.72
      P1  H  7989  7998       L1    22  0.59
      P1  H  8011  8017       L1    21  0.02
      P1  H 10752 10765       L1    24  0.75

> <Gold.Chemscore.Hbond.Weighted>
-12.6884

> <Gold.Chemscore.Metal.Weighted>
-0.0000

> <Gold.Chemscore.Lipo.Weighted>
-10.5332

> <Gold.Chemscore.Internal_Hbond.Weighted>
0.0000

> <Gold.Chemscore.DEClash.Weighted>
1.7964

> <Gold.Chemscore.DEInternal.Weighted>
0.9586

> <Gold.Chemscore.Rot.Weighted>
8.5000

> <Gold.Chemscore.Internal.Correction.Weighted>
   9.000000E+99

> <Gold.Protein.RotatedTorsions>
[ 6907 6896 6895 6894 ] final  -82.07 input  -60.11 | X-H torsion
[ 7974 7965 7964 7962 ] final  159.87 input  175.53 | X-H torsion
[ 8008 7997 7996 7995 ] final  -27.19 input   59.86 | X-H torsion
[ 10167 10162 10161 10158 ] final  -87.02 input  -65.29 | X-H torsion
[ 10718 10713 10712 10709 ] final -133.62 input   66.30 | X-H torsion
[ 10763 10752 10751 10750 ] final  158.89 input  -60.55 | X-H torsion
[ 11005 11000 10999 10996 ] final  -15.50 input  -57.11 | X-H torsion

> <Gold.Protein.ActiveResidues>
 VAL166  LYS551  ARG553  GLY616  TRP617  ASP618  TYR619  PRO620  LYS621  CYS622 
 ASP623  PHE694  ASN695  SER759  ASP760  ASP761  ALA762  ILE779  LEU786  VAL792 
 PHE793  MET794  SER795  GLU796  ALA797  LYS798  CYS799  TRP800  GLU811  SER814 

> <Gold.Protein.RotatedAtoms>
  150.6902  134.3721  159.4996 H   0  0  0  0  0  0  0  0  0  0  0  0  # atno 6907 bound_to 6896
  152.1535  134.8967  160.0555 H   0  0  0  0  0  0  0  0  0  0  0  0  # atno 6908 bound_to 6896
  152.0055  133.3807  159.4236 H   0  0  0  0  0  0  0  0  0  0  0  0  # atno 6909 bound_to 6896
  144.7767  139.7678  143.6276 H   0  0  0  0  0  0  0  0  0  0  0  0  # atno 7974 bound_to 7965
  154.4389  140.1879  156.0893 H   0  0  0  0  0  0  0  0  0  0  0  0  # atno 8008 bound_to 7997
  156.0378  140.3323  155.7184 H   0  0  0  0  0  0  0  0  0  0  0  0  # atno 8009 bound_to 7997
  155.5744  140.0615  157.2789 H   0  0  0  0  0  0  0  0  0  0  0  0  # atno 8010 bound_to 7997
  140.3885  143.2716  151.9295 H   0  0  0  0  0  0  0  0  0  0  0  0  # atno 10167 bound_to 10162
  156.2469  130.7129  151.1013 H   0  0  0  0  0  0  0  0  0  0  0  0  # atno 10718 bound_to 10713
  154.2232  135.2781  155.2917 H   0  0  0  0  0  0  0  0  0  0  0  0  # atno 10763 bound_to 10752
  154.5684  135.5626  153.7076 H   0  0  0  0  0  0  0  0  0  0  0  0  # atno 10764 bound_to 10752
  153.0037  135.6315  154.2373 H   0  0  0  0  0  0  0  0  0  0  0  0  # atno 10765 bound_to 10752
  140.7973  133.8241  155.9436 H   0  0  0  0  0  0  0  0  0  0  0  0  # atno 11005 bound_to 11000
  146.1950  139.5212  142.9780 LP  0  0  0  0  0  0  0  0  0  0  0  0  # atno 17320 bound_to 7965
  145.6167  141.0330  143.1937 LP  0  0  0  0  0  0  0  0  0  0  0  0  # atno 17321 bound_to 7965
  139.4790  144.5750  151.8026 LP  0  0  0  0  0  0  0  0  0  0  0  0  # atno 17342 bound_to 10162
  140.4864  144.1374  150.5942 LP  0  0  0  0  0  0  0  0  0  0  0  0  # atno 17343 bound_to 10162
  157.7198  131.0688  150.6180 LP  0  0  0  0  0  0  0  0  0  0  0  0  # atno 17370 bound_to 10713
  156.6257  130.4418  149.5805 LP  0  0  0  0  0  0  0  0  0  0  0  0  # atno 17371 bound_to 10713
  140.9330  134.1998  157.4851 LP  0  0  0  0  0  0  0  0  0  0  0  0  # atno 17394 bound_to 11000
  139.8725  134.9840  156.5223 LP  0  0  0  0  0  0  0  0  0  0  0  0  # atno 17395 bound_to 11000

$$$$
