AV-unprocessed.smi:1417|AV-procd|sdf|5766|dock10
  -GOLD-   22720 5403D 1   1.00000     0.00000
 Structure written by MMmdl.
 40 41  0  0  0  0  0  0  0  0  2 V2000
  152.6097  137.6836  158.3573 C   0  0  0  0  0  0  0  0  0  0  0  0
  151.9771  137.2299  157.0866 C   0  0  0  0  0  0  0  0  0  0  0  0
  150.8126  136.5701  156.8121 C   0  0  0  0  0  0  0  0  0  0  0  0
  150.8333  136.4635  155.3907 C   0  0  0  0  0  0  0  0  0  0  0  0
  149.8435  135.8523  154.5786 N   0  0  0  0  0  0  0  0  0  0  0  0
  149.2385  134.6652  154.7515 C   0  0  0  0  0  0  0  0  0  0  0  0
  149.4417  133.8894  155.6853 O   0  0  0  0  0  0  0  0  0  0  0  0
  148.3669  134.4159  153.7633 N   0  0  0  0  0  0  0  0  0  0  0  0
  147.5494  133.2117  153.6496 C   0  0  2  0  0  0  0  0  0  0  0  0
  148.4248  131.9463  153.7169 C   0  0  0  0  0  0  0  0  0  0  0  0
  147.5865  130.6789  153.4880 C   0  0  0  0  0  0  0  0  0  0  0  0
  146.8658  130.7447  152.1890 N   0  3  1  0  0  0  0  0  0  0  0  0
  146.1624  129.4819  151.8474 C   0  0  0  0  0  0  0  0  0  0  0  0
  147.0798  128.2560  151.9092 C   0  0  0  0  0  0  0  0  0  0  0  0
  148.1462  128.2590  151.1065 N   0  0  0  0  0  0  0  0  0  0  0  0
  146.8412  127.3267  152.6784 O   0  0  0  0  0  0  0  0  0  0  0  0
  145.9758  131.9314  152.1209 C   0  0  0  0  0  0  0  0  0  0  0  0
  146.7719  133.2320  152.3233 C   0  0  0  0  0  0  0  0  0  0  0  0
  151.9108  137.0073  154.8555 N   0  0  0  0  0  0  0  0  0  0  0  0
  152.6501  137.5021  155.9363 O   0  0  0  0  0  0  0  0  0  0  0  0
  152.1280  137.2208  159.2189 H   0  0  0  0  0  0  0  0  0  0  0  0
  152.5269  138.7652  158.4644 H   0  0  0  0  0  0  0  0  0  0  0  0
  153.6674  137.4205  158.3800 H   0  0  0  0  0  0  0  0  0  0  0  0
  150.0785  136.2278  157.5255 H   0  0  0  0  0  0  0  0  0  0  0  0
  149.5681  136.3831  153.7654 H   0  0  0  0  0  0  0  0  0  0  0  0
  148.2617  135.1097  153.0372 H   0  0  0  0  0  0  0  0  0  0  0  0
  146.8281  133.1910  154.4692 H   0  0  0  0  0  0  0  0  0  0  0  0
  149.2137  131.9987  152.9647 H   0  0  0  0  0  0  0  0  0  0  0  0
  148.9249  131.8826  154.6840 H   0  0  0  0  0  0  0  0  0  0  0  0
  148.2426  129.8083  153.5117 H   0  0  0  0  0  0  0  0  0  0  0  0
  146.8677  130.5536  154.2995 H   0  0  0  0  0  0  0  0  0  0  0  0
  145.2951  129.3481  152.4963 H   0  0  0  0  0  0  0  0  0  0  0  0
  145.7844  129.5361  150.8256 H   0  0  0  0  0  0  0  0  0  0  0  0
  148.7840  127.4760  151.1032 H   0  0  0  0  0  0  0  0  0  0  0  0
  148.3113  129.0490  150.4988 H   0  0  0  0  0  0  0  0  0  0  0  0
  145.4797  131.9653  151.1502 H   0  0  0  0  0  0  0  0  0  0  0  0
  145.1925  131.8456  152.8756 H   0  0  0  0  0  0  0  0  0  0  0  0
  146.0932  134.0856  152.3004 H   0  0  0  0  0  0  0  0  0  0  0  0
  147.4633  133.3645  151.4893 H   0  0  0  0  0  0  0  0  0  0  0  0
  147.5656  130.8738  151.4717 H   0  0  0  0  0  0  0  0  0  0  0  0
  1  2  1  0  0  0  0
  1 21  1  0  0  0  0
  1 22  1  0  0  0  0
  1 23  1  0  0  0  0
  2 20  1  0  0  0  0
  2  3  2  0  0  0  0
  3  4  1  0  0  0  0
  3 24  1  0  0  0  0
  4  5  1  0  0  0  0
  4 19  2  0  0  0  0
  5  6  1  0  0  0  0
  5 25  1  0  0  0  0
  6  7  2  0  0  0  0
  6  8  1  0  0  0  0
  8  9  1  0  0  0  0
  8 26  1  0  0  0  0
  9 18  1  0  0  0  0
  9 10  1  0  0  0  0
  9 27  1  0  0  0  0
 10 11  1  0  0  0  0
 10 28  1  0  0  0  0
 10 29  1  0  0  0  0
 11 12  1  0  0  0  0
 11 30  1  0  0  0  0
 11 31  1  0  0  0  0
 12 13  1  0  0  0  0
 12 17  1  0  0  0  0
 12 40  1  0  0  0  0
 13 14  1  0  0  0  0
 13 32  1  0  0  0  0
 13 33  1  0  0  0  0
 14 15  1  0  0  0  0
 14 16  2  0  0  0  0
 15 34  1  0  0  0  0
 15 35  1  0  0  0  0
 17 18  1  0  0  0  0
 17 36  1  0  0  0  0
 17 37  1  0  0  0  0
 18 38  1  0  0  0  0
 18 39  1  0  0  0  0
 19 20  1  0  0  0  0
M  CHG  1  12   1
M  END
> <s_m_source_file>
AV-unprocessed.smi

> <i_m_source_file_index>
1417

> <i_lp_mmshare_version>
43012

> <i_f3d_flags>
0

> <s_epik_input>
W0NIM11jMVtjSF1jKG5vMSlbTkhdQyg9TylbTkhdW0NIXTJbQ0gyXVtDSDJdTihbQ0gyXVtDSDJdMilbQ0gyXUMoPU8pW05IMl0=

> <s_epik_cmdline>
J2VwaWtfcHl0aG9uJywgJy1waCcsICc3LjAnLCAnLXRuJywgJzgnLCAnLW1hJywgJzIwMCcsICctbWV0YWxfYmluZGluZycsICctaW1hZScsICc8aW5maWxlLm1hZT4nLCAnLW9tYWUnLCAnPG91dGZpbGUubWFlPic=

> <r_epik_Ionization_Penalty>
0.867698

> <r_epik_Ionization_Penalty_Charging>
0.867623

> <r_epik_Ionization_Penalty_Neutral>
7.46743e-05

> <r_epik_State_Penalty>
0.904669

> <r_epik_Charging_Adjusted_Penalty>
1.77229

> <i_epik_Tot_Q>
1

> <i_epik_Tot_abs_Q>
1

> <r_epik_Metal_State_Penalty>
0.930696

> <b_epik_Metal_Only>
0

> <s_lp_Force_Field>
OPLS_2005

> <r_lp_Energy>
11.2149

> <b_lp_Chiralities_Consistent>
1

> <s_lp_Variant>
AV-unprocessed.smi:1417-2

> <Gold.Version>
5.8.1

> <Gold.Id.Protein>
6NUR|6NUR_protein|mol2

> <Gold.PLP.Fitness>
41.3187

> <Gold.PLP.PLP>
-28.8233

> <Gold.PLP.part.hbond>
-6.8981

> <Gold.PLP.part.metal>
0.0000

> <Gold.PLP.part.buried>
-2.9761

> <Gold.PLP.part.nonpolar>
-19.1663

> <Gold.PLP.part.repulsive>
0.3903

> <Gold.PLP.ligand.clash>
0.0000

> <Gold.PLP.ligand.torsion>
0.4369

> <Gold.PLP.Chemscore.Hbond>
4.4480

> <Gold.PLP.Chemscore.CHOScore>
0.0000

> <Gold.PLP.Chemscore.Metal>
0.0000

> <Gold.Chemscore.Hbonds>
donor molecule, donor type, donor heavy atom, donor atom, acceptor molecule, acceptor atom, score
      L1  H     5    25       P1  7948  0.86
      L1  H     8    26       P1  7948  1.00
      L1  H    12    40       P1 10747  1.00
      L1  H    15    35       P1 10747  0.55
      P1  H 10752 10764       L1    19  0.96

> <Gold.PLP.Chemscore.Internal.Correction>
0.0251

> <Gold.Rescore>
     Score         DG    S(hbond)    S(metal)    S(lipo)     H(rot)  DE(clash)    DE(int)     intcor
     15.40     -17.24       3.44        0.00      46.95       2.05       0.01       1.82       ----

> <Gold.Chemscore.Fitness>
15.4005

> <Gold.Chemscore.DG>
-17.2354

> <Gold.Chemscore.ZeroCoef>
-5.4800

> <Gold.Chemscore.Hbond>
3.4428

> <Gold.Chemscore.Metal>
0.0000

> <Gold.Chemscore.Lipo>
46.9539

> <Gold.Chemscore.Internal_Hbond>
0.0000

> <Gold.Chemscore.DEClash>
0.0108

> <Gold.Chemscore.DEInternal>
1.8241

> <Gold.Chemscore.Rot>
2.0457

> <Gold.Chemscore.Internal.Correction>
   9.000000E+99

> <Gold.Chemscore.Hbonds>
donor molecule, donor type, donor heavy atom, donor atom, acceptor molecule, acceptor atom, score
      L1  H     5    25       P1  7948  0.55
      L1  H     8    26       P1  7948  0.88
      L1  H    12    40       P1 10747  1.00
      L1  H    15    35       P1 10747  0.03
      P1  H 10752 10764       L1    19  0.15

> <Gold.Chemscore.Hbond.Weighted>
-11.4989

> <Gold.Chemscore.Metal.Weighted>
-0.0000

> <Gold.Chemscore.Lipo.Weighted>
-5.4936

> <Gold.Chemscore.Internal_Hbond.Weighted>
0.0000

> <Gold.Chemscore.DEClash.Weighted>
0.0108

> <Gold.Chemscore.DEInternal.Weighted>
1.8241

> <Gold.Chemscore.Rot.Weighted>
5.2371

> <Gold.Chemscore.Internal.Correction.Weighted>
   9.000000E+99

> <Gold.Protein.RotatedTorsions>
[ 6907 6896 6895 6894 ] final   49.63 input  -60.11 | X-H torsion
[ 7974 7965 7964 7962 ] final   -0.43 input  175.53 | X-H torsion
[ 8008 7997 7996 7995 ] final  172.78 input   59.86 | X-H torsion
[ 10167 10162 10161 10158 ] final  119.75 input  -65.29 | X-H torsion
[ 10718 10713 10712 10709 ] final  -60.62 input   66.30 | X-H torsion
[ 10763 10752 10751 10750 ] final  -75.67 input  -60.55 | X-H torsion
[ 11005 11000 10999 10996 ] final   -4.28 input  -57.11 | X-H torsion

> <Gold.Protein.ActiveResidues>
 VAL166  LYS551  ARG553  GLY616  TRP617  ASP618  TYR619  PRO620  LYS621  CYS622 
 ASP623  PHE694  ASN695  SER759  ASP760  ASP761  ALA762  ILE779  LEU786  VAL792 
 PHE793  MET794  SER795  GLU796  ALA797  LYS798  CYS799  TRP800  GLU811  SER814 

> <Gold.Protein.RotatedAtoms>
  152.2929  134.7701  160.0373 H   0  0  0  0  0  0  0  0  0  0  0  0  # atno 6907 bound_to 6896
  151.8240  133.3393  159.3601 H   0  0  0  0  0  0  0  0  0  0  0  0  # atno 6908 bound_to 6896
  150.7238  134.5475  159.5822 H   0  0  0  0  0  0  0  0  0  0  0  0  # atno 6909 bound_to 6896
  146.2427  140.1269  142.8339 H   0  0  0  0  0  0  0  0  0  0  0  0  # atno 7974 bound_to 7965
  156.1141  140.1477  156.9298 H   0  0  0  0  0  0  0  0  0  0  0  0  # atno 8008 bound_to 7997
  154.4787  140.0886  156.7369 H   0  0  0  0  0  0  0  0  0  0  0  0  # atno 8009 bound_to 7997
  155.4545  140.3436  155.4307 H   0  0  0  0  0  0  0  0  0  0  0  0  # atno 8010 bound_to 7997
  139.6026  144.7061  151.3027 H   0  0  0  0  0  0  0  0  0  0  0  0  # atno 10167 bound_to 10162
  156.0978  130.4190  150.0880 H   0  0  0  0  0  0  0  0  0  0  0  0  # atno 10718 bound_to 10713
  154.4896  135.5823  153.6449 H   0  0  0  0  0  0  0  0  0  0  0  0  # atno 10763 bound_to 10752
  152.9860  135.6109  154.3142 H   0  0  0  0  0  0  0  0  0  0  0  0  # atno 10764 bound_to 10752
  154.3040  135.2846  155.2577 H   0  0  0  0  0  0  0  0  0  0  0  0  # atno 10765 bound_to 10752
  140.6785  133.9174  155.8540 H   0  0  0  0  0  0  0  0  0  0  0  0  # atno 11005 bound_to 11000
  145.0359  140.8908  143.5081 LP  0  0  0  0  0  0  0  0  0  0  0  0  # atno 17320 bound_to 7965
  145.1341  139.2613  143.5524 LP  0  0  0  0  0  0  0  0  0  0  0  0  # atno 17321 bound_to 7965
  140.7261  143.6999  150.7853 LP  0  0  0  0  0  0  0  0  0  0  0  0  # atno 17342 bound_to 10162
  140.0579  143.5184  152.2642 LP  0  0  0  0  0  0  0  0  0  0  0  0  # atno 17343 bound_to 10162
  156.8875  130.9577  151.3592 LP  0  0  0  0  0  0  0  0  0  0  0  0  # atno 17370 bound_to 10713
  157.6142  130.8606  149.9001 LP  0  0  0  0  0  0  0  0  0  0  0  0  # atno 17371 bound_to 10713
  141.0336  134.0721  157.3985 LP  0  0  0  0  0  0  0  0  0  0  0  0  # atno 17394 bound_to 11000
  139.8959  135.0143  156.7025 LP  0  0  0  0  0  0  0  0  0  0  0  0  # atno 17395 bound_to 11000

$$$$
