AV-unprocessed.smi:1362|AV-procd|sdf|5560|dock3
  -GOLD-   22720 5153D 1   1.00000     0.00000
 Structure written by MMmdl.
 39 39  0  0  0  0  0  0  0  0  1 V2000
  150.8468  142.1593  156.3035 C   0  0  0  0  0  0  0  0  0  0  0  0
  149.8250  141.5291  155.3824 C   0  0  0  0  0  0  0  0  0  0  0  0
  148.6974  142.3094  155.1878 N   0  0  0  0  0  0  0  0  0  0  0  0
  147.7043  141.8178  154.3592 C   0  0  0  0  0  0  0  0  0  0  0  0
  146.5051  142.7364  154.2021 C   0  0  0  0  0  0  0  0  0  0  0  0
  147.8286  140.6087  153.7551 C   0  0  0  0  0  0  0  0  0  0  0  0
  146.7552  140.0252  152.8381 C   0  0  0  0  0  0  0  0  0  0  0  0
  146.2502  138.6375  153.2326 C   0  0  0  0  0  0  0  0  0  0  0  0
  146.7993  138.0149  154.1409 O   0  0  0  0  0  0  0  0  0  0  0  0
  145.2048  138.1679  152.5341 N   0  0  0  0  0  0  0  0  0  0  0  0
  144.5683  136.8649  152.7167 C   0  0  2  0  0  0  0  0  0  0  0  0
  144.8799  135.9917  151.4869 C   0  0  0  0  0  0  0  0  0  0  0  0
  143.0491  137.0457  152.9749 C   0  0  0  0  0  0  0  0  0  0  0  0
  142.7692  137.8780  154.2416 C   0  0  0  0  0  0  0  0  0  0  0  0
  142.3056  135.7013  153.0714 C   0  0  0  0  0  0  0  0  0  0  0  0
  149.0558  139.8165  154.0070 C   0  0  0  0  0  0  0  0  0  0  0  0
  149.2202  138.7067  153.5018 O   0  0  0  0  0  0  0  0  0  0  0  0
  150.0349  140.3626  154.8527 N   0  0  0  0  0  0  0  0  0  0  0  0
  148.5641  143.2135  155.6175 H   0  0  0  0  0  0  0  0  0  0  0  0
  151.7408  141.5388  156.3779 H   0  0  0  0  0  0  0  0  0  0  0  0
  150.4309  142.2802  157.3041 H   0  0  0  0  0  0  0  0  0  0  0  0
  151.1430  143.1399  155.9297 H   0  0  0  0  0  0  0  0  0  0  0  0
  146.3836  143.0308  153.1596 H   0  0  0  0  0  0  0  0  0  0  0  0
  146.6151  143.6459  154.7943 H   0  0  0  0  0  0  0  0  0  0  0  0
  145.5943  142.2346  154.5286 H   0  0  0  0  0  0  0  0  0  0  0  0
  147.1073  139.9933  151.8061 H   0  0  0  0  0  0  0  0  0  0  0  0
  145.9031  140.7047  152.8138 H   0  0  0  0  0  0  0  0  0  0  0  0
  144.8224  138.7586  151.8096 H   0  0  0  0  0  0  0  0  0  0  0  0
  144.9995  136.3803  153.5948 H   0  0  0  0  0  0  0  0  0  0  0  0
  144.5355  134.9669  151.6206 H   0  0  0  0  0  0  0  0  0  0  0  0
  145.9538  135.9407  151.3035 H   0  0  0  0  0  0  0  0  0  0  0  0
  144.4097  136.3906  150.5875 H   0  0  0  0  0  0  0  0  0  0  0  0
  142.6252  137.5915  152.1305 H   0  0  0  0  0  0  0  0  0  0  0  0
  143.2050  137.4097  155.1247 H   0  0  0  0  0  0  0  0  0  0  0  0
  141.6978  137.9802  154.4162 H   0  0  0  0  0  0  0  0  0  0  0  0
  143.1749  138.8869  154.1652 H   0  0  0  0  0  0  0  0  0  0  0  0
  142.7276  135.0701  153.8540 H   0  0  0  0  0  0  0  0  0  0  0  0
  142.3456  135.1475  152.1340 H   0  0  0  0  0  0  0  0  0  0  0  0
  141.2506  135.8524  153.3019 H   0  0  0  0  0  0  0  0  0  0  0  0
  1 20  1  0  0  0  0
  1 21  1  0  0  0  0
  1 22  1  0  0  0  0
  1  2  1  0  0  0  0
  2  3  1  0  0  0  0
  2 18  2  0  0  0  0
  3  4  1  0  0  0  0
  3 19  1  0  0  0  0
  4  6  2  0  0  0  0
  4  5  1  0  0  0  0
  5 23  1  0  0  0  0
  5 24  1  0  0  0  0
  5 25  1  0  0  0  0
  6 16  1  0  0  0  0
  6  7  1  0  0  0  0
  7  8  1  0  0  0  0
  7 26  1  0  0  0  0
  7 27  1  0  0  0  0
  8  9  2  0  0  0  0
  8 10  1  0  0  0  0
 10 11  1  0  0  0  0
 10 28  1  0  0  0  0
 11 12  1  0  0  0  0
 11 13  1  0  0  0  0
 11 29  1  0  0  0  0
 12 30  1  0  0  0  0
 12 31  1  0  0  0  0
 12 32  1  0  0  0  0
 13 14  1  0  0  0  0
 13 15  1  0  0  0  0
 13 33  1  0  0  0  0
 14 34  1  0  0  0  0
 14 35  1  0  0  0  0
 14 36  1  0  0  0  0
 15 37  1  0  0  0  0
 15 38  1  0  0  0  0
 15 39  1  0  0  0  0
 16 17  2  0  0  0  0
 16 18  1  0  0  0  0
M  END
> <s_m_source_file>
AV-unprocessed.smi

> <i_m_source_file_index>
1362

> <i_lp_mmshare_version>
43012

> <i_f3d_flags>
0

> <s_epik_input>
W0NIM11jMW5jKFtDSDNdKWMoYyg9TylbbkhdMSlbQ0gyXUMoPU8pW05IXVtDQEhdKFtDSDNdKVtDSF0oW0NIM10pW0NIM10=

> <s_epik_cmdline>
J2VwaWtfcHl0aG9uJywgJy1waCcsICc3LjAnLCAnLXRuJywgJzgnLCAnLW1hJywgJzIwMCcsICctbWV0YWxfYmluZGluZycsICctaW1hZScsICc8aW5maWxlLm1hZT4nLCAnLW9tYWUnLCAnPG91dGZpbGUubWFlPic=

> <r_lp_tautomer_probability>
0.156392

> <r_epik_Ionization_Penalty>
0.0140737

> <r_epik_Ionization_Penalty_Charging>
0.0139511

> <r_epik_Ionization_Penalty_Neutral>
0.000122633

> <r_epik_State_Penalty>
1.53034

> <r_epik_Charging_Adjusted_Penalty>
1.54429

> <i_epik_Tot_Q>
0

> <i_epik_Tot_abs_Q>
0

> <r_epik_Metal_State_Penalty>
1.70655

> <b_epik_Metal_Only>
0

> <s_lp_Force_Field>
OPLS_2005

> <r_lp_Energy>
10.2097

> <b_lp_Chiralities_Consistent>
1

> <s_lp_Variant>
AV-unprocessed.smi:1362-3

> <Gold.Version>
5.8.1

> <Gold.Id.Protein>
6NUR|6NUR_protein|mol2

> <Gold.PLP.Fitness>
36.8140

> <Gold.PLP.PLP>
-30.1330

> <Gold.PLP.part.hbond>
-3.6772

> <Gold.PLP.part.metal>
0.0000

> <Gold.PLP.part.buried>
-1.5436

> <Gold.PLP.part.nonpolar>
-29.6085

> <Gold.PLP.part.repulsive>
4.2488

> <Gold.PLP.ligand.clash>
0.0000

> <Gold.PLP.ligand.torsion>
0.1466

> <Gold.PLP.Chemscore.Hbond>
2.3157

> <Gold.PLP.Chemscore.CHOScore>
0.0000

> <Gold.PLP.Chemscore.Metal>
0.0000

> <Gold.Chemscore.Hbonds>
donor molecule, donor type, donor heavy atom, donor atom, acceptor molecule, acceptor atom, score
      L1  H     3    19       P1  8028  0.98
      L1  H    10    28       P1 10171  0.45
      P1  H  7989  7998       L1    18  0.66

> <Gold.PLP.Chemscore.Internal.Correction>
0.0271

> <Gold.Rescore>
     Score         DG    S(hbond)    S(metal)    S(lipo)     H(rot)  DE(clash)    DE(int)     intcor
      6.68     -11.28       1.26        0.00      50.58       1.69       0.20       4.40       ----

> <Gold.Chemscore.Fitness>
6.6786

> <Gold.Chemscore.DG>
-11.2791

> <Gold.Chemscore.ZeroCoef>
-5.4800

> <Gold.Chemscore.Hbond>
1.2609

> <Gold.Chemscore.Metal>
0.0000

> <Gold.Chemscore.Lipo>
50.5819

> <Gold.Chemscore.Internal_Hbond>
0.0000

> <Gold.Chemscore.DEClash>
0.1972

> <Gold.Chemscore.DEInternal>
4.4032

> <Gold.Chemscore.Rot>
1.6916

> <Gold.Chemscore.Internal.Correction>
   9.000000E+99

> <Gold.Chemscore.Hbonds>
donor molecule, donor type, donor heavy atom, donor atom, acceptor molecule, acceptor atom, score
      L1  H     3    19       P1  8028  0.86
      L1  H    10    28       P1 10171  0.46
      P1  H  7989  7998       L1    18  0.06

> <Gold.Chemscore.Hbond.Weighted>
-4.2116

> <Gold.Chemscore.Metal.Weighted>
-0.0000

> <Gold.Chemscore.Lipo.Weighted>
-5.9181

> <Gold.Chemscore.Internal_Hbond.Weighted>
0.0000

> <Gold.Chemscore.DEClash.Weighted>
0.1972

> <Gold.Chemscore.DEInternal.Weighted>
4.4032

> <Gold.Chemscore.Rot.Weighted>
4.3305

> <Gold.Chemscore.Internal.Correction.Weighted>
   9.000000E+99

> <Gold.Protein.RotatedTorsions>
[ 6907 6896 6895 6894 ] final   -9.92 input  -60.11 | X-H torsion
[ 7974 7965 7964 7962 ] final   99.13 input  175.53 | X-H torsion
[ 8008 7997 7996 7995 ] final  128.04 input   59.86 | X-H torsion
[ 10167 10162 10161 10158 ] final  155.42 input  -65.29 | X-H torsion
[ 10718 10713 10712 10709 ] final  176.02 input   66.30 | X-H torsion
[ 10763 10752 10751 10750 ] final  140.28 input  -60.55 | X-H torsion
[ 11005 11000 10999 10996 ] final -105.41 input  -57.11 | X-H torsion

> <Gold.Protein.ActiveResidues>
 VAL166  LYS551  ARG553  GLY616  TRP617  ASP618  TYR619  PRO620  LYS621  CYS622 
 ASP623  PHE694  ASN695  SER759  ASP760  ASP761  ALA762  ILE779  LEU786  VAL792 
 PHE793  MET794  SER795  GLU796  ALA797  LYS798  CYS799  TRP800  GLU811  SER814 

> <Gold.Protein.RotatedAtoms>
  151.4102  135.0984  159.9582 H   0  0  0  0  0  0  0  0  0  0  0  0  # atno 6907 bound_to 6896
  152.5022  133.8805  159.7354 H   0  0  0  0  0  0  0  0  0  0  0  0  # atno 6908 bound_to 6896
  150.9298  133.6723  159.2841 H   0  0  0  0  0  0  0  0  0  0  0  0  # atno 6909 bound_to 6896
  145.4029  139.2345  143.3290 H   0  0  0  0  0  0  0  0  0  0  0  0  # atno 7974 bound_to 7965
  156.2905  140.2654  156.2371 H   0  0  0  0  0  0  0  0  0  0  0  0  # atno 8008 bound_to 7997
  155.0014  140.0388  157.2380 H   0  0  0  0  0  0  0  0  0  0  0  0  # atno 8009 bound_to 7997
  154.7598  140.2758  155.6228 H   0  0  0  0  0  0  0  0  0  0  0  0  # atno 8010 bound_to 7997
  139.4821  144.5100  151.8039 H   0  0  0  0  0  0  0  0  0  0  0  0  # atno 10167 bound_to 10162
  156.9263  130.9956  151.2995 H   0  0  0  0  0  0  0  0  0  0  0  0  # atno 10718 bound_to 10713
  153.9201  135.3001  155.3448 H   0  0  0  0  0  0  0  0  0  0  0  0  # atno 10763 bound_to 10752
  154.7580  135.4948  153.9413 H   0  0  0  0  0  0  0  0  0  0  0  0  # atno 10764 bound_to 10752
  153.1146  135.6767  153.9543 H   0  0  0  0  0  0  0  0  0  0  0  0  # atno 10765 bound_to 10752
  141.1055  133.8805  157.1730 H   0  0  0  0  0  0  0  0  0  0  0  0  # atno 11005 bound_to 11000
  146.2743  140.4729  142.8802 LP  0  0  0  0  0  0  0  0  0  0  0  0  # atno 17320 bound_to 7965
  144.8361  140.6785  143.6259 LP  0  0  0  0  0  0  0  0  0  0  0  0  # atno 17321 bound_to 7965
  140.4602  144.1732  150.5905 LP  0  0  0  0  0  0  0  0  0  0  0  0  # atno 17342 bound_to 10162
  140.4492  143.2494  151.9370 LP  0  0  0  0  0  0  0  0  0  0  0  0  # atno 17343 bound_to 10162
  157.5876  130.8420  149.8612 LP  0  0  0  0  0  0  0  0  0  0  0  0  # atno 17370 bound_to 10713
  156.0468  130.3726  150.1299 LP  0  0  0  0  0  0  0  0  0  0  0  0  # atno 17371 bound_to 10713
  139.9923  135.0060  157.0003 LP  0  0  0  0  0  0  0  0  0  0  0  0  # atno 17394 bound_to 11000
  140.4914  134.1189  155.7233 LP  0  0  0  0  0  0  0  0  0  0  0  0  # atno 17395 bound_to 11000

$$$$
