AV-unprocessed.smi:1789|AV-procd|sdf|7214|dock1
  -GOLD-   22720 8453D 1   1.00000     0.00000
 Structure written by MMmdl.
 34 35  0  0  0  0  0  0  0  0  1 V2000
  151.9070  131.5645  156.9487 C   0  0  0  0  0  0  0  0  0  0  0  0
  151.0822  132.5330  156.1724 C   0  0  0  0  0  0  0  0  0  0  0  0
  150.2430  132.3934  155.1027 C   0  0  0  0  0  0  0  0  0  0  0  0
  149.7891  133.7202  154.8772 C   0  0  0  0  0  0  0  0  0  0  0  0
  148.8796  134.0113  153.8282 N   0  0  0  0  0  0  0  0  0  0  0  0
  147.7096  133.4030  153.5688 C   0  0  0  0  0  0  0  0  0  0  0  0
  147.2411  132.4633  154.2124 O   0  0  0  0  0  0  0  0  0  0  0  0
  147.1030  133.9448  152.5019 N   0  0  0  0  0  0  0  0  0  0  0  0
  145.8250  133.5046  151.9501 C   0  0  2  0  0  0  0  0  0  0  0  0
  145.9258  132.0518  151.4410 C   0  0  0  0  0  0  0  0  0  0  0  0
  144.6071  131.5904  150.8001 C   0  0  0  0  0  0  0  0  0  0  0  0
  144.1769  132.5418  149.6702 C   0  0  1  0  0  0  0  0  0  0  0  0
  142.9285  132.1288  149.1564 O   0  0  0  0  0  0  0  0  0  0  0  0
  144.0718  133.9915  150.1752 C   0  0  0  0  0  0  0  0  0  0  0  0
  145.3915  134.4523  150.8156 C   0  0  0  0  0  0  0  0  0  0  0  0
  150.3068  134.5910  155.7302 N   0  0  0  0  0  0  0  0  0  0  0  0
  151.1384  133.8347  156.5644 O   0  0  0  0  0  0  0  0  0  0  0  0
  151.6573  130.5377  156.6810 H   0  0  0  0  0  0  0  0  0  0  0  0
  151.7397  131.6843  158.0193 H   0  0  0  0  0  0  0  0  0  0  0  0
  152.9680  131.7176  156.7520 H   0  0  0  0  0  0  0  0  0  0  0  0
  149.9948  131.4869  154.5709 H   0  0  0  0  0  0  0  0  0  0  0  0
  149.1503  134.7603  153.2083 H   0  0  0  0  0  0  0  0  0  0  0  0
  147.5599  134.7130  152.0328 H   0  0  0  0  0  0  0  0  0  0  0  0
  145.0652  133.5507  152.7330 H   0  0  0  0  0  0  0  0  0  0  0  0
  146.7309  131.9714  150.7094 H   0  0  0  0  0  0  0  0  0  0  0  0
  146.1856  131.3811  152.2610 H   0  0  0  0  0  0  0  0  0  0  0  0
  144.7200  130.5763  150.4148 H   0  0  0  0  0  0  0  0  0  0  0  0
  143.8311  131.5472  151.5658 H   0  0  0  0  0  0  0  0  0  0  0  0
  144.9055  132.4935  148.8599 H   0  0  0  0  0  0  0  0  0  0  0  0
  142.2928  132.8063  149.3303 H   0  0  0  0  0  0  0  0  0  0  0  0
  143.8090  134.6571  149.3522 H   0  0  0  0  0  0  0  0  0  0  0  0
  143.2677  134.0723  150.9085 H   0  0  0  0  0  0  0  0  0  0  0  0
  145.2774  135.4669  151.1990 H   0  0  0  0  0  0  0  0  0  0  0  0
  146.1683  134.4957  150.0507 H   0  0  0  0  0  0  0  0  0  0  0  0
  1  2  1  0  0  0  0
  1 18  1  0  0  0  0
  1 19  1  0  0  0  0
  1 20  1  0  0  0  0
  2 17  1  0  0  0  0
  2  3  2  0  0  0  0
  3  4  1  0  0  0  0
  3 21  1  0  0  0  0
  4  5  1  0  0  0  0
  4 16  2  0  0  0  0
  5  6  1  0  0  0  0
  5 22  1  0  0  0  0
  6  7  2  0  0  0  0
  6  8  1  0  0  0  0
  8  9  1  0  0  0  0
  8 23  1  0  0  0  0
  9 15  1  0  0  0  0
  9 10  1  0  0  0  0
  9 24  1  0  0  0  0
 10 11  1  0  0  0  0
 10 25  1  0  0  0  0
 10 26  1  0  0  0  0
 11 12  1  0  0  0  0
 11 27  1  0  0  0  0
 11 28  1  0  0  0  0
 12 13  1  0  0  0  0
 12 14  1  0  0  0  0
 12 29  1  0  0  0  0
 13 30  1  0  0  0  0
 14 15  1  0  0  0  0
 14 31  1  0  0  0  0
 14 32  1  0  0  0  0
 15 33  1  0  0  0  0
 15 34  1  0  0  0  0
 16 17  1  0  0  0  0
M  END
> <s_m_source_file>
AV-unprocessed.smi

> <i_m_source_file_index>
1789

> <i_lp_mmshare_version>
43012

> <i_f3d_flags>
0

> <s_epik_input>
W0NIM11jMVtjSF1jKG5vMSlbTkhdQyg9TylbTkhdW0NAQEhdMltDSDJdW0NIMl1bQ0BASF0oW09IXSlbQ0gyXVtDSDJdMg==

> <s_epik_cmdline>
J2VwaWtfcHl0aG9uJywgJy1waCcsICc3LjAnLCAnLXRuJywgJzgnLCAnLW1hJywgJzIwMCcsICctbWV0YWxfYmluZGluZycsICctaW1hZScsICc8aW5maWxlLm1hZT4nLCAnLW9tYWUnLCAnPG91dGZpbGUubWFlPic=

> <r_lp_tautomer_probability>
1

> <r_epik_Ionization_Penalty>
2.38512e-05

> <r_epik_Ionization_Penalty_Charging>
0

> <r_epik_Ionization_Penalty_Neutral>
2.38512e-05

> <r_epik_State_Penalty>
-0

> <r_epik_Charging_Adjusted_Penalty>
0

> <i_epik_Tot_Q>
0

> <i_epik_Tot_abs_Q>
0

> <r_epik_Metal_State_Penalty>
-0

> <b_epik_Metal_Only>
0

> <s_lp_Force_Field>
OPLS_2005

> <r_lp_Energy>
5.01305

> <b_lp_Chiralities_Consistent>
1

> <s_lp_Variant>
AV-unprocessed.smi:1789-1

> <Gold.Version>
5.8.1

> <Gold.Id.Protein>
6NUR|6NUR_protein|mol2

> <Gold.PLP.Fitness>
41.3185

> <Gold.PLP.PLP>
-31.5069

> <Gold.PLP.part.hbond>
-5.1260

> <Gold.PLP.part.metal>
0.0000

> <Gold.PLP.part.buried>
-5.7230

> <Gold.PLP.part.nonpolar>
-22.1206

> <Gold.PLP.part.repulsive>
0.1053

> <Gold.PLP.ligand.clash>
0.0000

> <Gold.PLP.ligand.torsion>
0.4740

> <Gold.PLP.Chemscore.Hbond>
3.5850

> <Gold.PLP.Chemscore.CHOScore>
0.0000

> <Gold.PLP.Chemscore.Metal>
0.0000

> <Gold.Chemscore.Hbonds>
donor molecule, donor type, donor heavy atom, donor atom, acceptor molecule, acceptor atom, score
      L1  H     5    22       P1  7948  0.60
      L1  H     8    23       P1  7948  1.00
      L1  H    13    30       P1 10186  0.91
      P1  H 10785 10796       L1    13  0.96

> <Gold.PLP.Chemscore.Internal.Correction>
0.0047

> <Gold.Rescore>
     Score         DG    S(hbond)    S(metal)    S(lipo)     H(rot)  DE(clash)    DE(int)     intcor
     18.03     -18.61       3.03        0.00      58.16       1.49       0.07       0.51       ----

> <Gold.Chemscore.Fitness>
18.0336

> <Gold.Chemscore.DG>
-18.6091

> <Gold.Chemscore.ZeroCoef>
-5.4800

> <Gold.Chemscore.Hbond>
3.0346

> <Gold.Chemscore.Metal>
0.0000

> <Gold.Chemscore.Lipo>
58.1587

> <Gold.Chemscore.Internal_Hbond>
0.0000

> <Gold.Chemscore.DEClash>
0.0650

> <Gold.Chemscore.DEInternal>
0.5105

> <Gold.Chemscore.Rot>
1.4887

> <Gold.Chemscore.Internal.Correction>
   9.000000E+99

> <Gold.Chemscore.Hbonds>
donor molecule, donor type, donor heavy atom, donor atom, acceptor molecule, acceptor atom, score
      L1  H     5    22       P1  7948  0.04
      L1  H     8    23       P1  7948  0.65
      L1  H    13    30       P1 10186  0.87
      P1  H 10785 10796       L1    13  0.41

> <Gold.Chemscore.Hbond.Weighted>
-10.1357

> <Gold.Chemscore.Metal.Weighted>
-0.0000

> <Gold.Chemscore.Lipo.Weighted>
-6.8046

> <Gold.Chemscore.Internal_Hbond.Weighted>
0.0000

> <Gold.Chemscore.DEClash.Weighted>
0.0650

> <Gold.Chemscore.DEInternal.Weighted>
0.5105

> <Gold.Chemscore.Rot.Weighted>
3.8111

> <Gold.Chemscore.Internal.Correction.Weighted>
   9.000000E+99

> <Gold.Protein.RotatedTorsions>
[ 6907 6896 6895 6894 ] final  -45.58 input  -60.11 | X-H torsion
[ 7974 7965 7964 7962 ] final  -93.95 input  175.53 | X-H torsion
[ 8008 7997 7996 7995 ] final  123.97 input   59.86 | X-H torsion
[ 10167 10162 10161 10158 ] final -168.26 input  -65.29 | X-H torsion
[ 10718 10713 10712 10709 ] final   31.07 input   66.30 | X-H torsion
[ 10763 10752 10751 10750 ] final -126.74 input  -60.55 | X-H torsion
[ 11005 11000 10999 10996 ] final -131.54 input  -57.11 | X-H torsion

> <Gold.Protein.ActiveResidues>
 VAL166  LYS551  ARG553  GLY616  TRP617  ASP618  TYR619  PRO620  LYS621  CYS622 
 ASP623  PHE694  ASN695  SER759  ASP760  ASP761  ALA762  ILE779  LEU786  VAL792 
 PHE793  MET794  SER795  GLU796  ALA797  LYS798  CYS799  TRP800  GLU811  SER814 

> <Gold.Protein.RotatedAtoms>
  150.9204  134.8621  159.7484 H   0  0  0  0  0  0  0  0  0  0  0  0  # atno 6907 bound_to 6896
  152.4989  134.4227  159.9496 H   0  0  0  0  0  0  0  0  0  0  0  0  # atno 6908 bound_to 6896
  151.4261  133.3644  159.2797 H   0  0  0  0  0  0  0  0  0  0  0  0  # atno 6909 bound_to 6896
  145.3798  140.9516  143.2400 H   0  0  0  0  0  0  0  0  0  0  0  0  # atno 7974 bound_to 7965
  156.2785  140.2750  156.1712 H   0  0  0  0  0  0  0  0  0  0  0  0  # atno 8008 bound_to 7997
  155.0653  140.0387  157.2608 H   0  0  0  0  0  0  0  0  0  0  0  0  # atno 8009 bound_to 7997
  154.7084  140.2663  155.6658 H   0  0  0  0  0  0  0  0  0  0  0  0  # atno 8010 bound_to 7997
  139.5996  144.1038  152.1728 H   0  0  0  0  0  0  0  0  0  0  0  0  # atno 10167 bound_to 10162
  157.2677  130.7192  149.6488 H   0  0  0  0  0  0  0  0  0  0  0  0  # atno 10718 bound_to 10713
  154.8748  135.3985  154.3480 H   0  0  0  0  0  0  0  0  0  0  0  0  # atno 10763 bound_to 10752
  153.4269  135.7024  153.6261 H   0  0  0  0  0  0  0  0  0  0  0  0  # atno 10764 bound_to 10752
  153.4900  135.3750  155.2456 H   0  0  0  0  0  0  0  0  0  0  0  0  # atno 10765 bound_to 10752
  140.9249  134.1395  157.4283 H   0  0  0  0  0  0  0  0  0  0  0  0  # atno 11005 bound_to 11000
  144.8516  139.5313  143.6854 LP  0  0  0  0  0  0  0  0  0  0  0  0  # atno 17320 bound_to 7965
  146.2847  139.6973  142.9204 LP  0  0  0  0  0  0  0  0  0  0  0  0  # atno 17321 bound_to 7965
  140.0631  144.5840  150.7248 LP  0  0  0  0  0  0  0  0  0  0  0  0  # atno 17342 bound_to 10162
  140.7239  143.2616  151.4185 LP  0  0  0  0  0  0  0  0  0  0  0  0  # atno 17343 bound_to 10162
  155.9663  130.4377  150.5187 LP  0  0  0  0  0  0  0  0  0  0  0  0  # atno 17370 bound_to 10713
  157.3105  131.0663  151.2004 LP  0  0  0  0  0  0  0  0  0  0  0  0  # atno 17371 bound_to 10713
  139.8783  134.9985  156.5902 LP  0  0  0  0  0  0  0  0  0  0  0  0  # atno 17394 bound_to 11000
  140.7939  133.8560  155.8669 LP  0  0  0  0  0  0  0  0  0  0  0  0  # atno 17395 bound_to 11000

$$$$
