AV-unprocessed.smi:541|AV-procd|sdf|2872|dock4
  -GOLD-   2262023363D 1   1.00000     0.00000
 Structure written by MMmdl.
 42 44  0  0  0  0  0  0  0  0  2 V2000
  150.0761  135.1681  155.2185 C   0  0  0  0  0  0  0  0  0  0  0  0
  150.9569  135.0951  156.4677 C   0  0  0  0  0  0  0  0  0  0  0  0
  151.9555  136.0975  156.3852 O   0  0  0  0  0  0  0  0  0  0  0  0
  151.4823  137.3742  156.7793 C   0  0  0  0  0  0  0  0  0  0  0  0
  152.6688  138.3473  156.8322 C   0  0  0  0  0  0  0  0  0  0  0  0
  152.3570  139.5460  157.6066 N   0  0  0  0  0  0  0  0  0  0  0  0
  151.4299  140.5239  157.3703 C   0  0  0  0  0  0  0  0  0  0  0  0
  150.5324  140.5406  156.2889 N   0  0  0  0  0  0  0  0  0  0  0  0
  150.4373  139.7000  155.0943 C   0  0  0  0  0  0  0  0  0  0  0  0
  149.0471  139.8781  154.4933 C   0  0  0  0  0  0  0  0  0  0  0  0
  148.7497  141.3209  154.8335 C   0  0  0  0  0  0  0  0  0  0  0  0
  149.3916  141.4546  156.2111 C   0  0  0  0  0  0  0  0  0  0  0  0
  151.4371  141.5040  158.2787 N   0  0  0  0  0  0  0  0  0  0  0  0
  152.4205  141.1182  159.1716 C   0  0  0  0  0  0  0  0  0  0  0  0
  152.9837  139.9404  158.7970 C   0  0  0  0  0  0  0  0  0  0  0  0
  154.0570  139.2670  159.5661 C   0  0  0  0  0  0  0  0  0  0  0  0
  154.5229  138.1892  159.2024 O   0  0  0  0  0  0  0  0  0  0  0  0
  154.4243  139.9794  160.6782 N   0  5  0  0  0  0  0  0  0  0  0  0
  153.8830  141.1785  161.0877 C   0  0  0  0  0  0  0  0  0  0  0  0
  154.2739  141.7557  162.1033 O   0  0  0  0  0  0  0  0  0  0  0  0
  152.8810  141.7571  160.3549 N   0  0  0  0  0  0  0  0  0  0  0  0
  152.2807  143.0285  160.7691 C   0  0  0  0  0  0  0  0  0  0  0  0
  149.2929  134.4106  155.2492 H   0  0  0  0  0  0  0  0  0  0  0  0
  150.6646  135.0042  154.3155 H   0  0  0  0  0  0  0  0  0  0  0  0
  149.5962  136.1434  155.1343 H   0  0  0  0  0  0  0  0  0  0  0  0
  150.3482  135.2433  157.3610 H   0  0  0  0  0  0  0  0  0  0  0  0
  151.4178  134.1089  156.5404 H   0  0  0  0  0  0  0  0  0  0  0  0
  150.7277  137.7261  156.0753 H   0  0  0  0  0  0  0  0  0  0  0  0
  151.0026  137.3097  157.7569 H   0  0  0  0  0  0  0  0  0  0  0  0
  153.5385  137.8569  157.2667 H   0  0  0  0  0  0  0  0  0  0  0  0
  153.0022  138.6200  155.8363 H   0  0  0  0  0  0  0  0  0  0  0  0
  151.1865  140.0308  154.3745 H   0  0  0  0  0  0  0  0  0  0  0  0
  150.6165  138.6505  155.3191 H   0  0  0  0  0  0  0  0  0  0  0  0
  149.0152  139.6722  153.4231 H   0  0  0  0  0  0  0  0  0  0  0  0
  148.3340  139.2197  154.9917 H   0  0  0  0  0  0  0  0  0  0  0  0
  149.2452  141.9832  154.1222 H   0  0  0  0  0  0  0  0  0  0  0  0
  147.6844  141.5531  154.8343 H   0  0  0  0  0  0  0  0  0  0  0  0
  148.6769  141.1767  156.9870 H   0  0  0  0  0  0  0  0  0  0  0  0
  149.6998  142.4834  156.4011 H   0  0  0  0  0  0  0  0  0  0  0  0
  151.8533  142.9420  161.7691 H   0  0  0  0  0  0  0  0  0  0  0  0
  151.4825  143.3545  160.1024 H   0  0  0  0  0  0  0  0  0  0  0  0
  153.0335  143.8176  160.7866 H   0  0  0  0  0  0  0  0  0  0  0  0
  1  2  1  0  0  0  0
  1 23  1  0  0  0  0
  1 24  1  0  0  0  0
  1 25  1  0  0  0  0
  2  3  1  0  0  0  0
  2 26  1  0  0  0  0
  2 27  1  0  0  0  0
  3  4  1  0  0  0  0
  4  5  1  0  0  0  0
  4 28  1  0  0  0  0
  4 29  1  0  0  0  0
  5  6  1  0  0  0  0
  5 30  1  0  0  0  0
  5 31  1  0  0  0  0
  6 15  1  0  0  0  0
  6  7  1  0  0  0  0
  7  8  1  0  0  0  0
  7 13  2  0  0  0  0
  8 12  1  0  0  0  0
  8  9  1  0  0  0  0
  9 10  1  0  0  0  0
  9 32  1  0  0  0  0
  9 33  1  0  0  0  0
 10 11  1  0  0  0  0
 10 34  1  0  0  0  0
 10 35  1  0  0  0  0
 11 12  1  0  0  0  0
 11 36  1  0  0  0  0
 11 37  1  0  0  0  0
 12 38  1  0  0  0  0
 12 39  1  0  0  0  0
 13 14  1  0  0  0  0
 14 21  1  0  0  0  0
 14 15  2  0  0  0  0
 15 16  1  0  0  0  0
 16 17  2  0  0  0  0
 16 18  1  0  0  0  0
 18 19  1  0  0  0  0
 19 20  2  0  0  0  0
 19 21  1  0  0  0  0
 21 22  1  0  0  0  0
 22 40  1  0  0  0  0
 22 41  1  0  0  0  0
 22 42  1  0  0  0  0
M  CHG  1  18  -1
M  END
> <s_m_source_file>
AV-unprocessed.smi

> <i_m_source_file_index>
541

> <i_lp_mmshare_version>
43012

> <i_f3d_flags>
0

> <s_epik_input>
W0NIM11uMWMoPU8pW25IXWMoPU8pYyhjMTIpbihbQ0gyXVtDSDJdT1tDSDJdW0NIM10pYyhuMilOM1tDSDJdW0NIMl1bQ0gyXVtDSDJdMw==

> <s_epik_cmdline>
J2VwaWtfcHl0aG9uJywgJy1waCcsICc3LjAnLCAnLXRuJywgJzgnLCAnLW1hJywgJzIwMCcsICctbWV0YWxfYmluZGluZycsICctaW1hZScsICc8aW5maWxlLm1hZT4nLCAnLW9tYWUnLCAnPG91dGZpbGUubWFlPic=

> <r_lp_tautomer_probability>
1

> <r_epik_Ionization_Penalty>
6.1404

> <r_epik_Ionization_Penalty_Charging>
0.0734613

> <r_epik_Ionization_Penalty_Neutral>
6.06694

> <r_epik_State_Penalty>
6.06401

> <r_epik_Charging_Adjusted_Penalty>
6.13747

> <i_epik_Tot_Q>
-1

> <i_epik_Tot_abs_Q>
1

> <r_epik_Metal_State_Penalty>
2.01234

> <b_epik_Metal_Only>
1

> <s_lp_Force_Field>
OPLS_2005

> <r_lp_Energy>
49.972

> <b_lp_Chiralities_Consistent>
1

> <s_lp_Variant>
AV-unprocessed.smi:541-2

> <Gold.Version>
5.8.1

> <Gold.Id.Protein>
6NUR|6NUR_protein|mol2

> <Gold.PLP.Fitness>
39.9387

> <Gold.PLP.PLP>
-37.4214

> <Gold.PLP.part.hbond>
-2.0000

> <Gold.PLP.part.metal>
0.0000

> <Gold.PLP.part.buried>
-3.4433

> <Gold.PLP.part.nonpolar>
-31.9293

> <Gold.PLP.part.repulsive>
0.0157

> <Gold.PLP.ligand.clash>
0.0000

> <Gold.PLP.ligand.torsion>
0.2576

> <Gold.PLP.Chemscore.Hbond>
1.0000

> <Gold.PLP.Chemscore.CHOScore>
0.0000

> <Gold.PLP.Chemscore.Metal>
0.0000

> <Gold.Chemscore.Hbonds>
donor molecule, donor type, donor heavy atom, donor atom, acceptor molecule, acceptor atom, score
      P1  H 10752 10764       L1     3  1.00

> <Gold.PLP.Chemscore.Internal.Correction>
0.0325

> <Gold.Rescore>
     Score         DG    S(hbond)    S(metal)    S(lipo)     H(rot)  DE(clash)    DE(int)     intcor
     11.32     -11.80       0.95        0.00      62.69       1.64       0.05       0.44       ----

> <Gold.Chemscore.Fitness>
11.3164

> <Gold.Chemscore.DG>
-11.8046

> <Gold.Chemscore.ZeroCoef>
-5.4800

> <Gold.Chemscore.Hbond>
0.9531

> <Gold.Chemscore.Metal>
0.0000

> <Gold.Chemscore.Lipo>
62.6884

> <Gold.Chemscore.Internal_Hbond>
0.0000

> <Gold.Chemscore.DEClash>
0.0475

> <Gold.Chemscore.DEInternal>
0.4408

> <Gold.Chemscore.Rot>
1.6380

> <Gold.Chemscore.Internal.Correction>
   9.000000E+99

> <Gold.Chemscore.Hbonds>
donor molecule, donor type, donor heavy atom, donor atom, acceptor molecule, acceptor atom, score
      P1  H 10752 10764       L1     3  0.39

> <Gold.Chemscore.Hbond.Weighted>
-3.1835

> <Gold.Chemscore.Metal.Weighted>
-0.0000

> <Gold.Chemscore.Lipo.Weighted>
-7.3345

> <Gold.Chemscore.Internal_Hbond.Weighted>
0.0000

> <Gold.Chemscore.DEClash.Weighted>
0.0475

> <Gold.Chemscore.DEInternal.Weighted>
0.4408

> <Gold.Chemscore.Rot.Weighted>
4.1934

> <Gold.Chemscore.Internal.Correction.Weighted>
   9.000000E+99

> <Gold.Protein.RotatedTorsions>
[ 6907 6896 6895 6894 ] final   24.35 input  -60.11 | X-H torsion
[ 7974 7965 7964 7962 ] final    9.54 input  175.53 | X-H torsion
[ 8008 7997 7996 7995 ] final  -77.43 input   59.86 | X-H torsion
[ 10167 10162 10161 10158 ] final   31.01 input  -65.29 | X-H torsion
[ 10718 10713 10712 10709 ] final  -71.26 input   66.30 | X-H torsion
[ 10763 10752 10751 10750 ] final  -42.31 input  -60.55 | X-H torsion
[ 11005 11000 10999 10996 ] final   34.95 input  -57.11 | X-H torsion

> <Gold.Protein.ActiveResidues>
 VAL166  LYS551  ARG553  GLY616  TRP617  ASP618  TYR619  PRO620  LYS621  CYS622 
 ASP623  PHE694  ASN695  SER759  ASP760  ASP761  ALA762  ILE779  LEU786  VAL792 
 PHE793  MET794  SER795  GLU796  ALA797  LYS798  CYS799  TRP800  GLU811  SER814 

> <Gold.Protein.RotatedAtoms>
  151.9561  135.0146  160.0544 H   0  0  0  0  0  0  0  0  0  0  0  0  # atno 6907 bound_to 6896
  152.1910  133.4768  159.5016 H   0  0  0  0  0  0  0  0  0  0  0  0  # atno 6908 bound_to 6896
  150.6935  134.1630  159.4226 H   0  0  0  0  0  0  0  0  0  0  0  0  # atno 6909 bound_to 6896
  146.2402  139.9767  142.8441 H   0  0  0  0  0  0  0  0  0  0  0  0  # atno 7974 bound_to 7965
  154.5595  140.0710  156.8796 H   0  0  0  0  0  0  0  0  0  0  0  0  # atno 8008 bound_to 7997
  155.2838  140.3373  155.4238 H   0  0  0  0  0  0  0  0  0  0  0  0  # atno 8009 bound_to 7997
  156.2030  140.1729  156.7845 H   0  0  0  0  0  0  0  0  0  0  0  0  # atno 8010 bound_to 7997
  140.4627  144.0882  150.6217 H   0  0  0  0  0  0  0  0  0  0  0  0  # atno 10167 bound_to 10162
  156.0370  130.4348  150.2418 H   0  0  0  0  0  0  0  0  0  0  0  0  # atno 10718 bound_to 10713
  153.9769  135.6721  153.4749 H   0  0  0  0  0  0  0  0  0  0  0  0  # atno 10763 bound_to 10752
  153.0766  135.4945  154.8414 H   0  0  0  0  0  0  0  0  0  0  0  0  # atno 10764 bound_to 10752
  154.7187  135.3112  154.9044 H   0  0  0  0  0  0  0  0  0  0  0  0  # atno 10765 bound_to 10752
  140.2476  134.3341  155.7902 H   0  0  0  0  0  0  0  0  0  0  0  0  # atno 11005 bound_to 11000
  145.1630  140.9682  143.4366 LP  0  0  0  0  0  0  0  0  0  0  0  0  # atno 17320 bound_to 7965
  145.0099  139.3520  143.6125 LP  0  0  0  0  0  0  0  0  0  0  0  0  # atno 17321 bound_to 7965
  140.4074  143.2673  151.9874 LP  0  0  0  0  0  0  0  0  0  0  0  0  # atno 17342 bound_to 10162
  139.4808  144.5945  151.7714 LP  0  0  0  0  0  0  0  0  0  0  0  0  # atno 17343 bound_to 10162
  157.0516  131.0064  151.3251 LP  0  0  0  0  0  0  0  0  0  0  0  0  # atno 17370 bound_to 10713
  157.5136  130.7954  149.7732 LP  0  0  0  0  0  0  0  0  0  0  0  0  # atno 17371 bound_to 10713
  141.2204  133.7335  156.8986 LP  0  0  0  0  0  0  0  0  0  0  0  0  # atno 17394 bound_to 11000
  140.1590  134.9178  157.2690 LP  0  0  0  0  0  0  0  0  0  0  0  0  # atno 17395 bound_to 11000

$$$$
