AV-unprocessed.smi:1020|AV-procd|sdf|4453|dock2
  -GOLD-   22720 2423D 1   1.00000     0.00000
 Structure written by MMmdl.
 46 47  0  0  0  0  0  0  0  0  1 V2000
  145.5180  133.7976  162.4591 C   0  0  0  0  0  0  0  0  0  0  0  0
  146.9134  134.2710  162.0372 C   0  0  0  0  0  0  0  0  0  0  0  0
  147.5249  135.2218  163.0780 C   0  0  0  0  0  0  0  0  0  0  0  0
  146.7690  134.9322  160.7873 O   0  0  0  0  0  0  0  0  0  0  0  0
  147.9469  135.5737  160.3179 C   0  0  0  0  0  0  0  0  0  0  0  0
  147.6088  136.4212  159.0848 C   0  0  0  0  0  0  0  0  0  0  0  0
  148.8202  136.8391  158.3186 C   0  0  0  0  0  0  0  0  0  0  0  0
  148.8673  137.6752  157.2845 N   0  0  0  0  0  0  0  0  0  0  0  0
  150.1873  137.6114  156.9553 C   0  0  0  0  0  0  0  0  0  0  0  0
  150.7797  138.3848  155.8200 C   0  0  0  0  0  0  0  0  0  0  0  0
  151.7698  139.4312  156.3356 C   0  0  0  0  0  0  0  0  0  0  0  0
  152.9246  139.4483  155.9094 O   0  0  0  0  0  0  0  0  0  0  0  0
  151.3062  140.2973  157.2512 N   0  0  0  0  0  0  0  0  0  0  0  0
  152.0899  141.3466  157.8947 C   0  0  0  0  0  0  0  0  0  0  0  0
  152.1644  141.1082  159.4172 C   0  0  0  0  0  0  0  0  0  0  0  0
  152.9127  142.2448  160.1315 C   0  0  0  0  0  0  0  0  0  0  0  0
  152.2826  143.6107  159.8183 C   0  0  0  0  0  0  0  0  0  0  0  0
  152.2145  143.8550  158.3025 C   0  0  0  0  0  0  0  0  0  0  0  0
  151.4632  142.7199  157.5877 C   0  0  0  0  0  0  0  0  0  0  0  0
  150.9327  136.8083  157.7065 N   0  0  0  0  0  0  0  0  0  0  0  0
  150.0135  136.2730  158.6200 O   0  0  0  0  0  0  0  0  0  0  0  0
  145.5509  133.2700  163.4125 H   0  0  0  0  0  0  0  0  0  0  0  0
  145.1030  133.1153  161.7181 H   0  0  0  0  0  0  0  0  0  0  0  0
  144.8284  134.6360  162.5625 H   0  0  0  0  0  0  0  0  0  0  0  0
  147.5482  133.3901  161.9266 H   0  0  0  0  0  0  0  0  0  0  0  0
  147.5913  134.7398  164.0538 H   0  0  0  0  0  0  0  0  0  0  0  0
  146.9192  136.1213  163.1923 H   0  0  0  0  0  0  0  0  0  0  0  0
  148.5321  135.5316  162.8008 H   0  0  0  0  0  0  0  0  0  0  0  0
  148.3746  136.2103  161.0923 H   0  0  0  0  0  0  0  0  0  0  0  0
  148.6982  134.8267  160.0566 H   0  0  0  0  0  0  0  0  0  0  0  0
  146.9511  135.8609  158.4193 H   0  0  0  0  0  0  0  0  0  0  0  0
  147.0606  137.3143  159.3860 H   0  0  0  0  0  0  0  0  0  0  0  0
  151.2856  137.6991  155.1389 H   0  0  0  0  0  0  0  0  0  0  0  0
  149.9907  138.8758  155.2484 H   0  0  0  0  0  0  0  0  0  0  0  0
  150.3425  140.2086  157.5404 H   0  0  0  0  0  0  0  0  0  0  0  0
  153.1020  141.3355  157.4851 H   0  0  0  0  0  0  0  0  0  0  0  0
  151.1561  141.0274  159.8262 H   0  0  0  0  0  0  0  0  0  0  0  0
  152.6602  140.1597  159.6271 H   0  0  0  0  0  0  0  0  0  0  0  0
  152.9097  142.0713  161.2080 H   0  0  0  0  0  0  0  0  0  0  0  0
  153.9584  142.2444  159.8210 H   0  0  0  0  0  0  0  0  0  0  0  0
  151.2783  143.6558  160.2414 H   0  0  0  0  0  0  0  0  0  0  0  0
  152.8565  144.4043  160.2977 H   0  0  0  0  0  0  0  0  0  0  0  0
  151.7252  144.8086  158.1015 H   0  0  0  0  0  0  0  0  0  0  0  0
  153.2249  143.9347  157.8992 H   0  0  0  0  0  0  0  0  0  0  0  0
  151.4648  142.9000  156.5121 H   0  0  0  0  0  0  0  0  0  0  0  0
  150.4178  142.7278  157.9005 H   0  0  0  0  0  0  0  0  0  0  0  0
  1  2  1  0  0  0  0
  1 22  1  0  0  0  0
  1 23  1  0  0  0  0
  1 24  1  0  0  0  0
  2  3  1  0  0  0  0
  2  4  1  0  0  0  0
  2 25  1  0  0  0  0
  3 26  1  0  0  0  0
  3 27  1  0  0  0  0
  3 28  1  0  0  0  0
  4  5  1  0  0  0  0
  5  6  1  0  0  0  0
  5 29  1  0  0  0  0
  5 30  1  0  0  0  0
  6  7  1  0  0  0  0
  6 31  1  0  0  0  0
  6 32  1  0  0  0  0
  7 21  1  0  0  0  0
  7  8  2  0  0  0  0
  8  9  1  0  0  0  0
  9 10  1  0  0  0  0
  9 20  2  0  0  0  0
 10 11  1  0  0  0  0
 10 33  1  0  0  0  0
 10 34  1  0  0  0  0
 11 12  2  0  0  0  0
 11 13  1  0  0  0  0
 13 14  1  0  0  0  0
 13 35  1  0  0  0  0
 14 19  1  0  0  0  0
 14 15  1  0  0  0  0
 14 36  1  0  0  0  0
 15 16  1  0  0  0  0
 15 37  1  0  0  0  0
 15 38  1  0  0  0  0
 16 17  1  0  0  0  0
 16 39  1  0  0  0  0
 16 40  1  0  0  0  0
 17 18  1  0  0  0  0
 17 41  1  0  0  0  0
 17 42  1  0  0  0  0
 18 19  1  0  0  0  0
 18 43  1  0  0  0  0
 18 44  1  0  0  0  0
 19 45  1  0  0  0  0
 19 46  1  0  0  0  0
 20 21  1  0  0  0  0
M  END
> <s_m_source_file>
AV-unprocessed.smi

> <i_m_source_file_index>
1020

> <i_lp_mmshare_version>
43012

> <i_f3d_flags>
0

> <s_epik_input>
W0NIM11bQ0hdKFtDSDNdKU9bQ0gyXVtDSDJdYzFuYyhubzEpW0NIMl1DKD1PKVtOSF1bQ0hdMltDSDJdW0NIMl1bQ0gyXVtDSDJdW0NIMl0y

> <s_epik_cmdline>
J2VwaWtfcHl0aG9uJywgJy1waCcsICc3LjAnLCAnLXRuJywgJzgnLCAnLW1hJywgJzIwMCcsICctbWV0YWxfYmluZGluZycsICctaW1hZScsICc8aW5maWxlLm1hZT4nLCAnLW9tYWUnLCAnPG91dGZpbGUubWFlPic=

> <r_lp_tautomer_probability>
1

> <r_epik_Ionization_Penalty>
6.23671e-08

> <r_epik_Ionization_Penalty_Charging>
0

> <r_epik_Ionization_Penalty_Neutral>
6.23671e-08

> <r_epik_State_Penalty>
-0

> <r_epik_Charging_Adjusted_Penalty>
0

> <i_epik_Tot_Q>
0

> <i_epik_Tot_abs_Q>
0

> <r_epik_Metal_State_Penalty>
-0

> <b_epik_Metal_Only>
0

> <s_lp_Force_Field>
OPLS_2005

> <r_lp_Energy>
5.58856

> <b_lp_Chiralities_Consistent>
1

> <s_lp_Variant>
AV-unprocessed.smi:1020-1

> <Gold.Version>
5.8.1

> <Gold.Id.Protein>
6NUR|6NUR_protein|mol2

> <Gold.PLP.Fitness>
45.5529

> <Gold.PLP.PLP>
-39.8705

> <Gold.PLP.part.hbond>
-1.8827

> <Gold.PLP.part.metal>
0.0000

> <Gold.PLP.part.buried>
-5.5542

> <Gold.PLP.part.nonpolar>
-32.2555

> <Gold.PLP.part.repulsive>
0.0692

> <Gold.PLP.ligand.clash>
0.0000

> <Gold.PLP.ligand.torsion>
0.2473

> <Gold.PLP.Chemscore.Hbond>
2.0000

> <Gold.PLP.Chemscore.CHOScore>
0.0000

> <Gold.PLP.Chemscore.Metal>
0.0000

> <Gold.Chemscore.Hbonds>
donor molecule, donor type, donor heavy atom, donor atom, acceptor molecule, acceptor atom, score
      P1  H  6896  6909       L1    21  1.00
      P1  H  7997  8010       L1    12  1.00

> <Gold.PLP.Chemscore.Internal.Correction>
0.1771

> <Gold.Rescore>
     Score         DG    S(hbond)    S(metal)    S(lipo)     H(rot)  DE(clash)    DE(int)     intcor
     18.03     -18.50       1.87        0.00     103.90       2.10       0.02       0.45       ----

> <Gold.Chemscore.Fitness>
18.0271

> <Gold.Chemscore.DG>
-18.5033

> <Gold.Chemscore.ZeroCoef>
-5.4800

> <Gold.Chemscore.Hbond>
1.8676

> <Gold.Chemscore.Metal>
0.0000

> <Gold.Chemscore.Lipo>
103.9044

> <Gold.Chemscore.Internal_Hbond>
0.0000

> <Gold.Chemscore.DEClash>
0.0215

> <Gold.Chemscore.DEInternal>
0.4547

> <Gold.Chemscore.Rot>
2.0982

> <Gold.Chemscore.Internal.Correction>
   9.000000E+99

> <Gold.Chemscore.Hbonds>
donor molecule, donor type, donor heavy atom, donor atom, acceptor molecule, acceptor atom, score
      P1  H  6896  6909       L1    21  0.77
      P1  H  7997  8010       L1    12  0.99

> <Gold.Chemscore.Hbond.Weighted>
-6.2378

> <Gold.Chemscore.Metal.Weighted>
-0.0000

> <Gold.Chemscore.Lipo.Weighted>
-12.1568

> <Gold.Chemscore.Internal_Hbond.Weighted>
0.0000

> <Gold.Chemscore.DEClash.Weighted>
0.0215

> <Gold.Chemscore.DEInternal.Weighted>
0.4547

> <Gold.Chemscore.Rot.Weighted>
5.3713

> <Gold.Chemscore.Internal.Correction.Weighted>
   9.000000E+99

> <Gold.Protein.RotatedTorsions>
[ 6907 6896 6895 6894 ] final   69.43 input  -60.11 | X-H torsion
[ 7974 7965 7964 7962 ] final  137.74 input  175.53 | X-H torsion
[ 8008 7997 7996 7995 ] final   97.79 input   59.86 | X-H torsion
[ 10167 10162 10161 10158 ] final   83.40 input  -65.29 | X-H torsion
[ 10718 10713 10712 10709 ] final  -47.77 input   66.30 | X-H torsion
[ 10763 10752 10751 10750 ] final  162.34 input  -60.55 | X-H torsion
[ 11005 11000 10999 10996 ] final   24.68 input  -57.11 | X-H torsion

> <Gold.Protein.ActiveResidues>
 VAL166  LYS551  ARG553  GLY616  TRP617  ASP618  TYR619  PRO620  LYS621  CYS622 
 ASP623  PHE694  ASN695  SER759  ASP760  ASP761  ALA762  ILE779  LEU786  VAL792 
 PHE793  MET794  SER795  GLU796  ALA797  LYS798  CYS799  TRP800  GLU811  SER814 

> <Gold.Protein.RotatedAtoms>
  152.4686  134.5016  159.9726 H   0  0  0  0  0  0  0  0  0  0  0  0  # atno 6907 bound_to 6896
  151.5048  133.3491  159.2883 H   0  0  0  0  0  0  0  0  0  0  0  0  # atno 6908 bound_to 6896
  150.8683  134.8079  159.7197 H   0  0  0  0  0  0  0  0  0  0  0  0  # atno 6909 bound_to 6896
  144.9439  139.4898  143.5558 H   0  0  0  0  0  0  0  0  0  0  0  0  # atno 7974 bound_to 7965
  156.0938  140.3253  155.7850 H   0  0  0  0  0  0  0  0  0  0  0  0  # atno 8008 bound_to 7997
  155.4953  140.0565  157.2965 H   0  0  0  0  0  0  0  0  0  0  0  0  # atno 8009 bound_to 7997
  154.4653  140.1986  156.0149 H   0  0  0  0  0  0  0  0  0  0  0  0  # atno 8010 bound_to 7997
  139.9187  144.6226  150.8462 H   0  0  0  0  0  0  0  0  0  0  0  0  # atno 10167 bound_to 10162
  156.2053  130.4158  149.9187 H   0  0  0  0  0  0  0  0  0  0  0  0  # atno 10718 bound_to 10713
  154.2769  135.2764  155.2714 H   0  0  0  0  0  0  0  0  0  0  0  0  # atno 10763 bound_to 10752
  154.5252  135.5745  153.6717 H   0  0  0  0  0  0  0  0  0  0  0  0  # atno 10764 bound_to 10752
  152.9935  135.6214  154.2926 H   0  0  0  0  0  0  0  0  0  0  0  0  # atno 10765 bound_to 10752
  140.3561  134.2176  155.7676 H   0  0  0  0  0  0  0  0  0  0  0  0  # atno 11005 bound_to 11000
  146.3296  139.8477  142.8879 LP  0  0  0  0  0  0  0  0  0  0  0  0  # atno 17320 bound_to 7965
  145.2948  141.0177  143.3642 LP  0  0  0  0  0  0  0  0  0  0  0  0  # atno 17321 bound_to 7965
  140.7667  143.3312  151.2406 LP  0  0  0  0  0  0  0  0  0  0  0  0  # atno 17342 bound_to 10162
  139.6880  143.9741  152.2844 LP  0  0  0  0  0  0  0  0  0  0  0  0  # atno 17343 bound_to 10162
  156.6883  130.8885  151.3585 LP  0  0  0  0  0  0  0  0  0  0  0  0  # atno 17370 bound_to 10713
  157.7008  130.9331  150.0781 LP  0  0  0  0  0  0  0  0  0  0  0  0  # atno 17371 bound_to 10713
  141.1998  133.8003  157.0519 LP  0  0  0  0  0  0  0  0  0  0  0  0  # atno 17394 bound_to 11000
  140.0664  134.9726  157.1393 LP  0  0  0  0  0  0  0  0  0  0  0  0  # atno 17395 bound_to 11000

$$$$
