AV-unprocessed.smi:235|AV-procd|sdf|1808|dock5
  -GOLD-   2262020383D 1   1.00000     0.00000
 Structure written by MMmdl.
 54 58  0  0  0  0  0  0  0  0  1 V2000
  148.4317  136.6244  161.1862 O   0  0  0  0  0  0  0  0  0  0  0  0
  147.6440  135.6783  161.1454 C   0  0  0  0  0  0  0  0  0  0  0  0
  146.3229  135.8076  161.3342 N   0  0  0  0  0  0  0  0  0  0  0  0
  145.6404  137.0302  161.6080 C   0  0  0  0  0  0  0  0  0  0  0  0
  144.8694  137.1311  162.9061 C   0  0  0  0  0  0  0  0  0  0  0  0
  144.1274  137.0026  161.6044 C   0  0  0  0  0  0  0  0  0  0  0  0
  148.1491  134.2555  160.8550 C   0  0  1  0  0  0  0  0  0  0  0  0
  147.7695  133.2849  161.9853 C   0  0  0  0  0  0  0  0  0  0  0  0
  147.6778  131.9321  161.2875 C   0  0  0  0  0  0  0  0  0  0  0  0
  147.1233  132.2851  159.9085 C   0  0  0  0  0  0  0  0  0  0  0  0
  147.5216  133.6665  159.6683 N   0  0  0  0  0  0  0  0  0  0  0  0
  147.8135  134.0746  158.4038 C   0  0  0  0  0  0  0  0  0  0  0  0
  148.9652  134.7603  158.1733 N   0  0  0  0  0  0  0  0  0  0  0  0
  149.2750  135.1748  156.9418 C   0  0  0  0  0  0  0  0  0  0  0  0
  148.5851  135.0185  155.8111 N   0  0  0  0  0  0  0  0  0  0  0  0
  147.4241  134.3394  156.0335 C   0  0  0  0  0  0  0  0  0  0  0  0
  146.9649  133.8341  157.2837 C   0  0  0  0  0  0  0  0  0  0  0  0
  145.7341  133.2088  157.1114 N   0  0  0  0  0  0  0  0  0  0  0  0
  145.4849  133.3323  155.8364 C   0  0  0  0  0  0  0  0  0  0  0  0
  146.4475  134.0000  155.1151 N   0  0  0  0  0  0  0  0  0  0  0  0
  146.4297  134.2855  153.6918 C   0  0  0  0  0  0  0  0  0  0  0  0
  145.1117  133.8514  153.0220 C   0  0  1  0  0  0  0  0  0  0  0  0
  144.0286  134.6269  153.5002 O   0  0  0  0  0  0  0  0  0  0  0  0
  145.1760  133.9148  151.4828 C   0  0  1  0  0  0  0  0  0  0  0  0
  146.1366  132.9251  150.8005 C   0  0  0  0  0  0  0  0  0  0  0  0
  145.2776  132.2554  149.7399 C   0  0  0  0  0  0  0  0  0  0  0  0
  144.1041  133.2151  149.5828 C   0  0  0  0  0  0  0  0  0  0  0  0
  143.8961  133.6804  150.9053 O   0  0  0  0  0  0  0  0  0  0  0  0
  145.7565  134.9735  161.2825 H   0  0  0  0  0  0  0  0  0  0  0  0
  146.1007  137.9510  161.2520 H   0  0  0  0  0  0  0  0  0  0  0  0
  144.8750  136.2678  163.5694 H   0  0  0  0  0  0  0  0  0  0  0  0
  144.8487  138.0990  163.4027 H   0  0  0  0  0  0  0  0  0  0  0  0
  143.6115  137.8848  161.2307 H   0  0  0  0  0  0  0  0  0  0  0  0
  143.6348  136.0538  161.3997 H   0  0  0  0  0  0  0  0  0  0  0  0
  149.2335  134.2509  160.7277 H   0  0  0  0  0  0  0  0  0  0  0  0
  148.4971  133.2839  162.7975 H   0  0  0  0  0  0  0  0  0  0  0  0
  146.7963  133.5363  162.4115 H   0  0  0  0  0  0  0  0  0  0  0  0
  148.6763  131.5049  161.1857 H   0  0  0  0  0  0  0  0  0  0  0  0
  147.0565  131.2149  161.8244 H   0  0  0  0  0  0  0  0  0  0  0  0
  147.5020  131.5977  159.1506 H   0  0  0  0  0  0  0  0  0  0  0  0
  146.0339  132.2298  159.9071 H   0  0  0  0  0  0  0  0  0  0  0  0
  150.2090  135.7095  156.8503 H   0  0  0  0  0  0  0  0  0  0  0  0
  144.5864  132.9380  155.3844 H   0  0  0  0  0  0  0  0  0  0  0  0
  146.6013  135.3533  153.5501 H   0  0  0  0  0  0  0  0  0  0  0  0
  147.2734  133.7705  153.2308 H   0  0  0  0  0  0  0  0  0  0  0  0
  144.9043  132.8186  153.3058 H   0  0  0  0  0  0  0  0  0  0  0  0
  144.2664  135.5393  153.4365 H   0  0  0  0  0  0  0  0  0  0  0  0
  145.4686  134.9247  151.1900 H   0  0  0  0  0  0  0  0  0  0  0  0
  146.9663  133.4649  150.3428 H   0  0  0  0  0  0  0  0  0  0  0  0
  146.5632  132.1901  151.4838 H   0  0  0  0  0  0  0  0  0  0  0  0
  145.8108  132.0803  148.8051 H   0  0  0  0  0  0  0  0  0  0  0  0
  144.9182  131.2942  150.1103 H   0  0  0  0  0  0  0  0  0  0  0  0
  144.3676  134.0537  148.9361 H   0  0  0  0  0  0  0  0  0  0  0  0
  143.2138  132.7323  149.1790 H   0  0  0  0  0  0  0  0  0  0  0  0
  1  2  2  0  0  0  0
  2  3  1  0  0  0  0
  2  7  1  0  0  0  0
  3  4  1  0  0  0  0
  3 29  1  0  0  0  0
  4  6  1  0  0  0  0
  4  5  1  0  0  0  0
  4 30  1  0  0  0  0
  5  6  1  0  0  0  0
  5 31  1  0  0  0  0
  5 32  1  0  0  0  0
  6 33  1  0  0  0  0
  6 34  1  0  0  0  0
  7 11  1  0  0  0  0
  7  8  1  0  0  0  0
  7 35  1  0  0  0  0
  8  9  1  0  0  0  0
  8 36  1  0  0  0  0
  8 37  1  0  0  0  0
  9 10  1  0  0  0  0
  9 38  1  0  0  0  0
  9 39  1  0  0  0  0
 10 11  1  0  0  0  0
 10 40  1  0  0  0  0
 10 41  1  0  0  0  0
 11 12  1  0  0  0  0
 12 17  1  0  0  0  0
 12 13  2  0  0  0  0
 13 14  1  0  0  0  0
 14 15  2  0  0  0  0
 14 42  1  0  0  0  0
 15 16  1  0  0  0  0
 16 20  1  0  0  0  0
 16 17  2  0  0  0  0
 17 18  1  0  0  0  0
 18 19  2  0  0  0  0
 19 20  1  0  0  0  0
 19 43  1  0  0  0  0
 20 21  1  0  0  0  0
 21 22  1  0  0  0  0
 21 44  1  0  0  0  0
 21 45  1  0  0  0  0
 22 23  1  0  0  0  0
 22 24  1  0  0  0  0
 22 46  1  0  0  0  0
 23 47  1  0  0  0  0
 24 28  1  0  0  0  0
 24 25  1  0  0  0  0
 24 48  1  0  0  0  0
 25 26  1  0  0  0  0
 25 49  1  0  0  0  0
 25 50  1  0  0  0  0
 26 27  1  0  0  0  0
 26 51  1  0  0  0  0
 26 52  1  0  0  0  0
 27 28  1  0  0  0  0
 27 53  1  0  0  0  0
 27 54  1  0  0  0  0
M  END
> <s_m_source_file>
AV-unprocessed.smi

> <i_m_source_file_index>
235

> <i_lp_mmshare_version>
43012

> <i_f3d_flags>
0

> <s_epik_input>
W0NIMl0xW0NIMl1bQ0hdMVtOSF1DKD1PKVtDQEBIXTJbQ0gyXVtDSDJdW0NIMl1OMmMobltjSF1uMyljKGMzNCluW2NIXW40W0NIMl1bQ0BIXShbT0hdKVtDQEBIXTVbQ0gyXVtDSDJdW0NIMl1PNQ==

> <s_epik_cmdline>
J2VwaWtfcHl0aG9uJywgJy1waCcsICc3LjAnLCAnLXRuJywgJzgnLCAnLW1hJywgJzIwMCcsICctbWV0YWxfYmluZGluZycsICctaW1hZScsICc8aW5maWxlLm1hZT4nLCAnLW9tYWUnLCAnPG91dGZpbGUubWFlPic=

> <r_lp_tautomer_probability>
1

> <r_epik_Ionization_Penalty>
0.000526714

> <r_epik_Ionization_Penalty_Charging>
0

> <r_epik_Ionization_Penalty_Neutral>
0.000526714

> <r_epik_State_Penalty>
0.000272704

> <r_epik_Charging_Adjusted_Penalty>
0.000272704

> <i_epik_Tot_Q>
0

> <i_epik_Tot_abs_Q>
0

> <r_epik_Metal_State_Penalty>
-0

> <b_epik_Metal_Only>
0

> <s_lp_Force_Field>
OPLS_2005

> <r_lp_Energy>
60.2581

> <b_lp_Chiralities_Consistent>
1

> <s_lp_Variant>
AV-unprocessed.smi:235-8

> <Gold.Version>
5.8.1

> <Gold.Id.Protein>
6NUR|6NUR_protein|mol2

> <Gold.PLP.Fitness>
42.1364

> <Gold.PLP.PLP>
-34.6306

> <Gold.PLP.part.hbond>
-2.8612

> <Gold.PLP.part.metal>
0.0000

> <Gold.PLP.part.buried>
-5.5518

> <Gold.PLP.part.nonpolar>
-25.5547

> <Gold.PLP.part.repulsive>
0.2841

> <Gold.PLP.ligand.clash>
0.0000

> <Gold.PLP.ligand.torsion>
0.7079

> <Gold.PLP.Chemscore.Hbond>
1.8400

> <Gold.PLP.Chemscore.CHOScore>
1.0000

> <Gold.PLP.Chemscore.Metal>
0.0000

> <Gold.Chemscore.Hbonds>
donor molecule, donor type, donor heavy atom, donor atom, acceptor molecule, acceptor atom, score
      P1  H  6896  6908       L1    13  0.65
      P1  H  6931  6943       L1     1  1.00
      L1  C    19    43       P1 10957  1.00

> <Gold.PLP.Chemscore.Internal.Correction>
0.4017

> <Gold.Rescore>
     Score         DG    S(hbond)    S(metal)    S(lipo)     H(rot)  DE(clash)    DE(int)     intcor
     12.72     -13.55       1.78        0.00      76.77       2.68       0.00       0.82       ----

> <Gold.Chemscore.Fitness>
12.7234

> <Gold.Chemscore.DG>
-13.5479

> <Gold.Chemscore.ZeroCoef>
-5.4800

> <Gold.Chemscore.Hbond>
1.7775

> <Gold.Chemscore.Metal>
0.0000

> <Gold.Chemscore.Lipo>
76.7665

> <Gold.Chemscore.Internal_Hbond>
0.0000

> <Gold.Chemscore.DEClash>
0.0009

> <Gold.Chemscore.DEInternal>
0.8236

> <Gold.Chemscore.Rot>
2.6760

> <Gold.Chemscore.Internal.Correction>
   9.000000E+99

> <Gold.Chemscore.Hbonds>
donor molecule, donor type, donor heavy atom, donor atom, acceptor molecule, acceptor atom, score
      P1  H  6896  6908       L1    13  0.51
      P1  H  6931  6943       L1     1  1.00

> <Gold.Chemscore.Hbond.Weighted>
-5.9368

> <Gold.Chemscore.Metal.Weighted>
-0.0000

> <Gold.Chemscore.Lipo.Weighted>
-8.9817

> <Gold.Chemscore.Internal_Hbond.Weighted>
0.0000

> <Gold.Chemscore.DEClash.Weighted>
0.0009

> <Gold.Chemscore.DEInternal.Weighted>
0.8236

> <Gold.Chemscore.Rot.Weighted>
6.8506

> <Gold.Chemscore.Internal.Correction.Weighted>
   9.000000E+99

> <Gold.Protein.RotatedTorsions>
[ 6907 6896 6895 6894 ] final  138.31 input  -60.11 | X-H torsion
[ 7974 7965 7964 7962 ] final  160.30 input  175.53 | X-H torsion
[ 8008 7997 7996 7995 ] final -160.05 input   59.86 | X-H torsion
[ 10167 10162 10161 10158 ] final -137.16 input  -65.29 | X-H torsion
[ 10718 10713 10712 10709 ] final  -71.34 input   66.30 | X-H torsion
[ 10763 10752 10751 10750 ] final -107.52 input  -60.55 | X-H torsion
[ 11005 11000 10999 10996 ] final -148.05 input  -57.11 | X-H torsion

> <Gold.Protein.ActiveResidues>
 VAL166  LYS551  ARG553  GLY616  TRP617  ASP618  TYR619  PRO620  LYS621  CYS622 
 ASP623  PHE694  ASN695  SER759  ASP760  ASP761  ALA762  ILE779  LEU786  VAL792 
 PHE793  MET794  SER795  GLU796  ALA797  LYS798  CYS799  TRP800  GLU811  SER814 

> <Gold.Protein.RotatedAtoms>
  152.2680  133.5357  159.5421 H   0  0  0  0  0  0  0  0  0  0  0  0  # atno 6907 bound_to 6896
  150.7149  134.0737  159.3882 H   0  0  0  0  0  0  0  0  0  0  0  0  # atno 6908 bound_to 6896
  151.8653  135.0509  160.0524 H   0  0  0  0  0  0  0  0  0  0  0  0  # atno 6909 bound_to 6896
  144.7744  139.7737  143.6284 H   0  0  0  0  0  0  0  0  0  0  0  0  # atno 7974 bound_to 7965
  155.7716  140.0853  157.2105 H   0  0  0  0  0  0  0  0  0  0  0  0  # atno 8008 bound_to 7997
  154.3996  140.1524  156.3006 H   0  0  0  0  0  0  0  0  0  0  0  0  # atno 8009 bound_to 7997
  155.8741  140.3424  155.5844 H   0  0  0  0  0  0  0  0  0  0  0  0  # atno 8010 bound_to 7997
  139.8606  143.7082  152.2650 H   0  0  0  0  0  0  0  0  0  0  0  0  # atno 10167 bound_to 10162
  156.0367  130.4349  150.2430 H   0  0  0  0  0  0  0  0  0  0  0  0  # atno 10718 bound_to 10713
  154.8080  135.4672  154.0442 H   0  0  0  0  0  0  0  0  0  0  0  0  # atno 10763 bound_to 10752
  153.1895  135.6853  153.8377 H   0  0  0  0  0  0  0  0  0  0  0  0  # atno 10764 bound_to 10752
  153.7900  135.3244  155.3354 H   0  0  0  0  0  0  0  0  0  0  0  0  # atno 10765 bound_to 10752
  140.7653  134.3251  157.5090 H   0  0  0  0  0  0  0  0  0  0  0  0  # atno 11005 bound_to 11000
  146.1914  139.5156  142.9803 LP  0  0  0  0  0  0  0  0  0  0  0  0  # atno 17320 bound_to 7965
  145.6228  141.0319  143.1905 LP  0  0  0  0  0  0  0  0  0  0  0  0  # atno 17321 bound_to 7965
  139.7378  144.7567  151.0700 LP  0  0  0  0  0  0  0  0  0  0  0  0  # atno 17342 bound_to 10162
  140.7775  143.5009  150.9772 LP  0  0  0  0  0  0  0  0  0  0  0  0  # atno 17343 bound_to 10162
  157.0528  131.0067  151.3248 LP  0  0  0  0  0  0  0  0  0  0  0  0  # atno 17370 bound_to 10713
  157.5128  130.7949  149.7723 LP  0  0  0  0  0  0  0  0  0  0  0  0  # atno 17371 bound_to 10713
  139.8764  134.9227  156.3307 LP  0  0  0  0  0  0  0  0  0  0  0  0  # atno 17394 bound_to 11000
  140.9625  133.7379  156.0421 LP  0  0  0  0  0  0  0  0  0  0  0  0  # atno 17395 bound_to 11000

$$$$
