AV-unprocessed.smi:203|AV-procd|sdf|1589|dock6
  -GOLD-   2262019483D 1   1.00000     0.00000
 Structure written by MMmdl.
 57 61  0  0  0  0  0  0  0  0  1 V2000
  151.9086  146.3530  160.0701 O   0  0  0  0  0  0  0  0  0  0  0  0
  151.8921  145.3519  159.3580 C   0  0  0  0  0  0  0  0  0  0  0  0
  151.3191  144.0169  159.8012 C   0  0  0  0  0  0  0  0  0  0  0  0
  151.7401  143.0487  158.6765 C   0  0  2  0  0  0  0  0  0  0  0  0
  152.8104  141.9925  159.0992 C   0  0  1  0  0  0  0  0  0  0  0  0
  153.1910  142.0914  160.6006 C   0  0  0  0  0  0  0  0  0  0  0  0
  154.2403  141.0430  160.9923 C   0  0  0  0  0  0  0  0  0  0  0  0
  153.7349  139.6422  160.6323 C   0  0  0  0  0  0  0  0  0  0  0  0
  153.3771  139.5715  159.1423 C   0  0  0  0  0  0  0  0  0  0  0  0
  152.4141  140.6098  158.7754 N   0  0  0  0  0  0  0  0  0  0  0  0
  151.9521  140.3996  157.5224 C   0  0  0  0  0  0  0  0  0  0  0  0
  152.7918  139.7966  156.6454 N   0  0  0  0  0  0  0  0  0  0  0  0
  152.3858  139.5498  155.3962 C   0  0  0  0  0  0  0  0  0  0  0  0
  151.2068  139.8214  154.8315 N   0  0  0  0  0  0  0  0  0  0  0  0
  150.3648  140.4367  155.7110 C   0  0  0  0  0  0  0  0  0  0  0  0
  150.6538  140.7628  157.0655 C   0  0  0  0  0  0  0  0  0  0  0  0
  149.5560  141.3839  157.6495 N   0  0  0  0  0  0  0  0  0  0  0  0
  148.6692  141.4261  156.6928 C   0  0  0  0  0  0  0  0  0  0  0  0
  149.0713  140.8787  155.4960 N   0  0  0  0  0  0  0  0  0  0  0  0
  148.2897  140.7960  154.2751 C   0  0  0  0  0  0  0  0  0  0  0  0
  148.0710  139.3383  153.8157 C   0  0  1  0  0  0  0  0  0  0  0  0
  149.2601  138.8042  153.2687 O   0  0  0  0  0  0  0  0  0  0  0  0
  147.5703  138.3888  154.9240 C   0  0  2  0  0  0  0  0  0  0  0  0
  147.0662  137.0342  154.4163 C   0  0  0  0  0  0  0  0  0  0  0  0
  146.0037  136.6278  155.4285 C   0  0  0  0  0  0  0  0  0  0  0  0
  145.8650  137.8472  156.3407 C   0  0  0  0  0  0  0  0  0  0  0  0
  146.4351  138.9123  155.5973 O   0  0  0  0  0  0  0  0  0  0  0  0
  152.2024  143.9609  157.5198 C   0  0  0  0  0  0  0  0  0  0  0  0
  152.3591  145.2743  158.1137 N   0  0  0  0  0  0  0  0  0  0  0  0
  151.6941  143.7291  160.7837 H   0  0  0  0  0  0  0  0  0  0  0  0
  150.2334  144.0955  159.8649 H   0  0  0  0  0  0  0  0  0  0  0  0
  150.8514  142.5279  158.3191 H   0  0  0  0  0  0  0  0  0  0  0  0
  153.7158  142.2035  158.5292 H   0  0  0  0  0  0  0  0  0  0  0  0
  153.5774  143.0814  160.8396 H   0  0  0  0  0  0  0  0  0  0  0  0
  152.3087  141.9507  161.2251 H   0  0  0  0  0  0  0  0  0  0  0  0
  155.1776  141.2448  160.4724 H   0  0  0  0  0  0  0  0  0  0  0  0
  154.4535  141.1037  162.0597 H   0  0  0  0  0  0  0  0  0  0  0  0
  154.4925  138.8955  160.8710 H   0  0  0  0  0  0  0  0  0  0  0  0
  152.8568  139.4011  161.2328 H   0  0  0  0  0  0  0  0  0  0  0  0
  154.2813  139.6853  158.5427 H   0  0  0  0  0  0  0  0  0  0  0  0
  152.9670  138.5862  158.9146 H   0  0  0  0  0  0  0  0  0  0  0  0
  153.1090  139.0644  154.7577 H   0  0  0  0  0  0  0  0  0  0  0  0
  147.6908  141.8621  156.8337 H   0  0  0  0  0  0  0  0  0  0  0  0
  147.3354  141.2968  154.4419 H   0  0  0  0  0  0  0  0  0  0  0  0
  148.8071  141.3674  153.5042 H   0  0  0  0  0  0  0  0  0  0  0  0
  147.3403  139.3290  153.0060 H   0  0  0  0  0  0  0  0  0  0  0  0
  149.0258  138.1339  152.6447 H   0  0  0  0  0  0  0  0  0  0  0  0
  148.3620  138.2089  155.6547 H   0  0  0  0  0  0  0  0  0  0  0  0
  146.6108  137.1277  153.4303 H   0  0  0  0  0  0  0  0  0  0  0  0
  147.8717  136.3034  154.3385 H   0  0  0  0  0  0  0  0  0  0  0  0
  145.0630  136.4111  154.9211 H   0  0  0  0  0  0  0  0  0  0  0  0
  146.2910  135.7415  155.9950 H   0  0  0  0  0  0  0  0  0  0  0  0
  144.8292  138.0569  156.6083 H   0  0  0  0  0  0  0  0  0  0  0  0
  146.4343  137.7070  157.2611 H   0  0  0  0  0  0  0  0  0  0  0  0
  153.1251  143.6250  157.0466 H   0  0  0  0  0  0  0  0  0  0  0  0
  151.4383  144.0187  156.7437 H   0  0  0  0  0  0  0  0  0  0  0  0
  152.7824  146.0471  157.6201 H   0  0  0  0  0  0  0  0  0  0  0  0
  1  2  2  0  0  0  0
  2 29  1  0  0  0  0
  2  3  1  0  0  0  0
  3  4  1  0  0  0  0
  3 30  1  0  0  0  0
  3 31  1  0  0  0  0
  4  5  1  0  0  0  0
  4 28  1  0  0  0  0
  4 32  1  0  0  0  0
  5 10  1  0  0  0  0
  5  6  1  0  0  0  0
  5 33  1  0  0  0  0
  6  7  1  0  0  0  0
  6 34  1  0  0  0  0
  6 35  1  0  0  0  0
  7  8  1  0  0  0  0
  7 36  1  0  0  0  0
  7 37  1  0  0  0  0
  8  9  1  0  0  0  0
  8 38  1  0  0  0  0
  8 39  1  0  0  0  0
  9 10  1  0  0  0  0
  9 40  1  0  0  0  0
  9 41  1  0  0  0  0
 10 11  1  0  0  0  0
 11 16  1  0  0  0  0
 11 12  2  0  0  0  0
 12 13  1  0  0  0  0
 13 14  2  0  0  0  0
 13 42  1  0  0  0  0
 14 15  1  0  0  0  0
 15 19  1  0  0  0  0
 15 16  2  0  0  0  0
 16 17  1  0  0  0  0
 17 18  2  0  0  0  0
 18 19  1  0  0  0  0
 18 43  1  0  0  0  0
 19 20  1  0  0  0  0
 20 21  1  0  0  0  0
 20 44  1  0  0  0  0
 20 45  1  0  0  0  0
 21 22  1  0  0  0  0
 21 23  1  0  0  0  0
 21 46  1  0  0  0  0
 22 47  1  0  0  0  0
 23 27  1  0  0  0  0
 23 24  1  0  0  0  0
 23 48  1  0  0  0  0
 24 25  1  0  0  0  0
 24 49  1  0  0  0  0
 24 50  1  0  0  0  0
 25 26  1  0  0  0  0
 25 51  1  0  0  0  0
 25 52  1  0  0  0  0
 26 27  1  0  0  0  0
 26 53  1  0  0  0  0
 26 54  1  0  0  0  0
 28 29  1  0  0  0  0
 28 55  1  0  0  0  0
 28 56  1  0  0  0  0
 29 57  1  0  0  0  0
M  END
> <s_m_source_file>
AV-unprocessed.smi

> <i_m_source_file_index>
203

> <i_lp_mmshare_version>
43012

> <i_f3d_flags>
0

> <s_epik_input>
Tz1DMVtDSDJdW0NASF0oW0NIMl1bTkhdMSlbQ0BASF0yW0NIMl1bQ0gyXVtDSDJdW0NIMl1OMmMobltjSF1uMyljKGMzNCluW2NIXW40W0NIMl1bQ0BIXShbT0hdKVtDQEBIXTVbQ0gyXVtDSDJdW0NIMl1PNQ==

> <s_epik_cmdline>
J2VwaWtfcHl0aG9uJywgJy1waCcsICc3LjAnLCAnLXRuJywgJzgnLCAnLW1hJywgJzIwMCcsICctbWV0YWxfYmluZGluZycsICctaW1hZScsICc8aW5maWxlLm1hZT4nLCAnLW9tYWUnLCAnPG91dGZpbGUubWFlPic=

> <r_lp_tautomer_probability>
1

> <r_epik_Ionization_Penalty>
0.00175146

> <r_epik_Ionization_Penalty_Charging>
0

> <r_epik_Ionization_Penalty_Neutral>
0.00175146

> <r_epik_State_Penalty>
0.00109045

> <r_epik_Charging_Adjusted_Penalty>
0.00109045

> <i_epik_Tot_Q>
0

> <i_epik_Tot_abs_Q>
0

> <r_epik_Metal_State_Penalty>
-0

> <b_epik_Metal_Only>
0

> <s_lp_Force_Field>
OPLS_2005

> <r_lp_Energy>
57.3309

> <b_lp_Chiralities_Consistent>
1

> <s_lp_Variant>
AV-unprocessed.smi:203-8

> <Gold.Version>
5.8.1

> <Gold.Id.Protein>
6NUR|6NUR_protein|mol2

> <Gold.PLP.Fitness>
51.7900

> <Gold.PLP.PLP>
-47.0769

> <Gold.PLP.part.hbond>
-5.4664

> <Gold.PLP.part.metal>
0.0000

> <Gold.PLP.part.buried>
-2.5339

> <Gold.PLP.part.nonpolar>
-38.5680

> <Gold.PLP.part.repulsive>
0.4800

> <Gold.PLP.ligand.clash>
0.0000

> <Gold.PLP.ligand.torsion>
2.2107

> <Gold.PLP.Chemscore.Hbond>
2.9600

> <Gold.PLP.Chemscore.CHOScore>
0.0000

> <Gold.PLP.Chemscore.Metal>
0.0000

> <Gold.Chemscore.Hbonds>
donor molecule, donor type, donor heavy atom, donor atom, acceptor molecule, acceptor atom, score
      L1  H    22    47       P1  7948  1.00
      P1  H  7989  7998       L1    14  1.00
      P1  H  7997  8010       L1    12  0.94

> <Gold.PLP.Chemscore.Internal.Correction>
0.2545

> <Gold.Rescore>
     Score         DG    S(hbond)    S(metal)    S(lipo)     H(rot)  DE(clash)    DE(int)     intcor
     11.60     -16.98       2.10        0.00      97.77       2.72       0.71       4.66       ----

> <Gold.Chemscore.Fitness>
11.6015

> <Gold.Chemscore.DG>
-16.9756

> <Gold.Chemscore.ZeroCoef>
-5.4800

> <Gold.Chemscore.Hbond>
2.0993

> <Gold.Chemscore.Metal>
0.0000

> <Gold.Chemscore.Lipo>
97.7741

> <Gold.Chemscore.Internal_Hbond>
0.0000

> <Gold.Chemscore.DEClash>
0.7100

> <Gold.Chemscore.DEInternal>
4.6641

> <Gold.Chemscore.Rot>
2.7171

> <Gold.Chemscore.Internal.Correction>
   9.000000E+99

> <Gold.Chemscore.Hbonds>
donor molecule, donor type, donor heavy atom, donor atom, acceptor molecule, acceptor atom, score
      L1  H    22    47       P1  7948  0.91
      P1  H  7989  7998       L1    14  0.33
      P1  H  7997  8010       L1    12  0.78

> <Gold.Chemscore.Hbond.Weighted>
-7.0117

> <Gold.Chemscore.Metal.Weighted>
-0.0000

> <Gold.Chemscore.Lipo.Weighted>
-11.4396

> <Gold.Chemscore.Internal_Hbond.Weighted>
0.0000

> <Gold.Chemscore.DEClash.Weighted>
0.7100

> <Gold.Chemscore.DEInternal.Weighted>
4.6641

> <Gold.Chemscore.Rot.Weighted>
6.9557

> <Gold.Chemscore.Internal.Correction.Weighted>
   9.000000E+99

> <Gold.Protein.RotatedTorsions>
[ 6907 6896 6895 6894 ] final  -40.05 input  -60.11 | X-H torsion
[ 7974 7965 7964 7962 ] final  125.76 input  175.53 | X-H torsion
[ 8008 7997 7996 7995 ] final   48.67 input   59.86 | X-H torsion
[ 10167 10162 10161 10158 ] final -103.51 input  -65.29 | X-H torsion
[ 10718 10713 10712 10709 ] final -110.62 input   66.30 | X-H torsion
[ 10763 10752 10751 10750 ] final   11.46 input  -60.55 | X-H torsion
[ 11005 11000 10999 10996 ] final  -12.06 input  -57.11 | X-H torsion

> <Gold.Protein.ActiveResidues>
 VAL166  LYS551  ARG553  GLY616  TRP617  ASP618  TYR619  PRO620  LYS621  CYS622 
 ASP623  PHE694  ASN695  SER759  ASP760  ASP761  ALA762  ILE779  LEU786  VAL792 
 PHE793  MET794  SER795  GLU796  ALA797  LYS798  CYS799  TRP800  GLU811  SER814 

> <Gold.Protein.RotatedAtoms>
  150.9831  134.9182  159.7855 H   0  0  0  0  0  0  0  0  0  0  0  0  # atno 6907 bound_to 6896
  152.5228  134.3384  159.9218 H   0  0  0  0  0  0  0  0  0  0  0  0  # atno 6908 bound_to 6896
  151.3390  133.3929  159.2704 H   0  0  0  0  0  0  0  0  0  0  0  0  # atno 6909 bound_to 6896
  145.0694  139.3742  143.4965 H   0  0  0  0  0  0  0  0  0  0  0  0  # atno 7974 bound_to 7965
  155.3895  140.3432  155.4250 H   0  0  0  0  0  0  0  0  0  0  0  0  # atno 8008 bound_to 7997
  156.1566  140.1587  156.8716 H   0  0  0  0  0  0  0  0  0  0  0  0  # atno 8009 bound_to 7997
  154.5100  140.0792  156.7952 H   0  0  0  0  0  0  0  0  0  0  0  0  # atno 8010 bound_to 7997
  140.2192  143.3688  152.0984 H   0  0  0  0  0  0  0  0  0  0  0  0  # atno 10167 bound_to 10162
  156.0601  130.5825  150.8262 H   0  0  0  0  0  0  0  0  0  0  0  0  # atno 10718 bound_to 10713
  153.1924  135.6844  153.8336 H   0  0  0  0  0  0  0  0  0  0  0  0  # atno 10763 bound_to 10752
  153.7631  135.3207  155.3341 H   0  0  0  0  0  0  0  0  0  0  0  0  # atno 10764 bound_to 10752
  154.8125  135.4708  154.0652 H   0  0  0  0  0  0  0  0  0  0  0  0  # atno 10765 bound_to 10752
  140.7618  133.8509  155.9131 H   0  0  0  0  0  0  0  0  0  0  0  0  # atno 11005 bound_to 11000
  146.3528  140.0431  142.8641 LP  0  0  0  0  0  0  0  0  0  0  0  0  # atno 17320 bound_to 7965
  145.1311  140.9518  143.4544 LP  0  0  0  0  0  0  0  0  0  0  0  0  # atno 17321 bound_to 7965
  139.5150  144.6957  151.5637 LP  0  0  0  0  0  0  0  0  0  0  0  0  # atno 17342 bound_to 10162
  140.6267  143.9154  150.6571 LP  0  0  0  0  0  0  0  0  0  0  0  0  # atno 17343 bound_to 10162
  157.5602  131.0945  150.9570 LP  0  0  0  0  0  0  0  0  0  0  0  0  # atno 17370 bound_to 10713
  156.9809  130.5526  149.5296 LP  0  0  0  0  0  0  0  0  0  0  0  0  # atno 17371 bound_to 10713
  140.9656  134.1599  157.4619 LP  0  0  0  0  0  0  0  0  0  0  0  0  # atno 17394 bound_to 11000
  139.8769  134.9960  156.5774 LP  0  0  0  0  0  0  0  0  0  0  0  0  # atno 17395 bound_to 11000

$$$$
