AV-unprocessed.smi:2391|AV-procd|sdf|9483|dock9
  -GOLD-   2272013113D 1   1.00000     0.00000
 Structure written by MMmdl.
 35 36  0  0  0  0  0  0  0  0  1 V2000
  149.9503  136.3943  158.8166 O   0  0  0  0  0  0  0  0  0  0  0  0
  149.1631  137.2438  159.2436 C   0  0  0  0  0  0  0  0  0  0  0  0
  148.4505  137.2469  160.4374 N   0  0  0  0  0  0  0  0  0  0  0  0
  148.0504  136.1529  161.0178 C   0  0  0  0  0  0  0  0  0  0  0  0
  147.3172  136.2011  162.2713 C   0  0  0  0  0  0  0  0  0  0  0  0
  146.8968  135.0709  162.8853 C   0  0  0  0  0  0  0  0  0  0  0  0
  147.1927  133.7949  162.2646 C   0  0  0  0  0  0  0  0  0  0  0  0
  147.8390  133.7049  161.1506 N   0  0  0  0  0  0  0  0  0  0  0  0
  148.2529  134.8374  160.5465 N   0  0  0  0  0  0  0  0  0  0  0  0
  148.8828  138.3567  158.5482 N   0  0  0  0  0  0  0  0  0  0  0  0
  149.4277  138.7346  157.2413 C   0  0  2  0  0  0  0  0  0  0  0  0
  149.7384  140.2542  157.2351 C   0  0  0  0  0  0  0  0  0  0  0  0
  150.4261  140.7759  155.9684 C   0  0  0  0  0  0  0  0  0  0  0  0
  151.0318  142.1230  156.3710 C   0  0  0  0  0  0  0  0  0  0  0  0
  151.2840  142.0423  157.8823 C   0  0  0  0  0  0  0  0  0  0  0  0
  150.7000  140.7027  158.3459 C   0  0  0  0  0  0  0  0  0  0  0  0
  148.4358  138.2904  156.1417 C   0  0  0  0  0  0  0  0  0  0  0  0
  148.0613  137.0281  156.3548 F   0  0  0  0  0  0  0  0  0  0  0  0
  147.3499  139.0646  156.1465 F   0  0  0  0  0  0  0  0  0  0  0  0
  149.0010  138.3456  154.9365 F   0  0  0  0  0  0  0  0  0  0  0  0
  147.0875  137.1430  162.7479 H   0  0  0  0  0  0  0  0  0  0  0  0
  146.3515  135.1057  163.8167 H   0  0  0  0  0  0  0  0  0  0  0  0
  146.8338  132.9162  162.8003 H   0  0  0  0  0  0  0  0  0  0  0  0
  148.2257  139.0041  158.9590 H   0  0  0  0  0  0  0  0  0  0  0  0
  150.3628  138.2009  157.0641 H   0  0  0  0  0  0  0  0  0  0  0  0
  148.8052  140.8060  157.3606 H   0  0  0  0  0  0  0  0  0  0  0  0
  151.2222  140.0929  155.6679 H   0  0  0  0  0  0  0  0  0  0  0  0
  149.7400  140.8792  155.1274 H   0  0  0  0  0  0  0  0  0  0  0  0
  151.9425  142.3400  155.8121 H   0  0  0  0  0  0  0  0  0  0  0  0
  150.3222  142.9246  156.1616 H   0  0  0  0  0  0  0  0  0  0  0  0
  152.3473  142.1051  158.1164 H   0  0  0  0  0  0  0  0  0  0  0  0
  150.7899  142.8724  158.3884 H   0  0  0  0  0  0  0  0  0  0  0  0
  150.2077  140.7837  159.3155 H   0  0  0  0  0  0  0  0  0  0  0  0
  151.5077  139.9767  158.4503 H   0  0  0  0  0  0  0  0  0  0  0  0
  148.7530  134.7205  159.6766 H   0  0  0  0  0  0  0  0  0  0  0  0
  1  2  2  0  0  0  0
  2  3  1  0  0  0  0
  2 10  1  0  0  0  0
  3  4  2  0  0  0  0
  4  9  1  0  0  0  0
  4  5  1  0  0  0  0
  5  6  2  0  0  0  0
  5 21  1  0  0  0  0
  6  7  1  0  0  0  0
  6 22  1  0  0  0  0
  7  8  2  0  0  0  0
  7 23  1  0  0  0  0
  8  9  1  0  0  0  0
  9 35  1  0  0  0  0
 10 11  1  0  0  0  0
 10 24  1  0  0  0  0
 11 12  1  0  0  0  0
 11 17  1  0  0  0  0
 11 25  1  0  0  0  0
 12 16  1  0  0  0  0
 12 13  1  0  0  0  0
 12 26  1  0  0  0  0
 13 14  1  0  0  0  0
 13 27  1  0  0  0  0
 13 28  1  0  0  0  0
 14 15  1  0  0  0  0
 14 29  1  0  0  0  0
 14 30  1  0  0  0  0
 15 16  1  0  0  0  0
 15 31  1  0  0  0  0
 15 32  1  0  0  0  0
 16 33  1  0  0  0  0
 16 34  1  0  0  0  0
 17 18  1  0  0  0  0
 17 19  1  0  0  0  0
 17 20  1  0  0  0  0
M  END
> <s_m_source_file>
AV-unprocessed.smi

> <i_m_source_file_index>
2391

> <i_lp_mmshare_version>
43012

> <i_f3d_flags>
0

> <s_epik_input>
W0NIMl0xW0NIMl1bQ0gyXVtDSDJdW0NIXTFbQ0BIXShDKEYpKEYpRilbTkhdQyg9TylbTkhdYzJbY0hdW2NIXVtjSF1ubjI=

> <s_epik_cmdline>
J2VwaWtfcHl0aG9uJywgJy1waCcsICc3LjAnLCAnLXRuJywgJzgnLCAnLW1hJywgJzIwMCcsICctbWV0YWxfYmluZGluZycsICctaW1hZScsICc8aW5maWxlLm1hZT4nLCAnLW9tYWUnLCAnPG91dGZpbGUubWFlPic=

> <r_epik_Ionization_Penalty>
0.0611197

> <r_epik_Ionization_Penalty_Charging>
0.0611196

> <r_epik_Ionization_Penalty_Neutral>
6.50554e-08

> <r_epik_State_Penalty>
2.29873

> <r_epik_Charging_Adjusted_Penalty>
2.35985

> <i_epik_Tot_Q>
0

> <i_epik_Tot_abs_Q>
0

> <r_epik_Metal_State_Penalty>
2.32932

> <b_epik_Metal_Only>
0

> <s_lp_Force_Field>
OPLS_2005

> <r_lp_Energy>
49.9712

> <b_lp_Chiralities_Consistent>
1

> <s_lp_Variant>
AV-unprocessed.smi:2391-3

> <Gold.Version>
5.8.1

> <Gold.Id.Protein>
6NUR|6NUR_protein|mol2

> <Gold.PLP.Fitness>
35.3297

> <Gold.PLP.PLP>
-30.5191

> <Gold.PLP.part.hbond>
-3.0000

> <Gold.PLP.part.metal>
0.0000

> <Gold.PLP.part.buried>
-5.4683

> <Gold.PLP.part.nonpolar>
-22.6635

> <Gold.PLP.part.repulsive>
0.2709

> <Gold.PLP.ligand.clash>
0.0000

> <Gold.PLP.ligand.torsion>
0.7140

> <Gold.PLP.Chemscore.Hbond>
1.9839

> <Gold.PLP.Chemscore.CHOScore>
0.0000

> <Gold.PLP.Chemscore.Metal>
0.0000

> <Gold.Chemscore.Hbonds>
donor molecule, donor type, donor heavy atom, donor atom, acceptor molecule, acceptor atom, score
      P1  H  6896  6908       L1     1  1.00
      P1  H  6931  6943       L1     3  0.69
      P1  H  6934  6947       L1     3  0.28

> <Gold.PLP.Chemscore.Internal.Correction>
0.2871

> <Gold.Rescore>
     Score         DG    S(hbond)    S(metal)    S(lipo)     H(rot)  DE(clash)    DE(int)     intcor
     13.90     -14.82       1.77        0.00      58.38       1.33       0.06       0.86       ----

> <Gold.Chemscore.Fitness>
13.8992

> <Gold.Chemscore.DG>
-14.8211

> <Gold.Chemscore.ZeroCoef>
-5.4800

> <Gold.Chemscore.Hbond>
1.7712

> <Gold.Chemscore.Metal>
0.0000

> <Gold.Chemscore.Lipo>
58.3845

> <Gold.Chemscore.Internal_Hbond>
0.0000

> <Gold.Chemscore.DEClash>
0.0611

> <Gold.Chemscore.DEInternal>
0.8608

> <Gold.Chemscore.Rot>
1.3304

> <Gold.Chemscore.Internal.Correction>
   9.000000E+99

> <Gold.Chemscore.Hbonds>
donor molecule, donor type, donor heavy atom, donor atom, acceptor molecule, acceptor atom, score
      P1  H  6896  6908       L1     1  0.98
      P1  H  6931  6943       L1     3  0.23
      P1  H  6934  6947       L1     3  0.24

> <Gold.Chemscore.Hbond.Weighted>
-5.9158

> <Gold.Chemscore.Metal.Weighted>
-0.0000

> <Gold.Chemscore.Lipo.Weighted>
-6.8310

> <Gold.Chemscore.Internal_Hbond.Weighted>
0.0000

> <Gold.Chemscore.DEClash.Weighted>
0.0611

> <Gold.Chemscore.DEInternal.Weighted>
0.8608

> <Gold.Chemscore.Rot.Weighted>
3.4057

> <Gold.Chemscore.Internal.Correction.Weighted>
   9.000000E+99

> <Gold.Protein.RotatedTorsions>
[ 6907 6896 6895 6894 ] final -173.16 input  -60.11 | X-H torsion
[ 7974 7965 7964 7962 ] final   87.61 input  175.53 | X-H torsion
[ 8008 7997 7996 7995 ] final  125.85 input   59.86 | X-H torsion
[ 10167 10162 10161 10158 ] final  139.31 input  -65.29 | X-H torsion
[ 10718 10713 10712 10709 ] final  -67.37 input   66.30 | X-H torsion
[ 10763 10752 10751 10750 ] final -102.14 input  -60.55 | X-H torsion
[ 11005 11000 10999 10996 ] final  -83.01 input  -57.11 | X-H torsion

> <Gold.Protein.ActiveResidues>
 VAL166  LYS551  ARG553  GLY616  TRP617  ASP618  TYR619  PRO620  LYS621  CYS622 
 ASP623  PHE694  ASN695  SER759  ASP760  ASP761  ALA762  ILE779  LEU786  VAL792 
 PHE793  MET794  SER795  GLU796  ALA797  LYS798  CYS799  TRP800  GLU811  SER814 

> <Gold.Protein.RotatedAtoms>
  151.5517  133.3416  159.2953 H   0  0  0  0  0  0  0  0  0  0  0  0  # atno 6907 bound_to 6896
  150.8475  134.7791  159.6993 H   0  0  0  0  0  0  0  0  0  0  0  0  # atno 6908 bound_to 6896
  152.4529  134.5362  159.9877 H   0  0  0  0  0  0  0  0  0  0  0  0  # atno 6909 bound_to 6896
  145.5567  139.2300  143.2482 H   0  0  0  0  0  0  0  0  0  0  0  0  # atno 7974 bound_to 7965
  156.2846  140.2706  156.2015 H   0  0  0  0  0  0  0  0  0  0  0  0  # atno 8008 bound_to 7997
  155.0356  140.0386  157.2508 H   0  0  0  0  0  0  0  0  0  0  0  0  # atno 8009 bound_to 7997
  154.7317  140.2708  155.6455 H   0  0  0  0  0  0  0  0  0  0  0  0  # atno 8010 bound_to 7997
  139.5083  144.6302  151.5836 H   0  0  0  0  0  0  0  0  0  0  0  0  # atno 10167 bound_to 10162
  156.0561  130.4277  150.1845 H   0  0  0  0  0  0  0  0  0  0  0  0  # atno 10718 bound_to 10713
  154.7711  135.4872  153.9651 H   0  0  0  0  0  0  0  0  0  0  0  0  # atno 10763 bound_to 10752
  153.1369  135.6764  153.9096 H   0  0  0  0  0  0  0  0  0  0  0  0  # atno 10764 bound_to 10752
  153.8782  135.3135  155.3423 H   0  0  0  0  0  0  0  0  0  0  0  0  # atno 10765 bound_to 10752
  141.1660  133.7273  156.8656 H   0  0  0  0  0  0  0  0  0  0  0  0  # atno 11005 bound_to 11000
  146.1880  140.6391  142.9159 LP  0  0  0  0  0  0  0  0  0  0  0  0  # atno 17320 bound_to 7965
  144.7503  140.5173  143.6807 LP  0  0  0  0  0  0  0  0  0  0  0  0  # atno 17321 bound_to 7965
  140.6032  143.9571  150.6401 LP  0  0  0  0  0  0  0  0  0  0  0  0  # atno 17342 bound_to 10162
  140.2790  143.3403  152.1169 LP  0  0  0  0  0  0  0  0  0  0  0  0  # atno 17343 bound_to 10162
  156.9920  130.9896  151.3412 LP  0  0  0  0  0  0  0  0  0  0  0  0  # atno 17370 bound_to 10713
  157.5532  130.8196  149.8171 LP  0  0  0  0  0  0  0  0  0  0  0  0  # atno 17371 bound_to 10713
  140.1818  134.9028  157.2957 LP  0  0  0  0  0  0  0  0  0  0  0  0  # atno 17394 bound_to 11000
  140.2387  134.3822  155.7490 LP  0  0  0  0  0  0  0  0  0  0  0  0  # atno 17395 bound_to 11000

$$$$
