AV-unprocessed.smi:113|AV-procd|sdf|1104|dock5
  -GOLD-   2262018213D 1   1.00000     0.00000
 Structure written by MMmdl.
 53 56  0  0  0  0  0  0  0  0  2 V2000
  148.4781  142.1333  155.5534 C   0  0  0  0  0  0  0  0  0  0  0  0
  149.6847  141.7720  156.3933 C   0  0  0  0  0  0  0  0  0  0  0  0
  150.2687  140.4914  156.3557 C   0  0  0  0  0  0  0  0  0  0  0  0
  151.3988  140.2045  157.1610 C   0  0  0  0  0  0  0  0  0  0  0  0
  152.0553  138.8198  157.1366 C   0  0  0  0  0  0  0  0  0  0  0  0
  151.1902  137.6778  157.3985 N   0  0  0  0  0  0  0  0  0  0  0  0
  150.5067  137.6411  158.6385 C   0  0  0  0  0  0  0  0  0  0  0  0
  150.6236  138.5484  159.4649 O   0  0  0  0  0  0  0  0  0  0  0  0
  149.6537  136.4681  158.8450 C   0  0  0  0  0  0  0  0  0  0  0  0
  148.9248  136.3359  160.1731 C   0  0  0  0  0  0  0  0  0  0  0  0
  149.5412  135.5386  157.8662 C   0  0  0  0  0  0  0  0  0  0  0  0
  150.1875  135.6227  156.6447 N   0  0  0  0  0  0  0  0  0  0  0  0
  150.0021  134.5546  155.5902 C   0  0  1  0  0  0  0  0  0  0  0  0
  149.5099  133.2499  156.2191 C   0  0  0  0  0  0  0  0  0  0  0  0
  148.5371  132.7571  155.1680 C   0  0  1  0  0  0  0  0  0  0  0  0
  147.5712  131.8989  155.7400 O   0  0  0  0  0  0  0  0  0  0  0  0
  147.9356  134.0701  154.6583 C   0  0  2  0  0  0  0  0  0  0  0  0
  147.3444  134.0039  153.2418 C   0  0  0  0  0  0  0  0  0  0  0  0
  146.2045  134.8308  153.1427 O   0  0  0  0  0  0  0  0  0  0  0  0
  149.0360  134.9779  154.6720 O   0  0  0  0  0  0  0  0  0  0  0  0
  151.0537  136.7039  156.3834 C   0  0  0  0  0  0  0  0  0  0  0  0
  151.6543  136.7945  155.3102 O   0  0  0  0  0  0  0  0  0  0  0  0
  151.9146  141.2380  157.9909 C   0  0  0  0  0  0  0  0  0  0  0  0
  153.0448  141.0464  158.8218 C   0  0  0  0  0  0  0  0  0  0  0  0
  153.5222  142.0942  159.6337 C   0  0  0  0  0  0  0  0  0  0  0  0
  152.8801  143.3463  159.6272 C   0  0  0  0  0  0  0  0  0  0  0  0
  151.7575  143.5552  158.8049 C   0  0  0  0  0  0  0  0  0  0  0  0
  151.2789  142.5091  157.9912 C   0  0  0  0  0  0  0  0  0  0  0  0
  150.2041  142.7181  157.2018 N   0  3  0  0  0  0  0  0  0  0  0  0
  148.3448  141.4233  154.7365 H   0  0  0  0  0  0  0  0  0  0  0  0
  148.5930  143.1278  155.1212 H   0  0  0  0  0  0  0  0  0  0  0  0
  147.5761  142.1250  156.1655 H   0  0  0  0  0  0  0  0  0  0  0  0
  149.8406  139.7433  155.7055 H   0  0  0  0  0  0  0  0  0  0  0  0
  152.5407  138.6537  156.1739 H   0  0  0  0  0  0  0  0  0  0  0  0
  152.8710  138.7733  157.8599 H   0  0  0  0  0  0  0  0  0  0  0  0
  148.3027  135.4411  160.2079 H   0  0  0  0  0  0  0  0  0  0  0  0
  148.2777  137.1973  160.3427 H   0  0  0  0  0  0  0  0  0  0  0  0
  149.6394  136.2771  160.9950 H   0  0  0  0  0  0  0  0  0  0  0  0
  148.9120  134.6826  158.0573 H   0  0  0  0  0  0  0  0  0  0  0  0
  150.9446  134.4507  155.0512 H   0  0  0  0  0  0  0  0  0  0  0  0
  150.3368  132.5666  156.4147 H   0  0  0  0  0  0  0  0  0  0  0  0
  148.9943  133.4657  157.1569 H   0  0  0  0  0  0  0  0  0  0  0  0
  149.0763  132.2426  154.3711 H   0  0  0  0  0  0  0  0  0  0  0  0
  146.8945  131.7371  155.1002 H   0  0  0  0  0  0  0  0  0  0  0  0
  147.1906  134.4426  155.3635 H   0  0  0  0  0  0  0  0  0  0  0  0
  148.0783  134.3529  152.5149 H   0  0  0  0  0  0  0  0  0  0  0  0
  147.0834  132.9804  152.9708 H   0  0  0  0  0  0  0  0  0  0  0  0
  146.4823  135.6959  152.8814 H   0  0  0  0  0  0  0  0  0  0  0  0
  153.5647  140.1011  158.8529 H   0  0  0  0  0  0  0  0  0  0  0  0
  154.3850  141.9356  160.2643 H   0  0  0  0  0  0  0  0  0  0  0  0
  153.2496  144.1466  160.2519 H   0  0  0  0  0  0  0  0  0  0  0  0
  151.2692  144.5192  158.8031 H   0  0  0  0  0  0  0  0  0  0  0  0
  149.7640  143.6378  157.2154 H   0  0  0  0  0  0  0  0  0  0  0  0
  1  2  1  0  0  0  0
  1 30  1  0  0  0  0
  1 31  1  0  0  0  0
  1 32  1  0  0  0  0
  2 29  1  0  0  0  0
  2  3  2  0  0  0  0
  3  4  1  0  0  0  0
  3 33  1  0  0  0  0
  4  5  1  0  0  0  0
  4 23  2  0  0  0  0
  5  6  1  0  0  0  0
  5 34  1  0  0  0  0
  5 35  1  0  0  0  0
  6 21  1  0  0  0  0
  6  7  1  0  0  0  0
  7  8  2  0  0  0  0
  7  9  1  0  0  0  0
  9 10  1  0  0  0  0
  9 11  2  0  0  0  0
 10 36  1  0  0  0  0
 10 37  1  0  0  0  0
 10 38  1  0  0  0  0
 11 12  1  0  0  0  0
 11 39  1  0  0  0  0
 12 13  1  0  0  0  0
 12 21  1  0  0  0  0
 13 20  1  0  0  0  0
 13 14  1  0  0  0  0
 13 40  1  0  0  0  0
 14 15  1  0  0  0  0
 14 41  1  0  0  0  0
 14 42  1  0  0  0  0
 15 16  1  0  0  0  0
 15 17  1  0  0  0  0
 15 43  1  0  0  0  0
 16 44  1  0  0  0  0
 17 18  1  0  0  0  0
 17 20  1  0  0  0  0
 17 45  1  0  0  0  0
 18 19  1  0  0  0  0
 18 46  1  0  0  0  0
 18 47  1  0  0  0  0
 19 48  1  0  0  0  0
 21 22  2  0  0  0  0
 23 28  1  0  0  0  0
 23 24  1  0  0  0  0
 24 25  2  0  0  0  0
 24 49  1  0  0  0  0
 25 26  1  0  0  0  0
 25 50  1  0  0  0  0
 26 27  2  0  0  0  0
 26 51  1  0  0  0  0
 27 28  1  0  0  0  0
 27 52  1  0  0  0  0
 28 29  2  0  0  0  0
 29 53  1  0  0  0  0
M  CHG  1  29   1
M  END
> <s_m_source_file>
AV-unprocessed.smi

> <i_m_source_file_index>
113

> <i_lp_mmshare_version>
43012

> <i_f3d_flags>
0

> <s_epik_input>
W2NIXTFbY0hdW2NIXVtjSF1jKGMxMiluYyhbQ0gzXSlbY0hdYzJbQ0gyXW4zYyg9TyljKFtDSDNdKVtjSF1uKGMzPU8pW0NAQEhdNFtDSDJdW0NAQEhdKFtPSF0pW0NASF0oTzQpW0NIMl1bT0hd

> <s_epik_cmdline>
J2VwaWtfcHl0aG9uJywgJy1waCcsICc3LjAnLCAnLXRuJywgJzgnLCAnLW1hJywgJzIwMCcsICctbWV0YWxfYmluZGluZycsICctaW1hZScsICc8aW5maWxlLm1hZT4nLCAnLW9tYWUnLCAnPG91dGZpbGUubWFlPic=

> <r_lp_tautomer_probability>
1

> <r_epik_Ionization_Penalty>
0.705471

> <r_epik_Ionization_Penalty_Charging>
0.70547

> <r_epik_Ionization_Penalty_Neutral>
1.19947e-07

> <r_epik_State_Penalty>
0.728574

> <r_epik_Charging_Adjusted_Penalty>
1.43404

> <i_epik_Tot_Q>
1

> <i_epik_Tot_abs_Q>
1

> <r_epik_Metal_State_Penalty>
4.61665

> <b_epik_Metal_Only>
0

> <s_epik_Chemistry_Notes>
This compound contains an acetal/aminal-like group ( X-CH(R)-Y where X, Y are N, S, or O) that may be acid/base labile, releasing an aldehyde.

> <s_lp_Force_Field>
OPLS_2005

> <r_lp_Energy>
41.2196

> <b_lp_Chiralities_Consistent>
1

> <s_lp_Variant>
AV-unprocessed.smi:113-14

> <Gold.Version>
5.8.1

> <Gold.Id.Protein>
6NUR|6NUR_protein|mol2

> <Gold.PLP.Fitness>
57.1316

> <Gold.PLP.PLP>
-47.5578

> <Gold.PLP.part.hbond>
-3.8212

> <Gold.PLP.part.metal>
0.0000

> <Gold.PLP.part.buried>
-3.6964

> <Gold.PLP.part.nonpolar>
-41.5353

> <Gold.PLP.part.repulsive>
0.3100

> <Gold.PLP.ligand.clash>
0.0000

> <Gold.PLP.ligand.torsion>
1.1814

> <Gold.PLP.Chemscore.Hbond>
3.9738

> <Gold.PLP.Chemscore.CHOScore>
0.0000

> <Gold.PLP.Chemscore.Metal>
0.0000

> <Gold.Chemscore.Hbonds>
donor molecule, donor type, donor heavy atom, donor atom, acceptor molecule, acceptor atom, score
      L1  H    29    53       P1  8028  1.12
      P1  H 10752 10765       L1    22  1.00

> <Gold.PLP.Chemscore.Internal.Correction>
0.0155

> <Gold.Rescore>
     Score         DG    S(hbond)    S(metal)    S(lipo)     H(rot)  DE(clash)    DE(int)     intcor
     18.72     -21.48       2.97        0.00     117.86       3.01       0.53       2.23       ----

> <Gold.Chemscore.Fitness>
18.7168

> <Gold.Chemscore.DG>
-21.4763

> <Gold.Chemscore.ZeroCoef>
-5.4800

> <Gold.Chemscore.Hbond>
2.9693

> <Gold.Chemscore.Metal>
0.0000

> <Gold.Chemscore.Lipo>
117.8597

> <Gold.Chemscore.Internal_Hbond>
0.0000

> <Gold.Chemscore.DEClash>
0.5309

> <Gold.Chemscore.DEInternal>
2.2286

> <Gold.Chemscore.Rot>
3.0120

> <Gold.Chemscore.Internal.Correction>
   9.000000E+99

> <Gold.Chemscore.Hbonds>
donor molecule, donor type, donor heavy atom, donor atom, acceptor molecule, acceptor atom, score
      L1  H    29    53       P1  8028  0.48
      P1  H 10752 10765       L1    22  0.99

> <Gold.Chemscore.Hbond.Weighted>
-9.9175

> <Gold.Chemscore.Metal.Weighted>
-0.0000

> <Gold.Chemscore.Lipo.Weighted>
-13.7896

> <Gold.Chemscore.Internal_Hbond.Weighted>
0.0000

> <Gold.Chemscore.DEClash.Weighted>
0.5309

> <Gold.Chemscore.DEInternal.Weighted>
2.2286

> <Gold.Chemscore.Rot.Weighted>
7.7108

> <Gold.Chemscore.Internal.Correction.Weighted>
   9.000000E+99

> <Gold.Protein.RotatedTorsions>
[ 6907 6896 6895 6894 ] final   33.20 input  -60.11 | X-H torsion
[ 7974 7965 7964 7962 ] final  -51.69 input  175.53 | X-H torsion
[ 8008 7997 7996 7995 ] final  170.42 input   59.86 | X-H torsion
[ 10167 10162 10161 10158 ] final  138.64 input  -65.29 | X-H torsion
[ 10718 10713 10712 10709 ] final  -87.95 input   66.30 | X-H torsion
[ 10763 10752 10751 10750 ] final -169.64 input  -60.55 | X-H torsion
[ 11005 11000 10999 10996 ] final   31.28 input  -57.11 | X-H torsion

> <Gold.Protein.ActiveResidues>
 VAL166  LYS551  ARG553  GLY616  TRP617  ASP618  TYR619  PRO620  LYS621  CYS622 
 ASP623  PHE694  ASN695  SER759  ASP760  ASP761  ALA762  ILE779  LEU786  VAL792 
 PHE793  MET794  SER795  GLU796  ALA797  LYS798  CYS799  TRP800  GLU811  SER814 

> <Gold.Protein.RotatedAtoms>
  152.0852  134.9444  160.0572 H   0  0  0  0  0  0  0  0  0  0  0  0  # atno 6907 bound_to 6896
  152.0717  133.4105  159.4470 H   0  0  0  0  0  0  0  0  0  0  0  0  # atno 6908 bound_to 6896
  150.6836  134.3003  159.4747 H   0  0  0  0  0  0  0  0  0  0  0  0  # atno 6909 bound_to 6896
  145.9162  140.7873  142.9670 H   0  0  0  0  0  0  0  0  0  0  0  0  # atno 7974 bound_to 7965
  156.1367  140.1538  156.8983 H   0  0  0  0  0  0  0  0  0  0  0  0  # atno 8008 bound_to 7997
  154.4953  140.0840  156.7723 H   0  0  0  0  0  0  0  0  0  0  0  0  # atno 8009 bound_to 7997
  155.4155  140.3420  155.4269 H   0  0  0  0  0  0  0  0  0  0  0  0  # atno 8010 bound_to 7997
  139.5104  144.6342  151.5740 H   0  0  0  0  0  0  0  0  0  0  0  0  # atno 10167 bound_to 10162
  155.9984  130.4818  150.4945 H   0  0  0  0  0  0  0  0  0  0  0  0  # atno 10718 bound_to 10713
  154.6501  135.2910  154.9997 H   0  0  0  0  0  0  0  0  0  0  0  0  # atno 10763 bound_to 10752
  154.1093  135.6565  153.4886 H   0  0  0  0  0  0  0  0  0  0  0  0  # atno 10764 bound_to 10752
  153.0372  135.5261  154.7405 H   0  0  0  0  0  0  0  0  0  0  0  0  # atno 10765 bound_to 10752
  140.2856  134.2923  155.7789 H   0  0  0  0  0  0  0  0  0  0  0  0  # atno 11005 bound_to 11000
  144.6748  140.1903  143.7397 LP  0  0  0  0  0  0  0  0  0  0  0  0  # atno 17320 bound_to 7965
  145.8609  139.2222  143.1717 LP  0  0  0  0  0  0  0  0  0  0  0  0  # atno 17321 bound_to 7965
  140.6085  143.9480  150.6436 LP  0  0  0  0  0  0  0  0  0  0  0  0  # atno 17342 bound_to 10162
  140.2715  143.3452  152.1233 LP  0  0  0  0  0  0  0  0  0  0  0  0  # atno 17343 bound_to 10162
  157.2936  131.0631  151.2116 LP  0  0  0  0  0  0  0  0  0  0  0  0  # atno 17370 bound_to 10713
  157.3120  130.6894  149.6221 LP  0  0  0  0  0  0  0  0  0  0  0  0  # atno 17371 bound_to 10713
  141.2155  133.7552  156.9546 LP  0  0  0  0  0  0  0  0  0  0  0  0  # atno 17394 bound_to 11000
  140.1243  134.9397  157.2248 LP  0  0  0  0  0  0  0  0  0  0  0  0  # atno 17395 bound_to 11000

$$$$
