AV-unprocessed.smi:2490|AV-procd|sdf|9807|dock7
  -GOLD-   2272013443D 1   1.00000     0.00000
 Structure written by MMmdl.
 33 34  0  0  0  0  0  0  0  0  1 V2000
  146.8517  138.9688  152.4717 C   0  0  0  0  0  0  0  0  0  0  0  0
  148.0250  138.7078  153.2911 N   0  0  0  0  0  0  0  0  0  0  0  0
  148.5988  139.6092  154.1019 C   0  0  0  0  0  0  0  0  0  0  0  0
  148.1725  140.7576  154.2323 O   0  0  0  0  0  0  0  0  0  0  0  0
  149.8230  139.1308  154.8950 C   0  0  2  0  0  0  0  0  0  0  0  0
  150.3282  140.1854  155.9057 C   0  0  0  0  0  0  0  0  0  0  0  0
  151.5428  139.7212  156.5636 N   0  0  0  0  0  0  0  0  0  0  0  0
  151.9535  140.4250  157.6797 C   0  0  0  0  0  0  0  0  0  0  0  0
  153.0018  139.9473  158.3615 N   0  0  0  0  0  0  0  0  0  0  0  0
  153.3919  140.6450  159.4499 C   0  0  0  0  0  0  0  0  0  0  0  0
  152.7275  141.8219  159.8520 C   0  0  0  0  0  0  0  0  0  0  0  0
  153.1661  142.6031  161.0720 C   0  0  0  0  0  0  0  0  0  0  0  0
  151.6364  142.2279  159.0554 C   0  0  0  0  0  0  0  0  0  0  0  0
  151.2518  141.5244  157.9687 N   0  0  0  0  0  0  0  0  0  0  0  0
  152.5785  139.3355  155.6156 C   0  0  0  0  0  0  0  0  0  0  0  0
  152.0268  138.3004  154.6222 C   0  0  0  0  0  0  0  0  0  0  0  0
  150.8733  138.8282  153.9754 O   0  0  0  0  0  0  0  0  0  0  0  0
  146.5784  138.0704  151.9183 H   0  0  0  0  0  0  0  0  0  0  0  0
  147.0499  139.7651  151.7532 H   0  0  0  0  0  0  0  0  0  0  0  0
  146.0019  139.2599  153.0904 H   0  0  0  0  0  0  0  0  0  0  0  0
  148.4327  137.7853  153.2382 H   0  0  0  0  0  0  0  0  0  0  0  0
  149.5366  138.2204  155.4248 H   0  0  0  0  0  0  0  0  0  0  0  0
  150.5327  141.1304  155.3999 H   0  0  0  0  0  0  0  0  0  0  0  0
  149.5641  140.3820  156.6594 H   0  0  0  0  0  0  0  0  0  0  0  0
  154.2375  140.2611  160.0013 H   0  0  0  0  0  0  0  0  0  0  0  0
  152.5138  143.4592  161.2468 H   0  0  0  0  0  0  0  0  0  0  0  0
  154.1842  142.9696  160.9395 H   0  0  0  0  0  0  0  0  0  0  0  0
  153.1406  141.9673  161.9573 H   0  0  0  0  0  0  0  0  0  0  0  0
  151.0692  143.1175  159.2876 H   0  0  0  0  0  0  0  0  0  0  0  0
  152.9287  140.2201  155.0819 H   0  0  0  0  0  0  0  0  0  0  0  0
  153.4343  138.9219  156.1508 H   0  0  0  0  0  0  0  0  0  0  0  0
  152.7786  138.0633  153.8696 H   0  0  0  0  0  0  0  0  0  0  0  0
  151.7775  137.3674  155.1302 H   0  0  0  0  0  0  0  0  0  0  0  0
  1  2  1  0  0  0  0
  1 18  1  0  0  0  0
  1 19  1  0  0  0  0
  1 20  1  0  0  0  0
  2  3  1  0  0  0  0
  2 21  1  0  0  0  0
  3  4  2  0  0  0  0
  3  5  1  0  0  0  0
  5 17  1  0  0  0  0
  5  6  1  0  0  0  0
  5 22  1  0  0  0  0
  6  7  1  0  0  0  0
  6 23  1  0  0  0  0
  6 24  1  0  0  0  0
  7  8  1  0  0  0  0
  7 15  1  0  0  0  0
  8 14  1  0  0  0  0
  8  9  2  0  0  0  0
  9 10  1  0  0  0  0
 10 11  2  0  0  0  0
 10 25  1  0  0  0  0
 11 12  1  0  0  0  0
 11 13  1  0  0  0  0
 12 26  1  0  0  0  0
 12 27  1  0  0  0  0
 12 28  1  0  0  0  0
 13 14  2  0  0  0  0
 13 29  1  0  0  0  0
 15 16  1  0  0  0  0
 15 30  1  0  0  0  0
 15 31  1  0  0  0  0
 16 17  1  0  0  0  0
 16 32  1  0  0  0  0
 16 33  1  0  0  0  0
M  END
> <s_m_source_file>
AV-unprocessed.smi

> <i_m_source_file_index>
2490

> <i_lp_mmshare_version>
43012

> <i_f3d_flags>
0

> <s_epik_input>
W0NIM11bTkhdQyg9TylbQ0BASF0xW0NIMl1OKFtDSDJdW0NIMl1PMSljMm5bY0hdYyhbQ0gzXSlbY0hdbjI=

> <s_epik_cmdline>
J2VwaWtfcHl0aG9uJywgJy1waCcsICc3LjAnLCAnLXRuJywgJzgnLCAnLW1hJywgJzIwMCcsICctbWV0YWxfYmluZGluZycsICctaW1hZScsICc8aW5maWxlLm1hZT4nLCAnLW9tYWUnLCAnPG91dGZpbGUubWFlPic=

> <r_lp_tautomer_probability>
1

> <r_epik_Ionization_Penalty>
8.72552e-06

> <r_epik_Ionization_Penalty_Charging>
0

> <r_epik_Ionization_Penalty_Neutral>
8.72552e-06

> <r_epik_State_Penalty>
-0

> <r_epik_Charging_Adjusted_Penalty>
0

> <i_epik_Tot_Q>
0

> <i_epik_Tot_abs_Q>
0

> <r_epik_Metal_State_Penalty>
-0

> <b_epik_Metal_Only>
0

> <s_lp_Force_Field>
OPLS_2005

> <r_lp_Energy>
12.5382

> <b_lp_Chiralities_Consistent>
1

> <s_lp_Variant>
AV-unprocessed.smi:2490-1

> <Gold.Version>
5.8.1

> <Gold.Id.Protein>
6NUR|6NUR_protein|mol2

> <Gold.PLP.Fitness>
38.5655

> <Gold.PLP.PLP>
-29.9547

> <Gold.PLP.part.hbond>
-4.0000

> <Gold.PLP.part.metal>
0.0000

> <Gold.PLP.part.buried>
2.5453

> <Gold.PLP.part.nonpolar>
-27.8919

> <Gold.PLP.part.repulsive>
0.4382

> <Gold.PLP.ligand.clash>
0.0000

> <Gold.PLP.ligand.torsion>
0.2048

> <Gold.PLP.Chemscore.Hbond>
2.9113

> <Gold.PLP.Chemscore.CHOScore>
0.0000

> <Gold.PLP.Chemscore.Metal>
0.0000

> <Gold.Chemscore.Hbonds>
donor molecule, donor type, donor heavy atom, donor atom, acceptor molecule, acceptor atom, score
      L1  H     2    21       P1  7948  0.65
      P1  H  7989  7998       L1    17  0.51
      P1  H  7997  8008       L1     9  0.86

> <Gold.PLP.Chemscore.Internal.Correction>
0.2866

> <Gold.Rescore>
     Score         DG    S(hbond)    S(metal)    S(lipo)     H(rot)  DE(clash)    DE(int)     intcor
     14.20     -15.63       1.34        0.00      77.10       1.31       1.23       0.20       ----

> <Gold.Chemscore.Fitness>
14.1957

> <Gold.Chemscore.DG>
-15.6328

> <Gold.Chemscore.ZeroCoef>
-5.4800

> <Gold.Chemscore.Hbond>
1.3422

> <Gold.Chemscore.Metal>
0.0000

> <Gold.Chemscore.Lipo>
77.0997

> <Gold.Chemscore.Internal_Hbond>
0.0000

> <Gold.Chemscore.DEClash>
1.2324

> <Gold.Chemscore.DEInternal>
0.2047

> <Gold.Chemscore.Rot>
1.3089

> <Gold.Chemscore.Internal.Correction>
   9.000000E+99

> <Gold.Chemscore.Hbonds>
donor molecule, donor type, donor heavy atom, donor atom, acceptor molecule, acceptor atom, score
      L1  H     2    21       P1  7948  0.62
      P1  H  7989  7998       L1    17  0.04
      P1  H  7997  8008       L1     9  0.22

> <Gold.Chemscore.Hbond.Weighted>
-4.4829

> <Gold.Chemscore.Metal.Weighted>
-0.0000

> <Gold.Chemscore.Lipo.Weighted>
-9.0207

> <Gold.Chemscore.Internal_Hbond.Weighted>
0.0000

> <Gold.Chemscore.DEClash.Weighted>
1.2324

> <Gold.Chemscore.DEInternal.Weighted>
0.2047

> <Gold.Chemscore.Rot.Weighted>
3.3509

> <Gold.Chemscore.Internal.Correction.Weighted>
   9.000000E+99

> <Gold.Protein.RotatedTorsions>
[ 6907 6896 6895 6894 ] final  119.33 input  -60.11 | X-H torsion
[ 7974 7965 7964 7962 ] final   40.34 input  175.53 | X-H torsion
[ 8008 7997 7996 7995 ] final  -91.23 input   59.86 | X-H torsion
[ 10167 10162 10161 10158 ] final   -0.01 input  -65.29 | X-H torsion
[ 10718 10713 10712 10709 ] final -101.28 input   66.30 | X-H torsion
[ 10763 10752 10751 10750 ] final   55.29 input  -60.55 | X-H torsion
[ 11005 11000 10999 10996 ] final -148.27 input  -57.11 | X-H torsion

> <Gold.Protein.ActiveResidues>
 VAL166  LYS551  ARG553  GLY616  TRP617  ASP618  TYR619  PRO620  LYS621  CYS622 
 ASP623  PHE694  ASN695  SER759  ASP760  ASP761  ALA762  ILE779  LEU786  VAL792 
 PHE793  MET794  SER795  GLU796  ALA797  LYS798  CYS799  TRP800  GLU811  SER814 

> <Gold.Protein.RotatedAtoms>
  152.4479  133.7572  159.6726 H   0  0  0  0  0  0  0  0  0  0  0  0  # atno 6907 bound_to 6896
  150.8383  133.7966  159.3077 H   0  0  0  0  0  0  0  0  0  0  0  0  # atno 6908 bound_to 6896
  151.5599  135.1068  160.0022 H   0  0  0  0  0  0  0  0  0  0  0  0  # atno 6909 bound_to 6896
  146.0913  139.5545  142.9474 H   0  0  0  0  0  0  0  0  0  0  0  0  # atno 7974 bound_to 7965
  154.7082  140.0522  157.0524 H   0  0  0  0  0  0  0  0  0  0  0  0  # atno 8008 bound_to 7997
  155.0591  140.3187  155.4647 H   0  0  0  0  0  0  0  0  0  0  0  0  # atno 8009 bound_to 7997
  156.2781  140.2102  156.5718 H   0  0  0  0  0  0  0  0  0  0  0  0  # atno 8010 bound_to 7997
  140.6749  143.6945  150.8001 H   0  0  0  0  0  0  0  0  0  0  0  0  # atno 10167 bound_to 10162
  156.0189  130.5366  150.6940 H   0  0  0  0  0  0  0  0  0  0  0  0  # atno 10718 bound_to 10713
  152.9815  135.5716  154.5042 H   0  0  0  0  0  0  0  0  0  0  0  0  # atno 10763 bound_to 10752
  154.4557  135.2780  155.1751 H   0  0  0  0  0  0  0  0  0  0  0  0  # atno 10764 bound_to 10752
  154.3361  135.6239  153.5627 H   0  0  0  0  0  0  0  0  0  0  0  0  # atno 10765 bound_to 10752
  140.7630  134.3276  157.5096 H   0  0  0  0  0  0  0  0  0  0  0  0  # atno 11005 bound_to 11000
  145.6034  141.0351  143.2006 LP  0  0  0  0  0  0  0  0  0  0  0  0  # atno 17320 bound_to 7965
  144.7362  139.7579  143.7328 LP  0  0  0  0  0  0  0  0  0  0  0  0  # atno 17321 bound_to 7965
  140.0637  143.5130  152.2615 LP  0  0  0  0  0  0  0  0  0  0  0  0  # atno 17342 bound_to 10162
  139.6035  144.7589  151.3115 LP  0  0  0  0  0  0  0  0  0  0  0  0  # atno 17343 bound_to 10162
  157.4615  131.0883  151.0740 LP  0  0  0  0  0  0  0  0  0  0  0  0  # atno 17370 bound_to 10713
  157.1227  130.6068  149.5509 LP  0  0  0  0  0  0  0  0  0  0  0  0  # atno 17371 bound_to 10713
  139.8767  134.9214  156.3274 LP  0  0  0  0  0  0  0  0  0  0  0  0  # atno 17394 bound_to 11000
  140.9645  133.7367  156.0447 LP  0  0  0  0  0  0  0  0  0  0  0  0  # atno 17395 bound_to 11000

$$$$
