AV-unprocessed.smi:2441|AV-procd|sdf|9621|dock2
  -GOLD-   2272013253D 1   1.00000     0.00000
 Structure written by MMmdl.
 40 41  0  0  0  0  0  0  0  0  1 V2000
  147.5061  132.9862  152.7496 C   0  0  0  0  0  0  0  0  0  0  0  0
  146.1137  133.4921  152.3348 C   0  0  2  0  0  0  0  0  0  0  0  0
  146.0308  133.7456  150.8152 C   0  0  0  0  0  0  0  0  0  0  0  0
  144.6251  134.2020  150.3927 C   0  0  0  0  0  0  0  0  0  0  0  0
  144.1776  135.4433  151.1790 C   0  0  0  0  0  0  0  0  0  0  0  0
  144.2567  135.2008  152.6962 C   0  0  0  0  0  0  0  0  0  0  0  0
  145.6581  134.7350  153.1408 C   0  0  2  0  0  0  0  0  0  0  0  0
  146.6126  135.8389  153.0156 N   0  0  0  0  0  0  0  0  0  0  0  0
  146.5018  137.0523  153.5757 C   0  0  0  0  0  0  0  0  0  0  0  0
  145.5583  137.3869  154.2914 O   0  0  0  0  0  0  0  0  0  0  0  0
  147.5436  137.8309  153.2296 N   0  0  0  0  0  0  0  0  0  0  0  0
  147.8323  139.1563  153.5994 C   0  0  0  0  0  0  0  0  0  0  0  0
  147.0732  140.2320  153.2708 C   0  0  0  0  0  0  0  0  0  0  0  0
  147.4423  141.5588  153.7009 C   0  0  0  0  0  0  0  0  0  0  0  0
  148.5485  141.7020  154.4434 C   0  0  0  0  0  0  0  0  0  0  0  0
  149.3435  140.6034  154.8072 N   0  0  0  0  0  0  0  0  0  0  0  0
  150.5227  140.9124  155.6213 C   0  0  0  0  0  0  0  0  0  0  0  0
  149.0459  139.3244  154.4238 C   0  0  0  0  0  0  0  0  0  0  0  0
  149.7570  138.3714  154.7511 O   0  0  0  0  0  0  0  0  0  0  0  0
  148.2884  133.7034  152.5002 H   0  0  0  0  0  0  0  0  0  0  0  0
  147.7470  132.0494  152.2468 H   0  0  0  0  0  0  0  0  0  0  0  0
  147.5521  132.8032  153.8234 H   0  0  0  0  0  0  0  0  0  0  0  0
  145.4107  132.6897  152.5646 H   0  0  0  0  0  0  0  0  0  0  0  0
  146.7634  134.4989  150.5221 H   0  0  0  0  0  0  0  0  0  0  0  0
  146.2939  132.8369  150.2726 H   0  0  0  0  0  0  0  0  0  0  0  0
  144.6095  134.4147  149.3234 H   0  0  0  0  0  0  0  0  0  0  0  0
  143.9142  133.3912  150.5575 H   0  0  0  0  0  0  0  0  0  0  0  0
  144.8018  136.2952  150.9065 H   0  0  0  0  0  0  0  0  0  0  0  0
  143.1578  135.7099  150.9003 H   0  0  0  0  0  0  0  0  0  0  0  0
  143.9710  136.1053  153.2350 H   0  0  0  0  0  0  0  0  0  0  0  0
  143.5242  134.4412  152.9723 H   0  0  0  0  0  0  0  0  0  0  0  0
  145.5811  134.4406  154.1889 H   0  0  0  0  0  0  0  0  0  0  0  0
  147.4254  135.6604  152.4444 H   0  0  0  0  0  0  0  0  0  0  0  0
  148.2038  137.4278  152.5805 H   0  0  0  0  0  0  0  0  0  0  0  0
  146.1673  140.1370  152.6951 H   0  0  0  0  0  0  0  0  0  0  0  0
  146.8424  142.4151  153.4302 H   0  0  0  0  0  0  0  0  0  0  0  0
  148.8977  142.6585  154.8061 H   0  0  0  0  0  0  0  0  0  0  0  0
  151.0712  140.0360  155.9681 H   0  0  0  0  0  0  0  0  0  0  0  0
  150.2288  141.4762  156.5076 H   0  0  0  0  0  0  0  0  0  0  0  0
  151.2181  141.5276  155.0492 H   0  0  0  0  0  0  0  0  0  0  0  0
  1  2  1  0  0  0  0
  1 20  1  0  0  0  0
  1 21  1  0  0  0  0
  1 22  1  0  0  0  0
  2  7  1  0  0  0  0
  2  3  1  0  0  0  0
  2 23  1  0  0  0  0
  3  4  1  0  0  0  0
  3 24  1  0  0  0  0
  3 25  1  0  0  0  0
  4  5  1  0  0  0  0
  4 26  1  0  0  0  0
  4 27  1  0  0  0  0
  5  6  1  0  0  0  0
  5 28  1  0  0  0  0
  5 29  1  0  0  0  0
  6  7  1  0  0  0  0
  6 30  1  0  0  0  0
  6 31  1  0  0  0  0
  7  8  1  0  0  0  0
  7 32  1  0  0  0  0
  8  9  1  0  0  0  0
  8 33  1  0  0  0  0
  9 10  2  0  0  0  0
  9 11  1  0  0  0  0
 11 12  1  0  0  0  0
 11 34  1  0  0  0  0
 12 18  1  0  0  0  0
 12 13  2  0  0  0  0
 13 14  1  0  0  0  0
 13 35  1  0  0  0  0
 14 15  2  0  0  0  0
 14 36  1  0  0  0  0
 15 16  1  0  0  0  0
 15 37  1  0  0  0  0
 16 17  1  0  0  0  0
 16 18  1  0  0  0  0
 17 38  1  0  0  0  0
 17 39  1  0  0  0  0
 17 40  1  0  0  0  0
 18 19  2  0  0  0  0
M  END
> <s_m_source_file>
AV-unprocessed.smi

> <i_m_source_file_index>
2441

> <i_lp_mmshare_version>
43012

> <i_f3d_flags>
0

> <s_epik_input>
W0NIM11bQ0BASF0xW0NIMl1bQ0gyXVtDSDJdW0NIMl1bQ0BIXTFbTkhdQyg9TylbTkhdYzJbY0hdW2NIXVtjSF1uKFtDSDNdKWMyPU8=

> <s_epik_cmdline>
J2VwaWtfcHl0aG9uJywgJy1waCcsICc3LjAnLCAnLXRuJywgJzgnLCAnLW1hJywgJzIwMCcsICctbWV0YWxfYmluZGluZycsICctaW1hZScsICc8aW5maWxlLm1hZT4nLCAnLW9tYWUnLCAnPG91dGZpbGUubWFlPic=

> <r_lp_tautomer_probability>
1

> <r_epik_Ionization_Penalty>
2.64999e-05

> <r_epik_Ionization_Penalty_Charging>
5.09663e-06

> <r_epik_Ionization_Penalty_Neutral>
2.14032e-05

> <r_epik_State_Penalty>
-0

> <r_epik_Charging_Adjusted_Penalty>
5.09663e-06

> <i_epik_Tot_Q>
0

> <i_epik_Tot_abs_Q>
0

> <r_epik_Metal_State_Penalty>
-0

> <b_epik_Metal_Only>
0

> <s_lp_Force_Field>
OPLS_2005

> <r_lp_Energy>
23.2252

> <b_lp_Chiralities_Consistent>
1

> <s_lp_Variant>
AV-unprocessed.smi:2441-3

> <Gold.Version>
5.8.1

> <Gold.Id.Protein>
6NUR|6NUR_protein|mol2

> <Gold.PLP.Fitness>
40.4476

> <Gold.PLP.PLP>
-32.7649

> <Gold.PLP.part.hbond>
-1.9143

> <Gold.PLP.part.metal>
0.0000

> <Gold.PLP.part.buried>
-1.2906

> <Gold.PLP.part.nonpolar>
-28.7990

> <Gold.PLP.part.repulsive>
0.2812

> <Gold.PLP.ligand.clash>
0.0000

> <Gold.PLP.ligand.torsion>
0.6264

> <Gold.PLP.Chemscore.Hbond>
1.9760

> <Gold.PLP.Chemscore.CHOScore>
1.0000

> <Gold.PLP.Chemscore.Metal>
0.0000

> <Gold.Chemscore.Hbonds>
donor molecule, donor type, donor heavy atom, donor atom, acceptor molecule, acceptor atom, score
      L1  H     8    33       P1  7948  0.98
      L1  H    11    34       P1  7948  1.00
      L1  C    15    37       P1  8028  1.00

> <Gold.PLP.Chemscore.Internal.Correction>
0.0076

> <Gold.Rescore>
     Score         DG    S(hbond)    S(metal)    S(lipo)     H(rot)  DE(clash)    DE(int)     intcor
     16.01     -17.60       1.94        0.00      69.92       1.00       0.01       1.57       ----

> <Gold.Chemscore.Fitness>
16.0112

> <Gold.Chemscore.DG>
-17.5955

> <Gold.Chemscore.ZeroCoef>
-5.4800

> <Gold.Chemscore.Hbond>
1.9446

> <Gold.Chemscore.Metal>
0.0000

> <Gold.Chemscore.Lipo>
69.9199

> <Gold.Chemscore.Internal_Hbond>
0.0000

> <Gold.Chemscore.DEClash>
0.0097

> <Gold.Chemscore.DEInternal>
1.5747

> <Gold.Chemscore.Rot>
1.0000

> <Gold.Chemscore.Internal.Correction>
   9.000000E+99

> <Gold.Chemscore.Hbonds>
donor molecule, donor type, donor heavy atom, donor atom, acceptor molecule, acceptor atom, score
      L1  H     8    33       P1  7948  0.93
      L1  H    11    34       P1  7948  0.95

> <Gold.Chemscore.Hbond.Weighted>
-6.4949

> <Gold.Chemscore.Metal.Weighted>
-0.0000

> <Gold.Chemscore.Lipo.Weighted>
-8.1806

> <Gold.Chemscore.Internal_Hbond.Weighted>
0.0000

> <Gold.Chemscore.DEClash.Weighted>
0.0097

> <Gold.Chemscore.DEInternal.Weighted>
1.5747

> <Gold.Chemscore.Rot.Weighted>
2.5600

> <Gold.Chemscore.Internal.Correction.Weighted>
   9.000000E+99

> <Gold.Protein.RotatedTorsions>
[ 6907 6896 6895 6894 ] final   61.23 input  -60.11 | X-H torsion
[ 7974 7965 7964 7962 ] final   54.00 input  175.53 | X-H torsion
[ 8008 7997 7996 7995 ] final  -32.68 input   59.86 | X-H torsion
[ 10167 10162 10161 10158 ] final   16.12 input  -65.29 | X-H torsion
[ 10718 10713 10712 10709 ] final  167.67 input   66.30 | X-H torsion
[ 10763 10752 10751 10750 ] final -117.73 input  -60.55 | X-H torsion
[ 11005 11000 10999 10996 ] final -131.42 input  -57.11 | X-H torsion

> <Gold.Protein.ActiveResidues>
 VAL166  LYS551  ARG553  GLY616  TRP617  ASP618  TYR619  PRO620  LYS621  CYS622 
 ASP623  PHE694  ASN695  SER759  ASP760  ASP761  ALA762  ILE779  LEU786  VAL792 
 PHE793  MET794  SER795  GLU796  ALA797  LYS798  CYS799  TRP800  GLU811  SER814 

> <Gold.Protein.RotatedAtoms>
  152.4071  134.6188  160.0045 H   0  0  0  0  0  0  0  0  0  0  0  0  # atno 6907 bound_to 6896
  151.6376  133.3322  159.3131 H   0  0  0  0  0  0  0  0  0  0  0  0  # atno 6908 bound_to 6896
  150.7965  134.7069  159.6627 H   0  0  0  0  0  0  0  0  0  0  0  0  # atno 6909 bound_to 6896
  145.9653  139.4097  143.0223 H   0  0  0  0  0  0  0  0  0  0  0  0  # atno 7974 bound_to 7965
  154.4172  140.1731  156.1766 H   0  0  0  0  0  0  0  0  0  0  0  0  # atno 8008 bound_to 7997
  155.9717  140.3385  155.6558 H   0  0  0  0  0  0  0  0  0  0  0  0  # atno 8009 bound_to 7997
  155.6617  140.0701  157.2542 H   0  0  0  0  0  0  0  0  0  0  0  0  # atno 8010 bound_to 7997
  140.5819  143.8964  150.6797 H   0  0  0  0  0  0  0  0  0  0  0  0  # atno 10167 bound_to 10162
  157.0481  131.0306  151.2690 H   0  0  0  0  0  0  0  0  0  0  0  0  # atno 10718 bound_to 10713
  154.8564  135.4299  154.2026 H   0  0  0  0  0  0  0  0  0  0  0  0  # atno 10763 bound_to 10752
  153.3070  135.6973  153.7157 H   0  0  0  0  0  0  0  0  0  0  0  0  # atno 10764 bound_to 10752
  153.6264  135.3492  155.3002 H   0  0  0  0  0  0  0  0  0  0  0  0  # atno 10765 bound_to 10752
  140.9260  134.1381  157.4274 H   0  0  0  0  0  0  0  0  0  0  0  0  # atno 11005 bound_to 11000
  145.7982  140.9783  143.1013 LP  0  0  0  0  0  0  0  0  0  0  0  0  # atno 17320 bound_to 7965
  144.6824  139.9768  143.7483 LP  0  0  0  0  0  0  0  0  0  0  0  0  # atno 17321 bound_to 7965
  140.2465  143.3625  152.1442 LP  0  0  0  0  0  0  0  0  0  0  0  0  # atno 17342 bound_to 10162
  139.5175  144.6992  151.5541 LP  0  0  0  0  0  0  0  0  0  0  0  0  # atno 17343 bound_to 10162
  157.5052  130.7904  149.7646 LP  0  0  0  0  0  0  0  0  0  0  0  0  # atno 17370 bound_to 10713
  156.0016  130.3877  150.2584 LP  0  0  0  0  0  0  0  0  0  0  0  0  # atno 17371 bound_to 10713
  139.8785  134.9988  156.5922 LP  0  0  0  0  0  0  0  0  0  0  0  0  # atno 17394 bound_to 11000
  140.7925  133.8571  155.8658 LP  0  0  0  0  0  0  0  0  0  0  0  0  # atno 17395 bound_to 11000

$$$$
