AV-unprocessed.smi:2101|AV-procd|sdf|8579|dock3
  -GOLD-   2272011313D 1   1.00000     0.00000
 Structure written by MMmdl.
 41 42  0  0  0  0  0  0  0  0  1 V2000
  151.3165  141.2454  156.5429 C   0  0  0  0  0  0  0  0  0  0  0  0
  152.0138  139.6299  156.0082 S   0  0  0  0  0  0  0  0  0  0  0  0
  152.6834  139.8235  154.7129 O   0  0  0  0  0  0  0  0  0  0  0  0
  152.7610  139.0538  157.1367 O   0  0  0  0  0  0  0  0  0  0  0  0
  150.6078  138.6422  155.7393 N   0  0  0  0  0  0  0  0  0  0  0  0
  150.4791  137.8962  154.4664 C   0  0  0  0  0  0  0  0  0  0  0  0
  150.7600  136.3934  154.6589 C   0  0  0  0  0  0  0  0  0  0  0  0
  149.8866  135.8813  155.7230 N   0  0  0  0  0  0  0  0  0  0  0  0
  148.7827  135.1088  155.5676 C   0  0  0  0  0  0  0  0  0  0  0  0
  148.2080  134.5591  156.5081 O   0  0  0  0  0  0  0  0  0  0  0  0
  148.3680  134.9688  154.2969 N   0  0  0  0  0  0  0  0  0  0  0  0
  147.2095  134.1922  153.8700 C   0  0  0  0  0  0  0  0  0  0  0  0
  147.4595  133.4953  152.5219 C   0  0  0  0  0  0  0  0  0  0  0  0
  146.1718  133.0358  151.8646 C   0  0  0  0  0  0  0  0  0  0  0  0
  145.9376  131.6663  151.6169 C   0  0  0  0  0  0  0  0  0  0  0  0
  144.7238  131.2925  151.0079 C   0  0  0  0  0  0  0  0  0  0  0  0
  143.7955  132.2970  150.6730 C   0  0  0  0  0  0  0  0  0  0  0  0
  144.1232  133.6363  150.9638 C   0  0  0  0  0  0  0  0  0  0  0  0
  145.2842  134.0052  151.5473 N   0  0  0  0  0  0  0  0  0  0  0  0
  150.2280  136.5162  156.9976 C   0  0  0  0  0  0  0  0  0  0  0  0
  149.9254  138.0242  156.8993 C   0  0  0  0  0  0  0  0  0  0  0  0
  152.1336  141.9396  156.7366 H   0  0  0  0  0  0  0  0  0  0  0  0
  150.7373  141.1144  157.4556 H   0  0  0  0  0  0  0  0  0  0  0  0
  150.6837  141.6528  155.7560 H   0  0  0  0  0  0  0  0  0  0  0  0
  149.4651  138.0322  154.0887 H   0  0  0  0  0  0  0  0  0  0  0  0
  151.1466  138.3114  153.7121 H   0  0  0  0  0  0  0  0  0  0  0  0
  150.6448  135.8748  153.7073 H   0  0  0  0  0  0  0  0  0  0  0  0
  151.8003  136.2348  154.9429 H   0  0  0  0  0  0  0  0  0  0  0  0
  148.8924  135.4393  153.5739 H   0  0  0  0  0  0  0  0  0  0  0  0
  147.0015  133.4472  154.6384 H   0  0  0  0  0  0  0  0  0  0  0  0
  146.3292  134.8350  153.8143 H   0  0  0  0  0  0  0  0  0  0  0  0
  147.9792  134.1679  151.8378 H   0  0  0  0  0  0  0  0  0  0  0  0
  148.1164  132.6360  152.6627 H   0  0  0  0  0  0  0  0  0  0  0  0
  146.6688  130.9183  151.8865 H   0  0  0  0  0  0  0  0  0  0  0  0
  144.5089  130.2545  150.8018 H   0  0  0  0  0  0  0  0  0  0  0  0
  142.8550  132.0476  150.2044 H   0  0  0  0  0  0  0  0  0  0  0  0
  143.4349  134.4324  150.7217 H   0  0  0  0  0  0  0  0  0  0  0  0
  149.6845  136.0851  157.8395 H   0  0  0  0  0  0  0  0  0  0  0  0
  151.2822  136.3480  157.2171 H   0  0  0  0  0  0  0  0  0  0  0  0
  150.2096  138.5281  157.8227 H   0  0  0  0  0  0  0  0  0  0  0  0
  148.8510  138.1739  156.7855 H   0  0  0  0  0  0  0  0  0  0  0  0
  1  2  1  0  0  0  0
  1 22  1  0  0  0  0
  1 23  1  0  0  0  0
  1 24  1  0  0  0  0
  2  3  2  0  0  0  0
  2  4  2  0  0  0  0
  2  5  1  0  0  0  0
  5 21  1  0  0  0  0
  5  6  1  0  0  0  0
  6  7  1  0  0  0  0
  6 25  1  0  0  0  0
  6 26  1  0  0  0  0
  7  8  1  0  0  0  0
  7 27  1  0  0  0  0
  7 28  1  0  0  0  0
  8  9  1  0  0  0  0
  8 20  1  0  0  0  0
  9 10  2  0  0  0  0
  9 11  1  0  0  0  0
 11 12  1  0  0  0  0
 11 29  1  0  0  0  0
 12 13  1  0  0  0  0
 12 30  1  0  0  0  0
 12 31  1  0  0  0  0
 13 14  1  0  0  0  0
 13 32  1  0  0  0  0
 13 33  1  0  0  0  0
 14 19  1  0  0  0  0
 14 15  2  0  0  0  0
 15 16  1  0  0  0  0
 15 34  1  0  0  0  0
 16 17  2  0  0  0  0
 16 35  1  0  0  0  0
 17 18  1  0  0  0  0
 17 36  1  0  0  0  0
 18 19  2  0  0  0  0
 18 37  1  0  0  0  0
 20 21  1  0  0  0  0
 20 38  1  0  0  0  0
 20 39  1  0  0  0  0
 21 40  1  0  0  0  0
 21 41  1  0  0  0  0
M  END
> <s_m_source_file>
AV-unprocessed.smi

> <i_m_source_file_index>
2101

> <i_lp_mmshare_version>
43012

> <i_f3d_flags>
0

> <s_epik_input>
W0NIM11TKD1PKSg9TylOMVtDSDJdW0NIMl1OKFtDSDJdW0NIMl0xKUMoPU8pW05IXVtDSDJdW0NIMl1jMltjSF1bY0hdW2NIXVtjSF1uMg==

> <s_epik_cmdline>
J2VwaWtfcHl0aG9uJywgJy1waCcsICc3LjAnLCAnLXRuJywgJzgnLCAnLW1hJywgJzIwMCcsICctbWV0YWxfYmluZGluZycsICctaW1hZScsICc8aW5maWxlLm1hZT4nLCAnLW9tYWUnLCAnPG91dGZpbGUubWFlPic=

> <r_epik_Ionization_Penalty>
0.0441261

> <r_epik_Ionization_Penalty_Charging>
0

> <r_epik_Ionization_Penalty_Neutral>
0.0441261

> <r_epik_State_Penalty>
0.0373394

> <r_epik_Charging_Adjusted_Penalty>
0.0373394

> <i_epik_Tot_Q>
0

> <i_epik_Tot_abs_Q>
0

> <r_epik_Metal_State_Penalty>
0.0347395

> <b_epik_Metal_Only>
0

> <s_lp_Force_Field>
OPLS_2005

> <r_lp_Energy>
23.5332

> <b_lp_Chiralities_Consistent>
1

> <s_lp_Variant>
AV-unprocessed.smi:2101-1

> <Gold.Version>
5.8.1

> <Gold.Id.Protein>
6NUR|6NUR_protein|mol2

> <Gold.PLP.Fitness>
40.2288

> <Gold.PLP.PLP>
-31.6391

> <Gold.PLP.part.hbond>
-3.4216

> <Gold.PLP.part.metal>
0.0000

> <Gold.PLP.part.buried>
-3.6881

> <Gold.PLP.part.nonpolar>
-24.5420

> <Gold.PLP.part.repulsive>
0.1524

> <Gold.PLP.ligand.clash>
0.0000

> <Gold.PLP.ligand.torsion>
1.4275

> <Gold.PLP.Chemscore.Hbond>
2.5120

> <Gold.PLP.Chemscore.CHOScore>
0.6068

> <Gold.PLP.Chemscore.Metal>
0.0000

> <Gold.Chemscore.Hbonds>
donor molecule, donor type, donor heavy atom, donor atom, acceptor molecule, acceptor atom, score
      L1  H    11    29       P1  7948  1.00
      P1  H  7989  7998       L1     3  0.48
      P1  H  7997  8009       L1     4  0.90
      L1  C    18    37       P1 10186  0.61

> <Gold.PLP.Chemscore.Internal.Correction>
2.0881

> <Gold.Rescore>
     Score         DG    S(hbond)    S(metal)    S(lipo)     H(rot)  DE(clash)    DE(int)     intcor
     16.10     -17.61       2.12        0.00      73.72       1.40       0.25       1.25       ----

> <Gold.Chemscore.Fitness>
16.0980

> <Gold.Chemscore.DG>
-17.6067

> <Gold.Chemscore.ZeroCoef>
-5.4800

> <Gold.Chemscore.Hbond>
2.1242

> <Gold.Chemscore.Metal>
0.0000

> <Gold.Chemscore.Lipo>
73.7221

> <Gold.Chemscore.Internal_Hbond>
0.0000

> <Gold.Chemscore.DEClash>
0.2549

> <Gold.Chemscore.DEInternal>
1.2538

> <Gold.Chemscore.Rot>
1.4037

> <Gold.Chemscore.Internal.Correction>
   9.000000E+99

> <Gold.Chemscore.Hbonds>
donor molecule, donor type, donor heavy atom, donor atom, acceptor molecule, acceptor atom, score
      L1  H    11    29       P1  7948  0.78
      P1  H  7989  7998       L1     3  0.42
      P1  H  7997  8009       L1     4  0.17

> <Gold.Chemscore.Hbond.Weighted>
-7.0948

> <Gold.Chemscore.Metal.Weighted>
-0.0000

> <Gold.Chemscore.Lipo.Weighted>
-8.6255

> <Gold.Chemscore.Internal_Hbond.Weighted>
0.0000

> <Gold.Chemscore.DEClash.Weighted>
0.2549

> <Gold.Chemscore.DEInternal.Weighted>
1.2538

> <Gold.Chemscore.Rot.Weighted>
3.5935

> <Gold.Chemscore.Internal.Correction.Weighted>
   9.000000E+99

> <Gold.Protein.RotatedTorsions>
[ 6907 6896 6895 6894 ] final  -23.00 input  -60.11 | X-H torsion
[ 7974 7965 7964 7962 ] final   84.63 input  175.53 | X-H torsion
[ 8008 7997 7996 7995 ] final  163.75 input   59.86 | X-H torsion
[ 10167 10162 10161 10158 ] final  133.33 input  -65.29 | X-H torsion
[ 10718 10713 10712 10709 ] final   87.01 input   66.30 | X-H torsion
[ 10763 10752 10751 10750 ] final  103.05 input  -60.55 | X-H torsion
[ 11005 11000 10999 10996 ] final -157.61 input  -57.11 | X-H torsion

> <Gold.Protein.ActiveResidues>
 VAL166  LYS551  ARG553  GLY616  TRP617  ASP618  TYR619  PRO620  LYS621  CYS622 
 ASP623  PHE694  ASN695  SER759  ASP760  ASP761  ALA762  ILE779  LEU786  VAL792 
 PHE793  MET794  SER795  GLU796  ALA797  LYS798  CYS799  TRP800  GLU811  SER814 

> <Gold.Protein.RotatedAtoms>
  151.2104  135.0479  159.8908 H   0  0  0  0  0  0  0  0  0  0  0  0  # atno 6907 bound_to 6896
  152.5425  134.0751  159.8221 H   0  0  0  0  0  0  0  0  0  0  0  0  # atno 6908 bound_to 6896
  151.0904  133.5272  159.2647 H   0  0  0  0  0  0  0  0  0  0  0  0  # atno 6909 bound_to 6896
  145.5963  139.2345  143.2271 H   0  0  0  0  0  0  0  0  0  0  0  0  # atno 7974 bound_to 7965
  156.1933  140.1715  156.8049 H   0  0  0  0  0  0  0  0  0  0  0  0  # atno 8008 bound_to 7997
  154.5498  140.0720  156.8680 H   0  0  0  0  0  0  0  0  0  0  0  0  # atno 8009 bound_to 7997
  155.3051  140.3364  155.4248 H   0  0  0  0  0  0  0  0  0  0  0  0  # atno 8010 bound_to 7997
  139.5301  144.6621  151.4980 H   0  0  0  0  0  0  0  0  0  0  0  0  # atno 10167 bound_to 10162
  157.6935  131.0238  150.3059 H   0  0  0  0  0  0  0  0  0  0  0  0  # atno 10718 bound_to 10713
  153.3476  135.3990  155.1620 H   0  0  0  0  0  0  0  0  0  0  0  0  # atno 10763 bound_to 10752
  154.8656  135.3648  154.5265 H   0  0  0  0  0  0  0  0  0  0  0  0  # atno 10764 bound_to 10752
  153.5714  135.7079  153.5563 H   0  0  0  0  0  0  0  0  0  0  0  0  # atno 10765 bound_to 10752
  140.6627  134.4331  157.5234 H   0  0  0  0  0  0  0  0  0  0  0  0  # atno 11005 bound_to 11000
  146.1610  140.6788  142.9277 LP  0  0  0  0  0  0  0  0  0  0  0  0  # atno 17320 bound_to 7965
  144.7329  140.4725  143.6924 LP  0  0  0  0  0  0  0  0  0  0  0  0  # atno 17321 bound_to 7965
  140.6474  143.8767  150.6751 LP  0  0  0  0  0  0  0  0  0  0  0  0  # atno 17342 bound_to 10162
  140.2120  143.3876  152.1710 LP  0  0  0  0  0  0  0  0  0  0  0  0  # atno 17343 bound_to 10162
  156.3568  130.3840  149.7284 LP  0  0  0  0  0  0  0  0  0  0  0  0  # atno 17370 bound_to 10713
  156.4744  130.8011  151.3028 LP  0  0  0  0  0  0  0  0  0  0  0  0  # atno 17371 bound_to 10713
  139.9007  134.8562  156.1907 LP  0  0  0  0  0  0  0  0  0  0  0  0  # atno 17394 bound_to 11000
  141.0452  133.6917  156.1671 LP  0  0  0  0  0  0  0  0  0  0  0  0  # atno 17395 bound_to 11000

$$$$
