AV-unprocessed.smi:485|AV-procd|sdf|2691|dock2
  -GOLD-   2262023123D 1   1.00000     0.00000
 Structure written by MMmdl.
 36 38  0  0  0  0  0  0  0  0  1 V2000
  153.1265  139.4886  154.8199 O   0  0  0  0  0  0  0  0  0  0  0  0
  152.0295  138.7963  155.3753 C   0  0  0  0  0  0  0  0  0  0  0  0
  150.7072  139.2823  154.8629 C   0  0  0  0  0  0  0  0  0  0  0  0
  149.9180  138.5047  154.1204 N   0  0  0  0  0  0  0  0  0  0  0  0
  148.8219  139.3125  153.8914 C   0  0  0  0  0  0  0  0  0  0  0  0
  147.6329  139.0632  153.1690 C   0  0  0  0  0  0  0  0  0  0  0  0
  146.6328  140.0534  153.0766 C   0  0  0  0  0  0  0  0  0  0  0  0
  146.8058  141.3032  153.7056 C   0  0  0  0  0  0  0  0  0  0  0  0
  147.9832  141.5720  154.4296 C   0  0  0  0  0  0  0  0  0  0  0  0
  148.9808  140.5820  154.5152 C   0  0  0  0  0  0  0  0  0  0  0  0
  150.2295  140.5264  155.1275 N   0  0  0  0  0  0  0  0  0  0  0  0
  150.8501  141.5981  155.8982 C   0  0  0  0  0  0  0  0  0  0  0  0
  150.2125  141.7831  157.2909 C   0  0  2  0  0  0  0  0  0  0  0  0
  148.9270  142.3590  157.1673 O   0  0  0  0  0  0  0  0  0  0  0  0
  151.1172  142.5894  158.2093 C   0  0  0  0  0  0  0  0  0  0  0  0
  151.7182  141.9719  159.3275 C   0  0  0  0  0  0  0  0  0  0  0  0
  152.5619  142.7117  160.1790 C   0  0  0  0  0  0  0  0  0  0  0  0
  152.8115  144.0723  159.9157 C   0  0  0  0  0  0  0  0  0  0  0  0
  152.2188  144.6925  158.7992 C   0  0  0  0  0  0  0  0  0  0  0  0
  151.3750  143.9533  157.9474 C   0  0  0  0  0  0  0  0  0  0  0  0
  152.8685  139.8344  153.9795 H   0  0  0  0  0  0  0  0  0  0  0  0
  152.1384  137.7367  155.1411 H   0  0  0  0  0  0  0  0  0  0  0  0
  152.0551  138.8764  156.4619 H   0  0  0  0  0  0  0  0  0  0  0  0
  147.4898  138.1078  152.6861 H   0  0  0  0  0  0  0  0  0  0  0  0
  145.7281  139.8521  152.5219 H   0  0  0  0  0  0  0  0  0  0  0  0
  146.0343  142.0557  153.6320 H   0  0  0  0  0  0  0  0  0  0  0  0
  148.1170  142.5281  154.9131 H   0  0  0  0  0  0  0  0  0  0  0  0
  151.9090  141.3602  156.0059 H   0  0  0  0  0  0  0  0  0  0  0  0
  150.8060  142.5314  155.3386 H   0  0  0  0  0  0  0  0  0  0  0  0
  150.0625  140.8030  157.7441 H   0  0  0  0  0  0  0  0  0  0  0  0
  149.0195  143.2185  156.7866 H   0  0  0  0  0  0  0  0  0  0  0  0
  151.5351  140.9280  159.5369 H   0  0  0  0  0  0  0  0  0  0  0  0
  153.0184  142.2352  161.0341 H   0  0  0  0  0  0  0  0  0  0  0  0
  153.4584  144.6391  160.5690 H   0  0  0  0  0  0  0  0  0  0  0  0
  152.4112  145.7355  158.5953 H   0  0  0  0  0  0  0  0  0  0  0  0
  150.9270  144.4361  157.0911 H   0  0  0  0  0  0  0  0  0  0  0  0
  1  2  1  0  0  0  0
  1 21  1  0  0  0  0
  2  3  1  0  0  0  0
  2 22  1  0  0  0  0
  2 23  1  0  0  0  0
  3 11  1  0  0  0  0
  3  4  2  0  0  0  0
  4  5  1  0  0  0  0
  5 10  2  0  0  0  0
  5  6  1  0  0  0  0
  6  7  2  0  0  0  0
  6 24  1  0  0  0  0
  7  8  1  0  0  0  0
  7 25  1  0  0  0  0
  8  9  2  0  0  0  0
  8 26  1  0  0  0  0
  9 10  1  0  0  0  0
  9 27  1  0  0  0  0
 10 11  1  0  0  0  0
 11 12  1  0  0  0  0
 12 13  1  0  0  0  0
 12 28  1  0  0  0  0
 12 29  1  0  0  0  0
 13 14  1  0  0  0  0
 13 15  1  0  0  0  0
 13 30  1  0  0  0  0
 14 31  1  0  0  0  0
 15 20  1  0  0  0  0
 15 16  2  0  0  0  0
 16 17  1  0  0  0  0
 16 32  1  0  0  0  0
 17 18  2  0  0  0  0
 17 33  1  0  0  0  0
 18 19  1  0  0  0  0
 18 34  1  0  0  0  0
 19 20  2  0  0  0  0
 19 35  1  0  0  0  0
 20 36  1  0  0  0  0
M  END
> <s_m_source_file>
AV-unprocessed.smi

> <i_m_source_file_index>
485

> <i_lp_mmshare_version>
43012

> <i_f3d_flags>
0

> <s_epik_input>
W2NIXTFbY0hdW2NIXVtjSF1jKGMxMiluKGMobjIpW0NIMl1bT0hdKVtDSDJdW0NASF0oW09IXSljM1tjSF1bY0hdW2NIXVtjSF1bY0hdMw==

> <s_epik_cmdline>
J2VwaWtfcHl0aG9uJywgJy1waCcsICc3LjAnLCAnLXRuJywgJzgnLCAnLW1hJywgJzIwMCcsICctbWV0YWxfYmluZGluZycsICctaW1hZScsICc8aW5maWxlLm1hZT4nLCAnLW9tYWUnLCAnPG91dGZpbGUubWFlPic=

> <r_epik_Ionization_Penalty>
0.0634722

> <r_epik_Ionization_Penalty_Charging>
0

> <r_epik_Ionization_Penalty_Neutral>
0.0634722

> <r_epik_State_Penalty>
0.0551572

> <r_epik_Charging_Adjusted_Penalty>
0.0551572

> <i_epik_Tot_Q>
0

> <i_epik_Tot_abs_Q>
0

> <r_epik_Metal_State_Penalty>
5.78034e-05

> <b_epik_Metal_Only>
0

> <s_lp_Force_Field>
OPLS_2005

> <r_lp_Energy>
12.7627

> <b_lp_Chiralities_Consistent>
1

> <s_lp_Variant>
AV-unprocessed.smi:485-1

> <Gold.Version>
5.8.1

> <Gold.Id.Protein>
6NUR|6NUR_protein|mol2

> <Gold.PLP.Fitness>
50.9852

> <Gold.PLP.PLP>
-45.6870

> <Gold.PLP.part.hbond>
-3.0000

> <Gold.PLP.part.metal>
0.0000

> <Gold.PLP.part.buried>
0.3261

> <Gold.PLP.part.nonpolar>
-43.4064

> <Gold.PLP.part.repulsive>
0.2378

> <Gold.PLP.ligand.clash>
0.0000

> <Gold.PLP.ligand.torsion>
0.3826

> <Gold.PLP.Chemscore.Hbond>
2.0000

> <Gold.PLP.Chemscore.CHOScore>
0.0000

> <Gold.PLP.Chemscore.Metal>
0.0000

> <Gold.Chemscore.Hbonds>
donor molecule, donor type, donor heavy atom, donor atom, acceptor molecule, acceptor atom, score
      L1  H    14    31       P1  8028  1.00
      P1  H  7997  8010       L1     1  1.00

> <Gold.PLP.Chemscore.Internal.Correction>
0.0633

> <Gold.Rescore>
     Score         DG    S(hbond)    S(metal)    S(lipo)     H(rot)  DE(clash)    DE(int)     intcor
     19.37     -20.37       1.96        0.00     128.61       2.62       0.52       0.49       ----

> <Gold.Chemscore.Fitness>
19.3664

> <Gold.Chemscore.DG>
-20.3723

> <Gold.Chemscore.ZeroCoef>
-5.4800

> <Gold.Chemscore.Hbond>
1.9640

> <Gold.Chemscore.Metal>
0.0000

> <Gold.Chemscore.Lipo>
128.6144

> <Gold.Chemscore.Internal_Hbond>
0.0000

> <Gold.Chemscore.DEClash>
0.5179

> <Gold.Chemscore.DEInternal>
0.4879

> <Gold.Chemscore.Rot>
2.6232

> <Gold.Chemscore.Internal.Correction>
   9.000000E+99

> <Gold.Chemscore.Hbonds>
donor molecule, donor type, donor heavy atom, donor atom, acceptor molecule, acceptor atom, score
      L1  H    14    31       P1  8028  0.93
      P1  H  7997  8010       L1     1  0.98

> <Gold.Chemscore.Hbond.Weighted>
-6.5598

> <Gold.Chemscore.Metal.Weighted>
-0.0000

> <Gold.Chemscore.Lipo.Weighted>
-15.0479

> <Gold.Chemscore.Internal_Hbond.Weighted>
0.0000

> <Gold.Chemscore.DEClash.Weighted>
0.5179

> <Gold.Chemscore.DEInternal.Weighted>
0.4879

> <Gold.Chemscore.Rot.Weighted>
6.7154

> <Gold.Chemscore.Internal.Correction.Weighted>
   9.000000E+99

> <Gold.Protein.RotatedTorsions>
[ 6907 6896 6895 6894 ] final  -20.84 input  -60.11 | X-H torsion
[ 7974 7965 7964 7962 ] final  -26.34 input  175.53 | X-H torsion
[ 8008 7997 7996 7995 ] final  117.23 input   59.86 | X-H torsion
[ 10167 10162 10161 10158 ] final  -20.26 input  -65.29 | X-H torsion
[ 10718 10713 10712 10709 ] final   38.68 input   66.30 | X-H torsion
[ 10763 10752 10751 10750 ] final  -67.02 input  -60.55 | X-H torsion
[ 11005 11000 10999 10996 ] final    8.21 input  -57.11 | X-H torsion

> <Gold.Protein.ActiveResidues>
 VAL166  LYS551  ARG553  GLY616  TRP617  ASP618  TYR619  PRO620  LYS621  CYS622 
 ASP623  PHE694  ASN695  SER759  ASP760  ASP761  ALA762  ILE779  LEU786  VAL792 
 PHE793  MET794  SER795  GLU796  ALA797  LYS798  CYS799  TRP800  GLU811  SER814 

> <Gold.Protein.RotatedAtoms>
  151.2421  135.0592  159.9028 H   0  0  0  0  0  0  0  0  0  0  0  0  # atno 6907 bound_to 6896
  152.5391  134.0423  159.8083 H   0  0  0  0  0  0  0  0  0  0  0  0  # atno 6908 bound_to 6896
  151.0618  133.5489  159.2665 H   0  0  0  0  0  0  0  0  0  0  0  0  # atno 6909 bound_to 6896
  146.1432  140.5006  142.8643 H   0  0  0  0  0  0  0  0  0  0  0  0  # atno 7974 bound_to 7965
  156.2482  140.2901  156.0645 H   0  0  0  0  0  0  0  0  0  0  0  0  # atno 8008 bound_to 7997
  155.1739  140.0402  157.2886 H   0  0  0  0  0  0  0  0  0  0  0  0  # atno 8009 bound_to 7997
  154.6307  140.2498  155.7444 H   0  0  0  0  0  0  0  0  0  0  0  0  # atno 8010 bound_to 7997
  140.7275  143.4739  151.0208 H   0  0  0  0  0  0  0  0  0  0  0  0  # atno 10167 bound_to 10162
  157.3617  130.7653  149.7052 H   0  0  0  0  0  0  0  0  0  0  0  0  # atno 10718 bound_to 10713
  154.3684  135.6100  153.5727 H   0  0  0  0  0  0  0  0  0  0  0  0  # atno 10763 bound_to 10752
  152.9791  135.5832  154.4551 H   0  0  0  0  0  0  0  0  0  0  0  0  # atno 10764 bound_to 10752
  154.4301  135.2847  155.1896 H   0  0  0  0  0  0  0  0  0  0  0  0  # atno 10765 bound_to 10752
  140.5396  134.0387  155.7899 H   0  0  0  0  0  0  0  0  0  0  0  0  # atno 11005 bound_to 11000
  144.7816  140.5852  143.6601 LP  0  0  0  0  0  0  0  0  0  0  0  0  # atno 17320 bound_to 7965
  145.4998  139.1484  143.3663 LP  0  0  0  0  0  0  0  0  0  0  0  0  # atno 17321 bound_to 7965
  139.8433  143.7534  152.3180 LP  0  0  0  0  0  0  0  0  0  0  0  0  # atno 17342 bound_to 10162
  139.7691  144.7482  151.0251 LP  0  0  0  0  0  0  0  0  0  0  0  0  # atno 17343 bound_to 10162
  155.9738  130.4112  150.3969 LP  0  0  0  0  0  0  0  0  0  0  0  0  # atno 17370 bound_to 10713
  157.2047  131.0446  151.2631 LP  0  0  0  0  0  0  0  0  0  0  0  0  # atno 17371 bound_to 10713
  141.1235  133.9422  157.2682 LP  0  0  0  0  0  0  0  0  0  0  0  0  # atno 17394 bound_to 11000
  139.9511  135.0175  156.8996 LP  0  0  0  0  0  0  0  0  0  0  0  0  # atno 17395 bound_to 11000

$$$$
