AV-unprocessed.smi:263|AV-procd|sdf|2003|dock8
  -GOLD-   2262021193D 1   1.00000     0.00000
 Structure written by MMmdl.
 57 61  0  0  0  0  0  0  0  0  1 V2000
  148.2317  136.9256  162.4345 O   0  0  0  0  0  0  0  0  0  0  0  0
  147.6854  136.2969  161.2875 C   0  0  0  0  0  0  0  0  0  0  0  0
  148.6483  136.5654  160.1041 C   0  0  0  0  0  0  0  0  0  0  0  0
  148.1759  136.0417  158.8314 N   0  0  0  0  0  0  0  0  0  0  0  0
  147.4822  136.7281  157.8606 C   0  0  0  0  0  0  0  0  0  0  0  0
  147.1737  136.0321  156.8004 N   0  0  0  0  0  0  0  0  0  0  0  0
  147.6945  134.7692  157.0582 C   0  0  0  0  0  0  0  0  0  0  0  0
  147.7202  133.5406  156.3390 C   0  0  0  0  0  0  0  0  0  0  0  0
  147.1808  133.4026  155.1006 N   0  0  0  0  0  0  0  0  0  0  0  0
  147.4102  134.5422  154.2124 C   0  0  0  0  0  0  0  0  0  0  0  0
  146.4881  134.4876  152.9792 C   0  0  0  0  0  0  0  0  0  0  0  0
  146.5817  133.1332  152.2455 C   0  0  2  0  0  0  0  0  0  0  0  0
  147.8882  133.0315  151.7016 O   0  0  0  0  0  0  0  0  0  0  0  0
  145.5790  133.0463  151.0731 C   0  0  0  0  0  0  0  0  0  0  0  0
  145.5835  131.6596  150.4016 C   0  0  0  0  0  0  0  0  0  0  0  0
  145.3465  130.5353  151.4226 C   0  0  0  0  0  0  0  0  0  0  0  0
  146.3552  130.6048  152.5811 C   0  0  0  0  0  0  0  0  0  0  0  0
  146.3234  131.9884  153.2592 C   0  0  1  0  0  0  0  0  0  0  0  0
  147.2729  132.0844  154.4686 C   0  0  0  0  0  0  0  0  0  0  0  0
  148.3222  132.4784  156.9395 N   0  0  0  0  0  0  0  0  0  0  0  0
  148.8687  132.6074  158.1521 C   0  0  0  0  0  0  0  0  0  0  0  0
  148.9244  133.6889  158.9310 N   0  0  0  0  0  0  0  0  0  0  0  0
  148.3171  134.7563  158.3383 C   0  0  0  0  0  0  0  0  0  0  0  0
  147.5176  134.7914  161.5917 C   0  0  0  0  0  0  0  0  0  0  0  0
  146.4100  134.5289  162.6273 C   0  0  0  0  0  0  0  0  0  0  0  0
  145.1867  135.1098  162.1925 O   0  0  0  0  0  0  0  0  0  0  0  0
  145.2634  136.5254  162.0777 C   0  0  0  0  0  0  0  0  0  0  0  0
  146.2995  136.9130  161.0070 C   0  0  0  0  0  0  0  0  0  0  0  0
  147.6307  136.8111  163.1546 H   0  0  0  0  0  0  0  0  0  0  0  0
  148.8033  137.6390  159.9881 H   0  0  0  0  0  0  0  0  0  0  0  0
  149.6323  136.1398  160.3067 H   0  0  0  0  0  0  0  0  0  0  0  0
  147.2143  137.7698  157.9622 H   0  0  0  0  0  0  0  0  0  0  0  0
  147.2521  135.4870  154.7311 H   0  0  0  0  0  0  0  0  0  0  0  0
  148.4551  134.5350  153.8999 H   0  0  0  0  0  0  0  0  0  0  0  0
  145.4600  134.6538  153.3035 H   0  0  0  0  0  0  0  0  0  0  0  0
  146.7285  135.3070  152.3006 H   0  0  0  0  0  0  0  0  0  0  0  0
  147.9397  132.2349  151.1962 H   0  0  0  0  0  0  0  0  0  0  0  0
  144.5732  133.2527  151.4417 H   0  0  0  0  0  0  0  0  0  0  0  0
  145.7931  133.8170  150.3313 H   0  0  0  0  0  0  0  0  0  0  0  0
  144.8179  131.6219  149.6260 H   0  0  0  0  0  0  0  0  0  0  0  0
  146.5362  131.4972  149.8964 H   0  0  0  0  0  0  0  0  0  0  0  0
  144.3327  130.6112  151.8177 H   0  0  0  0  0  0  0  0  0  0  0  0
  145.4134  129.5652  150.9293 H   0  0  0  0  0  0  0  0  0  0  0  0
  146.1251  129.8277  153.3106 H   0  0  0  0  0  0  0  0  0  0  0  0
  147.3581  130.3903  152.2103 H   0  0  0  0  0  0  0  0  0  0  0  0
  145.3118  132.1211  153.6477 H   0  0  0  0  0  0  0  0  0  0  0  0
  148.3024  131.8983  154.1591 H   0  0  0  0  0  0  0  0  0  0  0  0
  147.0112  131.3122  155.1935 H   0  0  0  0  0  0  0  0  0  0  0  0
  149.3290  131.7171  158.5546 H   0  0  0  0  0  0  0  0  0  0  0  0
  147.2616  134.2658  160.6710 H   0  0  0  0  0  0  0  0  0  0  0  0
  148.4545  134.3572  161.9430 H   0  0  0  0  0  0  0  0  0  0  0  0
  146.2639  133.4557  162.7506 H   0  0  0  0  0  0  0  0  0  0  0  0
  146.6859  134.9230  163.6066 H   0  0  0  0  0  0  0  0  0  0  0  0
  144.2809  136.9068  161.7994 H   0  0  0  0  0  0  0  0  0  0  0  0
  145.5104  136.9678  163.0440 H   0  0  0  0  0  0  0  0  0  0  0  0
  146.3702  137.9988  160.9300 H   0  0  0  0  0  0  0  0  0  0  0  0
  145.9386  136.5626  160.0391 H   0  0  0  0  0  0  0  0  0  0  0  0
  1  2  1  0  0  0  0
  1 29  1  0  0  0  0
  2 28  1  0  0  0  0
  2  3  1  0  0  0  0
  2 24  1  0  0  0  0
  3  4  1  0  0  0  0
  3 30  1  0  0  0  0
  3 31  1  0  0  0  0
  4 23  1  0  0  0  0
  4  5  1  0  0  0  0
  5  6  2  0  0  0  0
  5 32  1  0  0  0  0
  6  7  1  0  0  0  0
  7 23  2  0  0  0  0
  7  8  1  0  0  0  0
  8  9  1  0  0  0  0
  8 20  2  0  0  0  0
  9 19  1  0  0  0  0
  9 10  1  0  0  0  0
 10 11  1  0  0  0  0
 10 33  1  0  0  0  0
 10 34  1  0  0  0  0
 11 12  1  0  0  0  0
 11 35  1  0  0  0  0
 11 36  1  0  0  0  0
 12 18  1  0  0  0  0
 12 13  1  0  0  0  0
 12 14  1  0  0  0  0
 13 37  1  0  0  0  0
 14 15  1  0  0  0  0
 14 38  1  0  0  0  0
 14 39  1  0  0  0  0
 15 16  1  0  0  0  0
 15 40  1  0  0  0  0
 15 41  1  0  0  0  0
 16 17  1  0  0  0  0
 16 42  1  0  0  0  0
 16 43  1  0  0  0  0
 17 18  1  0  0  0  0
 17 44  1  0  0  0  0
 17 45  1  0  0  0  0
 18 19  1  0  0  0  0
 18 46  1  0  0  0  0
 19 47  1  0  0  0  0
 19 48  1  0  0  0  0
 20 21  1  0  0  0  0
 21 22  2  0  0  0  0
 21 49  1  0  0  0  0
 22 23  1  0  0  0  0
 24 25  1  0  0  0  0
 24 50  1  0  0  0  0
 24 51  1  0  0  0  0
 25 26  1  0  0  0  0
 25 52  1  0  0  0  0
 25 53  1  0  0  0  0
 26 27  1  0  0  0  0
 27 28  1  0  0  0  0
 27 54  1  0  0  0  0
 27 55  1  0  0  0  0
 28 56  1  0  0  0  0
 28 57  1  0  0  0  0
M  END
> <s_m_source_file>
AV-unprocessed.smi

> <i_m_source_file_index>
263

> <i_lp_mmshare_version>
43012

> <i_f3d_flags>
0

> <s_epik_input>
W0NIMl0xW0NIMl1PW0NIMl1bQ0gyXUMxKFtPSF0pW0NIMl1uKFtjSF1uMiljKGMyMyluW2NIXW5jM04oW0NIMl1bQ0gyXTQpW0NIMl1bQ0BASF0oW0NAXTQ1W09IXSlbQ0gyXVtDSDJdW0NIMl1bQ0gyXTU=

> <s_epik_cmdline>
J2VwaWtfcHl0aG9uJywgJy1waCcsICc3LjAnLCAnLXRuJywgJzgnLCAnLW1hJywgJzIwMCcsICctbWV0YWxfYmluZGluZycsICctaW1hZScsICc8aW5maWxlLm1hZT4nLCAnLW9tYWUnLCAnPG91dGZpbGUubWFlPic=

> <r_lp_tautomer_probability>
1

> <r_epik_Ionization_Penalty>
0.00747493

> <r_epik_Ionization_Penalty_Charging>
0

> <r_epik_Ionization_Penalty_Neutral>
0.00747493

> <r_epik_State_Penalty>
0.00549307

> <r_epik_Charging_Adjusted_Penalty>
0.00549307

> <i_epik_Tot_Q>
0

> <i_epik_Tot_abs_Q>
0

> <r_epik_Metal_State_Penalty>
-0

> <b_epik_Metal_Only>
0

> <s_lp_Force_Field>
OPLS_2005

> <r_lp_Energy>
38.6154

> <b_lp_Chiralities_Consistent>
1

> <s_lp_Variant>
AV-unprocessed.smi:263-1

> <Gold.Version>
5.8.1

> <Gold.Id.Protein>
6NUR|6NUR_protein|mol2

> <Gold.PLP.Fitness>
44.7605

> <Gold.PLP.PLP>
-36.7640

> <Gold.PLP.part.hbond>
-3.0000

> <Gold.PLP.part.metal>
0.0000

> <Gold.PLP.part.buried>
-4.6213

> <Gold.PLP.part.nonpolar>
-28.2476

> <Gold.PLP.part.repulsive>
0.0249

> <Gold.PLP.ligand.clash>
0.0000

> <Gold.PLP.ligand.torsion>
0.6289

> <Gold.PLP.Chemscore.Hbond>
2.9600

> <Gold.PLP.Chemscore.CHOScore>
0.0000

> <Gold.PLP.Chemscore.Metal>
0.0000

> <Gold.Chemscore.Hbonds>
donor molecule, donor type, donor heavy atom, donor atom, acceptor molecule, acceptor atom, score
      L1  H    13    37       P1 10747  1.00
      P1  H  6896  6908       L1    22  1.00
      P1  H  6931  6943       L1     1  1.00

> <Gold.PLP.Chemscore.Internal.Correction>
0.3743

> <Gold.Rescore>
     Score         DG    S(hbond)    S(metal)    S(lipo)     H(rot)  DE(clash)    DE(int)     intcor
     17.09     -19.10       2.68        0.00      97.33       2.62       0.10       1.92       ----

> <Gold.Chemscore.Fitness>
17.0860

> <Gold.Chemscore.DG>
-19.0983

> <Gold.Chemscore.ZeroCoef>
-5.4800

> <Gold.Chemscore.Hbond>
2.6786

> <Gold.Chemscore.Metal>
0.0000

> <Gold.Chemscore.Lipo>
97.3256

> <Gold.Chemscore.Internal_Hbond>
0.0000

> <Gold.Chemscore.DEClash>
0.0969

> <Gold.Chemscore.DEInternal>
1.9154

> <Gold.Chemscore.Rot>
2.6232

> <Gold.Chemscore.Internal.Correction>
   9.000000E+99

> <Gold.Chemscore.Hbonds>
donor molecule, donor type, donor heavy atom, donor atom, acceptor molecule, acceptor atom, score
      L1  H    13    37       P1 10747  0.93
      P1  H  6896  6908       L1    22  0.45
      P1  H  6931  6943       L1     1  0.64

> <Gold.Chemscore.Hbond.Weighted>
-8.9467

> <Gold.Chemscore.Metal.Weighted>
-0.0000

> <Gold.Chemscore.Lipo.Weighted>
-11.3871

> <Gold.Chemscore.Internal_Hbond.Weighted>
0.0000

> <Gold.Chemscore.DEClash.Weighted>
0.0969

> <Gold.Chemscore.DEInternal.Weighted>
1.9154

> <Gold.Chemscore.Rot.Weighted>
6.7155

> <Gold.Chemscore.Internal.Correction.Weighted>
   9.000000E+99

> <Gold.Protein.RotatedTorsions>
[ 6907 6896 6895 6894 ] final  127.63 input  -60.11 | X-H torsion
[ 7974 7965 7964 7962 ] final  129.70 input  175.53 | X-H torsion
[ 8008 7997 7996 7995 ] final  173.43 input   59.86 | X-H torsion
[ 10167 10162 10161 10158 ] final   59.52 input  -65.29 | X-H torsion
[ 10718 10713 10712 10709 ] final   -0.65 input   66.30 | X-H torsion
[ 10763 10752 10751 10750 ] final   70.98 input  -60.55 | X-H torsion
[ 11005 11000 10999 10996 ] final  -93.50 input  -57.11 | X-H torsion

> <Gold.Protein.ActiveResidues>
 VAL166  LYS551  ARG553  GLY616  TRP617  ASP618  TYR619  PRO620  LYS621  CYS622 
 ASP623  PHE694  ASN695  SER759  ASP760  ASP761  ALA762  ILE779  LEU786  VAL792 
 PHE793  MET794  SER795  GLU796  ALA797  LYS798  CYS799  TRP800  GLU811  SER814 

> <Gold.Protein.RotatedAtoms>
  152.3795  133.6527  159.6149 H   0  0  0  0  0  0  0  0  0  0  0  0  # atno 6907 bound_to 6896
  150.7730  133.9137  159.3386 H   0  0  0  0  0  0  0  0  0  0  0  0  # atno 6908 bound_to 6896
  151.6945  135.0942  160.0291 H   0  0  0  0  0  0  0  0  0  0  0  0  # atno 6909 bound_to 6896
  145.0258  139.4090  143.5174 H   0  0  0  0  0  0  0  0  0  0  0  0  # atno 7974 bound_to 7965
  156.1076  140.1460  156.9382 H   0  0  0  0  0  0  0  0  0  0  0  0  # atno 8008 bound_to 7997
  154.4745  140.0899  156.7271 H   0  0  0  0  0  0  0  0  0  0  0  0  # atno 8009 bound_to 7997
  155.4652  140.3440  155.4320 H   0  0  0  0  0  0  0  0  0  0  0  0  # atno 8010 bound_to 7997
  140.1755  144.4234  150.6640 H   0  0  0  0  0  0  0  0  0  0  0  0  # atno 10167 bound_to 10162
  156.8173  130.5444  149.5701 H   0  0  0  0  0  0  0  0  0  0  0  0  # atno 10718 bound_to 10713
  153.0372  135.5154  154.7523 H   0  0  0  0  0  0  0  0  0  0  0  0  # atno 10763 bound_to 10752
  154.6490  135.2922  155.0013 H   0  0  0  0  0  0  0  0  0  0  0  0  # atno 10764 bound_to 10752
  154.0904  135.6651  153.4904 H   0  0  0  0  0  0  0  0  0  0  0  0  # atno 10765 bound_to 10752
  141.1495  133.7892  157.0168 H   0  0  0  0  0  0  0  0  0  0  0  0  # atno 11005 bound_to 11000
  146.3492  139.9781  142.8699 LP  0  0  0  0  0  0  0  0  0  0  0  0  # atno 17320 bound_to 7965
  145.1835  140.9778  143.4252 LP  0  0  0  0  0  0  0  0  0  0  0  0  # atno 17321 bound_to 7965
  140.6554  143.2236  151.5980 LP  0  0  0  0  0  0  0  0  0  0  0  0  # atno 17342 bound_to 10162
  139.5319  144.2891  152.1166 LP  0  0  0  0  0  0  0  0  0  0  0  0  # atno 17343 bound_to 10162
  156.1009  130.5968  150.9893 LP  0  0  0  0  0  0  0  0  0  0  0  0  # atno 17370 bound_to 10713
  157.6475  131.0902  150.8122 LP  0  0  0  0  0  0  0  0  0  0  0  0  # atno 17371 bound_to 10713
  140.0842  134.9630  157.1673 LP  0  0  0  0  0  0  0  0  0  0  0  0  # atno 17394 bound_to 11000
  140.3535  134.2573  155.7195 LP  0  0  0  0  0  0  0  0  0  0  0  0  # atno 17395 bound_to 11000

$$$$
