AV-unprocessed.smi:3141|AV-procd|sdf|11962|dock3
  -GOLD-   2272017363D 1   1.00000     0.00000
 Structure written by MMmdl.
 36 38  0  0  0  0  0  0  0  0  2 V2000
  151.0327  142.0970  158.3846 O   0  0  0  0  0  0  0  0  0  0  0  0
  151.0308  142.7791  157.3591 C   0  0  0  0  0  0  0  0  0  0  0  0
  151.5415  144.0141  157.2734 N   0  0  0  0  0  0  0  0  0  0  0  0
  152.1647  144.7255  158.3420 C   0  0  0  0  0  0  0  0  0  0  0  0
  152.8088  143.9148  159.4456 C   0  0  0  0  0  0  0  0  0  0  0  0
  151.5199  144.6441  159.7087 C   0  0  0  0  0  0  0  0  0  0  0  0
  150.5112  142.3730  156.1921 N   0  0  0  0  0  0  0  0  0  0  0  0
  149.8851  141.0727  155.9693 C   0  0  2  0  0  0  0  0  0  0  0  0
  150.8376  139.9321  156.3778 C   0  0  0  0  0  0  0  0  0  0  0  0
  151.2097  139.1967  155.0876 C   0  0  0  0  0  0  0  0  0  0  0  0
  150.0065  139.4011  154.1725 C   0  0  0  0  0  0  0  0  0  0  0  0
  149.5683  140.8387  154.4722 C   0  0  1  0  0  0  0  0  0  0  0  0
  148.1725  141.1221  154.1049 N   0  0  0  0  0  0  0  0  0  0  0  0
  147.5093  142.3131  154.2588 C   0  0  0  0  0  0  0  0  0  0  0  0
  146.2336  142.1157  153.7974 C   0  0  0  0  0  0  0  0  0  0  0  0
  146.1703  140.8141  153.3788 N   0  3  0  0  0  0  0  0  0  0  0  0
  147.3491  140.2122  153.5646 C   0  0  0  0  0  0  0  0  0  0  0  0
  151.4901  144.4887  156.3838 H   0  0  0  0  0  0  0  0  0  0  0  0
  152.6493  145.6701  158.0981 H   0  0  0  0  0  0  0  0  0  0  0  0
  152.7658  142.8297  159.3725 H   0  0  0  0  0  0  0  0  0  0  0  0
  153.7136  144.3151  159.8984 H   0  0  0  0  0  0  0  0  0  0  0  0
  151.5635  145.5323  160.3358 H   0  0  0  0  0  0  0  0  0  0  0  0
  150.6166  144.0452  159.8118 H   0  0  0  0  0  0  0  0  0  0  0  0
  150.5546  143.0020  155.4033 H   0  0  0  0  0  0  0  0  0  0  0  0
  148.9875  141.0004  156.5862 H   0  0  0  0  0  0  0  0  0  0  0  0
  151.7219  140.2773  156.9157 H   0  0  0  0  0  0  0  0  0  0  0  0
  150.3104  139.2465  157.0425 H   0  0  0  0  0  0  0  0  0  0  0  0
  152.0914  139.6595  154.6424 H   0  0  0  0  0  0  0  0  0  0  0  0
  151.4360  138.1434  155.2559 H   0  0  0  0  0  0  0  0  0  0  0  0
  150.2501  139.2482  153.1206 H   0  0  0  0  0  0  0  0  0  0  0  0
  149.2254  138.6887  154.4405 H   0  0  0  0  0  0  0  0  0  0  0  0
  150.1961  141.4974  153.8682 H   0  0  0  0  0  0  0  0  0  0  0  0
  147.9802  143.1893  154.6804 H   0  0  0  0  0  0  0  0  0  0  0  0
  145.3880  142.7856  153.7390 H   0  0  0  0  0  0  0  0  0  0  0  0
  147.5865  139.1897  153.3304 H   0  0  0  0  0  0  0  0  0  0  0  0
  145.3497  140.3680  152.9885 H   0  0  0  0  0  0  0  0  0  0  0  0
  1  2  2  0  0  0  0
  2  3  1  0  0  0  0
  2  7  1  0  0  0  0
  3  4  1  0  0  0  0
  3 18  1  0  0  0  0
  4  6  1  0  0  0  0
  4  5  1  0  0  0  0
  4 19  1  0  0  0  0
  5  6  1  0  0  0  0
  5 20  1  0  0  0  0
  5 21  1  0  0  0  0
  6 22  1  0  0  0  0
  6 23  1  0  0  0  0
  7  8  1  0  0  0  0
  7 24  1  0  0  0  0
  8 12  1  0  0  0  0
  8  9  1  0  0  0  0
  8 25  1  0  0  0  0
  9 10  1  0  0  0  0
  9 26  1  0  0  0  0
  9 27  1  0  0  0  0
 10 11  1  0  0  0  0
 10 28  1  0  0  0  0
 10 29  1  0  0  0  0
 11 12  1  0  0  0  0
 11 30  1  0  0  0  0
 11 31  1  0  0  0  0
 12 13  1  0  0  0  0
 12 32  1  0  0  0  0
 13 17  1  0  0  0  0
 13 14  1  0  0  0  0
 14 15  2  0  0  0  0
 14 33  1  0  0  0  0
 15 16  1  0  0  0  0
 15 34  1  0  0  0  0
 16 17  2  0  0  0  0
 16 36  1  0  0  0  0
 17 35  1  0  0  0  0
M  CHG  1  16   1
M  END
> <s_m_source_file>
AV-unprocessed.smi

> <i_m_source_file_index>
3141

> <i_lp_mmshare_version>
43012

> <i_f3d_flags>
0

> <s_epik_input>
W0NIMl0xW0NIMl1bQ0hdMVtOSF1DKD1PKVtOSF1bQ0BASF0yW0NIMl1bQ0gyXVtDSDJdW0NASF0ybjNbY0hdW2NIXW5bY0hdMw==

> <s_epik_cmdline>
J2VwaWtfcHl0aG9uJywgJy1waCcsICc3LjAnLCAnLXRuJywgJzgnLCAnLW1hJywgJzIwMCcsICctbWV0YWxfYmluZGluZycsICctaW1hZScsICc8aW5maWxlLm1hZT4nLCAnLW9tYWUnLCAnPG91dGZpbGUubWFlPic=

> <r_lp_tautomer_probability>
1

> <r_epik_Ionization_Penalty>
0.205063

> <r_epik_Ionization_Penalty_Charging>
0

> <r_epik_Ionization_Penalty_Neutral>
0.205063

> <r_epik_State_Penalty>
0.194948

> <r_epik_Charging_Adjusted_Penalty>
0.194948

> <i_epik_Tot_Q>
1

> <i_epik_Tot_abs_Q>
1

> <r_epik_Metal_State_Penalty>
0.500882

> <b_epik_Metal_Only>
0

> <s_lp_Force_Field>
OPLS_2005

> <r_lp_Energy>
34.6624

> <b_lp_Chiralities_Consistent>
1

> <s_lp_Variant>
AV-unprocessed.smi:3141-1

> <Gold.Version>
5.8.1

> <Gold.Id.Protein>
6NUR|6NUR_protein|mol2

> <Gold.PLP.Fitness>
48.5306

> <Gold.PLP.PLP>
-40.5360

> <Gold.PLP.part.hbond>
-2.6062

> <Gold.PLP.part.metal>
0.0000

> <Gold.PLP.part.buried>
-1.3625

> <Gold.PLP.part.nonpolar>
-37.6766

> <Gold.PLP.part.repulsive>
0.1624

> <Gold.PLP.ligand.clash>
0.0000

> <Gold.PLP.ligand.torsion>
0.3519

> <Gold.PLP.Chemscore.Hbond>
1.9723

> <Gold.PLP.Chemscore.CHOScore>
0.9129

> <Gold.PLP.Chemscore.Metal>
0.0000

> <Gold.Chemscore.Hbonds>
donor molecule, donor type, donor heavy atom, donor atom, acceptor molecule, acceptor atom, score
      L1  H     7    24       P1  8028  0.02
      L1  H    16    36       P1 10175  1.95
      L1  C    14    33       P1  8028  0.90

> <Gold.PLP.Chemscore.Internal.Correction>
0.0428

> <Gold.Rescore>
     Score         DG    S(hbond)    S(metal)    S(lipo)     H(rot)  DE(clash)    DE(int)     intcor
     10.62     -14.85       0.97        0.00      87.50       1.61       0.12       4.10       ----

> <Gold.Chemscore.Fitness>
10.6198

> <Gold.Chemscore.DG>
-14.8475

> <Gold.Chemscore.ZeroCoef>
-5.4800

> <Gold.Chemscore.Hbond>
0.9727

> <Gold.Chemscore.Metal>
0.0000

> <Gold.Chemscore.Lipo>
87.4984

> <Gold.Chemscore.Internal_Hbond>
0.0000

> <Gold.Chemscore.DEClash>
0.1228

> <Gold.Chemscore.DEInternal>
4.1050

> <Gold.Chemscore.Rot>
1.6088

> <Gold.Chemscore.Internal.Correction>
   9.000000E+99

> <Gold.Chemscore.Hbonds>
donor molecule, donor type, donor heavy atom, donor atom, acceptor molecule, acceptor atom, score
      L1  H     7    24       P1  8028  0.02
      L1  H    16    36       P1 10175  0.88

> <Gold.Chemscore.Hbond.Weighted>
-3.2488

> <Gold.Chemscore.Metal.Weighted>
-0.0000

> <Gold.Chemscore.Lipo.Weighted>
-10.2373

> <Gold.Chemscore.Internal_Hbond.Weighted>
0.0000

> <Gold.Chemscore.DEClash.Weighted>
0.1228

> <Gold.Chemscore.DEInternal.Weighted>
4.1050

> <Gold.Chemscore.Rot.Weighted>
4.1186

> <Gold.Chemscore.Internal.Correction.Weighted>
   9.000000E+99

> <Gold.Protein.RotatedTorsions>
[ 6907 6896 6895 6894 ] final -111.99 input  -60.11 | X-H torsion
[ 7974 7965 7964 7962 ] final    1.26 input  175.53 | X-H torsion
[ 8008 7997 7996 7995 ] final -133.35 input   59.86 | X-H torsion
[ 10167 10162 10161 10158 ] final   68.82 input  -65.29 | X-H torsion
[ 10718 10713 10712 10709 ] final   -0.53 input   66.30 | X-H torsion
[ 10763 10752 10751 10750 ] final  147.76 input  -60.55 | X-H torsion
[ 11005 11000 10999 10996 ] final -152.82 input  -57.11 | X-H torsion

> <Gold.Protein.ActiveResidues>
 VAL166  LYS551  ARG553  GLY616  TRP617  ASP618  TYR619  PRO620  LYS621  CYS622 
 ASP623  PHE694  ASN695  SER759  ASP760  ASP761  ALA762  ILE779  LEU786  VAL792 
 PHE793  MET794  SER795  GLU796  ALA797  LYS798  CYS799  TRP800  GLU811  SER814 

> <Gold.Protein.RotatedAtoms>
  150.7728  133.9154  159.3381 H   0  0  0  0  0  0  0  0  0  0  0  0  # atno 6907 bound_to 6896
  151.7036  135.0923  160.0265 H   0  0  0  0  0  0  0  0  0  0  0  0  # atno 6908 bound_to 6896
  152.3752  133.6434  159.6154 H   0  0  0  0  0  0  0  0  0  0  0  0  # atno 6909 bound_to 6896
  146.2439  140.1013  142.8347 H   0  0  0  0  0  0  0  0  0  0  0  0  # atno 7974 bound_to 7965
  155.3440  140.0473  157.3045 H   0  0  0  0  0  0  0  0  0  0  0  0  # atno 8008 bound_to 7997
  154.5262  140.2242  155.8851 H   0  0  0  0  0  0  0  0  0  0  0  0  # atno 8009 bound_to 7997
  156.1742  140.3089  155.9034 H   0  0  0  0  0  0  0  0  0  0  0  0  # atno 8010 bound_to 7997
  140.0745  144.5124  150.7204 H   0  0  0  0  0  0  0  0  0  0  0  0  # atno 10167 bound_to 10162
  156.8191  130.5450  149.5699 H   0  0  0  0  0  0  0  0  0  0  0  0  # atno 10718 bound_to 10713
  154.0436  135.2887  155.3351 H   0  0  0  0  0  0  0  0  0  0  0  0  # atno 10763 bound_to 10752
  154.6913  135.5225  153.8400 H   0  0  0  0  0  0  0  0  0  0  0  0  # atno 10764 bound_to 10752
  153.0589  135.6606  154.0638 H   0  0  0  0  0  0  0  0  0  0  0  0  # atno 10765 bound_to 10752
  140.7148  134.3793  157.5192 H   0  0  0  0  0  0  0  0  0  0  0  0  # atno 11005 bound_to 11000
  145.0566  140.9057  143.4964 LP  0  0  0  0  0  0  0  0  0  0  0  0  # atno 17320 bound_to 7965
  145.1121  139.2750  143.5632 LP  0  0  0  0  0  0  0  0  0  0  0  0  # atno 17321 bound_to 7965
  140.7109  143.2504  151.4585 LP  0  0  0  0  0  0  0  0  0  0  0  0  # atno 17342 bound_to 10162
  139.5816  144.1697  152.1975 LP  0  0  0  0  0  0  0  0  0  0  0  0  # atno 17343 bound_to 10162
  156.0999  130.5961  150.9877 LP  0  0  0  0  0  0  0  0  0  0  0  0  # atno 17370 bound_to 10713
  157.6466  131.0903  150.8140 LP  0  0  0  0  0  0  0  0  0  0  0  0  # atno 17371 bound_to 10713
  139.8862  134.8915  156.2595 LP  0  0  0  0  0  0  0  0  0  0  0  0  # atno 17394 bound_to 11000
  141.0054  133.7127  156.1026 LP  0  0  0  0  0  0  0  0  0  0  0  0  # atno 17395 bound_to 11000

$$$$
