AV-unprocessed.smi:753|AV-procd|sdf|3601|dock8
  -GOLD-   22720 0593D 1   1.00000     0.00000
 Structure written by MMmdl.
 43 45  0  0  0  0  0  0  0  0  1 V2000
  143.1509  144.7761  156.0528 C   0  0  0  0  0  0  0  0  0  0  0  0
  144.2851  144.0342  155.3773 C   0  0  0  0  0  0  0  0  0  0  0  0
  144.6658  144.3468  154.0553 C   0  0  0  0  0  0  0  0  0  0  0  0
  145.7255  143.6245  153.4743 C   0  0  0  0  0  0  0  0  0  0  0  0
  146.3615  142.6210  154.2339 C   0  0  0  0  0  0  0  0  0  0  0  0
  147.4923  141.7938  153.6478 C   0  0  0  0  0  0  0  0  0  0  0  0
  148.3597  141.0939  154.7109 C   0  0  0  0  0  0  0  0  0  0  0  0
  148.8911  142.0319  155.6964 N   0  0  0  0  0  0  0  0  0  0  0  0
  149.5920  141.7005  156.7947 C   0  0  0  0  0  0  0  0  0  0  0  0
  149.8624  140.5424  157.1065 O   0  0  0  0  0  0  0  0  0  0  0  0
  149.9942  142.7458  157.5381 N   0  0  0  0  0  0  0  0  0  0  0  0
  150.7681  142.7193  158.7819 C   0  0  2  0  0  0  0  0  0  0  0  0
  150.2350  143.7609  159.7907 C   0  0  0  0  0  0  0  0  0  0  0  0
  151.4655  144.6454  160.0634 C   0  0  2  0  0  0  0  0  0  0  0  0
  151.7692  145.5064  158.8221 C   0  0  0  0  0  0  0  0  0  0  0  0
  152.3572  144.4828  157.8327 C   0  0  0  0  0  0  0  0  0  0  0  0
  152.2475  143.1565  158.6157 C   0  0  1  0  0  0  0  0  0  0  0  0
  152.5938  143.6240  160.0252 C   0  0  0  0  0  0  0  0  0  0  0  0
  145.9064  142.3902  155.5493 C   0  0  0  0  0  0  0  0  0  0  0  0
  144.8921  143.0787  156.1153 N   0  0  0  0  0  0  0  0  0  0  0  0
  142.5302  145.2939  155.3210 H   0  0  0  0  0  0  0  0  0  0  0  0
  143.5462  145.5142  156.7507 H   0  0  0  0  0  0  0  0  0  0  0  0
  142.5136  144.0857  156.6064 H   0  0  0  0  0  0  0  0  0  0  0  0
  144.1581  145.1190  153.4964 H   0  0  0  0  0  0  0  0  0  0  0  0
  146.0363  143.8328  152.4612 H   0  0  0  0  0  0  0  0  0  0  0  0
  147.0758  141.0499  152.9673 H   0  0  0  0  0  0  0  0  0  0  0  0
  148.1184  142.4449  153.0368 H   0  0  0  0  0  0  0  0  0  0  0  0
  147.7602  140.3525  155.2394 H   0  0  0  0  0  0  0  0  0  0  0  0
  149.1687  140.5409  154.2306 H   0  0  0  0  0  0  0  0  0  0  0  0
  148.7215  143.0123  155.5260 H   0  0  0  0  0  0  0  0  0  0  0  0
  149.7490  143.6629  157.1938 H   0  0  0  0  0  0  0  0  0  0  0  0
  150.7137  141.7268  159.2340 H   0  0  0  0  0  0  0  0  0  0  0  0
  149.3923  144.3412  159.4115 H   0  0  0  0  0  0  0  0  0  0  0  0
  149.9064  143.2674  160.7064 H   0  0  0  0  0  0  0  0  0  0  0  0
  151.3933  145.2199  160.9872 H   0  0  0  0  0  0  0  0  0  0  0  0
  150.8755  145.9948  158.4319 H   0  0  0  0  0  0  0  0  0  0  0  0
  152.5014  146.2816  159.0517 H   0  0  0  0  0  0  0  0  0  0  0  0
  151.8343  144.4723  156.8765 H   0  0  0  0  0  0  0  0  0  0  0  0
  153.4026  144.7156  157.6255 H   0  0  0  0  0  0  0  0  0  0  0  0
  152.8953  142.3697  158.2278 H   0  0  0  0  0  0  0  0  0  0  0  0
  153.5864  144.0715  160.1032 H   0  0  0  0  0  0  0  0  0  0  0  0
  152.4947  142.8403  160.7783 H   0  0  0  0  0  0  0  0  0  0  0  0
  146.3630  141.6265  156.1616 H   0  0  0  0  0  0  0  0  0  0  0  0
  1  2  1  0  0  0  0
  1 21  1  0  0  0  0
  1 22  1  0  0  0  0
  1 23  1  0  0  0  0
  2 20  1  0  0  0  0
  2  3  2  0  0  0  0
  3  4  1  0  0  0  0
  3 24  1  0  0  0  0
  4  5  2  0  0  0  0
  4 25  1  0  0  0  0
  5  6  1  0  0  0  0
  5 19  1  0  0  0  0
  6  7  1  0  0  0  0
  6 26  1  0  0  0  0
  6 27  1  0  0  0  0
  7  8  1  0  0  0  0
  7 28  1  0  0  0  0
  7 29  1  0  0  0  0
  8  9  1  0  0  0  0
  8 30  1  0  0  0  0
  9 10  2  0  0  0  0
  9 11  1  0  0  0  0
 11 12  1  0  0  0  0
 11 31  1  0  0  0  0
 12 17  1  0  0  0  0
 12 13  1  0  0  0  0
 12 32  1  0  0  0  0
 13 14  1  0  0  0  0
 13 33  1  0  0  0  0
 13 34  1  0  0  0  0
 14 18  1  0  0  0  0
 14 15  1  0  0  0  0
 14 35  1  0  0  0  0
 15 16  1  0  0  0  0
 15 36  1  0  0  0  0
 15 37  1  0  0  0  0
 16 17  1  0  0  0  0
 16 38  1  0  0  0  0
 16 39  1  0  0  0  0
 17 18  1  0  0  0  0
 17 40  1  0  0  0  0
 18 41  1  0  0  0  0
 18 42  1  0  0  0  0
 19 20  2  0  0  0  0
 19 43  1  0  0  0  0
M  END
> <s_m_source_file>
AV-unprocessed.smi

> <i_m_source_file_index>
753

> <i_lp_mmshare_version>
43012

> <i_f3d_flags>
0

> <s_epik_input>
W0NIM11jMVtjSF1bY0hdYyhbY0hdbjEpW0NIMl1bQ0gyXVtOSF1DKD1PKVtOSF1bQ0BIXShbQ0gyXVtDQEBIXTIzKVtDQEBIXShbQ0gyXTMpW0NIMl1bQ0gyXTI=

> <s_epik_cmdline>
J2VwaWtfcHl0aG9uJywgJy1waCcsICc3LjAnLCAnLXRuJywgJzgnLCAnLW1hJywgJzIwMCcsICctbWV0YWxfYmluZGluZycsICctaW1hZScsICc8aW5maWxlLm1hZT4nLCAnLW9tYWUnLCAnPG91dGZpbGUubWFlPic=

> <r_epik_Ionization_Penalty>
0.0569047

> <r_epik_Ionization_Penalty_Charging>
0

> <r_epik_Ionization_Penalty_Neutral>
0.0569047

> <r_epik_State_Penalty>
0.0490541

> <r_epik_Charging_Adjusted_Penalty>
0.0490541

> <i_epik_Tot_Q>
0

> <i_epik_Tot_abs_Q>
0

> <r_epik_Metal_State_Penalty>
0.0447357

> <b_epik_Metal_Only>
0

> <s_lp_Force_Field>
OPLS_2005

> <r_lp_Energy>
52.9013

> <b_lp_Chiralities_Consistent>
1

> <s_lp_Variant>
AV-unprocessed.smi:753-3

> <Gold.Version>
5.8.1

> <Gold.Id.Protein>
6NUR|6NUR_protein|mol2

> <Gold.PLP.Fitness>
48.0012

> <Gold.PLP.PLP>
-43.2550

> <Gold.PLP.part.hbond>
-2.0000

> <Gold.PLP.part.metal>
0.0000

> <Gold.PLP.part.buried>
-6.3642

> <Gold.PLP.part.nonpolar>
-36.1345

> <Gold.PLP.part.repulsive>
0.2752

> <Gold.PLP.ligand.clash>
0.0000

> <Gold.PLP.ligand.torsion>
0.5172

> <Gold.PLP.Chemscore.Hbond>
1.9204

> <Gold.PLP.Chemscore.CHOScore>
0.0000

> <Gold.PLP.Chemscore.Metal>
0.0000

> <Gold.Chemscore.Hbonds>
donor molecule, donor type, donor heavy atom, donor atom, acceptor molecule, acceptor atom, score
      L1  H     8    30       P1  8028  1.00
      L1  H    11    31       P1  8028  0.90

> <Gold.PLP.Chemscore.Internal.Correction>
0.0193

> <Gold.Rescore>
     Score         DG    S(hbond)    S(metal)    S(lipo)     H(rot)  DE(clash)    DE(int)     intcor
     21.73     -22.59       1.89        0.00     123.50       1.43       0.38       0.49       ----

> <Gold.Chemscore.Fitness>
21.7330

> <Gold.Chemscore.DG>
-22.5937

> <Gold.Chemscore.ZeroCoef>
-5.4800

> <Gold.Chemscore.Hbond>
1.8931

> <Gold.Chemscore.Metal>
0.0000

> <Gold.Chemscore.Lipo>
123.4967

> <Gold.Chemscore.Internal_Hbond>
0.0000

> <Gold.Chemscore.DEClash>
0.3752

> <Gold.Chemscore.DEInternal>
0.4854

> <Gold.Chemscore.Rot>
1.4291

> <Gold.Chemscore.Internal.Correction>
   9.000000E+99

> <Gold.Chemscore.Hbonds>
donor molecule, donor type, donor heavy atom, donor atom, acceptor molecule, acceptor atom, score
      L1  H     8    30       P1  8028  1.00
      L1  H    11    31       P1  8028  0.74

> <Gold.Chemscore.Hbond.Weighted>
-6.3231

> <Gold.Chemscore.Metal.Weighted>
-0.0000

> <Gold.Chemscore.Lipo.Weighted>
-14.4491

> <Gold.Chemscore.Internal_Hbond.Weighted>
0.0000

> <Gold.Chemscore.DEClash.Weighted>
0.3752

> <Gold.Chemscore.DEInternal.Weighted>
0.4854

> <Gold.Chemscore.Rot.Weighted>
3.6585

> <Gold.Chemscore.Internal.Correction.Weighted>
   9.000000E+99

> <Gold.Protein.RotatedTorsions>
[ 6907 6896 6895 6894 ] final -165.55 input  -60.11 | X-H torsion
[ 7974 7965 7964 7962 ] final   -5.00 input  175.53 | X-H torsion
[ 8008 7997 7996 7995 ] final  175.74 input   59.86 | X-H torsion
[ 10167 10162 10161 10158 ] final  -97.36 input  -65.29 | X-H torsion
[ 10718 10713 10712 10709 ] final -124.38 input   66.30 | X-H torsion
[ 10763 10752 10751 10750 ] final  -72.64 input  -60.55 | X-H torsion
[ 11005 11000 10999 10996 ] final  -80.32 input  -57.11 | X-H torsion

> <Gold.Protein.ActiveResidues>
 VAL166  LYS551  ARG553  GLY616  TRP617  ASP618  TYR619  PRO620  LYS621  CYS622 
 ASP623  PHE694  ASN695  SER759  ASP760  ASP761  ALA762  ILE779  LEU786  VAL792 
 PHE793  MET794  SER795  GLU796  ALA797  LYS798  CYS799  TRP800  GLU811  SER814 

> <Gold.Protein.RotatedAtoms>
  151.4294  133.3674  159.2766 H   0  0  0  0  0  0  0  0  0  0  0  0  # atno 6907 bound_to 6896
  150.9236  134.8654  159.7516 H   0  0  0  0  0  0  0  0  0  0  0  0  # atno 6908 bound_to 6896
  152.4994  134.4234  159.9540 H   0  0  0  0  0  0  0  0  0  0  0  0  # atno 6909 bound_to 6896
  146.2361  140.1956  142.8333 H   0  0  0  0  0  0  0  0  0  0  0  0  # atno 7974 bound_to 7965
  156.0839  140.1401  156.9678 H   0  0  0  0  0  0  0  0  0  0  0  0  # atno 8008 bound_to 7997
  154.4601  140.0946  156.6918 H   0  0  0  0  0  0  0  0  0  0  0  0  # atno 8009 bound_to 7997
  155.5031  140.3451  155.4377 H   0  0  0  0  0  0  0  0  0  0  0  0  # atno 8010 bound_to 7997
  140.2843  143.3262  152.0410 H   0  0  0  0  0  0  0  0  0  0  0  0  # atno 10167 bound_to 10162
  156.1582  130.6583  151.0012 H   0  0  0  0  0  0  0  0  0  0  0  0  # atno 10718 bound_to 10713
  154.4485  135.5923  153.6175 H   0  0  0  0  0  0  0  0  0  0  0  0  # atno 10763 bound_to 10752
  152.9811  135.6015  154.3635 H   0  0  0  0  0  0  0  0  0  0  0  0  # atno 10764 bound_to 10752
  154.3493  135.2841  155.2359 H   0  0  0  0  0  0  0  0  0  0  0  0  # atno 10765 bound_to 10752
  141.1668  133.7145  156.8255 H   0  0  0  0  0  0  0  0  0  0  0  0  # atno 11005 bound_to 11000
  144.9823  140.8471  143.5390 LP  0  0  0  0  0  0  0  0  0  0  0  0  # atno 17320 bound_to 7965
  145.1951  139.2281  143.5222 LP  0  0  0  0  0  0  0  0  0  0  0  0  # atno 17321 bound_to 7965
  139.4954  144.6570  151.6550 LP  0  0  0  0  0  0  0  0  0  0  0  0  # atno 17342 bound_to 10162
  140.5786  143.9985  150.6255 LP  0  0  0  0  0  0  0  0  0  0  0  0  # atno 17343 bound_to 10162
  157.6712  131.0861  150.7608 LP  0  0  0  0  0  0  0  0  0  0  0  0  # atno 17370 bound_to 10713
  156.7672  130.4817  149.5425 LP  0  0  0  0  0  0  0  0  0  0  0  0  # atno 17371 bound_to 10713
  140.2088  134.8842  157.3252 LP  0  0  0  0  0  0  0  0  0  0  0  0  # atno 17394 bound_to 11000
  140.2108  134.4141  155.7614 LP  0  0  0  0  0  0  0  0  0  0  0  0  # atno 17395 bound_to 11000

$$$$
