AV-unprocessed.smi:3291|AV-procd|sdf|12620|dock1
  -GOLD-   2272018553D 1   1.00000     0.00000
 Structure written by MMmdl.
 43 45  0  0  0  0  0  0  0  0  2 V2000
  151.0849  129.0403  151.9417 C   0  0  0  0  0  0  0  0  0  0  0  0
  151.4315  130.2722  152.7283 C   0  0  0  0  0  0  0  0  0  0  0  0
  152.5920  130.3371  153.3565 N   0  0  0  0  0  0  0  0  0  0  0  0
  152.6155  131.5834  153.9868 O   0  0  0  0  0  0  0  0  0  0  0  0
  151.4550  132.2299  153.7107 C   0  0  0  0  0  0  0  0  0  0  0  0
  151.3090  133.5916  154.3044 C   0  0  0  0  0  0  0  0  0  0  0  0
  150.6567  131.4552  152.9084 C   0  0  0  0  0  0  0  0  0  0  0  0
  149.2869  131.7413  152.3297 C   0  0  1  0  0  0  0  0  0  0  0  0
  148.3336  130.5616  152.5715 C   0  0  0  0  0  0  0  0  0  0  0  0
  148.6979  133.0598  152.8640 C   0  0  0  0  0  0  0  0  0  0  0  0
  147.9153  133.7595  151.8225 N   0  3  0  0  0  0  0  0  0  0  0  0
  146.4498  133.5877  151.9101 C   0  0  0  0  0  0  0  0  0  0  0  0
  146.0663  132.2955  151.2120 C   0  0  0  0  0  0  0  0  0  0  0  0
  145.3913  132.3058  149.8599 C   0  0  0  0  0  0  0  0  0  0  0  0
  144.6198  131.8780  151.0856 C   0  0  0  0  0  0  0  0  0  0  0  0
  145.7324  134.7757  151.2861 C   0  0  0  0  0  0  0  0  0  0  0  0
  145.2776  135.9518  152.1214 C   0  0  0  0  0  0  0  0  0  0  0  0
  144.2584  135.0116  151.5280 C   0  0  0  0  0  0  0  0  0  0  0  0
  150.1975  128.5561  152.3494 H   0  0  0  0  0  0  0  0  0  0  0  0
  151.8949  128.3102  151.9539 H   0  0  0  0  0  0  0  0  0  0  0  0
  150.8803  129.2874  150.9000 H   0  0  0  0  0  0  0  0  0  0  0  0
  150.2954  133.7558  154.6683 H   0  0  0  0  0  0  0  0  0  0  0  0
  151.5332  134.3602  153.5653 H   0  0  0  0  0  0  0  0  0  0  0  0
  151.9895  133.7267  155.1452 H   0  0  0  0  0  0  0  0  0  0  0  0
  149.3695  131.8512  151.2477 H   0  0  0  0  0  0  0  0  0  0  0  0
  148.7311  129.6433  152.1381 H   0  0  0  0  0  0  0  0  0  0  0  0
  147.3602  130.7437  152.1156 H   0  0  0  0  0  0  0  0  0  0  0  0
  148.1714  130.3838  153.6345 H   0  0  0  0  0  0  0  0  0  0  0  0
  148.0460  132.8580  153.7150 H   0  0  0  0  0  0  0  0  0  0  0  0
  149.4964  133.7042  153.2279 H   0  0  0  0  0  0  0  0  0  0  0  0
  148.1271  134.7464  151.8614 H   0  0  0  0  0  0  0  0  0  0  0  0
  146.1629  133.5069  152.9602 H   0  0  0  0  0  0  0  0  0  0  0  0
  146.7796  131.4879  151.3691 H   0  0  0  0  0  0  0  0  0  0  0  0
  145.1318  133.2674  149.4219 H   0  0  0  0  0  0  0  0  0  0  0  0
  145.6783  131.5326  149.1500 H   0  0  0  0  0  0  0  0  0  0  0  0
  144.3913  130.8192  151.1915 H   0  0  0  0  0  0  0  0  0  0  0  0
  143.8580  132.5592  151.4597 H   0  0  0  0  0  0  0  0  0  0  0  0
  146.0754  135.0099  150.2795 H   0  0  0  0  0  0  0  0  0  0  0  0
  145.4343  135.9041  153.1972 H   0  0  0  0  0  0  0  0  0  0  0  0
  145.3666  136.9429  151.6812 H   0  0  0  0  0  0  0  0  0  0  0  0
  143.6645  135.3763  150.6924 H   0  0  0  0  0  0  0  0  0  0  0  0
  143.7365  134.3497  152.2158 H   0  0  0  0  0  0  0  0  0  0  0  0
  148.2166  133.4037  150.9264 H   0  0  0  0  0  0  0  0  0  0  0  0
  1  2  1  0  0  0  0
  1 19  1  0  0  0  0
  1 20  1  0  0  0  0
  1 21  1  0  0  0  0
  2  7  1  0  0  0  0
  2  3  2  0  0  0  0
  3  4  1  0  0  0  0
  4  5  1  0  0  0  0
  5  6  1  0  0  0  0
  5  7  2  0  0  0  0
  6 22  1  0  0  0  0
  6 23  1  0  0  0  0
  6 24  1  0  0  0  0
  7  8  1  0  0  0  0
  8  9  1  0  0  0  0
  8 10  1  0  0  0  0
  8 25  1  0  0  0  0
  9 26  1  0  0  0  0
  9 27  1  0  0  0  0
  9 28  1  0  0  0  0
 10 11  1  0  0  0  0
 10 29  1  0  0  0  0
 10 30  1  0  0  0  0
 11 12  1  0  0  0  0
 11 31  1  0  0  0  0
 11 43  1  0  0  0  0
 12 13  1  0  0  0  0
 12 16  1  0  0  0  0
 12 32  1  0  0  0  0
 13 15  1  0  0  0  0
 13 14  1  0  0  0  0
 13 33  1  0  0  0  0
 14 15  1  0  0  0  0
 14 34  1  0  0  0  0
 14 35  1  0  0  0  0
 15 36  1  0  0  0  0
 15 37  1  0  0  0  0
 16 18  1  0  0  0  0
 16 17  1  0  0  0  0
 16 38  1  0  0  0  0
 17 18  1  0  0  0  0
 17 39  1  0  0  0  0
 17 40  1  0  0  0  0
 18 41  1  0  0  0  0
 18 42  1  0  0  0  0
M  CHG  1  11   1
M  END
> <s_m_source_file>
AV-unprocessed.smi

> <i_m_source_file_index>
3291

> <i_lp_mmshare_version>
43012

> <i_f3d_flags>
0

> <s_epik_input>
W0NIM11jMW5vYyhbQ0gzXSljMVtDQEhdKFtDSDNdKVtDSDJdW05IXVtDSF0oW0NIXTJbQ0gyXVtDSDJdMilbQ0hdM1tDSDJdW0NIMl0z

> <s_epik_cmdline>
J2VwaWtfcHl0aG9uJywgJy1waCcsICc3LjAnLCAnLXRuJywgJzgnLCAnLW1hJywgJzIwMCcsICctbWV0YWxfYmluZGluZycsICctaW1hZScsICc8aW5maWxlLm1hZT4nLCAnLW9tYWUnLCAnPG91dGZpbGUubWFlPic=

> <r_lp_tautomer_probability>
1

> <r_epik_Ionization_Penalty>
0.000158108

> <r_epik_Ionization_Penalty_Charging>
0.000158108

> <r_epik_Ionization_Penalty_Neutral>
1.14678e-10

> <r_epik_State_Penalty>
-0

> <r_epik_Charging_Adjusted_Penalty>
0.000158108

> <i_epik_Tot_Q>
1

> <i_epik_Tot_abs_Q>
1

> <r_epik_Metal_State_Penalty>
-0

> <b_epik_Metal_Only>
0

> <s_lp_Force_Field>
OPLS_2005

> <r_lp_Energy>
24.4944

> <b_lp_Chiralities_Consistent>
1

> <s_lp_Variant>
AV-unprocessed.smi:3291-2

> <Gold.Version>
5.8.1

> <Gold.Id.Protein>
6NUR|6NUR_protein|mol2

> <Gold.PLP.Fitness>
41.5249

> <Gold.PLP.PLP>
-37.9481

> <Gold.PLP.part.hbond>
-1.0000

> <Gold.PLP.part.metal>
0.0000

> <Gold.PLP.part.buried>
-3.6498

> <Gold.PLP.part.nonpolar>
-32.8348

> <Gold.PLP.part.repulsive>
0.0303

> <Gold.PLP.ligand.clash>
0.0000

> <Gold.PLP.ligand.torsion>
2.3685

> <Gold.PLP.Chemscore.Hbond>
2.0000

> <Gold.PLP.Chemscore.CHOScore>
0.0000

> <Gold.PLP.Chemscore.Metal>
0.0000

> <Gold.Chemscore.Hbonds>
donor molecule, donor type, donor heavy atom, donor atom, acceptor molecule, acceptor atom, score
      L1  H    11    31       P1  7948  1.60

> <Gold.PLP.Chemscore.Internal.Correction>
2.3138

> <Gold.Rescore>
     Score         DG    S(hbond)    S(metal)    S(lipo)     H(rot)  DE(clash)    DE(int)     intcor
     11.76     -15.18       0.71        0.00      95.50       1.50       0.04       3.37       ----

> <Gold.Chemscore.Fitness>
11.7611

> <Gold.Chemscore.DG>
-15.1789

> <Gold.Chemscore.ZeroCoef>
-5.4800

> <Gold.Chemscore.Hbond>
0.7095

> <Gold.Chemscore.Metal>
0.0000

> <Gold.Chemscore.Lipo>
95.4962

> <Gold.Chemscore.Internal_Hbond>
0.0000

> <Gold.Chemscore.DEClash>
0.0434

> <Gold.Chemscore.DEInternal>
3.3744

> <Gold.Chemscore.Rot>
1.5015

> <Gold.Chemscore.Internal.Correction>
   9.000000E+99

> <Gold.Chemscore.Hbonds>
donor molecule, donor type, donor heavy atom, donor atom, acceptor molecule, acceptor atom, score
      L1  H    11    31       P1  7948  0.12

> <Gold.Chemscore.Hbond.Weighted>
-2.3697

> <Gold.Chemscore.Metal.Weighted>
-0.0000

> <Gold.Chemscore.Lipo.Weighted>
-11.1731

> <Gold.Chemscore.Internal_Hbond.Weighted>
0.0000

> <Gold.Chemscore.DEClash.Weighted>
0.0434

> <Gold.Chemscore.DEInternal.Weighted>
3.3744

> <Gold.Chemscore.Rot.Weighted>
3.8438

> <Gold.Chemscore.Internal.Correction.Weighted>
   9.000000E+99

> <Gold.Protein.RotatedTorsions>
[ 6907 6896 6895 6894 ] final  -58.28 input  -60.11 | X-H torsion
[ 7974 7965 7964 7962 ] final  -95.77 input  175.53 | X-H torsion
[ 8008 7997 7996 7995 ] final  124.23 input   59.86 | X-H torsion
[ 10167 10162 10161 10158 ] final  -80.70 input  -65.29 | X-H torsion
[ 10718 10713 10712 10709 ] final  165.39 input   66.30 | X-H torsion
[ 10763 10752 10751 10750 ] final  144.04 input  -60.55 | X-H torsion
[ 11005 11000 10999 10996 ] final  -49.73 input  -57.11 | X-H torsion

> <Gold.Protein.ActiveResidues>
 VAL166  LYS551  ARG553  GLY616  TRP617  ASP618  TYR619  PRO620  LYS621  CYS622 
 ASP623  PHE694  ASN695  SER759  ASP760  ASP761  ALA762  ILE779  LEU786  VAL792 
 PHE793  MET794  SER795  GLU796  ALA797  LYS798  CYS799  TRP800  GLU811  SER814 

> <Gold.Protein.RotatedAtoms>
  150.8019  134.7118  159.6607 H   0  0  0  0  0  0  0  0  0  0  0  0  # atno 6907 bound_to 6896
  152.4136  134.6077  160.0027 H   0  0  0  0  0  0  0  0  0  0  0  0  # atno 6908 bound_to 6896
  151.6313  133.3295  159.3145 H   0  0  0  0  0  0  0  0  0  0  0  0  # atno 6909 bound_to 6896
  145.3557  140.9484  143.2529 H   0  0  0  0  0  0  0  0  0  0  0  0  # atno 7974 bound_to 7965
  156.2794  140.2744  156.1755 H   0  0  0  0  0  0  0  0  0  0  0  0  # atno 8008 bound_to 7997
  155.0610  140.0386  157.2594 H   0  0  0  0  0  0  0  0  0  0  0  0  # atno 8009 bound_to 7997
  154.7117  140.2670  155.6629 H   0  0  0  0  0  0  0  0  0  0  0  0  # atno 8010 bound_to 7997
  140.4479  143.2492  151.8531 H   0  0  0  0  0  0  0  0  0  0  0  0  # atno 10167 bound_to 10162
  157.0809  131.0392  151.2575 H   0  0  0  0  0  0  0  0  0  0  0  0  # atno 10718 bound_to 10713
  153.9823  135.2940  155.3419 H   0  0  0  0  0  0  0  0  0  0  0  0  # atno 10763 bound_to 10752
  154.7262  135.5088  153.8892 H   0  0  0  0  0  0  0  0  0  0  0  0  # atno 10764 bound_to 10752
  153.0848  135.6690  154.0085 H   0  0  0  0  0  0  0  0  0  0  0  0  # atno 10765 bound_to 10752
  141.0776  133.6661  156.3628 H   0  0  0  0  0  0  0  0  0  0  0  0  # atno 11005 bound_to 11000
  144.8684  139.5074  143.6779 LP  0  0  0  0  0  0  0  0  0  0  0  0  # atno 17320 bound_to 7965
  146.2949  139.7248  142.9134 LP  0  0  0  0  0  0  0  0  0  0  0  0  # atno 17321 bound_to 7965
  139.4794  144.5154  151.8875 LP  0  0  0  0  0  0  0  0  0  0  0  0  # atno 17342 bound_to 10162
  140.4242  144.2203  150.5887 LP  0  0  0  0  0  0  0  0  0  0  0  0  # atno 17343 bound_to 10162
  157.4801  130.7760  149.7406 LP  0  0  0  0  0  0  0  0  0  0  0  0  # atno 17370 bound_to 10713
  155.9924  130.3931  150.2944 LP  0  0  0  0  0  0  0  0  0  0  0  0  # atno 17371 bound_to 10713
  140.5539  134.6000  157.5415 LP  0  0  0  0  0  0  0  0  0  0  0  0  # atno 17394 bound_to 11000
  139.9588  134.7487  156.0281 LP  0  0  0  0  0  0  0  0  0  0  0  0  # atno 17395 bound_to 11000

$$$$
