AV-unprocessed.smi:2136|AV-procd|sdf|8703|dock2
  -GOLD-   2272011463D 1   1.00000     0.00000
 Structure written by MMmdl.
 42 43  0  0  0  0  0  0  0  0  1 V2000
  150.8604  134.8268  156.0939 C   0  0  0  0  0  0  0  0  0  0  0  0
  151.6614  136.2533  156.9365 S   0  0  0  0  0  0  0  0  0  0  0  0
  151.1160  136.3432  158.2990 O   0  0  0  0  0  0  0  0  0  0  0  0
  153.1165  136.1306  156.7585 O   0  0  0  0  0  0  0  0  0  0  0  0
  151.1167  137.6253  155.9880 N   0  0  0  0  0  0  0  0  0  0  0  0
  150.8871  137.3197  154.5541 C   0  0  0  0  0  0  0  0  0  0  0  0
  150.6841  138.5710  153.6917 C   0  0  0  0  0  0  0  0  0  0  0  0
  149.5383  139.4150  154.2356 C   0  0  0  0  0  0  0  0  0  0  0  0
  149.8849  139.8181  155.6650 C   0  0  0  0  0  0  0  0  0  0  0  0
  150.1431  138.5983  156.5840 C   0  0  2  0  0  0  0  0  0  0  0  0
  150.4757  139.1360  157.9837 C   0  0  0  0  0  0  0  0  0  0  0  0
  149.7515  138.8508  158.9372 O   0  0  0  0  0  0  0  0  0  0  0  0
  151.5677  139.9104  158.0934 N   0  0  0  0  0  0  0  0  0  0  0  0
  152.0546  140.4994  159.3337 C   0  0  0  0  0  0  0  0  0  0  0  0
  153.1629  141.5322  159.0728 C   0  0  0  0  0  0  0  0  0  0  0  0
  152.6730  142.9529  159.2685 C   0  0  0  0  0  0  0  0  0  0  0  0
  152.5643  143.8403  158.1782 C   0  0  0  0  0  0  0  0  0  0  0  0
  152.1091  145.1517  158.4148 C   0  0  0  0  0  0  0  0  0  0  0  0
  151.7817  145.5200  159.7352 C   0  0  0  0  0  0  0  0  0  0  0  0
  151.8824  144.6786  160.7867 N   0  0  0  0  0  0  0  0  0  0  0  0
  152.3195  143.4227  160.5511 C   0  0  0  0  0  0  0  0  0  0  0  0
  151.1701  133.9023  156.5802 H   0  0  0  0  0  0  0  0  0  0  0  0
  151.1598  134.7996  155.0470 H   0  0  0  0  0  0  0  0  0  0  0  0
  149.7769  134.9207  156.1629 H   0  0  0  0  0  0  0  0  0  0  0  0
  151.7349  136.7637  154.1545 H   0  0  0  0  0  0  0  0  0  0  0  0
  150.0164  136.6688  154.4680 H   0  0  0  0  0  0  0  0  0  0  0  0
  151.6034  139.1576  153.6666 H   0  0  0  0  0  0  0  0  0  0  0  0
  150.4741  138.2797  152.6622 H   0  0  0  0  0  0  0  0  0  0  0  0
  149.3932  140.3013  153.6171 H   0  0  0  0  0  0  0  0  0  0  0  0
  148.6042  138.8522  154.2135 H   0  0  0  0  0  0  0  0  0  0  0  0
  150.7643  140.4643  155.6418 H   0  0  0  0  0  0  0  0  0  0  0  0
  149.0741  140.4260  156.0696 H   0  0  0  0  0  0  0  0  0  0  0  0
  149.1954  138.0656  156.6754 H   0  0  0  0  0  0  0  0  0  0  0  0
  152.1097  140.0849  157.2595 H   0  0  0  0  0  0  0  0  0  0  0  0
  151.2252  140.9528  159.8794 H   0  0  0  0  0  0  0  0  0  0  0  0
  152.4367  139.6946  159.9623 H   0  0  0  0  0  0  0  0  0  0  0  0
  154.0093  141.3498  159.7364 H   0  0  0  0  0  0  0  0  0  0  0  0
  153.5433  141.4332  158.0552 H   0  0  0  0  0  0  0  0  0  0  0  0
  152.8260  143.5244  157.1789 H   0  0  0  0  0  0  0  0  0  0  0  0
  152.0134  145.8588  157.6041 H   0  0  0  0  0  0  0  0  0  0  0  0
  151.4298  146.5175  159.9528 H   0  0  0  0  0  0  0  0  0  0  0  0
  152.3913  142.7743  161.4120 H   0  0  0  0  0  0  0  0  0  0  0  0
  1  2  1  0  0  0  0
  1 22  1  0  0  0  0
  1 23  1  0  0  0  0
  1 24  1  0  0  0  0
  2  3  2  0  0  0  0
  2  4  2  0  0  0  0
  2  5  1  0  0  0  0
  5 10  1  0  0  0  0
  5  6  1  0  0  0  0
  6  7  1  0  0  0  0
  6 25  1  0  0  0  0
  6 26  1  0  0  0  0
  7  8  1  0  0  0  0
  7 27  1  0  0  0  0
  7 28  1  0  0  0  0
  8  9  1  0  0  0  0
  8 29  1  0  0  0  0
  8 30  1  0  0  0  0
  9 10  1  0  0  0  0
  9 31  1  0  0  0  0
  9 32  1  0  0  0  0
 10 11  1  0  0  0  0
 10 33  1  0  0  0  0
 11 12  2  0  0  0  0
 11 13  1  0  0  0  0
 13 14  1  0  0  0  0
 13 34  1  0  0  0  0
 14 15  1  0  0  0  0
 14 35  1  0  0  0  0
 14 36  1  0  0  0  0
 15 16  1  0  0  0  0
 15 37  1  0  0  0  0
 15 38  1  0  0  0  0
 16 21  1  0  0  0  0
 16 17  2  0  0  0  0
 17 18  1  0  0  0  0
 17 39  1  0  0  0  0
 18 19  2  0  0  0  0
 18 40  1  0  0  0  0
 19 20  1  0  0  0  0
 19 41  1  0  0  0  0
 20 21  2  0  0  0  0
 21 42  1  0  0  0  0
M  END
> <s_m_source_file>
AV-unprocessed.smi

> <i_m_source_file_index>
2136

> <i_lp_mmshare_version>
43012

> <i_f3d_flags>
0

> <s_epik_input>
W0NIM11TKD1PKSg9TylOMVtDSDJdW0NIMl1bQ0gyXVtDSDJdW0NASF0xQyg9TylbTkhdW0NIMl1bQ0gyXWMyW2NIXVtjSF1bY0hdbltjSF0y

> <s_epik_cmdline>
J2VwaWtfcHl0aG9uJywgJy1waCcsICc3LjAnLCAnLXRuJywgJzgnLCAnLW1hJywgJzIwMCcsICctbWV0YWxfYmluZGluZycsICctaW1hZScsICc8aW5maWxlLm1hZT4nLCAnLW9tYWUnLCAnPG91dGZpbGUubWFlPic=

> <r_epik_Ionization_Penalty>
0.0126915

> <r_epik_Ionization_Penalty_Charging>
0

> <r_epik_Ionization_Penalty_Neutral>
0.0126915

> <r_epik_State_Penalty>
0.0098379

> <r_epik_Charging_Adjusted_Penalty>
0.0098379

> <i_epik_Tot_Q>
0

> <i_epik_Tot_abs_Q>
0

> <r_epik_Metal_State_Penalty>
0.00962913

> <b_epik_Metal_Only>
0

> <s_lp_Force_Field>
OPLS_2005

> <r_lp_Energy>
2.71494

> <b_lp_Chiralities_Consistent>
1

> <s_lp_Variant>
AV-unprocessed.smi:2136-2

> <Gold.Version>
5.8.1

> <Gold.Id.Protein>
6NUR|6NUR_protein|mol2

> <Gold.PLP.Fitness>
43.5370

> <Gold.PLP.PLP>
-40.2786

> <Gold.PLP.part.hbond>
-3.2172

> <Gold.PLP.part.metal>
0.0000

> <Gold.PLP.part.buried>
-3.9694

> <Gold.PLP.part.nonpolar>
-32.7850

> <Gold.PLP.part.repulsive>
0.2804

> <Gold.PLP.ligand.clash>
0.0000

> <Gold.PLP.ligand.torsion>
1.1579

> <Gold.PLP.Chemscore.Hbond>
1.6080

> <Gold.PLP.Chemscore.CHOScore>
0.0000

> <Gold.PLP.Chemscore.Metal>
0.0000

> <Gold.Chemscore.Hbonds>
donor molecule, donor type, donor heavy atom, donor atom, acceptor molecule, acceptor atom, score
      P1  H  6896  6907       L1     3  0.64
      P1  H 10752 10764       L1     4  1.00

> <Gold.PLP.Chemscore.Internal.Correction>
0.7502

> <Gold.Rescore>
     Score         DG    S(hbond)    S(metal)    S(lipo)     H(rot)  DE(clash)    DE(int)     intcor
     15.49     -19.47       1.62        0.00     113.49       1.84       0.24       3.74       ----

> <Gold.Chemscore.Fitness>
15.4870

> <Gold.Chemscore.DG>
-19.4695

> <Gold.Chemscore.ZeroCoef>
-5.4800

> <Gold.Chemscore.Hbond>
1.6248

> <Gold.Chemscore.Metal>
0.0000

> <Gold.Chemscore.Lipo>
113.4872

> <Gold.Chemscore.Internal_Hbond>
0.0000

> <Gold.Chemscore.DEClash>
0.2439

> <Gold.Chemscore.DEInternal>
3.7386

> <Gold.Chemscore.Rot>
1.8419

> <Gold.Chemscore.Internal.Correction>
   9.000000E+99

> <Gold.Chemscore.Hbonds>
donor molecule, donor type, donor heavy atom, donor atom, acceptor molecule, acceptor atom, score
      P1  H  6896  6907       L1     3  0.62
      P1  H 10752 10764       L1     4  0.94

> <Gold.Chemscore.Hbond.Weighted>
-5.4268

> <Gold.Chemscore.Metal.Weighted>
-0.0000

> <Gold.Chemscore.Lipo.Weighted>
-13.2780

> <Gold.Chemscore.Internal_Hbond.Weighted>
0.0000

> <Gold.Chemscore.DEClash.Weighted>
0.2439

> <Gold.Chemscore.DEInternal.Weighted>
3.7386

> <Gold.Chemscore.Rot.Weighted>
4.7153

> <Gold.Chemscore.Internal.Correction.Weighted>
   9.000000E+99

> <Gold.Protein.RotatedTorsions>
[ 6907 6896 6895 6894 ] final  -26.74 input  -60.11 | X-H torsion
[ 7974 7965 7964 7962 ] final -102.49 input  175.53 | X-H torsion
[ 8008 7997 7996 7995 ] final   51.34 input   59.86 | X-H torsion
[ 10167 10162 10161 10158 ] final -105.13 input  -65.29 | X-H torsion
[ 10718 10713 10712 10709 ] final  157.27 input   66.30 | X-H torsion
[ 10763 10752 10751 10750 ] final   15.53 input  -60.55 | X-H torsion
[ 11005 11000 10999 10996 ] final -142.42 input  -57.11 | X-H torsion

> <Gold.Protein.ActiveResidues>
 VAL166  LYS551  ARG553  GLY616  TRP617  ASP618  TYR619  PRO620  LYS621  CYS622 
 ASP623  PHE694  ASN695  SER759  ASP760  ASP761  ALA762  ILE779  LEU786  VAL792 
 PHE793  MET794  SER795  GLU796  ALA797  LYS798  CYS799  TRP800  GLU811  SER814 

> <Gold.Protein.RotatedAtoms>
  151.1568  135.0254  159.8692 H   0  0  0  0  0  0  0  0  0  0  0  0  # atno 6907 bound_to 6896
  152.5452  134.1325  159.8455 H   0  0  0  0  0  0  0  0  0  0  0  0  # atno 6908 bound_to 6896
  151.1416  133.4921  159.2629 H   0  0  0  0  0  0  0  0  0  0  0  0  # atno 6909 bound_to 6896
  145.2680  140.9290  143.3002 H   0  0  0  0  0  0  0  0  0  0  0  0  # atno 7974 bound_to 7965
  155.4337  140.3451  155.4283 H   0  0  0  0  0  0  0  0  0  0  0  0  # atno 8008 bound_to 7997
  156.1321  140.1517  156.9081 H   0  0  0  0  0  0  0  0  0  0  0  0  # atno 8009 bound_to 7997
  154.4902  140.0843  156.7558 H   0  0  0  0  0  0  0  0  0  0  0  0  # atno 8010 bound_to 7997
  140.2018  143.3812  152.1123 H   0  0  0  0  0  0  0  0  0  0  0  0  # atno 10167 bound_to 10162
  157.1938  131.0660  151.2064 H   0  0  0  0  0  0  0  0  0  0  0  0  # atno 10718 bound_to 10713
  153.1516  135.6779  153.8873 H   0  0  0  0  0  0  0  0  0  0  0  0  # atno 10763 bound_to 10752
  153.8298  135.3119  155.3419 H   0  0  0  0  0  0  0  0  0  0  0  0  # atno 10764 bound_to 10752
  154.7867  135.4858  154.0047 H   0  0  0  0  0  0  0  0  0  0  0  0  # atno 10765 bound_to 10752
  140.8226  134.2612  157.4893 H   0  0  0  0  0  0  0  0  0  0  0  0  # atno 11005 bound_to 11000
  144.9360  139.4244  143.6472 LP  0  0  0  0  0  0  0  0  0  0  0  0  # atno 17320 bound_to 7965
  146.3255  139.8295  142.8911 LP  0  0  0  0  0  0  0  0  0  0  0  0  # atno 17321 bound_to 7965
  139.5214  144.7045  151.5394 LP  0  0  0  0  0  0  0  0  0  0  0  0  # atno 17342 bound_to 10162
  140.6385  143.8937  150.6669 LP  0  0  0  0  0  0  0  0  0  0  0  0  # atno 17343 bound_to 10162
  157.3834  130.7243  149.6646 LP  0  0  0  0  0  0  0  0  0  0  0  0  # atno 17370 bound_to 10713
  155.9708  130.4166  150.4239 LP  0  0  0  0  0  0  0  0  0  0  0  0  # atno 17371 bound_to 10713
  139.8708  134.9544  156.4173 LP  0  0  0  0  0  0  0  0  0  0  0  0  # atno 17394 bound_to 11000
  140.9082  133.7730  155.9760 LP  0  0  0  0  0  0  0  0  0  0  0  0  # atno 17395 bound_to 11000

$$$$
