AV-unprocessed.smi:2351|AV-procd|sdf|9374|dock1
  -GOLD-   2272013 03D 1   1.00000     0.00000
 Structure written by MMmdl.
 47 49  0  0  0  0  0  0  0  0  2 V2000
  147.7864  129.8782  154.7192 O   0  0  0  0  0  0  0  0  0  0  0  0
  148.0896  130.1659  153.5611 C   0  0  0  0  0  0  0  0  0  0  0  0
  148.3481  129.2757  152.5893 N   0  0  0  0  0  0  0  0  0  0  0  0
  148.3432  127.8620  152.7071 C   0  0  0  0  0  0  0  0  0  0  0  0
  148.4504  127.2989  153.9954 C   0  0  0  0  0  0  0  0  0  0  0  0
  148.4240  125.8959  154.1250 C   0  0  0  0  0  0  0  0  0  0  0  0
  148.2856  125.0563  153.0772 N   0  0  0  0  0  0  0  0  0  0  0  0
  148.1571  125.5990  151.8474 C   0  0  0  0  0  0  0  0  0  0  0  0
  148.1686  126.9878  151.6058 C   0  0  0  0  0  0  0  0  0  0  0  0
  147.9838  127.4529  150.3467 F   0  0  0  0  0  0  0  0  0  0  0  0
  148.1826  131.4257  153.1109 N   0  0  0  0  0  0  0  0  0  0  0  0
  147.9591  132.6217  153.9180 C   0  0  2  0  0  0  0  0  0  0  0  0
  146.9688  133.5563  153.2059 C   0  0  0  0  0  0  0  0  0  0  0  0
  146.7786  134.8659  153.9894 C   0  0  0  0  0  0  0  0  0  0  0  0
  148.0763  135.5558  154.2083 N   0  3  1  0  0  0  0  0  0  0  0  0
  147.9055  136.8897  154.8392 C   0  0  0  0  0  0  0  0  0  0  0  0
  149.2487  137.6042  155.0881 C   0  0  2  0  0  0  0  0  0  0  0  0
  149.3478  138.2551  156.4530 C   0  0  0  0  0  0  0  0  0  0  0  0
  150.4904  139.2457  156.2491 C   0  0  0  0  0  0  0  0  0  0  0  0
  150.4234  139.6372  154.8808 O   0  0  0  0  0  0  0  0  0  0  0  0
  149.5023  138.8082  154.1791 C   0  0  0  0  0  0  0  0  0  0  0  0
  149.0399  134.6836  154.9311 C   0  0  0  0  0  0  0  0  0  0  0  0
  149.2809  133.3706  154.1688 C   0  0  0  0  0  0  0  0  0  0  0  0
  148.4551  129.6409  151.6544 H   0  0  0  0  0  0  0  0  0  0  0  0
  148.5615  127.9250  154.8688 H   0  0  0  0  0  0  0  0  0  0  0  0
  148.5145  125.4357  155.0980 H   0  0  0  0  0  0  0  0  0  0  0  0
  148.0267  124.9044  151.0308 H   0  0  0  0  0  0  0  0  0  0  0  0
  148.4293  131.5674  152.1421 H   0  0  0  0  0  0  0  0  0  0  0  0
  147.5261  132.3295  154.8769 H   0  0  0  0  0  0  0  0  0  0  0  0
  147.3289  133.7849  152.2015 H   0  0  0  0  0  0  0  0  0  0  0  0
  146.0063  133.0581  153.0829 H   0  0  0  0  0  0  0  0  0  0  0  0
  146.1037  135.5171  153.4327 H   0  0  0  0  0  0  0  0  0  0  0  0
  146.3041  134.6651  154.9513 H   0  0  0  0  0  0  0  0  0  0  0  0
  147.2944  137.5236  154.1948 H   0  0  0  0  0  0  0  0  0  0  0  0
  147.3501  136.7826  155.7722 H   0  0  0  0  0  0  0  0  0  0  0  0
  150.0808  136.9063  154.9925 H   0  0  0  0  0  0  0  0  0  0  0  0
  148.4280  138.7923  156.6894 H   0  0  0  0  0  0  0  0  0  0  0  0
  149.5428  137.5431  157.2557 H   0  0  0  0  0  0  0  0  0  0  0  0
  150.4197  140.1061  156.9150 H   0  0  0  0  0  0  0  0  0  0  0  0
  151.4513  138.7601  156.4236 H   0  0  0  0  0  0  0  0  0  0  0  0
  149.8935  138.5192  153.2032 H   0  0  0  0  0  0  0  0  0  0  0  0
  148.5841  139.3754  154.0197 H   0  0  0  0  0  0  0  0  0  0  0  0
  149.9937  135.1935  155.0598 H   0  0  0  0  0  0  0  0  0  0  0  0
  148.6605  134.4699  155.9315 H   0  0  0  0  0  0  0  0  0  0  0  0
  149.9701  132.7426  154.7348 H   0  0  0  0  0  0  0  0  0  0  0  0
  149.7714  133.5878  153.2186 H   0  0  0  0  0  0  0  0  0  0  0  0
  148.4616  135.7228  153.2896 H   0  0  0  0  0  0  0  0  0  0  0  0
  1  2  2  0  0  0  0
  2  3  1  0  0  0  0
  2 11  1  0  0  0  0
  3  4  1  0  0  0  0
  3 24  1  0  0  0  0
  4  9  1  0  0  0  0
  4  5  2  0  0  0  0
  5  6  1  0  0  0  0
  5 25  1  0  0  0  0
  6  7  2  0  0  0  0
  6 26  1  0  0  0  0
  7  8  1  0  0  0  0
  8  9  2  0  0  0  0
  8 27  1  0  0  0  0
  9 10  1  0  0  0  0
 11 12  1  0  0  0  0
 11 28  1  0  0  0  0
 12 23  1  0  0  0  0
 12 13  1  0  0  0  0
 12 29  1  0  0  0  0
 13 14  1  0  0  0  0
 13 30  1  0  0  0  0
 13 31  1  0  0  0  0
 14 15  1  0  0  0  0
 14 32  1  0  0  0  0
 14 33  1  0  0  0  0
 15 16  1  0  0  0  0
 15 22  1  0  0  0  0
 15 47  1  0  0  0  0
 16 17  1  0  0  0  0
 16 34  1  0  0  0  0
 16 35  1  0  0  0  0
 17 21  1  0  0  0  0
 17 18  1  0  0  0  0
 17 36  1  0  0  0  0
 18 19  1  0  0  0  0
 18 37  1  0  0  0  0
 18 38  1  0  0  0  0
 19 20  1  0  0  0  0
 19 39  1  0  0  0  0
 19 40  1  0  0  0  0
 20 21  1  0  0  0  0
 21 41  1  0  0  0  0
 21 42  1  0  0  0  0
 22 23  1  0  0  0  0
 22 43  1  0  0  0  0
 22 44  1  0  0  0  0
 23 45  1  0  0  0  0
 23 46  1  0  0  0  0
M  CHG  1  15   1
M  END
> <s_m_source_file>
AV-unprocessed.smi

> <i_m_source_file_index>
2351

> <i_lp_mmshare_version>
43012

> <i_f3d_flags>
0

> <s_epik_input>
RmMxW2NIXW5bY0hdW2NIXWMxW05IXUMoPU8pW05IXVtDSF0yW0NIMl1bQ0gyXU4oW0NIMl1bQ0gyXTIpW0NIMl1bQ0BASF0zW0NIMl1bQ0gyXU9bQ0gyXTM=

> <s_epik_cmdline>
J2VwaWtfcHl0aG9uJywgJy1waCcsICc3LjAnLCAnLXRuJywgJzgnLCAnLW1hJywgJzIwMCcsICctbWV0YWxfYmluZGluZycsICctaW1hZScsICc8aW5maWxlLm1hZT4nLCAnLW9tYWUnLCAnPG91dGZpbGUubWFlPic=

> <r_epik_Ionization_Penalty>
0.0102464

> <r_epik_Ionization_Penalty_Charging>
0.00747775

> <r_epik_Ionization_Penalty_Neutral>
0.00276864

> <r_epik_State_Penalty>
0.00558817

> <r_epik_Charging_Adjusted_Penalty>
0.0130659

> <i_epik_Tot_Q>
1

> <i_epik_Tot_abs_Q>
1

> <r_epik_Metal_State_Penalty>
-0

> <b_epik_Metal_Only>
0

> <s_lp_Force_Field>
OPLS_2005

> <r_lp_Energy>
40.2239

> <b_lp_Chiralities_Consistent>
1

> <s_lp_Variant>
AV-unprocessed.smi:2351-1

> <Gold.Version>
5.8.1

> <Gold.Id.Protein>
6NUR|6NUR_protein|mol2

> <Gold.PLP.Fitness>
45.7417

> <Gold.PLP.PLP>
-32.7291

> <Gold.PLP.part.hbond>
-4.0000

> <Gold.PLP.part.metal>
0.0000

> <Gold.PLP.part.buried>
-3.5170

> <Gold.PLP.part.nonpolar>
-24.1350

> <Gold.PLP.part.repulsive>
0.2011

> <Gold.PLP.ligand.clash>
0.0000

> <Gold.PLP.ligand.torsion>
0.8601

> <Gold.PLP.Chemscore.Hbond>
4.8544

> <Gold.PLP.Chemscore.CHOScore>
0.0000

> <Gold.PLP.Chemscore.Metal>
0.0000

> <Gold.Chemscore.Hbonds>
donor molecule, donor type, donor heavy atom, donor atom, acceptor molecule, acceptor atom, score
      L1  H     3    24       P1 10747  1.00
      L1  H    11    28       P1 10747  0.93
      L1  H    15    47       P1  7948  2.00
      P1  H  7989  7998       L1    20  0.55

> <Gold.PLP.Chemscore.Internal.Correction>
0.1696

> <Gold.Rescore>
     Score         DG    S(hbond)    S(metal)    S(lipo)     H(rot)  DE(clash)    DE(int)     intcor
     18.50     -21.32       3.19        0.00      76.16       1.45       0.63       2.19       ----

> <Gold.Chemscore.Fitness>
18.5042

> <Gold.Chemscore.DG>
-21.3249

> <Gold.Chemscore.ZeroCoef>
-5.4800

> <Gold.Chemscore.Hbond>
3.1863

> <Gold.Chemscore.Metal>
0.0000

> <Gold.Chemscore.Lipo>
76.1569

> <Gold.Chemscore.Internal_Hbond>
0.0000

> <Gold.Chemscore.DEClash>
0.6335

> <Gold.Chemscore.DEInternal>
2.1872

> <Gold.Chemscore.Rot>
1.4483

> <Gold.Chemscore.Internal.Correction>
   9.000000E+99

> <Gold.Chemscore.Hbonds>
donor molecule, donor type, donor heavy atom, donor atom, acceptor molecule, acceptor atom, score
      L1  H     3    24       P1 10747  0.30
      L1  H    11    28       P1 10747  0.84
      L1  H    15    47       P1  7948  0.97
      P1  H  7989  7998       L1    20  0.42

> <Gold.Chemscore.Hbond.Weighted>
-10.6423

> <Gold.Chemscore.Metal.Weighted>
-0.0000

> <Gold.Chemscore.Lipo.Weighted>
-8.9104

> <Gold.Chemscore.Internal_Hbond.Weighted>
0.0000

> <Gold.Chemscore.DEClash.Weighted>
0.6335

> <Gold.Chemscore.DEInternal.Weighted>
2.1872

> <Gold.Chemscore.Rot.Weighted>
3.7077

> <Gold.Chemscore.Internal.Correction.Weighted>
   9.000000E+99

> <Gold.Protein.RotatedTorsions>
[ 6907 6896 6895 6894 ] final  -76.11 input  -60.11 | X-H torsion
[ 7974 7965 7964 7962 ] final -122.54 input  175.53 | X-H torsion
[ 8008 7997 7996 7995 ] final   71.40 input   59.86 | X-H torsion
[ 10167 10162 10161 10158 ] final   31.28 input  -65.29 | X-H torsion
[ 10718 10713 10712 10709 ] final  111.38 input   66.30 | X-H torsion
[ 10763 10752 10751 10750 ] final   79.01 input  -60.55 | X-H torsion
[ 11005 11000 10999 10996 ] final  -14.85 input  -57.11 | X-H torsion

> <Gold.Protein.ActiveResidues>
 VAL166  LYS551  ARG553  GLY616  TRP617  ASP618  TYR619  PRO620  LYS621  CYS622 
 ASP623  PHE694  ASN695  SER759  ASP760  ASP761  ALA762  ILE779  LEU786  VAL792 
 PHE793  MET794  SER795  GLU796  ALA797  LYS798  CYS799  TRP800  GLU811  SER814 

> <Gold.Protein.RotatedAtoms>
  150.7037  134.4621  159.5385 H   0  0  0  0  0  0  0  0  0  0  0  0  # atno 6907 bound_to 6896
  152.2294  134.8334  160.0485 H   0  0  0  0  0  0  0  0  0  0  0  0  # atno 6908 bound_to 6896
  151.9156  133.3537  159.3915 H   0  0  0  0  0  0  0  0  0  0  0  0  # atno 6909 bound_to 6896
  145.0284  140.8047  143.4338 H   0  0  0  0  0  0  0  0  0  0  0  0  # atno 7974 bound_to 7965
  155.7533  140.3488  155.5161 H   0  0  0  0  0  0  0  0  0  0  0  0  # atno 8008 bound_to 7997
  155.8984  140.1030  157.1389 H   0  0  0  0  0  0  0  0  0  0  0  0  # atno 8009 bound_to 7997
  154.4041  140.1291  156.4391 H   0  0  0  0  0  0  0  0  0  0  0  0  # atno 8010 bound_to 7997
  140.4603  144.0917  150.6211 H   0  0  0  0  0  0  0  0  0  0  0  0  # atno 10167 bound_to 10162
  157.6447  131.0949  150.6740 H   0  0  0  0  0  0  0  0  0  0  0  0  # atno 10718 bound_to 10713
  153.0919  135.4856  154.8705 H   0  0  0  0  0  0  0  0  0  0  0  0  # atno 10763 bound_to 10752
  154.7279  135.3053  154.8943 H   0  0  0  0  0  0  0  0  0  0  0  0  # atno 10764 bound_to 10752
  153.9587  135.6815  153.4798 H   0  0  0  0  0  0  0  0  0  0  0  0  # atno 10765 bound_to 10752
  140.7906  133.8291  155.9376 H   0  0  0  0  0  0  0  0  0  0  0  0  # atno 11005 bound_to 11000
  145.1803  139.2355  143.5296 LP  0  0  0  0  0  0  0  0  0  0  0  0  # atno 17320 bound_to 7965
  146.3495  140.1575  142.8591 LP  0  0  0  0  0  0  0  0  0  0  0  0  # atno 17321 bound_to 7965
  140.4102  143.2661  151.9842 LP  0  0  0  0  0  0  0  0  0  0  0  0  # atno 17342 bound_to 10162
  139.4805  144.5922  151.7751 LP  0  0  0  0  0  0  0  0  0  0  0  0  # atno 17343 bound_to 10162
  156.7058  130.4637  149.5560 LP  0  0  0  0  0  0  0  0  0  0  0  0  # atno 17370 bound_to 10713
  156.1763  130.6470  151.0898 LP  0  0  0  0  0  0  0  0  0  0  0  0  # atno 17371 bound_to 10713
  140.9393  134.1921  157.4809 LP  0  0  0  0  0  0  0  0  0  0  0  0  # atno 17394 bound_to 11000
  139.8731  134.9865  156.5328 LP  0  0  0  0  0  0  0  0  0  0  0  0  # atno 17395 bound_to 11000

$$$$
