AV-unprocessed.smi:291|AV-procd|sdf|2248|dock1
  -GOLD-   2262022133D 1   1.00000     0.00000
 Structure written by MMmdl.
 35 36  0  0  0  0  0  0  0  0  1 V2000
  153.8970  141.5752  162.2789 C   0  0  0  0  0  0  0  0  0  0  0  0
  153.5808  142.7228  161.3094 C   0  0  2  0  0  0  0  0  0  0  0  0
  152.1785  143.3066  161.5674 C   0  0  0  0  0  0  0  0  0  0  0  0
  151.8531  144.4536  160.5938 C   0  0  0  0  0  0  0  0  0  0  0  0
  152.0028  144.0290  159.1208 C   0  0  2  0  0  0  0  0  0  0  0  0
  150.9431  143.0903  158.7607 N   0  0  0  0  0  0  0  0  0  0  0  0
  150.7071  142.6023  157.5325 C   0  0  0  0  0  0  0  0  0  0  0  0
  151.3801  142.8939  156.5444 O   0  0  0  0  0  0  0  0  0  0  0  0
  149.5383  141.6231  157.3992 C   0  0  0  0  0  0  0  0  0  0  0  0
  149.7118  140.7348  156.2628 N   0  0  0  0  0  0  0  0  0  0  0  0
  149.0410  140.6598  155.1084 C   0  0  0  0  0  0  0  0  0  0  0  0
  149.4724  139.7035  154.2950 N   0  0  0  0  0  0  0  0  0  0  0  0
  150.4769  139.2025  155.0712 C   0  0  0  0  0  0  0  0  0  0  0  0
  151.2974  138.0891  154.6258 C   0  0  0  0  0  0  0  0  0  0  0  0
  151.9509  137.2022  154.2714 N   0  0  0  0  0  0  0  0  0  0  0  0
  150.6703  139.7758  156.2570 N   0  0  0  0  0  0  0  0  0  0  0  0
  153.3957  143.4184  158.8643 C   0  0  0  0  0  0  0  0  0  0  0  0
  153.7168  142.2734  159.8417 C   0  0  0  0  0  0  0  0  0  0  0  0
  153.2039  140.7436  162.1488 H   0  0  0  0  0  0  0  0  0  0  0  0
  153.8288  141.9067  163.3154 H   0  0  0  0  0  0  0  0  0  0  0  0
  154.9066  141.1952  162.1209 H   0  0  0  0  0  0  0  0  0  0  0  0
  154.3110  143.5136  161.4877 H   0  0  0  0  0  0  0  0  0  0  0  0
  151.4276  142.5206  161.4745 H   0  0  0  0  0  0  0  0  0  0  0  0
  152.1113  143.6723  162.5926 H   0  0  0  0  0  0  0  0  0  0  0  0
  150.8443  144.8253  160.7785 H   0  0  0  0  0  0  0  0  0  0  0  0
  152.5244  145.2898  160.7934 H   0  0  0  0  0  0  0  0  0  0  0  0
  151.8966  144.9239  158.5049 H   0  0  0  0  0  0  0  0  0  0  0  0
  150.3366  142.7874  159.5093 H   0  0  0  0  0  0  0  0  0  0  0  0
  149.4505  141.0186  158.3028 H   0  0  0  0  0  0  0  0  0  0  0  0
  148.6050  142.1779  157.2900 H   0  0  0  0  0  0  0  0  0  0  0  0
  148.2182  141.3146  154.8614 H   0  0  0  0  0  0  0  0  0  0  0  0
  153.4719  143.0638  157.8356 H   0  0  0  0  0  0  0  0  0  0  0  0
  154.1511  144.1979  158.9702 H   0  0  0  0  0  0  0  0  0  0  0  0
  154.7283  141.9108  159.6558 H   0  0  0  0  0  0  0  0  0  0  0  0
  153.0507  141.4311  159.6503 H   0  0  0  0  0  0  0  0  0  0  0  0
  1  2  1  0  0  0  0
  1 19  1  0  0  0  0
  1 20  1  0  0  0  0
  1 21  1  0  0  0  0
  2 18  1  0  0  0  0
  2  3  1  0  0  0  0
  2 22  1  0  0  0  0
  3  4  1  0  0  0  0
  3 23  1  0  0  0  0
  3 24  1  0  0  0  0
  4  5  1  0  0  0  0
  4 25  1  0  0  0  0
  4 26  1  0  0  0  0
  5  6  1  0  0  0  0
  5 17  1  0  0  0  0
  5 27  1  0  0  0  0
  6  7  1  0  0  0  0
  6 28  1  0  0  0  0
  7  8  2  0  0  0  0
  7  9  1  0  0  0  0
  9 10  1  0  0  0  0
  9 29  1  0  0  0  0
  9 30  1  0  0  0  0
 10 16  1  0  0  0  0
 10 11  1  0  0  0  0
 11 12  2  0  0  0  0
 11 31  1  0  0  0  0
 12 13  1  0  0  0  0
 13 14  1  0  0  0  0
 13 16  2  0  0  0  0
 14 15  3  0  0  0  0
 17 18  1  0  0  0  0
 17 32  1  0  0  0  0
 17 33  1  0  0  0  0
 18 34  1  0  0  0  0
 18 35  1  0  0  0  0
M  END
> <s_m_source_file>
AV-unprocessed.smi

> <i_m_source_file_index>
291

> <i_lp_mmshare_version>
43012

> <i_f3d_flags>
0

> <s_epik_input>
W0NIM11bQ0BASF0xW0NIMl1bQ0gyXVtDQEhdKFtDSDJdW0NIMl0xKVtOSF1DKD1PKVtDSDJdbjJbY0hdbmMobjIpQyNO

> <s_epik_cmdline>
J2VwaWtfcHl0aG9uJywgJy1waCcsICc3LjAnLCAnLXRuJywgJzgnLCAnLW1hJywgJzIwMCcsICctbWV0YWxfYmluZGluZycsICctaW1hZScsICc8aW5maWxlLm1hZT4nLCAnLW9tYWUnLCAnPG91dGZpbGUubWFlPic=

> <r_lp_tautomer_probability>
1

> <r_epik_Ionization_Penalty>
5.31112e-08

> <r_epik_Ionization_Penalty_Charging>
0

> <r_epik_Ionization_Penalty_Neutral>
5.31112e-08

> <r_epik_State_Penalty>
-0

> <r_epik_Charging_Adjusted_Penalty>
0

> <i_epik_Tot_Q>
0

> <i_epik_Tot_abs_Q>
0

> <r_epik_Metal_State_Penalty>
-0

> <b_epik_Metal_Only>
0

> <s_lp_Force_Field>
OPLS_2005

> <r_lp_Energy>
11.449

> <b_lp_Chiralities_Consistent>
1

> <s_lp_Variant>
AV-unprocessed.smi:291-2

> <Gold.Version>
5.8.1

> <Gold.Id.Protein>
6NUR|6NUR_protein|mol2

> <Gold.PLP.Fitness>
36.9424

> <Gold.PLP.PLP>
-35.0427

> <Gold.PLP.part.hbond>
-1.0000

> <Gold.PLP.part.metal>
0.0000

> <Gold.PLP.part.buried>
-4.7287

> <Gold.PLP.part.nonpolar>
-29.9833

> <Gold.PLP.part.repulsive>
1.0020

> <Gold.PLP.ligand.clash>
0.0000

> <Gold.PLP.ligand.torsion>
0.4472

> <Gold.PLP.Chemscore.Hbond>
0.9280

> <Gold.PLP.Chemscore.CHOScore>
0.0000

> <Gold.PLP.Chemscore.Metal>
0.0000

> <Gold.Chemscore.Hbonds>
donor molecule, donor type, donor heavy atom, donor atom, acceptor molecule, acceptor atom, score
      P1  H 10752 10764       L1    15  0.99

> <Gold.PLP.Chemscore.Internal.Correction>
0.0102

> <Gold.Rescore>
     Score         DG    S(hbond)    S(metal)    S(lipo)     H(rot)  DE(clash)    DE(int)     intcor
     13.01     -13.54       0.94        0.00      84.65       1.95       0.03       0.50       ----

> <Gold.Chemscore.Fitness>
13.0082

> <Gold.Chemscore.DG>
-13.5409

> <Gold.Chemscore.ZeroCoef>
-5.4800

> <Gold.Chemscore.Hbond>
0.9407

> <Gold.Chemscore.Metal>
0.0000

> <Gold.Chemscore.Lipo>
84.6519

> <Gold.Chemscore.Internal_Hbond>
0.0000

> <Gold.Chemscore.DEClash>
0.0345

> <Gold.Chemscore.DEInternal>
0.4982

> <Gold.Chemscore.Rot>
1.9474

> <Gold.Chemscore.Internal.Correction>
   9.000000E+99

> <Gold.Chemscore.Hbonds>
donor molecule, donor type, donor heavy atom, donor atom, acceptor molecule, acceptor atom, score
      P1  H 10752 10764       L1    15  0.93

> <Gold.Chemscore.Hbond.Weighted>
-3.1419

> <Gold.Chemscore.Metal.Weighted>
-0.0000

> <Gold.Chemscore.Lipo.Weighted>
-9.9043

> <Gold.Chemscore.Internal_Hbond.Weighted>
0.0000

> <Gold.Chemscore.DEClash.Weighted>
0.0345

> <Gold.Chemscore.DEInternal.Weighted>
0.4982

> <Gold.Chemscore.Rot.Weighted>
4.9852

> <Gold.Chemscore.Internal.Correction.Weighted>
   9.000000E+99

> <Gold.Protein.RotatedTorsions>
[ 6907 6896 6895 6894 ] final  -94.28 input  -60.11 | X-H torsion
[ 7974 7965 7964 7962 ] final -127.38 input  175.53 | X-H torsion
[ 8008 7997 7996 7995 ] final   70.25 input   59.86 | X-H torsion
[ 10167 10162 10161 10158 ] final -140.54 input  -65.29 | X-H torsion
[ 10718 10713 10712 10709 ] final   15.98 input   66.30 | X-H torsion
[ 10763 10752 10751 10750 ] final  -86.66 input  -60.55 | X-H torsion
[ 11005 11000 10999 10996 ] final   68.03 input  -57.11 | X-H torsion

> <Gold.Protein.ActiveResidues>
 VAL166  LYS551  ARG553  GLY616  TRP617  ASP618  TYR619  PRO620  LYS621  CYS622 
 ASP623  PHE694  ASN695  SER759  ASP760  ASP761  ALA762  ILE779  LEU786  VAL792 
 PHE793  MET794  SER795  GLU796  ALA797  LYS798  CYS799  TRP800  GLU811  SER814 

> <Gold.Protein.RotatedAtoms>
  150.6939  134.1836  159.4257 H   0  0  0  0  0  0  0  0  0  0  0  0  # atno 6907 bound_to 6896
  151.9810  135.0026  160.0566 H   0  0  0  0  0  0  0  0  0  0  0  0  # atno 6908 bound_to 6896
  152.1755  133.4637  159.4968 H   0  0  0  0  0  0  0  0  0  0  0  0  # atno 6909 bound_to 6896
  144.9777  140.7609  143.4632 H   0  0  0  0  0  0  0  0  0  0  0  0  # atno 7974 bound_to 7965
  155.7359  140.3491  155.5081 H   0  0  0  0  0  0  0  0  0  0  0  0  # atno 8008 bound_to 7997
  155.9139  140.1055  157.1280 H   0  0  0  0  0  0  0  0  0  0  0  0  # atno 8009 bound_to 7997
  154.4060  140.1262  156.4580 H   0  0  0  0  0  0  0  0  0  0  0  0  # atno 8010 bound_to 7997
  139.8272  143.7495  152.2666 H   0  0  0  0  0  0  0  0  0  0  0  0  # atno 10167 bound_to 10162
  157.0613  130.6310  149.5786 H   0  0  0  0  0  0  0  0  0  0  0  0  # atno 10718 bound_to 10713
  154.6249  135.5441  153.7616 H   0  0  0  0  0  0  0  0  0  0  0  0  # atno 10763 bound_to 10752
  153.0256  135.6422  154.1386 H   0  0  0  0  0  0  0  0  0  0  0  0  # atno 10764 bound_to 10752
  154.1319  135.2913  155.3163 H   0  0  0  0  0  0  0  0  0  0  0  0  # atno 10765 bound_to 10752
  139.9735  134.6860  156.0399 H   0  0  0  0  0  0  0  0  0  0  0  0  # atno 11005 bound_to 11000
  145.2467  139.2049  143.4964 LP  0  0  0  0  0  0  0  0  0  0  0  0  # atno 17320 bound_to 7965
  146.3399  140.2372  142.8595 LP  0  0  0  0  0  0  0  0  0  0  0  0  # atno 17321 bound_to 7965
  139.7691  144.7482  151.0250 LP  0  0  0  0  0  0  0  0  0  0  0  0  # atno 17342 bound_to 10162
  140.7809  143.4664  151.0206 LP  0  0  0  0  0  0  0  0  0  0  0  0  # atno 17343 bound_to 10162
  155.9978  130.5050  150.7546 LP  0  0  0  0  0  0  0  0  0  0  0  0  # atno 17370 bound_to 10713
  157.4952  131.0914  151.0379 LP  0  0  0  0  0  0  0  0  0  0  0  0  # atno 17371 bound_to 10713
  141.1414  133.6564  156.3740 LP  0  0  0  0  0  0  0  0  0  0  0  0  # atno 17394 bound_to 11000
  140.5242  134.6274  157.5328 LP  0  0  0  0  0  0  0  0  0  0  0  0  # atno 17395 bound_to 11000

$$$$
