AV-unprocessed.smi:47|AV-procd|sdf|439|dock7
  -GOLD-   2262016313D 1   1.00000     0.00000
 Structure written by MMmdl.
 32 34  0  0  0  0  0  0  0  0  2 V2000
  146.4827  141.0897  152.7547 O   0  0  0  0  0  0  0  0  0  0  0  0
  147.1053  140.7230  153.9683 C   0  0  1  0  0  0  0  0  0  0  0  0
  147.7035  139.3118  153.8773 C   0  0  0  0  0  0  0  0  0  0  0  0
  148.9643  139.3734  154.6305 N   0  3  0  0  0  0  0  0  0  0  0  0
  149.5026  140.7273  154.4192 C   0  0  2  0  0  0  0  0  0  0  0  0
  150.3962  140.9935  155.5937 C   0  0  0  0  0  0  0  0  0  0  0  0
  151.3289  140.1645  156.0693 N   0  0  0  0  0  0  0  0  0  0  0  0
  151.8819  140.8209  157.1526 N   0  0  0  0  0  0  0  0  0  0  0  0
  151.2416  141.9948  157.2550 C   0  0  0  0  0  0  0  0  0  0  0  0
  151.5242  142.9985  158.2835 C   0  0  0  0  0  0  0  0  0  0  0  0
  152.2046  142.6377  159.4700 C   0  0  0  0  0  0  0  0  0  0  0  0
  152.4802  143.6040  160.4571 C   0  0  0  0  0  0  0  0  0  0  0  0
  152.0815  144.9403  160.2676 C   0  0  0  0  0  0  0  0  0  0  0  0
  151.4057  145.3098  159.0899 C   0  0  0  0  0  0  0  0  0  0  0  0
  151.1280  144.3442  158.1028 C   0  0  0  0  0  0  0  0  0  0  0  0
  150.3086  142.1311  156.2959 N   0  0  0  0  0  0  0  0  0  0  0  0
  148.2838  141.6524  154.3038 C   0  0  0  0  0  0  0  0  0  0  0  0
  146.3684  140.7623  154.7717 H   0  0  0  0  0  0  0  0  0  0  0  0
  150.0766  140.7342  153.4912 H   0  0  0  0  0  0  0  0  0  0  0  0
  149.6836  142.9103  156.1473 H   0  0  0  0  0  0  0  0  0  0  0  0
  145.5960  140.7611  152.7571 H   0  0  0  0  0  0  0  0  0  0  0  0
  147.0355  138.5423  154.2654 H   0  0  0  0  0  0  0  0  0  0  0  0
  147.9443  139.0586  152.8434 H   0  0  0  0  0  0  0  0  0  0  0  0
  148.7561  139.2695  155.6137 H   0  0  0  0  0  0  0  0  0  0  0  0
  152.5196  141.6185  159.6377 H   0  0  0  0  0  0  0  0  0  0  0  0
  152.9990  143.3200  161.3608 H   0  0  0  0  0  0  0  0  0  0  0  0
  152.2944  145.6811  161.0242 H   0  0  0  0  0  0  0  0  0  0  0  0
  151.1003  146.3353  158.9421 H   0  0  0  0  0  0  0  0  0  0  0  0
  150.6101  144.6504  157.2057 H   0  0  0  0  0  0  0  0  0  0  0  0
  148.4481  142.4350  153.5618 H   0  0  0  0  0  0  0  0  0  0  0  0
  148.0824  142.1490  155.2543 H   0  0  0  0  0  0  0  0  0  0  0  0
  149.6168  138.6593  154.3397 H   0  0  0  0  0  0  0  0  0  0  0  0
  1  2  1  0  0  0  0
  1 21  1  0  0  0  0
  2 18  1  0  0  0  0
  2 17  1  0  0  0  0
  2  3  1  0  0  0  0
  3  4  1  0  0  0  0
  3 22  1  0  0  0  0
  3 23  1  0  0  0  0
  4  5  1  0  0  0  0
  4 24  1  0  0  0  0
  4 32  1  0  0  0  0
  5 19  1  0  0  0  0
  5 17  1  0  0  0  0
  5  6  1  0  0  0  0
  6  7  2  0  0  0  0
  6 16  1  0  0  0  0
  7  8  1  0  0  0  0
  8  9  2  0  0  0  0
  9 16  1  0  0  0  0
  9 10  1  0  0  0  0
 10 15  1  0  0  0  0
 10 11  2  0  0  0  0
 11 12  1  0  0  0  0
 11 25  1  0  0  0  0
 12 13  2  0  0  0  0
 12 26  1  0  0  0  0
 13 14  1  0  0  0  0
 13 27  1  0  0  0  0
 14 15  2  0  0  0  0
 14 28  1  0  0  0  0
 15 29  1  0  0  0  0
 16 20  1  0  0  0  0
 17 30  1  0  0  0  0
 17 31  1  0  0  0  0
M  CHG  1   4   1
M  END
> <s_m_source_file>
AV-unprocessed.smi

> <i_m_source_file_index>
47

> <i_lp_mmshare_version>
43012

> <i_f3d_flags>
0

> <s_epik_input>
W09IXVtDQEhdMVtDSDJdW05IXVtDQEBIXShbQ0gyXTEpYzJuW25IXWMobjIpLWMzW2NIXVtjSF1bY0hdW2NIXVtjSF0z

> <s_epik_cmdline>
J2VwaWtfcHl0aG9uJywgJy1waCcsICc3LjAnLCAnLXRuJywgJzgnLCAnLW1hJywgJzIwMCcsICctbWV0YWxfYmluZGluZycsICctaW1hZScsICc8aW5maWxlLm1hZT4nLCAnLW9tYWUnLCAnPG91dGZpbGUubWFlPic=

> <r_lp_tautomer_probability>
0.0517155

> <r_epik_Ionization_Penalty>
2.45729

> <r_epik_Ionization_Penalty_Charging>
0.0688988

> <r_epik_Ionization_Penalty_Neutral>
2.3884

> <r_epik_State_Penalty>
2.69236

> <r_epik_Charging_Adjusted_Penalty>
2.76126

> <i_epik_Tot_Q>
1

> <i_epik_Tot_abs_Q>
1

> <r_epik_Metal_State_Penalty>
3.18974

> <b_epik_Metal_Only>
0

> <s_lp_Force_Field>
OPLS_2005

> <r_lp_Energy>
30.5648

> <b_lp_Chiralities_Consistent>
1

> <s_lp_Variant>
AV-unprocessed.smi:47-17

> <Gold.Version>
5.8.1

> <Gold.Id.Protein>
6NUR|6NUR_protein|mol2

> <Gold.PLP.Fitness>
42.0536

> <Gold.PLP.PLP>
-37.1200

> <Gold.PLP.part.hbond>
-1.9959

> <Gold.PLP.part.metal>
0.0000

> <Gold.PLP.part.buried>
-2.0616

> <Gold.PLP.part.nonpolar>
-32.1371

> <Gold.PLP.part.repulsive>
0.1360

> <Gold.PLP.ligand.clash>
0.0000

> <Gold.PLP.ligand.torsion>
0.4781

> <Gold.PLP.Chemscore.Hbond>
1.9588

> <Gold.PLP.Chemscore.CHOScore>
0.0000

> <Gold.PLP.Chemscore.Metal>
0.0000

> <Gold.Chemscore.Hbonds>
donor molecule, donor type, donor heavy atom, donor atom, acceptor molecule, acceptor atom, score
      L1  H     1    21       P1 10175  1.00
      L1  H    16    20       P1  8028  0.99

> <Gold.PLP.Chemscore.Internal.Correction>
0.0136

> <Gold.Rescore>
     Score         DG    S(hbond)    S(metal)    S(lipo)     H(rot)  DE(clash)    DE(int)     intcor
     18.19     -18.72       1.74        0.00      96.21       1.50       0.07       0.47       ----

> <Gold.Chemscore.Fitness>
18.1876

> <Gold.Chemscore.DG>
-18.7243

> <Gold.Chemscore.ZeroCoef>
-5.4800

> <Gold.Chemscore.Hbond>
1.7420

> <Gold.Chemscore.Metal>
0.0000

> <Gold.Chemscore.Lipo>
96.2148

> <Gold.Chemscore.Internal_Hbond>
0.0000

> <Gold.Chemscore.DEClash>
0.0706

> <Gold.Chemscore.DEInternal>
0.4660

> <Gold.Chemscore.Rot>
1.4966

> <Gold.Chemscore.Internal.Correction>
   9.000000E+99

> <Gold.Chemscore.Hbonds>
donor molecule, donor type, donor heavy atom, donor atom, acceptor molecule, acceptor atom, score
      L1  H     1    21       P1 10175  0.39
      L1  H    16    20       P1  8028  0.92

> <Gold.Chemscore.Hbond.Weighted>
-5.8184

> <Gold.Chemscore.Metal.Weighted>
-0.0000

> <Gold.Chemscore.Lipo.Weighted>
-11.2571

> <Gold.Chemscore.Internal_Hbond.Weighted>
0.0000

> <Gold.Chemscore.DEClash.Weighted>
0.0706

> <Gold.Chemscore.DEInternal.Weighted>
0.4660

> <Gold.Chemscore.Rot.Weighted>
3.8312

> <Gold.Chemscore.Internal.Correction.Weighted>
   9.000000E+99

> <Gold.Protein.RotatedTorsions>
[ 6907 6896 6895 6894 ] final  146.36 input  -60.11 | X-H torsion
[ 7974 7965 7964 7962 ] final  173.34 input  175.53 | X-H torsion
[ 8008 7997 7996 7995 ] final -133.20 input   59.86 | X-H torsion
[ 10167 10162 10161 10158 ] final -137.63 input  -65.29 | X-H torsion
[ 10718 10713 10712 10709 ] final  -86.53 input   66.30 | X-H torsion
[ 10763 10752 10751 10750 ] final  -42.91 input  -60.55 | X-H torsion
[ 11005 11000 10999 10996 ] final  -93.43 input  -57.11 | X-H torsion

> <Gold.Protein.ActiveResidues>
 VAL166  LYS551  ARG553  GLY616  TRP617  ASP618  TYR619  PRO620  LYS621  CYS622 
 ASP623  PHE694  ASN695  SER759  ASP760  ASP761  ALA762  ILE779  LEU786  VAL792 
 PHE793  MET794  SER795  GLU796  ALA797  LYS798  CYS799  TRP800  GLU811  SER814 

> <Gold.Protein.RotatedAtoms>
  152.1689  133.4630  159.4898 H   0  0  0  0  0  0  0  0  0  0  0  0  # atno 6907 bound_to 6896
  150.6917  134.1978  159.4319 H   0  0  0  0  0  0  0  0  0  0  0  0  # atno 6908 bound_to 6896
  151.9884  134.9991  160.0611 H   0  0  0  0  0  0  0  0  0  0  0  0  # atno 6909 bound_to 6896
  144.7246  139.9632  143.6435 H   0  0  0  0  0  0  0  0  0  0  0  0  # atno 7974 bound_to 7965
  155.3415  140.0472  157.3045 H   0  0  0  0  0  0  0  0  0  0  0  0  # atno 8008 bound_to 7997
  154.5275  140.2246  155.8829 H   0  0  0  0  0  0  0  0  0  0  0  0  # atno 8009 bound_to 7997
  156.1754  140.3086  155.9056 H   0  0  0  0  0  0  0  0  0  0  0  0  # atno 8010 bound_to 7997
  139.8558  143.7140  152.2654 H   0  0  0  0  0  0  0  0  0  0  0  0  # atno 10167 bound_to 10162
  155.9989  130.4768  150.4728 H   0  0  0  0  0  0  0  0  0  0  0  0  # atno 10718 bound_to 10713
  153.9868  135.6710  153.4752 H   0  0  0  0  0  0  0  0  0  0  0  0  # atno 10763 bound_to 10752
  153.0723  135.4967  154.8327 H   0  0  0  0  0  0  0  0  0  0  0  0  # atno 10764 bound_to 10752
  154.7132  135.3101  154.9126 H   0  0  0  0  0  0  0  0  0  0  0  0  # atno 10765 bound_to 10752
  141.1497  133.7887  157.0158 H   0  0  0  0  0  0  0  0  0  0  0  0  # atno 11005 bound_to 11000
  146.0621  139.3614  143.0575 LP  0  0  0  0  0  0  0  0  0  0  0  0  # atno 17320 bound_to 7965
  145.8079  140.9740  143.0964 LP  0  0  0  0  0  0  0  0  0  0  0  0  # atno 17321 bound_to 7965
  139.7421  144.7557  151.0637 LP  0  0  0  0  0  0  0  0  0  0  0  0  # atno 17342 bound_to 10162
  140.7781  143.4960  150.9832 LP  0  0  0  0  0  0  0  0  0  0  0  0  # atno 17343 bound_to 10162
  157.2741  131.0593  151.2240 LP  0  0  0  0  0  0  0  0  0  0  0  0  # atno 17370 bound_to 10713
  157.3310  130.6985  149.6324 LP  0  0  0  0  0  0  0  0  0  0  0  0  # atno 17371 bound_to 10713
  140.0847  134.9627  157.1682 LP  0  0  0  0  0  0  0  0  0  0  0  0  # atno 17394 bound_to 11000
  140.3527  134.2580  155.7196 LP  0  0  0  0  0  0  0  0  0  0  0  0  # atno 17395 bound_to 11000

$$$$
