AV-unprocessed.smi:252|AV-procd|sdf|1941|dock10
  -GOLD-   2262021 73D 1   1.00000     0.00000
 Structure written by MMmdl.
 56 59  0  0  0  0  0  0  0  0  1 V2000
  146.7203  128.3658  153.4949 C   0  0  0  0  0  0  0  0  0  0  0  0
  147.5658  129.6443  153.3845 C   0  0  0  0  0  0  0  0  0  0  0  0
  146.7349  130.9310  153.3473 C   0  0  0  0  0  0  0  0  0  0  0  0
  146.1406  131.3327  154.3486 O   0  0  0  0  0  0  0  0  0  0  0  0
  146.7034  131.5710  152.1684 N   0  0  0  0  0  0  0  0  0  0  0  0
  145.9771  132.8080  151.9007 C   0  0  1  0  0  0  0  0  0  0  0  0
  144.4643  132.5248  151.8502 C   0  0  0  0  0  0  0  0  0  0  0  0
  143.6782  133.8320  151.6624 C   0  0  0  0  0  0  0  0  0  0  0  0
  144.0519  134.8566  152.7456 C   0  0  0  0  0  0  0  0  0  0  0  0
  145.4958  135.0710  152.7732 N   0  0  0  0  0  0  0  0  0  0  0  0
  145.8673  136.1056  153.5560 C   0  0  0  0  0  0  0  0  0  0  0  0
  145.6307  136.0649  154.8940 N   0  0  0  0  0  0  0  0  0  0  0  0
  145.9986  137.0928  155.6657 C   0  0  0  0  0  0  0  0  0  0  0  0
  146.6031  138.2298  155.3117 N   0  0  0  0  0  0  0  0  0  0  0  0
  146.8385  138.2675  153.9685 C   0  0  0  0  0  0  0  0  0  0  0  0
  146.5035  137.2570  153.0255 C   0  0  0  0  0  0  0  0  0  0  0  0
  146.8924  137.6443  151.7493 N   0  0  0  0  0  0  0  0  0  0  0  0
  147.4278  138.8218  151.9276 C   0  0  0  0  0  0  0  0  0  0  0  0
  147.4373  139.2709  153.2291 N   0  0  0  0  0  0  0  0  0  0  0  0
  147.9637  140.5374  153.7118 C   0  0  0  0  0  0  0  0  0  0  0  0
  149.4661  140.7923  153.3718 C   0  0  1  0  0  0  0  0  0  0  0  0
  149.6749  140.9036  151.9702 O   0  0  0  0  0  0  0  0  0  0  0  0
  150.0348  142.0628  154.0239 C   0  0  0  0  0  0  0  0  0  0  0  0
  151.2959  141.6027  154.7576 C   0  0  0  0  0  0  0  0  0  0  0  0
  151.6163  140.3528  154.1721 O   0  0  0  0  0  0  0  0  0  0  0  0
  150.3893  139.6860  153.9286 C   0  0  2  0  0  0  0  0  0  0  0  0
  150.5896  138.4407  153.0495 C   0  0  0  0  0  0  0  0  0  0  0  0
  146.2913  133.8636  152.9801 C   0  0  0  0  0  0  0  0  0  0  0  0
  147.3595  127.4833  153.5264 H   0  0  0  0  0  0  0  0  0  0  0  0
  146.0505  128.2567  152.6411 H   0  0  0  0  0  0  0  0  0  0  0  0
  146.1148  128.3654  154.4020 H   0  0  0  0  0  0  0  0  0  0  0  0
  148.2541  129.6992  154.2287 H   0  0  0  0  0  0  0  0  0  0  0  0
  148.1778  129.5982  152.4829 H   0  0  0  0  0  0  0  0  0  0  0  0
  147.2175  131.1693  151.3978 H   0  0  0  0  0  0  0  0  0  0  0  0
  146.2817  133.1971  150.9270 H   0  0  0  0  0  0  0  0  0  0  0  0
  144.2347  131.8322  151.0396 H   0  0  0  0  0  0  0  0  0  0  0  0
  144.1453  132.0413  152.7749 H   0  0  0  0  0  0  0  0  0  0  0  0
  143.8933  134.2485  150.6775 H   0  0  0  0  0  0  0  0  0  0  0  0
  142.6065  133.6337  151.6886 H   0  0  0  0  0  0  0  0  0  0  0  0
  143.5403  135.8011  152.5547 H   0  0  0  0  0  0  0  0  0  0  0  0
  143.7174  134.5024  153.7220 H   0  0  0  0  0  0  0  0  0  0  0  0
  145.7771  136.9896  156.7176 H   0  0  0  0  0  0  0  0  0  0  0  0
  147.8309  139.4001  151.1092 H   0  0  0  0  0  0  0  0  0  0  0  0
  147.3277  141.3270  153.3119 H   0  0  0  0  0  0  0  0  0  0  0  0
  147.8023  140.5670  154.7900 H   0  0  0  0  0  0  0  0  0  0  0  0
  149.5048  140.0614  151.5766 H   0  0  0  0  0  0  0  0  0  0  0  0
  150.2808  142.8213  153.2789 H   0  0  0  0  0  0  0  0  0  0  0  0
  149.3495  142.5323  154.7298 H   0  0  0  0  0  0  0  0  0  0  0  0
  152.1198  142.3104  154.6646 H   0  0  0  0  0  0  0  0  0  0  0  0
  151.0902  141.4569  155.8191 H   0  0  0  0  0  0  0  0  0  0  0  0
  150.0173  139.3611  154.9024 H   0  0  0  0  0  0  0  0  0  0  0  0
  149.6363  137.9595  152.8299 H   0  0  0  0  0  0  0  0  0  0  0  0
  151.2205  137.7105  153.5564 H   0  0  0  0  0  0  0  0  0  0  0  0
  151.0706  138.6841  152.1021 H   0  0  0  0  0  0  0  0  0  0  0  0
  146.0810  133.4565  153.9703 H   0  0  0  0  0  0  0  0  0  0  0  0
  147.3521  134.1180  152.9580 H   0  0  0  0  0  0  0  0  0  0  0  0
  1  2  1  0  0  0  0
  1 29  1  0  0  0  0
  1 30  1  0  0  0  0
  1 31  1  0  0  0  0
  2  3  1  0  0  0  0
  2 32  1  0  0  0  0
  2 33  1  0  0  0  0
  3  4  2  0  0  0  0
  3  5  1  0  0  0  0
  5  6  1  0  0  0  0
  5 34  1  0  0  0  0
  6 28  1  0  0  0  0
  6  7  1  0  0  0  0
  6 35  1  0  0  0  0
  7  8  1  0  0  0  0
  7 36  1  0  0  0  0
  7 37  1  0  0  0  0
  8  9  1  0  0  0  0
  8 38  1  0  0  0  0
  8 39  1  0  0  0  0
  9 10  1  0  0  0  0
  9 40  1  0  0  0  0
  9 41  1  0  0  0  0
 10 11  1  0  0  0  0
 10 28  1  0  0  0  0
 11 16  1  0  0  0  0
 11 12  2  0  0  0  0
 12 13  1  0  0  0  0
 13 14  2  0  0  0  0
 13 42  1  0  0  0  0
 14 15  1  0  0  0  0
 15 19  1  0  0  0  0
 15 16  2  0  0  0  0
 16 17  1  0  0  0  0
 17 18  2  0  0  0  0
 18 19  1  0  0  0  0
 18 43  1  0  0  0  0
 19 20  1  0  0  0  0
 20 21  1  0  0  0  0
 20 44  1  0  0  0  0
 20 45  1  0  0  0  0
 21 26  1  0  0  0  0
 21 22  1  0  0  0  0
 21 23  1  0  0  0  0
 22 46  1  0  0  0  0
 23 24  1  0  0  0  0
 23 47  1  0  0  0  0
 23 48  1  0  0  0  0
 24 25  1  0  0  0  0
 24 49  1  0  0  0  0
 24 50  1  0  0  0  0
 25 26  1  0  0  0  0
 26 27  1  0  0  0  0
 26 51  1  0  0  0  0
 27 52  1  0  0  0  0
 27 53  1  0  0  0  0
 27 54  1  0  0  0  0
 28 55  1  0  0  0  0
 28 56  1  0  0  0  0
M  END
> <s_m_source_file>
AV-unprocessed.smi

> <i_m_source_file_index>
252

> <i_lp_mmshare_version>
43012

> <i_f3d_flags>
0

> <s_epik_input>
W0NIM11bQ0gyXUMoPU8pW05IXVtDQEBIXTFbQ0gyXVtDSDJdW0NIMl1OKFtDSDJdMSljKG5bY0hdbjIpYyhjMjMpbltjSF1uM1tDSDJdW0NAQF00KFtPSF0pW0NIMl1bQ0gyXU9bQ0BIXTRbQ0gzXQ==

> <s_epik_cmdline>
J2VwaWtfcHl0aG9uJywgJy1waCcsICc3LjAnLCAnLXRuJywgJzgnLCAnLW1hJywgJzIwMCcsICctbWV0YWxfYmluZGluZycsICctaW1hZScsICc8aW5maWxlLm1hZT4nLCAnLW9tYWUnLCAnPG91dGZpbGUubWFlPic=

> <r_lp_tautomer_probability>
1

> <r_epik_Ionization_Penalty>
0.00182575

> <r_epik_Ionization_Penalty_Charging>
0

> <r_epik_Ionization_Penalty_Neutral>
0.00182575

> <r_epik_State_Penalty>
0.00104524

> <r_epik_Charging_Adjusted_Penalty>
0.00104524

> <i_epik_Tot_Q>
0

> <i_epik_Tot_abs_Q>
0

> <r_epik_Metal_State_Penalty>
-0

> <b_epik_Metal_Only>
0

> <s_lp_Force_Field>
OPLS_2005

> <r_lp_Energy>
42.5457

> <b_lp_Chiralities_Consistent>
1

> <s_lp_Variant>
AV-unprocessed.smi:252-6

> <Gold.Version>
5.8.1

> <Gold.Id.Protein>
6NUR|6NUR_protein|mol2

> <Gold.PLP.Fitness>
46.7675

> <Gold.PLP.PLP>
-34.0097

> <Gold.PLP.part.hbond>
-4.2093

> <Gold.PLP.part.metal>
0.0000

> <Gold.PLP.part.buried>
-3.1731

> <Gold.PLP.part.nonpolar>
-29.1417

> <Gold.PLP.part.repulsive>
2.4779

> <Gold.PLP.ligand.clash>
0.0000

> <Gold.PLP.ligand.torsion>
0.3559

> <Gold.PLP.Chemscore.Hbond>
3.4200

> <Gold.PLP.Chemscore.CHOScore>
1.0000

> <Gold.PLP.Chemscore.Metal>
0.0000

> <Gold.Chemscore.Hbonds>
donor molecule, donor type, donor heavy atom, donor atom, acceptor molecule, acceptor atom, score
      L1  H     5    34       P1 10747  0.80
      P1  H  8011  8017       L1    22  0.20
      L1  C    18    43       P1  7957  0.43

> <Gold.PLP.Chemscore.Internal.Correction>
0.2097

> <Gold.Rescore>
     Score         DG    S(hbond)    S(metal)    S(lipo)     H(rot)  DE(clash)    DE(int)     intcor
     12.94     -16.40       2.49        0.00      81.48       2.70       1.63       1.83       ----

> <Gold.Chemscore.Fitness>
12.9413

> <Gold.Chemscore.DG>
-16.3953

> <Gold.Chemscore.ZeroCoef>
-5.4800

> <Gold.Chemscore.Hbond>
2.4864

> <Gold.Chemscore.Metal>
0.0000

> <Gold.Chemscore.Lipo>
81.4818

> <Gold.Chemscore.Internal_Hbond>
0.0000

> <Gold.Chemscore.DEClash>
1.6262

> <Gold.Chemscore.DEInternal>
1.8278

> <Gold.Chemscore.Rot>
2.7041

> <Gold.Chemscore.Internal.Correction>
   9.000000E+99

> <Gold.Chemscore.Hbonds>
donor molecule, donor type, donor heavy atom, donor atom, acceptor molecule, acceptor atom, score
      L1  H     5    34       P1 10747  0.76

> <Gold.Chemscore.Hbond.Weighted>
-8.3044

> <Gold.Chemscore.Metal.Weighted>
-0.0000

> <Gold.Chemscore.Lipo.Weighted>
-9.5334

> <Gold.Chemscore.Internal_Hbond.Weighted>
0.0000

> <Gold.Chemscore.DEClash.Weighted>
1.6262

> <Gold.Chemscore.DEInternal.Weighted>
1.8278

> <Gold.Chemscore.Rot.Weighted>
6.9225

> <Gold.Chemscore.Internal.Correction.Weighted>
   9.000000E+99

> <Gold.Protein.RotatedTorsions>
[ 6907 6896 6895 6894 ] final  173.33 input  -60.11 | X-H torsion
[ 7974 7965 7964 7962 ] final  101.68 input  175.53 | X-H torsion
[ 8008 7997 7996 7995 ] final  144.86 input   59.86 | X-H torsion
[ 10167 10162 10161 10158 ] final   38.26 input  -65.29 | X-H torsion
[ 10718 10713 10712 10709 ] final  122.04 input   66.30 | X-H torsion
[ 10763 10752 10751 10750 ] final -115.94 input  -60.55 | X-H torsion
[ 11005 11000 10999 10996 ] final  160.35 input  -57.11 | X-H torsion

> <Gold.Protein.ActiveResidues>
 VAL166  LYS551  ARG553  GLY616  TRP617  ASP618  TYR619  PRO620  LYS621  CYS622 
 ASP623  PHE694  ASN695  SER759  ASP760  ASP761  ALA762  ILE779  LEU786  VAL792 
 PHE793  MET794  SER795  GLU796  ALA797  LYS798  CYS799  TRP800  GLU811  SER814 

> <Gold.Protein.RotatedAtoms>
  151.7700  133.3340  159.3441 H   0  0  0  0  0  0  0  0  0  0  0  0  # atno 6907 bound_to 6896
  150.7465  134.6027  159.6054 H   0  0  0  0  0  0  0  0  0  0  0  0  # atno 6908 bound_to 6896
  152.3348  134.7214  160.0331 H   0  0  0  0  0  0  0  0  0  0  0  0  # atno 6909 bound_to 6896
  145.3691  139.2402  143.3465 H   0  0  0  0  0  0  0  0  0  0  0  0  # atno 7974 bound_to 7965
  156.2898  140.2224  156.5122 H   0  0  0  0  0  0  0  0  0  0  0  0  # atno 8008 bound_to 7997
  154.7599  140.0474  157.0987 H   0  0  0  0  0  0  0  0  0  0  0  0  # atno 8009 bound_to 7997
  155.0003  140.3101  155.4873 H   0  0  0  0  0  0  0  0  0  0  0  0  # atno 8010 bound_to 7997
  140.3953  144.1797  150.6132 H   0  0  0  0  0  0  0  0  0  0  0  0  # atno 10167 bound_to 10162
  157.5772  131.1078  150.8256 H   0  0  0  0  0  0  0  0  0  0  0  0  # atno 10718 bound_to 10713
  154.8500  135.4363  154.1742 H   0  0  0  0  0  0  0  0  0  0  0  0  # atno 10763 bound_to 10752
  153.2848  135.6956  153.7356 H   0  0  0  0  0  0  0  0  0  0  0  0  # atno 10764 bound_to 10752
  153.6546  135.3445  155.3084 H   0  0  0  0  0  0  0  0  0  0  0  0  # atno 10765 bound_to 10752
  140.2051  134.8309  157.3060 H   0  0  0  0  0  0  0  0  0  0  0  0  # atno 11005 bound_to 11000
  146.2893  140.4339  142.8745 LP  0  0  0  0  0  0  0  0  0  0  0  0  # atno 17320 bound_to 7965
  144.8589  140.7111  143.6120 LP  0  0  0  0  0  0  0  0  0  0  0  0  # atno 17321 bound_to 7965
  140.4797  143.2383  151.8973 LP  0  0  0  0  0  0  0  0  0  0  0  0  # atno 17342 bound_to 10162
  139.4787  144.5283  151.8704 LP  0  0  0  0  0  0  0  0  0  0  0  0  # atno 17343 bound_to 10162
  156.8712  130.5147  149.5296 LP  0  0  0  0  0  0  0  0  0  0  0  0  # atno 17370 bound_to 10713
  156.0817  130.5826  150.9575 LP  0  0  0  0  0  0  0  0  0  0  0  0  # atno 17371 bound_to 10713
  140.2012  134.4253  155.7662 LP  0  0  0  0  0  0  0  0  0  0  0  0  # atno 17394 bound_to 11000
  141.2227  133.7073  156.8186 LP  0  0  0  0  0  0  0  0  0  0  0  0  # atno 17395 bound_to 11000

$$$$
