AV-unprocessed.smi:102|AV-procd|sdf|973|dock1
  -GOLD-   2262017523D 1   1.00000     0.00000
 Structure written by MMmdl.
 43 44  0  0  0  0  0  0  0  0  2 V2000
  145.0307  137.2243  161.1429 C   0  0  0  0  0  0  0  0  0  0  0  0
  145.3277  137.4087  159.6602 C   0  0  0  0  0  0  0  0  0  0  0  0
  145.3263  138.5247  159.1405 O   0  0  0  0  0  0  0  0  0  0  0  0
  145.5713  136.2465  159.0361 O   0  0  0  0  0  0  0  0  0  0  0  0
  145.9456  136.2422  157.6673 C   0  0  0  0  0  0  0  0  0  0  0  0
  147.2780  136.9916  157.4880 C   0  0  2  0  0  0  0  0  0  0  0  0
  147.5012  137.1208  156.0826 O   0  0  0  0  0  0  0  0  0  0  0  0
  148.6298  136.3985  155.6755 C   0  0  1  0  0  0  0  0  0  0  0  0
  149.7693  137.3543  155.3835 N   0  0  0  0  0  0  0  0  0  0  0  0
  149.6044  138.7271  155.4785 C   0  0  0  0  0  0  0  0  0  0  0  0
  150.6260  139.5735  155.2373 C   0  0  0  0  0  0  0  0  0  0  0  0
  150.4347  140.8999  155.3418 F   0  0  0  0  0  0  0  0  0  0  0  0
  151.9352  139.0401  154.8678 C   0  0  0  0  0  0  0  0  0  0  0  0
  152.8632  139.8172  154.6495 O   0  0  0  0  0  0  0  0  0  0  0  0
  152.0706  137.6852  154.7819 N   0  5  0  0  0  0  0  0  0  0  0  0
  151.0404  136.8242  155.0294 C   0  0  0  0  0  0  0  0  0  0  0  0
  151.1574  135.6007  154.9654 O   0  0  0  0  0  0  0  0  0  0  0  0
  149.0178  135.4715  156.8325 C   0  0  2  0  0  0  0  0  0  0  0  0
  148.3268  134.2337  156.6963 O   0  0  0  0  0  0  0  0  0  0  0  0
  148.5666  133.2163  157.5406 C   0  0  0  0  0  0  0  0  0  0  0  0
  147.7450  131.9785  157.2046 C   0  0  0  0  0  0  0  0  0  0  0  0
  149.3427  133.2285  158.4954 O   0  0  0  0  0  0  0  0  0  0  0  0
  148.5209  136.2645  158.0276 C   0  0  2  0  0  0  0  0  0  0  0  0
  148.3089  135.4311  159.1623 O   0  0  0  0  0  0  0  0  0  0  0  0
  147.9906  135.9715  160.3509 C   0  0  0  0  0  0  0  0  0  0  0  0
  147.6948  134.9154  161.4069 C   0  0  0  0  0  0  0  0  0  0  0  0
  147.9158  137.1734  160.6057 O   0  0  0  0  0  0  0  0  0  0  0  0
  145.0539  136.1693  161.4177 H   0  0  0  0  0  0  0  0  0  0  0  0
  144.0432  137.6195  161.3808 H   0  0  0  0  0  0  0  0  0  0  0  0
  145.7696  137.7541  161.7441 H   0  0  0  0  0  0  0  0  0  0  0  0
  146.0206  135.2272  157.2761 H   0  0  0  0  0  0  0  0  0  0  0  0
  145.1592  136.7458  157.1038 H   0  0  0  0  0  0  0  0  0  0  0  0
  147.1957  137.9874  157.9248 H   0  0  0  0  0  0  0  0  0  0  0  0
  148.4252  135.8896  154.7318 H   0  0  0  0  0  0  0  0  0  0  0  0
  148.6488  139.1456  155.7543 H   0  0  0  0  0  0  0  0  0  0  0  0
  150.0982  135.3263  156.8775 H   0  0  0  0  0  0  0  0  0  0  0  0
  147.4462  131.9845  156.1561 H   0  0  0  0  0  0  0  0  0  0  0  0
  146.8465  131.9454  157.8208 H   0  0  0  0  0  0  0  0  0  0  0  0
  148.3262  131.0754  157.3921 H   0  0  0  0  0  0  0  0  0  0  0  0
  149.2850  137.0106  158.2524 H   0  0  0  0  0  0  0  0  0  0  0  0
  148.3849  134.0766  161.3132 H   0  0  0  0  0  0  0  0  0  0  0  0
  146.6775  134.5423  161.2904 H   0  0  0  0  0  0  0  0  0  0  0  0
  147.7972  135.3361  162.4074 H   0  0  0  0  0  0  0  0  0  0  0  0
  1  2  1  0  0  0  0
  1 28  1  0  0  0  0
  1 29  1  0  0  0  0
  1 30  1  0  0  0  0
  2  3  2  0  0  0  0
  2  4  1  0  0  0  0
  4  5  1  0  0  0  0
  5  6  1  0  0  0  0
  5 31  1  0  0  0  0
  5 32  1  0  0  0  0
  6 23  1  0  0  0  0
  6  7  1  0  0  0  0
  6 33  1  0  0  0  0
  7  8  1  0  0  0  0
  8  9  1  0  0  0  0
  8 18  1  0  0  0  0
  8 34  1  0  0  0  0
  9 16  1  0  0  0  0
  9 10  1  0  0  0  0
 10 11  2  0  0  0  0
 10 35  1  0  0  0  0
 11 12  1  0  0  0  0
 11 13  1  0  0  0  0
 13 14  2  0  0  0  0
 13 15  1  0  0  0  0
 15 16  1  0  0  0  0
 16 17  2  0  0  0  0
 18 19  1  0  0  0  0
 18 23  1  0  0  0  0
 18 36  1  0  0  0  0
 19 20  1  0  0  0  0
 20 21  1  0  0  0  0
 20 22  2  0  0  0  0
 21 37  1  0  0  0  0
 21 38  1  0  0  0  0
 21 39  1  0  0  0  0
 23 24  1  0  0  0  0
 23 40  1  0  0  0  0
 24 25  1  0  0  0  0
 25 26  1  0  0  0  0
 25 27  2  0  0  0  0
 26 41  1  0  0  0  0
 26 42  1  0  0  0  0
 26 43  1  0  0  0  0
M  CHG  1  15  -1
M  END
> <s_m_source_file>
AV-unprocessed.smi

> <i_m_source_file_index>
102

> <i_lp_mmshare_version>
43012

> <i_f3d_flags>
0

> <s_epik_input>
W0NIM11DKD1PKU9bQ0gyXVtDQEBIXTFPW0NASF0oW0NAQEhdKE9DKD1PKVtDSDNdKVtDQEhdMU9DKD1PKVtDSDNdKW4yW2NIXWMoRiljKD1PKVtuSF1jMj1P

> <s_epik_cmdline>
J2VwaWtfcHl0aG9uJywgJy1waCcsICc3LjAnLCAnLXRuJywgJzgnLCAnLW1hJywgJzIwMCcsICctbWV0YWxfYmluZGluZycsICctaW1hZScsICc8aW5maWxlLm1hZT4nLCAnLW9tYWUnLCAnPG91dGZpbGUubWFlPic=

> <r_epik_Ionization_Penalty>
1.40304

> <r_epik_Ionization_Penalty_Charging>
1.43915e-08

> <r_epik_Ionization_Penalty_Neutral>
1.40304

> <r_epik_State_Penalty>
1.48536

> <r_epik_Charging_Adjusted_Penalty>
1.48536

> <i_epik_Tot_Q>
-1

> <i_epik_Tot_abs_Q>
1

> <r_epik_Metal_State_Penalty>
0.00663881

> <b_epik_Metal_Only>
0

> <s_epik_Chemistry_Notes>
This compound has an ester and may undergo hydrolysis at high or low pH. This compound contains an acetal/aminal-like group ( X-CH(R)-Y where X, Y are N, S, or O) that may be acid/base labile, releasing an aldehyde.

> <s_lp_Force_Field>
OPLS_2005

> <r_lp_Energy>
27.0853

> <b_lp_Chiralities_Consistent>
1

> <s_lp_Variant>
AV-unprocessed.smi:102-29

> <Gold.Version>
5.8.1

> <Gold.Id.Protein>
6NUR|6NUR_protein|mol2

> <Gold.PLP.Fitness>
42.6694

> <Gold.PLP.PLP>
-28.4016

> <Gold.PLP.part.hbond>
-7.4525

> <Gold.PLP.part.metal>
0.0000

> <Gold.PLP.part.buried>
-3.4867

> <Gold.PLP.part.nonpolar>
-17.0932

> <Gold.PLP.part.repulsive>
0.2617

> <Gold.PLP.ligand.clash>
0.0000

> <Gold.PLP.ligand.torsion>
0.1754

> <Gold.PLP.Chemscore.Hbond>
4.7944

> <Gold.PLP.Chemscore.CHOScore>
0.0000

> <Gold.PLP.Chemscore.Metal>
0.0000

> <Gold.Chemscore.Hbonds>
donor molecule, donor type, donor heavy atom, donor atom, acceptor molecule, acceptor atom, score
      P1  H  6896  6907       L1    22  1.00
      P1  H  6931  6943       L1    27  0.80
      P1  H  6934  6947       L1    27  0.82
      P1  H  7989  7998       L1    14  0.19
      P1  H  7997  8008       L1    14  0.98
      P1  H 10752 10765       L1    17  0.90

> <Gold.PLP.Chemscore.Internal.Correction>
0.2354

> <Gold.Rescore>
     Score         DG    S(hbond)    S(metal)    S(lipo)     H(rot)  DE(clash)    DE(int)     intcor
      7.27     -11.99       4.16        0.00      24.39       4.00       0.67       4.04       ----

> <Gold.Chemscore.Fitness>
7.2726

> <Gold.Chemscore.DG>
-11.9888

> <Gold.Chemscore.ZeroCoef>
-5.4800

> <Gold.Chemscore.Hbond>
4.1563

> <Gold.Chemscore.Metal>
0.0000

> <Gold.Chemscore.Lipo>
24.3942

> <Gold.Chemscore.Internal_Hbond>
0.0000

> <Gold.Chemscore.DEClash>
0.6713

> <Gold.Chemscore.DEInternal>
4.0449

> <Gold.Chemscore.Rot>
3.9951

> <Gold.Chemscore.Internal.Correction>
   9.000000E+99

> <Gold.Chemscore.Hbonds>
donor molecule, donor type, donor heavy atom, donor atom, acceptor molecule, acceptor atom, score
      P1  H  6896  6907       L1    22  1.00
      P1  H  6931  6943       L1    27  0.75
      P1  H  6934  6947       L1    27  0.76
      P1  H  7989  7998       L1    14  0.01
      P1  H  7997  8008       L1    14  0.91
      P1  H 10752 10765       L1    17  0.18

> <Gold.Chemscore.Hbond.Weighted>
-13.8821

> <Gold.Chemscore.Metal.Weighted>
-0.0000

> <Gold.Chemscore.Lipo.Weighted>
-2.8541

> <Gold.Chemscore.Internal_Hbond.Weighted>
0.0000

> <Gold.Chemscore.DEClash.Weighted>
0.6713

> <Gold.Chemscore.DEInternal.Weighted>
4.0449

> <Gold.Chemscore.Rot.Weighted>
10.2274

> <Gold.Chemscore.Internal.Correction.Weighted>
   9.000000E+99

> <Gold.Protein.RotatedTorsions>
[ 6907 6896 6895 6894 ] final -115.21 input  -60.11 | X-H torsion
[ 7974 7965 7964 7962 ] final   49.60 input  175.53 | X-H torsion
[ 8008 7997 7996 7995 ] final  -13.05 input   59.86 | X-H torsion
[ 10167 10162 10161 10158 ] final -127.24 input  -65.29 | X-H torsion
[ 10718 10713 10712 10709 ] final  103.71 input   66.30 | X-H torsion
[ 10763 10752 10751 10750 ] final -173.89 input  -60.55 | X-H torsion
[ 11005 11000 10999 10996 ] final   85.67 input  -57.11 | X-H torsion

> <Gold.Protein.ActiveResidues>
 VAL166  LYS551  ARG553  GLY616  TRP617  ASP618  TYR619  PRO620  LYS621  CYS622 
 ASP623  PHE694  ASN695  SER759  ASP760  ASP761  ALA762  ILE779  LEU786  VAL792 
 PHE793  MET794  SER795  GLU796  ALA797  LYS798  CYS799  TRP800  GLU811  SER814 

> <Gold.Protein.RotatedAtoms>
  150.7960  133.8691  159.3253 H   0  0  0  0  0  0  0  0  0  0  0  0  # atno 6907 bound_to 6896
  151.6516  135.0999  160.0171 H   0  0  0  0  0  0  0  0  0  0  0  0  # atno 6908 bound_to 6896
  152.4042  133.6824  159.6377 H   0  0  0  0  0  0  0  0  0  0  0  0  # atno 6909 bound_to 6896
  146.0093  139.4525  142.9966 H   0  0  0  0  0  0  0  0  0  0  0  0  # atno 7974 bound_to 7965
  154.5325  140.2260  155.8779 H   0  0  0  0  0  0  0  0  0  0  0  0  # atno 8008 bound_to 7997
  156.1778  140.3107  155.9056 H   0  0  0  0  0  0  0  0  0  0  0  0  # atno 8009 bound_to 7997
  155.3421  140.0451  157.3035 H   0  0  0  0  0  0  0  0  0  0  0  0  # atno 8010 bound_to 7997
  139.9630  143.5929  152.2439 H   0  0  0  0  0  0  0  0  0  0  0  0  # atno 10167 bound_to 10162
  157.6764  131.0786  150.5596 H   0  0  0  0  0  0  0  0  0  0  0  0  # atno 10718 bound_to 10713
  154.6027  135.2856  155.0518 H   0  0  0  0  0  0  0  0  0  0  0  0  # atno 10763 bound_to 10752
  154.1777  135.6462  153.5030 H   0  0  0  0  0  0  0  0  0  0  0  0  # atno 10764 bound_to 10752
  153.0163  135.5416  154.6751 H   0  0  0  0  0  0  0  0  0  0  0  0  # atno 10765 bound_to 10752
  139.8965  134.8303  156.2614 H   0  0  0  0  0  0  0  0  0  0  0  0  # atno 11005 bound_to 11000
  145.7366  141.0023  143.1323 LP  0  0  0  0  0  0  0  0  0  0  0  0  # atno 17320 bound_to 7965
  144.6947  139.9049  143.7460 LP  0  0  0  0  0  0  0  0  0  0  0  0  # atno 17321 bound_to 7965
  139.6540  144.7661  151.2093 LP  0  0  0  0  0  0  0  0  0  0  0  0  # atno 17342 bound_to 10162
  140.7547  143.6116  150.8600 LP  0  0  0  0  0  0  0  0  0  0  0  0  # atno 17343 bound_to 10162
  156.5899  130.4326  149.5941 LP  0  0  0  0  0  0  0  0  0  0  0  0  # atno 17370 bound_to 10713
  156.2591  130.6952  151.1715 LP  0  0  0  0  0  0  0  0  0  0  0  0  # atno 17371 bound_to 10713
  141.0160  133.7068  156.1189 LP  0  0  0  0  0  0  0  0  0  0  0  0  # atno 17394 bound_to 11000
  140.7301  134.4264  157.5566 LP  0  0  0  0  0  0  0  0  0  0  0  0  # atno 17395 bound_to 11000

$$$$
