AV-unprocessed.smi:2785|AV-procd|sdf|10747|dock2
  -GOLD-   2272015183D 1   1.00000     0.00000
 Structure written by MMmdl.
 37 38  0  0  0  0  0  0  0  0  1 V2000
  152.4812  142.6978  160.5995 C   0  0  0  0  0  0  0  0  0  0  0  0
  152.7765  142.6781  159.0886 C   0  0  0  0  0  0  0  0  0  0  0  0
  152.3822  144.0004  158.4118 C   0  0  0  0  0  0  0  0  0  0  0  0
  152.1411  141.5457  158.4005 N   0  0  0  0  0  0  0  0  0  0  0  0
  151.2787  141.7204  157.2429 C   0  0  0  0  0  0  0  0  0  0  0  0
  151.0533  140.3052  156.7018 C   0  0  0  0  0  0  0  0  0  0  0  0
  151.4868  139.3329  157.8109 C   0  0  2  0  0  0  0  0  0  0  0  0
  150.3093  138.7940  158.4879 N   0  0  0  0  0  0  0  0  0  0  0  0
  150.1275  137.5065  158.8168 C   0  0  0  0  0  0  0  0  0  0  0  0
  150.9375  136.6175  158.5531 O   0  0  0  0  0  0  0  0  0  0  0  0
  148.9623  137.3310  159.4648 N   0  0  0  0  0  0  0  0  0  0  0  0
  148.4195  136.1261  159.9849 C   0  0  0  0  0  0  0  0  0  0  0  0
  147.7347  136.2607  161.2142 C   0  0  0  0  0  0  0  0  0  0  0  0
  147.1601  135.1239  161.8158 C   0  0  0  0  0  0  0  0  0  0  0  0
  147.2858  133.8813  161.1697 C   0  0  0  0  0  0  0  0  0  0  0  0
  146.7503  132.7608  161.7096 F   0  0  0  0  0  0  0  0  0  0  0  0
  147.9823  133.8328  159.9480 C   0  0  0  0  0  0  0  0  0  0  0  0
  148.5334  134.9216  159.3706 N   0  0  0  0  0  0  0  0  0  0  0  0
  152.2534  140.2579  158.7547 C   0  0  0  0  0  0  0  0  0  0  0  0
  152.9045  139.8315  159.7082 O   0  0  0  0  0  0  0  0  0  0  0  0
  153.0406  143.4936  161.0920 H   0  0  0  0  0  0  0  0  0  0  0  0
  152.7707  141.7578  161.0704 H   0  0  0  0  0  0  0  0  0  0  0  0
  151.4243  142.8687  160.8063 H   0  0  0  0  0  0  0  0  0  0  0  0
  153.8578  142.5662  158.9874 H   0  0  0  0  0  0  0  0  0  0  0  0
  152.8797  144.8466  158.8861 H   0  0  0  0  0  0  0  0  0  0  0  0
  151.3067  144.1704  158.4719 H   0  0  0  0  0  0  0  0  0  0  0  0
  152.6619  144.0049  157.3580 H   0  0  0  0  0  0  0  0  0  0  0  0
  150.3328  142.1651  157.5549 H   0  0  0  0  0  0  0  0  0  0  0  0
  151.7355  142.3687  156.4940 H   0  0  0  0  0  0  0  0  0  0  0  0
  150.0240  140.1530  156.3733 H   0  0  0  0  0  0  0  0  0  0  0  0
  151.6874  140.1515  155.8274 H   0  0  0  0  0  0  0  0  0  0  0  0
  152.1298  138.5431  157.4185 H   0  0  0  0  0  0  0  0  0  0  0  0
  149.5923  139.4563  158.7448 H   0  0  0  0  0  0  0  0  0  0  0  0
  148.4022  138.1575  159.6113 H   0  0  0  0  0  0  0  0  0  0  0  0
  147.6491  137.2239  161.6960 H   0  0  0  0  0  0  0  0  0  0  0  0
  146.6335  135.2051  162.7551 H   0  0  0  0  0  0  0  0  0  0  0  0
  148.1003  132.8977  159.4206 H   0  0  0  0  0  0  0  0  0  0  0  0
  1  2  1  0  0  0  0
  1 21  1  0  0  0  0
  1 22  1  0  0  0  0
  1 23  1  0  0  0  0
  2  3  1  0  0  0  0
  2  4  1  0  0  0  0
  2 24  1  0  0  0  0
  3 25  1  0  0  0  0
  3 26  1  0  0  0  0
  3 27  1  0  0  0  0
  4 19  1  0  0  0  0
  4  5  1  0  0  0  0
  5  6  1  0  0  0  0
  5 28  1  0  0  0  0
  5 29  1  0  0  0  0
  6  7  1  0  0  0  0
  6 30  1  0  0  0  0
  6 31  1  0  0  0  0
  7  8  1  0  0  0  0
  7 19  1  0  0  0  0
  7 32  1  0  0  0  0
  8  9  1  0  0  0  0
  8 33  1  0  0  0  0
  9 10  2  0  0  0  0
  9 11  1  0  0  0  0
 11 12  1  0  0  0  0
 11 34  1  0  0  0  0
 12 18  1  0  0  0  0
 12 13  2  0  0  0  0
 13 14  1  0  0  0  0
 13 35  1  0  0  0  0
 14 15  2  0  0  0  0
 14 36  1  0  0  0  0
 15 16  1  0  0  0  0
 15 17  1  0  0  0  0
 17 18  2  0  0  0  0
 17 37  1  0  0  0  0
 19 20  2  0  0  0  0
M  END
> <s_m_source_file>
AV-unprocessed.smi

> <i_m_source_file_index>
2785

> <i_lp_mmshare_version>
43012

> <i_f3d_flags>
0

> <s_epik_input>
W0NIM11bQ0hdKFtDSDNdKU4xW0NIMl1bQ0gyXVtDQEhdKEMxPU8pW05IXUMoPU8pW05IXWMyW2NIXVtjSF1jKEYpW2NIXW4y

> <s_epik_cmdline>
J2VwaWtfcHl0aG9uJywgJy1waCcsICc3LjAnLCAnLXRuJywgJzgnLCAnLW1hJywgJzIwMCcsICctbWV0YWxfYmluZGluZycsICctaW1hZScsICc8aW5maWxlLm1hZT4nLCAnLW9tYWUnLCAnPG91dGZpbGUubWFlPic=

> <r_lp_tautomer_probability>
1

> <r_epik_Ionization_Penalty>
3.20266e-05

> <r_epik_Ionization_Penalty_Charging>
0

> <r_epik_Ionization_Penalty_Neutral>
3.20266e-05

> <r_epik_State_Penalty>
-0

> <r_epik_Charging_Adjusted_Penalty>
0

> <i_epik_Tot_Q>
0

> <i_epik_Tot_abs_Q>
0

> <r_epik_Metal_State_Penalty>
-0

> <b_epik_Metal_Only>
0

> <s_lp_Force_Field>
OPLS_2005

> <r_lp_Energy>
23.5858

> <b_lp_Chiralities_Consistent>
1

> <s_lp_Variant>
AV-unprocessed.smi:2785-2

> <Gold.Version>
5.8.1

> <Gold.Id.Protein>
6NUR|6NUR_protein|mol2

> <Gold.PLP.Fitness>
39.9126

> <Gold.PLP.PLP>
-39.0930

> <Gold.PLP.part.hbond>
-2.0000

> <Gold.PLP.part.metal>
0.0000

> <Gold.PLP.part.buried>
-5.5894

> <Gold.PLP.part.nonpolar>
-33.0763

> <Gold.PLP.part.repulsive>
0.7417

> <Gold.PLP.ligand.clash>
0.0000

> <Gold.PLP.ligand.torsion>
0.4482

> <Gold.PLP.Chemscore.Hbond>
0.5462

> <Gold.PLP.Chemscore.CHOScore>
0.0000

> <Gold.PLP.Chemscore.Metal>
0.0000

> <Gold.Chemscore.Hbonds>
donor molecule, donor type, donor heavy atom, donor atom, acceptor molecule, acceptor atom, score
      P1  H  6896  6907       L1    18  0.19
      P1  H  6896  6908       L1    10  0.15

> <Gold.PLP.Chemscore.Internal.Correction>
0.0774

> <Gold.Rescore>
     Score         DG    S(hbond)    S(metal)    S(lipo)     H(rot)  DE(clash)    DE(int)     intcor
     13.43     -14.80       0.90        0.00      82.27       1.29       0.04       1.33       ----

> <Gold.Chemscore.Fitness>
13.4282

> <Gold.Chemscore.DG>
-14.8021

> <Gold.Chemscore.ZeroCoef>
-5.4800

> <Gold.Chemscore.Hbond>
0.8958

> <Gold.Chemscore.Metal>
0.0000

> <Gold.Chemscore.Lipo>
82.2725

> <Gold.Chemscore.Internal_Hbond>
0.0000

> <Gold.Chemscore.DEClash>
0.0428

> <Gold.Chemscore.DEInternal>
1.3311

> <Gold.Chemscore.Rot>
1.2875

> <Gold.Chemscore.Internal.Correction>
   9.000000E+99

> <Gold.Chemscore.Hbonds>
donor molecule, donor type, donor heavy atom, donor atom, acceptor molecule, acceptor atom, score
      P1  H  6896  6907       L1    18  0.02
      P1  H  6896  6908       L1    10  0.14

> <Gold.Chemscore.Hbond.Weighted>
-2.9921

> <Gold.Chemscore.Metal.Weighted>
-0.0000

> <Gold.Chemscore.Lipo.Weighted>
-9.6259

> <Gold.Chemscore.Internal_Hbond.Weighted>
0.0000

> <Gold.Chemscore.DEClash.Weighted>
0.0428

> <Gold.Chemscore.DEInternal.Weighted>
1.3311

> <Gold.Chemscore.Rot.Weighted>
3.2959

> <Gold.Chemscore.Internal.Correction.Weighted>
   9.000000E+99

> <Gold.Protein.RotatedTorsions>
[ 6907 6896 6895 6894 ] final -103.41 input  -60.11 | X-H torsion
[ 7974 7965 7964 7962 ] final   51.33 input  175.53 | X-H torsion
[ 8008 7997 7996 7995 ] final   17.33 input   59.86 | X-H torsion
[ 10167 10162 10161 10158 ] final  -27.19 input  -65.29 | X-H torsion
[ 10718 10713 10712 10709 ] final -175.82 input   66.30 | X-H torsion
[ 10763 10752 10751 10750 ] final -142.82 input  -60.55 | X-H torsion
[ 11005 11000 10999 10996 ] final  -86.99 input  -57.11 | X-H torsion

> <Gold.Protein.ActiveResidues>
 VAL166  LYS551  ARG553  GLY616  TRP617  ASP618  TYR619  PRO620  LYS621  CYS622 
 ASP623  PHE694  ASN695  SER759  ASP760  ASP761  ALA762  ILE779  LEU786  VAL792 
 PHE793  MET794  SER795  GLU796  ALA797  LYS798  CYS799  TRP800  GLU811  SER814 

> <Gold.Protein.RotatedAtoms>
  150.7239  134.0433  159.3772 H   0  0  0  0  0  0  0  0  0  0  0  0  # atno 6907 bound_to 6896
  151.8407  135.0589  160.0457 H   0  0  0  0  0  0  0  0  0  0  0  0  # atno 6908 bound_to 6896
  152.2864  133.5483  159.5566 H   0  0  0  0  0  0  0  0  0  0  0  0  # atno 6909 bound_to 6896
  145.9924  139.4352  143.0065 H   0  0  0  0  0  0  0  0  0  0  0  0  # atno 7974 bound_to 7965
  154.8899  140.2985  155.5377 H   0  0  0  0  0  0  0  0  0  0  0  0  # atno 8008 bound_to 7997
  156.3021  140.2426  156.3847 H   0  0  0  0  0  0  0  0  0  0  0  0  # atno 8009 bound_to 7997
  154.8629  140.0404  157.1666 H   0  0  0  0  0  0  0  0  0  0  0  0  # atno 8010 bound_to 7997
  140.7279  143.4114  151.1099 H   0  0  0  0  0  0  0  0  0  0  0  0  # atno 10167 bound_to 10162
  156.8055  130.9567  151.3117 H   0  0  0  0  0  0  0  0  0  0  0  0  # atno 10718 bound_to 10713
  154.8494  135.3485  154.6089 H   0  0  0  0  0  0  0  0  0  0  0  0  # atno 10763 bound_to 10752
  153.6698  135.6985  153.5155 H   0  0  0  0  0  0  0  0  0  0  0  0  # atno 10764 bound_to 10752
  153.2751  135.4281  155.0982 H   0  0  0  0  0  0  0  0  0  0  0  0  # atno 10765 bound_to 10752
  141.1623  133.7486  156.9242 H   0  0  0  0  0  0  0  0  0  0  0  0  # atno 11005 bound_to 11000
  145.7611  140.9935  143.1199 LP  0  0  0  0  0  0  0  0  0  0  0  0  # atno 17320 bound_to 7965
  144.6893  139.9331  143.7472 LP  0  0  0  0  0  0  0  0  0  0  0  0  # atno 17321 bound_to 7965
  139.7748  143.8441  152.3127 LP  0  0  0  0  0  0  0  0  0  0  0  0  # atno 17342 bound_to 10162
  139.8372  144.7227  150.9376 LP  0  0  0  0  0  0  0  0  0  0  0  0  # atno 17343 bound_to 10162
  157.6532  130.8902  149.9675 LP  0  0  0  0  0  0  0  0  0  0  0  0  # atno 17370 bound_to 10713
  156.1075  130.3652  150.0107 LP  0  0  0  0  0  0  0  0  0  0  0  0  # atno 17371 bound_to 10713
  140.1430  134.9281  157.2492 LP  0  0  0  0  0  0  0  0  0  0  0  0  # atno 17394 bound_to 11000
  140.2813  134.3346  155.7342 LP  0  0  0  0  0  0  0  0  0  0  0  0  # atno 17395 bound_to 11000

$$$$
