AV-unprocessed.smi:3029|AV-procd|sdf|11531|dock1
  -GOLD-   2272016473D 1   1.00000     0.00000
 Structure written by MMmdl.
 41 42  0  0  0  0  0  0  0  0  3 V2000
  155.7728  141.6059  162.9570 O   0  0  0  0  0  0  0  0  0  0  0  0
  155.5315  140.4208  162.7272 C   0  0  0  0  0  0  0  0  0  0  0  0
  155.7664  139.3722  163.7250 C   0  0  0  0  0  0  0  0  0  0  0  0
  155.4798  138.0794  163.4750 C   0  0  0  0  0  0  0  0  0  0  0  0
  154.9218  137.6836  162.1962 C   0  0  0  0  0  0  0  0  0  0  0  0
  154.5918  136.3016  161.9252 N   0  3  0  0  0  0  0  0  0  0  0  0
  154.0688  136.0133  160.8529 O   0  0  0  0  0  0  0  0  0  0  0  0
  154.8455  135.4579  162.7789 O   0  5  0  0  0  0  0  0  0  0  0  0
  154.7171  138.6474  161.2769 C   0  0  0  0  0  0  0  0  0  0  0  0
  155.0260  139.9981  161.5286 N   0  0  0  0  0  0  0  0  0  0  0  0
  154.7528  140.9570  160.4506 C   0  0  0  0  0  0  0  0  0  0  0  0
  153.7753  140.3674  159.4224 C   0  0  0  0  0  0  0  0  0  0  0  0
  153.1144  141.4455  158.7035 N   0  0  0  0  0  0  0  0  0  0  0  0
  151.7553  141.6710  159.1890 C   0  0  2  0  0  0  0  0  0  0  0  0
  150.8921  140.4472  158.8155 C   0  0  0  0  0  0  0  0  0  0  0  0
  150.5599  140.3874  157.3140 C   0  0  0  0  0  0  0  0  0  0  0  0
  149.9271  141.6963  156.8238 C   0  0  0  0  0  0  0  0  0  0  0  0
  150.8237  142.9015  157.1437 C   0  0  0  0  0  0  0  0  0  0  0  0
  151.1374  142.9938  158.6528 C   0  0  2  0  0  0  0  0  0  0  0  0
  151.9172  144.2770  159.0226 C   0  0  0  0  0  0  0  0  0  0  0  0
  152.2306  144.3112  160.3181 F   0  0  0  0  0  0  0  0  0  0  0  0
  153.0469  144.3299  158.3165 F   0  0  0  0  0  0  0  0  0  0  0  0
  151.1942  145.3551  158.7187 F   0  0  0  0  0  0  0  0  0  0  0  0
  156.1814  139.6448  164.6844 H   0  0  0  0  0  0  0  0  0  0  0  0
  155.6721  137.3427  164.2411 H   0  0  0  0  0  0  0  0  0  0  0  0
  154.3006  138.4581  160.2977 H   0  0  0  0  0  0  0  0  0  0  0  0
  154.3530  141.8865  160.8610 H   0  0  0  0  0  0  0  0  0  0  0  0
  155.6828  141.2429  159.9563 H   0  0  0  0  0  0  0  0  0  0  0  0
  154.3103  139.7316  158.7158 H   0  0  0  0  0  0  0  0  0  0  0  0
  153.0351  139.7456  159.9248 H   0  0  0  0  0  0  0  0  0  0  0  0
  153.0877  141.2187  157.7196 H   0  0  0  0  0  0  0  0  0  0  0  0
  151.7753  141.7205  160.2791 H   0  0  0  0  0  0  0  0  0  0  0  0
  151.3811  139.5236  159.1289 H   0  0  0  0  0  0  0  0  0  0  0  0
  149.9579  140.4942  159.3765 H   0  0  0  0  0  0  0  0  0  0  0  0
  151.4679  140.1866  156.7440 H   0  0  0  0  0  0  0  0  0  0  0  0
  149.8855  139.5535  157.1176 H   0  0  0  0  0  0  0  0  0  0  0  0
  149.7490  141.6420  155.7494 H   0  0  0  0  0  0  0  0  0  0  0  0
  148.9513  141.8299  157.2926 H   0  0  0  0  0  0  0  0  0  0  0  0
  151.7519  142.8303  156.5755 H   0  0  0  0  0  0  0  0  0  0  0  0
  150.3295  143.8132  156.8075 H   0  0  0  0  0  0  0  0  0  0  0  0
  150.1727  143.0884  159.1548 H   0  0  0  0  0  0  0  0  0  0  0  0
  1  2  2  0  0  0  0
  2 10  1  0  0  0  0
  2  3  1  0  0  0  0
  3  4  2  0  0  0  0
  3 24  1  0  0  0  0
  4  5  1  0  0  0  0
  4 25  1  0  0  0  0
  5  6  1  0  0  0  0
  5  9  2  0  0  0  0
  6  7  2  0  0  0  0
  6  8  1  0  0  0  0
  9 10  1  0  0  0  0
  9 26  1  0  0  0  0
 10 11  1  0  0  0  0
 11 12  1  0  0  0  0
 11 27  1  0  0  0  0
 11 28  1  0  0  0  0
 12 13  1  0  0  0  0
 12 29  1  0  0  0  0
 12 30  1  0  0  0  0
 13 14  1  0  0  0  0
 13 31  1  0  0  0  0
 14 19  1  0  0  0  0
 14 15  1  0  0  0  0
 14 32  1  0  0  0  0
 15 16  1  0  0  0  0
 15 33  1  0  0  0  0
 15 34  1  0  0  0  0
 16 17  1  0  0  0  0
 16 35  1  0  0  0  0
 16 36  1  0  0  0  0
 17 18  1  0  0  0  0
 17 37  1  0  0  0  0
 17 38  1  0  0  0  0
 18 19  1  0  0  0  0
 18 39  1  0  0  0  0
 18 40  1  0  0  0  0
 19 20  1  0  0  0  0
 19 41  1  0  0  0  0
 20 21  1  0  0  0  0
 20 22  1  0  0  0  0
 20 23  1  0  0  0  0
M  CHG  1   6   1
M  CHG  1   8  -1
M  END
> <s_m_source_file>
AV-unprocessed.smi

> <i_m_source_file_index>
3029

> <i_lp_mmshare_version>
43012

> <i_f3d_flags>
0

> <s_epik_input>
Tz1jMVtjSF1bY0hdYyhbTitdKD1PKVtPLV0pW2NIXW4xW0NIMl1bQ0gyXVtOSF1bQ0BASF0yW0NIMl1bQ0gyXVtDSDJdW0NIMl1bQ0BIXTJDKEYpKEYpRg==

> <s_epik_cmdline>
J2VwaWtfcHl0aG9uJywgJy1waCcsICc3LjAnLCAnLXRuJywgJzgnLCAnLW1hJywgJzIwMCcsICctbWV0YWxfYmluZGluZycsICctaW1hZScsICc8aW5maWxlLm1hZT4nLCAnLW9tYWUnLCAnPG91dGZpbGUubWFlPic=

> <r_lp_tautomer_probability>
1

> <r_epik_Ionization_Penalty>
1.65565

> <r_epik_Ionization_Penalty_Charging>
3.32684e-10

> <r_epik_Ionization_Penalty_Neutral>
1.65565

> <r_epik_State_Penalty>
1.75811

> <r_epik_Charging_Adjusted_Penalty>
1.75811

> <i_epik_Tot_Q>
0

> <i_epik_Tot_abs_Q>
2

> <r_epik_Metal_State_Penalty>
1.75811

> <b_epik_Metal_Only>
0

> <s_lp_Force_Field>
OPLS_2005

> <r_lp_Energy>
35.9342

> <b_lp_Chiralities_Consistent>
1

> <s_lp_Variant>
AV-unprocessed.smi:3029-7

> <Gold.Version>
5.8.1

> <Gold.Id.Protein>
6NUR|6NUR_protein|mol2

> <Gold.PLP.Fitness>
44.4858

> <Gold.PLP.PLP>
-44.8156

> <Gold.PLP.part.hbond>
-2.3028

> <Gold.PLP.part.metal>
0.0000

> <Gold.PLP.part.buried>
-3.7483

> <Gold.PLP.part.nonpolar>
-38.7491

> <Gold.PLP.part.repulsive>
0.0000

> <Gold.PLP.ligand.clash>
1.8389

> <Gold.PLP.ligand.torsion>
0.8380

> <Gold.PLP.Chemscore.Hbond>
1.0000

> <Gold.PLP.Chemscore.CHOScore>
0.0000

> <Gold.PLP.Chemscore.Metal>
0.0000

> <Gold.Chemscore.Hbonds>
donor molecule, donor type, donor heavy atom, donor atom, acceptor molecule, acceptor atom, score
      P1  H  6896  6909       L1     7  0.44

> <Gold.PLP.Chemscore.Internal.Correction>
0.1851

> <Gold.Rescore>
     Score         DG    S(hbond)    S(metal)    S(lipo)     H(rot)  DE(clash)    DE(int)     intcor
     12.95     -15.10       1.00        0.00      94.42       1.86       0.17       1.98       ----

> <Gold.Chemscore.Fitness>
12.9538

> <Gold.Chemscore.DG>
-15.1027

> <Gold.Chemscore.ZeroCoef>
-5.4800

> <Gold.Chemscore.Hbond>
0.9979

> <Gold.Chemscore.Metal>
0.0000

> <Gold.Chemscore.Lipo>
94.4207

> <Gold.Chemscore.Internal_Hbond>
0.0000

> <Gold.Chemscore.DEClash>
0.1665

> <Gold.Chemscore.DEInternal>
1.9823

> <Gold.Chemscore.Rot>
1.8584

> <Gold.Chemscore.Internal.Correction>
   9.000000E+99

> <Gold.Chemscore.Hbonds>
donor molecule, donor type, donor heavy atom, donor atom, acceptor molecule, acceptor atom, score
      P1  H  6896  6909       L1     7  0.43

> <Gold.Chemscore.Hbond.Weighted>
-3.3330

> <Gold.Chemscore.Metal.Weighted>
-0.0000

> <Gold.Chemscore.Lipo.Weighted>
-11.0472

> <Gold.Chemscore.Internal_Hbond.Weighted>
0.0000

> <Gold.Chemscore.DEClash.Weighted>
0.1665

> <Gold.Chemscore.DEInternal.Weighted>
1.9823

> <Gold.Chemscore.Rot.Weighted>
4.7576

> <Gold.Chemscore.Internal.Correction.Weighted>
   9.000000E+99

> <Gold.Protein.RotatedTorsions>
[ 6907 6896 6895 6894 ] final  179.74 input  -60.11 | X-H torsion
[ 7974 7965 7964 7962 ] final   29.93 input  175.53 | X-H torsion
[ 8008 7997 7996 7995 ] final  104.05 input   59.86 | X-H torsion
[ 10167 10162 10161 10158 ] final   50.93 input  -65.29 | X-H torsion
[ 10718 10713 10712 10709 ] final -174.41 input   66.30 | X-H torsion
[ 10763 10752 10751 10750 ] final  -16.83 input  -60.55 | X-H torsion
[ 11005 11000 10999 10996 ] final  -25.77 input  -57.11 | X-H torsion

> <Gold.Protein.ActiveResidues>
 VAL166  LYS551  ARG553  GLY616  TRP617  ASP618  TYR619  PRO620  LYS621  CYS622 
 ASP623  PHE694  ASN695  SER759  ASP760  ASP761  ALA762  ILE779  LEU786  VAL792 
 PHE793  MET794  SER795  GLU796  ALA797  LYS798  CYS799  TRP800  GLU811  SER814 

> <Gold.Protein.RotatedAtoms>
  151.6668  133.3315  159.3186 H   0  0  0  0  0  0  0  0  0  0  0  0  # atno 6907 bound_to 6896
  150.7887  134.6896  159.6499 H   0  0  0  0  0  0  0  0  0  0  0  0  # atno 6908 bound_to 6896
  152.3962  134.6365  160.0140 H   0  0  0  0  0  0  0  0  0  0  0  0  # atno 6909 bound_to 6896
  146.1642  139.6856  142.9012 H   0  0  0  0  0  0  0  0  0  0  0  0  # atno 7974 bound_to 7965
  156.1538  140.3154  155.8692 H   0  0  0  0  0  0  0  0  0  0  0  0  # atno 8008 bound_to 7997
  155.3918  140.0494  157.3057 H   0  0  0  0  0  0  0  0  0  0  0  0  # atno 8009 bound_to 7997
  154.5083  140.2155  155.9219 H   0  0  0  0  0  0  0  0  0  0  0  0  # atno 8010 bound_to 7997
  140.2672  144.3306  150.6300 H   0  0  0  0  0  0  0  0  0  0  0  0  # atno 10167 bound_to 10162
  156.7847  130.9496  151.3120 H   0  0  0  0  0  0  0  0  0  0  0  0  # atno 10718 bound_to 10713
  153.5646  135.7009  153.5532 H   0  0  0  0  0  0  0  0  0  0  0  0  # atno 10763 bound_to 10752
  153.3399  135.4024  155.1563 H   0  0  0  0  0  0  0  0  0  0  0  0  # atno 10764 bound_to 10752
  154.8642  135.3739  154.5165 H   0  0  0  0  0  0  0  0  0  0  0  0  # atno 10765 bound_to 10752
  140.8968  133.7551  156.0491 H   0  0  0  0  0  0  0  0  0  0  0  0  # atno 11005 bound_to 11000
  145.4510  141.0428  143.2805 LP  0  0  0  0  0  0  0  0  0  0  0  0  # atno 17320 bound_to 7965
  144.8069  139.6034  143.7046 LP  0  0  0  0  0  0  0  0  0  0  0  0  # atno 17321 bound_to 7965
  140.5918  143.2168  151.7238 LP  0  0  0  0  0  0  0  0  0  0  0  0  # atno 17342 bound_to 10162
  139.4999  144.3927  152.0263 LP  0  0  0  0  0  0  0  0  0  0  0  0  # atno 17343 bound_to 10162
  157.6629  130.8982  149.9870 LP  0  0  0  0  0  0  0  0  0  0  0  0  # atno 17370 bound_to 10713
  156.1196  130.3646  149.9909 LP  0  0  0  0  0  0  0  0  0  0  0  0  # atno 17371 bound_to 10713
  140.8279  134.3212  157.5359 LP  0  0  0  0  0  0  0  0  0  0  0  0  # atno 17394 bound_to 11000
  139.8736  134.9347  156.3613 LP  0  0  0  0  0  0  0  0  0  0  0  0  # atno 17395 bound_to 11000

$$$$
