AV-unprocessed.smi:2954|AV-procd|sdf|11297|dock10
  -GOLD-   2272016193D 1   1.00000     0.00000
 Structure written by MMmdl.
 42 44  0  0  0  0  0  0  0  0  1 V2000
  152.8498  137.5717  155.2479 C   0  0  0  0  0  0  0  0  0  0  0  0
  151.7243  137.9900  156.2125 C   0  0  2  0  0  0  0  0  0  0  0  0
  151.1661  136.8750  156.9812 N   0  0  0  0  0  0  0  0  0  0  0  0
  150.2755  136.9556  157.9803 C   0  0  0  0  0  0  0  0  0  0  0  0
  149.8061  138.0198  158.3753 O   0  0  0  0  0  0  0  0  0  0  0  0
  150.6124  138.7484  155.5258 C   0  0  0  0  0  0  0  0  0  0  0  0
  149.6803  138.1310  154.7945 N   0  0  0  0  0  0  0  0  0  0  0  0
  148.8931  139.1724  154.3481 C   0  0  0  0  0  0  0  0  0  0  0  0
  147.7483  139.1681  153.5196 C   0  0  0  0  0  0  0  0  0  0  0  0
  147.1056  140.3777  153.1845 C   0  0  0  0  0  0  0  0  0  0  0  0
  147.5972  141.6055  153.6727 C   0  0  0  0  0  0  0  0  0  0  0  0
  148.7344  141.6307  154.5025 C   0  0  0  0  0  0  0  0  0  0  0  0
  149.3720  140.4199  154.8351 C   0  0  0  0  0  0  0  0  0  0  0  0
  150.4864  140.1001  155.6059 N   0  0  0  0  0  0  0  0  0  0  0  0
  151.3276  141.0551  156.3154 C   0  0  0  0  0  0  0  0  0  0  0  0
  150.5897  141.6938  157.5005 C   0  0  0  0  0  0  0  0  0  0  0  0
  151.3303  142.8251  157.9374 O   0  0  0  0  0  0  0  0  0  0  0  0
  151.9305  142.7853  159.1771 C   0  0  0  0  0  0  0  0  0  0  0  0
  152.3989  141.5959  159.7908 C   0  0  0  0  0  0  0  0  0  0  0  0
  153.0025  141.6394  161.0625 C   0  0  0  0  0  0  0  0  0  0  0  0
  153.1445  142.8663  161.7360 C   0  0  0  0  0  0  0  0  0  0  0  0
  152.6810  144.0515  161.1362 C   0  0  0  0  0  0  0  0  0  0  0  0
  152.0776  144.0110  159.8638 C   0  0  0  0  0  0  0  0  0  0  0  0
  151.5228  145.4804  159.1435 Cl  0  0  0  0  0  0  0  0  0  0  0  0
  153.3051  138.4480  154.7855 H   0  0  0  0  0  0  0  0  0  0  0  0
  152.4849  136.9327  154.4432 H   0  0  0  0  0  0  0  0  0  0  0  0
  153.6372  137.0310  155.7735 H   0  0  0  0  0  0  0  0  0  0  0  0
  152.1933  138.6297  156.9563 H   0  0  0  0  0  0  0  0  0  0  0  0
  151.4869  135.9529  156.7249 H   0  0  0  0  0  0  0  0  0  0  0  0
  150.0204  135.9666  158.3901 H   0  0  0  0  0  0  0  0  0  0  0  0
  147.3663  138.2326  153.1384 H   0  0  0  0  0  0  0  0  0  0  0  0
  146.2327  140.3634  152.5485 H   0  0  0  0  0  0  0  0  0  0  0  0
  147.1015  142.5283  153.4088 H   0  0  0  0  0  0  0  0  0  0  0  0
  149.1149  142.5711  154.8724 H   0  0  0  0  0  0  0  0  0  0  0  0
  152.2152  140.5346  156.6763 H   0  0  0  0  0  0  0  0  0  0  0  0
  151.6919  141.8116  155.6210 H   0  0  0  0  0  0  0  0  0  0  0  0
  149.5864  141.9923  157.1930 H   0  0  0  0  0  0  0  0  0  0  0  0
  150.4944  140.9686  158.3099 H   0  0  0  0  0  0  0  0  0  0  0  0
  152.3049  140.6357  159.3068 H   0  0  0  0  0  0  0  0  0  0  0  0
  153.3570  140.7286  161.5219 H   0  0  0  0  0  0  0  0  0  0  0  0
  153.6077  142.8986  162.7111 H   0  0  0  0  0  0  0  0  0  0  0  0
  152.7899  144.9938  161.6529 H   0  0  0  0  0  0  0  0  0  0  0  0
  1  2  1  0  0  0  0
  1 25  1  0  0  0  0
  1 26  1  0  0  0  0
  1 27  1  0  0  0  0
  2  3  1  0  0  0  0
  2  6  1  0  0  0  0
  2 28  1  0  0  0  0
  3  4  1  0  0  0  0
  3 29  1  0  0  0  0
  4  5  2  0  0  0  0
  4 30  1  0  0  0  0
  6 14  1  0  0  0  0
  6  7  2  0  0  0  0
  7  8  1  0  0  0  0
  8 13  2  0  0  0  0
  8  9  1  0  0  0  0
  9 10  2  0  0  0  0
  9 31  1  0  0  0  0
 10 11  1  0  0  0  0
 10 32  1  0  0  0  0
 11 12  2  0  0  0  0
 11 33  1  0  0  0  0
 12 13  1  0  0  0  0
 12 34  1  0  0  0  0
 13 14  1  0  0  0  0
 14 15  1  0  0  0  0
 15 16  1  0  0  0  0
 15 35  1  0  0  0  0
 15 36  1  0  0  0  0
 16 17  1  0  0  0  0
 16 37  1  0  0  0  0
 16 38  1  0  0  0  0
 17 18  1  0  0  0  0
 18 23  1  0  0  0  0
 18 19  2  0  0  0  0
 19 20  1  0  0  0  0
 19 39  1  0  0  0  0
 20 21  2  0  0  0  0
 20 40  1  0  0  0  0
 21 22  1  0  0  0  0
 21 41  1  0  0  0  0
 22 23  2  0  0  0  0
 22 42  1  0  0  0  0
 23 24  1  0  0  0  0
M  END
> <s_m_source_file>
AV-unprocessed.smi

> <i_m_source_file_index>
2954

> <i_lp_mmshare_version>
43012

> <i_f3d_flags>
0

> <s_epik_input>
Tz1bQ0hdW05IXVtDQEBIXShbQ0gzXSljKG4xKW4oYyhjMTIpW2NIXVtjSF1bY0hdW2NIXTIpW0NIMl1bQ0gyXU9jM1tjSF1bY0hdW2NIXVtjSF1jM0Ns

> <s_epik_cmdline>
J2VwaWtfcHl0aG9uJywgJy1waCcsICc3LjAnLCAnLXRuJywgJzgnLCAnLW1hJywgJzIwMCcsICctbWV0YWxfYmluZGluZycsICctaW1hZScsICc8aW5maWxlLm1hZT4nLCAnLW9tYWUnLCAnPG91dGZpbGUubWFlPic=

> <r_lp_tautomer_probability>
1

> <r_epik_Ionization_Penalty>
0.0861383

> <r_epik_Ionization_Penalty_Charging>
0

> <r_epik_Ionization_Penalty_Neutral>
0.0861383

> <r_epik_State_Penalty>
0.0766841

> <r_epik_Charging_Adjusted_Penalty>
0.0766841

> <i_epik_Tot_Q>
0

> <i_epik_Tot_abs_Q>
0

> <r_epik_Metal_State_Penalty>
0.0668745

> <b_epik_Metal_Only>
0

> <s_lp_Force_Field>
OPLS_2005

> <r_lp_Energy>
13.8103

> <b_lp_Chiralities_Consistent>
1

> <s_lp_Variant>
AV-unprocessed.smi:2954-1

> <Gold.Version>
5.8.1

> <Gold.Id.Protein>
6NUR|6NUR_protein|mol2

> <Gold.PLP.Fitness>
49.5926

> <Gold.PLP.PLP>
-51.9164

> <Gold.PLP.part.hbond>
0.0000

> <Gold.PLP.part.metal>
0.0000

> <Gold.PLP.part.buried>
-1.3548

> <Gold.PLP.part.nonpolar>
-50.2926

> <Gold.PLP.part.repulsive>
0.4105

> <Gold.PLP.ligand.clash>
0.0000

> <Gold.PLP.ligand.torsion>
1.2132

> <Gold.PLP.Chemscore.Hbond>
0.0000

> <Gold.PLP.Chemscore.CHOScore>
0.0000

> <Gold.PLP.Chemscore.Metal>
0.0000

> <Gold.PLP.Chemscore.Internal.Correction>
0.1026

> <Gold.Rescore>
     Score         DG    S(hbond)    S(metal)    S(lipo)     H(rot)  DE(clash)    DE(int)     intcor
     15.38     -16.41       0.00        0.00     143.40       2.28       0.05       0.98       ----

> <Gold.Chemscore.Fitness>
15.3805

> <Gold.Chemscore.DG>
-16.4086

> <Gold.Chemscore.ZeroCoef>
-5.4800

> <Gold.Chemscore.Hbond>
0.0000

> <Gold.Chemscore.Metal>
0.0000

> <Gold.Chemscore.Lipo>
143.4023

> <Gold.Chemscore.Internal_Hbond>
0.0000

> <Gold.Chemscore.DEClash>
0.0481

> <Gold.Chemscore.DEInternal>
0.9801

> <Gold.Chemscore.Rot>
2.2849

> <Gold.Chemscore.Internal.Correction>
   9.000000E+99

> <Gold.Chemscore.Hbond.Weighted>
-0.0000

> <Gold.Chemscore.Metal.Weighted>
-0.0000

> <Gold.Chemscore.Lipo.Weighted>
-16.7781

> <Gold.Chemscore.Internal_Hbond.Weighted>
0.0000

> <Gold.Chemscore.DEClash.Weighted>
0.0481

> <Gold.Chemscore.DEInternal.Weighted>
0.9801

> <Gold.Chemscore.Rot.Weighted>
5.8495

> <Gold.Chemscore.Internal.Correction.Weighted>
   9.000000E+99

> <Gold.Protein.RotatedTorsions>
[ 6907 6896 6895 6894 ] final  -93.44 input  -60.11 | X-H torsion
[ 7974 7965 7964 7962 ] final -160.61 input  175.53 | X-H torsion
[ 8008 7997 7996 7995 ] final   89.05 input   59.86 | X-H torsion
[ 10167 10162 10161 10158 ] final -109.74 input  -65.29 | X-H torsion
[ 10718 10713 10712 10709 ] final  -30.67 input   66.30 | X-H torsion
[ 10763 10752 10751 10750 ] final -174.89 input  -60.55 | X-H torsion
[ 11005 11000 10999 10996 ] final -130.51 input  -57.11 | X-H torsion

> <Gold.Protein.ActiveResidues>
 VAL166  LYS551  ARG553  GLY616  TRP617  ASP618  TYR619  PRO620  LYS621  CYS622 
 ASP623  PHE694  ASN695  SER759  ASP760  ASP761  ALA762  ILE779  LEU786  VAL792 
 PHE793  MET794  SER795  GLU796  ALA797  LYS798  CYS799  TRP800  GLU811  SER814 

> <Gold.Protein.RotatedAtoms>
  150.6923  134.1966  159.4305 H   0  0  0  0  0  0  0  0  0  0  0  0  # atno 6907 bound_to 6896
  151.9934  134.9964  160.0571 H   0  0  0  0  0  0  0  0  0  0  0  0  # atno 6908 bound_to 6896
  152.1646  133.4569  159.4915 H   0  0  0  0  0  0  0  0  0  0  0  0  # atno 6909 bound_to 6896
  144.7421  140.3517  143.6114 H   0  0  0  0  0  0  0  0  0  0  0  0  # atno 7974 bound_to 7965
  155.9952  140.3365  155.6792 H   0  0  0  0  0  0  0  0  0  0  0  0  # atno 8008 bound_to 7997
  155.6366  140.0690  157.2650 H   0  0  0  0  0  0  0  0  0  0  0  0  # atno 8009 bound_to 7997
  154.4232  140.1750  156.1516 H   0  0  0  0  0  0  0  0  0  0  0  0  # atno 8010 bound_to 7997
  140.1520  143.4191  152.1488 H   0  0  0  0  0  0  0  0  0  0  0  0  # atno 10167 bound_to 10162
  156.3969  130.4383  149.7352 H   0  0  0  0  0  0  0  0  0  0  0  0  # atno 10718 bound_to 10713
  154.5909  135.2845  155.0636 H   0  0  0  0  0  0  0  0  0  0  0  0  # atno 10763 bound_to 10752
  154.1937  135.6436  153.5071 H   0  0  0  0  0  0  0  0  0  0  0  0  # atno 10764 bound_to 10752
  153.0121  135.5452  154.6595 H   0  0  0  0  0  0  0  0  0  0  0  0  # atno 10765 bound_to 10752
  140.9339  134.1283  157.4211 H   0  0  0  0  0  0  0  0  0  0  0  0  # atno 11005 bound_to 11000
  145.7269  139.1725  143.2453 LP  0  0  0  0  0  0  0  0  0  0  0  0  # atno 17320 bound_to 7965
  146.1235  140.7278  142.9446 LP  0  0  0  0  0  0  0  0  0  0  0  0  # atno 17321 bound_to 7965
  139.5421  144.7266  151.4700 LP  0  0  0  0  0  0  0  0  0  0  0  0  # atno 17342 bound_to 10162
  140.6696  143.8322  150.6983 LP  0  0  0  0  0  0  0  0  0  0  0  0  # atno 17343 bound_to 10162
  156.4383  130.7848  151.2869 LP  0  0  0  0  0  0  0  0  0  0  0  0  # atno 17370 bound_to 10713
  157.7502  131.0133  150.3418 LP  0  0  0  0  0  0  0  0  0  0  0  0  # atno 17371 bound_to 10713
  139.8803  135.0014  156.6067 LP  0  0  0  0  0  0  0  0  0  0  0  0  # atno 17394 bound_to 11000
  140.7825  133.8648  155.8579 LP  0  0  0  0  0  0  0  0  0  0  0  0  # atno 17395 bound_to 11000

$$$$
