AV-unprocessed.smi:1417|AV-procd|sdf|5766|dock9
  -GOLD-   22720 5403D 1   1.00000     0.00000
 Structure written by MMmdl.
 40 41  0  0  0  0  0  0  0  0  2 V2000
  152.6639  143.0070  160.4002 C   0  0  0  0  0  0  0  0  0  0  0  0
  152.4583  141.9213  159.4003 C   0  0  0  0  0  0  0  0  0  0  0  0
  151.4342  141.6277  158.5448 C   0  0  0  0  0  0  0  0  0  0  0  0
  151.9005  140.4568  157.8786 C   0  0  0  0  0  0  0  0  0  0  0  0
  151.2101  139.7285  156.8757 N   0  0  0  0  0  0  0  0  0  0  0  0
  149.8956  139.7310  156.5982 C   0  0  0  0  0  0  0  0  0  0  0  0
  149.0437  140.4007  157.1822 O   0  0  0  0  0  0  0  0  0  0  0  0
  149.6111  138.8970  155.5873 N   0  0  0  0  0  0  0  0  0  0  0  0
  148.2768  138.6628  155.0431 C   0  0  2  0  0  0  0  0  0  0  0  0
  147.9288  137.1627  155.0710 C   0  0  0  0  0  0  0  0  0  0  0  0
  146.5726  136.8952  154.3999 C   0  0  0  0  0  0  0  0  0  0  0  0
  146.5594  137.4066  153.0037 N   0  3  1  0  0  0  0  0  0  0  0  0
  145.3277  137.0390  152.2593 C   0  0  0  0  0  0  0  0  0  0  0  0
  145.5842  135.9977  151.1648 C   0  0  0  0  0  0  0  0  0  0  0  0
  145.3023  136.3579  149.9109 N   0  0  0  0  0  0  0  0  0  0  0  0
  146.0433  134.8909  151.4412 O   0  0  0  0  0  0  0  0  0  0  0  0
  146.8430  138.8634  152.9559 C   0  0  0  0  0  0  0  0  0  0  0  0
  148.2038  139.1832  153.5982 C   0  0  0  0  0  0  0  0  0  0  0  0
  153.0950  140.0772  158.2935 N   0  0  0  0  0  0  0  0  0  0  0  0
  153.4609  141.0115  159.2695 O   0  0  0  0  0  0  0  0  0  0  0  0
  151.7307  143.5339  160.6003 H   0  0  0  0  0  0  0  0  0  0  0  0
  153.3908  143.7333  160.0366 H   0  0  0  0  0  0  0  0  0  0  0  0
  153.0318  142.6019  161.3431 H   0  0  0  0  0  0  0  0  0  0  0  0
  150.5103  142.1736  158.4290 H   0  0  0  0  0  0  0  0  0  0  0  0
  151.7891  139.1303  156.3048 H   0  0  0  0  0  0  0  0  0  0  0  0
  150.3731  138.3874  155.1639 H   0  0  0  0  0  0  0  0  0  0  0  0
  147.5457  139.2103  155.6417 H   0  0  0  0  0  0  0  0  0  0  0  0
  148.7045  136.5908  154.5592 H   0  0  0  0  0  0  0  0  0  0  0  0
  147.9049  136.7984  156.0988 H   0  0  0  0  0  0  0  0  0  0  0  0
  146.3746  135.8229  154.4108 H   0  0  0  0  0  0  0  0  0  0  0  0
  145.7722  137.3689  154.9708 H   0  0  0  0  0  0  0  0  0  0  0  0
  144.5605  136.6895  152.9525 H   0  0  0  0  0  0  0  0  0  0  0  0
  144.9222  137.9205  151.7609 H   0  0  0  0  0  0  0  0  0  0  0  0
  145.4491  135.7110  149.1493 H   0  0  0  0  0  0  0  0  0  0  0  0
  144.9380  137.2821  149.7269 H   0  0  0  0  0  0  0  0  0  0  0  0
  146.8496  139.2043  151.9199 H   0  0  0  0  0  0  0  0  0  0  0  0
  146.0466  139.4086  153.4650 H   0  0  0  0  0  0  0  0  0  0  0  0
  148.3750  140.2602  153.5792 H   0  0  0  0  0  0  0  0  0  0  0  0
  148.9985  138.7334  153.0006 H   0  0  0  0  0  0  0  0  0  0  0  0
  147.3210  136.9536  152.5183 H   0  0  0  0  0  0  0  0  0  0  0  0
  1  2  1  0  0  0  0
  1 21  1  0  0  0  0
  1 22  1  0  0  0  0
  1 23  1  0  0  0  0
  2 20  1  0  0  0  0
  2  3  2  0  0  0  0
  3  4  1  0  0  0  0
  3 24  1  0  0  0  0
  4  5  1  0  0  0  0
  4 19  2  0  0  0  0
  5  6  1  0  0  0  0
  5 25  1  0  0  0  0
  6  7  2  0  0  0  0
  6  8  1  0  0  0  0
  8  9  1  0  0  0  0
  8 26  1  0  0  0  0
  9 18  1  0  0  0  0
  9 10  1  0  0  0  0
  9 27  1  0  0  0  0
 10 11  1  0  0  0  0
 10 28  1  0  0  0  0
 10 29  1  0  0  0  0
 11 12  1  0  0  0  0
 11 30  1  0  0  0  0
 11 31  1  0  0  0  0
 12 13  1  0  0  0  0
 12 17  1  0  0  0  0
 12 40  1  0  0  0  0
 13 14  1  0  0  0  0
 13 32  1  0  0  0  0
 13 33  1  0  0  0  0
 14 15  1  0  0  0  0
 14 16  2  0  0  0  0
 15 34  1  0  0  0  0
 15 35  1  0  0  0  0
 17 18  1  0  0  0  0
 17 36  1  0  0  0  0
 17 37  1  0  0  0  0
 18 38  1  0  0  0  0
 18 39  1  0  0  0  0
 19 20  1  0  0  0  0
M  CHG  1  12   1
M  END
> <s_m_source_file>
AV-unprocessed.smi

> <i_m_source_file_index>
1417

> <i_lp_mmshare_version>
43012

> <i_f3d_flags>
0

> <s_epik_input>
W0NIM11jMVtjSF1jKG5vMSlbTkhdQyg9TylbTkhdW0NIXTJbQ0gyXVtDSDJdTihbQ0gyXVtDSDJdMilbQ0gyXUMoPU8pW05IMl0=

> <s_epik_cmdline>
J2VwaWtfcHl0aG9uJywgJy1waCcsICc3LjAnLCAnLXRuJywgJzgnLCAnLW1hJywgJzIwMCcsICctbWV0YWxfYmluZGluZycsICctaW1hZScsICc8aW5maWxlLm1hZT4nLCAnLW9tYWUnLCAnPG91dGZpbGUubWFlPic=

> <r_epik_Ionization_Penalty>
0.867698

> <r_epik_Ionization_Penalty_Charging>
0.867623

> <r_epik_Ionization_Penalty_Neutral>
7.46743e-05

> <r_epik_State_Penalty>
0.904669

> <r_epik_Charging_Adjusted_Penalty>
1.77229

> <i_epik_Tot_Q>
1

> <i_epik_Tot_abs_Q>
1

> <r_epik_Metal_State_Penalty>
0.930696

> <b_epik_Metal_Only>
0

> <s_lp_Force_Field>
OPLS_2005

> <r_lp_Energy>
11.2149

> <b_lp_Chiralities_Consistent>
1

> <s_lp_Variant>
AV-unprocessed.smi:1417-2

> <Gold.Version>
5.8.1

> <Gold.Id.Protein>
6NUR|6NUR_protein|mol2

> <Gold.PLP.Fitness>
39.4737

> <Gold.PLP.PLP>
-26.1194

> <Gold.PLP.part.hbond>
-4.0000

> <Gold.PLP.part.metal>
0.0000

> <Gold.PLP.part.buried>
-3.2950

> <Gold.PLP.part.nonpolar>
-19.2467

> <Gold.PLP.part.repulsive>
0.4521

> <Gold.PLP.ligand.clash>
0.0000

> <Gold.PLP.ligand.torsion>
0.8365

> <Gold.PLP.Chemscore.Hbond>
5.0000

> <Gold.PLP.Chemscore.CHOScore>
0.0000

> <Gold.PLP.Chemscore.Metal>
0.0000

> <Gold.Chemscore.Hbonds>
donor molecule, donor type, donor heavy atom, donor atom, acceptor molecule, acceptor atom, score
      L1  H    12    40       P1  7948  2.00
      L1  H    15    34       P1  7921  1.00
      L1  H    15    35       P1 10171  1.00
      P1  H  7997  8009       L1    19  1.00

> <Gold.PLP.Chemscore.Internal.Correction>
0.0273

> <Gold.Rescore>
     Score         DG    S(hbond)    S(metal)    S(lipo)     H(rot)  DE(clash)    DE(int)     intcor
     15.54     -17.56       3.40        0.00      50.96       2.05       0.22       1.80       ----

> <Gold.Chemscore.Fitness>
15.5395

> <Gold.Chemscore.DG>
-17.5588

> <Gold.Chemscore.ZeroCoef>
-5.4800

> <Gold.Chemscore.Hbond>
3.3994

> <Gold.Chemscore.Metal>
0.0000

> <Gold.Chemscore.Lipo>
50.9570

> <Gold.Chemscore.Internal_Hbond>
0.0000

> <Gold.Chemscore.DEClash>
0.2188

> <Gold.Chemscore.DEInternal>
1.8005

> <Gold.Chemscore.Rot>
2.0457

> <Gold.Chemscore.Internal.Correction>
   9.000000E+99

> <Gold.Chemscore.Hbonds>
donor molecule, donor type, donor heavy atom, donor atom, acceptor molecule, acceptor atom, score
      L1  H    12    40       P1  7948  1.00
      L1  H    15    34       P1  7921  1.00
      L1  H    15    35       P1 10171  0.99
      P1  H  7997  8009       L1    19  0.36

> <Gold.Chemscore.Hbond.Weighted>
-11.3540

> <Gold.Chemscore.Metal.Weighted>
-0.0000

> <Gold.Chemscore.Lipo.Weighted>
-5.9620

> <Gold.Chemscore.Internal_Hbond.Weighted>
0.0000

> <Gold.Chemscore.DEClash.Weighted>
0.2188

> <Gold.Chemscore.DEInternal.Weighted>
1.8005

> <Gold.Chemscore.Rot.Weighted>
5.2371

> <Gold.Chemscore.Internal.Correction.Weighted>
   9.000000E+99

> <Gold.Protein.RotatedTorsions>
[ 6907 6896 6895 6894 ] final   78.46 input  -60.11 | X-H torsion
[ 7974 7965 7964 7962 ] final -160.45 input  175.53 | X-H torsion
[ 8008 7997 7996 7995 ] final  149.37 input   59.86 | X-H torsion
[ 10167 10162 10161 10158 ] final  -44.75 input  -65.29 | X-H torsion
[ 10718 10713 10712 10709 ] final   92.25 input   66.30 | X-H torsion
[ 10763 10752 10751 10750 ] final -169.78 input  -60.55 | X-H torsion
[ 11005 11000 10999 10996 ] final  -66.74 input  -57.11 | X-H torsion

> <Gold.Protein.ActiveResidues>
 VAL166  LYS551  ARG553  GLY616  TRP617  ASP618  TYR619  PRO620  LYS621  CYS622 
 ASP623  PHE694  ASN695  SER759  ASP760  ASP761  ALA762  ILE779  LEU786  VAL792 
 PHE793  MET794  SER795  GLU796  ALA797  LYS798  CYS799  TRP800  GLU811  SER814 

> <Gold.Protein.RotatedAtoms>
  152.5160  134.3660  159.9301 H   0  0  0  0  0  0  0  0  0  0  0  0  # atno 6907 bound_to 6896
  151.3613  133.3882  159.2698 H   0  0  0  0  0  0  0  0  0  0  0  0  # atno 6908 bound_to 6896
  150.9649  134.9051  159.7811 H   0  0  0  0  0  0  0  0  0  0  0  0  # atno 6909 bound_to 6896
  144.7427  140.3540  143.6110 H   0  0  0  0  0  0  0  0  0  0  0  0  # atno 7974 bound_to 7965
  156.2757  140.2103  156.5848 H   0  0  0  0  0  0  0  0  0  0  0  0  # atno 8008 bound_to 7997
  154.7030  140.0519  157.0499 H   0  0  0  0  0  0  0  0  0  0  0  0  # atno 8009 bound_to 7997
  155.0709  140.3176  155.4633 H   0  0  0  0  0  0  0  0  0  0  0  0  # atno 8010 bound_to 7997
  140.6885  143.2914  151.3540 H   0  0  0  0  0  0  0  0  0  0  0  0  # atno 10167 bound_to 10162
  157.6959  131.0436  150.3852 H   0  0  0  0  0  0  0  0  0  0  0  0  # atno 10718 bound_to 10713
  154.6487  135.2908  155.0014 H   0  0  0  0  0  0  0  0  0  0  0  0  # atno 10763 bound_to 10752
  154.1115  135.6562  153.4890 H   0  0  0  0  0  0  0  0  0  0  0  0  # atno 10764 bound_to 10752
  153.0364  135.5266  154.7385 H   0  0  0  0  0  0  0  0  0  0  0  0  # atno 10765 bound_to 10752
  141.1490  133.6705  156.6186 H   0  0  0  0  0  0  0  0  0  0  0  0  # atno 11005 bound_to 11000
  145.7247  139.1719  143.2465 LP  0  0  0  0  0  0  0  0  0  0  0  0  # atno 17320 bound_to 7965
  146.1251  140.7258  142.9439 LP  0  0  0  0  0  0  0  0  0  0  0  0  # atno 17321 bound_to 7965
  139.6265  144.0804  152.2438 LP  0  0  0  0  0  0  0  0  0  0  0  0  # atno 17342 bound_to 10162
  140.0265  144.6113  150.7523 LP  0  0  0  0  0  0  0  0  0  0  0  0  # atno 17343 bound_to 10162
  156.4262  130.3963  149.6791 LP  0  0  0  0  0  0  0  0  0  0  0  0  # atno 17370 bound_to 10713
  156.4025  130.7682  151.2690 LP  0  0  0  0  0  0  0  0  0  0  0  0  # atno 17371 bound_to 10713
  140.3558  134.7730  157.4499 LP  0  0  0  0  0  0  0  0  0  0  0  0  # atno 17394 bound_to 11000
  140.0824  134.5712  155.8526 LP  0  0  0  0  0  0  0  0  0  0  0  0  # atno 17395 bound_to 11000

$$$$
