AV-unprocessed.smi:2844|AV-procd|sdf|10939|dock1
  -GOLD-   2272015383D 1   1.00000     0.00000
 Structure written by MMmdl.
 38 40  0  0  0  0  0  0  0  0  1 V2000
  153.2509  142.7770  161.7041 C   0  0  0  0  0  0  0  0  0  0  0  0
  152.6561  142.4275  160.3512 C   0  0  0  0  0  0  0  0  0  0  0  0
  153.0295  141.2146  159.7297 C   0  0  0  0  0  0  0  0  0  0  0  0
  152.5045  140.8555  158.4690 C   0  0  0  0  0  0  0  0  0  0  0  0
  152.7305  139.7353  157.6877 N   0  0  0  0  0  0  0  0  0  0  0  0
  151.9607  139.9854  156.6323 C   0  0  0  0  0  0  0  0  0  0  0  0
  151.2623  141.1373  156.6374 N   0  0  0  0  0  0  0  0  0  0  0  0
  150.3688  141.6260  155.6027 C   0  0  0  0  0  0  0  0  0  0  0  0
  149.5353  140.5015  154.9603 C   0  0  2  0  0  0  0  0  0  0  0  0
  150.2887  139.8798  153.9356 O   0  0  0  0  0  0  0  0  0  0  0  0
  148.2071  141.0313  154.3861 C   0  0  0  0  0  0  0  0  0  0  0  0
  147.2681  139.9677  154.0752 N   0  0  0  0  0  0  0  0  0  0  0  0
  147.2307  139.1672  152.9499 C   0  0  0  0  0  0  0  0  0  0  0  0
  146.1731  138.3302  153.1353 C   0  0  0  0  0  0  0  0  0  0  0  0
  145.6302  137.0979  152.0580 Cl  0  0  0  0  0  0  0  0  0  0  0  0
  145.6068  138.6714  154.3898 C   0  0  0  0  0  0  0  0  0  0  0  0
  146.2771  139.6660  154.9532 N   0  0  0  0  0  0  0  0  0  0  0  0
  151.5886  141.7502  157.8420 C   0  0  0  0  0  0  0  0  0  0  0  0
  151.2057  142.9575  158.4523 C   0  0  0  0  0  0  0  0  0  0  0  0
  151.7405  143.3016  159.7116 C   0  0  0  0  0  0  0  0  0  0  0  0
  151.3254  144.6101  160.3610 C   0  0  0  0  0  0  0  0  0  0  0  0
  153.9164  141.9910  162.0618 H   0  0  0  0  0  0  0  0  0  0  0  0
  152.4634  142.9107  162.4460 H   0  0  0  0  0  0  0  0  0  0  0  0
  153.8278  143.6998  161.6396 H   0  0  0  0  0  0  0  0  0  0  0  0
  153.7268  140.5486  160.2164 H   0  0  0  0  0  0  0  0  0  0  0  0
  151.9000  139.2914  155.8067 H   0  0  0  0  0  0  0  0  0  0  0  0
  149.7121  142.3745  156.0476 H   0  0  0  0  0  0  0  0  0  0  0  0
  150.9609  142.1430  154.8459 H   0  0  0  0  0  0  0  0  0  0  0  0
  149.3167  139.7462  155.7167 H   0  0  0  0  0  0  0  0  0  0  0  0
  150.6374  139.0671  154.2695 H   0  0  0  0  0  0  0  0  0  0  0  0
  147.7301  141.6996  155.1041 H   0  0  0  0  0  0  0  0  0  0  0  0
  148.3868  141.6218  153.4861 H   0  0  0  0  0  0  0  0  0  0  0  0
  147.9396  139.2618  152.1406 H   0  0  0  0  0  0  0  0  0  0  0  0
  144.7553  138.2433  154.8982 H   0  0  0  0  0  0  0  0  0  0  0  0
  150.5082  143.6140  157.9533 H   0  0  0  0  0  0  0  0  0  0  0  0
  150.6323  145.1656  159.7289 H   0  0  0  0  0  0  0  0  0  0  0  0
  152.1960  145.2419  160.5381 H   0  0  0  0  0  0  0  0  0  0  0  0
  150.8321  144.4236  161.3151 H   0  0  0  0  0  0  0  0  0  0  0  0
  1  2  1  0  0  0  0
  1 22  1  0  0  0  0
  1 23  1  0  0  0  0
  1 24  1  0  0  0  0
  2 20  1  0  0  0  0
  2  3  2  0  0  0  0
  3  4  1  0  0  0  0
  3 25  1  0  0  0  0
  4 18  2  0  0  0  0
  4  5  1  0  0  0  0
  5  6  2  0  0  0  0
  6  7  1  0  0  0  0
  6 26  1  0  0  0  0
  7  8  1  0  0  0  0
  7 18  1  0  0  0  0
  8  9  1  0  0  0  0
  8 27  1  0  0  0  0
  8 28  1  0  0  0  0
  9 10  1  0  0  0  0
  9 11  1  0  0  0  0
  9 29  1  0  0  0  0
 10 30  1  0  0  0  0
 11 12  1  0  0  0  0
 11 31  1  0  0  0  0
 11 32  1  0  0  0  0
 12 17  1  0  0  0  0
 12 13  1  0  0  0  0
 13 14  2  0  0  0  0
 13 33  1  0  0  0  0
 14 15  1  0  0  0  0
 14 16  1  0  0  0  0
 16 17  2  0  0  0  0
 16 34  1  0  0  0  0
 18 19  1  0  0  0  0
 19 20  2  0  0  0  0
 19 35  1  0  0  0  0
 20 21  1  0  0  0  0
 21 36  1  0  0  0  0
 21 37  1  0  0  0  0
 21 38  1  0  0  0  0
M  END
> <s_m_source_file>
AV-unprocessed.smi

> <i_m_source_file_index>
2844

> <i_lp_mmshare_version>
43012

> <i_f3d_flags>
0

> <s_epik_input>
W0NIM11jKFtjSF0xKWMoW0NIM10pW2NIXWMoYzEyKW4oW2NIXW4yKVtDSDJdW0NASF0oW09IXSlbQ0gyXW4zW2NIXWMoQ2wpW2NIXW4z

> <s_epik_cmdline>
J2VwaWtfcHl0aG9uJywgJy1waCcsICc3LjAnLCAnLXRuJywgJzgnLCAnLW1hJywgJzIwMCcsICctbWV0YWxfYmluZGluZycsICctaW1hZScsICc8aW5maWxlLm1hZT4nLCAnLW9tYWUnLCAnPG91dGZpbGUubWFlPic=

> <r_lp_tautomer_probability>
1

> <r_epik_Ionization_Penalty>
0.1021

> <r_epik_Ionization_Penalty_Charging>
0

> <r_epik_Ionization_Penalty_Neutral>
0.1021

> <r_epik_State_Penalty>
0.0920694

> <r_epik_Charging_Adjusted_Penalty>
0.0920694

> <i_epik_Tot_Q>
0

> <i_epik_Tot_abs_Q>
0

> <r_epik_Metal_State_Penalty>
0.0784292

> <b_epik_Metal_Only>
0

> <s_lp_Force_Field>
OPLS_2005

> <r_lp_Energy>
10.8301

> <b_lp_Chiralities_Consistent>
1

> <s_lp_Variant>
AV-unprocessed.smi:2844-1

> <Gold.Version>
5.8.1

> <Gold.Id.Protein>
6NUR|6NUR_protein|mol2

> <Gold.PLP.Fitness>
50.4250

> <Gold.PLP.PLP>
-43.3846

> <Gold.PLP.part.hbond>
-3.0000

> <Gold.PLP.part.metal>
0.0000

> <Gold.PLP.part.buried>
-3.4808

> <Gold.PLP.part.nonpolar>
-36.0384

> <Gold.PLP.part.repulsive>
0.0696

> <Gold.PLP.ligand.clash>
0.0000

> <Gold.PLP.ligand.torsion>
0.9854

> <Gold.PLP.Chemscore.Hbond>
2.0000

> <Gold.PLP.Chemscore.CHOScore>
1.0000

> <Gold.PLP.Chemscore.Metal>
0.0000

> <Gold.Chemscore.Hbonds>
donor molecule, donor type, donor heavy atom, donor atom, acceptor molecule, acceptor atom, score
      P1  H  7989  7998       L1    10  1.00
      P1  H  7997  8008       L1     5  1.00
      L1  C    13    33       P1  7957  1.00

> <Gold.PLP.Chemscore.Internal.Correction>
0.0112

> <Gold.Rescore>
     Score         DG    S(hbond)    S(metal)    S(lipo)     H(rot)  DE(clash)    DE(int)     intcor
     16.52     -17.38       0.96        0.00     121.36       2.15       0.11       0.75       ----

> <Gold.Chemscore.Fitness>
16.5212

> <Gold.Chemscore.DG>
-17.3815

> <Gold.Chemscore.ZeroCoef>
-5.4800

> <Gold.Chemscore.Hbond>
0.9626

> <Gold.Chemscore.Metal>
0.0000

> <Gold.Chemscore.Lipo>
121.3607

> <Gold.Chemscore.Internal_Hbond>
0.0000

> <Gold.Chemscore.DEClash>
0.1141

> <Gold.Chemscore.DEInternal>
0.7462

> <Gold.Chemscore.Rot>
2.1534

> <Gold.Chemscore.Internal.Correction>
   9.000000E+99

> <Gold.Chemscore.Hbonds>
donor molecule, donor type, donor heavy atom, donor atom, acceptor molecule, acceptor atom, score
      P1  H  7989  7998       L1    10  0.48
      P1  H  7997  8008       L1     5  0.13

> <Gold.Chemscore.Hbond.Weighted>
-3.2150

> <Gold.Chemscore.Metal.Weighted>
-0.0000

> <Gold.Chemscore.Lipo.Weighted>
-14.1992

> <Gold.Chemscore.Internal_Hbond.Weighted>
0.0000

> <Gold.Chemscore.DEClash.Weighted>
0.1141

> <Gold.Chemscore.DEInternal.Weighted>
0.7462

> <Gold.Chemscore.Rot.Weighted>
5.5127

> <Gold.Chemscore.Internal.Correction.Weighted>
   9.000000E+99

> <Gold.Protein.RotatedTorsions>
[ 6907 6896 6895 6894 ] final -120.10 input  -60.11 | X-H torsion
[ 7974 7965 7964 7962 ] final -135.10 input  175.53 | X-H torsion
[ 8008 7997 7996 7995 ] final  -81.40 input   59.86 | X-H torsion
[ 10167 10162 10161 10158 ] final  -76.21 input  -65.29 | X-H torsion
[ 10718 10713 10712 10709 ] final -144.70 input   66.30 | X-H torsion
[ 10763 10752 10751 10750 ] final -175.11 input  -60.55 | X-H torsion
[ 11005 11000 10999 10996 ] final   45.30 input  -57.11 | X-H torsion

> <Gold.Protein.ActiveResidues>
 VAL166  LYS551  ARG553  GLY616  TRP617  ASP618  TYR619  PRO620  LYS621  CYS622 
 ASP623  PHE694  ASN695  SER759  ASP760  ASP761  ALA762  ILE779  LEU786  VAL792 
 PHE793  MET794  SER795  GLU796  ALA797  LYS798  CYS799  TRP800  GLU811  SER814 

> <Gold.Protein.RotatedAtoms>
  150.8363  133.8008  159.3078 H   0  0  0  0  0  0  0  0  0  0  0  0  # atno 6907 bound_to 6896
  151.5723  135.1060  160.0007 H   0  0  0  0  0  0  0  0  0  0  0  0  # atno 6908 bound_to 6896
  152.4435  133.7450  159.6718 H   0  0  0  0  0  0  0  0  0  0  0  0  # atno 6909 bound_to 6896
  144.9044  140.6813  143.5065 H   0  0  0  0  0  0  0  0  0  0  0  0  # atno 7974 bound_to 7965
  154.5980  140.0648  156.9330 H   0  0  0  0  0  0  0  0  0  0  0  0  # atno 8008 bound_to 7997
  155.2181  140.3328  155.4301 H   0  0  0  0  0  0  0  0  0  0  0  0  # atno 8009 bound_to 7997
  156.2300  140.1836  156.7251 H   0  0  0  0  0  0  0  0  0  0  0  0  # atno 8010 bound_to 7997
  140.4876  143.2387  151.7958 H   0  0  0  0  0  0  0  0  0  0  0  0  # atno 10167 bound_to 10162
  156.3734  130.7800  151.1983 H   0  0  0  0  0  0  0  0  0  0  0  0  # atno 10718 bound_to 10713
  154.5882  135.2842  155.0662 H   0  0  0  0  0  0  0  0  0  0  0  0  # atno 10763 bound_to 10752
  154.1973  135.6430  153.5080 H   0  0  0  0  0  0  0  0  0  0  0  0  # atno 10764 bound_to 10752
  153.0112  135.5460  154.6559 H   0  0  0  0  0  0  0  0  0  0  0  0  # atno 10765 bound_to 10752
  140.1473  134.4507  155.8407 H   0  0  0  0  0  0  0  0  0  0  0  0  # atno 11005 bound_to 11000
  145.3561  139.1693  143.4408 LP  0  0  0  0  0  0  0  0  0  0  0  0  # atno 17320 bound_to 7965
  146.3126  140.3618  142.8665 LP  0  0  0  0  0  0  0  0  0  0  0  0  # atno 17321 bound_to 7965
  139.4845  144.4691  151.9447 LP  0  0  0  0  0  0  0  0  0  0  0  0  # atno 17342 bound_to 10162
  140.3777  144.2775  150.5912 LP  0  0  0  0  0  0  0  0  0  0  0  0  # atno 17343 bound_to 10162
  157.7486  131.0365  150.4414 LP  0  0  0  0  0  0  0  0  0  0  0  0  # atno 17370 bound_to 10713
  156.4645  130.4039  149.6555 LP  0  0  0  0  0  0  0  0  0  0  0  0  # atno 17371 bound_to 10713
  141.2194  133.6857  156.7356 LP  0  0  0  0  0  0  0  0  0  0  0  0  # atno 17394 bound_to 11000
  140.2648  134.8438  157.3793 LP  0  0  0  0  0  0  0  0  0  0  0  0  # atno 17395 bound_to 11000

$$$$
