AV-unprocessed.smi:863|AV-procd|sdf|3984|dock9
  -GOLD-   22720 1463D 1   1.00000     0.00000
 Structure written by MMmdl.
 42 44  0  0  0  0  0  0  0  0  1 V2000
  156.9264  140.5147  158.9138 O   0  0  0  0  0  0  0  0  0  0  0  0
  156.6897  139.7802  159.8730 C   0  0  0  0  0  0  0  0  0  0  0  0
  157.5388  138.5302  160.1069 C   0  0  0  0  0  0  0  0  0  0  0  0
  157.5244  137.6557  158.8823 C   0  0  0  0  0  0  0  0  0  0  0  0
  158.1580  136.3964  158.6894 C   0  0  0  0  0  0  0  0  0  0  0  0
  157.8191  136.0605  157.4106 C   0  0  0  0  0  0  0  0  0  0  0  0
  157.0465  137.0274  156.8544 O   0  0  0  0  0  0  0  0  0  0  0  0
  156.8658  138.0433  157.8002 N   0  0  0  0  0  0  0  0  0  0  0  0
  155.7036  140.0086  160.7549 N   0  0  0  0  0  0  0  0  0  0  0  0
  154.7873  141.1442  160.7181 C   0  0  2  0  0  0  0  0  0  0  0  0
  153.9106  141.1444  161.9751 C   0  0  0  0  0  0  0  0  0  0  0  0
  152.8622  142.2627  161.9003 C   0  0  0  0  0  0  0  0  0  0  0  0
  152.0830  142.1378  160.7120 O   0  0  0  0  0  0  0  0  0  0  0  0
  152.7963  142.1841  159.4691 C   0  0  0  0  0  0  0  0  0  0  0  0
  151.7538  141.8700  158.3703 C   0  0  0  0  0  0  0  0  0  0  0  0
  150.6748  142.9598  158.2443 C   0  0  0  0  0  0  0  0  0  0  0  0
  151.3003  144.3397  157.9998 C   0  0  0  0  0  0  0  0  0  0  0  0
  152.3211  144.6800  159.0942 C   0  0  0  0  0  0  0  0  0  0  0  0
  153.4001  143.5904  159.2058 C   0  0  0  0  0  0  0  0  0  0  0  0
  153.8815  141.0796  159.4751 C   0  0  0  0  0  0  0  0  0  0  0  0
  158.5576  138.8191  160.3698 H   0  0  0  0  0  0  0  0  0  0  0  0
  157.1425  137.9857  160.9647 H   0  0  0  0  0  0  0  0  0  0  0  0
  158.7633  135.8298  159.3812 H   0  0  0  0  0  0  0  0  0  0  0  0
  158.0401  135.2092  156.7838 H   0  0  0  0  0  0  0  0  0  0  0  0
  155.5851  139.3524  161.5133 H   0  0  0  0  0  0  0  0  0  0  0  0
  155.3713  142.0656  160.7027 H   0  0  0  0  0  0  0  0  0  0  0  0
  153.4024  140.1841  162.0747 H   0  0  0  0  0  0  0  0  0  0  0  0
  154.5253  141.2678  162.8674 H   0  0  0  0  0  0  0  0  0  0  0  0
  152.1922  142.1961  162.7575 H   0  0  0  0  0  0  0  0  0  0  0  0
  153.3322  143.2441  161.9575 H   0  0  0  0  0  0  0  0  0  0  0  0
  152.2592  141.7613  157.4094 H   0  0  0  0  0  0  0  0  0  0  0  0
  151.2751  140.9107  158.5710 H   0  0  0  0  0  0  0  0  0  0  0  0
  149.9932  142.7130  157.4298 H   0  0  0  0  0  0  0  0  0  0  0  0
  150.0709  142.9874  159.1522 H   0  0  0  0  0  0  0  0  0  0  0  0
  151.7899  144.3527  157.0251 H   0  0  0  0  0  0  0  0  0  0  0  0
  150.5213  145.1018  157.9657 H   0  0  0  0  0  0  0  0  0  0  0  0
  152.7870  145.6417  158.8788 H   0  0  0  0  0  0  0  0  0  0  0  0
  151.8108  144.7923  160.0516 H   0  0  0  0  0  0  0  0  0  0  0  0
  154.1184  143.8724  159.9740 H   0  0  0  0  0  0  0  0  0  0  0  0
  153.9685  143.5658  158.2751 H   0  0  0  0  0  0  0  0  0  0  0  0
  154.4805  141.1401  158.5655 H   0  0  0  0  0  0  0  0  0  0  0  0
  153.3949  140.1031  159.4506 H   0  0  0  0  0  0  0  0  0  0  0  0
  1  2  2  0  0  0  0
  2  3  1  0  0  0  0
  2  9  1  0  0  0  0
  3  4  1  0  0  0  0
  3 21  1  0  0  0  0
  3 22  1  0  0  0  0
  4  8  2  0  0  0  0
  4  5  1  0  0  0  0
  5  6  2  0  0  0  0
  5 23  1  0  0  0  0
  6  7  1  0  0  0  0
  6 24  1  0  0  0  0
  7  8  1  0  0  0  0
  9 10  1  0  0  0  0
  9 25  1  0  0  0  0
 10 20  1  0  0  0  0
 10 11  1  0  0  0  0
 10 26  1  0  0  0  0
 11 12  1  0  0  0  0
 11 27  1  0  0  0  0
 11 28  1  0  0  0  0
 12 13  1  0  0  0  0
 12 29  1  0  0  0  0
 12 30  1  0  0  0  0
 13 14  1  0  0  0  0
 14 19  1  0  0  0  0
 14 15  1  0  0  0  0
 14 20  1  0  0  0  0
 15 16  1  0  0  0  0
 15 31  1  0  0  0  0
 15 32  1  0  0  0  0
 16 17  1  0  0  0  0
 16 33  1  0  0  0  0
 16 34  1  0  0  0  0
 17 18  1  0  0  0  0
 17 35  1  0  0  0  0
 17 36  1  0  0  0  0
 18 19  1  0  0  0  0
 18 37  1  0  0  0  0
 18 38  1  0  0  0  0
 19 39  1  0  0  0  0
 19 40  1  0  0  0  0
 20 41  1  0  0  0  0
 20 42  1  0  0  0  0
M  END
> <s_m_source_file>
AV-unprocessed.smi

> <i_m_source_file_index>
863

> <i_lp_mmshare_version>
43012

> <i_f3d_flags>
0

> <s_epik_input>
bjFvW2NIXVtjSF1jMVtDSDJdQyg9TylbTkhdW0NAQEhdKFtDSDJdMilbQ0gyXVtDSDJdT0MyM1tDSDJdW0NIMl1bQ0gyXVtDSDJdW0NIMl0z

> <s_epik_cmdline>
J2VwaWtfcHl0aG9uJywgJy1waCcsICc3LjAnLCAnLXRuJywgJzgnLCAnLW1hJywgJzIwMCcsICctbWV0YWxfYmluZGluZycsICctaW1hZScsICc8aW5maWxlLm1hZT4nLCAnLW9tYWUnLCAnPG91dGZpbGUubWFlPic=

> <r_lp_tautomer_probability>
1

> <r_epik_Ionization_Penalty>
1.10177e-07

> <r_epik_Ionization_Penalty_Charging>
0

> <r_epik_Ionization_Penalty_Neutral>
1.10177e-07

> <r_epik_State_Penalty>
-0

> <r_epik_Charging_Adjusted_Penalty>
0

> <i_epik_Tot_Q>
0

> <i_epik_Tot_abs_Q>
0

> <r_epik_Metal_State_Penalty>
-0

> <b_epik_Metal_Only>
0

> <s_lp_Force_Field>
OPLS_2005

> <r_lp_Energy>
15.5763

> <b_lp_Chiralities_Consistent>
1

> <s_lp_Variant>
AV-unprocessed.smi:863-1

> <Gold.Version>
5.8.1

> <Gold.Id.Protein>
6NUR|6NUR_protein|mol2

> <Gold.PLP.Fitness>
38.4941

> <Gold.PLP.PLP>
-36.0194

> <Gold.PLP.part.hbond>
-2.1581

> <Gold.PLP.part.metal>
0.0000

> <Gold.PLP.part.buried>
-2.3358

> <Gold.PLP.part.nonpolar>
-30.8202

> <Gold.PLP.part.repulsive>
0.2865

> <Gold.PLP.ligand.clash>
0.0000

> <Gold.PLP.ligand.torsion>
0.0592

> <Gold.PLP.Chemscore.Hbond>
0.8640

> <Gold.PLP.Chemscore.CHOScore>
0.0000

> <Gold.PLP.Chemscore.Metal>
0.0000

> <Gold.Chemscore.Hbonds>
donor molecule, donor type, donor heavy atom, donor atom, acceptor molecule, acceptor atom, score
      P1  H  7997  8010       L1     1  0.86

> <Gold.PLP.Chemscore.Internal.Correction>
0.0011

> <Gold.Rescore>
     Score         DG    S(hbond)    S(metal)    S(lipo)     H(rot)  DE(clash)    DE(int)     intcor
     16.90     -18.60       0.89        0.00     117.74       1.42       0.11       1.58       ----

> <Gold.Chemscore.Fitness>
16.9017

> <Gold.Chemscore.DG>
-18.5968

> <Gold.Chemscore.ZeroCoef>
-5.4800

> <Gold.Chemscore.Hbond>
0.8883

> <Gold.Chemscore.Metal>
0.0000

> <Gold.Chemscore.Lipo>
117.7407

> <Gold.Chemscore.Internal_Hbond>
0.0000

> <Gold.Chemscore.DEClash>
0.1147

> <Gold.Chemscore.DEInternal>
1.5803

> <Gold.Chemscore.Rot>
1.4164

> <Gold.Chemscore.Internal.Correction>
   9.000000E+99

> <Gold.Chemscore.Hbonds>
donor molecule, donor type, donor heavy atom, donor atom, acceptor molecule, acceptor atom, score
      P1  H  7997  8010       L1     1  0.74

> <Gold.Chemscore.Hbond.Weighted>
-2.9670

> <Gold.Chemscore.Metal.Weighted>
-0.0000

> <Gold.Chemscore.Lipo.Weighted>
-13.7757

> <Gold.Chemscore.Internal_Hbond.Weighted>
0.0000

> <Gold.Chemscore.DEClash.Weighted>
0.1147

> <Gold.Chemscore.DEInternal.Weighted>
1.5803

> <Gold.Chemscore.Rot.Weighted>
3.6259

> <Gold.Chemscore.Internal.Correction.Weighted>
   9.000000E+99

> <Gold.Protein.RotatedTorsions>
[ 6907 6896 6895 6894 ] final   75.32 input  -60.11 | X-H torsion
[ 7974 7965 7964 7962 ] final   19.01 input  175.53 | X-H torsion
[ 8008 7997 7996 7995 ] final  -47.04 input   59.86 | X-H torsion
[ 10167 10162 10161 10158 ] final   44.65 input  -65.29 | X-H torsion
[ 10718 10713 10712 10709 ] final -174.95 input   66.30 | X-H torsion
[ 10763 10752 10751 10750 ] final  172.64 input  -60.55 | X-H torsion
[ 11005 11000 10999 10996 ] final    0.65 input  -57.11 | X-H torsion

> <Gold.Protein.ActiveResidues>
 VAL166  LYS551  ARG553  GLY616  TRP617  ASP618  TYR619  PRO620  LYS621  CYS622 
 ASP623  PHE694  ASN695  SER759  ASP760  ASP761  ALA762  ILE779  LEU786  VAL792 
 PHE793  MET794  SER795  GLU796  ALA797  LYS798  CYS799  TRP800  GLU811  SER814 

> <Gold.Protein.RotatedAtoms>
  152.5020  134.4138  159.9457 H   0  0  0  0  0  0  0  0  0  0  0  0  # atno 6907 bound_to 6896
  151.4108  133.3722  159.2751 H   0  0  0  0  0  0  0  0  0  0  0  0  # atno 6908 bound_to 6896
  150.9293  134.8731  159.7600 H   0  0  0  0  0  0  0  0  0  0  0  0  # atno 6909 bound_to 6896
  146.2164  139.8374  142.8648 H   0  0  0  0  0  0  0  0  0  0  0  0  # atno 7974 bound_to 7965
  154.4013  140.1356  156.4111 H   0  0  0  0  0  0  0  0  0  0  0  0  # atno 8008 bound_to 7997
  155.7733  140.3483  155.5238 H   0  0  0  0  0  0  0  0  0  0  0  0  # atno 8009 bound_to 7997
  155.8746  140.0977  157.1517 H   0  0  0  0  0  0  0  0  0  0  0  0  # atno 8010 bound_to 7997
  140.3321  144.2575  150.6166 H   0  0  0  0  0  0  0  0  0  0  0  0  # atno 10167 bound_to 10162
  156.7926  130.9523  151.3120 H   0  0  0  0  0  0  0  0  0  0  0  0  # atno 10718 bound_to 10713
  154.4289  135.2759  155.1926 H   0  0  0  0  0  0  0  0  0  0  0  0  # atno 10763 bound_to 10752
  154.3840  135.6081  153.5810 H   0  0  0  0  0  0  0  0  0  0  0  0  # atno 10764 bound_to 10752
  152.9835  135.5887  154.4597 H   0  0  0  0  0  0  0  0  0  0  0  0  # atno 10765 bound_to 10752
  140.6241  133.9634  155.8240 H   0  0  0  0  0  0  0  0  0  0  0  0  # atno 11005 bound_to 11000
  145.2934  141.0174  143.3650 LP  0  0  0  0  0  0  0  0  0  0  0  0  # atno 17320 bound_to 7965
  144.9060  139.4589  143.6610 LP  0  0  0  0  0  0  0  0  0  0  0  0  # atno 17321 bound_to 7965
  140.5387  143.2228  151.8120 LP  0  0  0  0  0  0  0  0  0  0  0  0  # atno 17342 bound_to 10162
  139.4854  144.4628  151.9520 LP  0  0  0  0  0  0  0  0  0  0  0  0  # atno 17343 bound_to 10162
  157.6593  130.8952  149.9795 LP  0  0  0  0  0  0  0  0  0  0  0  0  # atno 17370 bound_to 10713
  156.1150  130.3648  149.9984 LP  0  0  0  0  0  0  0  0  0  0  0  0  # atno 17371 bound_to 10713
  141.0721  134.0189  157.3510 LP  0  0  0  0  0  0  0  0  0  0  0  0  # atno 17394 bound_to 11000
  139.9141  135.0194  156.7813 LP  0  0  0  0  0  0  0  0  0  0  0  0  # atno 17395 bound_to 11000

$$$$
