AV-unprocessed.smi:1692|AV-procd|sdf|6783|dock4
  -GOLD-   22720 7543D 1   1.00000     0.00000
 Structure written by MMmdl.
 45 46  0  0  0  0  0  0  0  0  1 V2000
  144.8305  144.8267  152.8891 C   0  0  0  0  0  0  0  0  0  0  0  0
  145.4537  144.2520  154.1655 C   0  0  2  0  0  0  0  0  0  0  0  0
  146.0407  142.8444  153.9440 C   0  0  0  0  0  0  0  0  0  0  0  0
  146.5595  142.2667  155.1818 N   0  0  0  0  0  0  0  0  0  0  0  0
  147.0991  140.9209  154.9912 C   0  0  0  0  0  0  0  0  0  0  0  0
  148.1782  140.8018  153.9015 C   0  0  0  0  0  0  0  0  0  0  0  0
  149.5996  140.8452  154.4850 C   0  0  0  0  0  0  0  0  0  0  0  0
  149.7654  141.9570  155.4144 N   0  0  0  0  0  0  0  0  0  0  0  0
  150.4790  141.9122  156.5493 C   0  0  0  0  0  0  0  0  0  0  0  0
  151.0807  140.9085  156.9330 O   0  0  0  0  0  0  0  0  0  0  0  0
  150.4451  143.0930  157.1920 N   0  0  0  0  0  0  0  0  0  0  0  0
  151.0689  143.4442  158.4190 C   0  0  0  0  0  0  0  0  0  0  0  0
  150.9821  144.8120  158.7647 C   0  0  0  0  0  0  0  0  0  0  0  0
  151.5671  145.2623  159.9641 C   0  0  0  0  0  0  0  0  0  0  0  0
  152.2250  144.3321  160.7883 C   0  0  0  0  0  0  0  0  0  0  0  0
  152.2667  142.9892  160.3706 C   0  0  0  0  0  0  0  0  0  0  0  0
  151.7067  142.5555  159.2215 N   0  0  0  0  0  0  0  0  0  0  0  0
  145.4988  142.2664  156.1833 C   0  0  0  0  0  0  0  0  0  0  0  0
  144.9165  143.6744  156.4107 C   0  0  2  0  0  0  0  0  0  0  0  0
  143.7505  143.6661  157.4051 C   0  0  0  0  0  0  0  0  0  0  0  0
  144.4429  144.1855  155.1678 O   0  0  0  0  0  0  0  0  0  0  0  0
  145.5719  144.9089  152.0939 H   0  0  0  0  0  0  0  0  0  0  0  0
  144.4236  145.8221  153.0688 H   0  0  0  0  0  0  0  0  0  0  0  0
  144.0188  144.1947  152.5277 H   0  0  0  0  0  0  0  0  0  0  0  0
  146.2419  144.9265  154.5043 H   0  0  0  0  0  0  0  0  0  0  0  0
  145.2727  142.1914  153.5262 H   0  0  0  0  0  0  0  0  0  0  0  0
  146.8324  142.9124  153.1985 H   0  0  0  0  0  0  0  0  0  0  0  0
  147.5430  140.5883  155.9304 H   0  0  0  0  0  0  0  0  0  0  0  0
  146.2873  140.2228  154.7805 H   0  0  0  0  0  0  0  0  0  0  0  0
  148.0495  139.8725  153.3465 H   0  0  0  0  0  0  0  0  0  0  0  0
  148.0570  141.6134  153.1830 H   0  0  0  0  0  0  0  0  0  0  0  0
  149.8073  139.9217  155.0256 H   0  0  0  0  0  0  0  0  0  0  0  0
  150.3403  140.9100  153.6860 H   0  0  0  0  0  0  0  0  0  0  0  0
  149.3035  142.8220  155.1750 H   0  0  0  0  0  0  0  0  0  0  0  0
  149.9088  143.8266  156.7532 H   0  0  0  0  0  0  0  0  0  0  0  0
  150.4724  145.5136  158.1204 H   0  0  0  0  0  0  0  0  0  0  0  0
  151.5107  146.3032  160.2463 H   0  0  0  0  0  0  0  0  0  0  0  0
  152.6852  144.6393  161.7157 H   0  0  0  0  0  0  0  0  0  0  0  0
  152.7618  142.2432  160.9742 H   0  0  0  0  0  0  0  0  0  0  0  0
  144.7004  141.5897  155.8737 H   0  0  0  0  0  0  0  0  0  0  0  0
  145.8849  141.8809  157.1276 H   0  0  0  0  0  0  0  0  0  0  0  0
  145.6966  144.3361  156.7914 H   0  0  0  0  0  0  0  0  0  0  0  0
  144.0705  143.3005  158.3811 H   0  0  0  0  0  0  0  0  0  0  0  0
  142.9389  143.0265  157.0571 H   0  0  0  0  0  0  0  0  0  0  0  0
  143.3485  144.6701  157.5419 H   0  0  0  0  0  0  0  0  0  0  0  0
  1  2  1  0  0  0  0
  1 22  1  0  0  0  0
  1 23  1  0  0  0  0
  1 24  1  0  0  0  0
  2 21  1  0  0  0  0
  2  3  1  0  0  0  0
  2 25  1  0  0  0  0
  3  4  1  0  0  0  0
  3 26  1  0  0  0  0
  3 27  1  0  0  0  0
  4  5  1  0  0  0  0
  4 18  1  0  0  0  0
  5  6  1  0  0  0  0
  5 28  1  0  0  0  0
  5 29  1  0  0  0  0
  6  7  1  0  0  0  0
  6 30  1  0  0  0  0
  6 31  1  0  0  0  0
  7  8  1  0  0  0  0
  7 32  1  0  0  0  0
  7 33  1  0  0  0  0
  8  9  1  0  0  0  0
  8 34  1  0  0  0  0
  9 10  2  0  0  0  0
  9 11  1  0  0  0  0
 11 12  1  0  0  0  0
 11 35  1  0  0  0  0
 12 17  1  0  0  0  0
 12 13  2  0  0  0  0
 13 14  1  0  0  0  0
 13 36  1  0  0  0  0
 14 15  2  0  0  0  0
 14 37  1  0  0  0  0
 15 16  1  0  0  0  0
 15 38  1  0  0  0  0
 16 17  2  0  0  0  0
 16 39  1  0  0  0  0
 18 19  1  0  0  0  0
 18 40  1  0  0  0  0
 18 41  1  0  0  0  0
 19 20  1  0  0  0  0
 19 21  1  0  0  0  0
 19 42  1  0  0  0  0
 20 43  1  0  0  0  0
 20 44  1  0  0  0  0
 20 45  1  0  0  0  0
M  END
> <s_m_source_file>
AV-unprocessed.smi

> <i_m_source_file_index>
1692

> <i_lp_mmshare_version>
43012

> <i_f3d_flags>
0

> <s_epik_input>
W0NIM11bQ0BASF0xW0NIMl1OKFtDSDJdW0NASF0oTzEpW0NIM10pW0NIMl1bQ0gyXVtDSDJdW05IXUMoPU8pW05IXWMyW2NIXVtjSF1bY0hdW2NIXW4y

> <s_epik_cmdline>
J2VwaWtfcHl0aG9uJywgJy1waCcsICc3LjAnLCAnLXRuJywgJzgnLCAnLW1hJywgJzIwMCcsICctbWV0YWxfYmluZGluZycsICctaW1hZScsICc8aW5maWxlLm1hZT4nLCAnLW9tYWUnLCAnPG91dGZpbGUubWFlPic=

> <r_epik_Ionization_Penalty>
0.594711

> <r_epik_Ionization_Penalty_Charging>
0

> <r_epik_Ionization_Penalty_Neutral>
0.594711

> <r_epik_State_Penalty>
0.608529

> <r_epik_Charging_Adjusted_Penalty>
0.608529

> <i_epik_Tot_Q>
0

> <i_epik_Tot_abs_Q>
0

> <r_epik_Metal_State_Penalty>
0.608528

> <b_epik_Metal_Only>
0

> <s_lp_Force_Field>
OPLS_2005

> <r_lp_Energy>
22.8086

> <b_lp_Chiralities_Consistent>
1

> <s_lp_Variant>
AV-unprocessed.smi:1692-6

> <Gold.Version>
5.8.1

> <Gold.Id.Protein>
6NUR|6NUR_protein|mol2

> <Gold.PLP.Fitness>
47.1645

> <Gold.PLP.PLP>
-42.3395

> <Gold.PLP.part.hbond>
-2.0000

> <Gold.PLP.part.metal>
0.0000

> <Gold.PLP.part.buried>
-5.2523

> <Gold.PLP.part.nonpolar>
-34.2491

> <Gold.PLP.part.repulsive>
0.5244

> <Gold.PLP.ligand.clash>
0.0000

> <Gold.PLP.ligand.torsion>
0.4668

> <Gold.PLP.Chemscore.Hbond>
1.9120

> <Gold.PLP.Chemscore.CHOScore>
0.0000

> <Gold.PLP.Chemscore.Metal>
0.0000

> <Gold.Chemscore.Hbonds>
donor molecule, donor type, donor heavy atom, donor atom, acceptor molecule, acceptor atom, score
      L1  H     8    34       P1  8028  0.98
      L1  H    11    35       P1  8028  1.00

> <Gold.PLP.Chemscore.Internal.Correction>
0.0227

> <Gold.Rescore>
     Score         DG    S(hbond)    S(metal)    S(lipo)     H(rot)  DE(clash)    DE(int)     intcor
     16.17     -18.85       1.81        0.00     100.27       1.73       0.91       1.77       ----

> <Gold.Chemscore.Fitness>
16.1667

> <Gold.Chemscore.DG>
-18.8470

> <Gold.Chemscore.ZeroCoef>
-5.4800

> <Gold.Chemscore.Hbond>
1.8131

> <Gold.Chemscore.Metal>
0.0000

> <Gold.Chemscore.Lipo>
100.2684

> <Gold.Chemscore.Internal_Hbond>
0.0000

> <Gold.Chemscore.DEClash>
0.9053

> <Gold.Chemscore.DEInternal>
1.7749

> <Gold.Chemscore.Rot>
1.7266

> <Gold.Chemscore.Internal.Correction>
   9.000000E+99

> <Gold.Chemscore.Hbonds>
donor molecule, donor type, donor heavy atom, donor atom, acceptor molecule, acceptor atom, score
      L1  H     8    34       P1  8028  0.90
      L1  H    11    35       P1  8028  0.99

> <Gold.Chemscore.Hbond.Weighted>
-6.0556

> <Gold.Chemscore.Metal.Weighted>
-0.0000

> <Gold.Chemscore.Lipo.Weighted>
-11.7314

> <Gold.Chemscore.Internal_Hbond.Weighted>
0.0000

> <Gold.Chemscore.DEClash.Weighted>
0.9053

> <Gold.Chemscore.DEInternal.Weighted>
1.7749

> <Gold.Chemscore.Rot.Weighted>
4.4200

> <Gold.Chemscore.Internal.Correction.Weighted>
   9.000000E+99

> <Gold.Protein.RotatedTorsions>
[ 6907 6896 6895 6894 ] final  -96.64 input  -60.11 | X-H torsion
[ 7974 7965 7964 7962 ] final  -84.40 input  175.53 | X-H torsion
[ 8008 7997 7996 7995 ] final  152.34 input   59.86 | X-H torsion
[ 10167 10162 10161 10158 ] final   91.86 input  -65.29 | X-H torsion
[ 10718 10713 10712 10709 ] final   93.58 input   66.30 | X-H torsion
[ 10763 10752 10751 10750 ] final  102.87 input  -60.55 | X-H torsion
[ 11005 11000 10999 10996 ] final  149.89 input  -57.11 | X-H torsion

> <Gold.Protein.ActiveResidues>
 VAL166  LYS551  ARG553  GLY616  TRP617  ASP618  TYR619  PRO620  LYS621  CYS622 
 ASP623  PHE694  ASN695  SER759  ASP760  ASP761  ALA762  ILE779  LEU786  VAL792 
 PHE793  MET794  SER795  GLU796  ALA797  LYS798  CYS799  TRP800  GLU811  SER814 

> <Gold.Protein.RotatedAtoms>
  150.6994  134.1472  159.4126 H   0  0  0  0  0  0  0  0  0  0  0  0  # atno 6907 bound_to 6896
  151.9455  135.0191  160.0548 H   0  0  0  0  0  0  0  0  0  0  0  0  # atno 6908 bound_to 6896
  152.2056  133.4838  159.5119 H   0  0  0  0  0  0  0  0  0  0  0  0  # atno 6909 bound_to 6896
  145.5071  140.9543  143.1727 H   0  0  0  0  0  0  0  0  0  0  0  0  # atno 7974 bound_to 7965
  156.2633  140.2023  156.6318 H   0  0  0  0  0  0  0  0  0  0  0  0  # atno 8008 bound_to 7997
  154.6677  140.0553  157.0156 H   0  0  0  0  0  0  0  0  0  0  0  0  # atno 8009 bound_to 7997
  155.1183  140.3222  155.4506 H   0  0  0  0  0  0  0  0  0  0  0  0  # atno 8010 bound_to 7997
  139.8333  144.6676  150.9372 H   0  0  0  0  0  0  0  0  0  0  0  0  # atno 10167 bound_to 10162
  157.6953  131.0483  150.4056 H   0  0  0  0  0  0  0  0  0  0  0  0  # atno 10718 bound_to 10713
  153.3452  135.3996  155.1603 H   0  0  0  0  0  0  0  0  0  0  0  0  # atno 10763 bound_to 10752
  154.8651  135.3643  154.5294 H   0  0  0  0  0  0  0  0  0  0  0  0  # atno 10764 bound_to 10752
  153.5741  135.7078  153.5551 H   0  0  0  0  0  0  0  0  0  0  0  0  # atno 10765 bound_to 10752
  140.1084  134.8939  157.1900 H   0  0  0  0  0  0  0  0  0  0  0  0  # atno 11005 bound_to 11000
  144.7747  139.6655  143.7179 LP  0  0  0  0  0  0  0  0  0  0  0  0  # atno 17320 bound_to 7965
  146.2189  139.5600  142.9631 LP  0  0  0  0  0  0  0  0  0  0  0  0  # atno 17321 bound_to 7965
  140.7805  143.3980  151.1197 LP  0  0  0  0  0  0  0  0  0  0  0  0  # atno 17342 bound_to 10162
  139.7632  143.8604  152.3105 LP  0  0  0  0  0  0  0  0  0  0  0  0  # atno 17343 bound_to 10162
  156.4445  130.3998  149.6676 LP  0  0  0  0  0  0  0  0  0  0  0  0  # atno 17370 bound_to 10713
  156.3847  130.7597  151.2593 LP  0  0  0  0  0  0  0  0  0  0  0  0  # atno 17371 bound_to 10713
  140.3124  134.3008  155.7264 LP  0  0  0  0  0  0  0  0  0  0  0  0  # atno 17394 bound_to 11000
  141.2124  133.7659  156.9795 LP  0  0  0  0  0  0  0  0  0  0  0  0  # atno 17395 bound_to 11000

$$$$
