AV-unprocessed.smi:843|AV-procd|sdf|3922|dock8
  -GOLD-   22720 1383D 1   1.00000     0.00000
 Structure written by MMmdl.
 46 47  0  0  0  0  0  0  0  0  2 V2000
  144.2448  137.2363  153.0832 C   0  0  0  0  0  0  0  0  0  0  0  0
  145.0697  137.7817  154.2583 C   0  0  0  0  0  0  0  0  0  0  0  0
  145.7303  139.0745  153.9457 N   0  3  2  0  0  0  0  0  0  0  0  0
  146.7942  138.9221  152.9191 C   0  0  0  0  0  0  0  0  0  0  0  0
  147.3915  140.2842  152.5182 C   0  0  0  0  0  0  0  0  0  0  0  0
  147.9264  141.0678  153.7315 C   0  0  2  0  0  0  0  0  0  0  0  0
  149.2537  140.4790  154.2663 C   0  0  0  0  0  0  0  0  0  0  0  0
  149.7955  141.2514  155.3811 N   0  0  0  0  0  0  0  0  0  0  0  0
  150.8464  140.8979  156.1355 C   0  0  0  0  0  0  0  0  0  0  0  0
  151.4898  139.8641  155.9580 O   0  0  0  0  0  0  0  0  0  0  0  0
  151.0889  141.8159  157.0868 N   0  0  0  0  0  0  0  0  0  0  0  0
  152.0757  141.8102  158.1126 C   0  0  0  0  0  0  0  0  0  0  0  0
  152.6179  140.6338  158.6866 C   0  0  0  0  0  0  0  0  0  0  0  0
  153.5779  140.7514  159.7084 C   0  0  0  0  0  0  0  0  0  0  0  0
  153.9581  142.0391  160.1267 C   0  0  0  0  0  0  0  0  0  0  0  0
  153.4425  143.1682  159.5995 N   0  0  0  0  0  0  0  0  0  0  0  0
  152.5164  143.0578  158.6142 C   0  0  0  0  0  0  0  0  0  0  0  0
  151.9835  144.2167  158.0823 O   0  0  0  0  0  0  0  0  0  0  0  0
  152.3578  145.4638  158.6579 C   0  0  0  0  0  0  0  0  0  0  0  0
  146.8005  141.1670  154.7814 C   0  0  0  0  0  0  0  0  0  0  0  0
  146.2301  139.7868  155.1512 C   0  0  0  0  0  0  0  0  0  0  0  0
  143.8703  136.2380  153.3105 H   0  0  0  0  0  0  0  0  0  0  0  0
  144.8476  137.1632  152.1776 H   0  0  0  0  0  0  0  0  0  0  0  0
  143.3788  137.8602  152.8640 H   0  0  0  0  0  0  0  0  0  0  0  0
  144.4490  137.8840  155.1497 H   0  0  0  0  0  0  0  0  0  0  0  0
  145.8338  137.0408  154.4972 H   0  0  0  0  0  0  0  0  0  0  0  0
  147.5726  138.2567  153.2945 H   0  0  0  0  0  0  0  0  0  0  0  0
  146.3783  138.4445  152.0312 H   0  0  0  0  0  0  0  0  0  0  0  0
  148.1819  140.1432  151.7801 H   0  0  0  0  0  0  0  0  0  0  0  0
  146.6206  140.8759  152.0226 H   0  0  0  0  0  0  0  0  0  0  0  0
  148.1486  142.0808  153.3924 H   0  0  0  0  0  0  0  0  0  0  0  0
  149.1390  139.4303  154.5424 H   0  0  0  0  0  0  0  0  0  0  0  0
  150.0015  140.4945  153.4729 H   0  0  0  0  0  0  0  0  0  0  0  0
  149.3315  142.1220  155.5964 H   0  0  0  0  0  0  0  0  0  0  0  0
  150.5141  142.6454  157.0559 H   0  0  0  0  0  0  0  0  0  0  0  0
  152.3128  139.6464  158.3795 H   0  0  0  0  0  0  0  0  0  0  0  0
  154.0093  139.8725  160.1644 H   0  0  0  0  0  0  0  0  0  0  0  0
  154.6909  142.1664  160.9097 H   0  0  0  0  0  0  0  0  0  0  0  0
  151.8447  146.2709  158.1353 H   0  0  0  0  0  0  0  0  0  0  0  0
  153.4306  145.6397  158.5662 H   0  0  0  0  0  0  0  0  0  0  0  0
  152.0737  145.5194  159.7098 H   0  0  0  0  0  0  0  0  0  0  0  0
  147.1420  141.6859  155.6764 H   0  0  0  0  0  0  0  0  0  0  0  0
  145.9943  141.7822  154.3795 H   0  0  0  0  0  0  0  0  0  0  0  0
  145.4226  139.9288  155.8683 H   0  0  0  0  0  0  0  0  0  0  0  0
  146.9863  139.1795  155.6497 H   0  0  0  0  0  0  0  0  0  0  0  0
  145.0226  139.6635  153.5305 H   0  0  0  0  0  0  0  0  0  0  0  0
  1  2  1  0  0  0  0
  1 22  1  0  0  0  0
  1 23  1  0  0  0  0
  1 24  1  0  0  0  0
  2  3  1  0  0  0  0
  2 25  1  0  0  0  0
  2 26  1  0  0  0  0
  3 21  1  0  0  0  0
  3  4  1  0  0  0  0
  3 46  1  0  0  0  0
  4  5  1  0  0  0  0
  4 27  1  0  0  0  0
  4 28  1  0  0  0  0
  5  6  1  0  0  0  0
  5 29  1  0  0  0  0
  5 30  1  0  0  0  0
  6  7  1  0  0  0  0
  6 20  1  0  0  0  0
  6 31  1  0  0  0  0
  7  8  1  0  0  0  0
  7 32  1  0  0  0  0
  7 33  1  0  0  0  0
  8  9  1  0  0  0  0
  8 34  1  0  0  0  0
  9 10  2  0  0  0  0
  9 11  1  0  0  0  0
 11 12  1  0  0  0  0
 11 35  1  0  0  0  0
 12 17  1  0  0  0  0
 12 13  2  0  0  0  0
 13 14  1  0  0  0  0
 13 36  1  0  0  0  0
 14 15  2  0  0  0  0
 14 37  1  0  0  0  0
 15 16  1  0  0  0  0
 15 38  1  0  0  0  0
 16 17  2  0  0  0  0
 17 18  1  0  0  0  0
 18 19  1  0  0  0  0
 19 39  1  0  0  0  0
 19 40  1  0  0  0  0
 19 41  1  0  0  0  0
 20 21  1  0  0  0  0
 20 42  1  0  0  0  0
 20 43  1  0  0  0  0
 21 44  1  0  0  0  0
 21 45  1  0  0  0  0
M  CHG  1   3   1
M  END
> <s_m_source_file>
AV-unprocessed.smi

> <i_m_source_file_index>
843

> <i_lp_mmshare_version>
43012

> <i_f3d_flags>
0

> <s_epik_input>
W0NIM11bQ0gyXU4xW0NIMl1bQ0gyXVtDSF0oW0NIMl1bQ0gyXTEpW0NIMl1bTkhdQyg9TylbTkhdYzJbY0hdW2NIXVtjSF1uYzJPW0NIM10=

> <s_epik_cmdline>
J2VwaWtfcHl0aG9uJywgJy1waCcsICc3LjAnLCAnLXRuJywgJzgnLCAnLW1hJywgJzIwMCcsICctbWV0YWxfYmluZGluZycsICctaW1hZScsICc8aW5maWxlLm1hZT4nLCAnLW9tYWUnLCAnPG91dGZpbGUubWFlPic=

> <r_lp_tautomer_probability>
1

> <r_epik_Ionization_Penalty>
0.00115026

> <r_epik_Ionization_Penalty_Charging>
0.00106265

> <r_epik_Ionization_Penalty_Neutral>
8.76119e-05

> <r_epik_State_Penalty>
0.000695551

> <r_epik_Charging_Adjusted_Penalty>
0.0017582

> <i_epik_Tot_Q>
1

> <i_epik_Tot_abs_Q>
1

> <r_epik_Metal_State_Penalty>
-0

> <b_epik_Metal_Only>
0

> <s_lp_Force_Field>
OPLS_2005

> <r_lp_Energy>
22.0854

> <b_lp_Chiralities_Consistent>
1

> <s_lp_Variant>
AV-unprocessed.smi:843-2

> <Gold.Version>
5.8.1

> <Gold.Id.Protein>
6NUR|6NUR_protein|mol2

> <Gold.PLP.Fitness>
42.8436

> <Gold.PLP.PLP>
-37.3628

> <Gold.PLP.part.hbond>
-1.0000

> <Gold.PLP.part.metal>
0.0000

> <Gold.PLP.part.buried>
-4.0097

> <Gold.PLP.part.nonpolar>
-33.3880

> <Gold.PLP.part.repulsive>
0.2538

> <Gold.PLP.ligand.clash>
0.0000

> <Gold.PLP.ligand.torsion>
0.2801

> <Gold.PLP.Chemscore.Hbond>
2.0000

> <Gold.PLP.Chemscore.CHOScore>
0.0000

> <Gold.PLP.Chemscore.Metal>
0.0000

> <Gold.Chemscore.Hbonds>
donor molecule, donor type, donor heavy atom, donor atom, acceptor molecule, acceptor atom, score
      L1  H     3    46       P1 10175  2.00

> <Gold.PLP.Chemscore.Internal.Correction>
0.0410

> <Gold.Rescore>
     Score         DG    S(hbond)    S(metal)    S(lipo)     H(rot)  DE(clash)    DE(int)     intcor
     14.04     -15.60       1.14        0.00      90.13       1.65       0.38       1.18       ----

> <Gold.Chemscore.Fitness>
14.0444

> <Gold.Chemscore.DG>
-15.6032

> <Gold.Chemscore.ZeroCoef>
-5.4800

> <Gold.Chemscore.Hbond>
1.1376

> <Gold.Chemscore.Metal>
0.0000

> <Gold.Chemscore.Lipo>
90.1326

> <Gold.Chemscore.Internal_Hbond>
0.0000

> <Gold.Chemscore.DEClash>
0.3822

> <Gold.Chemscore.DEInternal>
1.1765

> <Gold.Chemscore.Rot>
1.6492

> <Gold.Chemscore.Internal.Correction>
   9.000000E+99

> <Gold.Chemscore.Hbonds>
donor molecule, donor type, donor heavy atom, donor atom, acceptor molecule, acceptor atom, score
      L1  H     3    46       P1 10175  1.00

> <Gold.Chemscore.Hbond.Weighted>
-3.7996

> <Gold.Chemscore.Metal.Weighted>
-0.0000

> <Gold.Chemscore.Lipo.Weighted>
-10.5455

> <Gold.Chemscore.Internal_Hbond.Weighted>
0.0000

> <Gold.Chemscore.DEClash.Weighted>
0.3822

> <Gold.Chemscore.DEInternal.Weighted>
1.1765

> <Gold.Chemscore.Rot.Weighted>
4.2219

> <Gold.Chemscore.Internal.Correction.Weighted>
   9.000000E+99

> <Gold.Protein.RotatedTorsions>
[ 6907 6896 6895 6894 ] final -120.35 input  -60.11 | X-H torsion
[ 7974 7965 7964 7962 ] final   92.91 input  175.53 | X-H torsion
[ 8008 7997 7996 7995 ] final -113.99 input   59.86 | X-H torsion
[ 10167 10162 10161 10158 ] final  143.91 input  -65.29 | X-H torsion
[ 10718 10713 10712 10709 ] final   88.25 input   66.30 | X-H torsion
[ 10763 10752 10751 10750 ] final   -0.42 input  -60.55 | X-H torsion
[ 11005 11000 10999 10996 ] final  -35.87 input  -57.11 | X-H torsion

> <Gold.Protein.ActiveResidues>
 VAL166  LYS551  ARG553  GLY616  TRP617  ASP618  TYR619  PRO620  LYS621  CYS622 
 ASP623  PHE694  ASN695  SER759  ASP760  ASP761  ALA762  ILE779  LEU786  VAL792 
 PHE793  MET794  SER795  GLU796  ALA797  LYS798  CYS799  TRP800  GLU811  SER814 

> <Gold.Protein.RotatedAtoms>
  150.8385  133.7974  159.3069 H   0  0  0  0  0  0  0  0  0  0  0  0  # atno 6907 bound_to 6896
  151.5682  135.1062  159.9998 H   0  0  0  0  0  0  0  0  0  0  0  0  # atno 6908 bound_to 6896
  152.4453  133.7483  159.6736 H   0  0  0  0  0  0  0  0  0  0  0  0  # atno 6909 bound_to 6896
  145.4859  139.2277  143.2857 H   0  0  0  0  0  0  0  0  0  0  0  0  # atno 7974 bound_to 7965
  155.0293  140.0393  157.2468 H   0  0  0  0  0  0  0  0  0  0  0  0  # atno 8008 bound_to 7997
  154.7310  140.2730  155.6432 H   0  0  0  0  0  0  0  0  0  0  0  0  # atno 8009 bound_to 7997
  156.2841  140.2684  156.2010 H   0  0  0  0  0  0  0  0  0  0  0  0  # atno 8010 bound_to 7997
  139.4959  144.6008  151.6485 H   0  0  0  0  0  0  0  0  0  0  0  0  # atno 10167 bound_to 10162
  157.6947  131.0287  150.3245 H   0  0  0  0  0  0  0  0  0  0  0  0  # atno 10718 bound_to 10713
  153.3316  135.6975  153.6942 H   0  0  0  0  0  0  0  0  0  0  0  0  # atno 10763 bound_to 10752
  153.5742  135.3510  155.2850 H   0  0  0  0  0  0  0  0  0  0  0  0  # atno 10764 bound_to 10752
  154.8619  135.4279  154.2507 H   0  0  0  0  0  0  0  0  0  0  0  0  # atno 10765 bound_to 10752
  140.9830  133.7046  156.1717 H   0  0  0  0  0  0  0  0  0  0  0  0  # atno 11005 bound_to 11000
  146.2313  140.5649  142.8974 LP  0  0  0  0  0  0  0  0  0  0  0  0  # atno 17320 bound_to 7965
  144.7862  140.5940  143.6572 LP  0  0  0  0  0  0  0  0  0  0  0  0  # atno 17321 bound_to 7965
  140.5657  144.0193  150.6191 LP  0  0  0  0  0  0  0  0  0  0  0  0  # atno 17342 bound_to 10162
  140.3294  143.3087  152.0702 LP  0  0  0  0  0  0  0  0  0  0  0  0  # atno 17343 bound_to 10162
  156.3728  130.3866  149.7162 LP  0  0  0  0  0  0  0  0  0  0  0  0  # atno 17370 bound_to 10713
  156.4571  130.7934  151.2955 LP  0  0  0  0  0  0  0  0  0  0  0  0  # atno 17371 bound_to 10713
  140.7157  134.4413  157.5578 LP  0  0  0  0  0  0  0  0  0  0  0  0  # atno 17394 bound_to 11000
  139.8958  134.8673  156.2113 LP  0  0  0  0  0  0  0  0  0  0  0  0  # atno 17395 bound_to 11000

$$$$
