AV-unprocessed.smi:1419|AV-procd|sdf|5781|dock4
  -GOLD-   22720 5423D 1   1.00000     0.00000
 Structure written by MMmdl.
 41 42  0  0  0  0  0  0  0  0  1 V2000
  151.7932  139.7985  155.6307 C   0  0  0  0  0  0  0  0  0  0  0  0
  150.8425  140.9497  155.9848 C   0  0  1  0  0  0  0  0  0  0  0  0
  149.4573  140.4225  156.4183 C   0  0  0  0  0  0  0  0  0  0  0  0
  148.4342  140.6409  155.4109 N   0  0  0  0  0  0  0  0  0  0  0  0
  147.5509  139.7020  154.8949 C   0  0  0  0  0  0  0  0  0  0  0  0
  146.7870  140.3566  153.9553 C   0  0  0  0  0  0  0  0  0  0  0  0
  147.1750  141.6925  153.8822 N   0  0  0  0  0  0  0  0  0  0  0  0
  148.1506  141.7870  154.7759 C   0  0  0  0  0  0  0  0  0  0  0  0
  151.4414  141.7528  157.0500 N   0  0  0  0  0  0  0  0  0  0  0  0
  152.0553  141.2743  158.1466 C   0  0  0  0  0  0  0  0  0  0  0  0
  152.0727  140.0736  158.4209 O   0  0  0  0  0  0  0  0  0  0  0  0
  152.7010  142.2110  158.8834 N   0  0  0  0  0  0  0  0  0  0  0  0
  153.5401  141.9764  160.0654 C   0  0  0  0  0  0  0  0  0  0  0  0
  152.7404  142.4165  161.3075 C   0  0  1  0  0  0  0  0  0  0  0  0
  153.5456  142.2577  162.6012 C   0  0  0  0  0  0  0  0  0  0  0  0
  152.3856  143.7926  161.1668 O   0  0  0  0  0  0  0  0  0  0  0  0
  151.6202  144.0786  159.9952 C   0  0  1  0  0  0  0  0  0  0  0  0
  151.2995  145.5766  159.9850 C   0  0  0  0  0  0  0  0  0  0  0  0
  152.4201  143.6415  158.7504 C   0  0  0  0  0  0  0  0  0  0  0  0
  151.3886  139.1920  154.8201 H   0  0  0  0  0  0  0  0  0  0  0  0
  151.9597  139.1424  156.4859 H   0  0  0  0  0  0  0  0  0  0  0  0
  152.7635  140.1757  155.3056 H   0  0  0  0  0  0  0  0  0  0  0  0
  150.7206  141.5557  155.0851 H   0  0  0  0  0  0  0  0  0  0  0  0
  149.5081  139.3513  156.6165 H   0  0  0  0  0  0  0  0  0  0  0  0
  149.1411  140.8975  157.3482 H   0  0  0  0  0  0  0  0  0  0  0  0
  147.5470  138.6728  155.2219 H   0  0  0  0  0  0  0  0  0  0  0  0
  145.9948  139.9715  153.3304 H   0  0  0  0  0  0  0  0  0  0  0  0
  148.6805  142.7093  154.9632 H   0  0  0  0  0  0  0  0  0  0  0  0
  151.4682  142.7509  156.9005 H   0  0  0  0  0  0  0  0  0  0  0  0
  153.8714  140.9432  160.1708 H   0  0  0  0  0  0  0  0  0  0  0  0
  154.4540  142.5663  159.9793 H   0  0  0  0  0  0  0  0  0  0  0  0
  151.8291  141.8216  161.3882 H   0  0  0  0  0  0  0  0  0  0  0  0
  153.8287  141.2173  162.7617 H   0  0  0  0  0  0  0  0  0  0  0  0
  152.9637  142.5807  163.4646 H   0  0  0  0  0  0  0  0  0  0  0  0
  154.4585  142.8534  162.5732 H   0  0  0  0  0  0  0  0  0  0  0  0
  150.6815  143.5227  160.0422 H   0  0  0  0  0  0  0  0  0  0  0  0
  150.7056  145.8442  159.1107 H   0  0  0  0  0  0  0  0  0  0  0  0
  152.2107  146.1753  159.9684 H   0  0  0  0  0  0  0  0  0  0  0  0
  150.7311  145.8584  160.8715 H   0  0  0  0  0  0  0  0  0  0  0  0
  153.3575  144.1959  158.6823 H   0  0  0  0  0  0  0  0  0  0  0  0
  151.8629  143.8796  157.8432 H   0  0  0  0  0  0  0  0  0  0  0  0
  1  2  1  0  0  0  0
  1 20  1  0  0  0  0
  1 21  1  0  0  0  0
  1 22  1  0  0  0  0
  2  3  1  0  0  0  0
  2  9  1  0  0  0  0
  2 23  1  0  0  0  0
  3  4  1  0  0  0  0
  3 24  1  0  0  0  0
  3 25  1  0  0  0  0
  4  8  1  0  0  0  0
  4  5  1  0  0  0  0
  5  6  2  0  0  0  0
  5 26  1  0  0  0  0
  6  7  1  0  0  0  0
  6 27  1  0  0  0  0
  7  8  2  0  0  0  0
  8 28  1  0  0  0  0
  9 10  1  0  0  0  0
  9 29  1  0  0  0  0
 10 11  2  0  0  0  0
 10 12  1  0  0  0  0
 12 19  1  0  0  0  0
 12 13  1  0  0  0  0
 13 14  1  0  0  0  0
 13 30  1  0  0  0  0
 13 31  1  0  0  0  0
 14 15  1  0  0  0  0
 14 16  1  0  0  0  0
 14 32  1  0  0  0  0
 15 33  1  0  0  0  0
 15 34  1  0  0  0  0
 15 35  1  0  0  0  0
 16 17  1  0  0  0  0
 17 18  1  0  0  0  0
 17 19  1  0  0  0  0
 17 36  1  0  0  0  0
 18 37  1  0  0  0  0
 18 38  1  0  0  0  0
 18 39  1  0  0  0  0
 19 40  1  0  0  0  0
 19 41  1  0  0  0  0
M  END
> <s_m_source_file>
AV-unprocessed.smi

> <i_m_source_file_index>
1419

> <i_lp_mmshare_version>
43012

> <i_f3d_flags>
0

> <s_epik_input>
W2NIXTFuW2NIXVtjSF1uMVtDSDJdW0NAQEhdKFtDSDNdKVtOSF1DKD1PKU4yW0NIMl1bQ0BASF0oW0NIM10pT1tDQEBIXShbQ0gzXSlbQ0gyXTI=

> <s_epik_cmdline>
J2VwaWtfcHl0aG9uJywgJy1waCcsICc3LjAnLCAnLXRuJywgJzgnLCAnLW1hJywgJzIwMCcsICctbWV0YWxfYmluZGluZycsICctaW1hZScsICc8aW5maWxlLm1hZT4nLCAnLW9tYWUnLCAnPG91dGZpbGUubWFlPic=

> <r_lp_tautomer_probability>
1

> <r_epik_Ionization_Penalty>
0.625124

> <r_epik_Ionization_Penalty_Charging>
0.625093

> <r_epik_Ionization_Penalty_Neutral>
3.17415e-05

> <r_epik_State_Penalty>
0.641455

> <r_epik_Charging_Adjusted_Penalty>
1.26655

> <i_epik_Tot_Q>
0

> <i_epik_Tot_abs_Q>
0

> <r_epik_Metal_State_Penalty>
0.307717

> <b_epik_Metal_Only>
0

> <s_lp_Force_Field>
OPLS_2005

> <r_lp_Energy>
27.9017

> <b_lp_Chiralities_Consistent>
1

> <s_lp_Variant>
AV-unprocessed.smi:1419-8

> <Gold.Version>
5.8.1

> <Gold.Id.Protein>
6NUR|6NUR_protein|mol2

> <Gold.PLP.Fitness>
44.1760

> <Gold.PLP.PLP>
-41.1874

> <Gold.PLP.part.hbond>
0.0000

> <Gold.PLP.part.metal>
0.0000

> <Gold.PLP.part.buried>
-4.2021

> <Gold.PLP.part.nonpolar>
-36.8969

> <Gold.PLP.part.repulsive>
0.3686

> <Gold.PLP.ligand.clash>
0.9659

> <Gold.PLP.ligand.torsion>
1.0577

> <Gold.PLP.Chemscore.Hbond>
0.0000

> <Gold.PLP.Chemscore.CHOScore>
1.9959

> <Gold.PLP.Chemscore.Metal>
0.0000

> <Gold.Chemscore.Hbonds>
donor molecule, donor type, donor heavy atom, donor atom, acceptor molecule, acceptor atom, score
      L1  C     6    27       P1 10175  1.00
      L1  C     8    28       P1  8028  1.00

> <Gold.PLP.Chemscore.Internal.Correction>
0.0822

> <Gold.Rescore>
     Score         DG    S(hbond)    S(metal)    S(lipo)     H(rot)  DE(clash)    DE(int)     intcor
     10.54     -12.38       0.00        0.00      93.50       1.58       0.07       1.76       ----

> <Gold.Chemscore.Fitness>
10.5448

> <Gold.Chemscore.DG>
-12.3827

> <Gold.Chemscore.ZeroCoef>
-5.4800

> <Gold.Chemscore.Hbond>
0.0000

> <Gold.Chemscore.Metal>
0.0000

> <Gold.Chemscore.Lipo>
93.5005

> <Gold.Chemscore.Internal_Hbond>
0.0000

> <Gold.Chemscore.DEClash>
0.0739

> <Gold.Chemscore.DEInternal>
1.7640

> <Gold.Chemscore.Rot>
1.5769

> <Gold.Chemscore.Internal.Correction>
   9.000000E+99

> <Gold.Chemscore.Hbond.Weighted>
-0.0000

> <Gold.Chemscore.Metal.Weighted>
-0.0000

> <Gold.Chemscore.Lipo.Weighted>
-10.9396

> <Gold.Chemscore.Internal_Hbond.Weighted>
0.0000

> <Gold.Chemscore.DEClash.Weighted>
0.0739

> <Gold.Chemscore.DEInternal.Weighted>
1.7640

> <Gold.Chemscore.Rot.Weighted>
4.0369

> <Gold.Chemscore.Internal.Correction.Weighted>
   9.000000E+99

> <Gold.Protein.RotatedTorsions>
[ 6907 6896 6895 6894 ] final   -1.97 input  -60.11 | X-H torsion
[ 7974 7965 7964 7962 ] final  145.90 input  175.53 | X-H torsion
[ 8008 7997 7996 7995 ] final   33.85 input   59.86 | X-H torsion
[ 10167 10162 10161 10158 ] final   25.17 input  -65.29 | X-H torsion
[ 10718 10713 10712 10709 ] final  150.21 input   66.30 | X-H torsion
[ 10763 10752 10751 10750 ] final   59.33 input  -60.55 | X-H torsion
[ 11005 11000 10999 10996 ] final  -96.61 input  -57.11 | X-H torsion

> <Gold.Protein.ActiveResidues>
 VAL166  LYS551  ARG553  GLY616  TRP617  ASP618  TYR619  PRO620  LYS621  CYS622 
 ASP623  PHE694  ASN695  SER759  ASP760  ASP761  ALA762  ILE779  LEU786  VAL792 
 PHE793  MET794  SER795  GLU796  ALA797  LYS798  CYS799  TRP800  GLU811  SER814 

> <Gold.Protein.RotatedAtoms>
  151.5374  135.1068  159.9917 H   0  0  0  0  0  0  0  0  0  0  0  0  # atno 6907 bound_to 6896
  152.4551  133.7702  159.6805 H   0  0  0  0  0  0  0  0  0  0  0  0  # atno 6908 bound_to 6896
  150.8492  133.7748  159.3056 H   0  0  0  0  0  0  0  0  0  0  0  0  # atno 6909 bound_to 6896
  144.8714  139.5840  143.5885 H   0  0  0  0  0  0  0  0  0  0  0  0  # atno 7974 bound_to 7965
  155.1453  140.3270  155.4443 H   0  0  0  0  0  0  0  0  0  0  0  0  # atno 8008 bound_to 7997
  156.2592  140.1986  156.6516 H   0  0  0  0  0  0  0  0  0  0  0  0  # atno 8009 bound_to 7997
  154.6513  140.0558  156.9945 H   0  0  0  0  0  0  0  0  0  0  0  0  # atno 8010 bound_to 7997
  140.5128  144.0132  150.6380 H   0  0  0  0  0  0  0  0  0  0  0  0  # atno 10167 bound_to 10162
  157.2864  131.0845  151.1494 H   0  0  0  0  0  0  0  0  0  0  0  0  # atno 10718 bound_to 10713
  152.9892  135.5575  154.5695 H   0  0  0  0  0  0  0  0  0  0  0  0  # atno 10763 bound_to 10752
  154.5098  135.2801  155.1354 H   0  0  0  0  0  0  0  0  0  0  0  0  # atno 10764 bound_to 10752
  154.2750  135.6356  153.5377 H   0  0  0  0  0  0  0  0  0  0  0  0  # atno 10765 bound_to 10752
  141.1406  133.8110  157.0595 H   0  0  0  0  0  0  0  0  0  0  0  0  # atno 11005 bound_to 11000
  146.2933  139.7203  142.9145 LP  0  0  0  0  0  0  0  0  0  0  0  0  # atno 17320 bound_to 7965
  145.4123  141.0398  143.3010 LP  0  0  0  0  0  0  0  0  0  0  0  0  # atno 17321 bound_to 7965
  140.3459  143.2992  152.0539 LP  0  0  0  0  0  0  0  0  0  0  0  0  # atno 17342 bound_to 10162
  139.4901  144.6409  151.6879 LP  0  0  0  0  0  0  0  0  0  0  0  0  # atno 17343 bound_to 10162
  157.2908  130.6795  149.6113 LP  0  0  0  0  0  0  0  0  0  0  0  0  # atno 17370 bound_to 10713
  155.9665  130.4421  150.5368 LP  0  0  0  0  0  0  0  0  0  0  0  0  # atno 17371 bound_to 10713
  140.0580  134.9770  157.1255 LP  0  0  0  0  0  0  0  0  0  0  0  0  # atno 17394 bound_to 11000
  140.3890  134.2205  155.7167 LP  0  0  0  0  0  0  0  0  0  0  0  0  # atno 17395 bound_to 11000

$$$$
