AV-unprocessed.smi:2816|AV-procd|sdf|10844|dock6
  -GOLD-   2272015283D 1   1.00000     0.00000
 Structure written by MMmdl.
 43 45  0  0  0  0  0  0  0  0  1 V2000
  152.2856  131.1983  155.5647 C   0  0  0  0  0  0  0  0  0  0  0  0
  151.4298  131.4078  156.8261 C   0  0  0  0  0  0  0  0  0  0  0  0
  150.4149  130.2568  156.9525 C   0  0  0  0  0  0  0  0  0  0  0  0
  152.3422  131.4582  158.0651 C   0  0  0  0  0  0  0  0  0  0  0  0
  150.5373  133.0314  156.6422 S   0  0  0  0  0  0  0  0  0  0  0  0
  149.5784  133.1447  157.7527 O   0  0  0  0  0  0  0  0  0  0  0  0
  151.5383  134.0926  156.4483 O   0  0  0  0  0  0  0  0  0  0  0  0
  149.5897  132.9024  155.1241 C   0  0  0  0  0  0  0  0  0  0  0  0
  148.6996  133.9326  154.7591 C   0  0  0  0  0  0  0  0  0  0  0  0
  147.9429  133.7704  153.5838 C   0  0  0  0  0  0  0  0  0  0  0  0
  148.0956  132.5847  152.8262 C   0  0  0  0  0  0  0  0  0  0  0  0
  147.3836  132.3242  151.6463 N   0  0  0  0  0  0  0  0  0  0  0  0
  145.9736  131.9511  151.6733 C   0  0  2  0  0  0  0  0  0  0  0  0
  145.3378  131.7939  150.2870 C   0  0  0  0  0  0  0  0  0  0  0  0
  144.1168  132.7180  150.3944 C   0  0  2  0  0  0  0  0  0  0  0  0
  144.5213  134.1946  150.3080 C   0  0  0  0  0  0  0  0  0  0  0  0
  145.1902  134.4115  151.6636 C   0  0  0  0  0  0  0  0  0  0  0  0
  145.0661  133.0198  152.3090 C   0  0  1  0  0  0  0  0  0  0  0  0
  143.8164  132.6129  151.7766 O   0  0  0  0  0  0  0  0  0  0  0  0
  149.0133  131.6191  153.2936 C   0  0  0  0  0  0  0  0  0  0  0  0
  149.7437  131.7612  154.4194 N   0  0  0  0  0  0  0  0  0  0  0  0
  152.8356  130.2576  155.6082 H   0  0  0  0  0  0  0  0  0  0  0  0
  153.0149  131.9998  155.4425 H   0  0  0  0  0  0  0  0  0  0  0  0
  151.6677  131.1778  154.6665 H   0  0  0  0  0  0  0  0  0  0  0  0
  149.7223  130.2405  156.1106 H   0  0  0  0  0  0  0  0  0  0  0  0
  149.8264  130.3344  157.8659 H   0  0  0  0  0  0  0  0  0  0  0  0
  150.9195  129.2904  156.9789 H   0  0  0  0  0  0  0  0  0  0  0  0
  152.9200  130.5389  158.1660 H   0  0  0  0  0  0  0  0  0  0  0  0
  151.7672  131.5807  158.9828 H   0  0  0  0  0  0  0  0  0  0  0  0
  153.0503  132.2852  158.0057 H   0  0  0  0  0  0  0  0  0  0  0  0
  148.5938  134.8221  155.3619 H   0  0  0  0  0  0  0  0  0  0  0  0
  147.2595  134.5510  153.2864 H   0  0  0  0  0  0  0  0  0  0  0  0
  147.8928  132.1986  150.7831 H   0  0  0  0  0  0  0  0  0  0  0  0
  145.8560  131.0260  152.2388 H   0  0  0  0  0  0  0  0  0  0  0  0
  145.9948  132.0822  149.4650 H   0  0  0  0  0  0  0  0  0  0  0  0
  145.0313  130.7594  150.1276 H   0  0  0  0  0  0  0  0  0  0  0  0
  143.2954  132.4453  149.7316 H   0  0  0  0  0  0  0  0  0  0  0  0
  145.1879  134.3957  149.4687 H   0  0  0  0  0  0  0  0  0  0  0  0
  143.6431  134.8336  150.2084 H   0  0  0  0  0  0  0  0  0  0  0  0
  146.2206  134.7566  151.5792 H   0  0  0  0  0  0  0  0  0  0  0  0
  144.6363  135.1513  152.2426 H   0  0  0  0  0  0  0  0  0  0  0  0
  145.1023  133.0353  153.3986 H   0  0  0  0  0  0  0  0  0  0  0  0
  149.1622  130.6972  152.7505 H   0  0  0  0  0  0  0  0  0  0  0  0
  1  2  1  0  0  0  0
  1 22  1  0  0  0  0
  1 23  1  0  0  0  0
  1 24  1  0  0  0  0
  2  3  1  0  0  0  0
  2  4  1  0  0  0  0
  2  5  1  0  0  0  0
  3 25  1  0  0  0  0
  3 26  1  0  0  0  0
  3 27  1  0  0  0  0
  4 28  1  0  0  0  0
  4 29  1  0  0  0  0
  4 30  1  0  0  0  0
  5  6  2  0  0  0  0
  5  7  2  0  0  0  0
  5  8  1  0  0  0  0
  8 21  1  0  0  0  0
  8  9  2  0  0  0  0
  9 10  1  0  0  0  0
  9 31  1  0  0  0  0
 10 11  2  0  0  0  0
 10 32  1  0  0  0  0
 11 12  1  0  0  0  0
 11 20  1  0  0  0  0
 12 13  1  0  0  0  0
 12 33  1  0  0  0  0
 13 18  1  0  0  0  0
 13 14  1  0  0  0  0
 13 34  1  0  0  0  0
 14 15  1  0  0  0  0
 14 35  1  0  0  0  0
 14 36  1  0  0  0  0
 15 19  1  0  0  0  0
 15 16  1  0  0  0  0
 15 37  1  0  0  0  0
 16 17  1  0  0  0  0
 16 38  1  0  0  0  0
 16 39  1  0  0  0  0
 17 18  1  0  0  0  0
 17 40  1  0  0  0  0
 17 41  1  0  0  0  0
 18 19  1  0  0  0  0
 18 42  1  0  0  0  0
 20 21  2  0  0  0  0
 20 43  1  0  0  0  0
M  END
> <s_m_source_file>
AV-unprocessed.smi

> <i_m_source_file_index>
2816

> <i_lp_mmshare_version>
43012

> <i_f3d_flags>
0

> <s_epik_input>
W0NIM11DKFtDSDNdKShbQ0gzXSlTKD1PKSg9TyljMVtjSF1bY0hdYyhbY0hdbjEpW05IXVtDQEhdKFtDSDJdW0NAQEhdMjMpW0NAQEhdKE8zKVtDSDJdW0NIMl0y

> <s_epik_cmdline>
J2VwaWtfcHl0aG9uJywgJy1waCcsICc3LjAnLCAnLXRuJywgJzgnLCAnLW1hJywgJzIwMCcsICctbWV0YWxfYmluZGluZycsICctaW1hZScsICc8aW5maWxlLm1hZT4nLCAnLW9tYWUnLCAnPG91dGZpbGUubWFlPic=

> <r_lp_tautomer_probability>
1

> <r_epik_Ionization_Penalty>
1.94439e-07

> <r_epik_Ionization_Penalty_Charging>
0

> <r_epik_Ionization_Penalty_Neutral>
1.94439e-07

> <r_epik_State_Penalty>
-0

> <r_epik_Charging_Adjusted_Penalty>
0

> <i_epik_Tot_Q>
0

> <i_epik_Tot_abs_Q>
0

> <r_epik_Metal_State_Penalty>
-0

> <b_epik_Metal_Only>
0

> <s_lp_Force_Field>
OPLS_2005

> <r_lp_Energy>
43.8741

> <b_lp_Chiralities_Consistent>
1

> <s_lp_Variant>
AV-unprocessed.smi:2816-3

> <Gold.Version>
5.8.1

> <Gold.Id.Protein>
6NUR|6NUR_protein|mol2

> <Gold.PLP.Fitness>
37.2618

> <Gold.PLP.PLP>
-31.9403

> <Gold.PLP.part.hbond>
-2.3417

> <Gold.PLP.part.metal>
0.0000

> <Gold.PLP.part.buried>
-3.6853

> <Gold.PLP.part.nonpolar>
-25.7445

> <Gold.PLP.part.repulsive>
0.2297

> <Gold.PLP.ligand.clash>
0.0000

> <Gold.PLP.ligand.torsion>
2.0412

> <Gold.PLP.Chemscore.Hbond>
1.6560

> <Gold.PLP.Chemscore.CHOScore>
0.7371

> <Gold.PLP.Chemscore.Metal>
0.0000

> <Gold.Chemscore.Hbonds>
donor molecule, donor type, donor heavy atom, donor atom, acceptor molecule, acceptor atom, score
      L1  H    12    33       P1 10747  0.61
      P1  H  6896  6908       L1     6  0.96
      L1  C    20    43       P1 10747  0.66

> <Gold.PLP.Chemscore.Internal.Correction>
2.2246

> <Gold.Rescore>
     Score         DG    S(hbond)    S(metal)    S(lipo)     H(rot)  DE(clash)    DE(int)     intcor
     12.86     -16.37       1.55        0.00      73.99       1.15       0.05       3.47       ----

> <Gold.Chemscore.Fitness>
12.8558

> <Gold.Chemscore.DG>
-16.3671

> <Gold.Chemscore.ZeroCoef>
-5.4800

> <Gold.Chemscore.Hbond>
1.5468

> <Gold.Chemscore.Metal>
0.0000

> <Gold.Chemscore.Lipo>
73.9940

> <Gold.Chemscore.Internal_Hbond>
0.0000

> <Gold.Chemscore.DEClash>
0.0453

> <Gold.Chemscore.DEInternal>
3.4659

> <Gold.Chemscore.Rot>
1.1471

> <Gold.Chemscore.Internal.Correction>
   9.000000E+99

> <Gold.Chemscore.Hbonds>
donor molecule, donor type, donor heavy atom, donor atom, acceptor molecule, acceptor atom, score
      L1  H    12    33       P1 10747  0.62
      P1  H  6896  6908       L1     6  0.31

> <Gold.Chemscore.Hbond.Weighted>
-5.1664

> <Gold.Chemscore.Metal.Weighted>
-0.0000

> <Gold.Chemscore.Lipo.Weighted>
-8.6573

> <Gold.Chemscore.Internal_Hbond.Weighted>
0.0000

> <Gold.Chemscore.DEClash.Weighted>
0.0453

> <Gold.Chemscore.DEInternal.Weighted>
3.4659

> <Gold.Chemscore.Rot.Weighted>
2.9366

> <Gold.Chemscore.Internal.Correction.Weighted>
   9.000000E+99

> <Gold.Protein.RotatedTorsions>
[ 6907 6896 6895 6894 ] final  124.75 input  -60.11 | X-H torsion
[ 7974 7965 7964 7962 ] final  132.15 input  175.53 | X-H torsion
[ 8008 7997 7996 7995 ] final -114.31 input   59.86 | X-H torsion
[ 10167 10162 10161 10158 ] final   32.75 input  -65.29 | X-H torsion
[ 10718 10713 10712 10709 ] final -170.28 input   66.30 | X-H torsion
[ 10763 10752 10751 10750 ] final  124.95 input  -60.55 | X-H torsion
[ 11005 11000 10999 10996 ] final  129.41 input  -57.11 | X-H torsion

> <Gold.Protein.ActiveResidues>
 VAL166  LYS551  ARG553  GLY616  TRP617  ASP618  TYR619  PRO620  LYS621  CYS622 
 ASP623  PHE694  ASN695  SER759  ASP760  ASP761  ALA762  ILE779  LEU786  VAL792 
 PHE793  MET794  SER795  GLU796  ALA797  LYS798  CYS799  TRP800  GLU811  SER814 

> <Gold.Protein.RotatedAtoms>
  152.4051  133.6877  159.6349 H   0  0  0  0  0  0  0  0  0  0  0  0  # atno 6907 bound_to 6896
  150.7937  133.8722  159.3271 H   0  0  0  0  0  0  0  0  0  0  0  0  # atno 6908 bound_to 6896
  151.6479  135.1007  160.0206 H   0  0  0  0  0  0  0  0  0  0  0  0  # atno 6909 bound_to 6896
  144.9999  139.4323  143.5297 H   0  0  0  0  0  0  0  0  0  0  0  0  # atno 7974 bound_to 7965
  155.0343  140.0393  157.2486 H   0  0  0  0  0  0  0  0  0  0  0  0  # atno 8008 bound_to 7997
  154.7270  140.2723  155.6466 H   0  0  0  0  0  0  0  0  0  0  0  0  # atno 8009 bound_to 7997
  156.2832  140.2691  156.1959 H   0  0  0  0  0  0  0  0  0  0  0  0  # atno 8010 bound_to 7997
  140.4470  144.1104  150.6184 H   0  0  0  0  0  0  0  0  0  0  0  0  # atno 10167 bound_to 10162
  156.7239  130.9280  151.3099 H   0  0  0  0  0  0  0  0  0  0  0  0  # atno 10718 bound_to 10713
  153.6695  135.3332  155.3149 H   0  0  0  0  0  0  0  0  0  0  0  0  # atno 10763 bound_to 10752
  154.8494  135.4383  154.1720 H   0  0  0  0  0  0  0  0  0  0  0  0  # atno 10764 bound_to 10752
  153.2707  135.7000  153.7559 H   0  0  0  0  0  0  0  0  0  0  0  0  # atno 10765 bound_to 10752
  139.9614  134.9601  156.9144 H   0  0  0  0  0  0  0  0  0  0  0  0  # atno 11005 bound_to 11000
  146.3449  139.9380  142.8744 LP  0  0  0  0  0  0  0  0  0  0  0  0  # atno 17320 bound_to 7965
  145.2168  140.9919  143.4068 LP  0  0  0  0  0  0  0  0  0  0  0  0  # atno 17321 bound_to 7965
  140.4252  143.2593  151.9665 LP  0  0  0  0  0  0  0  0  0  0  0  0  # atno 17342 bound_to 10162
  139.4793  144.5794  151.7957 LP  0  0  0  0  0  0  0  0  0  0  0  0  # atno 17343 bound_to 10162
  157.6886  130.9211  150.0454 LP  0  0  0  0  0  0  0  0  0  0  0  0  # atno 17370 bound_to 10713
  156.1575  130.3643  149.9347 LP  0  0  0  0  0  0  0  0  0  0  0  0  # atno 17371 bound_to 10713
  140.5493  134.0643  155.7364 LP  0  0  0  0  0  0  0  0  0  0  0  0  # atno 17394 bound_to 11000
  141.1291  133.9333  157.2573 LP  0  0  0  0  0  0  0  0  0  0  0  0  # atno 17395 bound_to 11000

$$$$
