AV-unprocessed.smi:2603|AV-procd|sdf|10185|dock9
  -GOLD-   2272014203D 1   1.00000     0.00000
 Structure written by MMmdl.
 35 36  0  0  0  0  0  0  0  0  1 V2000
  153.5340  142.4470  160.2657 C   0  0  0  0  0  0  0  0  0  0  0  0
  152.0606  142.7478  159.9812 C   0  0  0  0  0  0  0  0  0  0  0  0
  151.9117  143.0637  158.6082 O   0  0  0  0  0  0  0  0  0  0  0  0
  150.7618  142.4596  158.0452 C   0  0  2  0  0  0  0  0  0  0  0  0
  150.9603  141.0273  157.6355 C   0  0  0  0  0  0  0  0  0  0  0  0
  150.9479  142.1231  156.5842 C   0  0  1  0  0  0  0  0  0  0  0  0
  149.8032  142.2158  155.7387 N   0  0  0  0  0  0  0  0  0  0  0  0
  149.4681  141.3412  154.7787 C   0  0  0  0  0  0  0  0  0  0  0  0
  150.1269  140.3373  154.5077 O   0  0  0  0  0  0  0  0  0  0  0  0
  148.1833  141.6419  154.0074 C   0  0  0  0  0  0  0  0  0  0  0  0
  147.0852  142.0026  154.9743 C   0  0  0  0  0  0  0  0  0  0  0  0
  146.8822  141.5216  156.3004 C   0  0  0  0  0  0  0  0  0  0  0  0
  147.7017  140.5293  157.0746 C   0  0  0  0  0  0  0  0  0  0  0  0
  145.8070  142.0516  156.8588 N   0  0  0  0  0  0  0  0  0  0  0  0
  145.2623  142.9125  155.9013 O   0  0  0  0  0  0  0  0  0  0  0  0
  146.0396  142.8645  154.7894 C   0  0  0  0  0  0  0  0  0  0  0  0
  145.6193  143.7141  153.6382 C   0  0  0  0  0  0  0  0  0  0  0  0
  153.6861  142.2048  161.3175 H   0  0  0  0  0  0  0  0  0  0  0  0
  154.1625  143.3050  160.0254 H   0  0  0  0  0  0  0  0  0  0  0  0
  153.8811  141.5998  159.6737 H   0  0  0  0  0  0  0  0  0  0  0  0
  151.4469  141.8826  160.2369 H   0  0  0  0  0  0  0  0  0  0  0  0
  151.7255  143.5844  160.5961 H   0  0  0  0  0  0  0  0  0  0  0  0
  149.7974  142.8195  158.4010 H   0  0  0  0  0  0  0  0  0  0  0  0
  151.9174  140.5632  157.8662 H   0  0  0  0  0  0  0  0  0  0  0  0
  150.0979  140.3659  157.6904 H   0  0  0  0  0  0  0  0  0  0  0  0
  151.9130  142.3786  156.1485 H   0  0  0  0  0  0  0  0  0  0  0  0
  149.1958  143.0090  155.8843 H   0  0  0  0  0  0  0  0  0  0  0  0
  148.3659  142.4446  153.2917 H   0  0  0  0  0  0  0  0  0  0  0  0
  147.9178  140.7667  153.4134 H   0  0  0  0  0  0  0  0  0  0  0  0
  147.3705  139.5106  156.8723 H   0  0  0  0  0  0  0  0  0  0  0  0
  147.6250  140.6977  158.1493 H   0  0  0  0  0  0  0  0  0  0  0  0
  148.7563  140.5948  156.8073 H   0  0  0  0  0  0  0  0  0  0  0  0
  145.2965  143.0944  152.8017 H   0  0  0  0  0  0  0  0  0  0  0  0
  146.4452  144.3384  153.2972 H   0  0  0  0  0  0  0  0  0  0  0  0
  144.7919  144.3691  153.9128 H   0  0  0  0  0  0  0  0  0  0  0  0
  1  2  1  0  0  0  0
  1 18  1  0  0  0  0
  1 19  1  0  0  0  0
  1 20  1  0  0  0  0
  2  3  1  0  0  0  0
  2 21  1  0  0  0  0
  2 22  1  0  0  0  0
  3  4  1  0  0  0  0
  4  6  1  0  0  0  0
  4  5  1  0  0  0  0
  4 23  1  0  0  0  0
  5  6  1  0  0  0  0
  5 24  1  0  0  0  0
  5 25  1  0  0  0  0
  6  7  1  0  0  0  0
  6 26  1  0  0  0  0
  7  8  1  0  0  0  0
  7 27  1  0  0  0  0
  8  9  2  0  0  0  0
  8 10  1  0  0  0  0
 10 11  1  0  0  0  0
 10 28  1  0  0  0  0
 10 29  1  0  0  0  0
 11 16  2  0  0  0  0
 11 12  1  0  0  0  0
 12 13  1  0  0  0  0
 12 14  2  0  0  0  0
 13 30  1  0  0  0  0
 13 31  1  0  0  0  0
 13 32  1  0  0  0  0
 14 15  1  0  0  0  0
 15 16  1  0  0  0  0
 16 17  1  0  0  0  0
 17 33  1  0  0  0  0
 17 34  1  0  0  0  0
 17 35  1  0  0  0  0
M  END
> <s_m_source_file>
AV-unprocessed.smi

> <i_m_source_file_index>
2603

> <i_lp_mmshare_version>
43012

> <i_f3d_flags>
0

> <s_epik_input>
W0NIM11bQ0gyXU9bQ0BASF0xW0NIMl1bQ0BIXTFbTkhdQyg9TylbQ0gyXWMyYyhbQ0gzXSlub2MyW0NIM10=

> <s_epik_cmdline>
J2VwaWtfcHl0aG9uJywgJy1waCcsICc3LjAnLCAnLXRuJywgJzgnLCAnLW1hJywgJzIwMCcsICctbWV0YWxfYmluZGluZycsICctaW1hZScsICc8aW5maWxlLm1hZT4nLCAnLW9tYWUnLCAnPG91dGZpbGUubWFlPic=

> <r_lp_tautomer_probability>
1

> <r_epik_Ionization_Penalty>
2.37325e-08

> <r_epik_Ionization_Penalty_Charging>
0

> <r_epik_Ionization_Penalty_Neutral>
2.37325e-08

> <r_epik_State_Penalty>
-0

> <r_epik_Charging_Adjusted_Penalty>
0

> <i_epik_Tot_Q>
0

> <i_epik_Tot_abs_Q>
0

> <r_epik_Metal_State_Penalty>
-0

> <b_epik_Metal_Only>
0

> <s_lp_Force_Field>
OPLS_2005

> <r_lp_Energy>
10.4269

> <b_lp_Chiralities_Consistent>
1

> <s_lp_Variant>
AV-unprocessed.smi:2603-1

> <Gold.Version>
5.8.1

> <Gold.Id.Protein>
6NUR|6NUR_protein|mol2

> <Gold.PLP.Fitness>
38.6657

> <Gold.PLP.PLP>
-34.6917

> <Gold.PLP.part.hbond>
-2.0000

> <Gold.PLP.part.metal>
0.0000

> <Gold.PLP.part.buried>
-5.3025

> <Gold.PLP.part.nonpolar>
-26.9660

> <Gold.PLP.part.repulsive>
0.4904

> <Gold.PLP.ligand.clash>
0.0000

> <Gold.PLP.ligand.torsion>
1.3113

> <Gold.PLP.Chemscore.Hbond>
1.9760

> <Gold.PLP.Chemscore.CHOScore>
0.0000

> <Gold.PLP.Chemscore.Metal>
0.0000

> <Gold.Chemscore.Hbonds>
donor molecule, donor type, donor heavy atom, donor atom, acceptor molecule, acceptor atom, score
      L1  H     7    27       P1  8028  0.98
      P1  H  7989  7998       L1     9  0.98

> <Gold.PLP.Chemscore.Internal.Correction>
0.6687

> <Gold.Rescore>
     Score         DG    S(hbond)    S(metal)    S(lipo)     H(rot)  DE(clash)    DE(int)     intcor
     13.25     -15.01       1.67        0.00      70.75       1.69       0.03       1.73       ----

> <Gold.Chemscore.Fitness>
13.2488

> <Gold.Chemscore.DG>
-15.0077

> <Gold.Chemscore.ZeroCoef>
-5.4800

> <Gold.Chemscore.Hbond>
1.6722

> <Gold.Chemscore.Metal>
0.0000

> <Gold.Chemscore.Lipo>
70.7471

> <Gold.Chemscore.Internal_Hbond>
0.0000

> <Gold.Chemscore.DEClash>
0.0272

> <Gold.Chemscore.DEInternal>
1.7316

> <Gold.Chemscore.Rot>
1.6933

> <Gold.Chemscore.Internal.Correction>
   9.000000E+99

> <Gold.Chemscore.Hbonds>
donor molecule, donor type, donor heavy atom, donor atom, acceptor molecule, acceptor atom, score
      L1  H     7    27       P1  8028  0.93
      P1  H  7989  7998       L1     9  0.61

> <Gold.Chemscore.Hbond.Weighted>
-5.5850

> <Gold.Chemscore.Metal.Weighted>
-0.0000

> <Gold.Chemscore.Lipo.Weighted>
-8.2774

> <Gold.Chemscore.Internal_Hbond.Weighted>
0.0000

> <Gold.Chemscore.DEClash.Weighted>
0.0272

> <Gold.Chemscore.DEInternal.Weighted>
1.7316

> <Gold.Chemscore.Rot.Weighted>
4.3348

> <Gold.Chemscore.Internal.Correction.Weighted>
   9.000000E+99

> <Gold.Protein.RotatedTorsions>
[ 6907 6896 6895 6894 ] final   32.90 input  -60.11 | X-H torsion
[ 7974 7965 7964 7962 ] final -144.46 input  175.53 | X-H torsion
[ 8008 7997 7996 7995 ] final   96.43 input   59.86 | X-H torsion
[ 10167 10162 10161 10158 ] final  -50.99 input  -65.29 | X-H torsion
[ 10718 10713 10712 10709 ] final    8.75 input   66.30 | X-H torsion
[ 10763 10752 10751 10750 ] final  -49.80 input  -60.55 | X-H torsion
[ 11005 11000 10999 10996 ] final -172.88 input  -57.11 | X-H torsion

> <Gold.Protein.ActiveResidues>
 VAL166  LYS551  ARG553  GLY616  TRP617  ASP618  TYR619  PRO620  LYS621  CYS622 
 ASP623  PHE694  ASN695  SER759  ASP760  ASP761  ALA762  ILE779  LEU786  VAL792 
 PHE793  MET794  SER795  GLU796  ALA797  LYS798  CYS799  TRP800  GLU811  SER814 

> <Gold.Protein.RotatedAtoms>
  152.0809  134.9471  160.0573 H   0  0  0  0  0  0  0  0  0  0  0  0  # atno 6907 bound_to 6896
  152.0760  133.4125  159.4488 H   0  0  0  0  0  0  0  0  0  0  0  0  # atno 6908 bound_to 6896
  150.6836  134.2956  159.4728 H   0  0  0  0  0  0  0  0  0  0  0  0  # atno 6909 bound_to 6896
  144.8296  140.5707  143.5524 H   0  0  0  0  0  0  0  0  0  0  0  0  # atno 7974 bound_to 7965
  156.0795  140.3272  155.7676 H   0  0  0  0  0  0  0  0  0  0  0  0  # atno 8008 bound_to 7997
  155.5176  140.0582  157.2930 H   0  0  0  0  0  0  0  0  0  0  0  0  # atno 8009 bound_to 7997
  154.4574  140.1949  156.0357 H   0  0  0  0  0  0  0  0  0  0  0  0  # atno 8010 bound_to 7997
  140.6611  143.2636  151.4438 H   0  0  0  0  0  0  0  0  0  0  0  0  # atno 10167 bound_to 10162
  156.9563  130.5916  149.5659 H   0  0  0  0  0  0  0  0  0  0  0  0  # atno 10718 bound_to 10713
  154.1000  135.6564  153.4867 H   0  0  0  0  0  0  0  0  0  0  0  0  # atno 10763 bound_to 10752
  153.0292  135.5223  154.7295 H   0  0  0  0  0  0  0  0  0  0  0  0  # atno 10764 bound_to 10752
  154.6445  135.2993  155.0032 H   0  0  0  0  0  0  0  0  0  0  0  0  # atno 10765 bound_to 10752
  140.4920  134.5975  157.4958 H   0  0  0  0  0  0  0  0  0  0  0  0  # atno 11005 bound_to 11000
  145.4925  139.1488  143.3702 LP  0  0  0  0  0  0  0  0  0  0  0  0  # atno 17320 bound_to 7965
  146.2599  140.5063  142.8858 LP  0  0  0  0  0  0  0  0  0  0  0  0  # atno 17321 bound_to 7965
  139.5845  144.1636  152.2011 LP  0  0  0  0  0  0  0  0  0  0  0  0  # atno 17342 bound_to 10162
  140.0971  144.5571  150.7014 LP  0  0  0  0  0  0  0  0  0  0  0  0  # atno 17343 bound_to 10162
  156.0341  130.5430  150.8609 LP  0  0  0  0  0  0  0  0  0  0  0  0  # atno 17370 bound_to 10713
  157.5688  131.0946  150.9449 LP  0  0  0  0  0  0  0  0  0  0  0  0  # atno 17371 bound_to 10713
  139.9763  134.7209  155.9943 LP  0  0  0  0  0  0  0  0  0  0  0  0  # atno 17394 bound_to 11000
  141.1479  133.6553  156.3923 LP  0  0  0  0  0  0  0  0  0  0  0  0  # atno 17395 bound_to 11000

$$$$
