AV-unprocessed.smi:2152|AV-procd|sdf|8765|dock8
  -GOLD-   2272011543D 1   1.00000     0.00000
 Structure written by MMmdl.
 41 42  0  0  0  0  0  0  0  0  1 V2000
  145.0152  135.7292  152.2794 C   0  0  0  0  0  0  0  0  0  0  0  0
  144.9925  134.2767  151.7696 C   0  0  1  0  0  0  0  0  0  0  0  0
  143.8622  134.0848  150.7379 C   0  0  0  0  0  0  0  0  0  0  0  0
  143.7993  132.6406  150.2176 C   0  0  0  0  0  0  0  0  0  0  0  0
  145.1463  132.2101  149.6215 C   0  0  0  0  0  0  0  0  0  0  0  0
  146.2790  132.3811  150.6438 C   0  0  0  0  0  0  0  0  0  0  0  0
  146.3524  133.8258  151.1761 C   0  0  2  0  0  0  0  0  0  0  0  0
  147.4106  133.9040  152.1820 N   0  0  0  0  0  0  0  0  0  0  0  0
  147.5658  133.0787  153.2288 C   0  0  0  0  0  0  0  0  0  0  0  0
  146.7961  132.1520  153.4847 O   0  0  0  0  0  0  0  0  0  0  0  0
  148.7766  133.3565  154.1291 C   0  0  0  0  0  0  0  0  0  0  0  0
  149.5859  132.1569  154.3784 N   0  0  0  0  0  0  0  0  0  0  0  0
  149.3804  131.0203  153.6179 C   0  0  0  0  0  0  0  0  0  0  0  0
  150.0938  129.8833  153.7697 C   0  0  0  0  0  0  0  0  0  0  0  0
  151.1459  129.7887  154.7744 C   0  0  0  0  0  0  0  0  0  0  0  0
  151.8362  128.7811  154.9324 O   0  0  0  0  0  0  0  0  0  0  0  0
  151.3236  130.9583  155.5508 N   0  0  0  0  0  0  0  0  0  0  0  0
  152.3644  130.9532  156.5581 C   0  0  0  0  0  0  0  0  0  0  0  0
  150.5873  132.1517  155.3738 C   0  0  0  0  0  0  0  0  0  0  0  0
  150.8041  133.1611  156.0489 O   0  0  0  0  0  0  0  0  0  0  0  0
  145.2851  136.4233  151.4828 H   0  0  0  0  0  0  0  0  0  0  0  0
  145.7299  135.8611  153.0919 H   0  0  0  0  0  0  0  0  0  0  0  0
  144.0383  136.0259  152.6616 H   0  0  0  0  0  0  0  0  0  0  0  0
  144.7680  133.6362  152.6242 H   0  0  0  0  0  0  0  0  0  0  0  0
  142.9025  134.3511  151.1821 H   0  0  0  0  0  0  0  0  0  0  0  0
  144.0116  134.7655  149.8986 H   0  0  0  0  0  0  0  0  0  0  0  0
  143.5263  131.9688  151.0324 H   0  0  0  0  0  0  0  0  0  0  0  0
  143.0146  132.5504  149.4659 H   0  0  0  0  0  0  0  0  0  0  0  0
  145.0937  131.1715  149.2942 H   0  0  0  0  0  0  0  0  0  0  0  0
  145.3616  132.8050  148.7329 H   0  0  0  0  0  0  0  0  0  0  0  0
  146.1230  131.6886  151.4725 H   0  0  0  0  0  0  0  0  0  0  0  0
  147.2290  132.1037  150.1851 H   0  0  0  0  0  0  0  0  0  0  0  0
  146.5887  134.4763  150.3317 H   0  0  0  0  0  0  0  0  0  0  0  0
  148.0938  134.6373  152.0590 H   0  0  0  0  0  0  0  0  0  0  0  0
  149.3985  134.1387  153.6895 H   0  0  0  0  0  0  0  0  0  0  0  0
  148.4116  133.7650  155.0724 H   0  0  0  0  0  0  0  0  0  0  0  0
  148.6146  131.0416  152.8561 H   0  0  0  0  0  0  0  0  0  0  0  0
  149.8858  129.0333  153.1366 H   0  0  0  0  0  0  0  0  0  0  0  0
  152.0608  131.5833  157.3955 H   0  0  0  0  0  0  0  0  0  0  0  0
  153.2687  131.3319  156.0801 H   0  0  0  0  0  0  0  0  0  0  0  0
  152.5070  129.9401  156.9364 H   0  0  0  0  0  0  0  0  0  0  0  0
  1  2  1  0  0  0  0
  1 21  1  0  0  0  0
  1 22  1  0  0  0  0
  1 23  1  0  0  0  0
  2  7  1  0  0  0  0
  2  3  1  0  0  0  0
  2 24  1  0  0  0  0
  3  4  1  0  0  0  0
  3 25  1  0  0  0  0
  3 26  1  0  0  0  0
  4  5  1  0  0  0  0
  4 27  1  0  0  0  0
  4 28  1  0  0  0  0
  5  6  1  0  0  0  0
  5 29  1  0  0  0  0
  5 30  1  0  0  0  0
  6  7  1  0  0  0  0
  6 31  1  0  0  0  0
  6 32  1  0  0  0  0
  7  8  1  0  0  0  0
  7 33  1  0  0  0  0
  8  9  1  0  0  0  0
  8 34  1  0  0  0  0
  9 10  2  0  0  0  0
  9 11  1  0  0  0  0
 11 12  1  0  0  0  0
 11 35  1  0  0  0  0
 11 36  1  0  0  0  0
 12 19  1  0  0  0  0
 12 13  1  0  0  0  0
 13 14  2  0  0  0  0
 13 37  1  0  0  0  0
 14 15  1  0  0  0  0
 14 38  1  0  0  0  0
 15 16  2  0  0  0  0
 15 17  1  0  0  0  0
 17 18  1  0  0  0  0
 17 19  1  0  0  0  0
 18 39  1  0  0  0  0
 18 40  1  0  0  0  0
 18 41  1  0  0  0  0
 19 20  2  0  0  0  0
M  END
> <s_m_source_file>
AV-unprocessed.smi

> <i_m_source_file_index>
2152

> <i_lp_mmshare_version>
43012

> <i_f3d_flags>
0

> <s_epik_input>
W0NIM11bQ0BASF0xW0NIMl1bQ0gyXVtDSDJdW0NIMl1bQ0BIXTFbTkhdQyg9TylbQ0gyXW4yW2NIXVtjSF1jKD1PKW4oW0NIM10pYzI9Tw==

> <s_epik_cmdline>
J2VwaWtfcHl0aG9uJywgJy1waCcsICc3LjAnLCAnLXRuJywgJzgnLCAnLW1hJywgJzIwMCcsICctbWV0YWxfYmluZGluZycsICctaW1hZScsICc8aW5maWxlLm1hZT4nLCAnLW9tYWUnLCAnPG91dGZpbGUubWFlPic=

> <r_lp_tautomer_probability>
1

> <r_epik_Ionization_Penalty>
3.20555e-08

> <r_epik_Ionization_Penalty_Charging>
1.30086e-08

> <r_epik_Ionization_Penalty_Neutral>
1.90469e-08

> <r_epik_State_Penalty>
-0

> <r_epik_Charging_Adjusted_Penalty>
1.30086e-08

> <i_epik_Tot_Q>
0

> <i_epik_Tot_abs_Q>
0

> <r_epik_Metal_State_Penalty>
-0

> <b_epik_Metal_Only>
0

> <s_lp_Force_Field>
OPLS_2005

> <r_lp_Energy>
17.8687

> <b_lp_Chiralities_Consistent>
1

> <s_lp_Variant>
AV-unprocessed.smi:2152-4

> <Gold.Version>
5.8.1

> <Gold.Id.Protein>
6NUR|6NUR_protein|mol2

> <Gold.PLP.Fitness>
38.8440

> <Gold.PLP.PLP>
-35.1790

> <Gold.PLP.part.hbond>
-1.0000

> <Gold.PLP.part.metal>
0.0000

> <Gold.PLP.part.buried>
-3.1925

> <Gold.PLP.part.nonpolar>
-31.1365

> <Gold.PLP.part.repulsive>
0.2079

> <Gold.PLP.ligand.clash>
0.0000

> <Gold.PLP.ligand.torsion>
0.3363

> <Gold.PLP.Chemscore.Hbond>
0.9500

> <Gold.PLP.Chemscore.CHOScore>
0.4937

> <Gold.PLP.Chemscore.Metal>
0.0000

> <Gold.Chemscore.Hbonds>
donor molecule, donor type, donor heavy atom, donor atom, acceptor molecule, acceptor atom, score
      L1  H     8    34       P1  7948  0.90
      L1  C    13    37       P1 10747  0.78

> <Gold.PLP.Chemscore.Internal.Correction>
0.0064

> <Gold.Rescore>
     Score         DG    S(hbond)    S(metal)    S(lipo)     H(rot)  DE(clash)    DE(int)     intcor
     10.19     -12.81       0.94        0.00      69.06       1.52       0.07       2.55       ----

> <Gold.Chemscore.Fitness>
10.1864

> <Gold.Chemscore.DG>
-12.8065

> <Gold.Chemscore.ZeroCoef>
-5.4800

> <Gold.Chemscore.Hbond>
0.9427

> <Gold.Chemscore.Metal>
0.0000

> <Gold.Chemscore.Lipo>
69.0569

> <Gold.Chemscore.Internal_Hbond>
0.0000

> <Gold.Chemscore.DEClash>
0.0746

> <Gold.Chemscore.DEInternal>
2.5455

> <Gold.Chemscore.Rot>
1.5242

> <Gold.Chemscore.Internal.Correction>
   9.000000E+99

> <Gold.Chemscore.Hbonds>
donor molecule, donor type, donor heavy atom, donor atom, acceptor molecule, acceptor atom, score
      L1  H     8    34       P1  7948  0.18

> <Gold.Chemscore.Hbond.Weighted>
-3.1487

> <Gold.Chemscore.Metal.Weighted>
-0.0000

> <Gold.Chemscore.Lipo.Weighted>
-8.0797

> <Gold.Chemscore.Internal_Hbond.Weighted>
0.0000

> <Gold.Chemscore.DEClash.Weighted>
0.0746

> <Gold.Chemscore.DEInternal.Weighted>
2.5455

> <Gold.Chemscore.Rot.Weighted>
3.9019

> <Gold.Chemscore.Internal.Correction.Weighted>
   9.000000E+99

> <Gold.Protein.RotatedTorsions>
[ 6907 6896 6895 6894 ] final  -74.93 input  -60.11 | X-H torsion
[ 7974 7965 7964 7962 ] final -162.52 input  175.53 | X-H torsion
[ 8008 7997 7996 7995 ] final   78.72 input   59.86 | X-H torsion
[ 10167 10162 10161 10158 ] final  113.12 input  -65.29 | X-H torsion
[ 10718 10713 10712 10709 ] final -102.95 input   66.30 | X-H torsion
[ 10763 10752 10751 10750 ] final   41.64 input  -60.55 | X-H torsion
[ 11005 11000 10999 10996 ] final   42.80 input  -57.11 | X-H torsion

> <Gold.Protein.ActiveResidues>
 VAL166  LYS551  ARG553  GLY616  TRP617  ASP618  TYR619  PRO620  LYS621  CYS622 
 ASP623  PHE694  ASN695  SER759  ASP760  ASP761  ALA762  ILE779  LEU786  VAL792 
 PHE793  MET794  SER795  GLU796  ALA797  LYS798  CYS799  TRP800  GLU811  SER814 

> <Gold.Protein.RotatedAtoms>
  150.7076  134.4797  159.5463 H   0  0  0  0  0  0  0  0  0  0  0  0  # atno 6907 bound_to 6896
  152.2436  134.8201  160.0465 H   0  0  0  0  0  0  0  0  0  0  0  0  # atno 6908 bound_to 6896
  151.8973  133.3495  159.3855 H   0  0  0  0  0  0  0  0  0  0  0  0  # atno 6909 bound_to 6896
  144.7355  140.3240  143.6165 H   0  0  0  0  0  0  0  0  0  0  0  0  # atno 7974 bound_to 7965
  155.8597  140.3454  155.5748 H   0  0  0  0  0  0  0  0  0  0  0  0  # atno 8008 bound_to 7997
  155.7947  140.0876  157.2009 H   0  0  0  0  0  0  0  0  0  0  0  0  # atno 8009 bound_to 7997
  154.4011  140.1476  156.3192 H   0  0  0  0  0  0  0  0  0  0  0  0  # atno 8010 bound_to 7997
  139.6485  144.7127  151.2095 H   0  0  0  0  0  0  0  0  0  0  0  0  # atno 10167 bound_to 10162
  156.0247  130.5444  150.7182 H   0  0  0  0  0  0  0  0  0  0  0  0  # atno 10718 bound_to 10713
  152.9903  135.6156  154.2820 H   0  0  0  0  0  0  0  0  0  0  0  0  # atno 10763 bound_to 10752
  154.2549  135.2784  155.2803 H   0  0  0  0  0  0  0  0  0  0  0  0  # atno 10764 bound_to 10752
  154.5256  135.5802  153.6774 H   0  0  0  0  0  0  0  0  0  0  0  0  # atno 10765 bound_to 10752
  140.1705  134.4228  155.8260 H   0  0  0  0  0  0  0  0  0  0  0  0  # atno 11005 bound_to 11000
  145.7540  139.1803  143.2305 LP  0  0  0  0  0  0  0  0  0  0  0  0  # atno 17320 bound_to 7965
  146.1039  140.7511  142.9536 LP  0  0  0  0  0  0  0  0  0  0  0  0  # atno 17321 bound_to 7965
  140.7526  143.6191  150.8531 LP  0  0  0  0  0  0  0  0  0  0  0  0  # atno 17342 bound_to 10162
  139.9836  143.5924  152.2934 LP  0  0  0  0  0  0  0  0  0  0  0  0  # atno 17343 bound_to 10162
  157.4804  131.0902  151.0543 LP  0  0  0  0  0  0  0  0  0  0  0  0  # atno 17370 bound_to 10713
  157.0978  130.5969  149.5453 LP  0  0  0  0  0  0  0  0  0  0  0  0  # atno 17371 bound_to 10713
  141.2217  133.6954  156.7754 LP  0  0  0  0  0  0  0  0  0  0  0  0  # atno 17394 bound_to 11000
  140.2383  134.8633  157.3548 LP  0  0  0  0  0  0  0  0  0  0  0  0  # atno 17395 bound_to 11000

$$$$
