AV-unprocessed.smi:3131|AV-procd|sdf|11928|dock1
  -GOLD-   2272017313D 1   1.00000     0.00000
 Structure written by MMmdl.
 43 43  0  0  0  0  0  0  0  0  2 V2000
  145.7145  135.7628  150.7282 C   0  0  0  0  0  0  0  0  0  0  0  0
  145.9571  137.2531  151.0107 C   0  0  0  0  0  0  0  0  0  0  0  0
  146.1447  137.6005  152.5068 C   0  0  0  0  0  0  0  0  0  0  0  0
  144.7847  137.6202  153.2479 C   0  0  0  0  0  0  0  0  0  0  0  0
  143.9727  136.3238  153.1100 C   0  0  0  0  0  0  0  0  0  0  0  0
  146.8855  138.9456  152.6792 C   0  0  0  0  0  0  0  0  0  0  0  0
  148.3321  138.7478  152.8979 N   0  3  0  0  0  0  0  0  0  0  0  0
  148.7620  138.8761  154.3063 C   0  0  0  0  0  0  0  0  0  0  0  0
  149.2925  140.2931  154.6141 C   0  0  2  0  0  0  0  0  0  0  0  0
  148.1563  141.1959  155.1236 C   0  0  0  0  0  0  0  0  0  0  0  0
  149.7214  140.8597  153.3893 O   0  0  0  0  0  0  0  0  0  0  0  0
  150.4090  140.2429  155.6358 C   0  0  0  0  0  0  0  0  0  0  0  0
  151.6705  139.5891  155.5139 C   0  0  0  0  0  0  0  0  0  0  0  0
  152.4403  139.7441  156.5773 N   0  0  0  0  0  0  0  0  0  0  0  0
  151.6999  140.4907  157.4207 N   0  0  0  0  0  0  0  0  0  0  0  0
  152.2411  140.8547  158.7125 C   0  0  0  0  0  0  0  0  0  0  0  0
  150.4712  140.8050  156.8819 C   0  0  0  0  0  0  0  0  0  0  0  0
  145.4925  135.6059  149.6725 H   0  0  0  0  0  0  0  0  0  0  0  0
  144.8680  135.3848  151.3022 H   0  0  0  0  0  0  0  0  0  0  0  0
  146.5849  135.1523  150.9659 H   0  0  0  0  0  0  0  0  0  0  0  0
  146.8194  137.5978  150.4387 H   0  0  0  0  0  0  0  0  0  0  0  0
  145.1011  137.7950  150.6114 H   0  0  0  0  0  0  0  0  0  0  0  0
  146.7612  136.8207  152.9573 H   0  0  0  0  0  0  0  0  0  0  0  0
  144.9437  137.7832  154.3139 H   0  0  0  0  0  0  0  0  0  0  0  0
  144.1871  138.4662  152.9061 H   0  0  0  0  0  0  0  0  0  0  0  0
  143.0708  136.3696  153.7209 H   0  0  0  0  0  0  0  0  0  0  0  0
  144.5500  135.4601  153.4413 H   0  0  0  0  0  0  0  0  0  0  0  0
  143.6564  136.1438  152.0832 H   0  0  0  0  0  0  0  0  0  0  0  0
  146.7735  139.5653  151.7904 H   0  0  0  0  0  0  0  0  0  0  0  0
  146.4618  139.5059  153.5139 H   0  0  0  0  0  0  0  0  0  0  0  0
  148.5761  137.8210  152.5785 H   0  0  0  0  0  0  0  0  0  0  0  0
  147.9276  138.6243  154.9628 H   0  0  0  0  0  0  0  0  0  0  0  0
  149.5451  138.1409  154.4984 H   0  0  0  0  0  0  0  0  0  0  0  0
  147.7387  140.8204  156.0584 H   0  0  0  0  0  0  0  0  0  0  0  0
  147.3396  141.2565  154.4032 H   0  0  0  0  0  0  0  0  0  0  0  0
  148.5092  142.2116  155.3075 H   0  0  0  0  0  0  0  0  0  0  0  0
  149.6004  140.2228  152.7011 H   0  0  0  0  0  0  0  0  0  0  0  0
  152.0496  139.0144  154.6816 H   0  0  0  0  0  0  0  0  0  0  0  0
  151.5397  141.4982  159.2445 H   0  0  0  0  0  0  0  0  0  0  0  0
  153.1828  141.3887  158.5822 H   0  0  0  0  0  0  0  0  0  0  0  0
  152.4171  139.9563  159.3049 H   0  0  0  0  0  0  0  0  0  0  0  0
  149.7501  141.4000  157.4231 H   0  0  0  0  0  0  0  0  0  0  0  0
  148.8434  139.4211  152.3451 H   0  0  0  0  0  0  0  0  0  0  0  0
  1  2  1  0  0  0  0
  1 18  1  0  0  0  0
  1 19  1  0  0  0  0
  1 20  1  0  0  0  0
  2  3  1  0  0  0  0
  2 21  1  0  0  0  0
  2 22  1  0  0  0  0
  3  4  1  0  0  0  0
  3  6  1  0  0  0  0
  3 23  1  0  0  0  0
  4  5  1  0  0  0  0
  4 24  1  0  0  0  0
  4 25  1  0  0  0  0
  5 26  1  0  0  0  0
  5 27  1  0  0  0  0
  5 28  1  0  0  0  0
  6  7  1  0  0  0  0
  6 29  1  0  0  0  0
  6 30  1  0  0  0  0
  7  8  1  0  0  0  0
  7 31  1  0  0  0  0
  7 43  1  0  0  0  0
  8  9  1  0  0  0  0
  8 32  1  0  0  0  0
  8 33  1  0  0  0  0
  9 10  1  0  0  0  0
  9 11  1  0  0  0  0
  9 12  1  0  0  0  0
 10 34  1  0  0  0  0
 10 35  1  0  0  0  0
 10 36  1  0  0  0  0
 11 37  1  0  0  0  0
 12 17  2  0  0  0  0
 12 13  1  0  0  0  0
 13 14  2  0  0  0  0
 13 38  1  0  0  0  0
 14 15  1  0  0  0  0
 15 16  1  0  0  0  0
 15 17  1  0  0  0  0
 16 39  1  0  0  0  0
 16 40  1  0  0  0  0
 16 41  1  0  0  0  0
 17 42  1  0  0  0  0
M  CHG  1   7   1
M  END
> <s_m_source_file>
AV-unprocessed.smi

> <i_m_source_file_index>
3131

> <i_lp_mmshare_version>
43012

> <i_f3d_flags>
0

> <s_epik_input>
W0NIM11bQ0gyXVtDSF0oW0NIMl1bQ0gzXSlbQ0gyXVtOSF1bQ0gyXVtDQEBdKFtDSDNdKShbT0hdKWMxW2NIXW5uKFtDSDNdKVtjSF0x

> <s_epik_cmdline>
J2VwaWtfcHl0aG9uJywgJy1waCcsICc3LjAnLCAnLXRuJywgJzgnLCAnLW1hJywgJzIwMCcsICctbWV0YWxfYmluZGluZycsICctaW1hZScsICc8aW5maWxlLm1hZT4nLCAnLW9tYWUnLCAnPG91dGZpbGUubWFlPic=

> <r_lp_tautomer_probability>
1

> <r_epik_Ionization_Penalty>
0.00304809

> <r_epik_Ionization_Penalty_Charging>
0.00302982

> <r_epik_Ionization_Penalty_Neutral>
1.82731e-05

> <r_epik_State_Penalty>
0.00212874

> <r_epik_Charging_Adjusted_Penalty>
0.00515857

> <i_epik_Tot_Q>
1

> <i_epik_Tot_abs_Q>
1

> <r_epik_Metal_State_Penalty>
-0

> <b_epik_Metal_Only>
0

> <s_lp_Force_Field>
OPLS_2005

> <r_lp_Energy>
9.85369

> <b_lp_Chiralities_Consistent>
1

> <s_lp_Variant>
AV-unprocessed.smi:3131-2

> <Gold.Version>
5.8.1

> <Gold.Id.Protein>
6NUR|6NUR_protein|mol2

> <Gold.PLP.Fitness>
48.3732

> <Gold.PLP.PLP>
-33.3763

> <Gold.PLP.part.hbond>
-5.1557

> <Gold.PLP.part.metal>
0.0000

> <Gold.PLP.part.buried>
0.6013

> <Gold.PLP.part.nonpolar>
-29.3574

> <Gold.PLP.part.repulsive>
0.0724

> <Gold.PLP.ligand.clash>
0.0000

> <Gold.PLP.ligand.torsion>
1.9474

> <Gold.PLP.Chemscore.Hbond>
6.1126

> <Gold.PLP.Chemscore.CHOScore>
0.0000

> <Gold.PLP.Chemscore.Metal>
0.0000

> <Gold.Chemscore.Hbonds>
donor molecule, donor type, donor heavy atom, donor atom, acceptor molecule, acceptor atom, score
      L1  H     7    31       P1  7948  2.00
      L1  H     7    43       P1  7957  1.00
      L1  H    11    37       P1  7957  0.86
      P1  H  7989  7998       L1    11  0.26
      P1  H  7997  8010       L1    14  1.00
      P1  H  8011  8017       L1    11  0.90

> <Gold.PLP.Chemscore.Internal.Correction>
0.5540

> <Gold.Rescore>
     Score         DG    S(hbond)    S(metal)    S(lipo)     H(rot)  DE(clash)    DE(int)     intcor
     20.58     -22.85       4.26        0.00      78.11       2.34       0.29       1.98       ----

> <Gold.Chemscore.Fitness>
20.5794

> <Gold.Chemscore.DG>
-22.8503

> <Gold.Chemscore.ZeroCoef>
-5.4800

> <Gold.Chemscore.Hbond>
4.2599

> <Gold.Chemscore.Metal>
0.0000

> <Gold.Chemscore.Lipo>
78.1144

> <Gold.Chemscore.Internal_Hbond>
0.0000

> <Gold.Chemscore.DEClash>
0.2942

> <Gold.Chemscore.DEInternal>
1.9767

> <Gold.Chemscore.Rot>
2.3426

> <Gold.Chemscore.Internal.Correction>
   9.000000E+99

> <Gold.Chemscore.Hbonds>
donor molecule, donor type, donor heavy atom, donor atom, acceptor molecule, acceptor atom, score
      L1  H     7    31       P1  7948  1.00
      L1  H     7    43       P1  7957  0.93
      L1  H    11    37       P1  7957  0.81
      P1  H  7989  7998       L1    11  0.04
      P1  H  7997  8010       L1    14  0.95
      P1  H  8011  8017       L1    11  0.18

> <Gold.Chemscore.Hbond.Weighted>
-14.2281

> <Gold.Chemscore.Metal.Weighted>
-0.0000

> <Gold.Chemscore.Lipo.Weighted>
-9.1394

> <Gold.Chemscore.Internal_Hbond.Weighted>
0.0000

> <Gold.Chemscore.DEClash.Weighted>
0.2942

> <Gold.Chemscore.DEInternal.Weighted>
1.9767

> <Gold.Chemscore.Rot.Weighted>
5.9972

> <Gold.Chemscore.Internal.Correction.Weighted>
   9.000000E+99

> <Gold.Protein.RotatedTorsions>
[ 6907 6896 6895 6894 ] final  111.99 input  -60.11 | X-H torsion
[ 7974 7965 7964 7962 ] final -167.69 input  175.53 | X-H torsion
[ 8008 7997 7996 7995 ] final   74.70 input   59.86 | X-H torsion
[ 10167 10162 10161 10158 ] final  -69.71 input  -65.29 | X-H torsion
[ 10718 10713 10712 10709 ] final  -86.42 input   66.30 | X-H torsion
[ 10763 10752 10751 10750 ] final  -34.33 input  -60.55 | X-H torsion
[ 11005 11000 10999 10996 ] final  129.14 input  -57.11 | X-H torsion

> <Gold.Protein.ActiveResidues>
 VAL166  LYS551  ARG553  GLY616  TRP617  ASP618  TYR619  PRO620  LYS621  CYS622 
 ASP623  PHE694  ASN695  SER759  ASP760  ASP761  ALA762  ILE779  LEU786  VAL792 
 PHE793  MET794  SER795  GLU796  ALA797  LYS798  CYS799  TRP800  GLU811  SER814 

> <Gold.Protein.RotatedAtoms>
  152.4940  133.8580  159.7235 H   0  0  0  0  0  0  0  0  0  0  0  0  # atno 6907 bound_to 6896
  150.9099  133.7002  159.2864 H   0  0  0  0  0  0  0  0  0  0  0  0  # atno 6908 bound_to 6896
  151.4415  135.1025  159.9724 H   0  0  0  0  0  0  0  0  0  0  0  0  # atno 6909 bound_to 6896
  144.7218  140.2481  143.6282 H   0  0  0  0  0  0  0  0  0  0  0  0  # atno 7974 bound_to 7965
  155.8022  140.3476  155.5409 H   0  0  0  0  0  0  0  0  0  0  0  0  # atno 8008 bound_to 7997
  155.8526  140.0958  157.1685 H   0  0  0  0  0  0  0  0  0  0  0  0  # atno 8009 bound_to 7997
  154.4008  140.1373  156.3850 H   0  0  0  0  0  0  0  0  0  0  0  0  # atno 8010 bound_to 7997
  140.5409  143.2315  151.7090 H   0  0  0  0  0  0  0  0  0  0  0  0  # atno 10167 bound_to 10162
  155.9990  130.4764  150.4711 H   0  0  0  0  0  0  0  0  0  0  0  0  # atno 10718 bound_to 10713
  153.8450  135.6854  153.4798 H   0  0  0  0  0  0  0  0  0  0  0  0  # atno 10763 bound_to 10752
  153.1431  135.4649  154.9524 H   0  0  0  0  0  0  0  0  0  0  0  0  # atno 10764 bound_to 10752
  154.7828  135.3274  154.7899 H   0  0  0  0  0  0  0  0  0  0  0  0  # atno 10765 bound_to 10752
  139.9599  134.9605  156.9104 H   0  0  0  0  0  0  0  0  0  0  0  0  # atno 11005 bound_to 11000
  145.8255  139.2062  143.1913 LP  0  0  0  0  0  0  0  0  0  0  0  0  # atno 17320 bound_to 7965
  146.0477  140.8101  142.9797 LP  0  0  0  0  0  0  0  0  0  0  0  0  # atno 17321 bound_to 7965
  139.4988  144.3970  152.0221 LP  0  0  0  0  0  0  0  0  0  0  0  0  # atno 17342 bound_to 10162
  140.3079  144.3572  150.6042 LP  0  0  0  0  0  0  0  0  0  0  0  0  # atno 17343 bound_to 10162
  157.2726  131.0590  151.2250 LP  0  0  0  0  0  0  0  0  0  0  0  0  # atno 17370 bound_to 10713
  157.3324  130.6992  149.6332 LP  0  0  0  0  0  0  0  0  0  0  0  0  # atno 17371 bound_to 10713
  140.5524  134.0614  155.7373 LP  0  0  0  0  0  0  0  0  0  0  0  0  # atno 17394 bound_to 11000
  141.1275  133.9359  157.2605 LP  0  0  0  0  0  0  0  0  0  0  0  0  # atno 17395 bound_to 11000

$$$$
