AV-unprocessed.smi:1933|AV-procd|sdf|7816|dock9
  -GOLD-   22720 9563D 1   1.00000     0.00000
 Structure written by MMmdl.
 47 49  0  0  0  0  0  0  0  0  1 V2000
  144.7461  136.6649  153.0761 O   0  0  0  0  0  0  0  0  0  0  0  0
  145.9053  136.5320  152.6830 C   0  0  0  0  0  0  0  0  0  0  0  0
  146.8562  137.4624  152.8497 N   0  0  0  0  0  0  0  0  0  0  0  0
  146.6698  138.7607  153.4916 C   0  0  0  0  0  0  0  0  0  0  0  0
  148.0226  139.4904  153.7088 C   0  0  1  0  0  0  0  0  0  0  0  0
  147.8563  140.8283  154.4966 C   0  0  2  0  0  0  0  0  0  0  0  0
  147.4267  140.7186  155.9631 C   0  0  0  0  0  0  0  0  0  0  0  0
  146.2544  141.6918  156.0769 C   0  0  0  0  0  0  0  0  0  0  0  0
  146.4813  142.6288  155.0376 O   0  0  0  0  0  0  0  0  0  0  0  0
  146.9169  141.8934  153.9058 C   0  0  0  0  0  0  0  0  0  0  0  0
  149.1302  138.6241  154.1627 N   0  0  0  0  0  0  0  0  0  0  0  0
  148.7798  137.7888  155.3098 C   0  0  0  0  0  0  0  0  0  0  0  0
  149.9025  136.7986  155.6586 C   0  0  0  0  0  0  0  0  0  0  0  0
  151.1040  137.5191  155.9093 O   0  0  0  0  0  0  0  0  0  0  0  0
  151.5131  138.3050  154.7950 C   0  0  0  0  0  0  0  0  0  0  0  0
  150.4020  139.2994  154.4130 C   0  0  0  0  0  0  0  0  0  0  0  0
  146.3880  135.4572  152.0348 N   0  0  0  0  0  0  0  0  0  0  0  0
  145.6944  134.2794  151.6487 C   0  0  0  0  0  0  0  0  0  0  0  0
  146.5134  133.2345  151.1636 C   0  0  0  0  0  0  0  0  0  0  0  0
  145.9219  132.0240  150.7530 C   0  0  0  0  0  0  0  0  0  0  0  0
  144.5246  131.8894  150.8377 C   0  0  0  0  0  0  0  0  0  0  0  0
  143.7824  132.9778  151.3319 C   0  0  0  0  0  0  0  0  0  0  0  0
  144.3473  134.1387  151.7262 N   0  0  0  0  0  0  0  0  0  0  0  0
  147.7802  137.2633  152.4951 H   0  0  0  0  0  0  0  0  0  0  0  0
  145.9926  139.3903  152.9131 H   0  0  0  0  0  0  0  0  0  0  0  0
  146.1708  138.5675  154.4400 H   0  0  0  0  0  0  0  0  0  0  0  0
  148.3225  139.8253  152.7146 H   0  0  0  0  0  0  0  0  0  0  0  0
  148.8415  141.2974  154.5179 H   0  0  0  0  0  0  0  0  0  0  0  0
  147.1410  139.7173  156.2835 H   0  0  0  0  0  0  0  0  0  0  0  0
  148.2440  141.0395  156.6100 H   0  0  0  0  0  0  0  0  0  0  0  0
  145.3077  141.1794  155.9005 H   0  0  0  0  0  0  0  0  0  0  0  0
  146.2032  142.1764  157.0519 H   0  0  0  0  0  0  0  0  0  0  0  0
  147.4243  142.5471  153.1963 H   0  0  0  0  0  0  0  0  0  0  0  0
  146.0545  141.4687  153.3965 H   0  0  0  0  0  0  0  0  0  0  0  0
  148.5850  138.4080  156.1851 H   0  0  0  0  0  0  0  0  0  0  0  0
  147.8630  137.2361  155.1030 H   0  0  0  0  0  0  0  0  0  0  0  0
  149.6395  136.2240  156.5467 H   0  0  0  0  0  0  0  0  0  0  0  0
  150.0567  136.0850  154.8476 H   0  0  0  0  0  0  0  0  0  0  0  0
  152.4276  138.8397  155.0516 H   0  0  0  0  0  0  0  0  0  0  0  0
  151.7499  137.6533  153.9524 H   0  0  0  0  0  0  0  0  0  0  0  0
  150.7306  139.8307  153.5241 H   0  0  0  0  0  0  0  0  0  0  0  0
  150.2882  140.0358  155.2089 H   0  0  0  0  0  0  0  0  0  0  0  0
  147.3637  135.4886  151.7793 H   0  0  0  0  0  0  0  0  0  0  0  0
  147.5854  133.3548  151.1048 H   0  0  0  0  0  0  0  0  0  0  0  0
  146.5305  131.2136  150.3798 H   0  0  0  0  0  0  0  0  0  0  0  0
  144.0347  130.9767  150.5324 H   0  0  0  0  0  0  0  0  0  0  0  0
  142.7074  132.9155  151.4136 H   0  0  0  0  0  0  0  0  0  0  0  0
  1  2  2  0  0  0  0
  2  3  1  0  0  0  0
  2 17  1  0  0  0  0
  3  4  1  0  0  0  0
  3 24  1  0  0  0  0
  4  5  1  0  0  0  0
  4 25  1  0  0  0  0
  4 26  1  0  0  0  0
  5  6  1  0  0  0  0
  5 11  1  0  0  0  0
  5 27  1  0  0  0  0
  6 10  1  0  0  0  0
  6  7  1  0  0  0  0
  6 28  1  0  0  0  0
  7  8  1  0  0  0  0
  7 29  1  0  0  0  0
  7 30  1  0  0  0  0
  8  9  1  0  0  0  0
  8 31  1  0  0  0  0
  8 32  1  0  0  0  0
  9 10  1  0  0  0  0
 10 33  1  0  0  0  0
 10 34  1  0  0  0  0
 11 16  1  0  0  0  0
 11 12  1  0  0  0  0
 12 13  1  0  0  0  0
 12 35  1  0  0  0  0
 12 36  1  0  0  0  0
 13 14  1  0  0  0  0
 13 37  1  0  0  0  0
 13 38  1  0  0  0  0
 14 15  1  0  0  0  0
 15 16  1  0  0  0  0
 15 39  1  0  0  0  0
 15 40  1  0  0  0  0
 16 41  1  0  0  0  0
 16 42  1  0  0  0  0
 17 18  1  0  0  0  0
 17 43  1  0  0  0  0
 18 23  1  0  0  0  0
 18 19  2  0  0  0  0
 19 20  1  0  0  0  0
 19 44  1  0  0  0  0
 20 21  2  0  0  0  0
 20 45  1  0  0  0  0
 21 22  1  0  0  0  0
 21 46  1  0  0  0  0
 22 23  2  0  0  0  0
 22 47  1  0  0  0  0
M  END
> <s_m_source_file>
AV-unprocessed.smi

> <i_m_source_file_index>
1933

> <i_lp_mmshare_version>
43012

> <i_f3d_flags>
0

> <s_epik_input>
bjFbY0hdW2NIXVtjSF1bY0hdYzFbTkhdQyg9TylbTkhdW0NIMl1bQ0BIXShbQ0BASF0yW0NIMl1bQ0gyXU9bQ0gyXTIpTjNbQ0gyXVtDSDJdT1tDSDJdW0NIMl0z

> <s_epik_cmdline>
J2VwaWtfcHl0aG9uJywgJy1waCcsICc3LjAnLCAnLXRuJywgJzgnLCAnLW1hJywgJzIwMCcsICctbWV0YWxfYmluZGluZycsICctaW1hZScsICc8aW5maWxlLm1hZT4nLCAnLW9tYWUnLCAnPG91dGZpbGUubWFlPic=

> <r_epik_Ionization_Penalty>
0.125062

> <r_epik_Ionization_Penalty_Charging>
0

> <r_epik_Ionization_Penalty_Neutral>
0.125062

> <r_epik_State_Penalty>
0.114484

> <r_epik_Charging_Adjusted_Penalty>
0.114484

> <i_epik_Tot_Q>
0

> <i_epik_Tot_abs_Q>
0

> <r_epik_Metal_State_Penalty>
0.114484

> <b_epik_Metal_Only>
0

> <s_lp_Force_Field>
OPLS_2005

> <r_lp_Energy>
56.3046

> <b_lp_Chiralities_Consistent>
1

> <s_lp_Variant>
AV-unprocessed.smi:1933-2

> <Gold.Version>
5.8.1

> <Gold.Id.Protein>
6NUR|6NUR_protein|mol2

> <Gold.PLP.Fitness>
43.5460

> <Gold.PLP.PLP>
-34.9869

> <Gold.PLP.part.hbond>
-2.0000

> <Gold.PLP.part.metal>
0.0000

> <Gold.PLP.part.buried>
-5.2101

> <Gold.PLP.part.nonpolar>
-28.6278

> <Gold.PLP.part.repulsive>
0.8884

> <Gold.PLP.ligand.clash>
0.0000

> <Gold.PLP.ligand.torsion>
0.4096

> <Gold.PLP.Chemscore.Hbond>
2.0000

> <Gold.PLP.Chemscore.CHOScore>
1.0000

> <Gold.PLP.Chemscore.Metal>
0.0000

> <Gold.Chemscore.Hbonds>
donor molecule, donor type, donor heavy atom, donor atom, acceptor molecule, acceptor atom, score
      L1  H     3    24       P1  7948  1.00
      L1  H    17    43       P1  7948  1.00

> <Gold.PLP.Chemscore.Internal.Correction>
0.3782

> <Gold.Rescore>
     Score         DG    S(hbond)    S(metal)    S(lipo)     H(rot)  DE(clash)    DE(int)     intcor
     15.41     -17.11       1.91        0.00      82.33       1.72       0.10       1.59       ----

> <Gold.Chemscore.Fitness>
15.4123

> <Gold.Chemscore.DG>
-17.1056

> <Gold.Chemscore.ZeroCoef>
-5.4800

> <Gold.Chemscore.Hbond>
1.9119

> <Gold.Chemscore.Metal>
0.0000

> <Gold.Chemscore.Lipo>
82.3343

> <Gold.Chemscore.Internal_Hbond>
0.0000

> <Gold.Chemscore.DEClash>
0.1031

> <Gold.Chemscore.DEInternal>
1.5902

> <Gold.Chemscore.Rot>
1.7161

> <Gold.Chemscore.Internal.Correction>
   9.000000E+99

> <Gold.Chemscore.Hbonds>
donor molecule, donor type, donor heavy atom, donor atom, acceptor molecule, acceptor atom, score
      L1  H     3    24       P1  7948  0.97
      L1  H    17    43       P1  7948  0.96

> <Gold.Chemscore.Hbond.Weighted>
-6.3857

> <Gold.Chemscore.Metal.Weighted>
-0.0000

> <Gold.Chemscore.Lipo.Weighted>
-9.6331

> <Gold.Chemscore.Internal_Hbond.Weighted>
0.0000

> <Gold.Chemscore.DEClash.Weighted>
0.1031

> <Gold.Chemscore.DEInternal.Weighted>
1.5902

> <Gold.Chemscore.Rot.Weighted>
4.3932

> <Gold.Chemscore.Internal.Correction.Weighted>
   9.000000E+99

> <Gold.Protein.RotatedTorsions>
[ 6907 6896 6895 6894 ] final  -91.71 input  -60.11 | X-H torsion
[ 7974 7965 7964 7962 ] final -164.92 input  175.53 | X-H torsion
[ 8008 7997 7996 7995 ] final  -21.89 input   59.86 | X-H torsion
[ 10167 10162 10161 10158 ] final  118.55 input  -65.29 | X-H torsion
[ 10718 10713 10712 10709 ] final  174.69 input   66.30 | X-H torsion
[ 10763 10752 10751 10750 ] final   38.94 input  -60.55 | X-H torsion
[ 11005 11000 10999 10996 ] final  121.52 input  -57.11 | X-H torsion

> <Gold.Protein.ActiveResidues>
 VAL166  LYS551  ARG553  GLY616  TRP617  ASP618  TYR619  PRO620  LYS621  CYS622 
 ASP623  PHE694  ASN695  SER759  ASP760  ASP761  ALA762  ILE779  LEU786  VAL792 
 PHE793  MET794  SER795  GLU796  ALA797  LYS798  CYS799  TRP800  GLU811  SER814 

> <Gold.Protein.RotatedAtoms>
  150.6896  134.2235  159.4405 H   0  0  0  0  0  0  0  0  0  0  0  0  # atno 6907 bound_to 6896
  152.0190  134.9831  160.0579 H   0  0  0  0  0  0  0  0  0  0  0  0  # atno 6908 bound_to 6896
  152.1416  133.4432  159.4806 H   0  0  0  0  0  0  0  0  0  0  0  0  # atno 6909 bound_to 6896
  144.7283  140.2890  143.6223 H   0  0  0  0  0  0  0  0  0  0  0  0  # atno 7974 bound_to 7965
  154.4677  140.2022  156.0074 H   0  0  0  0  0  0  0  0  0  0  0  0  # atno 8008 bound_to 7997
  156.0957  140.3251  155.7845 H   0  0  0  0  0  0  0  0  0  0  0  0  # atno 8009 bound_to 7997
  155.4883  140.0544  157.2948 H   0  0  0  0  0  0  0  0  0  0  0  0  # atno 8010 bound_to 7997
  139.6104  144.7080  151.2857 H   0  0  0  0  0  0  0  0  0  0  0  0  # atno 10167 bound_to 10162
  156.9459  131.0016  151.2959 H   0  0  0  0  0  0  0  0  0  0  0  0  # atno 10718 bound_to 10713
  152.9983  135.6235  154.2386 H   0  0  0  0  0  0  0  0  0  0  0  0  # atno 10763 bound_to 10752
  154.2127  135.2799  155.2954 H   0  0  0  0  0  0  0  0  0  0  0  0  # atno 10764 bound_to 10752
  154.5593  135.5710  153.7052 H   0  0  0  0  0  0  0  0  0  0  0  0  # atno 10765 bound_to 10752
  139.9229  134.9639  156.7971 H   0  0  0  0  0  0  0  0  0  0  0  0  # atno 11005 bound_to 11000
  145.7874  139.1914  143.2122 LP  0  0  0  0  0  0  0  0  0  0  0  0  # atno 17320 bound_to 7965
  146.0784  140.7792  142.9654 LP  0  0  0  0  0  0  0  0  0  0  0  0  # atno 17321 bound_to 7965
  140.7315  143.6850  150.7969 LP  0  0  0  0  0  0  0  0  0  0  0  0  # atno 17342 bound_to 10162
  140.0444  143.5313  152.2703 LP  0  0  0  0  0  0  0  0  0  0  0  0  # atno 17343 bound_to 10162
  157.5754  130.8339  149.8448 LP  0  0  0  0  0  0  0  0  0  0  0  0  # atno 17370 bound_to 10713
  156.0384  130.3745  150.1500 LP  0  0  0  0  0  0  0  0  0  0  0  0  # atno 17371 bound_to 10713
  140.6420  133.9810  155.7712 LP  0  0  0  0  0  0  0  0  0  0  0  0  # atno 17394 bound_to 11000
  141.0765  134.0127  157.3450 LP  0  0  0  0  0  0  0  0  0  0  0  0  # atno 17395 bound_to 11000

$$$$
