AV-unprocessed.smi:837|AV-procd|sdf|3903|dock3
  -GOLD-   22720 1363D 1   1.00000     0.00000
 Structure written by MMmdl.
 48 50  0  0  0  0  0  0  0  0  2 V2000
  153.4322  137.9846  158.8555 C   0  0  0  0  0  0  0  0  0  0  0  0
  152.8125  139.3193  159.3242 C   0  0  1  0  0  0  0  0  0  0  0  0
  153.9113  140.2912  159.8071 C   0  0  0  0  0  0  0  0  0  0  0  0
  153.3186  141.5868  160.3808 C   0  0  0  0  0  0  0  0  0  0  0  0
  152.4085  142.2797  159.3587 C   0  0  0  0  0  0  0  0  0  0  0  0
  151.2985  141.3332  158.8691 C   0  0  0  0  0  0  0  0  0  0  0  0
  151.8553  140.0042  158.2944 C   0  0  1  0  0  0  0  0  0  0  0  0
  152.5142  140.2472  157.0205 N   0  5  0  0  0  0  0  0  0  0  0  0
  151.8365  139.6005  156.0442 C   0  0  0  0  0  0  0  0  0  0  0  0
  152.1024  139.5978  154.8426 O   0  0  0  0  0  0  0  0  0  0  0  0
  150.7862  138.9257  156.5491 N   0  0  0  0  0  0  0  0  0  0  0  0
  149.8361  138.1381  155.7527 C   0  0  0  0  0  0  0  0  0  0  0  0
  150.3729  136.7453  155.3974 C   0  0  0  0  0  0  0  0  0  0  0  0
  151.3996  136.6177  154.7291 O   0  0  0  0  0  0  0  0  0  0  0  0
  149.6466  135.7044  155.8311 N   0  0  0  0  0  0  0  0  0  0  0  0
  149.9714  134.3012  155.5958 C   0  0  0  0  0  0  0  0  0  0  0  0
  149.7186  133.8717  154.1381 C   0  0  0  0  0  0  0  0  0  0  0  0
  149.5596  132.3702  153.9735 C   0  0  0  0  0  0  0  0  0  0  0  0
  150.4790  131.4734  154.5567 C   0  0  0  0  0  0  0  0  0  0  0  0
  150.2908  130.0909  154.3662 C   0  0  0  0  0  0  0  0  0  0  0  0
  149.1888  129.6632  153.5992 C   0  0  0  0  0  0  0  0  0  0  0  0
  148.3025  130.5126  153.0364 N   0  0  0  0  0  0  0  0  0  0  0  0
  148.4894  131.8366  153.2247 C   0  0  0  0  0  0  0  0  0  0  0  0
  150.7044  139.1006  157.8727 C   0  0  0  0  0  0  0  0  0  0  0  0
  149.8633  138.6320  158.6415 O   0  0  0  0  0  0  0  0  0  0  0  0
  154.0688  138.1233  157.9815 H   0  0  0  0  0  0  0  0  0  0  0  0
  152.6702  137.2485  158.6001 H   0  0  0  0  0  0  0  0  0  0  0  0
  154.0485  137.5468  159.6407 H   0  0  0  0  0  0  0  0  0  0  0  0
  152.2109  139.0784  160.2025 H   0  0  0  0  0  0  0  0  0  0  0  0
  154.5249  139.8095  160.5691 H   0  0  0  0  0  0  0  0  0  0  0  0
  154.5835  140.5313  158.9821 H   0  0  0  0  0  0  0  0  0  0  0  0
  152.7505  141.3614  161.2842 H   0  0  0  0  0  0  0  0  0  0  0  0
  154.1214  142.2615  160.6794 H   0  0  0  0  0  0  0  0  0  0  0  0
  151.9654  143.1718  159.8016 H   0  0  0  0  0  0  0  0  0  0  0  0
  153.0034  142.6217  158.5109 H   0  0  0  0  0  0  0  0  0  0  0  0
  150.6361  141.1178  159.7090 H   0  0  0  0  0  0  0  0  0  0  0  0
  150.6828  141.8464  158.1281 H   0  0  0  0  0  0  0  0  0  0  0  0
  148.8927  138.0463  156.2939 H   0  0  0  0  0  0  0  0  0  0  0  0
  149.5935  138.6582  154.8246 H   0  0  0  0  0  0  0  0  0  0  0  0
  148.8133  135.8977  156.3674 H   0  0  0  0  0  0  0  0  0  0  0  0
  151.0066  134.1016  155.8763 H   0  0  0  0  0  0  0  0  0  0  0  0
  149.3521  133.7035  156.2653 H   0  0  0  0  0  0  0  0  0  0  0  0
  148.8263  134.3688  153.7553 H   0  0  0  0  0  0  0  0  0  0  0  0
  150.5432  134.2089  153.5090 H   0  0  0  0  0  0  0  0  0  0  0  0
  151.3158  131.8367  155.1352 H   0  0  0  0  0  0  0  0  0  0  0  0
  150.9756  129.3752  154.7964 H   0  0  0  0  0  0  0  0  0  0  0  0
  149.0150  128.6106  153.4320 H   0  0  0  0  0  0  0  0  0  0  0  0
  147.7660  132.4902  152.7599 H   0  0  0  0  0  0  0  0  0  0  0  0
  1  2  1  0  0  0  0
  1 26  1  0  0  0  0
  1 27  1  0  0  0  0
  1 28  1  0  0  0  0
  2  7  1  0  0  0  0
  2  3  1  0  0  0  0
  2 29  1  0  0  0  0
  3  4  1  0  0  0  0
  3 30  1  0  0  0  0
  3 31  1  0  0  0  0
  4  5  1  0  0  0  0
  4 32  1  0  0  0  0
  4 33  1  0  0  0  0
  5  6  1  0  0  0  0
  5 34  1  0  0  0  0
  5 35  1  0  0  0  0
  6  7  1  0  0  0  0
  6 36  1  0  0  0  0
  6 37  1  0  0  0  0
  7 24  1  0  0  0  0
  7  8  1  0  0  0  0
  8  9  1  0  0  0  0
  9 10  2  0  0  0  0
  9 11  1  0  0  0  0
 11 12  1  0  0  0  0
 11 24  1  0  0  0  0
 12 13  1  0  0  0  0
 12 38  1  0  0  0  0
 12 39  1  0  0  0  0
 13 14  2  0  0  0  0
 13 15  1  0  0  0  0
 15 16  1  0  0  0  0
 15 40  1  0  0  0  0
 16 17  1  0  0  0  0
 16 41  1  0  0  0  0
 16 42  1  0  0  0  0
 17 18  1  0  0  0  0
 17 43  1  0  0  0  0
 17 44  1  0  0  0  0
 18 23  1  0  0  0  0
 18 19  2  0  0  0  0
 19 20  1  0  0  0  0
 19 45  1  0  0  0  0
 20 21  2  0  0  0  0
 20 46  1  0  0  0  0
 21 22  1  0  0  0  0
 21 47  1  0  0  0  0
 22 23  2  0  0  0  0
 23 48  1  0  0  0  0
 24 25  2  0  0  0  0
M  CHG  1   8  -1
M  END
> <s_m_source_file>
AV-unprocessed.smi

> <i_m_source_file_index>
837

> <i_lp_mmshare_version>
43012

> <i_f3d_flags>
0

> <s_epik_input>
W0NIMl0xW0NIMl1bQ0gyXVtDSDJdW0NAQEhdKFtDSDNdKVtDQEBdMTJbTkhdQyg9TylOKEMyPU8pW0NIMl1DKD1PKVtOSF1bQ0gyXVtDSDJdYzNbY0hdW2NIXVtjSF1uW2NIXTM=

> <s_epik_cmdline>
J2VwaWtfcHl0aG9uJywgJy1waCcsICc3LjAnLCAnLXRuJywgJzgnLCAnLW1hJywgJzIwMCcsICctbWV0YWxfYmluZGluZycsICctaW1hZScsICc8aW5maWxlLm1hZT4nLCAnLW9tYWUnLCAnPG91dGZpbGUubWFlPic=

> <r_lp_tautomer_probability>
1

> <r_epik_Ionization_Penalty>
6.03002

> <r_epik_Ionization_Penalty_Charging>
6.01728

> <r_epik_Ionization_Penalty_Neutral>
0.0127382

> <r_epik_State_Penalty>
6.02713

> <r_epik_Charging_Adjusted_Penalty>
12.0444

> <i_epik_Tot_Q>
-1

> <i_epik_Tot_abs_Q>
1

> <r_epik_Metal_State_Penalty>
1.99078

> <b_epik_Metal_Only>
1

> <s_lp_Force_Field>
OPLS_2005

> <r_lp_Energy>
20.5142

> <b_lp_Chiralities_Consistent>
1

> <s_lp_Variant>
AV-unprocessed.smi:837-12

> <Gold.Version>
5.8.1

> <Gold.Id.Protein>
6NUR|6NUR_protein|mol2

> <Gold.PLP.Fitness>
51.5027

> <Gold.PLP.PLP>
-40.9845

> <Gold.PLP.part.hbond>
-3.2097

> <Gold.PLP.part.metal>
0.0000

> <Gold.PLP.part.buried>
-6.0623

> <Gold.PLP.part.nonpolar>
-31.8811

> <Gold.PLP.part.repulsive>
0.3122

> <Gold.PLP.ligand.clash>
0.0000

> <Gold.PLP.ligand.torsion>
0.5757

> <Gold.PLP.Chemscore.Hbond>
3.8800

> <Gold.PLP.Chemscore.CHOScore>
0.0000

> <Gold.PLP.Chemscore.Metal>
0.0000

> <Gold.Chemscore.Hbonds>
donor molecule, donor type, donor heavy atom, donor atom, acceptor molecule, acceptor atom, score
      P1  H  7989  7998       L1    10  0.86
      P1  H  7997  8008       L1     8  1.89
      P1  H 10752 10763       L1    14  1.00

> <Gold.PLP.Chemscore.Internal.Correction>
0.0297

> <Gold.Rescore>
     Score         DG    S(hbond)    S(metal)    S(lipo)     H(rot)  DE(clash)    DE(int)     intcor
     19.57     -20.15       2.70        0.00      88.00       1.81       0.05       0.53       ----

> <Gold.Chemscore.Fitness>
19.5695

> <Gold.Chemscore.DG>
-20.1478

> <Gold.Chemscore.ZeroCoef>
-5.4800

> <Gold.Chemscore.Hbond>
2.6956

> <Gold.Chemscore.Metal>
0.0000

> <Gold.Chemscore.Lipo>
87.9951

> <Gold.Chemscore.Internal_Hbond>
0.0000

> <Gold.Chemscore.DEClash>
0.0456

> <Gold.Chemscore.DEInternal>
0.5327

> <Gold.Chemscore.Rot>
1.8090

> <Gold.Chemscore.Internal.Correction>
   9.000000E+99

> <Gold.Chemscore.Hbonds>
donor molecule, donor type, donor heavy atom, donor atom, acceptor molecule, acceptor atom, score
      P1  H  7989  7998       L1    10  0.85
      P1  H  7997  8008       L1     8  0.72
      P1  H 10752 10763       L1    14  1.00

> <Gold.Chemscore.Hbond.Weighted>
-9.0034

> <Gold.Chemscore.Metal.Weighted>
-0.0000

> <Gold.Chemscore.Lipo.Weighted>
-10.2954

> <Gold.Chemscore.Internal_Hbond.Weighted>
0.0000

> <Gold.Chemscore.DEClash.Weighted>
0.0456

> <Gold.Chemscore.DEInternal.Weighted>
0.5327

> <Gold.Chemscore.Rot.Weighted>
4.6310

> <Gold.Chemscore.Internal.Correction.Weighted>
   9.000000E+99

> <Gold.Protein.RotatedTorsions>
[ 6907 6896 6895 6894 ] final  143.83 input  -60.11 | X-H torsion
[ 7974 7965 7964 7962 ] final   40.58 input  175.53 | X-H torsion
[ 8008 7997 7996 7995 ] final  -67.36 input   59.86 | X-H torsion
[ 10167 10162 10161 10158 ] final   31.16 input  -65.29 | X-H torsion
[ 10718 10713 10712 10709 ] final  -59.07 input   66.30 | X-H torsion
[ 10763 10752 10751 10750 ] final   49.24 input  -60.55 | X-H torsion
[ 11005 11000 10999 10996 ] final -175.18 input  -57.11 | X-H torsion

> <Gold.Protein.ActiveResidues>
 VAL166  LYS551  ARG553  GLY616  TRP617  ASP618  TYR619  PRO620  LYS621  CYS622 
 ASP623  PHE694  ASN695  SER759  ASP760  ASP761  ALA762  ILE779  LEU786  VAL792 
 PHE793  MET794  SER795  GLU796  ALA797  LYS798  CYS799  TRP800  GLU811  SER814 

> <Gold.Protein.RotatedAtoms>
  152.2013  133.4843  159.5059 H   0  0  0  0  0  0  0  0  0  0  0  0  # atno 6907 bound_to 6896
  150.6970  134.1587  159.4177 H   0  0  0  0  0  0  0  0  0  0  0  0  # atno 6908 bound_to 6896
  151.9504  135.0171  160.0592 H   0  0  0  0  0  0  0  0  0  0  0  0  # atno 6909 bound_to 6896
  146.0893  139.5516  142.9486 H   0  0  0  0  0  0  0  0  0  0  0  0  # atno 7974 bound_to 7965
  154.4795  140.0894  156.7342 H   0  0  0  0  0  0  0  0  0  0  0  0  # atno 8008 bound_to 7997
  155.4508  140.3457  155.4282 H   0  0  0  0  0  0  0  0  0  0  0  0  # atno 8009 bound_to 7997
  156.1169  140.1463  156.9249 H   0  0  0  0  0  0  0  0  0  0  0  0  # atno 8010 bound_to 7997
  140.4613  144.0902  150.6213 H   0  0  0  0  0  0  0  0  0  0  0  0  # atno 10167 bound_to 10162
  156.1088  130.4177  150.0665 H   0  0  0  0  0  0  0  0  0  0  0  0  # atno 10718 bound_to 10713
  152.9787  135.5918  154.4057 H   0  0  0  0  0  0  0  0  0  0  0  0  # atno 10763 bound_to 10752
  154.3698  135.2767  155.2275 H   0  0  0  0  0  0  0  0  0  0  0  0  # atno 10764 bound_to 10752
  154.4235  135.6053  153.6079 H   0  0  0  0  0  0  0  0  0  0  0  0  # atno 10765 bound_to 10752
  140.4661  134.6209  157.4863 H   0  0  0  0  0  0  0  0  0  0  0  0  # atno 11005 bound_to 11000
  145.6069  141.0346  143.1988 LP  0  0  0  0  0  0  0  0  0  0  0  0  # atno 17320 bound_to 7965
  144.7349  139.7616  143.7333 LP  0  0  0  0  0  0  0  0  0  0  0  0  # atno 17321 bound_to 7965
  140.4089  143.2666  151.9856 LP  0  0  0  0  0  0  0  0  0  0  0  0  # atno 17342 bound_to 10162
  139.4806  144.5932  151.7735 LP  0  0  0  0  0  0  0  0  0  0  0  0  # atno 17343 bound_to 10162
  156.8634  130.9499  151.3616 LP  0  0  0  0  0  0  0  0  0  0  0  0  # atno 17370 bound_to 10713
  157.6267  130.8697  149.9202 LP  0  0  0  0  0  0  0  0  0  0  0  0  # atno 17371 bound_to 10713
  139.9914  134.6979  155.9683 LP  0  0  0  0  0  0  0  0  0  0  0  0  # atno 17394 bound_to 11000
  141.1599  133.6539  156.4283 LP  0  0  0  0  0  0  0  0  0  0  0  0  # atno 17395 bound_to 11000

$$$$
