AV-unprocessed.smi:2976|AV-procd|sdf|11362|dock4
  -GOLD-   2272016283D 1   1.00000     0.00000
 Structure written by MMmdl.
 40 41  0  0  0  0  0  0  0  0  1 V2000
  153.3163  141.6688  159.5318 C   0  0  0  0  0  0  0  0  0  0  0  0
  152.0179  142.4848  159.6975 C   0  0  1  0  0  0  0  0  0  0  0  0
  152.3019  143.9996  159.7562 C   0  0  0  0  0  0  0  0  0  0  0  0
  152.6868  144.5723  158.3832 C   0  0  0  0  0  0  0  0  0  0  0  0
  151.6093  144.2658  157.3340 C   0  0  0  0  0  0  0  0  0  0  0  0
  151.3108  142.7571  157.2410 C   0  0  2  0  0  0  0  0  0  0  0  0
  150.2293  142.5531  156.2782 N   0  0  0  0  0  0  0  0  0  0  0  0
  150.0878  141.4962  155.4632 C   0  0  0  0  0  0  0  0  0  0  0  0
  150.8918  140.5647  155.4113 O   0  0  0  0  0  0  0  0  0  0  0  0
  148.8451  141.5043  154.5618 C   0  0  0  0  0  0  0  0  0  0  0  0
  147.5930  141.7008  155.3073 N   0  0  0  0  0  0  0  0  0  0  0  0
  147.5043  140.9554  156.4698 N   0  0  0  0  0  0  0  0  0  0  0  0
  146.4525  141.0538  157.2076 C   0  0  0  0  0  0  0  0  0  0  0  0
  145.3474  141.9204  156.8625 C   0  0  0  0  0  0  0  0  0  0  0  0
  143.9617  142.0105  157.8914 Cl  0  0  0  0  0  0  0  0  0  0  0  0
  145.4429  142.6440  155.7188 C   0  0  0  0  0  0  0  0  0  0  0  0
  144.1610  143.7028  155.2392 Cl  0  0  0  0  0  0  0  0  0  0  0  0
  146.6259  142.5560  154.8517 C   0  0  0  0  0  0  0  0  0  0  0  0
  146.7475  143.1907  153.8031 O   0  0  0  0  0  0  0  0  0  0  0  0
  150.9331  142.1761  158.6306 C   0  0  1  0  0  0  0  0  0  0  0  0
  150.5654  140.6790  158.5871 C   0  0  0  0  0  0  0  0  0  0  0  0
  153.7861  141.8333  158.5626 H   0  0  0  0  0  0  0  0  0  0  0  0
  153.1332  140.5993  159.6326 H   0  0  0  0  0  0  0  0  0  0  0  0
  154.0439  141.9383  160.2978 H   0  0  0  0  0  0  0  0  0  0  0  0
  151.6064  142.2059  160.6687 H   0  0  0  0  0  0  0  0  0  0  0  0
  151.4129  144.5168  160.1191 H   0  0  0  0  0  0  0  0  0  0  0  0
  153.0884  144.2097  160.4819 H   0  0  0  0  0  0  0  0  0  0  0  0
  152.8299  145.6503  158.4601 H   0  0  0  0  0  0  0  0  0  0  0  0
  153.6433  144.1605  158.0604 H   0  0  0  0  0  0  0  0  0  0  0  0
  150.6975  144.8073  157.5902 H   0  0  0  0  0  0  0  0  0  0  0  0
  151.9283  144.6440  156.3621 H   0  0  0  0  0  0  0  0  0  0  0  0
  152.2155  142.2605  156.8876 H   0  0  0  0  0  0  0  0  0  0  0  0
  149.5171  143.2680  156.2448 H   0  0  0  0  0  0  0  0  0  0  0  0
  148.9442  142.2795  153.7994 H   0  0  0  0  0  0  0  0  0  0  0  0
  148.8200  140.5592  154.0166 H   0  0  0  0  0  0  0  0  0  0  0  0
  146.3392  140.4879  158.1322 H   0  0  0  0  0  0  0  0  0  0  0  0
  150.0306  142.6965  158.9557 H   0  0  0  0  0  0  0  0  0  0  0  0
  151.3597  140.0834  158.1366 H   0  0  0  0  0  0  0  0  0  0  0  0
  149.6593  140.5069  158.0060 H   0  0  0  0  0  0  0  0  0  0  0  0
  150.3808  140.2898  159.5885 H   0  0  0  0  0  0  0  0  0  0  0  0
  1  2  1  0  0  0  0
  1 22  1  0  0  0  0
  1 23  1  0  0  0  0
  1 24  1  0  0  0  0
  2 20  1  0  0  0  0
  2  3  1  0  0  0  0
  2 25  1  0  0  0  0
  3  4  1  0  0  0  0
  3 26  1  0  0  0  0
  3 27  1  0  0  0  0
  4  5  1  0  0  0  0
  4 28  1  0  0  0  0
  4 29  1  0  0  0  0
  5  6  1  0  0  0  0
  5 30  1  0  0  0  0
  5 31  1  0  0  0  0
  6  7  1  0  0  0  0
  6 20  1  0  0  0  0
  6 32  1  0  0  0  0
  7  8  1  0  0  0  0
  7 33  1  0  0  0  0
  8  9  2  0  0  0  0
  8 10  1  0  0  0  0
 10 11  1  0  0  0  0
 10 34  1  0  0  0  0
 10 35  1  0  0  0  0
 11 18  1  0  0  0  0
 11 12  1  0  0  0  0
 12 13  2  0  0  0  0
 13 14  1  0  0  0  0
 13 36  1  0  0  0  0
 14 15  1  0  0  0  0
 14 16  2  0  0  0  0
 16 17  1  0  0  0  0
 16 18  1  0  0  0  0
 18 19  2  0  0  0  0
 20 21  1  0  0  0  0
 20 37  1  0  0  0  0
 21 38  1  0  0  0  0
 21 39  1  0  0  0  0
 21 40  1  0  0  0  0
M  END
> <s_m_source_file>
AV-unprocessed.smi

> <i_m_source_file_index>
2976

> <i_lp_mmshare_version>
43012

> <i_f3d_flags>
0

> <s_epik_input>
W0NIM11bQ0BASF0xW0NIMl1bQ0gyXVtDSDJdW0NASF0oW0NASF0xW0NIM10pW05IXUMoPU8pW0NIMl1uMm5bY0hdYyhDbCljKENsKWMyPU8=

> <s_epik_cmdline>
J2VwaWtfcHl0aG9uJywgJy1waCcsICc3LjAnLCAnLXRuJywgJzgnLCAnLW1hJywgJzIwMCcsICctbWV0YWxfYmluZGluZycsICctaW1hZScsICc8aW5maWxlLm1hZT4nLCAnLW9tYWUnLCAnPG91dGZpbGUubWFlPic=

> <r_lp_tautomer_probability>
1

> <r_epik_Ionization_Penalty>
1.90777e-08

> <r_epik_Ionization_Penalty_Charging>
3.07942e-11

> <r_epik_Ionization_Penalty_Neutral>
1.90469e-08

> <r_epik_State_Penalty>
-0

> <r_epik_Charging_Adjusted_Penalty>
3.07942e-11

> <i_epik_Tot_Q>
0

> <i_epik_Tot_abs_Q>
0

> <r_epik_Metal_State_Penalty>
-0

> <b_epik_Metal_Only>
0

> <s_lp_Force_Field>
OPLS_2005

> <r_lp_Energy>
28.0936

> <b_lp_Chiralities_Consistent>
1

> <s_lp_Variant>
AV-unprocessed.smi:2976-4

> <Gold.Version>
5.8.1

> <Gold.Id.Protein>
6NUR|6NUR_protein|mol2

> <Gold.PLP.Fitness>
45.6270

> <Gold.PLP.PLP>
-41.0307

> <Gold.PLP.part.hbond>
-3.0000

> <Gold.PLP.part.metal>
0.0000

> <Gold.PLP.part.buried>
-3.0451

> <Gold.PLP.part.nonpolar>
-35.8283

> <Gold.PLP.part.repulsive>
0.3984

> <Gold.PLP.ligand.clash>
0.0000

> <Gold.PLP.ligand.torsion>
0.6243

> <Gold.PLP.Chemscore.Hbond>
1.9466

> <Gold.PLP.Chemscore.CHOScore>
0.0000

> <Gold.PLP.Chemscore.Metal>
0.0000

> <Gold.Chemscore.Hbonds>
donor molecule, donor type, donor heavy atom, donor atom, acceptor molecule, acceptor atom, score
      L1  H     7    33       P1  8028  1.00
      P1  H  7989  7998       L1     9  0.80
      P1  H  8022  8030       L1    19  0.03

> <Gold.PLP.Chemscore.Internal.Correction>
0.0051

> <Gold.Rescore>
     Score         DG    S(hbond)    S(metal)    S(lipo)     H(rot)  DE(clash)    DE(int)     intcor
     17.49     -18.42       1.64        0.00      96.45       1.49       0.27       0.66       ----

> <Gold.Chemscore.Fitness>
17.4903

> <Gold.Chemscore.DG>
-18.4216

> <Gold.Chemscore.ZeroCoef>
-5.4800

> <Gold.Chemscore.Hbond>
1.6357

> <Gold.Chemscore.Metal>
0.0000

> <Gold.Chemscore.Lipo>
96.4452

> <Gold.Chemscore.Internal_Hbond>
0.0000

> <Gold.Chemscore.DEClash>
0.2665

> <Gold.Chemscore.DEInternal>
0.6648

> <Gold.Chemscore.Rot>
1.4866

> <Gold.Chemscore.Internal.Correction>
   9.000000E+99

> <Gold.Chemscore.Hbonds>
donor molecule, donor type, donor heavy atom, donor atom, acceptor molecule, acceptor atom, score
      L1  H     7    33       P1  8028  0.96
      P1  H  7989  7998       L1     9  0.17
      P1  H  8022  8030       L1    19  0.03

> <Gold.Chemscore.Hbond.Weighted>
-5.4631

> <Gold.Chemscore.Metal.Weighted>
-0.0000

> <Gold.Chemscore.Lipo.Weighted>
-11.2841

> <Gold.Chemscore.Internal_Hbond.Weighted>
0.0000

> <Gold.Chemscore.DEClash.Weighted>
0.2665

> <Gold.Chemscore.DEInternal.Weighted>
0.6648

> <Gold.Chemscore.Rot.Weighted>
3.8057

> <Gold.Chemscore.Internal.Correction.Weighted>
   9.000000E+99

> <Gold.Protein.RotatedTorsions>
[ 6907 6896 6895 6894 ] final   73.25 input  -60.11 | X-H torsion
[ 7974 7965 7964 7962 ] final  -62.98 input  175.53 | X-H torsion
[ 8008 7997 7996 7995 ] final -122.21 input   59.86 | X-H torsion
[ 10167 10162 10161 10158 ] final -178.41 input  -65.29 | X-H torsion
[ 10718 10713 10712 10709 ] final   86.24 input   66.30 | X-H torsion
[ 10763 10752 10751 10750 ] final   44.90 input  -60.55 | X-H torsion
[ 11005 11000 10999 10996 ] final -174.02 input  -57.11 | X-H torsion

> <Gold.Protein.ActiveResidues>
 VAL166  LYS551  ARG553  GLY616  TRP617  ASP618  TYR619  PRO620  LYS621  CYS622 
 ASP623  PHE694  ASN695  SER759  ASP760  ASP761  ALA762  ILE779  LEU786  VAL792 
 PHE793  MET794  SER795  GLU796  ALA797  LYS798  CYS799  TRP800  GLU811  SER814 

> <Gold.Protein.RotatedAtoms>
  152.4913  134.4450  159.9555 H   0  0  0  0  0  0  0  0  0  0  0  0  # atno 6907 bound_to 6896
  151.4437  133.3630  159.2793 H   0  0  0  0  0  0  0  0  0  0  0  0  # atno 6908 bound_to 6896
  150.9070  134.8509  159.7459 H   0  0  0  0  0  0  0  0  0  0  0  0  # atno 6909 bound_to 6896
  145.7846  140.8743  143.0312 H   0  0  0  0  0  0  0  0  0  0  0  0  # atno 7974 bound_to 7965
  155.1605  140.0406  157.2841 H   0  0  0  0  0  0  0  0  0  0  0  0  # atno 8008 bound_to 7997
  154.6340  140.2531  155.7373 H   0  0  0  0  0  0  0  0  0  0  0  0  # atno 8009 bound_to 7997
  156.2499  140.2869  156.0704 H   0  0  0  0  0  0  0  0  0  0  0  0  # atno 8010 bound_to 7997
  139.5434  144.2302  152.0940 H   0  0  0  0  0  0  0  0  0  0  0  0  # atno 10167 bound_to 10162
  157.6926  131.0207  150.2943 H   0  0  0  0  0  0  0  0  0  0  0  0  # atno 10718 bound_to 10713
  152.9833  135.6056  154.3350 H   0  0  0  0  0  0  0  0  0  0  0  0  # atno 10763 bound_to 10752
  154.3051  135.2772  155.2595 H   0  0  0  0  0  0  0  0  0  0  0  0  # atno 10764 bound_to 10752
  154.4829  135.5912  153.6459 H   0  0  0  0  0  0  0  0  0  0  0  0  # atno 10765 bound_to 10752
  140.4792  134.6092  157.4912 H   0  0  0  0  0  0  0  0  0  0  0  0  # atno 11005 bound_to 11000
  144.6791  140.0038  143.7484 LP  0  0  0  0  0  0  0  0  0  0  0  0  # atno 17320 bound_to 7965
  146.0039  139.3113  143.0911 LP  0  0  0  0  0  0  0  0  0  0  0  0  # atno 17321 bound_to 7965
  140.1784  144.4868  150.6541 LP  0  0  0  0  0  0  0  0  0  0  0  0  # atno 17342 bound_to 10162
  140.6672  143.2272  151.5713 LP  0  0  0  0  0  0  0  0  0  0  0  0  # atno 17343 bound_to 10162
  156.3469  130.3824  149.7361 LP  0  0  0  0  0  0  0  0  0  0  0  0  # atno 17370 bound_to 10713
  156.4852  130.8059  151.3072 LP  0  0  0  0  0  0  0  0  0  0  0  0  # atno 17371 bound_to 10713
  139.9837  134.7096  155.9812 LP  0  0  0  0  0  0  0  0  0  0  0  0  # atno 17394 bound_to 11000
  141.1540  133.6545  156.4101 LP  0  0  0  0  0  0  0  0  0  0  0  0  # atno 17395 bound_to 11000

$$$$
