AV-unprocessed.smi:47|AV-procd|sdf|433|dock3
  -GOLD-   2262016303D 1   1.00000     0.00000
 Structure written by MMmdl.
 32 34  0  0  0  0  0  0  0  0  2 V2000
  147.5065  139.0871  154.6879 O   0  0  0  0  0  0  0  0  0  0  0  0
  148.6799  139.8480  154.4958 C   0  0  1  0  0  0  0  0  0  0  0  0
  148.3757  141.3312  154.2561 C   0  0  0  0  0  0  0  0  0  0  0  0
  149.5329  142.0791  154.7883 N   0  3  0  0  0  0  0  0  0  0  0  0
  150.3993  141.1318  155.5213 C   0  0  1  0  0  0  0  0  0  0  0  0
  150.8030  141.8486  156.7755 C   0  0  0  0  0  0  0  0  0  0  0  0
  150.4286  143.1096  157.0157 N   0  0  0  0  0  0  0  0  0  0  0  0
  150.9358  143.5137  158.2000 N   0  0  0  0  0  0  0  0  0  0  0  0
  151.6027  142.4291  158.5906 C   0  0  0  0  0  0  0  0  0  0  0  0
  152.3485  142.3899  159.8704 C   0  0  0  0  0  0  0  0  0  0  0  0
  152.0980  143.3396  160.8909 C   0  0  0  0  0  0  0  0  0  0  0  0
  152.8049  143.3061  162.1085 C   0  0  0  0  0  0  0  0  0  0  0  0
  153.7804  142.3179  162.3297 C   0  0  0  0  0  0  0  0  0  0  0  0
  154.0443  141.3651  161.3300 C   0  0  0  0  0  0  0  0  0  0  0  0
  153.3348  141.4027  160.1140 C   0  0  0  0  0  0  0  0  0  0  0  0
  151.5640  141.3514  157.7495 N   0  0  0  0  0  0  0  0  0  0  0  0
  149.5628  139.8690  155.7397 C   0  0  0  0  0  0  0  0  0  0  0  0
  149.2419  139.4446  153.6521 H   0  0  0  0  0  0  0  0  0  0  0  0
  151.2738  140.9114  154.9071 H   0  0  0  0  0  0  0  0  0  0  0  0
  147.2686  138.6820  153.8675 H   0  0  0  0  0  0  0  0  0  0  0  0
  148.1997  141.5563  153.2040 H   0  0  0  0  0  0  0  0  0  0  0  0
  147.4936  141.6409  154.8187 H   0  0  0  0  0  0  0  0  0  0  0  0
  150.0536  142.5137  154.0404 H   0  0  0  0  0  0  0  0  0  0  0  0
  151.3541  144.1101  160.7511 H   0  0  0  0  0  0  0  0  0  0  0  0
  152.5977  144.0398  162.8735 H   0  0  0  0  0  0  0  0  0  0  0  0
  154.3236  142.2904  163.2629 H   0  0  0  0  0  0  0  0  0  0  0  0
  154.7921  140.6035  161.4947 H   0  0  0  0  0  0  0  0  0  0  0  0
  153.5602  140.6578  159.3650 H   0  0  0  0  0  0  0  0  0  0  0  0
  148.9375  139.9825  156.6276 H   0  0  0  0  0  0  0  0  0  0  0  0
  150.1664  138.9698  155.8663 H   0  0  0  0  0  0  0  0  0  0  0  0
  149.1991  142.7864  155.4281 H   0  0  0  0  0  0  0  0  0  0  0  0
  149.8588  143.7049  156.4308 H   0  0  0  0  0  0  0  0  0  0  0  0
  1  2  1  0  0  0  0
  1 20  1  0  0  0  0
  2 18  1  0  0  0  0
  2 17  1  0  0  0  0
  2  3  1  0  0  0  0
  3  4  1  0  0  0  0
  3 21  1  0  0  0  0
  3 22  1  0  0  0  0
  4  5  1  0  0  0  0
  4 23  1  0  0  0  0
  4 31  1  0  0  0  0
  5 19  1  0  0  0  0
  5  6  1  0  0  0  0
  5 17  1  0  0  0  0
  6 16  2  0  0  0  0
  6  7  1  0  0  0  0
  7  8  1  0  0  0  0
  7 32  1  0  0  0  0
  8  9  2  0  0  0  0
  9 10  1  0  0  0  0
  9 16  1  0  0  0  0
 10 15  1  0  0  0  0
 10 11  2  0  0  0  0
 11 12  1  0  0  0  0
 11 24  1  0  0  0  0
 12 13  2  0  0  0  0
 12 25  1  0  0  0  0
 13 14  1  0  0  0  0
 13 26  1  0  0  0  0
 14 15  2  0  0  0  0
 14 27  1  0  0  0  0
 15 28  1  0  0  0  0
 17 29  1  0  0  0  0
 17 30  1  0  0  0  0
M  CHG  1   4   1
M  END
> <s_m_source_file>
AV-unprocessed.smi

> <i_m_source_file_index>
47

> <i_lp_mmshare_version>
43012

> <i_f3d_flags>
0

> <s_epik_input>
W09IXVtDQEhdMVtDSDJdW05IXVtDQEBIXShbQ0gyXTEpYzJuW25IXWMobjIpLWMzW2NIXVtjSF1bY0hdW2NIXVtjSF0z

> <s_epik_cmdline>
J2VwaWtfcHl0aG9uJywgJy1waCcsICc3LjAnLCAnLXRuJywgJzgnLCAnLW1hJywgJzIwMCcsICctbWV0YWxfYmluZGluZycsICctaW1hZScsICc8aW5maWxlLm1hZT4nLCAnLW9tYWUnLCAnPG91dGZpbGUubWFlPic=

> <r_epik_Ionization_Penalty>
1.14296

> <r_epik_Ionization_Penalty_Charging>
0.0688988

> <r_epik_Ionization_Penalty_Neutral>
1.07406

> <r_epik_State_Penalty>
1.72347

> <r_epik_Charging_Adjusted_Penalty>
1.79237

> <i_epik_Tot_Q>
1

> <i_epik_Tot_abs_Q>
1

> <r_epik_Metal_State_Penalty>
2.22085

> <b_epik_Metal_Only>
0

> <s_lp_Force_Field>
OPLS_2005

> <r_lp_Energy>
30.8137

> <b_lp_Chiralities_Consistent>
1

> <s_lp_Variant>
AV-unprocessed.smi:47-11

> <Gold.Version>
5.8.1

> <Gold.Id.Protein>
6NUR|6NUR_protein|mol2

> <Gold.PLP.Fitness>
45.4325

> <Gold.PLP.PLP>
-37.4199

> <Gold.PLP.part.hbond>
-2.0000

> <Gold.PLP.part.metal>
0.0000

> <Gold.PLP.part.buried>
-3.5448

> <Gold.PLP.part.nonpolar>
-31.1642

> <Gold.PLP.part.repulsive>
0.9506

> <Gold.PLP.ligand.clash>
0.0000

> <Gold.PLP.ligand.torsion>
0.1403

> <Gold.PLP.Chemscore.Hbond>
2.7600

> <Gold.PLP.Chemscore.CHOScore>
0.0000

> <Gold.PLP.Chemscore.Metal>
0.0000

> <Gold.Chemscore.Hbonds>
donor molecule, donor type, donor heavy atom, donor atom, acceptor molecule, acceptor atom, score
      L1  H     4    31       P1  8028  1.76
      L1  H     7    32       P1  8028  1.00

> <Gold.PLP.Chemscore.Internal.Correction>
0.0133

> <Gold.Rescore>
     Score         DG    S(hbond)    S(metal)    S(lipo)     H(rot)  DE(clash)    DE(int)     intcor
     17.64     -17.73       1.74        0.00      87.88       1.50       0.04       0.06       ----

> <Gold.Chemscore.Fitness>
17.6364

> <Gold.Chemscore.DG>
-17.7345

> <Gold.Chemscore.ZeroCoef>
-5.4800

> <Gold.Chemscore.Hbond>
1.7376

> <Gold.Chemscore.Metal>
0.0000

> <Gold.Chemscore.Lipo>
87.8803

> <Gold.Chemscore.Internal_Hbond>
0.0000

> <Gold.Chemscore.DEClash>
0.0379

> <Gold.Chemscore.DEInternal>
0.0602

> <Gold.Chemscore.Rot>
1.4966

> <Gold.Chemscore.Internal.Correction>
   9.000000E+99

> <Gold.Chemscore.Hbonds>
donor molecule, donor type, donor heavy atom, donor atom, acceptor molecule, acceptor atom, score
      L1  H     4    31       P1  8028  0.85
      L1  H     7    32       P1  8028  0.98

> <Gold.Chemscore.Hbond.Weighted>
-5.8037

> <Gold.Chemscore.Metal.Weighted>
-0.0000

> <Gold.Chemscore.Lipo.Weighted>
-10.2820

> <Gold.Chemscore.Internal_Hbond.Weighted>
0.0000

> <Gold.Chemscore.DEClash.Weighted>
0.0379

> <Gold.Chemscore.DEInternal.Weighted>
0.0602

> <Gold.Chemscore.Rot.Weighted>
3.8312

> <Gold.Chemscore.Internal.Correction.Weighted>
   9.000000E+99

> <Gold.Protein.RotatedTorsions>
[ 6907 6896 6895 6894 ] final  -97.29 input  -60.11 | X-H torsion
[ 7974 7965 7964 7962 ] final -141.64 input  175.53 | X-H torsion
[ 8008 7997 7996 7995 ] final -137.36 input   59.86 | X-H torsion
[ 10167 10162 10161 10158 ] final   91.30 input  -65.29 | X-H torsion
[ 10718 10713 10712 10709 ] final  126.69 input   66.30 | X-H torsion
[ 10763 10752 10751 10750 ] final  -23.06 input  -60.55 | X-H torsion
[ 11005 11000 10999 10996 ] final   67.99 input  -57.11 | X-H torsion

> <Gold.Protein.ActiveResidues>
 VAL166  LYS551  ARG553  GLY616  TRP617  ASP618  TYR619  PRO620  LYS621  CYS622 
 ASP623  PHE694  ASN695  SER759  ASP760  ASP761  ALA762  ILE779  LEU786  VAL792 
 PHE793  MET794  SER795  GLU796  ALA797  LYS798  CYS799  TRP800  GLU811  SER814 

> <Gold.Protein.RotatedAtoms>
  150.7012  134.1371  159.4090 H   0  0  0  0  0  0  0  0  0  0  0  0  # atno 6907 bound_to 6896
  151.9356  135.0234  160.0541 H   0  0  0  0  0  0  0  0  0  0  0  0  # atno 6908 bound_to 6896
  152.2138  133.4896  159.5161 H   0  0  0  0  0  0  0  0  0  0  0  0  # atno 6909 bound_to 6896
  144.8504  140.6055  143.5394 H   0  0  0  0  0  0  0  0  0  0  0  0  # atno 7974 bound_to 7965
  155.4104  140.0512  157.3032 H   0  0  0  0  0  0  0  0  0  0  0  0  # atno 8008 bound_to 7997
  154.4949  140.2134  155.9429 H   0  0  0  0  0  0  0  0  0  0  0  0  # atno 8009 bound_to 7997
  156.1391  140.3157  155.8473 H   0  0  0  0  0  0  0  0  0  0  0  0  # atno 8010 bound_to 7997
  139.8388  144.6651  150.9309 H   0  0  0  0  0  0  0  0  0  0  0  0  # atno 10167 bound_to 10162
  157.5398  131.1097  150.8877 H   0  0  0  0  0  0  0  0  0  0  0  0  # atno 10718 bound_to 10713
  153.6618  135.6976  153.5175 H   0  0  0  0  0  0  0  0  0  0  0  0  # atno 10763 bound_to 10752
  153.2626  135.4240  155.0908 H   0  0  0  0  0  0  0  0  0  0  0  0  # atno 10764 bound_to 10752
  154.8450  135.3558  154.6162 H   0  0  0  0  0  0  0  0  0  0  0  0  # atno 10765 bound_to 10752
  139.9738  134.6857  156.0395 H   0  0  0  0  0  0  0  0  0  0  0  0  # atno 11005 bound_to 11000
  145.4512  139.1523  143.3917 LP  0  0  0  0  0  0  0  0  0  0  0  0  # atno 17320 bound_to 7965
  146.2780  140.4638  142.8788 LP  0  0  0  0  0  0  0  0  0  0  0  0  # atno 17321 bound_to 7965
  140.7800  143.3932  151.1274 LP  0  0  0  0  0  0  0  0  0  0  0  0  # atno 17342 bound_to 10162
  139.7580  143.8678  152.3093 LP  0  0  0  0  0  0  0  0  0  0  0  0  # atno 17343 bound_to 10162
  156.9434  130.5393  149.5280 LP  0  0  0  0  0  0  0  0  0  0  0  0  # atno 17370 bound_to 10713
  156.0487  130.5560  150.8940 LP  0  0  0  0  0  0  0  0  0  0  0  0  # atno 17371 bound_to 10713
  141.1416  133.6563  156.3746 LP  0  0  0  0  0  0  0  0  0  0  0  0  # atno 17394 bound_to 11000
  140.5238  134.6278  157.5327 LP  0  0  0  0  0  0  0  0  0  0  0  0  # atno 17395 bound_to 11000

$$$$
