AV-unprocessed.smi:290|AV-procd|sdf|2238|dock5
  -GOLD-   2262022113D 1   1.00000     0.00000
 Structure written by MMmdl.
 59 62  0  0  0  0  0  0  0  0  2 V2000
  152.7156  141.8480  159.7182 C   0  0  0  0  0  0  0  0  0  0  0  0
  151.7431  143.0056  159.4446 C   0  0  1  0  0  0  0  0  0  0  0  0
  152.3972  144.2202  159.8008 O   0  0  0  0  0  0  0  0  0  0  0  0
  151.8694  145.2671  159.0067 C   0  0  0  0  0  0  0  0  0  0  0  0
  151.7539  144.6088  157.6402 C   0  0  0  0  0  0  0  0  0  0  0  0
  151.2725  143.1983  157.9744 C   0  0  2  0  0  0  0  0  0  0  0  0
  149.8552  143.2144  157.9787 O   0  0  0  0  0  0  0  0  0  0  0  0
  151.7378  142.1261  156.9534 C   0  0  0  0  0  0  0  0  0  0  0  0
  151.0438  140.8542  157.0912 N   0  0  0  0  0  0  0  0  0  0  0  0
  150.5659  140.3007  158.2578 C   0  0  0  0  0  0  0  0  0  0  0  0
  149.9782  139.1430  158.1256 N   0  0  0  0  0  0  0  0  0  0  0  0
  150.0502  138.8808  156.7631 C   0  0  0  0  0  0  0  0  0  0  0  0
  149.6198  137.8091  155.9309 C   0  0  0  0  0  0  0  0  0  0  0  0
  148.9753  136.7038  156.3626 N   0  0  0  0  0  0  0  0  0  0  0  0
  147.7031  136.9240  157.0438 C   0  0  0  0  0  0  0  0  0  0  0  0
  146.7630  135.8166  156.5636 C   0  0  0  0  0  0  0  0  0  0  0  0
  147.3056  135.4938  155.1672 C   0  0  2  0  0  0  0  0  0  0  0  0
  146.8578  134.1958  154.5804 N   0  3  1  0  0  0  0  0  0  0  0  0
  145.3911  134.1484  154.3497 C   0  0  0  0  0  0  0  0  0  0  0  0
  147.6262  133.8328  153.3567 C   0  0  0  0  0  0  0  0  0  0  0  0
  147.0183  132.6461  152.5856 C   0  0  0  0  0  0  0  0  0  0  0  0
  147.4631  132.6490  151.2461 O   0  0  0  0  0  0  0  0  0  0  0  0
  148.8305  135.6302  155.3834 C   0  0  2  0  0  0  0  0  0  0  0  0
  149.5170  134.3590  155.9180 C   0  0  0  0  0  0  0  0  0  0  0  0
  149.8573  137.9006  154.6002 N   0  0  0  0  0  0  0  0  0  0  0  0
  150.4862  138.9717  154.1064 C   0  0  0  0  0  0  0  0  0  0  0  0
  150.9497  140.0415  154.7570 N   0  0  0  0  0  0  0  0  0  0  0  0
  150.7086  139.9520  156.0965 C   0  0  0  0  0  0  0  0  0  0  0  0
  146.9734  136.2875  154.4965 H   0  0  0  0  0  0  0  0  0  0  0  0
  149.3110  135.9079  154.4436 H   0  0  0  0  0  0  0  0  0  0  0  0
  152.2699  140.8853  159.4672 H   0  0  0  0  0  0  0  0  0  0  0  0
  152.9859  141.8167  160.7739 H   0  0  0  0  0  0  0  0  0  0  0  0
  153.6394  141.9569  159.1499 H   0  0  0  0  0  0  0  0  0  0  0  0
  150.8822  142.8938  160.1068 H   0  0  0  0  0  0  0  0  0  0  0  0
  150.8910  145.5656  159.3869 H   0  0  0  0  0  0  0  0  0  0  0  0
  152.5228  146.1394  159.0025 H   0  0  0  0  0  0  0  0  0  0  0  0
  151.0990  145.1506  156.9563 H   0  0  0  0  0  0  0  0  0  0  0  0
  152.7462  144.5694  157.1890 H   0  0  0  0  0  0  0  0  0  0  0  0
  149.5550  143.5221  157.1370 H   0  0  0  0  0  0  0  0  0  0  0  0
  151.5726  142.4754  155.9340 H   0  0  0  0  0  0  0  0  0  0  0  0
  152.8093  141.9447  157.0481 H   0  0  0  0  0  0  0  0  0  0  0  0
  150.6720  140.7842  159.2180 H   0  0  0  0  0  0  0  0  0  0  0  0
  147.8356  136.8874  158.1254 H   0  0  0  0  0  0  0  0  0  0  0  0
  147.2891  137.9026  156.7974 H   0  0  0  0  0  0  0  0  0  0  0  0
  146.8475  134.9483  157.2186 H   0  0  0  0  0  0  0  0  0  0  0  0
  145.7218  136.1402  156.5590 H   0  0  0  0  0  0  0  0  0  0  0  0
  145.0796  134.9388  153.6654 H   0  0  0  0  0  0  0  0  0  0  0  0
  144.8369  134.2648  155.2805 H   0  0  0  0  0  0  0  0  0  0  0  0
  145.0752  133.1955  153.9290 H   0  0  0  0  0  0  0  0  0  0  0  0
  147.6952  134.7051  152.7050 H   0  0  0  0  0  0  0  0  0  0  0  0
  148.6528  133.5715  153.6128 H   0  0  0  0  0  0  0  0  0  0  0  0
  147.2462  131.6860  153.0459 H   0  0  0  0  0  0  0  0  0  0  0  0
  145.9317  132.7356  152.5795 H   0  0  0  0  0  0  0  0  0  0  0  0
  148.0970  131.9559  151.1369 H   0  0  0  0  0  0  0  0  0  0  0  0
  149.4810  133.5469  155.1939 H   0  0  0  0  0  0  0  0  0  0  0  0
  149.0571  134.0055  156.8411 H   0  0  0  0  0  0  0  0  0  0  0  0
  150.5696  134.5504  156.1286 H   0  0  0  0  0  0  0  0  0  0  0  0
  150.6418  138.9714  153.0375 H   0  0  0  0  0  0  0  0  0  0  0  0
  147.0676  133.4878  155.2702 H   0  0  0  0  0  0  0  0  0  0  0  0
  1  2  1  0  0  0  0
  1 31  1  0  0  0  0
  1 32  1  0  0  0  0
  1 33  1  0  0  0  0
  2  6  1  0  0  0  0
  2  3  1  0  0  0  0
  2 34  1  0  0  0  0
  3  4  1  0  0  0  0
  4  5  1  0  0  0  0
  4 35  1  0  0  0  0
  4 36  1  0  0  0  0
  5  6  1  0  0  0  0
  5 37  1  0  0  0  0
  5 38  1  0  0  0  0
  6  7  1  0  0  0  0
  6  8  1  0  0  0  0
  7 39  1  0  0  0  0
  8  9  1  0  0  0  0
  8 40  1  0  0  0  0
  8 41  1  0  0  0  0
  9 28  1  0  0  0  0
  9 10  1  0  0  0  0
 10 11  2  0  0  0  0
 10 42  1  0  0  0  0
 11 12  1  0  0  0  0
 12 28  2  0  0  0  0
 12 13  1  0  0  0  0
 13 14  1  0  0  0  0
 13 25  2  0  0  0  0
 14 23  1  0  0  0  0
 14 15  1  0  0  0  0
 15 16  1  0  0  0  0
 15 43  1  0  0  0  0
 15 44  1  0  0  0  0
 16 17  1  0  0  0  0
 16 45  1  0  0  0  0
 16 46  1  0  0  0  0
 17 29  1  0  0  0  0
 17 18  1  0  0  0  0
 17 23  1  0  0  0  0
 18 19  1  0  0  0  0
 18 20  1  0  0  0  0
 18 59  1  0  0  0  0
 19 47  1  0  0  0  0
 19 48  1  0  0  0  0
 19 49  1  0  0  0  0
 20 21  1  0  0  0  0
 20 50  1  0  0  0  0
 20 51  1  0  0  0  0
 21 22  1  0  0  0  0
 21 52  1  0  0  0  0
 21 53  1  0  0  0  0
 22 54  1  0  0  0  0
 23 30  1  0  0  0  0
 23 24  1  0  0  0  0
 24 55  1  0  0  0  0
 24 56  1  0  0  0  0
 24 57  1  0  0  0  0
 25 26  1  0  0  0  0
 26 27  2  0  0  0  0
 26 58  1  0  0  0  0
 27 28  1  0  0  0  0
M  CHG  1  18   1
M  END
> <s_m_source_file>
AV-unprocessed.smi

> <i_m_source_file_index>
290

> <i_lp_mmshare_version>
43012

> <i_f3d_flags>
0

> <s_epik_input>
W0NIMl0xW0NIMl1PW0NAQEhdKFtDSDNdKVtDQEBdMShbT0hdKVtDSDJdbihbY0hdbjIpYyhjMjMpbltjSF1uYzNONFtDSDJdW0NIMl1bQ0BIXShbQ0BIXTRbQ0gzXSlOKFtDSDNdKVtDSDJdW0NIMl1bT0hd

> <s_epik_cmdline>
J2VwaWtfcHl0aG9uJywgJy1waCcsICc3LjAnLCAnLXRuJywgJzgnLCAnLW1hJywgJzIwMCcsICctbWV0YWxfYmluZGluZycsICctaW1hZScsICc8aW5maWxlLm1hZT4nLCAnLW9tYWUnLCAnPG91dGZpbGUubWFlPic=

> <r_lp_tautomer_probability>
1

> <r_epik_Ionization_Penalty>
0.0036983

> <r_epik_Ionization_Penalty_Charging>
0.0032725

> <r_epik_Ionization_Penalty_Neutral>
0.000425798

> <r_epik_State_Penalty>
-0

> <r_epik_Charging_Adjusted_Penalty>
0.0032725

> <i_epik_Tot_Q>
1

> <i_epik_Tot_abs_Q>
1

> <r_epik_Metal_State_Penalty>
-0

> <b_epik_Metal_Only>
0

> <s_lp_Force_Field>
OPLS_2005

> <r_lp_Energy>
65.2736

> <b_lp_Chiralities_Consistent>
1

> <s_lp_Variant>
AV-unprocessed.smi:290-24

> <Gold.Version>
5.8.1

> <Gold.Id.Protein>
6NUR|6NUR_protein|mol2

> <Gold.PLP.Fitness>
47.2165

> <Gold.PLP.PLP>
-36.5350

> <Gold.PLP.part.hbond>
-3.0000

> <Gold.PLP.part.metal>
0.0000

> <Gold.PLP.part.buried>
-6.0268

> <Gold.PLP.part.nonpolar>
-26.8438

> <Gold.PLP.part.repulsive>
0.3135

> <Gold.PLP.ligand.clash>
0.0000

> <Gold.PLP.ligand.torsion>
0.8725

> <Gold.PLP.Chemscore.Hbond>
3.0000

> <Gold.PLP.Chemscore.CHOScore>
1.0000

> <Gold.PLP.Chemscore.Metal>
0.0000

> <Gold.Chemscore.Hbonds>
donor molecule, donor type, donor heavy atom, donor atom, acceptor molecule, acceptor atom, score
      L1  H     7    39       P1  8028  1.00
      L1  H    22    54       P1 10747  1.00
      P1  H  7989  7998       L1    27  1.00
      L1  C    26    58       P1  7957  1.00

> <Gold.PLP.Chemscore.Internal.Correction>
0.4266

> <Gold.Rescore>
     Score         DG    S(hbond)    S(metal)    S(lipo)     H(rot)  DE(clash)    DE(int)     intcor
     11.78     -14.86       2.68        0.00      83.98       3.67       0.88       2.20       ----

> <Gold.Chemscore.Fitness>
11.7773

> <Gold.Chemscore.DG>
-14.8579

> <Gold.Chemscore.ZeroCoef>
-5.4800

> <Gold.Chemscore.Hbond>
2.6757

> <Gold.Chemscore.Metal>
0.0000

> <Gold.Chemscore.Lipo>
83.9786

> <Gold.Chemscore.Internal_Hbond>
0.0000

> <Gold.Chemscore.DEClash>
0.8780

> <Gold.Chemscore.DEInternal>
2.2026

> <Gold.Chemscore.Rot>
3.6658

> <Gold.Chemscore.Internal.Correction>
   9.000000E+99

> <Gold.Chemscore.Hbonds>
donor molecule, donor type, donor heavy atom, donor atom, acceptor molecule, acceptor atom, score
      L1  H     7    39       P1  8028  0.87
      L1  H    22    54       P1 10747  0.98
      P1  H  7989  7998       L1    27  0.26

> <Gold.Chemscore.Hbond.Weighted>
-8.9368

> <Gold.Chemscore.Metal.Weighted>
-0.0000

> <Gold.Chemscore.Lipo.Weighted>
-9.8255

> <Gold.Chemscore.Internal_Hbond.Weighted>
0.0000

> <Gold.Chemscore.DEClash.Weighted>
0.8780

> <Gold.Chemscore.DEInternal.Weighted>
2.2026

> <Gold.Chemscore.Rot.Weighted>
9.3844

> <Gold.Chemscore.Internal.Correction.Weighted>
   9.000000E+99

> <Gold.Protein.RotatedTorsions>
[ 6907 6896 6895 6894 ] final -158.53 input  -60.11 | X-H torsion
[ 7974 7965 7964 7962 ] final    1.61 input  175.53 | X-H torsion
[ 8008 7997 7996 7995 ] final   13.54 input   59.86 | X-H torsion
[ 10167 10162 10161 10158 ] final -156.35 input  -65.29 | X-H torsion
[ 10718 10713 10712 10709 ] final  -54.14 input   66.30 | X-H torsion
[ 10763 10752 10751 10750 ] final  -33.09 input  -60.55 | X-H torsion
[ 11005 11000 10999 10996 ] final -158.77 input  -57.11 | X-H torsion

> <Gold.Protein.ActiveResidues>
 VAL166  LYS551  ARG553  GLY616  TRP617  ASP618  TYR619  PRO620  LYS621  CYS622 
 ASP623  PHE694  ASN695  SER759  ASP760  ASP761  ALA762  ILE779  LEU786  VAL792 
 PHE793  MET794  SER795  GLU796  ALA797  LYS798  CYS799  TRP800  GLU811  SER814 

> <Gold.Protein.RotatedAtoms>
  151.3196  133.4045  159.2653 H   0  0  0  0  0  0  0  0  0  0  0  0  # atno 6907 bound_to 6896
  151.0045  134.9349  159.7983 H   0  0  0  0  0  0  0  0  0  0  0  0  # atno 6908 bound_to 6896
  152.5284  134.3161  159.9184 H   0  0  0  0  0  0  0  0  0  0  0  0  # atno 6909 bound_to 6896
  146.2441  140.0960  142.8350 H   0  0  0  0  0  0  0  0  0  0  0  0  # atno 7974 bound_to 7965
  154.8360  140.2907  155.5691 H   0  0  0  0  0  0  0  0  0  0  0  0  # atno 8008 bound_to 7997
  156.3008  140.2523  156.3225 H   0  0  0  0  0  0  0  0  0  0  0  0  # atno 8009 bound_to 7997
  154.9179  140.0386  157.1971 H   0  0  0  0  0  0  0  0  0  0  0  0  # atno 8010 bound_to 7997
  139.6857  143.9505  152.2360 H   0  0  0  0  0  0  0  0  0  0  0  0  # atno 10167 bound_to 10162
  156.1476  130.4152  149.9998 H   0  0  0  0  0  0  0  0  0  0  0  0  # atno 10718 bound_to 10713
  153.8244  135.6871  153.4823 H   0  0  0  0  0  0  0  0  0  0  0  0  # atno 10763 bound_to 10752
  153.1549  135.4603  154.9688 H   0  0  0  0  0  0  0  0  0  0  0  0  # atno 10764 bound_to 10752
  154.7913  135.3303  154.7714 H   0  0  0  0  0  0  0  0  0  0  0  0  # atno 10765 bound_to 10752
  140.6499  134.4462  157.5235 H   0  0  0  0  0  0  0  0  0  0  0  0  # atno 11005 bound_to 11000
  145.0609  140.9087  143.4939 LP  0  0  0  0  0  0  0  0  0  0  0  0  # atno 17320 bound_to 7965
  145.1076  139.2779  143.5654 LP  0  0  0  0  0  0  0  0  0  0  0  0  # atno 17321 bound_to 7965
  139.9307  144.6743  150.8365 LP  0  0  0  0  0  0  0  0  0  0  0  0  # atno 17342 bound_to 10162
  140.7667  143.3310  151.2409 LP  0  0  0  0  0  0  0  0  0  0  0  0  # atno 17343 bound_to 10162
  156.7865  130.9240  151.3646 LP  0  0  0  0  0  0  0  0  0  0  0  0  # atno 17370 bound_to 10713
  157.6630  130.8982  149.9870 LP  0  0  0  0  0  0  0  0  0  0  0  0  # atno 17371 bound_to 10713
  139.9049  134.8471  156.1744 LP  0  0  0  0  0  0  0  0  0  0  0  0  # atno 17394 bound_to 11000
  141.0544  133.6872  156.1833 LP  0  0  0  0  0  0  0  0  0  0  0  0  # atno 17395 bound_to 11000

$$$$
