AV-unprocessed.smi:1946|AV-procd|sdf|7863|dock3
  -GOLD-   2272010 13D 1   1.00000     0.00000
 Structure written by MMmdl.
 39 41  0  0  0  0  0  0  0  0  2 V2000
  152.4896  132.4423  156.8025 C   0  0  0  0  0  0  0  0  0  0  0  0
  150.7426  132.9356  156.5109 S   0  0  0  0  0  0  0  0  0  0  0  0
  150.3103  132.3494  155.2324 O   0  0  0  0  0  0  0  0  0  0  0  0
  149.9786  132.6533  157.7361 O   0  0  0  0  0  0  0  0  0  0  0  0
  150.8330  134.7105  156.3062 C   0  0  0  0  0  0  0  0  0  0  0  0
  150.3728  135.2989  155.1118 C   0  0  0  0  0  0  0  0  0  0  0  0
  150.4710  136.6931  154.9396 C   0  0  0  0  0  0  0  0  0  0  0  0
  151.0338  137.4997  155.9542 C   0  0  0  0  0  0  0  0  0  0  0  0
  151.1422  139.0054  155.7709 C   0  0  2  0  0  0  0  0  0  0  0  0
  152.0226  139.3493  154.7187 O   0  0  0  0  0  0  0  0  0  0  0  0
  151.5765  139.6995  157.0779 C   0  0  0  0  0  0  0  0  0  0  0  0
  151.3219  141.1475  157.0718 N   0  0  0  0  0  0  0  0  0  0  0  0
  150.6430  141.9056  156.1687 C   0  0  0  0  0  0  0  0  0  0  0  0
  150.6806  143.1960  156.6024 N   0  3  0  0  0  0  0  0  0  0  0  0
  151.3941  143.2647  157.8007 C   0  0  0  0  0  0  0  0  0  0  0  0
  151.6999  144.3492  158.6172 C   0  0  0  0  0  0  0  0  0  0  0  0
  152.4537  144.0753  159.7772 C   0  0  0  0  0  0  0  0  0  0  0  0
  152.8743  142.7658  160.0877 C   0  0  0  0  0  0  0  0  0  0  0  0
  152.5580  141.6737  159.2529 C   0  0  0  0  0  0  0  0  0  0  0  0
  151.8106  141.9519  158.1087 C   0  0  0  0  0  0  0  0  0  0  0  0
  151.5093  136.8969  157.1394 C   0  0  0  0  0  0  0  0  0  0  0  0
  151.4144  135.5027  157.3157 C   0  0  0  0  0  0  0  0  0  0  0  0
  152.5431  131.3623  156.9383 H   0  0  0  0  0  0  0  0  0  0  0  0
  152.8642  132.9391  157.6974 H   0  0  0  0  0  0  0  0  0  0  0  0
  153.0976  132.7306  155.9452 H   0  0  0  0  0  0  0  0  0  0  0  0
  149.9461  134.6893  154.3290 H   0  0  0  0  0  0  0  0  0  0  0  0
  150.1148  137.1418  154.0238 H   0  0  0  0  0  0  0  0  0  0  0  0
  150.1602  139.3861  155.4865 H   0  0  0  0  0  0  0  0  0  0  0  0
  152.9089  139.1944  155.0083 H   0  0  0  0  0  0  0  0  0  0  0  0
  151.0213  139.2823  157.9191 H   0  0  0  0  0  0  0  0  0  0  0  0
  152.6305  139.5213  157.2922 H   0  0  0  0  0  0  0  0  0  0  0  0
  150.1609  141.5483  155.2702 H   0  0  0  0  0  0  0  0  0  0  0  0
  151.3808  145.3537  158.3808 H   0  0  0  0  0  0  0  0  0  0  0  0
  152.7162  144.8861  160.4413 H   0  0  0  0  0  0  0  0  0  0  0  0
  153.4532  142.5950  160.9837 H   0  0  0  0  0  0  0  0  0  0  0  0
  152.8914  140.6763  159.4976 H   0  0  0  0  0  0  0  0  0  0  0  0
  151.9511  137.5011  157.9181 H   0  0  0  0  0  0  0  0  0  0  0  0
  151.7861  135.0496  158.2227 H   0  0  0  0  0  0  0  0  0  0  0  0
  150.2499  143.9709  156.1143 H   0  0  0  0  0  0  0  0  0  0  0  0
  1  2  1  0  0  0  0
  1 23  1  0  0  0  0
  1 24  1  0  0  0  0
  1 25  1  0  0  0  0
  2  3  2  0  0  0  0
  2  4  2  0  0  0  0
  2  5  1  0  0  0  0
  5 22  1  0  0  0  0
  5  6  2  0  0  0  0
  6  7  1  0  0  0  0
  6 26  1  0  0  0  0
  7  8  2  0  0  0  0
  7 27  1  0  0  0  0
  8  9  1  0  0  0  0
  8 21  1  0  0  0  0
  9 10  1  0  0  0  0
  9 11  1  0  0  0  0
  9 28  1  0  0  0  0
 10 29  1  0  0  0  0
 11 12  1  0  0  0  0
 11 30  1  0  0  0  0
 11 31  1  0  0  0  0
 12 20  1  0  0  0  0
 12 13  1  0  0  0  0
 13 14  2  0  0  0  0
 13 32  1  0  0  0  0
 14 15  1  0  0  0  0
 14 39  1  0  0  0  0
 15 20  2  0  0  0  0
 15 16  1  0  0  0  0
 16 17  2  0  0  0  0
 16 33  1  0  0  0  0
 17 18  1  0  0  0  0
 17 34  1  0  0  0  0
 18 19  2  0  0  0  0
 18 35  1  0  0  0  0
 19 20  1  0  0  0  0
 19 36  1  0  0  0  0
 21 22  2  0  0  0  0
 21 37  1  0  0  0  0
 22 38  1  0  0  0  0
M  CHG  1  14   1
M  END
> <s_m_source_file>
AV-unprocessed.smi

> <i_m_source_file_index>
1946

> <i_lp_mmshare_version>
43012

> <i_f3d_flags>
0

> <s_epik_input>
W0NIM11TKD1PKSg9TyljMVtjSF1bY0hdYyhbY0hdW2NIXTEpW0NASF0oW09IXSlbQ0gyXW4oW2NIXW4yKWMoYzIzKVtjSF1bY0hdW2NIXVtjSF0z

> <s_epik_cmdline>
J2VwaWtfcHl0aG9uJywgJy1waCcsICc3LjAnLCAnLXRuJywgJzgnLCAnLW1hJywgJzIwMCcsICctbWV0YWxfYmluZGluZycsICctaW1hZScsICc8aW5maWxlLm1hZT4nLCAnLW9tYWUnLCAnPG91dGZpbGUubWFlPic=

> <r_epik_Ionization_Penalty>
1.3029

> <r_epik_Ionization_Penalty_Charging>
1.3029

> <r_epik_Ionization_Penalty_Neutral>
1.34362e-06

> <r_epik_State_Penalty>
1.377

> <r_epik_Charging_Adjusted_Penalty>
2.6799

> <i_epik_Tot_Q>
1

> <i_epik_Tot_abs_Q>
1

> <r_epik_Metal_State_Penalty>
5.40879

> <b_epik_Metal_Only>
0

> <s_lp_Force_Field>
OPLS_2005

> <r_lp_Energy>
15.3406

> <b_lp_Chiralities_Consistent>
1

> <s_lp_Variant>
AV-unprocessed.smi:1946-3

> <Gold.Version>
5.8.1

> <Gold.Id.Protein>
6NUR|6NUR_protein|mol2

> <Gold.PLP.Fitness>
50.6730

> <Gold.PLP.PLP>
-39.5143

> <Gold.PLP.part.hbond>
-3.0000

> <Gold.PLP.part.metal>
0.0000

> <Gold.PLP.part.buried>
-4.5915

> <Gold.PLP.part.nonpolar>
-32.7362

> <Gold.PLP.part.repulsive>
0.0630

> <Gold.PLP.ligand.clash>
0.0000

> <Gold.PLP.ligand.torsion>
1.3509

> <Gold.PLP.Chemscore.Hbond>
3.9280

> <Gold.PLP.Chemscore.CHOScore>
0.0000

> <Gold.PLP.Chemscore.Metal>
0.0000

> <Gold.Chemscore.Hbonds>
donor molecule, donor type, donor heavy atom, donor atom, acceptor molecule, acceptor atom, score
      L1  H    14    39       P1  8028  1.98
      P1  H  6896  6909       L1     4  0.93
      P1  H  7989  7998       L1    10  0.91

> <Gold.PLP.Chemscore.Internal.Correction>
2.0766

> <Gold.Rescore>
     Score         DG    S(hbond)    S(metal)    S(lipo)     H(rot)  DE(clash)    DE(int)     intcor
     19.95     -22.18       2.70        0.00     110.39       2.04       0.81       1.43       ----

> <Gold.Chemscore.Fitness>
19.9491

> <Gold.Chemscore.DG>
-22.1846

> <Gold.Chemscore.ZeroCoef>
-5.4800

> <Gold.Chemscore.Hbond>
2.6967

> <Gold.Chemscore.Metal>
0.0000

> <Gold.Chemscore.Lipo>
110.3869

> <Gold.Chemscore.Internal_Hbond>
0.0000

> <Gold.Chemscore.DEClash>
0.8093

> <Gold.Chemscore.DEInternal>
1.4261

> <Gold.Chemscore.Rot>
2.0382

> <Gold.Chemscore.Internal.Correction>
   9.000000E+99

> <Gold.Chemscore.Hbonds>
donor molecule, donor type, donor heavy atom, donor atom, acceptor molecule, acceptor atom, score
      L1  H    14    39       P1  8028  0.92
      P1  H  6896  6909       L1     4  0.35
      P1  H  7989  7998       L1    10  0.85

> <Gold.Chemscore.Hbond.Weighted>
-9.0070

> <Gold.Chemscore.Metal.Weighted>
-0.0000

> <Gold.Chemscore.Lipo.Weighted>
-12.9153

> <Gold.Chemscore.Internal_Hbond.Weighted>
0.0000

> <Gold.Chemscore.DEClash.Weighted>
0.8093

> <Gold.Chemscore.DEInternal.Weighted>
1.4261

> <Gold.Chemscore.Rot.Weighted>
5.2177

> <Gold.Chemscore.Internal.Correction.Weighted>
   9.000000E+99

> <Gold.Protein.RotatedTorsions>
[ 6907 6896 6895 6894 ] final  -33.29 input  -60.11 | X-H torsion
[ 7974 7965 7964 7962 ] final   90.78 input  175.53 | X-H torsion
[ 8008 7997 7996 7995 ] final -141.74 input   59.86 | X-H torsion
[ 10167 10162 10161 10158 ] final  131.71 input  -65.29 | X-H torsion
[ 10718 10713 10712 10709 ] final  178.76 input   66.30 | X-H torsion
[ 10763 10752 10751 10750 ] final -164.66 input  -60.55 | X-H torsion
[ 11005 11000 10999 10996 ] final  130.30 input  -57.11 | X-H torsion

> <Gold.Protein.ActiveResidues>
 VAL166  LYS551  ARG553  GLY616  TRP617  ASP618  TYR619  PRO620  LYS621  CYS622 
 ASP623  PHE694  ASN695  SER759  ASP760  ASP761  ALA762  ILE779  LEU786  VAL792 
 PHE793  MET794  SER795  GLU796  ALA797  LYS798  CYS799  TRP800  GLU811  SER814 

> <Gold.Protein.RotatedAtoms>
  151.0676  134.9777  159.8291 H   0  0  0  0  0  0  0  0  0  0  0  0  # atno 6907 bound_to 6896
  152.5404  134.2340  159.8846 H   0  0  0  0  0  0  0  0  0  0  0  0  # atno 6908 bound_to 6896
  151.2363  133.4380  159.2639 H   0  0  0  0  0  0  0  0  0  0  0  0  # atno 6909 bound_to 6896
  145.5144  139.2277  143.2706 H   0  0  0  0  0  0  0  0  0  0  0  0  # atno 7974 bound_to 7965
  155.4827  140.0561  157.2965 H   0  0  0  0  0  0  0  0  0  0  0  0  # atno 8008 bound_to 7997
  154.4654  140.2016  156.0085 H   0  0  0  0  0  0  0  0  0  0  0  0  # atno 8009 bound_to 7997
  156.0964  140.3225  155.7888 H   0  0  0  0  0  0  0  0  0  0  0  0  # atno 8010 bound_to 7997
  139.5372  144.6694  151.4747 H   0  0  0  0  0  0  0  0  0  0  0  0  # atno 10167 bound_to 10162
  156.8859  130.9831  151.3056 H   0  0  0  0  0  0  0  0  0  0  0  0  # atno 10718 bound_to 10713
  154.7007  135.2987  154.9345 H   0  0  0  0  0  0  0  0  0  0  0  0  # atno 10763 bound_to 10752
  154.0278  135.6674  153.4782 H   0  0  0  0  0  0  0  0  0  0  0  0  # atno 10764 bound_to 10752
  153.0679  135.5077  154.8150 H   0  0  0  0  0  0  0  0  0  0  0  0  # atno 10765 bound_to 10752
  139.9664  134.9589  156.9274 H   0  0  0  0  0  0  0  0  0  0  0  0  # atno 11005 bound_to 11000
  146.2146  140.5952  142.9044 LP  0  0  0  0  0  0  0  0  0  0  0  0  # atno 17320 bound_to 7965
  144.7710  140.5637  143.6670 LP  0  0  0  0  0  0  0  0  0  0  0  0  # atno 17321 bound_to 7965
  140.6584  143.8551  150.6860 LP  0  0  0  0  0  0  0  0  0  0  0  0  # atno 17342 bound_to 10162
  140.1938  143.4015  152.1843 LP  0  0  0  0  0  0  0  0  0  0  0  0  # atno 17343 bound_to 10162
  157.6113  130.8585  149.8956 LP  0  0  0  0  0  0  0  0  0  0  0  0  # atno 17370 bound_to 10713
  156.0654  130.3693  150.0891 LP  0  0  0  0  0  0  0  0  0  0  0  0  # atno 17371 bound_to 10713
  140.5387  134.0741  155.7335 LP  0  0  0  0  0  0  0  0  0  0  0  0  # atno 17394 bound_to 11000
  141.1344  133.9247  157.2466 LP  0  0  0  0  0  0  0  0  0  0  0  0  # atno 17395 bound_to 11000

$$$$
