AV-unprocessed.smi:339|AV-procd|sdf|2378|dock3
  -GOLD-   2262022303D 1   1.00000     0.00000
 Structure written by MMmdl.
 45 46  0  0  0  0  0  0  0  0  1 V2000
  151.4434  143.2674  157.8744 C   0  0  0  0  0  0  0  0  0  0  0  0
  151.9869  143.0194  159.2696 C   0  0  0  0  0  0  0  0  0  0  0  0
  151.6796  143.9267  160.3044 C   0  0  0  0  0  0  0  0  0  0  0  0
  152.1857  143.7211  161.6011 C   0  0  0  0  0  0  0  0  0  0  0  0
  153.0053  142.6092  161.8683 C   0  0  0  0  0  0  0  0  0  0  0  0
  153.3187  141.6945  160.8418 C   0  0  0  0  0  0  0  0  0  0  0  0
  154.2116  140.5059  161.1453 C   0  0  0  0  0  0  0  0  0  0  0  0
  152.7978  141.8915  159.5411 C   0  0  0  0  0  0  0  0  0  0  0  0
  153.1039  141.0063  158.5398 O   0  0  0  0  0  0  0  0  0  0  0  0
  152.0790  140.0576  158.2823 C   0  0  0  0  0  0  0  0  0  0  0  0
  152.6348  138.9668  157.3525 C   0  0  2  0  0  0  0  0  0  0  0  0
  154.0253  138.8774  157.5971 O   0  0  0  0  0  0  0  0  0  0  0  0
  152.4363  139.3234  155.8622 C   0  0  0  0  0  0  0  0  0  0  0  0
  151.0463  139.1320  155.4296 N   0  0  0  0  0  0  0  0  0  0  0  0
  150.4262  140.2916  155.0083 N   0  0  0  0  0  0  0  0  0  0  0  0
  149.2076  140.2852  154.5778 C   0  0  0  0  0  0  0  0  0  0  0  0
  148.6368  141.6085  154.1437 C   0  0  0  0  0  0  0  0  0  0  0  0
  148.4630  139.0308  154.5332 C   0  0  0  0  0  0  0  0  0  0  0  0
  147.0325  139.0826  154.0137 C   0  0  0  0  0  0  0  0  0  0  0  0
  149.0795  137.9004  154.9601 C   0  0  0  0  0  0  0  0  0  0  0  0
  148.4290  136.6298  154.9599 C   0  0  0  0  0  0  0  0  0  0  0  0
  147.9095  135.5954  154.9779 N   0  0  0  0  0  0  0  0  0  0  0  0
  150.4598  137.9010  155.4503 C   0  0  0  0  0  0  0  0  0  0  0  0
  151.0493  136.8927  155.8422 O   0  0  0  0  0  0  0  0  0  0  0  0
  151.2008  144.3206  157.7309 H   0  0  0  0  0  0  0  0  0  0  0  0
  150.5374  142.6836  157.7127 H   0  0  0  0  0  0  0  0  0  0  0  0
  152.1738  142.9879  157.1147 H   0  0  0  0  0  0  0  0  0  0  0  0
  151.0566  144.7867  160.1061 H   0  0  0  0  0  0  0  0  0  0  0  0
  151.9492  144.4199  162.3900 H   0  0  0  0  0  0  0  0  0  0  0  0
  153.3946  142.4621  162.8652 H   0  0  0  0  0  0  0  0  0  0  0  0
  154.9173  140.3323  160.3327 H   0  0  0  0  0  0  0  0  0  0  0  0
  153.6104  139.6068  161.2782 H   0  0  0  0  0  0  0  0  0  0  0  0
  154.7869  140.6683  162.0569 H   0  0  0  0  0  0  0  0  0  0  0  0
  151.7870  139.6175  159.2367 H   0  0  0  0  0  0  0  0  0  0  0  0
  151.1842  140.5192  157.8604 H   0  0  0  0  0  0  0  0  0  0  0  0
  152.1547  138.0156  157.5855 H   0  0  0  0  0  0  0  0  0  0  0  0
  154.2770  137.9671  157.5710 H   0  0  0  0  0  0  0  0  0  0  0  0
  152.7096  140.3658  155.6897 H   0  0  0  0  0  0  0  0  0  0  0  0
  153.1234  138.7496  155.2368 H   0  0  0  0  0  0  0  0  0  0  0  0
  147.7078  141.8228  154.6724 H   0  0  0  0  0  0  0  0  0  0  0  0
  148.4251  141.6050  153.0742 H   0  0  0  0  0  0  0  0  0  0  0  0
  149.3241  142.4326  154.3413 H   0  0  0  0  0  0  0  0  0  0  0  0
  146.5951  138.0900  153.9111 H   0  0  0  0  0  0  0  0  0  0  0  0
  146.9941  139.5559  153.0321 H   0  0  0  0  0  0  0  0  0  0  0  0
  146.4017  139.6533  154.6956 H   0  0  0  0  0  0  0  0  0  0  0  0
  1  2  1  0  0  0  0
  1 25  1  0  0  0  0
  1 26  1  0  0  0  0
  1 27  1  0  0  0  0
  2  8  1  0  0  0  0
  2  3  2  0  0  0  0
  3  4  1  0  0  0  0
  3 28  1  0  0  0  0
  4  5  2  0  0  0  0
  4 29  1  0  0  0  0
  5  6  1  0  0  0  0
  5 30  1  0  0  0  0
  6  7  1  0  0  0  0
  6  8  2  0  0  0  0
  7 31  1  0  0  0  0
  7 32  1  0  0  0  0
  7 33  1  0  0  0  0
  8  9  1  0  0  0  0
  9 10  1  0  0  0  0
 10 11  1  0  0  0  0
 10 34  1  0  0  0  0
 10 35  1  0  0  0  0
 11 12  1  0  0  0  0
 11 13  1  0  0  0  0
 11 36  1  0  0  0  0
 12 37  1  0  0  0  0
 13 14  1  0  0  0  0
 13 38  1  0  0  0  0
 13 39  1  0  0  0  0
 14 23  1  0  0  0  0
 14 15  1  0  0  0  0
 15 16  2  0  0  0  0
 16 17  1  0  0  0  0
 16 18  1  0  0  0  0
 17 40  1  0  0  0  0
 17 41  1  0  0  0  0
 17 42  1  0  0  0  0
 18 19  1  0  0  0  0
 18 20  2  0  0  0  0
 19 43  1  0  0  0  0
 19 44  1  0  0  0  0
 19 45  1  0  0  0  0
 20 21  1  0  0  0  0
 20 23  1  0  0  0  0
 21 22  3  0  0  0  0
 23 24  2  0  0  0  0
M  END
> <s_m_source_file>
AV-unprocessed.smi

> <i_m_source_file_index>
339

> <i_lp_mmshare_version>
43012

> <i_f3d_flags>
0

> <s_epik_input>
W0NIM11jMVtjSF1bY0hdW2NIXWMoW0NIM10pYzFPW0NIMl1bQ0BIXShbT0hdKVtDSDJdbjJuYyhbQ0gzXSljKFtDSDNdKWMoQyNOKWMyPU8=

> <s_epik_cmdline>
J2VwaWtfcHl0aG9uJywgJy1waCcsICc3LjAnLCAnLXRuJywgJzgnLCAnLW1hJywgJzIwMCcsICctbWV0YWxfYmluZGluZycsICctaW1hZScsICc8aW5maWxlLm1hZT4nLCAnLW9tYWUnLCAnPG91dGZpbGUubWFlPic=

> <r_lp_tautomer_probability>
1

> <r_epik_Ionization_Penalty>
1.17331e-07

> <r_epik_Ionization_Penalty_Charging>
1.57223e-10

> <r_epik_Ionization_Penalty_Neutral>
1.17174e-07

> <r_epik_State_Penalty>
-0

> <r_epik_Charging_Adjusted_Penalty>
1.57223e-10

> <i_epik_Tot_Q>
0

> <i_epik_Tot_abs_Q>
0

> <r_epik_Metal_State_Penalty>
-0

> <b_epik_Metal_Only>
0

> <s_lp_Force_Field>
OPLS_2005

> <r_lp_Energy>
35.9352

> <b_lp_Chiralities_Consistent>
1

> <s_lp_Variant>
AV-unprocessed.smi:339-1

> <Gold.Version>
5.8.1

> <Gold.Id.Protein>
6NUR|6NUR_protein|mol2

> <Gold.PLP.Fitness>
50.1485

> <Gold.PLP.PLP>
-45.6871

> <Gold.PLP.part.hbond>
-2.7299

> <Gold.PLP.part.metal>
0.0000

> <Gold.PLP.part.buried>
-1.4501

> <Gold.PLP.part.nonpolar>
-42.4820

> <Gold.PLP.part.repulsive>
0.1914

> <Gold.PLP.ligand.clash>
0.0000

> <Gold.PLP.ligand.torsion>
0.8171

> <Gold.PLP.Chemscore.Hbond>
2.0000

> <Gold.PLP.Chemscore.CHOScore>
0.0000

> <Gold.PLP.Chemscore.Metal>
0.0000

> <Gold.Chemscore.Hbonds>
donor molecule, donor type, donor heavy atom, donor atom, acceptor molecule, acceptor atom, score
      P1  H  7989  7998       L1    15  1.00
      P1  H  7997  8009       L1    12  0.68

> <Gold.PLP.Chemscore.Internal.Correction>
0.0956

> <Gold.Rescore>
     Score         DG    S(hbond)    S(metal)    S(lipo)     H(rot)  DE(clash)    DE(int)     intcor
     17.86     -19.05       1.26        0.00     130.02       2.29       0.36       0.83       ----

> <Gold.Chemscore.Fitness>
17.8629

> <Gold.Chemscore.DG>
-19.0477

> <Gold.Chemscore.ZeroCoef>
-5.4800

> <Gold.Chemscore.Hbond>
1.2633

> <Gold.Chemscore.Metal>
0.0000

> <Gold.Chemscore.Lipo>
130.0166

> <Gold.Chemscore.Internal_Hbond>
0.0000

> <Gold.Chemscore.DEClash>
0.3586

> <Gold.Chemscore.DEInternal>
0.8262

> <Gold.Chemscore.Rot>
2.2905

> <Gold.Chemscore.Internal.Correction>
   9.000000E+99

> <Gold.Chemscore.Hbonds>
donor molecule, donor type, donor heavy atom, donor atom, acceptor molecule, acceptor atom, score
      P1  H  7989  7998       L1    15  0.21
      P1  H  7997  8009       L1    12  0.56

> <Gold.Chemscore.Hbond.Weighted>
-4.2193

> <Gold.Chemscore.Metal.Weighted>
-0.0000

> <Gold.Chemscore.Lipo.Weighted>
-15.2119

> <Gold.Chemscore.Internal_Hbond.Weighted>
0.0000

> <Gold.Chemscore.DEClash.Weighted>
0.3586

> <Gold.Chemscore.DEInternal.Weighted>
0.8262

> <Gold.Chemscore.Rot.Weighted>
5.8636

> <Gold.Chemscore.Internal.Correction.Weighted>
   9.000000E+99

> <Gold.Protein.RotatedTorsions>
[ 6907 6896 6895 6894 ] final  116.37 input  -60.11 | X-H torsion
[ 7974 7965 7964 7962 ] final  -81.76 input  175.53 | X-H torsion
[ 8008 7997 7996 7995 ] final  143.53 input   59.86 | X-H torsion
[ 10167 10162 10161 10158 ] final -171.64 input  -65.29 | X-H torsion
[ 10718 10713 10712 10709 ] final   79.94 input   66.30 | X-H torsion
[ 10763 10752 10751 10750 ] final  -34.58 input  -60.55 | X-H torsion
[ 11005 11000 10999 10996 ] final   83.76 input  -57.11 | X-H torsion

> <Gold.Protein.ActiveResidues>
 VAL166  LYS551  ARG553  GLY616  TRP617  ASP618  TYR619  PRO620  LYS621  CYS622 
 ASP623  PHE694  ASN695  SER759  ASP760  ASP761  ALA762  ILE779  LEU786  VAL792 
 PHE793  MET794  SER795  GLU796  ALA797  LYS798  CYS799  TRP800  GLU811  SER814 

> <Gold.Protein.RotatedAtoms>
  152.4682  133.7970  159.6932 H   0  0  0  0  0  0  0  0  0  0  0  0  # atno 6907 bound_to 6896
  150.8657  133.7568  159.2984 H   0  0  0  0  0  0  0  0  0  0  0  0  # atno 6908 bound_to 6896
  151.5119  135.1068  159.9908 H   0  0  0  0  0  0  0  0  0  0  0  0  # atno 6909 bound_to 6896
  145.5424  140.9508  143.1544 H   0  0  0  0  0  0  0  0  0  0  0  0  # atno 7974 bound_to 7965
  156.2928  140.2260  156.4906 H   0  0  0  0  0  0  0  0  0  0  0  0  # atno 8008 bound_to 7997
  154.7774  140.0462  157.1121 H   0  0  0  0  0  0  0  0  0  0  0  0  # atno 8009 bound_to 7997
  154.9800  140.3077  155.4954 H   0  0  0  0  0  0  0  0  0  0  0  0  # atno 8010 bound_to 7997
  139.5791  144.1465  152.1490 H   0  0  0  0  0  0  0  0  0  0  0  0  # atno 10167 bound_to 10162
  157.6792  130.9937  150.2006 H   0  0  0  0  0  0  0  0  0  0  0  0  # atno 10718 bound_to 10713
  153.8490  135.6850  153.4794 H   0  0  0  0  0  0  0  0  0  0  0  0  # atno 10763 bound_to 10752
  153.1408  135.4658  154.9491 H   0  0  0  0  0  0  0  0  0  0  0  0  # atno 10764 bound_to 10752
  154.7811  135.3269  154.7936 H   0  0  0  0  0  0  0  0  0  0  0  0  # atno 10765 bound_to 10752
  139.9021  134.8168  156.2353 H   0  0  0  0  0  0  0  0  0  0  0  0  # atno 11005 bound_to 11000
  144.7570  139.7049  143.7250 LP  0  0  0  0  0  0  0  0  0  0  0  0  # atno 17320 bound_to 7965
  146.1972  139.5245  142.9767 LP  0  0  0  0  0  0  0  0  0  0  0  0  # atno 17321 bound_to 7965
  140.1014  144.5536  150.6986 LP  0  0  0  0  0  0  0  0  0  0  0  0  # atno 17342 bound_to 10162
  140.7071  143.2476  151.4694 LP  0  0  0  0  0  0  0  0  0  0  0  0  # atno 17343 bound_to 10162
  156.2698  130.3720  149.8044 LP  0  0  0  0  0  0  0  0  0  0  0  0  # atno 17370 bound_to 10713
  156.5764  130.8447  151.3371 LP  0  0  0  0  0  0  0  0  0  0  0  0  # atno 17371 bound_to 10713
  141.0319  133.6984  156.1445 LP  0  0  0  0  0  0  0  0  0  0  0  0  # atno 17394 bound_to 11000
  140.7083  134.4489  157.5583 LP  0  0  0  0  0  0  0  0  0  0  0  0  # atno 17395 bound_to 11000

$$$$
