AV-unprocessed.smi:1224|AV-procd|sdf|5129|dock5
  -GOLD-   22720 4183D 1   1.00000     0.00000
 Structure written by MMmdl.
 44 46  0  0  0  0  0  0  0  0  2 V2000
  151.6105  143.4615  160.4757 C   0  0  0  0  0  0  0  0  0  0  0  0
  151.7066  142.5266  159.2830 C   0  0  0  0  0  0  0  0  0  0  0  0
  150.7461  142.6278  158.2514 C   0  0  0  0  0  0  0  0  0  0  0  0
  150.8026  141.7800  157.1237 C   0  0  0  0  0  0  0  0  0  0  0  0
  149.9814  141.7061  156.0116 N   0  0  0  0  0  0  0  0  0  0  0  0
  150.5522  140.7235  155.3210 C   0  0  0  0  0  0  0  0  0  0  0  0
  151.6471  140.1494  155.8561 N   0  0  0  0  0  0  0  0  0  0  0  0
  152.4368  139.0678  155.2958 C   0  0  0  0  0  0  0  0  0  0  0  0
  151.6191  138.1791  154.3393 C   0  0  1  0  0  0  0  0  0  0  0  0
  152.4899  137.2858  153.6712 O   0  0  0  0  0  0  0  0  0  0  0  0
  150.5455  137.3682  155.0821 C   0  0  0  0  0  0  0  0  0  0  0  0
  150.3055  136.0671  154.4217 N   0  3  0  0  0  0  0  0  0  0  0  0
  149.6744  135.0393  155.2756 C   0  0  0  0  0  0  0  0  0  0  0  0
  149.7216  133.6756  154.6660 C   0  0  0  0  0  0  0  0  0  0  0  0
  150.3429  132.5565  155.1599 C   0  0  0  0  0  0  0  0  0  0  0  0
  150.1957  131.4159  154.3177 C   0  0  0  0  0  0  0  0  0  0  0  0
  149.4632  131.6794  153.1913 C   0  0  0  0  0  0  0  0  0  0  0  0
  148.9390  133.3402  153.1421 S   0  0  0  0  0  0  0  0  0  0  0  0
  151.8542  140.8201  157.0563 C   0  0  0  0  0  0  0  0  0  0  0  0
  152.8150  140.7086  158.0767 C   0  0  0  0  0  0  0  0  0  0  0  0
  152.7443  141.5640  159.1960 C   0  0  0  0  0  0  0  0  0  0  0  0
  153.7878  141.4379  160.2921 C   0  0  0  0  0  0  0  0  0  0  0  0
  150.7415  144.1158  160.4006 H   0  0  0  0  0  0  0  0  0  0  0  0
  152.4988  144.0904  160.5386 H   0  0  0  0  0  0  0  0  0  0  0  0
  151.5211  142.8935  161.4018 H   0  0  0  0  0  0  0  0  0  0  0  0
  149.9560  143.3613  158.3172 H   0  0  0  0  0  0  0  0  0  0  0  0
  150.1495  140.4003  154.3722 H   0  0  0  0  0  0  0  0  0  0  0  0
  153.3012  139.4926  154.7829 H   0  0  0  0  0  0  0  0  0  0  0  0
  152.8271  138.4732  156.1226 H   0  0  0  0  0  0  0  0  0  0  0  0
  151.1381  138.8111  153.5911 H   0  0  0  0  0  0  0  0  0  0  0  0
  152.3611  137.3754  152.7389 H   0  0  0  0  0  0  0  0  0  0  0  0
  150.8374  137.2184  156.1224 H   0  0  0  0  0  0  0  0  0  0  0  0
  149.6075  137.9254  155.0908 H   0  0  0  0  0  0  0  0  0  0  0  0
  149.7021  136.2280  153.6279 H   0  0  0  0  0  0  0  0  0  0  0  0
  150.1548  135.0354  156.2548 H   0  0  0  0  0  0  0  0  0  0  0  0
  148.6359  135.3267  155.4425 H   0  0  0  0  0  0  0  0  0  0  0  0
  150.8943  132.5164  156.0877 H   0  0  0  0  0  0  0  0  0  0  0  0
  150.6255  130.4560  154.5640 H   0  0  0  0  0  0  0  0  0  0  0  0
  149.1998  131.0025  152.3918 H   0  0  0  0  0  0  0  0  0  0  0  0
  153.6003  139.9716  157.9977 H   0  0  0  0  0  0  0  0  0  0  0  0
  154.5203  140.6654  160.0568 H   0  0  0  0  0  0  0  0  0  0  0  0
  153.3164  141.1750  161.2393 H   0  0  0  0  0  0  0  0  0  0  0  0
  154.3234  142.3787  160.4205 H   0  0  0  0  0  0  0  0  0  0  0  0
  151.1881  135.7106  154.0837 H   0  0  0  0  0  0  0  0  0  0  0  0
  1  2  1  0  0  0  0
  1 23  1  0  0  0  0
  1 24  1  0  0  0  0
  1 25  1  0  0  0  0
  2 21  1  0  0  0  0
  2  3  2  0  0  0  0
  3  4  1  0  0  0  0
  3 26  1  0  0  0  0
  4 19  2  0  0  0  0
  4  5  1  0  0  0  0
  5  6  2  0  0  0  0
  6  7  1  0  0  0  0
  6 27  1  0  0  0  0
  7  8  1  0  0  0  0
  7 19  1  0  0  0  0
  8  9  1  0  0  0  0
  8 28  1  0  0  0  0
  8 29  1  0  0  0  0
  9 10  1  0  0  0  0
  9 11  1  0  0  0  0
  9 30  1  0  0  0  0
 10 31  1  0  0  0  0
 11 12  1  0  0  0  0
 11 32  1  0  0  0  0
 11 33  1  0  0  0  0
 12 13  1  0  0  0  0
 12 34  1  0  0  0  0
 12 44  1  0  0  0  0
 13 14  1  0  0  0  0
 13 35  1  0  0  0  0
 13 36  1  0  0  0  0
 14 18  1  0  0  0  0
 14 15  2  0  0  0  0
 15 16  1  0  0  0  0
 15 37  1  0  0  0  0
 16 17  2  0  0  0  0
 16 38  1  0  0  0  0
 17 18  1  0  0  0  0
 17 39  1  0  0  0  0
 19 20  1  0  0  0  0
 20 21  2  0  0  0  0
 20 40  1  0  0  0  0
 21 22  1  0  0  0  0
 22 41  1  0  0  0  0
 22 42  1  0  0  0  0
 22 43  1  0  0  0  0
M  CHG  1  12   1
M  END
> <s_m_source_file>
AV-unprocessed.smi

> <i_m_source_file_index>
1224

> <i_lp_mmshare_version>
43012

> <i_f3d_flags>
0

> <s_epik_input>
W0NIM11jKFtjSF0xKWMoW0NIM10pW2NIXWMoYzEyKW4oW2NIXW4yKVtDSDJdW0NASF0oW09IXSlbQ0gyXVtOSF1bQ0gyXWMzW2NIXVtjSF1bY0hdczM=

> <s_epik_cmdline>
J2VwaWtfcHl0aG9uJywgJy1waCcsICc3LjAnLCAnLXRuJywgJzgnLCAnLW1hJywgJzIwMCcsICctbWV0YWxfYmluZGluZycsICctaW1hZScsICc8aW5maWxlLm1hZT4nLCAnLW9tYWUnLCAnPG91dGZpbGUubWFlPic=

> <r_epik_Ionization_Penalty>
0.145091

> <r_epik_Ionization_Penalty_Charging>
0.0551904

> <r_epik_Ionization_Penalty_Neutral>
0.0899003

> <r_epik_State_Penalty>
0.131364

> <r_epik_Charging_Adjusted_Penalty>
0.186554

> <i_epik_Tot_Q>
1

> <i_epik_Tot_abs_Q>
1

> <r_epik_Metal_State_Penalty>
0.0472291

> <b_epik_Metal_Only>
0

> <s_lp_Force_Field>
OPLS_2005

> <r_lp_Energy>
7.75101

> <b_lp_Chiralities_Consistent>
1

> <s_lp_Variant>
AV-unprocessed.smi:1224-2

> <Gold.Version>
5.8.1

> <Gold.Id.Protein>
6NUR|6NUR_protein|mol2

> <Gold.PLP.Fitness>
58.1907

> <Gold.PLP.PLP>
-46.0397

> <Gold.PLP.part.hbond>
-3.0782

> <Gold.PLP.part.metal>
0.0000

> <Gold.PLP.part.buried>
-3.2463

> <Gold.PLP.part.nonpolar>
-38.4419

> <Gold.PLP.part.repulsive>
0.1613

> <Gold.PLP.ligand.clash>
0.0000

> <Gold.PLP.ligand.torsion>
0.9478

> <Gold.PLP.Chemscore.Hbond>
3.6560

> <Gold.PLP.Chemscore.CHOScore>
1.0000

> <Gold.PLP.Chemscore.Metal>
0.0000

> <Gold.Chemscore.Hbonds>
donor molecule, donor type, donor heavy atom, donor atom, acceptor molecule, acceptor atom, score
      L1  H    10    31       P1  7949  0.29
      L1  H    12    34       P1  7948  2.00
      P1  H 10752 10765       L1    10  0.86
      L1  C    17    39       P1 10747  0.97

> <Gold.PLP.Chemscore.Internal.Correction>
0.0786

> <Gold.Rescore>
     Score         DG    S(hbond)    S(metal)    S(lipo)     H(rot)  DE(clash)    DE(int)     intcor
     18.79     -20.43       2.20        0.00     117.92       2.42       0.69       0.94       ----

> <Gold.Chemscore.Fitness>
18.7942

> <Gold.Chemscore.DG>
-20.4292

> <Gold.Chemscore.ZeroCoef>
-5.4800

> <Gold.Chemscore.Hbond>
2.2029

> <Gold.Chemscore.Metal>
0.0000

> <Gold.Chemscore.Lipo>
117.9232

> <Gold.Chemscore.Internal_Hbond>
0.0000

> <Gold.Chemscore.DEClash>
0.6946

> <Gold.Chemscore.DEInternal>
0.9405

> <Gold.Chemscore.Rot>
2.4240

> <Gold.Chemscore.Internal.Correction>
   9.000000E+99

> <Gold.Chemscore.Hbonds>
donor molecule, donor type, donor heavy atom, donor atom, acceptor molecule, acceptor atom, score
      L1  H    10    31       P1  7949  0.30
      L1  H    12    34       P1  7948  0.35
      P1  H 10752 10765       L1    10  0.55

> <Gold.Chemscore.Hbond.Weighted>
-7.3577

> <Gold.Chemscore.Metal.Weighted>
-0.0000

> <Gold.Chemscore.Lipo.Weighted>
-13.7970

> <Gold.Chemscore.Internal_Hbond.Weighted>
0.0000

> <Gold.Chemscore.DEClash.Weighted>
0.6946

> <Gold.Chemscore.DEInternal.Weighted>
0.9405

> <Gold.Chemscore.Rot.Weighted>
6.2055

> <Gold.Chemscore.Internal.Correction.Weighted>
   9.000000E+99

> <Gold.Protein.RotatedTorsions>
[ 6907 6896 6895 6894 ] final   47.35 input  -60.11 | X-H torsion
[ 7974 7965 7964 7962 ] final   55.96 input  175.53 | X-H torsion
[ 8008 7997 7996 7995 ] final  -29.52 input   59.86 | X-H torsion
[ 10167 10162 10161 10158 ] final  130.49 input  -65.29 | X-H torsion
[ 10718 10713 10712 10709 ] final  -29.14 input   66.30 | X-H torsion
[ 10763 10752 10751 10750 ] final  142.81 input  -60.55 | X-H torsion
[ 11005 11000 10999 10996 ] final  -26.96 input  -57.11 | X-H torsion

> <Gold.Protein.ActiveResidues>
 VAL166  LYS551  ARG553  GLY616  TRP617  ASP618  TYR619  PRO620  LYS621  CYS622 
 ASP623  PHE694  ASN695  SER759  ASP760  ASP761  ALA762  ILE779  LEU786  VAL792 
 PHE793  MET794  SER795  GLU796  ALA797  LYS798  CYS799  TRP800  GLU811  SER814 

> <Gold.Protein.RotatedAtoms>
  152.2670  134.7973  160.0420 H   0  0  0  0  0  0  0  0  0  0  0  0  # atno 6907 bound_to 6896
  151.8599  133.3450  159.3708 H   0  0  0  0  0  0  0  0  0  0  0  0  # atno 6908 bound_to 6896
  150.7137  134.5144  159.5667 H   0  0  0  0  0  0  0  0  0  0  0  0  # atno 6909 bound_to 6896
  145.9448  139.3920  143.0341 H   0  0  0  0  0  0  0  0  0  0  0  0  # atno 7974 bound_to 7965
  154.4287  140.1816  156.1261 H   0  0  0  0  0  0  0  0  0  0  0  0  # atno 8008 bound_to 7997
  156.0105  140.3351  155.6911 H   0  0  0  0  0  0  0  0  0  0  0  0  # atno 8009 bound_to 7997
  155.6117  140.0651  157.2695 H   0  0  0  0  0  0  0  0  0  0  0  0  # atno 8010 bound_to 7997
  139.5427  144.6746  151.4571 H   0  0  0  0  0  0  0  0  0  0  0  0  # atno 10167 bound_to 10162
  156.4162  130.4417  149.7216 H   0  0  0  0  0  0  0  0  0  0  0  0  # atno 10718 bound_to 10713
  153.9620  135.2959  155.3433 H   0  0  0  0  0  0  0  0  0  0  0  0  # atno 10763 bound_to 10752
  154.7370  135.5042  153.9061 H   0  0  0  0  0  0  0  0  0  0  0  0  # atno 10764 bound_to 10752
  153.0942  135.6716  153.9906 H   0  0  0  0  0  0  0  0  0  0  0  0  # atno 10765 bound_to 10752
  140.9077  133.7482  156.0628 H   0  0  0  0  0  0  0  0  0  0  0  0  # atno 11005 bound_to 11000
  145.8250  140.9660  143.0879 LP  0  0  0  0  0  0  0  0  0  0  0  0  # atno 17320 bound_to 7965
  144.6785  140.0090  143.7484 LP  0  0  0  0  0  0  0  0  0  0  0  0  # atno 17321 bound_to 7965
  140.6664  143.8389  150.6947 LP  0  0  0  0  0  0  0  0  0  0  0  0  # atno 17342 bound_to 10162
  140.1799  143.4123  152.1940 LP  0  0  0  0  0  0  0  0  0  0  0  0  # atno 17343 bound_to 10162
  156.4175  130.7752  151.2768 LP  0  0  0  0  0  0  0  0  0  0  0  0  # atno 17370 bound_to 10713
  157.7508  131.0193  150.3661 LP  0  0  0  0  0  0  0  0  0  0  0  0  # atno 17371 bound_to 10713
  140.8150  134.3355  157.5400 LP  0  0  0  0  0  0  0  0  0  0  0  0  # atno 17394 bound_to 11000
  139.8752  134.9276  156.3430 LP  0  0  0  0  0  0  0  0  0  0  0  0  # atno 17395 bound_to 11000

$$$$
