AV-unprocessed.smi:1456|AV-procd|sdf|5918|dock7
  -GOLD-   22720 6 03D 1   1.00000     0.00000
 Structure written by MMmdl.
 41 42  0  0  0  0  0  0  0  0  3 V2000
  147.4379  139.1838  155.5826 C   0  0  0  0  0  0  0  0  0  0  0  0
  148.2259  138.7254  154.3352 C   0  0  0  0  0  0  0  0  0  0  0  0
  147.2581  138.8385  153.1408 C   0  0  0  0  0  0  0  0  0  0  0  0
  149.4519  139.6289  154.0416 C   0  0  0  0  0  0  0  0  0  0  0  0
  150.6902  139.3488  154.9074 C   0  0  0  0  0  0  0  0  0  0  0  0
  150.5386  139.8871  156.2567 N   0  0  0  0  0  0  0  0  0  0  0  0
  151.5012  140.0190  157.1795 C   0  0  0  0  0  0  0  0  0  0  0  0
  152.6610  139.6982  156.9122 O   0  0  0  0  0  0  0  0  0  0  0  0
  151.0514  140.5043  158.3581 N   0  5  0  0  0  0  0  0  0  0  0  0
  151.7443  141.4588  158.9997 C   0  0  0  0  0  0  0  0  0  0  0  0
  151.5224  142.7659  158.8217 N   0  0  0  0  0  0  0  0  0  0  0  0
  152.3525  143.5799  159.5949 C   0  0  0  0  0  0  0  0  0  0  0  0
  153.2201  142.8755  160.3870 C   0  0  0  0  0  0  0  0  0  0  0  0
  153.0190  141.1585  160.1848 S   0  0  0  0  0  0  0  0  0  0  0  0
  151.0252  137.8451  154.8784 C   0  0  0  0  0  0  0  0  0  0  0  0
  149.8386  136.9006  155.1961 C   0  0  0  0  0  0  0  0  0  0  0  0
  150.2214  135.4845  154.7236 C   0  0  0  0  0  0  0  0  0  0  0  0
  149.5560  136.7965  156.7116 C   0  0  0  0  0  0  0  0  0  0  0  0
  148.6185  137.2909  154.4345 N   0  3  0  0  0  0  0  0  0  0  0  0
  147.0306  140.1851  155.4375 H   0  0  0  0  0  0  0  0  0  0  0  0
  148.0343  139.2301  156.4876 H   0  0  0  0  0  0  0  0  0  0  0  0
  146.5966  138.5200  155.7849 H   0  0  0  0  0  0  0  0  0  0  0  0
  146.9334  139.8685  152.9871 H   0  0  0  0  0  0  0  0  0  0  0  0
  146.3635  138.2327  153.2921 H   0  0  0  0  0  0  0  0  0  0  0  0
  147.7234  138.5022  152.2133 H   0  0  0  0  0  0  0  0  0  0  0  0
  149.7526  139.4806  153.0030 H   0  0  0  0  0  0  0  0  0  0  0  0
  149.1737  140.6815  154.1125 H   0  0  0  0  0  0  0  0  0  0  0  0
  151.5257  139.8871  154.4557 H   0  0  0  0  0  0  0  0  0  0  0  0
  149.6104  140.1776  156.5270 H   0  0  0  0  0  0  0  0  0  0  0  0
  152.2560  144.6527  159.5189 H   0  0  0  0  0  0  0  0  0  0  0  0
  153.9598  143.2581  161.0737 H   0  0  0  0  0  0  0  0  0  0  0  0
  151.3840  137.6235  153.8720 H   0  0  0  0  0  0  0  0  0  0  0  0
  151.8687  137.6239  155.5336 H   0  0  0  0  0  0  0  0  0  0  0  0
  151.1292  135.1327  155.2153 H   0  0  0  0  0  0  0  0  0  0  0  0
  150.4020  135.4552  153.6483 H   0  0  0  0  0  0  0  0  0  0  0  0
  149.4318  134.7634  154.9398 H   0  0  0  0  0  0  0  0  0  0  0  0
  150.4060  136.3560  157.2344 H   0  0  0  0  0  0  0  0  0  0  0  0
  148.6908  136.1631  156.9107 H   0  0  0  0  0  0  0  0  0  0  0  0
  149.3738  137.7519  157.1918 H   0  0  0  0  0  0  0  0  0  0  0  0
  147.8327  136.7588  154.7796 H   0  0  0  0  0  0  0  0  0  0  0  0
  148.7943  136.9974  153.4845 H   0  0  0  0  0  0  0  0  0  0  0  0
  1  2  1  0  0  0  0
  1 20  1  0  0  0  0
  1 21  1  0  0  0  0
  1 22  1  0  0  0  0
  2 19  1  0  0  0  0
  2  3  1  0  0  0  0
  2  4  1  0  0  0  0
  3 23  1  0  0  0  0
  3 24  1  0  0  0  0
  3 25  1  0  0  0  0
  4  5  1  0  0  0  0
  4 26  1  0  0  0  0
  4 27  1  0  0  0  0
  5  6  1  0  0  0  0
  5 15  1  0  0  0  0
  5 28  1  0  0  0  0
  6  7  1  0  0  0  0
  6 29  1  0  0  0  0
  7  8  2  0  0  0  0
  7  9  1  0  0  0  0
  9 10  1  0  0  0  0
 10 14  1  0  0  0  0
 10 11  2  0  0  0  0
 11 12  1  0  0  0  0
 12 13  2  0  0  0  0
 12 30  1  0  0  0  0
 13 14  1  0  0  0  0
 13 31  1  0  0  0  0
 15 16  1  0  0  0  0
 15 32  1  0  0  0  0
 15 33  1  0  0  0  0
 16 17  1  0  0  0  0
 16 18  1  0  0  0  0
 16 19  1  0  0  0  0
 17 34  1  0  0  0  0
 17 35  1  0  0  0  0
 17 36  1  0  0  0  0
 18 37  1  0  0  0  0
 18 38  1  0  0  0  0
 18 39  1  0  0  0  0
 19 40  1  0  0  0  0
 19 41  1  0  0  0  0
M  CHG  1   9  -1
M  CHG  1  19   1
M  END
> <s_m_source_file>
AV-unprocessed.smi

> <i_m_source_file_index>
1456

> <i_lp_mmshare_version>
43012

> <i_f3d_flags>
0

> <s_epik_input>
W0NIM11DMShbQ0gzXSlbQ0gyXVtDSF0oW0NIMl1DKFtDSDNdKShbQ0gzXSlbTkhdMSlbTkhdQyg9TylbTkhdYzJuW2NIXVtjSF1zMg==

> <s_epik_cmdline>
J2VwaWtfcHl0aG9uJywgJy1waCcsICc3LjAnLCAnLXRuJywgJzgnLCAnLW1hJywgJzIwMCcsICctbWV0YWxfYmluZGluZycsICctaW1hZScsICc8aW5maWxlLm1hZT4nLCAnLW9tYWUnLCAnPG91dGZpbGUubWFlPic=

> <r_lp_tautomer_probability>
1

> <r_epik_Ionization_Penalty>
7.98581

> <r_epik_Ionization_Penalty_Charging>
6.48842

> <r_epik_Ionization_Penalty_Neutral>
1.49739

> <r_epik_State_Penalty>
6.48831

> <r_epik_Charging_Adjusted_Penalty>
12.9767

> <i_epik_Tot_Q>
0

> <i_epik_Tot_abs_Q>
2

> <r_epik_Metal_State_Penalty>
2.41622

> <b_epik_Metal_Only>
1

> <s_lp_Force_Field>
OPLS_2005

> <r_lp_Energy>
15.6093

> <b_lp_Chiralities_Consistent>
1

> <s_lp_Variant>
AV-unprocessed.smi:1456-2

> <Gold.Version>
5.8.1

> <Gold.Id.Protein>
6NUR|6NUR_protein|mol2

> <Gold.PLP.Fitness>
36.4084

> <Gold.PLP.PLP>
-29.8061

> <Gold.PLP.part.hbond>
-2.0000

> <Gold.PLP.part.metal>
0.0000

> <Gold.PLP.part.buried>
-1.9038

> <Gold.PLP.part.nonpolar>
-26.4310

> <Gold.PLP.part.repulsive>
0.0881

> <Gold.PLP.ligand.clash>
0.0000

> <Gold.PLP.ligand.torsion>
1.2060

> <Gold.PLP.Chemscore.Hbond>
3.0000

> <Gold.PLP.Chemscore.CHOScore>
0.0000

> <Gold.PLP.Chemscore.Metal>
0.0000

> <Gold.Chemscore.Hbonds>
donor molecule, donor type, donor heavy atom, donor atom, acceptor molecule, acceptor atom, score
      L1  H    19    41       P1  7948  2.00
      P1  H  7997  8009       L1     8  1.00

> <Gold.PLP.Chemscore.Internal.Correction>
0.0142

> <Gold.Rescore>
     Score         DG    S(hbond)    S(metal)    S(lipo)     H(rot)  DE(clash)    DE(int)     intcor
     17.39     -18.72       2.00        0.00      78.08       1.00       0.19       1.14       ----

> <Gold.Chemscore.Fitness>
17.3918

> <Gold.Chemscore.DG>
-18.7208

> <Gold.Chemscore.ZeroCoef>
-5.4800

> <Gold.Chemscore.Hbond>
1.9955

> <Gold.Chemscore.Metal>
0.0000

> <Gold.Chemscore.Lipo>
78.0844

> <Gold.Chemscore.Internal_Hbond>
0.0000

> <Gold.Chemscore.DEClash>
0.1938

> <Gold.Chemscore.DEInternal>
1.1351

> <Gold.Chemscore.Rot>
1.0000

> <Gold.Chemscore.Internal.Correction>
   9.000000E+99

> <Gold.Chemscore.Hbonds>
donor molecule, donor type, donor heavy atom, donor atom, acceptor molecule, acceptor atom, score
      L1  H    19    41       P1  7948  1.00
      P1  H  7997  8009       L1     8  0.99

> <Gold.Chemscore.Hbond.Weighted>
-6.6649

> <Gold.Chemscore.Metal.Weighted>
-0.0000

> <Gold.Chemscore.Lipo.Weighted>
-9.1359

> <Gold.Chemscore.Internal_Hbond.Weighted>
0.0000

> <Gold.Chemscore.DEClash.Weighted>
0.1938

> <Gold.Chemscore.DEInternal.Weighted>
1.1351

> <Gold.Chemscore.Rot.Weighted>
2.5600

> <Gold.Chemscore.Internal.Correction.Weighted>
   9.000000E+99

> <Gold.Protein.RotatedTorsions>
[ 6907 6896 6895 6894 ] final  -37.31 input  -60.11 | X-H torsion
[ 7974 7965 7964 7962 ] final   94.41 input  175.53 | X-H torsion
[ 8008 7997 7996 7995 ] final -164.20 input   59.86 | X-H torsion
[ 10167 10162 10161 10158 ] final  132.72 input  -65.29 | X-H torsion
[ 10718 10713 10712 10709 ] final -118.23 input   66.30 | X-H torsion
[ 10763 10752 10751 10750 ] final -149.81 input  -60.55 | X-H torsion
[ 11005 11000 10999 10996 ] final -135.70 input  -57.11 | X-H torsion

> <Gold.Protein.ActiveResidues>
 VAL166  LYS551  ARG553  GLY616  TRP617  ASP618  TYR619  PRO620  LYS621  CYS622 
 ASP623  PHE694  ASN695  SER759  ASP760  ASP761  ALA762  ILE779  LEU786  VAL792 
 PHE793  MET794  SER795  GLU796  ALA797  LYS798  CYS799  TRP800  GLU811  SER814 

> <Gold.Protein.RotatedAtoms>
  151.0163  134.9435  159.8034 H   0  0  0  0  0  0  0  0  0  0  0  0  # atno 6907 bound_to 6896
  152.5314  134.2962  159.9071 H   0  0  0  0  0  0  0  0  0  0  0  0  # atno 6908 bound_to 6896
  151.2969  133.4098  159.2671 H   0  0  0  0  0  0  0  0  0  0  0  0  # atno 6909 bound_to 6896
  145.4660  139.2284  143.2961 H   0  0  0  0  0  0  0  0  0  0  0  0  # atno 7974 bound_to 7965
  155.8322  140.0935  157.1785 H   0  0  0  0  0  0  0  0  0  0  0  0  # atno 8008 bound_to 7997
  154.3980  140.1417  156.3689 H   0  0  0  0  0  0  0  0  0  0  0  0  # atno 8009 bound_to 7997
  155.8153  140.3448  155.5484 H   0  0  0  0  0  0  0  0  0  0  0  0  # atno 8010 bound_to 7997
  139.5327  144.6649  151.4892 H   0  0  0  0  0  0  0  0  0  0  0  0  # atno 10167 bound_to 10162
  156.1091  130.6234  150.9265 H   0  0  0  0  0  0  0  0  0  0  0  0  # atno 10718 bound_to 10713
  154.8156  135.3300  154.7186 H   0  0  0  0  0  0  0  0  0  0  0  0  # atno 10763 bound_to 10752
  153.7827  135.6917  153.4890 H   0  0  0  0  0  0  0  0  0  0  0  0  # atno 10764 bound_to 10752
  153.1969  135.4530  155.0166 H   0  0  0  0  0  0  0  0  0  0  0  0  # atno 10765 bound_to 10752
  140.8874  134.1855  157.4551 H   0  0  0  0  0  0  0  0  0  0  0  0  # atno 11005 bound_to 11000
  146.2424  140.5433  142.8928 LP  0  0  0  0  0  0  0  0  0  0  0  0  # atno 17320 bound_to 7965
  144.7974  140.6149  143.6501 LP  0  0  0  0  0  0  0  0  0  0  0  0  # atno 17321 bound_to 7965
  140.6516  143.8685  150.6791 LP  0  0  0  0  0  0  0  0  0  0  0  0  # atno 17342 bound_to 10162
  140.2051  143.3928  152.1761 LP  0  0  0  0  0  0  0  0  0  0  0  0  # atno 17343 bound_to 10162
  157.6271  131.0924  150.8513 LP  0  0  0  0  0  0  0  0  0  0  0  0  # atno 17370 bound_to 10713
  156.8627  130.5118  149.5302 LP  0  0  0  0  0  0  0  0  0  0  0  0  # atno 17371 bound_to 10713
  139.8726  134.9844  156.5236 LP  0  0  0  0  0  0  0  0  0  0  0  0  # atno 17394 bound_to 11000
  140.8388  133.8221  155.9055 LP  0  0  0  0  0  0  0  0  0  0  0  0  # atno 17395 bound_to 11000

$$$$
