AV-unprocessed.smi:605|AV-procd|sdf|3039|dock1
  -GOLD-   2262023553D 1   1.00000     0.00000
 Structure written by MMmdl.
 35 36  0  0  0  0  0  0  0  0  1 V2000
  151.8484  130.5938  156.8335 C   0  0  0  0  0  0  0  0  0  0  0  0
  150.9175  130.2842  155.6519 C   0  0  0  0  0  0  0  0  0  0  0  0
  151.5943  129.4539  154.5518 C   0  0  0  0  0  0  0  0  0  0  0  0
  150.2662  131.5175  155.1074 C   0  0  0  0  0  0  0  0  0  0  0  0
  150.5002  132.7425  155.5964 N   0  0  0  0  0  0  0  0  0  0  0  0
  149.7855  133.7237  154.9257 N   0  0  0  0  0  0  0  0  0  0  0  0
  149.0230  133.2127  153.9487 C   0  0  0  0  0  0  0  0  0  0  0  0
  148.1936  133.9831  153.0821 N   0  0  0  0  0  0  0  0  0  0  0  0
  146.9314  133.7900  152.6426 C   0  0  0  0  0  0  0  0  0  0  0  0
  146.2827  132.8084  153.0006 O   0  0  0  0  0  0  0  0  0  0  0  0
  146.4397  134.7294  151.8180 N   0  0  0  0  0  0  0  0  0  0  0  0
  145.1074  134.7442  151.2192 C   0  0  0  0  0  0  0  0  0  0  0  0
  144.0181  134.7523  152.3103 C   0  0  0  0  0  0  0  0  0  0  0  0
  143.0785  133.5883  151.9861 C   0  0  0  0  0  0  0  0  0  0  0  0
  143.9533  132.5882  151.2369 C   0  0  0  0  0  0  0  0  0  0  0  0
  144.8780  133.4655  150.3943 C   0  0  0  0  0  0  0  0  0  0  0  0
  149.1367  131.4712  153.7581 S   0  0  0  0  0  0  0  0  0  0  0  0
  151.3108  131.1030  157.6338 H   0  0  0  0  0  0  0  0  0  0  0  0
  152.6774  131.2337  156.5289 H   0  0  0  0  0  0  0  0  0  0  0  0
  152.2722  129.6797  157.2500 H   0  0  0  0  0  0  0  0  0  0  0  0
  150.1141  129.6641  156.0516 H   0  0  0  0  0  0  0  0  0  0  0  0
  150.8814  129.1792  153.7737 H   0  0  0  0  0  0  0  0  0  0  0  0
  152.0119  128.5319  154.9571 H   0  0  0  0  0  0  0  0  0  0  0  0
  152.4067  130.0072  154.0796 H   0  0  0  0  0  0  0  0  0  0  0  0
  148.6230  134.8335  152.7478 H   0  0  0  0  0  0  0  0  0  0  0  0
  147.0461  135.5017  151.5805 H   0  0  0  0  0  0  0  0  0  0  0  0
  144.9808  135.6101  150.5672 H   0  0  0  0  0  0  0  0  0  0  0  0
  144.4569  134.5937  153.2970 H   0  0  0  0  0  0  0  0  0  0  0  0
  143.4841  135.7024  152.3474 H   0  0  0  0  0  0  0  0  0  0  0  0
  142.6187  133.1595  152.8771 H   0  0  0  0  0  0  0  0  0  0  0  0
  142.2773  133.9343  151.3319 H   0  0  0  0  0  0  0  0  0  0  0  0
  144.5430  132.0087  151.9486 H   0  0  0  0  0  0  0  0  0  0  0  0
  143.3729  131.8889  150.6346 H   0  0  0  0  0  0  0  0  0  0  0  0
  144.3725  133.7254  149.4632 H   0  0  0  0  0  0  0  0  0  0  0  0
  145.8016  132.9524  150.1229 H   0  0  0  0  0  0  0  0  0  0  0  0
  1  2  1  0  0  0  0
  1 18  1  0  0  0  0
  1 19  1  0  0  0  0
  1 20  1  0  0  0  0
  2  3  1  0  0  0  0
  2  4  1  0  0  0  0
  2 21  1  0  0  0  0
  3 22  1  0  0  0  0
  3 23  1  0  0  0  0
  3 24  1  0  0  0  0
  4 17  1  0  0  0  0
  4  5  2  0  0  0  0
  5  6  1  0  0  0  0
  6  7  2  0  0  0  0
  7  8  1  0  0  0  0
  7 17  1  0  0  0  0
  8  9  1  0  0  0  0
  8 25  1  0  0  0  0
  9 10  2  0  0  0  0
  9 11  1  0  0  0  0
 11 12  1  0  0  0  0
 11 26  1  0  0  0  0
 12 16  1  0  0  0  0
 12 13  1  0  0  0  0
 12 27  1  0  0  0  0
 13 14  1  0  0  0  0
 13 28  1  0  0  0  0
 13 29  1  0  0  0  0
 14 15  1  0  0  0  0
 14 30  1  0  0  0  0
 14 31  1  0  0  0  0
 15 16  1  0  0  0  0
 15 32  1  0  0  0  0
 15 33  1  0  0  0  0
 16 34  1  0  0  0  0
 16 35  1  0  0  0  0
M  END
> <s_m_source_file>
AV-unprocessed.smi

> <i_m_source_file_index>
605

> <i_lp_mmshare_version>
43012

> <i_f3d_flags>
0

> <s_epik_input>
W0NIM11bQ0hdKFtDSDNdKWMxbm5jKHMxKVtOSF1DKD1PKVtOSF1bQ0hdMltDSDJdW0NIMl1bQ0gyXVtDSDJdMg==

> <s_epik_cmdline>
J2VwaWtfcHl0aG9uJywgJy1waCcsICc3LjAnLCAnLXRuJywgJzgnLCAnLW1hJywgJzIwMCcsICctbWV0YWxfYmluZGluZycsICctaW1hZScsICc8aW5maWxlLm1hZT4nLCAnLW9tYWUnLCAnPG91dGZpbGUubWFlPic=

> <r_lp_tautomer_probability>
1

> <r_epik_Ionization_Penalty>
0.000375049

> <r_epik_Ionization_Penalty_Charging>
0

> <r_epik_Ionization_Penalty_Neutral>
0.000375049

> <r_epik_State_Penalty>
-0

> <r_epik_Charging_Adjusted_Penalty>
0

> <i_epik_Tot_Q>
0

> <i_epik_Tot_abs_Q>
0

> <r_epik_Metal_State_Penalty>
0.186879

> <b_epik_Metal_Only>
0

> <s_lp_Force_Field>
OPLS_2005

> <r_lp_Energy>
14.8416

> <b_lp_Chiralities_Consistent>
1

> <s_lp_Variant>
AV-unprocessed.smi:605-1

> <Gold.Version>
5.8.1

> <Gold.Id.Protein>
6NUR|6NUR_protein|mol2

> <Gold.PLP.Fitness>
32.8483

> <Gold.PLP.PLP>
-28.0313

> <Gold.PLP.part.hbond>
-2.0000

> <Gold.PLP.part.metal>
0.0000

> <Gold.PLP.part.buried>
-3.3952

> <Gold.PLP.part.nonpolar>
-23.4375

> <Gold.PLP.part.repulsive>
0.2405

> <Gold.PLP.ligand.clash>
0.0000

> <Gold.PLP.ligand.torsion>
0.4289

> <Gold.PLP.Chemscore.Hbond>
1.8640

> <Gold.PLP.Chemscore.CHOScore>
0.0000

> <Gold.PLP.Chemscore.Metal>
0.0000

> <Gold.Chemscore.Hbonds>
donor molecule, donor type, donor heavy atom, donor atom, acceptor molecule, acceptor atom, score
      L1  H     8    25       P1  7948  0.95
      L1  H    11    26       P1  7948  0.85

> <Gold.PLP.Chemscore.Internal.Correction>
0.0827

> <Gold.Rescore>
     Score         DG    S(hbond)    S(metal)    S(lipo)     H(rot)  DE(clash)    DE(int)     intcor
     11.33     -14.12       1.53        0.00      56.38       1.20       0.02       2.77       ----

> <Gold.Chemscore.Fitness>
11.3281

> <Gold.Chemscore.DG>
-14.1159

> <Gold.Chemscore.ZeroCoef>
-5.4800

> <Gold.Chemscore.Hbond>
1.5282

> <Gold.Chemscore.Metal>
0.0000

> <Gold.Chemscore.Lipo>
56.3803

> <Gold.Chemscore.Internal_Hbond>
0.0000

> <Gold.Chemscore.DEClash>
0.0163

> <Gold.Chemscore.DEInternal>
2.7715

> <Gold.Chemscore.Rot>
1.1971

> <Gold.Chemscore.Internal.Correction>
   9.000000E+99

> <Gold.Chemscore.Hbonds>
donor molecule, donor type, donor heavy atom, donor atom, acceptor molecule, acceptor atom, score
      L1  H     8    25       P1  7948  0.21
      L1  H    11    26       P1  7948  0.80

> <Gold.Chemscore.Hbond.Weighted>
-5.1040

> <Gold.Chemscore.Metal.Weighted>
-0.0000

> <Gold.Chemscore.Lipo.Weighted>
-6.5965

> <Gold.Chemscore.Internal_Hbond.Weighted>
0.0000

> <Gold.Chemscore.DEClash.Weighted>
0.0163

> <Gold.Chemscore.DEInternal.Weighted>
2.7715

> <Gold.Chemscore.Rot.Weighted>
3.0647

> <Gold.Chemscore.Internal.Correction.Weighted>
   9.000000E+99

> <Gold.Protein.RotatedTorsions>
[ 6907 6896 6895 6894 ] final -142.80 input  -60.11 | X-H torsion
[ 7974 7965 7964 7962 ] final  -17.39 input  175.53 | X-H torsion
[ 8008 7997 7996 7995 ] final -132.12 input   59.86 | X-H torsion
[ 10167 10162 10161 10158 ] final  -51.65 input  -65.29 | X-H torsion
[ 10718 10713 10712 10709 ] final  158.64 input   66.30 | X-H torsion
[ 10763 10752 10751 10750 ] final  -67.95 input  -60.55 | X-H torsion
[ 11005 11000 10999 10996 ] final  -83.89 input  -57.11 | X-H torsion

> <Gold.Protein.ActiveResidues>
 VAL166  LYS551  ARG553  GLY616  TRP617  ASP618  TYR619  PRO620  LYS621  CYS622 
 ASP623  PHE694  ASN695  SER759  ASP760  ASP761  ALA762  ILE779  LEU786  VAL792 
 PHE793  MET794  SER795  GLU796  ALA797  LYS798  CYS799  TRP800  GLU811  SER814 

> <Gold.Protein.RotatedAtoms>
  151.0919  133.5309  159.2614 H   0  0  0  0  0  0  0  0  0  0  0  0  # atno 6907 bound_to 6896
  151.2173  135.0504  159.8945 H   0  0  0  0  0  0  0  0  0  0  0  0  # atno 6908 bound_to 6896
  152.5435  134.0727  159.8254 H   0  0  0  0  0  0  0  0  0  0  0  0  # atno 6909 bound_to 6896
  146.1943  140.3772  142.8446 H   0  0  0  0  0  0  0  0  0  0  0  0  # atno 7974 bound_to 7965
  155.3236  140.0463  157.3040 H   0  0  0  0  0  0  0  0  0  0  0  0  # atno 8008 bound_to 7997
  154.5367  140.2274  155.8677 H   0  0  0  0  0  0  0  0  0  0  0  0  # atno 8009 bound_to 7997
  156.1841  140.3067  155.9211 H   0  0  0  0  0  0  0  0  0  0  0  0  # atno 8010 bound_to 7997
  140.6577  143.2612  151.4535 H   0  0  0  0  0  0  0  0  0  0  0  0  # atno 10167 bound_to 10162
  157.1751  131.0619  151.2162 H   0  0  0  0  0  0  0  0  0  0  0  0  # atno 10718 bound_to 10713
  154.3820  135.6072  153.5796 H   0  0  0  0  0  0  0  0  0  0  0  0  # atno 10763 bound_to 10752
  152.9788  135.5863  154.4399 H   0  0  0  0  0  0  0  0  0  0  0  0  # atno 10764 bound_to 10752
  154.4170  135.2845  155.1978 H   0  0  0  0  0  0  0  0  0  0  0  0  # atno 10765 bound_to 10752
  141.1654  133.7317  156.8786 H   0  0  0  0  0  0  0  0  0  0  0  0  # atno 11005 bound_to 11000
  144.8549  140.7055  143.6145 LP  0  0  0  0  0  0  0  0  0  0  0  0  # atno 17320 bound_to 7965
  145.3694  139.1662  143.4340 LP  0  0  0  0  0  0  0  0  0  0  0  0  # atno 17321 bound_to 7965
  139.5804  144.1724  152.1960 LP  0  0  0  0  0  0  0  0  0  0  0  0  # atno 17342 bound_to 10162
  140.1047  144.5509  150.6965 LP  0  0  0  0  0  0  0  0  0  0  0  0  # atno 17343 bound_to 10162
  157.4006  130.7331  149.6764 LP  0  0  0  0  0  0  0  0  0  0  0  0  # atno 17370 bound_to 10713
  155.9732  130.4122  150.4019 LP  0  0  0  0  0  0  0  0  0  0  0  0  # atno 17371 bound_to 10713
  140.1730  134.9086  157.2857 LP  0  0  0  0  0  0  0  0  0  0  0  0  # atno 17394 bound_to 11000
  140.2480  134.3717  155.7453 LP  0  0  0  0  0  0  0  0  0  0  0  0  # atno 17395 bound_to 11000

$$$$
