AV-unprocessed.smi:2078|AV-procd|sdf|8471|dock3
  -GOLD-   2272011173D 1   1.00000     0.00000
 Structure written by MMmdl.
 41 42  0  0  0  0  0  0  0  0  3 V2000
  149.2703  133.6081  156.8292 C   0  0  0  0  0  0  0  0  0  0  0  0
  150.0221  134.8425  156.4662 C   0  0  0  0  0  0  0  0  0  0  0  0
  149.6269  136.0928  156.0819 C   0  0  0  0  0  0  0  0  0  0  0  0
  150.8582  136.7747  155.8915 C   0  0  0  0  0  0  0  0  0  0  0  0
  150.8756  138.1340  155.4812 N   0  0  0  0  0  0  0  0  0  0  0  0
  151.8590  139.0430  155.6129 C   0  0  0  0  0  0  0  0  0  0  0  0
  152.9306  138.7311  156.1461 O   0  0  0  0  0  0  0  0  0  0  0  0
  151.5081  140.2561  155.1044 N   0  5  0  0  0  0  0  0  0  0  0  0
  150.8868  141.3294  155.8757 C   0  0  0  0  0  0  0  0  0  0  0  0
  151.0869  141.0667  157.3805 C   0  0  0  0  0  0  0  0  0  0  0  0
  151.8332  142.1686  158.0452 N   0  3  1  0  0  0  0  0  0  0  0  0
  151.4446  143.5107  157.5385 C   0  0  0  0  0  0  0  0  0  0  0  0
  152.3448  144.6076  158.1297 C   0  0  0  0  0  0  0  0  0  0  0  0
  152.3228  144.5732  159.6634 C   0  0  0  0  0  0  0  0  0  0  0  0
  152.6983  143.1709  160.1712 C   0  0  1  0  0  0  0  0  0  0  0  0
  152.6619  143.0990  161.7042 C   0  0  0  0  0  0  0  0  0  0  0  0
  151.7769  142.1122  159.5337 C   0  0  0  0  0  0  0  0  0  0  0  0
  151.9103  136.0084  156.1391 N   0  0  0  0  0  0  0  0  0  0  0  0
  151.3798  134.7667  156.5083 O   0  0  0  0  0  0  0  0  0  0  0  0
  148.1952  133.7701  156.7513 H   0  0  0  0  0  0  0  0  0  0  0  0
  149.4940  133.3070  157.8526 H   0  0  0  0  0  0  0  0  0  0  0  0
  149.5373  132.7846  156.1668 H   0  0  0  0  0  0  0  0  0  0  0  0
  148.6189  136.4590  155.9569 H   0  0  0  0  0  0  0  0  0  0  0  0
  150.0357  138.4623  155.0285 H   0  0  0  0  0  0  0  0  0  0  0  0
  151.3095  142.3042  155.6293 H   0  0  0  0  0  0  0  0  0  0  0  0
  149.8185  141.4068  155.6700 H   0  0  0  0  0  0  0  0  0  0  0  0
  150.1005  140.9621  157.8357 H   0  0  0  0  0  0  0  0  0  0  0  0
  151.5966  140.1164  157.5487 H   0  0  0  0  0  0  0  0  0  0  0  0
  151.5269  143.5330  156.4510 H   0  0  0  0  0  0  0  0  0  0  0  0
  150.3991  143.7049  157.7834 H   0  0  0  0  0  0  0  0  0  0  0  0
  153.3672  144.4727  157.7743 H   0  0  0  0  0  0  0  0  0  0  0  0
  152.0208  145.5865  157.7750 H   0  0  0  0  0  0  0  0  0  0  0  0
  153.0131  145.3180  160.0610 H   0  0  0  0  0  0  0  0  0  0  0  0
  151.3291  144.8458  160.0215 H   0  0  0  0  0  0  0  0  0  0  0  0
  153.7219  142.9590  159.8574 H   0  0  0  0  0  0  0  0  0  0  0  0
  151.6634  143.3089  162.0883 H   0  0  0  0  0  0  0  0  0  0  0  0
  153.3480  143.8213  162.1474 H   0  0  0  0  0  0  0  0  0  0  0  0
  152.9527  142.1095  162.0582 H   0  0  0  0  0  0  0  0  0  0  0  0
  150.7468  142.2598  159.8631 H   0  0  0  0  0  0  0  0  0  0  0  0
  152.0764  141.1225  159.8802 H   0  0  0  0  0  0  0  0  0  0  0  0
  152.7996  142.0399  157.7815 H   0  0  0  0  0  0  0  0  0  0  0  0
  1  2  1  0  0  0  0
  1 20  1  0  0  0  0
  1 21  1  0  0  0  0
  1 22  1  0  0  0  0
  2 19  1  0  0  0  0
  2  3  2  0  0  0  0
  3  4  1  0  0  0  0
  3 23  1  0  0  0  0
  4  5  1  0  0  0  0
  4 18  2  0  0  0  0
  5  6  1  0  0  0  0
  5 24  1  0  0  0  0
  6  7  2  0  0  0  0
  6  8  1  0  0  0  0
  8  9  1  0  0  0  0
  9 10  1  0  0  0  0
  9 25  1  0  0  0  0
  9 26  1  0  0  0  0
 10 11  1  0  0  0  0
 10 27  1  0  0  0  0
 10 28  1  0  0  0  0
 11 17  1  0  0  0  0
 11 12  1  0  0  0  0
 11 41  1  0  0  0  0
 12 13  1  0  0  0  0
 12 29  1  0  0  0  0
 12 30  1  0  0  0  0
 13 14  1  0  0  0  0
 13 31  1  0  0  0  0
 13 32  1  0  0  0  0
 14 15  1  0  0  0  0
 14 33  1  0  0  0  0
 14 34  1  0  0  0  0
 15 16  1  0  0  0  0
 15 17  1  0  0  0  0
 15 35  1  0  0  0  0
 16 36  1  0  0  0  0
 16 37  1  0  0  0  0
 16 38  1  0  0  0  0
 17 39  1  0  0  0  0
 17 40  1  0  0  0  0
 18 19  1  0  0  0  0
M  CHG  1   8  -1
M  CHG  1  11   1
M  END
> <s_m_source_file>
AV-unprocessed.smi

> <i_m_source_file_index>
2078

> <i_lp_mmshare_version>
43012

> <i_f3d_flags>
0

> <s_epik_input>
W0NIM11jMVtjSF1jKG5vMSlbTkhdQyg9TylbTkhdW0NIMl1bQ0gyXU4yW0NIMl1bQ0gyXVtDSDJdW0NAQEhdKFtDSDNdKVtDSDJdMg==

> <s_epik_cmdline>
J2VwaWtfcHl0aG9uJywgJy1waCcsICc3LjAnLCAnLXRuJywgJzgnLCAnLW1hJywgJzIwMCcsICctbWV0YWxfYmluZGluZycsICctaW1hZScsICc8aW5maWxlLm1hZT4nLCAnLW9tYWUnLCAnPG91dGZpbGUubWFlPic=

> <r_epik_Ionization_Penalty>
6.76934

> <r_epik_Ionization_Penalty_Charging>
6.76934

> <r_epik_Ionization_Penalty_Neutral>
5.77849e-06

> <r_epik_State_Penalty>
6.79457

> <r_epik_Charging_Adjusted_Penalty>
13.5639

> <i_epik_Tot_Q>
0

> <i_epik_Tot_abs_Q>
2

> <r_epik_Metal_State_Penalty>
2.72837

> <b_epik_Metal_Only>
1

> <s_lp_Force_Field>
OPLS_2005

> <r_lp_Energy>
13.3019

> <b_lp_Chiralities_Consistent>
1

> <s_lp_Variant>
AV-unprocessed.smi:2078-9

> <Gold.Version>
5.8.1

> <Gold.Id.Protein>
6NUR|6NUR_protein|mol2

> <Gold.PLP.Fitness>
44.4636

> <Gold.PLP.PLP>
-39.3190

> <Gold.PLP.part.hbond>
-3.9451

> <Gold.PLP.part.metal>
0.0000

> <Gold.PLP.part.buried>
-4.3230

> <Gold.PLP.part.nonpolar>
-31.2929

> <Gold.PLP.part.repulsive>
0.2015

> <Gold.PLP.ligand.clash>
0.0000

> <Gold.PLP.ligand.torsion>
1.4864

> <Gold.PLP.Chemscore.Hbond>
2.6920

> <Gold.PLP.Chemscore.CHOScore>
0.0000

> <Gold.PLP.Chemscore.Metal>
0.0000

> <Gold.Chemscore.Hbonds>
donor molecule, donor type, donor heavy atom, donor atom, acceptor molecule, acceptor atom, score
      P1  H  7989  7998       L1     8  0.99
      P1  H  7997  8009       L1     7  1.00
      P1  H 10752 10763       L1    18  0.98

> <Gold.PLP.Chemscore.Internal.Correction>
0.0415

> <Gold.Rescore>
     Score         DG    S(hbond)    S(metal)    S(lipo)     H(rot)  DE(clash)    DE(int)     intcor
     17.41     -20.29       2.32        0.00      94.18       1.54       0.09       2.79       ----

> <Gold.Chemscore.Fitness>
17.4062

> <Gold.Chemscore.DG>
-20.2915

> <Gold.Chemscore.ZeroCoef>
-5.4800

> <Gold.Chemscore.Hbond>
2.3166

> <Gold.Chemscore.Metal>
0.0000

> <Gold.Chemscore.Lipo>
94.1755

> <Gold.Chemscore.Internal_Hbond>
0.0000

> <Gold.Chemscore.DEClash>
0.0943

> <Gold.Chemscore.DEInternal>
2.7910

> <Gold.Chemscore.Rot>
1.5409

> <Gold.Chemscore.Internal.Correction>
   9.000000E+99

> <Gold.Chemscore.Hbonds>
donor molecule, donor type, donor heavy atom, donor atom, acceptor molecule, acceptor atom, score
      P1  H  7989  7998       L1     8  0.47
      P1  H  7997  8009       L1     7  0.85
      P1  H 10752 10763       L1    18  0.31

> <Gold.Chemscore.Hbond.Weighted>
-7.7376

> <Gold.Chemscore.Metal.Weighted>
-0.0000

> <Gold.Chemscore.Lipo.Weighted>
-11.0185

> <Gold.Chemscore.Internal_Hbond.Weighted>
0.0000

> <Gold.Chemscore.DEClash.Weighted>
0.0943

> <Gold.Chemscore.DEInternal.Weighted>
2.7910

> <Gold.Chemscore.Rot.Weighted>
3.9446

> <Gold.Chemscore.Internal.Correction.Weighted>
   9.000000E+99

> <Gold.Protein.RotatedTorsions>
[ 6907 6896 6895 6894 ] final   -6.72 input  -60.11 | X-H torsion
[ 7974 7965 7964 7962 ] final   73.36 input  175.53 | X-H torsion
[ 8008 7997 7996 7995 ] final -150.45 input   59.86 | X-H torsion
[ 10167 10162 10161 10158 ] final -112.45 input  -65.29 | X-H torsion
[ 10718 10713 10712 10709 ] final -143.06 input   66.30 | X-H torsion
[ 10763 10752 10751 10750 ] final   66.20 input  -60.55 | X-H torsion
[ 11005 11000 10999 10996 ] final  -60.16 input  -57.11 | X-H torsion

> <Gold.Protein.ActiveResidues>
 VAL166  LYS551  ARG553  GLY616  TRP617  ASP618  TYR619  PRO620  LYS621  CYS622 
 ASP623  PHE694  ASN695  SER759  ASP760  ASP761  ALA762  ILE779  LEU786  VAL792 
 PHE793  MET794  SER795  GLU796  ALA797  LYS798  CYS799  TRP800  GLU811  SER814 

> <Gold.Protein.RotatedAtoms>
  151.4610  135.1038  159.9724 H   0  0  0  0  0  0  0  0  0  0  0  0  # atno 6907 bound_to 6896
  152.4853  133.8352  159.7134 H   0  0  0  0  0  0  0  0  0  0  0  0  # atno 6908 bound_to 6896
  150.8957  133.7124  159.2919 H   0  0  0  0  0  0  0  0  0  0  0  0  # atno 6909 bound_to 6896
  145.7418  139.2724  143.1482 H   0  0  0  0  0  0  0  0  0  0  0  0  # atno 7974 bound_to 7965
  155.6238  140.0684  157.2670 H   0  0  0  0  0  0  0  0  0  0  0  0  # atno 8008 bound_to 7997
  154.4223  140.1780  156.1448 H   0  0  0  0  0  0  0  0  0  0  0  0  # atno 8009 bound_to 7997
  155.9988  140.3338  155.6828 H   0  0  0  0  0  0  0  0  0  0  0  0  # atno 8010 bound_to 7997
  140.1225  143.4430  152.1681 H   0  0  0  0  0  0  0  0  0  0  0  0  # atno 10167 bound_to 10162
  156.3534  130.7700  151.1856 H   0  0  0  0  0  0  0  0  0  0  0  0  # atno 10718 bound_to 10713
  153.0129  135.5329  154.6787 H   0  0  0  0  0  0  0  0  0  0  0  0  # atno 10763 bound_to 10752
  154.5952  135.2863  155.0596 H   0  0  0  0  0  0  0  0  0  0  0  0  # atno 10764 bound_to 10752
  154.1673  135.6538  153.5053 H   0  0  0  0  0  0  0  0  0  0  0  0  # atno 10765 bound_to 10752
  141.1276  133.6620  156.5181 H   0  0  0  0  0  0  0  0  0  0  0  0  # atno 11005 bound_to 11000
  146.0440  140.8136  142.9814 LP  0  0  0  0  0  0  0  0  0  0  0  0  # atno 17320 bound_to 7965
  144.6869  140.2953  143.7271 LP  0  0  0  0  0  0  0  0  0  0  0  0  # atno 17321 bound_to 7965
  139.5561  144.7373  151.4290 LP  0  0  0  0  0  0  0  0  0  0  0  0  # atno 17342 bound_to 10162
  140.6863  143.7965  150.7191 LP  0  0  0  0  0  0  0  0  0  0  0  0  # atno 17343 bound_to 10162
  157.7464  131.0421  150.4678 LP  0  0  0  0  0  0  0  0  0  0  0  0  # atno 17370 bound_to 10713
  156.4876  130.4088  149.6425 LP  0  0  0  0  0  0  0  0  0  0  0  0  # atno 17371 bound_to 10713
  140.4314  134.7098  157.4944 LP  0  0  0  0  0  0  0  0  0  0  0  0  # atno 17394 bound_to 11000
  140.0291  134.6433  155.9131 LP  0  0  0  0  0  0  0  0  0  0  0  0  # atno 17395 bound_to 11000

$$$$
