AV-unprocessed.smi:6|AV-procd|sdf|42|dock6
  -GOLD-   2262015153D 1   1.00000     0.00000
 Structure written by MMmdl.
 37 38  0  0  0  0  0  0  0  0  3 V2000
  143.4003  142.1982  155.4163 C   0  0  0  0  0  0  0  0  0  0  0  0
  144.4124  141.2509  156.0784 C   0  0  0  0  0  0  0  0  0  0  0  0
  144.5050  141.4399  157.6002 C   0  0  0  0  0  0  0  0  0  0  0  0
  145.7791  141.3200  155.4120 C   0  0  0  0  0  0  0  0  0  0  0  0
  145.8735  141.0729  154.0951 N   0  3  0  0  0  0  0  0  0  0  0  0
  147.0834  141.1270  153.4865 C   0  0  0  0  0  0  0  0  0  0  0  0
  148.2390  141.4396  154.2257 C   0  0  0  0  0  0  0  0  0  0  0  0
  148.0693  141.6911  155.5981 C   0  0  0  0  0  0  0  0  0  0  0  0
  149.1847  142.0036  156.3851 N   0  0  0  0  0  0  0  0  0  0  0  0
  150.5108  141.6179  155.9175 C   0  0  0  0  0  0  0  0  0  0  0  0
  151.4594  141.2575  157.0510 C   0  0  0  0  0  0  0  0  0  0  0  0
  151.6373  142.0577  158.1230 C   0  0  0  0  0  0  0  0  0  0  0  0
  152.5285  141.7383  159.1603 N   0  0  0  0  0  0  0  0  0  0  0  0
  152.6460  142.6680  160.2862 C   0  0  0  0  0  0  0  0  0  0  0  0
  153.2569  140.5871  159.1092 C   0  0  0  0  0  0  0  0  0  0  0  0
  154.0255  140.3292  160.0364 O   0  0  0  0  0  0  0  0  0  0  0  0
  153.1056  139.7627  158.0281 N   0  5  0  0  0  0  0  0  0  0  0  0
  152.2587  140.0278  156.9909 C   0  0  0  0  0  0  0  0  0  0  0  0
  152.1483  139.2746  156.0236 O   0  0  0  0  0  0  0  0  0  0  0  0
  146.8450  141.6236  156.1669 N   0  0  0  0  0  0  0  0  0  0  0  0
  143.3100  141.9926  154.3493 H   0  0  0  0  0  0  0  0  0  0  0  0
  143.6967  143.2414  155.5310 H   0  0  0  0  0  0  0  0  0  0  0  0
  142.4102  142.0856  155.8589 H   0  0  0  0  0  0  0  0  0  0  0  0
  144.0335  140.2399  155.9184 H   0  0  0  0  0  0  0  0  0  0  0  0
  145.1746  140.7046  158.0471 H   0  0  0  0  0  0  0  0  0  0  0  0
  143.5280  141.3245  158.0700 H   0  0  0  0  0  0  0  0  0  0  0  0
  144.8799  142.4315  157.8569 H   0  0  0  0  0  0  0  0  0  0  0  0
  147.0872  140.9179  152.4268 H   0  0  0  0  0  0  0  0  0  0  0  0
  149.2109  141.4870  153.7563 H   0  0  0  0  0  0  0  0  0  0  0  0
  149.0499  142.0151  157.3865 H   0  0  0  0  0  0  0  0  0  0  0  0
  150.4260  140.7656  155.2419 H   0  0  0  0  0  0  0  0  0  0  0  0
  150.9429  142.4390  155.3440 H   0  0  0  0  0  0  0  0  0  0  0  0
  151.1064  142.9898  158.2499 H   0  0  0  0  0  0  0  0  0  0  0  0
  153.6817  142.9849  160.4174 H   0  0  0  0  0  0  0  0  0  0  0  0
  152.3172  142.1890  161.2095 H   0  0  0  0  0  0  0  0  0  0  0  0
  152.0456  143.5682  160.1511 H   0  0  0  0  0  0  0  0  0  0  0  0
  145.0435  140.8440  153.5475 H   0  0  0  0  0  0  0  0  0  0  0  0
  1  2  1  0  0  0  0
  1 21  1  0  0  0  0
  1 22  1  0  0  0  0
  1 23  1  0  0  0  0
  2  3  1  0  0  0  0
  2  4  1  0  0  0  0
  2 24  1  0  0  0  0
  3 25  1  0  0  0  0
  3 26  1  0  0  0  0
  3 27  1  0  0  0  0
  4 20  1  0  0  0  0
  4  5  2  0  0  0  0
  5  6  1  0  0  0  0
  5 37  1  0  0  0  0
  6  7  2  0  0  0  0
  6 28  1  0  0  0  0
  7  8  1  0  0  0  0
  7 29  1  0  0  0  0
  8  9  1  0  0  0  0
  8 20  2  0  0  0  0
  9 10  1  0  0  0  0
  9 30  1  0  0  0  0
 10 11  1  0  0  0  0
 10 31  1  0  0  0  0
 10 32  1  0  0  0  0
 11 18  1  0  0  0  0
 11 12  2  0  0  0  0
 12 13  1  0  0  0  0
 12 33  1  0  0  0  0
 13 14  1  0  0  0  0
 13 15  1  0  0  0  0
 14 34  1  0  0  0  0
 14 35  1  0  0  0  0
 14 36  1  0  0  0  0
 15 16  2  0  0  0  0
 15 17  1  0  0  0  0
 17 18  1  0  0  0  0
 18 19  2  0  0  0  0
M  CHG  1   5   1
M  CHG  1  17  -1
M  END
> <s_m_source_file>
AV-unprocessed.smi

> <i_m_source_file_index>
6

> <i_lp_mmshare_version>
43012

> <i_f3d_flags>
0

> <s_epik_input>
W0NIM11bQ0hdKFtDSDNdKWMxbltjSF1bY0hdYyhuMSlbTkhdW0NIMl1jMltjSF1uKFtDSDNdKWMoPU8pW25IXWMyPU8=

> <s_epik_cmdline>
J2VwaWtfcHl0aG9uJywgJy1waCcsICc3LjAnLCAnLXRuJywgJzgnLCAnLW1hJywgJzIwMCcsICctbWV0YWxfYmluZGluZycsICctaW1hZScsICc8aW5maWxlLm1hZT4nLCAnLW9tYWUnLCAnPG91dGZpbGUubWFlPic=

> <r_lp_tautomer_probability>
0.998874

> <r_epik_Ionization_Penalty>
4.8157

> <r_epik_Ionization_Penalty_Charging>
0.866709

> <r_epik_Ionization_Penalty_Neutral>
3.94899

> <r_epik_State_Penalty>
4.49389

> <r_epik_Charging_Adjusted_Penalty>
5.3606

> <i_epik_Tot_Q>
0

> <i_epik_Tot_abs_Q>
2

> <r_epik_Metal_State_Penalty>
1.28929

> <b_epik_Metal_Only>
1

> <s_lp_Force_Field>
OPLS_2005

> <r_lp_Energy>
16.1184

> <b_lp_Chiralities_Consistent>
1

> <s_lp_Variant>
AV-unprocessed.smi:6-4

> <Gold.Version>
5.8.1

> <Gold.Id.Protein>
6NUR|6NUR_protein|mol2

> <Gold.PLP.Fitness>
40.6447

> <Gold.PLP.PLP>
-30.0252

> <Gold.PLP.part.hbond>
-3.0000

> <Gold.PLP.part.metal>
0.0000

> <Gold.PLP.part.buried>
-3.4426

> <Gold.PLP.part.nonpolar>
-22.8097

> <Gold.PLP.part.repulsive>
0.1426

> <Gold.PLP.ligand.clash>
0.0000

> <Gold.PLP.ligand.torsion>
0.4294

> <Gold.PLP.Chemscore.Hbond>
3.8000

> <Gold.PLP.Chemscore.CHOScore>
0.0000

> <Gold.PLP.Chemscore.Metal>
0.0000

> <Gold.Chemscore.Hbonds>
donor molecule, donor type, donor heavy atom, donor atom, acceptor molecule, acceptor atom, score
      L1  H     5    37       P1 10175  2.00
      P1  H  7997  8008       L1    17  1.85

> <Gold.PLP.Chemscore.Internal.Correction>
0.0784

> <Gold.Rescore>
     Score         DG    S(hbond)    S(metal)    S(lipo)     H(rot)  DE(clash)    DE(int)     intcor
     10.68     -11.09       1.04        0.00      54.25       1.65       0.03       0.38       ----

> <Gold.Chemscore.Fitness>
10.6819

> <Gold.Chemscore.DG>
-11.0921

> <Gold.Chemscore.ZeroCoef>
-5.4800

> <Gold.Chemscore.Hbond>
1.0429

> <Gold.Chemscore.Metal>
0.0000

> <Gold.Chemscore.Lipo>
54.2477

> <Gold.Chemscore.Internal_Hbond>
0.0000

> <Gold.Chemscore.DEClash>
0.0284

> <Gold.Chemscore.DEInternal>
0.3817

> <Gold.Chemscore.Rot>
1.6477

> <Gold.Chemscore.Internal.Correction>
   9.000000E+99

> <Gold.Chemscore.Hbonds>
donor molecule, donor type, donor heavy atom, donor atom, acceptor molecule, acceptor atom, score
      L1  H     5    37       P1 10175  0.85
      P1  H  7997  8008       L1    17  0.06

> <Gold.Chemscore.Hbond.Weighted>
-3.4832

> <Gold.Chemscore.Metal.Weighted>
-0.0000

> <Gold.Chemscore.Lipo.Weighted>
-6.3470

> <Gold.Chemscore.Internal_Hbond.Weighted>
0.0000

> <Gold.Chemscore.DEClash.Weighted>
0.0284

> <Gold.Chemscore.DEInternal.Weighted>
0.3817

> <Gold.Chemscore.Rot.Weighted>
4.2180

> <Gold.Chemscore.Internal.Correction.Weighted>
   9.000000E+99

> <Gold.Protein.RotatedTorsions>
[ 6907 6896 6895 6894 ] final   57.84 input  -60.11 | X-H torsion
[ 7974 7965 7964 7962 ] final   52.46 input  175.53 | X-H torsion
[ 8008 7997 7996 7995 ] final  -98.26 input   59.86 | X-H torsion
[ 10167 10162 10161 10158 ] final  -18.97 input  -65.29 | X-H torsion
[ 10718 10713 10712 10709 ] final  -64.13 input   66.30 | X-H torsion
[ 10763 10752 10751 10750 ] final  -79.56 input  -60.55 | X-H torsion
[ 11005 11000 10999 10996 ] final  -88.46 input  -57.11 | X-H torsion

> <Gold.Protein.ActiveResidues>
 VAL166  LYS551  ARG553  GLY616  TRP617  ASP618  TYR619  PRO620  LYS621  CYS622 
 ASP623  PHE694  ASN695  SER759  ASP760  ASP761  ALA762  ILE779  LEU786  VAL792 
 PHE793  MET794  SER795  GLU796  ALA797  LYS798  CYS799  TRP800  GLU811  SER814 

> <Gold.Protein.RotatedAtoms>
  152.3768  134.6651  160.0156 H   0  0  0  0  0  0  0  0  0  0  0  0  # atno 6907 bound_to 6896
  151.6926  133.3305  159.3254 H   0  0  0  0  0  0  0  0  0  0  0  0  # atno 6908 bound_to 6896
  150.7716  134.6621  159.6390 H   0  0  0  0  0  0  0  0  0  0  0  0  # atno 6909 bound_to 6896
  145.9811  139.4243  143.0131 H   0  0  0  0  0  0  0  0  0  0  0  0  # atno 7974 bound_to 7965
  154.7987  140.0456  157.1256 H   0  0  0  0  0  0  0  0  0  0  0  0  # atno 8008 bound_to 7997
  154.9504  140.3064  155.5058 H   0  0  0  0  0  0  0  0  0  0  0  0  # atno 8009 bound_to 7997
  156.2959  140.2289  156.4581 H   0  0  0  0  0  0  0  0  0  0  0  0  # atno 8010 bound_to 7997
  140.7264  143.4864  151.0049 H   0  0  0  0  0  0  0  0  0  0  0  0  # atno 10167 bound_to 10162
  156.0748  130.4229  150.1377 H   0  0  0  0  0  0  0  0  0  0  0  0  # atno 10718 bound_to 10713
  154.5402  135.5691  153.6832 H   0  0  0  0  0  0  0  0  0  0  0  0  # atno 10763 bound_to 10752
  152.9961  135.6226  154.2513 H   0  0  0  0  0  0  0  0  0  0  0  0  # atno 10764 bound_to 10752
  154.2443  135.2861  155.2821 H   0  0  0  0  0  0  0  0  0  0  0  0  # atno 10765 bound_to 10752
  141.1601  133.7571  156.9455 H   0  0  0  0  0  0  0  0  0  0  0  0  # atno 11005 bound_to 11000
  145.7768  140.9873  143.1120 LP  0  0  0  0  0  0  0  0  0  0  0  0  # atno 17320 bound_to 7965
  144.6862  139.9514  143.7478 LP  0  0  0  0  0  0  0  0  0  0  0  0  # atno 17321 bound_to 7965
  139.8566  143.7369  152.3175 LP  0  0  0  0  0  0  0  0  0  0  0  0  # atno 17342 bound_to 10162
  139.7569  144.7518  151.0421 LP  0  0  0  0  0  0  0  0  0  0  0  0  # atno 17343 bound_to 10162
  156.9420  130.9747  151.3514 LP  0  0  0  0  0  0  0  0  0  0  0  0  # atno 17370 bound_to 10713
  157.5837  130.8394  149.8559 LP  0  0  0  0  0  0  0  0  0  0  0  0  # atno 17371 bound_to 10713
  140.1292  134.9367  157.2314 LP  0  0  0  0  0  0  0  0  0  0  0  0  # atno 17394 bound_to 11000
  140.2974  134.3171  155.7299 LP  0  0  0  0  0  0  0  0  0  0  0  0  # atno 17395 bound_to 11000

$$$$
