AV-unprocessed.smi:109|AV-procd|sdf|1049|dock2
  -GOLD-   2262018 93D 1   1.00000     0.00000
 Structure written by MMmdl.
 58 61  0  0  0  0  0  0  0  0  1 V2000
  147.8161  142.3252  155.1597 O   0  0  0  0  0  0  0  0  0  0  0  0
  148.6162  141.2650  155.6365 C   0  0  0  0  0  0  0  0  0  0  0  0
  149.4036  141.7221  156.8764 C   0  0  0  0  0  0  0  0  0  0  0  0
  150.9166  141.4077  156.8032 C   0  0  2  0  0  0  0  0  0  0  0  0
  151.1330  140.0114  157.1898 N   0  0  0  0  0  0  0  0  0  0  0  0
  151.3431  139.0303  156.2836 C   0  0  0  0  0  0  0  0  0  0  0  0
  151.9414  139.2789  155.0909 N   0  0  0  0  0  0  0  0  0  0  0  0
  152.1386  138.2836  154.2233 C   0  0  0  0  0  0  0  0  0  0  0  0
  151.8229  136.9939  154.3507 N   0  0  0  0  0  0  0  0  0  0  0  0
  151.2160  136.7305  155.5451 C   0  0  0  0  0  0  0  0  0  0  0  0
  150.9411  137.6967  156.5549 C   0  0  0  0  0  0  0  0  0  0  0  0
  150.3101  137.0904  157.6305 N   0  0  0  0  0  0  0  0  0  0  0  0
  150.2184  135.8387  157.2742 C   0  0  0  0  0  0  0  0  0  0  0  0
  150.7549  135.5221  156.0446 N   0  0  0  0  0  0  0  0  0  0  0  0
  150.7620  134.1535  155.4167 C   0  0  1  0  0  0  0  0  0  0  0  0
  151.4254  133.2749  156.2676 O   0  0  0  0  0  0  0  0  0  0  0  0
  150.4879  132.5968  157.0917 C   0  0  2  0  0  0  0  0  0  0  0  0
  151.0820  131.2590  157.5600 C   0  0  0  0  0  0  0  0  0  0  0  0
  152.2427  131.4829  158.3312 O   0  0  0  0  0  0  0  0  0  0  0  0
  149.2657  132.4256  156.1739 C   0  0  1  0  0  0  0  0  0  0  0  0
  148.0750  132.5130  156.9305 O   0  0  0  0  0  0  0  0  0  0  0  0
  149.3563  133.5806  155.1708 C   0  0  2  0  0  0  0  0  0  0  0  0
  149.2315  133.0919  153.8503 O   0  0  0  0  0  0  0  0  0  0  0  0
  151.7975  142.3334  157.6902 C   0  0  0  0  0  0  0  0  0  0  0  0
  151.6547  142.0436  159.2055 C   0  0  0  0  0  0  0  0  0  0  0  0
  152.4947  142.9983  160.0695 C   0  0  0  0  0  0  0  0  0  0  0  0
  152.1490  144.4643  159.7832 C   0  0  0  0  0  0  0  0  0  0  0  0
  152.3179  144.7759  158.2916 C   0  0  0  0  0  0  0  0  0  0  0  0
  151.4727  143.8268  157.4280 C   0  0  0  0  0  0  0  0  0  0  0  0
  151.3361  134.2937  154.4995 H   0  0  0  0  0  0  0  0  0  0  0  0
  150.2427  133.2245  157.9486 H   0  0  0  0  0  0  0  0  0  0  0  0
  149.3067  131.4620  155.6628 H   0  0  0  0  0  0  0  0  0  0  0  0
  148.5956  134.3473  155.3183 H   0  0  0  0  0  0  0  0  0  0  0  0
  147.9942  143.0936  155.6805 H   0  0  0  0  0  0  0  0  0  0  0  0
  147.9686  140.4189  155.8673 H   0  0  0  0  0  0  0  0  0  0  0  0
  149.2964  140.9495  154.8447 H   0  0  0  0  0  0  0  0  0  0  0  0
  149.2506  142.7960  156.9684 H   0  0  0  0  0  0  0  0  0  0  0  0
  148.9765  141.2711  157.7734 H   0  0  0  0  0  0  0  0  0  0  0  0
  151.2277  141.5817  155.7737 H   0  0  0  0  0  0  0  0  0  0  0  0
  151.1079  139.8309  158.1830 H   0  0  0  0  0  0  0  0  0  0  0  0
  152.6201  138.5589  153.2967 H   0  0  0  0  0  0  0  0  0  0  0  0
  149.7556  135.0999  157.9124 H   0  0  0  0  0  0  0  0  0  0  0  0
  150.3665  130.7352  158.1947 H   0  0  0  0  0  0  0  0  0  0  0  0
  151.3057  130.6055  156.7162 H   0  0  0  0  0  0  0  0  0  0  0  0
  152.3048  130.8037  158.9853 H   0  0  0  0  0  0  0  0  0  0  0  0
  148.0166  131.7474  157.4830 H   0  0  0  0  0  0  0  0  0  0  0  0
  149.4617  132.1754  153.8469 H   0  0  0  0  0  0  0  0  0  0  0  0
  152.8415  142.1648  157.4206 H   0  0  0  0  0  0  0  0  0  0  0  0
  150.6060  142.1152  159.4968 H   0  0  0  0  0  0  0  0  0  0  0  0
  151.9747  141.0291  159.4381 H   0  0  0  0  0  0  0  0  0  0  0  0
  152.3350  142.7798  161.1258 H   0  0  0  0  0  0  0  0  0  0  0  0
  153.5547  142.8285  159.8765 H   0  0  0  0  0  0  0  0  0  0  0  0
  151.1212  144.6662  160.0876 H   0  0  0  0  0  0  0  0  0  0  0  0
  152.7846  145.1217  160.3771 H   0  0  0  0  0  0  0  0  0  0  0  0
  152.0328  145.8096  158.0945 H   0  0  0  0  0  0  0  0  0  0  0  0
  153.3688  144.6859  158.0138 H   0  0  0  0  0  0  0  0  0  0  0  0
  151.6382  144.0805  156.3807 H   0  0  0  0  0  0  0  0  0  0  0  0
  150.4147  144.0097  157.6208 H   0  0  0  0  0  0  0  0  0  0  0  0
  1  2  1  0  0  0  0
  1 34  1  0  0  0  0
  2  3  1  0  0  0  0
  2 35  1  0  0  0  0
  2 36  1  0  0  0  0
  3  4  1  0  0  0  0
  3 37  1  0  0  0  0
  3 38  1  0  0  0  0
  4  5  1  0  0  0  0
  4 24  1  0  0  0  0
  4 39  1  0  0  0  0
  5  6  1  0  0  0  0
  5 40  1  0  0  0  0
  6 11  1  0  0  0  0
  6  7  2  0  0  0  0
  7  8  1  0  0  0  0
  8  9  2  0  0  0  0
  8 41  1  0  0  0  0
  9 10  1  0  0  0  0
 10 14  1  0  0  0  0
 10 11  2  0  0  0  0
 11 12  1  0  0  0  0
 12 13  2  0  0  0  0
 13 14  1  0  0  0  0
 13 42  1  0  0  0  0
 14 15  1  0  0  0  0
 15 30  1  0  0  0  0
 15 22  1  0  0  0  0
 15 16  1  0  0  0  0
 16 17  1  0  0  0  0
 17 31  1  0  0  0  0
 17 18  1  0  0  0  0
 17 20  1  0  0  0  0
 18 19  1  0  0  0  0
 18 43  1  0  0  0  0
 18 44  1  0  0  0  0
 19 45  1  0  0  0  0
 20 32  1  0  0  0  0
 20 21  1  0  0  0  0
 20 22  1  0  0  0  0
 21 46  1  0  0  0  0
 22 33  1  0  0  0  0
 22 23  1  0  0  0  0
 23 47  1  0  0  0  0
 24 29  1  0  0  0  0
 24 25  1  0  0  0  0
 24 48  1  0  0  0  0
 25 26  1  0  0  0  0
 25 49  1  0  0  0  0
 25 50  1  0  0  0  0
 26 27  1  0  0  0  0
 26 51  1  0  0  0  0
 26 52  1  0  0  0  0
 27 28  1  0  0  0  0
 27 53  1  0  0  0  0
 27 54  1  0  0  0  0
 28 29  1  0  0  0  0
 28 55  1  0  0  0  0
 28 56  1  0  0  0  0
 29 57  1  0  0  0  0
 29 58  1  0  0  0  0
M  END
> <s_m_source_file>
AV-unprocessed.smi

> <i_m_source_file_index>
109

> <i_lp_mmshare_version>
43012

> <i_f3d_flags>
0

> <s_epik_input>
W0NIMl0xW0NIMl1bQ0gyXVtDSDJdW0NIMl1bQ0hdMVtDQEhdKFtDSDJdW0NIMl1bT0hdKVtOSF1jKG5bY0hdbjIpYyhjMjMpbltjSF1uM1tDQEBIXTRPW0NASF0oW0NIMl1bT0hdKVtDQEBIXShbT0hdKVtDQEhdNFtPSF0=

> <s_epik_cmdline>
J2VwaWtfcHl0aG9uJywgJy1waCcsICc3LjAnLCAnLXRuJywgJzgnLCAnLW1hJywgJzIwMCcsICctbWV0YWxfYmluZGluZycsICctaW1hZScsICc8aW5maWxlLm1hZT4nLCAnLW9tYWUnLCAnPG91dGZpbGUubWFlPic=

> <r_lp_tautomer_probability>
1

> <r_epik_Ionization_Penalty>
0.000793976

> <r_epik_Ionization_Penalty_Charging>
0

> <r_epik_Ionization_Penalty_Neutral>
0.000793976

> <r_epik_State_Penalty>
-0

> <r_epik_Charging_Adjusted_Penalty>
0

> <i_epik_Tot_Q>
0

> <i_epik_Tot_abs_Q>
0

> <r_epik_Metal_State_Penalty>
-0

> <b_epik_Metal_Only>
0

> <s_epik_Chemistry_Notes>
This compound contains an acetal/aminal-like group ( X-CH(R)-Y where X, Y are N, S, or O) that may be acid/base labile, releasing an aldehyde.

> <s_lp_Force_Field>
OPLS_2005

> <r_lp_Energy>
48.8451

> <b_lp_Chiralities_Consistent>
1

> <s_lp_Variant>
AV-unprocessed.smi:109-19

> <Gold.Version>
5.8.1

> <Gold.Id.Protein>
6NUR|6NUR_protein|mol2

> <Gold.PLP.Fitness>
51.6196

> <Gold.PLP.PLP>
-43.7051

> <Gold.PLP.part.hbond>
-3.2927

> <Gold.PLP.part.metal>
0.0000

> <Gold.PLP.part.buried>
-8.1228

> <Gold.PLP.part.nonpolar>
-33.4194

> <Gold.PLP.part.repulsive>
0.2270

> <Gold.PLP.ligand.clash>
0.0000

> <Gold.PLP.ligand.torsion>
1.0919

> <Gold.PLP.Chemscore.Hbond>
3.2454

> <Gold.PLP.Chemscore.CHOScore>
0.0000

> <Gold.PLP.Chemscore.Metal>
0.0000

> <Gold.Chemscore.Hbonds>
donor molecule, donor type, donor heavy atom, donor atom, acceptor molecule, acceptor atom, score
      L1  H     1    34       P1  8028  0.86
      P1  H  6896  6909       L1    19  0.81
      P1  H  7989  7998       L1     7  0.31
      P1  H 10752 10763       L1     9  1.00

> <Gold.PLP.Chemscore.Internal.Correction>
0.3620

> <Gold.Rescore>
     Score         DG    S(hbond)    S(metal)    S(lipo)     H(rot)  DE(clash)    DE(int)     intcor
     11.78     -12.86       2.73        0.00     104.69       5.47       0.15       0.93       ----

> <Gold.Chemscore.Fitness>
11.7767

> <Gold.Chemscore.DG>
-12.8575

> <Gold.Chemscore.ZeroCoef>
-5.4800

> <Gold.Chemscore.Hbond>
2.7312

> <Gold.Chemscore.Metal>
0.0000

> <Gold.Chemscore.Lipo>
104.6917

> <Gold.Chemscore.Internal_Hbond>
0.0000

> <Gold.Chemscore.DEClash>
0.1541

> <Gold.Chemscore.DEInternal>
0.9267

> <Gold.Chemscore.Rot>
5.4662

> <Gold.Chemscore.Internal.Correction>
   9.000000E+99

> <Gold.Chemscore.Hbonds>
donor molecule, donor type, donor heavy atom, donor atom, acceptor molecule, acceptor atom, score
      L1  H     1    34       P1  8028  0.59
      P1  H  6896  6909       L1    19  0.27
      P1  H  7989  7998       L1     7  0.04
      P1  H 10752 10763       L1     9  0.43

> <Gold.Chemscore.Hbond.Weighted>
-9.1221

> <Gold.Chemscore.Metal.Weighted>
-0.0000

> <Gold.Chemscore.Lipo.Weighted>
-12.2489

> <Gold.Chemscore.Internal_Hbond.Weighted>
0.0000

> <Gold.Chemscore.DEClash.Weighted>
0.1541

> <Gold.Chemscore.DEInternal.Weighted>
0.9267

> <Gold.Chemscore.Rot.Weighted>
13.9935

> <Gold.Chemscore.Internal.Correction.Weighted>
   9.000000E+99

> <Gold.Protein.RotatedTorsions>
[ 6907 6896 6895 6894 ] final  -76.15 input  -60.11 | X-H torsion
[ 7974 7965 7964 7962 ] final   76.42 input  175.53 | X-H torsion
[ 8008 7997 7996 7995 ] final   17.98 input   59.86 | X-H torsion
[ 10167 10162 10161 10158 ] final  -68.48 input  -65.29 | X-H torsion
[ 10718 10713 10712 10709 ] final -171.23 input   66.30 | X-H torsion
[ 10763 10752 10751 10750 ] final   32.83 input  -60.55 | X-H torsion
[ 11005 11000 10999 10996 ] final   89.48 input  -57.11 | X-H torsion

> <Gold.Protein.ActiveResidues>
 VAL166  LYS551  ARG553  GLY616  TRP617  ASP618  TYR619  PRO620  LYS621  CYS622 
 ASP623  PHE694  ASN695  SER759  ASP760  ASP761  ALA762  ILE779  LEU786  VAL792 
 PHE793  MET794  SER795  GLU796  ALA797  LYS798  CYS799  TRP800  GLU811  SER814 

> <Gold.Protein.RotatedAtoms>
  150.7036  134.4615  159.5382 H   0  0  0  0  0  0  0  0  0  0  0  0  # atno 6907 bound_to 6896
  152.2288  134.8339  160.0485 H   0  0  0  0  0  0  0  0  0  0  0  0  # atno 6908 bound_to 6896
  151.9162  133.3539  159.3918 H   0  0  0  0  0  0  0  0  0  0  0  0  # atno 6909 bound_to 6896
  145.7031  139.2589  143.1694 H   0  0  0  0  0  0  0  0  0  0  0  0  # atno 7974 bound_to 7965
  154.8993  140.2998  155.5327 H   0  0  0  0  0  0  0  0  0  0  0  0  # atno 8008 bound_to 7997
  156.3019  140.2410  156.3953 H   0  0  0  0  0  0  0  0  0  0  0  0  # atno 8009 bound_to 7997
  154.8538  140.0408  157.1610 H   0  0  0  0  0  0  0  0  0  0  0  0  # atno 8010 bound_to 7997
  140.5504  143.2312  151.6922 H   0  0  0  0  0  0  0  0  0  0  0  0  # atno 10167 bound_to 10162
  156.7378  130.9331  151.3108 H   0  0  0  0  0  0  0  0  0  0  0  0  # atno 10718 bound_to 10713
  153.0242  135.6403  154.1416 H   0  0  0  0  0  0  0  0  0  0  0  0  # atno 10763 bound_to 10752
  154.1147  135.2850  155.3224 H   0  0  0  0  0  0  0  0  0  0  0  0  # atno 10764 bound_to 10752
  154.6306  135.5494  153.7739 H   0  0  0  0  0  0  0  0  0  0  0  0  # atno 10765 bound_to 10752
  139.8874  134.8554  156.3148 H   0  0  0  0  0  0  0  0  0  0  0  0  # atno 11005 bound_to 11000
  146.0780  140.7796  142.9655 LP  0  0  0  0  0  0  0  0  0  0  0  0  # atno 17320 bound_to 7965
  144.6963  140.3445  143.7193 LP  0  0  0  0  0  0  0  0  0  0  0  0  # atno 17321 bound_to 7965
  139.5025  144.3827  152.0360 LP  0  0  0  0  0  0  0  0  0  0  0  0  # atno 17342 bound_to 10162
  140.2944  144.3718  150.6079 LP  0  0  0  0  0  0  0  0  0  0  0  0  # atno 17343 bound_to 10162
  157.6831  130.9159  150.0318 LP  0  0  0  0  0  0  0  0  0  0  0  0  # atno 17370 bound_to 10713
  156.1485  130.3642  149.9474 LP  0  0  0  0  0  0  0  0  0  0  0  0  # atno 17371 bound_to 10713
  140.9826  133.7258  156.0695 LP  0  0  0  0  0  0  0  0  0  0  0  0  # atno 17394 bound_to 11000
  140.7729  134.3812  157.5504 LP  0  0  0  0  0  0  0  0  0  0  0  0  # atno 17395 bound_to 11000

$$$$
