AV-unprocessed.smi:114|AV-procd|sdf|1110|dock10
  -GOLD-   2262018223D 1   1.00000     0.00000
 Structure written by MMmdl.
 32 34  0  0  0  0  0  0  0  0  1 V2000
  154.4435  139.9089  160.2401 N   0  0  0  0  0  0  0  0  0  0  0  0
  153.4980  140.7168  159.7393 C   0  0  0  0  0  0  0  0  0  0  0  0
  153.1331  141.8041  160.4568 N   0  0  0  0  0  0  0  0  0  0  0  0
  152.1918  142.6342  159.9921 C   0  0  0  0  0  0  0  0  0  0  0  0
  151.8884  143.6982  160.7722 F   0  0  0  0  0  0  0  0  0  0  0  0
  151.5172  142.5310  158.8424 N   0  0  0  0  0  0  0  0  0  0  0  0
  151.8795  141.4368  158.1128 C   0  0  0  0  0  0  0  0  0  0  0  0
  152.8632  140.4841  158.4946 C   0  0  0  0  0  0  0  0  0  0  0  0
  152.9802  139.5041  157.5196 N   0  0  0  0  0  0  0  0  0  0  0  0
  152.1099  139.8605  156.6139 C   0  0  0  0  0  0  0  0  0  0  0  0
  151.3992  141.0082  156.8891 N   0  0  0  0  0  0  0  0  0  0  0  0
  150.3487  141.6313  156.0236 C   0  0  1  0  0  0  0  0  0  0  0  0
  150.1763  140.8642  154.8726 O   0  0  0  0  0  0  0  0  0  0  0  0
  148.7921  140.7173  154.5456 C   0  0  1  0  0  0  0  0  0  0  0  0
  148.4424  139.2156  154.6180 C   0  0  0  0  0  0  0  0  0  0  0  0
  148.9776  138.5431  153.4983 O   0  0  0  0  0  0  0  0  0  0  0  0
  148.0540  141.6123  155.5616 C   0  0  1  0  0  0  0  0  0  0  0  0
  146.7855  141.1162  155.9449 O   0  0  0  0  0  0  0  0  0  0  0  0
  149.0048  141.6763  156.7460 C   0  0  2  0  0  0  0  0  0  0  0  0
  148.8161  142.8991  157.4312 O   0  0  0  0  0  0  0  0  0  0  0  0
  150.7384  142.6141  155.7539 H   0  0  0  0  0  0  0  0  0  0  0  0
  148.6063  141.0871  153.5364 H   0  0  0  0  0  0  0  0  0  0  0  0
  147.9312  142.6054  155.1255 H   0  0  0  0  0  0  0  0  0  0  0  0
  148.8989  140.8087  157.4002 H   0  0  0  0  0  0  0  0  0  0  0  0
  154.7310  139.0911  159.7218 H   0  0  0  0  0  0  0  0  0  0  0  0
  154.8641  140.1168  161.1341 H   0  0  0  0  0  0  0  0  0  0  0  0
  151.9607  139.2909  155.7080 H   0  0  0  0  0  0  0  0  0  0  0  0
  148.7899  138.7620  155.5452 H   0  0  0  0  0  0  0  0  0  0  0  0
  147.3640  139.0639  154.5762 H   0  0  0  0  0  0  0  0  0  0  0  0
  149.1820  139.1827  152.8333 H   0  0  0  0  0  0  0  0  0  0  0  0
  146.8827  140.2148  156.2113 H   0  0  0  0  0  0  0  0  0  0  0  0
  149.0251  143.6091  156.8439 H   0  0  0  0  0  0  0  0  0  0  0  0
  1  2  1  0  0  0  0
  1 25  1  0  0  0  0
  1 26  1  0  0  0  0
  2  8  1  0  0  0  0
  2  3  2  0  0  0  0
  3  4  1  0  0  0  0
  4  5  1  0  0  0  0
  4  6  2  0  0  0  0
  6  7  1  0  0  0  0
  7 11  1  0  0  0  0
  7  8  2  0  0  0  0
  8  9  1  0  0  0  0
  9 10  2  0  0  0  0
 10 11  1  0  0  0  0
 10 27  1  0  0  0  0
 11 12  1  0  0  0  0
 12 21  1  0  0  0  0
 12 19  1  0  0  0  0
 12 13  1  0  0  0  0
 13 14  1  0  0  0  0
 14 22  1  0  0  0  0
 14 15  1  0  0  0  0
 14 17  1  0  0  0  0
 15 16  1  0  0  0  0
 15 28  1  0  0  0  0
 15 29  1  0  0  0  0
 16 30  1  0  0  0  0
 17 23  1  0  0  0  0
 17 18  1  0  0  0  0
 17 19  1  0  0  0  0
 18 31  1  0  0  0  0
 19 24  1  0  0  0  0
 19 20  1  0  0  0  0
 20 32  1  0  0  0  0
M  END
> <s_m_source_file>
AV-unprocessed.smi

> <i_m_source_file_index>
114

> <i_lp_mmshare_version>
43012

> <i_f3d_flags>
0

> <s_epik_input>
RmMobjEpbmMoW05IMl0pYyhjMTIpbltjSF1uMltDQEBIXTNPW0NASF0oW0NIMl1bT0hdKVtDQEBIXShbT0hdKVtDQEBIXTNbT0hd

> <s_epik_cmdline>
J2VwaWtfcHl0aG9uJywgJy1waCcsICc3LjAnLCAnLXRuJywgJzgnLCAnLW1hJywgJzIwMCcsICctbWV0YWxfYmluZGluZycsICctaW1hZScsICc8aW5maWxlLm1hZT4nLCAnLW9tYWUnLCAnPG91dGZpbGUubWFlPic=

> <r_lp_tautomer_probability>
1

> <r_epik_Ionization_Penalty>
1.13199e-05

> <r_epik_Ionization_Penalty_Charging>
0

> <r_epik_Ionization_Penalty_Neutral>
1.13199e-05

> <r_epik_State_Penalty>
-0

> <r_epik_Charging_Adjusted_Penalty>
0

> <i_epik_Tot_Q>
0

> <i_epik_Tot_abs_Q>
0

> <r_epik_Metal_State_Penalty>
-0

> <b_epik_Metal_Only>
0

> <s_epik_Chemistry_Notes>
This compound contains an acetal/aminal-like group ( X-CH(R)-Y where X, Y are N, S, or O) that may be acid/base labile, releasing an aldehyde.

> <s_lp_Force_Field>
OPLS_2005

> <r_lp_Energy>
42.0862

> <b_lp_Chiralities_Consistent>
1

> <s_lp_Variant>
AV-unprocessed.smi:114-4

> <Gold.Version>
5.8.1

> <Gold.Id.Protein>
6NUR|6NUR_protein|mol2

> <Gold.PLP.Fitness>
42.7201

> <Gold.PLP.PLP>
-31.6231

> <Gold.PLP.part.hbond>
-5.5906

> <Gold.PLP.part.metal>
0.0000

> <Gold.PLP.part.buried>
-2.6709

> <Gold.PLP.part.nonpolar>
-23.0288

> <Gold.PLP.part.repulsive>
0.1793

> <Gold.PLP.ligand.clash>
0.0000

> <Gold.PLP.ligand.torsion>
0.0828

> <Gold.PLP.Chemscore.Hbond>
3.7520

> <Gold.PLP.Chemscore.CHOScore>
0.0000

> <Gold.PLP.Chemscore.Metal>
0.0000

> <Gold.Chemscore.Hbonds>
donor molecule, donor type, donor heavy atom, donor atom, acceptor molecule, acceptor atom, score
      L1  H    16    30       P1  7957  1.00
      L1  H    20    32       P1  8028  1.00
      P1  H  7989  7998       L1    13  0.77
      P1  H  7997  8009       L1     9  0.90

> <Gold.PLP.Chemscore.Internal.Correction>
0.0066

> <Gold.Rescore>
     Score         DG    S(hbond)    S(metal)    S(lipo)     H(rot)  DE(clash)    DE(int)     intcor
      8.32      -8.82       3.06        0.00      29.28       4.03       0.39       0.11       ----

> <Gold.Chemscore.Fitness>
8.3188

> <Gold.Chemscore.DG>
-8.8183

> <Gold.Chemscore.ZeroCoef>
-5.4800

> <Gold.Chemscore.Hbond>
3.0611

> <Gold.Chemscore.Metal>
0.0000

> <Gold.Chemscore.Lipo>
29.2765

> <Gold.Chemscore.Internal_Hbond>
0.0000

> <Gold.Chemscore.DEClash>
0.3886

> <Gold.Chemscore.DEInternal>
0.1109

> <Gold.Chemscore.Rot>
4.0277

> <Gold.Chemscore.Internal.Correction>
   9.000000E+99

> <Gold.Chemscore.Hbonds>
donor molecule, donor type, donor heavy atom, donor atom, acceptor molecule, acceptor atom, score
      L1  H    16    30       P1  7957  0.99
      L1  H    20    32       P1  8028  0.69
      P1  H  7989  7998       L1    13  0.70
      P1  H  7997  8009       L1     9  0.05

> <Gold.Chemscore.Hbond.Weighted>
-10.2240

> <Gold.Chemscore.Metal.Weighted>
-0.0000

> <Gold.Chemscore.Lipo.Weighted>
-3.4253

> <Gold.Chemscore.Internal_Hbond.Weighted>
0.0000

> <Gold.Chemscore.DEClash.Weighted>
0.3886

> <Gold.Chemscore.DEInternal.Weighted>
0.1109

> <Gold.Chemscore.Rot.Weighted>
10.3110

> <Gold.Chemscore.Internal.Correction.Weighted>
   9.000000E+99

> <Gold.Protein.RotatedTorsions>
[ 6907 6896 6895 6894 ] final   10.32 input  -60.11 | X-H torsion
[ 7974 7965 7964 7962 ] final   -0.05 input  175.53 | X-H torsion
[ 8008 7997 7996 7995 ] final  172.63 input   59.86 | X-H torsion
[ 10167 10162 10161 10158 ] final   52.01 input  -65.29 | X-H torsion
[ 10718 10713 10712 10709 ] final -167.87 input   66.30 | X-H torsion
[ 10763 10752 10751 10750 ] final  -64.18 input  -60.55 | X-H torsion
[ 11005 11000 10999 10996 ] final   85.45 input  -57.11 | X-H torsion

> <Gold.Protein.ActiveResidues>
 VAL166  LYS551  ARG553  GLY616  TRP617  ASP618  TYR619  PRO620  LYS621  CYS622 
 ASP623  PHE694  ASN695  SER759  ASP760  ASP761  ALA762  ILE779  LEU786  VAL792 
 PHE793  MET794  SER795  GLU796  ALA797  LYS798  CYS799  TRP800  GLU811  SER814 

> <Gold.Protein.RotatedAtoms>
  151.7363  135.0864  160.0308 H   0  0  0  0  0  0  0  0  0  0  0  0  # atno 6907 bound_to 6896
  152.3508  133.6173  159.5952 H   0  0  0  0  0  0  0  0  0  0  0  0  # atno 6908 bound_to 6896
  150.7539  133.9493  159.3522 H   0  0  0  0  0  0  0  0  0  0  0  0  # atno 6909 bound_to 6896
  146.2430  140.1212  142.8340 H   0  0  0  0  0  0  0  0  0  0  0  0  # atno 7974 bound_to 7965
  156.1155  140.1481  156.9278 H   0  0  0  0  0  0  0  0  0  0  0  0  # atno 8008 bound_to 7997
  154.4797  140.0883  156.7391 H   0  0  0  0  0  0  0  0  0  0  0  0  # atno 8009 bound_to 7997
  155.4521  140.3435  155.4304 H   0  0  0  0  0  0  0  0  0  0  0  0  # atno 8010 bound_to 7997
  140.2559  144.3427  150.6333 H   0  0  0  0  0  0  0  0  0  0  0  0  # atno 10167 bound_to 10162
  156.6887  130.9150  151.3066 H   0  0  0  0  0  0  0  0  0  0  0  0  # atno 10718 bound_to 10713
  154.3262  135.6186  153.5530 H   0  0  0  0  0  0  0  0  0  0  0  0  # atno 10763 bound_to 10752
  152.9815  135.5736  154.5014 H   0  0  0  0  0  0  0  0  0  0  0  0  # atno 10764 bound_to 10752
  154.4691  135.2858  155.1632 H   0  0  0  0  0  0  0  0  0  0  0  0  # atno 10765 bound_to 10752
  139.8971  134.8287  156.2584 H   0  0  0  0  0  0  0  0  0  0  0  0  # atno 11005 bound_to 11000
  145.0405  140.8941  143.5055 LP  0  0  0  0  0  0  0  0  0  0  0  0  # atno 17320 bound_to 7965
  145.1292  139.2643  143.5548 LP  0  0  0  0  0  0  0  0  0  0  0  0  # atno 17321 bound_to 7965
  140.6004  143.2167  151.7083 LP  0  0  0  0  0  0  0  0  0  0  0  0  # atno 17342 bound_to 10162
  139.5032  144.3801  152.0384 LP  0  0  0  0  0  0  0  0  0  0  0  0  # atno 17343 bound_to 10162
  157.7017  130.9340  150.0805 LP  0  0  0  0  0  0  0  0  0  0  0  0  # atno 17370 bound_to 10713
  156.1814  130.3650  149.9031 LP  0  0  0  0  0  0  0  0  0  0  0  0  # atno 17371 bound_to 10713
  141.0178  133.7058  156.1218 LP  0  0  0  0  0  0  0  0  0  0  0  0  # atno 17394 bound_to 11000
  140.7276  134.4290  157.5569 LP  0  0  0  0  0  0  0  0  0  0  0  0  # atno 17395 bound_to 11000

$$$$
