AV-unprocessed.smi:100|AV-procd|sdf|901|dock7
  -GOLD-   2262017393D 1   1.00000     0.00000
 Structure written by MMmdl.
 31 33  0  0  0  0  0  0  0  0  1 V2000
  150.9109  138.0766  153.2384 N   0  0  0  0  0  0  0  0  0  0  0  0
  151.2329  138.3062  154.5188 C   0  0  0  0  0  0  0  0  0  0  0  0
  151.8388  137.3173  155.2169 N   0  0  0  0  0  0  0  0  0  0  0  0
  152.1690  137.5216  156.4965 C   0  0  0  0  0  0  0  0  0  0  0  0
  151.9851  138.6141  157.2433 N   0  0  0  0  0  0  0  0  0  0  0  0
  151.3733  139.6101  156.5367 C   0  0  0  0  0  0  0  0  0  0  0  0
  150.9680  139.5347  155.1756 C   0  0  0  0  0  0  0  0  0  0  0  0
  150.3814  140.7321  154.7909 N   0  0  0  0  0  0  0  0  0  0  0  0
  150.4353  141.4688  155.8681 C   0  0  0  0  0  0  0  0  0  0  0  0
  151.0215  140.8728  156.9664 N   0  0  0  0  0  0  0  0  0  0  0  0
  151.2337  141.4240  158.3436 C   0  0  2  0  0  0  0  0  0  0  0  0
  150.7378  142.7319  158.3608 O   0  0  0  0  0  0  0  0  0  0  0  0
  151.8174  143.6627  158.3859 C   0  0  1  0  0  0  0  0  0  0  0  0
  151.3704  145.0102  158.9743 C   0  0  0  0  0  0  0  0  0  0  0  0
  149.9653  145.0369  159.1062 O   0  0  0  0  0  0  0  0  0  0  0  0
  152.8518  142.9172  159.2275 C   0  0  1  0  0  0  0  0  0  0  0  0
  152.4755  142.9541  160.5098 F   0  0  0  0  0  0  0  0  0  0  0  0
  152.7346  141.5070  158.6696 C   0  0  1  0  0  0  0  0  0  0  0  0
  153.1687  140.5532  159.6183 O   0  0  0  0  0  0  0  0  0  0  0  0
  150.4576  138.7993  152.6978 H   0  0  0  0  0  0  0  0  0  0  0  0
  151.1174  137.1817  152.8189 H   0  0  0  0  0  0  0  0  0  0  0  0
  152.6496  136.6916  156.9930 H   0  0  0  0  0  0  0  0  0  0  0  0
  150.0453  142.4748  155.8815 H   0  0  0  0  0  0  0  0  0  0  0  0
  150.6556  140.7972  159.0233 H   0  0  0  0  0  0  0  0  0  0  0  0
  152.2188  143.8038  157.3819 H   0  0  0  0  0  0  0  0  0  0  0  0
  151.8453  145.2022  159.9370 H   0  0  0  0  0  0  0  0  0  0  0  0
  151.6513  145.8235  158.3046 H   0  0  0  0  0  0  0  0  0  0  0  0
  149.5910  145.3144  158.2842 H   0  0  0  0  0  0  0  0  0  0  0  0
  153.8569  143.3337  159.1564 H   0  0  0  0  0  0  0  0  0  0  0  0
  153.3243  141.4184  157.7558 H   0  0  0  0  0  0  0  0  0  0  0  0
  154.0484  140.7748  159.8839 H   0  0  0  0  0  0  0  0  0  0  0  0
  1  2  1  0  0  0  0
  1 20  1  0  0  0  0
  1 21  1  0  0  0  0
  2  7  1  0  0  0  0
  2  3  2  0  0  0  0
  3  4  1  0  0  0  0
  4  5  2  0  0  0  0
  4 22  1  0  0  0  0
  5  6  1  0  0  0  0
  6 10  1  0  0  0  0
  6  7  2  0  0  0  0
  7  8  1  0  0  0  0
  8  9  2  0  0  0  0
  9 10  1  0  0  0  0
  9 23  1  0  0  0  0
 10 11  1  0  0  0  0
 11 18  1  0  0  0  0
 11 12  1  0  0  0  0
 11 24  1  0  0  0  0
 12 13  1  0  0  0  0
 13 14  1  0  0  0  0
 13 16  1  0  0  0  0
 13 25  1  0  0  0  0
 14 15  1  0  0  0  0
 14 26  1  0  0  0  0
 14 27  1  0  0  0  0
 15 28  1  0  0  0  0
 16 17  1  0  0  0  0
 16 18  1  0  0  0  0
 16 29  1  0  0  0  0
 18 19  1  0  0  0  0
 18 30  1  0  0  0  0
 19 31  1  0  0  0  0
M  END
> <s_m_source_file>
AV-unprocessed.smi

> <i_m_source_file_index>
100

> <i_lp_mmshare_version>
43012

> <i_f3d_flags>
0

> <s_epik_input>
bjFbY0hdbmMoW05IMl0pYyhjMTIpbltjSF1uMltDQEBIXTNPW0NAQEhdKFtDSDJdW09IXSlbQ0BIXShGKVtDQEhdM1tPSF0=

> <s_epik_cmdline>
J2VwaWtfcHl0aG9uJywgJy1waCcsICc3LjAnLCAnLXRuJywgJzgnLCAnLW1hJywgJzIwMCcsICctbWV0YWxfYmluZGluZycsICctaW1hZScsICc8aW5maWxlLm1hZT4nLCAnLW9tYWUnLCAnPG91dGZpbGUubWFlPic=

> <r_lp_tautomer_probability>
1

> <r_epik_Ionization_Penalty>
0.000750324

> <r_epik_Ionization_Penalty_Charging>
0

> <r_epik_Ionization_Penalty_Neutral>
0.000750324

> <r_epik_State_Penalty>
-0

> <r_epik_Charging_Adjusted_Penalty>
0

> <i_epik_Tot_Q>
0

> <i_epik_Tot_abs_Q>
0

> <r_epik_Metal_State_Penalty>
-0

> <b_epik_Metal_Only>
0

> <s_epik_Chemistry_Notes>
This compound contains an acetal/aminal-like group ( X-CH(R)-Y where X, Y are N, S, or O) that may be acid/base labile, releasing an aldehyde.

> <s_lp_Force_Field>
OPLS_2005

> <r_lp_Energy>
31.3803

> <b_lp_Chiralities_Consistent>
1

> <s_lp_Variant>
AV-unprocessed.smi:100-5

> <Gold.Version>
5.8.1

> <Gold.Id.Protein>
6NUR|6NUR_protein|mol2

> <Gold.PLP.Fitness>
48.6313

> <Gold.PLP.PLP>
-35.7302

> <Gold.PLP.part.hbond>
-5.6138

> <Gold.PLP.part.metal>
0.0000

> <Gold.PLP.part.buried>
-1.8884

> <Gold.PLP.part.nonpolar>
-28.2907

> <Gold.PLP.part.repulsive>
0.3892

> <Gold.PLP.ligand.clash>
0.0000

> <Gold.PLP.ligand.torsion>
0.7247

> <Gold.PLP.Chemscore.Hbond>
3.7780

> <Gold.PLP.Chemscore.CHOScore>
0.9989

> <Gold.PLP.Chemscore.Metal>
0.0000

> <Gold.Chemscore.Hbonds>
donor molecule, donor type, donor heavy atom, donor atom, acceptor molecule, acceptor atom, score
      L1  H     1    20       P1  7957  0.73
      L1  H     1    21       P1  7949  1.00
      L1  H    15    28       P1  8029  0.89
      P1  H  7989  7998       L1     8  0.39
      P1  H 10752 10765       L1     3  0.73
      L1  C     9    23       P1  8028  0.99

> <Gold.PLP.Chemscore.Internal.Correction>
0.0199

> <Gold.Rescore>
     Score         DG    S(hbond)    S(metal)    S(lipo)     H(rot)  DE(clash)    DE(int)     intcor
      9.51     -10.59       2.22        0.00      50.10       3.19       0.33       0.75       ----

> <Gold.Chemscore.Fitness>
9.5110

> <Gold.Chemscore.DG>
-10.5936

> <Gold.Chemscore.ZeroCoef>
-5.4800

> <Gold.Chemscore.Hbond>
2.2212

> <Gold.Chemscore.Metal>
0.0000

> <Gold.Chemscore.Lipo>
50.0983

> <Gold.Chemscore.Internal_Hbond>
0.0000

> <Gold.Chemscore.DEClash>
0.3350

> <Gold.Chemscore.DEInternal>
0.7477

> <Gold.Chemscore.Rot>
3.1901

> <Gold.Chemscore.Internal.Correction>
   9.000000E+99

> <Gold.Chemscore.Hbonds>
donor molecule, donor type, donor heavy atom, donor atom, acceptor molecule, acceptor atom, score
      L1  H     1    20       P1  7957  0.16
      L1  H     1    21       P1  7949  0.44
      L1  H    15    28       P1  8029  0.45
      P1  H  7989  7998       L1     8  0.01
      P1  H 10752 10765       L1     3  0.31

> <Gold.Chemscore.Hbond.Weighted>
-7.4188

> <Gold.Chemscore.Metal.Weighted>
-0.0000

> <Gold.Chemscore.Lipo.Weighted>
-5.8615

> <Gold.Chemscore.Internal_Hbond.Weighted>
0.0000

> <Gold.Chemscore.DEClash.Weighted>
0.3350

> <Gold.Chemscore.DEInternal.Weighted>
0.7477

> <Gold.Chemscore.Rot.Weighted>
8.1667

> <Gold.Chemscore.Internal.Correction.Weighted>
   9.000000E+99

> <Gold.Protein.RotatedTorsions>
[ 6907 6896 6895 6894 ] final  109.70 input  -60.11 | X-H torsion
[ 7974 7965 7964 7962 ] final  143.41 input  175.53 | X-H torsion
[ 8008 7997 7996 7995 ] final   47.60 input   59.86 | X-H torsion
[ 10167 10162 10161 10158 ] final  -75.63 input  -65.29 | X-H torsion
[ 10718 10713 10712 10709 ] final   62.88 input   66.30 | X-H torsion
[ 10763 10752 10751 10750 ] final -176.17 input  -60.55 | X-H torsion
[ 11005 11000 10999 10996 ] final  -10.45 input  -57.11 | X-H torsion

> <Gold.Protein.ActiveResidues>
 VAL166  LYS551  ARG553  GLY616  TRP617  ASP618  TYR619  PRO620  LYS621  CYS622 
 ASP623  PHE694  ASN695  SER759  ASP760  ASP761  ALA762  ILE779  LEU786  VAL792 
 PHE793  MET794  SER795  GLU796  ALA797  LYS798  CYS799  TRP800  GLU811  SER814 

> <Gold.Protein.RotatedAtoms>
  152.5055  133.8906  159.7391 H   0  0  0  0  0  0  0  0  0  0  0  0  # atno 6907 bound_to 6896
  150.9346  133.6718  159.2810 H   0  0  0  0  0  0  0  0  0  0  0  0  # atno 6908 bound_to 6896
  151.4051  135.0981  159.9620 H   0  0  0  0  0  0  0  0  0  0  0  0  # atno 6909 bound_to 6896
  144.8923  139.5540  143.5792 H   0  0  0  0  0  0  0  0  0  0  0  0  # atno 7974 bound_to 7965
  155.3718  140.3424  155.4243 H   0  0  0  0  0  0  0  0  0  0  0  0  # atno 8008 bound_to 7997
  156.1658  140.1615  156.8567 H   0  0  0  0  0  0  0  0  0  0  0  0  # atno 8009 bound_to 7997
  154.5184  140.0773  156.8107 H   0  0  0  0  0  0  0  0  0  0  0  0  # atno 8010 bound_to 7997
  140.4926  143.2377  151.7882 H   0  0  0  0  0  0  0  0  0  0  0  0  # atno 10167 bound_to 10162
  157.5932  130.9075  149.9644 H   0  0  0  0  0  0  0  0  0  0  0  0  # atno 10718 bound_to 10713
  154.5756  135.2831  155.0784 H   0  0  0  0  0  0  0  0  0  0  0  0  # atno 10763 bound_to 10752
  154.2140  135.6403  153.5127 H   0  0  0  0  0  0  0  0  0  0  0  0  # atno 10764 bound_to 10752
  153.0071  135.5498  154.6393 H   0  0  0  0  0  0  0  0  0  0  0  0  # atno 10765 bound_to 10752
  140.7449  133.8640  155.8997 H   0  0  0  0  0  0  0  0  0  0  0  0  # atno 11005 bound_to 11000
  146.3061  139.7585  142.9055 LP  0  0  0  0  0  0  0  0  0  0  0  0  # atno 17320 bound_to 7965
  145.3761  141.0351  143.3204 LP  0  0  0  0  0  0  0  0  0  0  0  0  # atno 17321 bound_to 7965
  139.4854  144.4629  151.9519 LP  0  0  0  0  0  0  0  0  0  0  0  0  # atno 17342 bound_to 10162
  140.3716  144.2848  150.5919 LP  0  0  0  0  0  0  0  0  0  0  0  0  # atno 17343 bound_to 10162
  156.0990  130.3657  150.0253 LP  0  0  0  0  0  0  0  0  0  0  0  0  # atno 17370 bound_to 10713
  156.8371  130.9413  151.3634 LP  0  0  0  0  0  0  0  0  0  0  0  0  # atno 17371 bound_to 10713
  140.9803  134.1414  157.4500 LP  0  0  0  0  0  0  0  0  0  0  0  0  # atno 17394 bound_to 11000
  139.8799  135.0008  156.6032 LP  0  0  0  0  0  0  0  0  0  0  0  0  # atno 17395 bound_to 11000

$$$$
