AV-unprocessed.smi:1937|AV-procd|sdf|7833|dock3
  -GOLD-   22720 9583D 1   1.00000     0.00000
 Structure written by MMmdl.
 40 41  0  0  0  0  0  0  0  0  1 V2000
  147.1030  133.2110  153.8456 O   0  0  0  0  0  0  0  0  0  0  0  0
  147.7672  132.6394  152.9813 C   0  0  0  0  0  0  0  0  0  0  0  0
  149.0322  132.2377  153.1690 N   0  0  0  0  0  0  0  0  0  0  0  0
  149.7965  132.4324  154.3948 C   0  0  0  0  0  0  0  0  0  0  0  0
  149.4222  131.3892  155.4645 C   0  0  0  0  0  0  0  0  0  0  0  0
  150.6206  130.8183  156.0918 N   0  0  0  0  0  0  0  0  0  0  0  0
  150.9512  129.4307  155.7259 C   0  0  0  0  0  0  0  0  0  0  0  0
  152.2218  129.3010  154.8534 C   0  0  0  0  0  0  0  0  0  0  0  0
  153.3059  130.3769  155.0597 C   0  0  0  0  0  0  0  0  0  0  0  0
  153.7509  130.5827  156.5227 C   0  0  0  0  0  0  0  0  0  0  0  0
  152.6313  130.8734  157.5505 C   0  0  0  0  0  0  0  0  0  0  0  0
  151.3796  131.5381  156.9546 C   0  0  0  0  0  0  0  0  0  0  0  0
  151.1134  132.6962  157.2775 O   0  0  0  0  0  0  0  0  0  0  0  0
  147.3360  132.3226  151.7482 N   0  0  0  0  0  0  0  0  0  0  0  0
  146.0733  132.5866  151.1512 C   0  0  0  0  0  0  0  0  0  0  0  0
  145.0540  133.3703  151.7450 C   0  0  0  0  0  0  0  0  0  0  0  0
  143.8511  133.5681  151.0399 C   0  0  0  0  0  0  0  0  0  0  0  0
  143.7133  132.9832  149.7662 C   0  0  0  0  0  0  0  0  0  0  0  0
  144.6812  132.2460  149.1822 N   0  0  0  0  0  0  0  0  0  0  0  0
  145.8315  132.0604  149.8642 C   0  0  0  0  0  0  0  0  0  0  0  0
  149.5027  131.7688  152.4088 H   0  0  0  0  0  0  0  0  0  0  0  0
  150.8656  132.3922  154.1785 H   0  0  0  0  0  0  0  0  0  0  0  0
  149.5937  133.4394  154.7604 H   0  0  0  0  0  0  0  0  0  0  0  0
  148.7843  131.8463  156.2231 H   0  0  0  0  0  0  0  0  0  0  0  0
  148.8113  130.6026  155.0210 H   0  0  0  0  0  0  0  0  0  0  0  0
  151.0669  128.8404  156.6352 H   0  0  0  0  0  0  0  0  0  0  0  0
  150.1239  128.9493  155.2038 H   0  0  0  0  0  0  0  0  0  0  0  0
  152.6541  128.3117  155.0070 H   0  0  0  0  0  0  0  0  0  0  0  0
  151.9246  129.3301  153.8045 H   0  0  0  0  0  0  0  0  0  0  0  0
  154.1784  130.1145  154.4605 H   0  0  0  0  0  0  0  0  0  0  0  0
  152.9571  131.3253  154.6481 H   0  0  0  0  0  0  0  0  0  0  0  0
  154.3023  129.7015  156.8521 H   0  0  0  0  0  0  0  0  0  0  0  0
  154.4700  131.4021  156.5473 H   0  0  0  0  0  0  0  0  0  0  0  0
  152.3367  129.9532  158.0545 H   0  0  0  0  0  0  0  0  0  0  0  0
  153.0301  131.5082  158.3428 H   0  0  0  0  0  0  0  0  0  0  0  0
  147.9765  131.7871  151.1805 H   0  0  0  0  0  0  0  0  0  0  0  0
  145.1710  133.8325  152.7125 H   0  0  0  0  0  0  0  0  0  0  0  0
  143.0533  134.1588  151.4653 H   0  0  0  0  0  0  0  0  0  0  0  0
  142.8036  133.1157  149.1992 H   0  0  0  0  0  0  0  0  0  0  0  0
  146.5838  131.4673  149.3648 H   0  0  0  0  0  0  0  0  0  0  0  0
  1  2  2  0  0  0  0
  2  3  1  0  0  0  0
  2 14  1  0  0  0  0
  3  4  1  0  0  0  0
  3 21  1  0  0  0  0
  4  5  1  0  0  0  0
  4 22  1  0  0  0  0
  4 23  1  0  0  0  0
  5  6  1  0  0  0  0
  5 24  1  0  0  0  0
  5 25  1  0  0  0  0
  6 12  1  0  0  0  0
  6  7  1  0  0  0  0
  7  8  1  0  0  0  0
  7 26  1  0  0  0  0
  7 27  1  0  0  0  0
  8  9  1  0  0  0  0
  8 28  1  0  0  0  0
  8 29  1  0  0  0  0
  9 10  1  0  0  0  0
  9 30  1  0  0  0  0
  9 31  1  0  0  0  0
 10 11  1  0  0  0  0
 10 32  1  0  0  0  0
 10 33  1  0  0  0  0
 11 12  1  0  0  0  0
 11 34  1  0  0  0  0
 11 35  1  0  0  0  0
 12 13  2  0  0  0  0
 14 15  1  0  0  0  0
 14 36  1  0  0  0  0
 15 20  1  0  0  0  0
 15 16  2  0  0  0  0
 16 17  1  0  0  0  0
 16 37  1  0  0  0  0
 17 18  2  0  0  0  0
 17 38  1  0  0  0  0
 18 19  1  0  0  0  0
 18 39  1  0  0  0  0
 19 20  2  0  0  0  0
 20 40  1  0  0  0  0
M  END
> <s_m_source_file>
AV-unprocessed.smi

> <i_m_source_file_index>
1937

> <i_lp_mmshare_version>
43012

> <i_f3d_flags>
0

> <s_epik_input>
W2NIXTFuW2NIXVtjSF1bY0hdYzFbTkhdQyg9TylbTkhdW0NIMl1bQ0gyXU4yW0NIMl1bQ0gyXVtDSDJdW0NIMl1bQ0gyXUMyPU8=

> <s_epik_cmdline>
J2VwaWtfcHl0aG9uJywgJy1waCcsICc3LjAnLCAnLXRuJywgJzgnLCAnLW1hJywgJzIwMCcsICctbWV0YWxfYmluZGluZycsICctaW1hZScsICc8aW5maWxlLm1hZT4nLCAnLW9tYWUnLCAnPG91dGZpbGUubWFlPic=

> <r_epik_Ionization_Penalty>
0.00465308

> <r_epik_Ionization_Penalty_Charging>
0

> <r_epik_Ionization_Penalty_Neutral>
0.00465308

> <r_epik_State_Penalty>
0.00334133

> <r_epik_Charging_Adjusted_Penalty>
0.00334133

> <i_epik_Tot_Q>
0

> <i_epik_Tot_abs_Q>
0

> <r_epik_Metal_State_Penalty>
-0

> <b_epik_Metal_Only>
0

> <s_lp_Force_Field>
OPLS_2005

> <r_lp_Energy>
23.2929

> <b_lp_Chiralities_Consistent>
1

> <s_lp_Variant>
AV-unprocessed.smi:1937-1

> <Gold.Version>
5.8.1

> <Gold.Id.Protein>
6NUR|6NUR_protein|mol2

> <Gold.PLP.Fitness>
44.5056

> <Gold.PLP.PLP>
-33.6630

> <Gold.PLP.part.hbond>
-3.3083

> <Gold.PLP.part.metal>
0.0000

> <Gold.PLP.part.buried>
-3.9151

> <Gold.PLP.part.nonpolar>
-26.8690

> <Gold.PLP.part.repulsive>
0.2943

> <Gold.PLP.ligand.clash>
0.0000

> <Gold.PLP.ligand.torsion>
0.6051

> <Gold.PLP.Chemscore.Hbond>
2.1312

> <Gold.PLP.Chemscore.CHOScore>
1.8794

> <Gold.PLP.Chemscore.Metal>
0.0000

> <Gold.Chemscore.Hbonds>
donor molecule, donor type, donor heavy atom, donor atom, acceptor molecule, acceptor atom, score
      L1  H     3    21       P1 10747  0.17
      L1  H    14    36       P1 10747  1.00
      P1  H  6896  6908       L1    13  0.94
      L1  C    18    39       P1 10186  1.00
      L1  C    20    40       P1 10747  0.78

> <Gold.PLP.Chemscore.Internal.Correction>
0.0210

> <Gold.Rescore>
     Score         DG    S(hbond)    S(metal)    S(lipo)     H(rot)  DE(clash)    DE(int)     intcor
     15.20     -17.18       2.01        0.00      75.85       1.52       0.01       1.98       ----

> <Gold.Chemscore.Fitness>
15.1954

> <Gold.Chemscore.DG>
-17.1813

> <Gold.Chemscore.ZeroCoef>
-5.4800

> <Gold.Chemscore.Hbond>
2.0109

> <Gold.Chemscore.Metal>
0.0000

> <Gold.Chemscore.Lipo>
75.8531

> <Gold.Chemscore.Internal_Hbond>
0.0000

> <Gold.Chemscore.DEClash>
0.0089

> <Gold.Chemscore.DEInternal>
1.9770

> <Gold.Chemscore.Rot>
1.5195

> <Gold.Chemscore.Internal.Correction>
   9.000000E+99

> <Gold.Chemscore.Hbonds>
donor molecule, donor type, donor heavy atom, donor atom, acceptor molecule, acceptor atom, score
      L1  H     3    21       P1 10747  0.04
      L1  H    14    36       P1 10747  1.00
      P1  H  6896  6908       L1    13  0.87

> <Gold.Chemscore.Hbond.Weighted>
-6.7165

> <Gold.Chemscore.Metal.Weighted>
-0.0000

> <Gold.Chemscore.Lipo.Weighted>
-8.8748

> <Gold.Chemscore.Internal_Hbond.Weighted>
0.0000

> <Gold.Chemscore.DEClash.Weighted>
0.0089

> <Gold.Chemscore.DEInternal.Weighted>
1.9770

> <Gold.Chemscore.Rot.Weighted>
3.8900

> <Gold.Chemscore.Internal.Correction.Weighted>
   9.000000E+99

> <Gold.Protein.RotatedTorsions>
[ 6907 6896 6895 6894 ] final   82.05 input  -60.11 | X-H torsion
[ 7974 7965 7964 7962 ] final   58.45 input  175.53 | X-H torsion
[ 8008 7997 7996 7995 ] final   83.06 input   59.86 | X-H torsion
[ 10167 10162 10161 10158 ] final   88.55 input  -65.29 | X-H torsion
[ 10718 10713 10712 10709 ] final  -10.24 input   66.30 | X-H torsion
[ 10763 10752 10751 10750 ] final  -86.85 input  -60.55 | X-H torsion
[ 11005 11000 10999 10996 ] final  -98.03 input  -57.11 | X-H torsion

> <Gold.Protein.ActiveResidues>
 VAL166  LYS551  ARG553  GLY616  TRP617  ASP618  TYR619  PRO620  LYS621  CYS622 
 ASP623  PHE694  ASN695  SER759  ASP760  ASP761  ALA762  ILE779  LEU786  VAL792 
 PHE793  MET794  SER795  GLU796  ALA797  LYS798  CYS799  TRP800  GLU811  SER814 

> <Gold.Protein.RotatedAtoms>
  152.5287  134.3110  159.9113 H   0  0  0  0  0  0  0  0  0  0  0  0  # atno 6907 bound_to 6896
  151.3060  133.4095  159.2651 H   0  0  0  0  0  0  0  0  0  0  0  0  # atno 6908 bound_to 6896
  151.0079  134.9390  159.8048 H   0  0  0  0  0  0  0  0  0  0  0  0  # atno 6909 bound_to 6896
  145.9180  139.3706  143.0495 H   0  0  0  0  0  0  0  0  0  0  0  0  # atno 7974 bound_to 7965
  155.9189  140.3422  155.6157 H   0  0  0  0  0  0  0  0  0  0  0  0  # atno 8008 bound_to 7997
  155.7298  140.0794  157.2312 H   0  0  0  0  0  0  0  0  0  0  0  0  # atno 8009 bound_to 7997
  154.4066  140.1590  156.2483 H   0  0  0  0  0  0  0  0  0  0  0  0  # atno 8010 bound_to 7997
  139.8661  144.6518  150.9002 H   0  0  0  0  0  0  0  0  0  0  0  0  # atno 10167 bound_to 10162
  156.6764  130.5024  149.5984 H   0  0  0  0  0  0  0  0  0  0  0  0  # atno 10718 bound_to 10713
  154.6271  135.5434  153.7639 H   0  0  0  0  0  0  0  0  0  0  0  0  # atno 10763 bound_to 10752
  153.0266  135.6427  154.1356 H   0  0  0  0  0  0  0  0  0  0  0  0  # atno 10764 bound_to 10752
  154.1288  135.2915  155.3170 H   0  0  0  0  0  0  0  0  0  0  0  0  # atno 10765 bound_to 10752
  141.1359  133.8215  157.0786 H   0  0  0  0  0  0  0  0  0  0  0  0  # atno 11005 bound_to 11000
  145.8587  140.9488  143.0711 LP  0  0  0  0  0  0  0  0  0  0  0  0  # atno 17320 bound_to 7965
  144.6750  140.0502  143.7479 LP  0  0  0  0  0  0  0  0  0  0  0  0  # atno 17321 bound_to 7965
  140.7768  143.3703  151.1662 LP  0  0  0  0  0  0  0  0  0  0  0  0  # atno 17342 bound_to 10162
  139.7327  143.9047  152.3025 LP  0  0  0  0  0  0  0  0  0  0  0  0  # atno 17343 bound_to 10162
  156.1900  130.6554  151.1051 LP  0  0  0  0  0  0  0  0  0  0  0  0  # atno 17370 bound_to 10713
  157.7059  131.0756  150.6667 LP  0  0  0  0  0  0  0  0  0  0  0  0  # atno 17371 bound_to 10713
  140.0466  134.9827  157.1060 LP  0  0  0  0  0  0  0  0  0  0  0  0  # atno 17394 bound_to 11000
  140.4054  134.2038  155.7163 LP  0  0  0  0  0  0  0  0  0  0  0  0  # atno 17395 bound_to 11000

$$$$
