AV-unprocessed.smi:2799|AV-procd|sdf|10789|dock4
  -GOLD-   2272015223D 1   1.00000     0.00000
 Structure written by MMmdl.
 52 53  0  0  0  0  0  0  0  0  2 V2000
  147.7952  130.7319  154.5361 C   0  0  0  0  0  0  0  0  0  0  0  0
  146.7322  130.8666  153.4333 C   0  0  0  0  0  0  0  0  0  0  0  0
  146.7536  129.6356  152.5148 C   0  0  0  0  0  0  0  0  0  0  0  0
  146.9126  132.1610  152.6155 C   0  0  0  0  0  0  0  0  0  0  0  0
  145.6590  132.5421  151.9022 N   0  3  2  0  0  0  0  0  0  0  0  0
  145.4664  131.6674  150.7110 C   0  0  0  0  0  0  0  0  0  0  0  0
  144.1368  131.9302  149.9996 C   0  0  0  0  0  0  0  0  0  0  0  0
  144.0733  133.3897  149.5599 C   0  0  0  0  0  0  0  0  0  0  0  0
  144.2293  134.2879  150.7876 C   0  0  0  0  0  0  0  0  0  0  0  0
  145.5227  134.0070  151.6005 C   0  0  1  0  0  0  0  0  0  0  0  0
  145.5084  134.8639  152.8996 C   0  0  0  0  0  0  0  0  0  0  0  0
  146.5485  135.8904  152.9153 N   0  0  0  0  0  0  0  0  0  0  0  0
  146.4149  137.1299  153.4098 C   0  0  0  0  0  0  0  0  0  0  0  0
  145.3649  137.5537  153.8917 O   0  0  0  0  0  0  0  0  0  0  0  0
  147.5709  137.8119  153.3109 N   0  0  0  0  0  0  0  0  0  0  0  0
  147.8625  139.1357  153.6850 C   0  0  0  0  0  0  0  0  0  0  0  0
  147.1015  140.2136  153.3685 C   0  0  0  0  0  0  0  0  0  0  0  0
  147.4829  141.5403  153.7897 C   0  0  0  0  0  0  0  0  0  0  0  0
  148.6161  141.6858  154.4901 C   0  0  0  0  0  0  0  0  0  0  0  0
  149.4270  140.5860  154.8169 N   0  0  0  0  0  0  0  0  0  0  0  0
  150.6458  140.8484  155.5868 C   0  0  0  0  0  0  0  0  0  0  0  0
  149.1113  139.3072  154.4536 C   0  0  0  0  0  0  0  0  0  0  0  0
  149.8388  138.3589  154.7586 O   0  0  0  0  0  0  0  0  0  0  0  0
  148.8018  130.7169  154.1168 H   0  0  0  0  0  0  0  0  0  0  0  0
  147.6580  129.8102  155.1025 H   0  0  0  0  0  0  0  0  0  0  0  0
  147.7423  131.5574  155.2460 H   0  0  0  0  0  0  0  0  0  0  0  0
  145.7530  130.8929  153.9129 H   0  0  0  0  0  0  0  0  0  0  0  0
  147.7106  129.5406  152.0004 H   0  0  0  0  0  0  0  0  0  0  0  0
  145.9722  129.6951  151.7567 H   0  0  0  0  0  0  0  0  0  0  0  0
  146.5889  128.7186  153.0816 H   0  0  0  0  0  0  0  0  0  0  0  0
  147.2855  132.9457  153.2682 H   0  0  0  0  0  0  0  0  0  0  0  0
  147.7163  132.0262  151.8896 H   0  0  0  0  0  0  0  0  0  0  0  0
  146.2888  131.8200  150.0099 H   0  0  0  0  0  0  0  0  0  0  0  0
  145.5049  130.6216  151.0178 H   0  0  0  0  0  0  0  0  0  0  0  0
  144.0403  131.2749  149.1334 H   0  0  0  0  0  0  0  0  0  0  0  0
  143.3026  131.6981  150.6632 H   0  0  0  0  0  0  0  0  0  0  0  0
  144.8624  133.6011  148.8371 H   0  0  0  0  0  0  0  0  0  0  0  0
  143.1254  133.5933  149.0611 H   0  0  0  0  0  0  0  0  0  0  0  0
  144.2065  135.3254  150.4540 H   0  0  0  0  0  0  0  0  0  0  0  0
  143.3588  134.1567  151.4325 H   0  0  0  0  0  0  0  0  0  0  0  0
  146.3811  134.2978  150.9925 H   0  0  0  0  0  0  0  0  0  0  0  0
  144.5215  135.3073  153.0411 H   0  0  0  0  0  0  0  0  0  0  0  0
  145.6897  134.2694  153.7914 H   0  0  0  0  0  0  0  0  0  0  0  0
  147.4488  135.6286  152.5401 H   0  0  0  0  0  0  0  0  0  0  0  0
  148.3621  137.2998  152.9482 H   0  0  0  0  0  0  0  0  0  0  0  0
  146.2006  140.1245  152.7838 H   0  0  0  0  0  0  0  0  0  0  0  0
  146.8682  142.3948  153.5483 H   0  0  0  0  0  0  0  0  0  0  0  0
  148.9679  142.6443  154.8430 H   0  0  0  0  0  0  0  0  0  0  0  0
  151.5194  140.4264  155.0877 H   0  0  0  0  0  0  0  0  0  0  0  0
  150.5714  140.4008  156.5789 H   0  0  0  0  0  0  0  0  0  0  0  0
  150.8374  141.9136  155.7210 H   0  0  0  0  0  0  0  0  0  0  0  0
  144.9006  132.3307  152.5350 H   0  0  0  0  0  0  0  0  0  0  0  0
  1  2  1  0  0  0  0
  1 24  1  0  0  0  0
  1 25  1  0  0  0  0
  1 26  1  0  0  0  0
  2  3  1  0  0  0  0
  2  4  1  0  0  0  0
  2 27  1  0  0  0  0
  3 28  1  0  0  0  0
  3 29  1  0  0  0  0
  3 30  1  0  0  0  0
  4  5  1  0  0  0  0
  4 31  1  0  0  0  0
  4 32  1  0  0  0  0
  5 10  1  0  0  0  0
  5  6  1  0  0  0  0
  5 52  1  0  0  0  0
  6  7  1  0  0  0  0
  6 33  1  0  0  0  0
  6 34  1  0  0  0  0
  7  8  1  0  0  0  0
  7 35  1  0  0  0  0
  7 36  1  0  0  0  0
  8  9  1  0  0  0  0
  8 37  1  0  0  0  0
  8 38  1  0  0  0  0
  9 10  1  0  0  0  0
  9 39  1  0  0  0  0
  9 40  1  0  0  0  0
 10 11  1  0  0  0  0
 10 41  1  0  0  0  0
 11 12  1  0  0  0  0
 11 42  1  0  0  0  0
 11 43  1  0  0  0  0
 12 13  1  0  0  0  0
 12 44  1  0  0  0  0
 13 14  2  0  0  0  0
 13 15  1  0  0  0  0
 15 16  1  0  0  0  0
 15 45  1  0  0  0  0
 16 22  1  0  0  0  0
 16 17  2  0  0  0  0
 17 18  1  0  0  0  0
 17 46  1  0  0  0  0
 18 19  2  0  0  0  0
 18 47  1  0  0  0  0
 19 20  1  0  0  0  0
 19 48  1  0  0  0  0
 20 21  1  0  0  0  0
 20 22  1  0  0  0  0
 21 49  1  0  0  0  0
 21 50  1  0  0  0  0
 21 51  1  0  0  0  0
 22 23  2  0  0  0  0
M  CHG  1   5   1
M  END
> <s_m_source_file>
AV-unprocessed.smi

> <i_m_source_file_index>
2799

> <i_lp_mmshare_version>
43012

> <i_f3d_flags>
0

> <s_epik_input>
W0NIM11bQ0hdKFtDSDNdKVtDSDJdTjFbQ0gyXVtDSDJdW0NIMl1bQ0gyXVtDQEhdMVtDSDJdW05IXUMoPU8pW05IXWMyW2NIXVtjSF1bY0hdbihbQ0gzXSljMj1P

> <s_epik_cmdline>
J2VwaWtfcHl0aG9uJywgJy1waCcsICc3LjAnLCAnLXRuJywgJzgnLCAnLW1hJywgJzIwMCcsICctbWV0YWxfYmluZGluZycsICctaW1hZScsICc8aW5maWxlLm1hZT4nLCAnLW9tYWUnLCAnPG91dGZpbGUubWFlPic=

> <r_lp_tautomer_probability>
1

> <r_epik_Ionization_Penalty>
0.0010885

> <r_epik_Ionization_Penalty_Charging>
0.00106921

> <r_epik_Ionization_Penalty_Neutral>
1.92865e-05

> <r_epik_State_Penalty>
0.000697184

> <r_epik_Charging_Adjusted_Penalty>
0.0017664

> <i_epik_Tot_Q>
1

> <i_epik_Tot_abs_Q>
1

> <r_epik_Metal_State_Penalty>
-0

> <b_epik_Metal_Only>
0

> <s_lp_Force_Field>
OPLS_2005

> <r_lp_Energy>
37.4199

> <b_lp_Chiralities_Consistent>
1

> <s_lp_Variant>
AV-unprocessed.smi:2799-1

> <Gold.Version>
5.8.1

> <Gold.Id.Protein>
6NUR|6NUR_protein|mol2

> <Gold.PLP.Fitness>
44.6003

> <Gold.PLP.PLP>
-39.0105

> <Gold.PLP.part.hbond>
-2.0000

> <Gold.PLP.part.metal>
0.0000

> <Gold.PLP.part.buried>
-1.7027

> <Gold.PLP.part.nonpolar>
-35.5528

> <Gold.PLP.part.repulsive>
0.3258

> <Gold.PLP.ligand.clash>
0.0000

> <Gold.PLP.ligand.torsion>
1.6713

> <Gold.PLP.Chemscore.Hbond>
1.9200

> <Gold.PLP.Chemscore.CHOScore>
1.0000

> <Gold.PLP.Chemscore.Metal>
0.0000

> <Gold.Chemscore.Hbonds>
donor molecule, donor type, donor heavy atom, donor atom, acceptor molecule, acceptor atom, score
      L1  H    12    44       P1  7948  0.91
      L1  H    15    45       P1  7948  0.98
      L1  C    19    48       P1  8028  1.00

> <Gold.PLP.Chemscore.Internal.Correction>
0.1725

> <Gold.Rescore>
     Score         DG    S(hbond)    S(metal)    S(lipo)     H(rot)  DE(clash)    DE(int)     intcor
     18.07     -20.09       1.93        0.00     104.14       1.57       0.23       1.79       ----

> <Gold.Chemscore.Fitness>
18.0671

> <Gold.Chemscore.DG>
-20.0897

> <Gold.Chemscore.ZeroCoef>
-5.4800

> <Gold.Chemscore.Hbond>
1.9285

> <Gold.Chemscore.Metal>
0.0000

> <Gold.Chemscore.Lipo>
104.1431

> <Gold.Chemscore.Internal_Hbond>
0.0000

> <Gold.Chemscore.DEClash>
0.2311

> <Gold.Chemscore.DEInternal>
1.7916

> <Gold.Chemscore.Rot>
1.5688

> <Gold.Chemscore.Internal.Correction>
   9.000000E+99

> <Gold.Chemscore.Hbonds>
donor molecule, donor type, donor heavy atom, donor atom, acceptor molecule, acceptor atom, score
      L1  H    12    44       P1  7948  0.90
      L1  H    15    45       P1  7948  0.93

> <Gold.Chemscore.Hbond.Weighted>
-6.4410

> <Gold.Chemscore.Metal.Weighted>
-0.0000

> <Gold.Chemscore.Lipo.Weighted>
-12.1847

> <Gold.Chemscore.Internal_Hbond.Weighted>
0.0000

> <Gold.Chemscore.DEClash.Weighted>
0.2311

> <Gold.Chemscore.DEInternal.Weighted>
1.7916

> <Gold.Chemscore.Rot.Weighted>
4.0161

> <Gold.Chemscore.Internal.Correction.Weighted>
   9.000000E+99

> <Gold.Protein.RotatedTorsions>
[ 6907 6896 6895 6894 ] final  115.31 input  -60.11 | X-H torsion
[ 7974 7965 7964 7962 ] final -145.00 input  175.53 | X-H torsion
[ 8008 7997 7996 7995 ] final  -53.89 input   59.86 | X-H torsion
[ 10167 10162 10161 10158 ] final  -85.38 input  -65.29 | X-H torsion
[ 10718 10713 10712 10709 ] final  109.91 input   66.30 | X-H torsion
[ 10763 10752 10751 10750 ] final   -1.40 input  -60.55 | X-H torsion
[ 11005 11000 10999 10996 ] final -172.60 input  -57.11 | X-H torsion

> <Gold.Protein.ActiveResidues>
 VAL166  LYS551  ARG553  GLY616  TRP617  ASP618  TYR619  PRO620  LYS621  CYS622 
 ASP623  PHE694  ASN695  SER759  ASP760  ASP761  ALA762  ILE779  LEU786  VAL792 
 PHE793  MET794  SER795  GLU796  ALA797  LYS798  CYS799  TRP800  GLU811  SER814 

> <Gold.Protein.RotatedAtoms>
  152.4749  133.8116  159.7005 H   0  0  0  0  0  0  0  0  0  0  0  0  # atno 6907 bound_to 6896
  150.8760  133.7428  159.2953 H   0  0  0  0  0  0  0  0  0  0  0  0  # atno 6908 bound_to 6896
  151.4948  135.1062  159.9865 H   0  0  0  0  0  0  0  0  0  0  0  0  # atno 6909 bound_to 6896
  144.8258  140.5639  143.5548 H   0  0  0  0  0  0  0  0  0  0  0  0  # atno 7974 bound_to 7965
  154.4146  140.1189  156.5227 H   0  0  0  0  0  0  0  0  0  0  0  0  # atno 8008 bound_to 7997
  155.6686  140.3496  155.4790 H   0  0  0  0  0  0  0  0  0  0  0  0  # atno 8009 bound_to 7997
  155.9652  140.1130  157.0851 H   0  0  0  0  0  0  0  0  0  0  0  0  # atno 8010 bound_to 7997
  140.4043  143.2649  151.9101 H   0  0  0  0  0  0  0  0  0  0  0  0  # atno 10167 bound_to 10162
  157.6519  131.0923  150.6524 H   0  0  0  0  0  0  0  0  0  0  0  0  # atno 10718 bound_to 10713
  153.3443  135.6982  153.6841 H   0  0  0  0  0  0  0  0  0  0  0  0  # atno 10763 bound_to 10752
  153.5593  135.3538  155.2793 H   0  0  0  0  0  0  0  0  0  0  0  0  # atno 10764 bound_to 10752
  154.8642  135.4245  154.2664 H   0  0  0  0  0  0  0  0  0  0  0  0  # atno 10765 bound_to 10752
  140.4951  134.5947  157.4968 H   0  0  0  0  0  0  0  0  0  0  0  0  # atno 11005 bound_to 11000
  145.5004  139.1483  143.3660 LP  0  0  0  0  0  0  0  0  0  0  0  0  # atno 17320 bound_to 7965
  146.2563  140.5144  142.8872 LP  0  0  0  0  0  0  0  0  0  0  0  0  # atno 17321 bound_to 7965
  139.4784  144.5602  151.8251 LP  0  0  0  0  0  0  0  0  0  0  0  0  # atno 17342 bound_to 10162
  140.4706  144.1592  150.5917 LP  0  0  0  0  0  0  0  0  0  0  0  0  # atno 17343 bound_to 10162
  156.6834  130.4574  149.5621 LP  0  0  0  0  0  0  0  0  0  0  0  0  # atno 17370 bound_to 10713
  156.1913  130.6561  151.1064 LP  0  0  0  0  0  0  0  0  0  0  0  0  # atno 17371 bound_to 10713
  139.9746  134.7237  155.9975 LP  0  0  0  0  0  0  0  0  0  0  0  0  # atno 17394 bound_to 11000
  141.1464  133.6555  156.3880 LP  0  0  0  0  0  0  0  0  0  0  0  0  # atno 17395 bound_to 11000

$$$$
