AV-unprocessed.smi:2061|AV-procd|sdf|8360|dock9
  -GOLD-   2272011 33D 1   1.00000     0.00000
 Structure written by MMmdl.
 45 46  0  0  0  0  0  0  0  0  1 V2000
  148.6492  131.5520  154.9234 C   0  0  0  0  0  0  0  0  0  0  0  0
  149.1735  132.8621  155.4025 C   0  0  0  0  0  0  0  0  0  0  0  0
  149.0058  134.1473  154.9687 C   0  0  0  0  0  0  0  0  0  0  0  0
  149.7908  134.8987  155.8834 C   0  0  0  0  0  0  0  0  0  0  0  0
  149.8850  136.3099  155.7744 N   0  0  0  0  0  0  0  0  0  0  0  0
  150.9321  137.0880  156.0982 C   0  0  0  0  0  0  0  0  0  0  0  0
  152.0027  136.6804  156.5498 O   0  0  0  0  0  0  0  0  0  0  0  0
  150.6686  138.3821  155.8615 N   0  0  0  0  0  0  0  0  0  0  0  0
  151.5885  139.4933  156.0982 C   0  0  0  0  0  0  0  0  0  0  0  0
  150.8957  140.7368  156.7249 C   0  0  2  0  0  0  0  0  0  0  0  0
  150.1424  141.5126  155.6141 C   0  0  0  0  0  0  0  0  0  0  0  0
  151.8295  141.5955  157.4918 N   0  0  0  0  0  0  0  0  0  0  0  0
  152.1957  141.0196  158.7906 C   0  0  0  0  0  0  0  0  0  0  0  0
  153.1506  141.9182  159.6002 C   0  0  2  0  0  0  0  0  0  0  0  0
  153.4535  141.3407  160.9868 C   0  0  0  0  0  0  0  0  0  0  0  0
  152.5558  143.1981  159.7730 O   0  0  0  0  0  0  0  0  0  0  0  0
  152.2583  143.8335  158.5366 C   0  0  2  0  0  0  0  0  0  0  0  0
  151.6593  145.2119  158.8356 C   0  0  0  0  0  0  0  0  0  0  0  0
  151.2959  142.9410  157.7303 C   0  0  0  0  0  0  0  0  0  0  0  0
  150.3832  134.1407  156.7934 N   0  0  0  0  0  0  0  0  0  0  0  0
  149.9906  132.8319  156.4900 O   0  0  0  0  0  0  0  0  0  0  0  0
  148.0428  131.6790  154.0265 H   0  0  0  0  0  0  0  0  0  0  0  0
  148.0292  131.0817  155.6867 H   0  0  0  0  0  0  0  0  0  0  0  0
  149.4672  130.8719  154.6852 H   0  0  0  0  0  0  0  0  0  0  0  0
  148.4168  134.4909  154.1314 H   0  0  0  0  0  0  0  0  0  0  0  0
  149.0679  136.7761  155.4098 H   0  0  0  0  0  0  0  0  0  0  0  0
  149.7618  138.6204  155.4875 H   0  0  0  0  0  0  0  0  0  0  0  0
  152.3433  139.0839  156.7670 H   0  0  0  0  0  0  0  0  0  0  0  0
  152.1127  139.7820  155.1857 H   0  0  0  0  0  0  0  0  0  0  0  0
  150.1395  140.3632  157.4170 H   0  0  0  0  0  0  0  0  0  0  0  0
  149.4775  140.8716  155.0370 H   0  0  0  0  0  0  0  0  0  0  0  0
  150.8393  141.9763  154.9154 H   0  0  0  0  0  0  0  0  0  0  0  0
  149.4966  142.2923  156.0155 H   0  0  0  0  0  0  0  0  0  0  0  0
  151.2943  140.8258  159.3742 H   0  0  0  0  0  0  0  0  0  0  0  0
  152.6997  140.0645  158.6580 H   0  0  0  0  0  0  0  0  0  0  0  0
  154.0904  142.0339  159.0573 H   0  0  0  0  0  0  0  0  0  0  0  0
  153.9269  140.3616  160.9094 H   0  0  0  0  0  0  0  0  0  0  0  0
  152.5422  141.2270  161.5748 H   0  0  0  0  0  0  0  0  0  0  0  0
  154.1287  141.9930  161.5411 H   0  0  0  0  0  0  0  0  0  0  0  0
  153.1847  143.9711  157.9760 H   0  0  0  0  0  0  0  0  0  0  0  0
  151.4248  145.7458  157.9143 H   0  0  0  0  0  0  0  0  0  0  0  0
  152.3580  145.8250  159.4052 H   0  0  0  0  0  0  0  0  0  0  0  0
  150.7407  145.1264  159.4166 H   0  0  0  0  0  0  0  0  0  0  0  0
  151.1078  143.4505  156.7874 H   0  0  0  0  0  0  0  0  0  0  0  0
  150.3391  142.8710  158.2503 H   0  0  0  0  0  0  0  0  0  0  0  0
  1  2  1  0  0  0  0
  1 22  1  0  0  0  0
  1 23  1  0  0  0  0
  1 24  1  0  0  0  0
  2 21  1  0  0  0  0
  2  3  2  0  0  0  0
  3  4  1  0  0  0  0
  3 25  1  0  0  0  0
  4  5  1  0  0  0  0
  4 20  2  0  0  0  0
  5  6  1  0  0  0  0
  5 26  1  0  0  0  0
  6  7  2  0  0  0  0
  6  8  1  0  0  0  0
  8  9  1  0  0  0  0
  8 27  1  0  0  0  0
  9 10  1  0  0  0  0
  9 28  1  0  0  0  0
  9 29  1  0  0  0  0
 10 11  1  0  0  0  0
 10 12  1  0  0  0  0
 10 30  1  0  0  0  0
 11 31  1  0  0  0  0
 11 32  1  0  0  0  0
 11 33  1  0  0  0  0
 12 19  1  0  0  0  0
 12 13  1  0  0  0  0
 13 14  1  0  0  0  0
 13 34  1  0  0  0  0
 13 35  1  0  0  0  0
 14 15  1  0  0  0  0
 14 16  1  0  0  0  0
 14 36  1  0  0  0  0
 15 37  1  0  0  0  0
 15 38  1  0  0  0  0
 15 39  1  0  0  0  0
 16 17  1  0  0  0  0
 17 18  1  0  0  0  0
 17 19  1  0  0  0  0
 17 40  1  0  0  0  0
 18 41  1  0  0  0  0
 18 42  1  0  0  0  0
 18 43  1  0  0  0  0
 19 44  1  0  0  0  0
 19 45  1  0  0  0  0
 20 21  1  0  0  0  0
M  END
> <s_m_source_file>
AV-unprocessed.smi

> <i_m_source_file_index>
2061

> <i_lp_mmshare_version>
43012

> <i_f3d_flags>
0

> <s_epik_input>
W0NIM11jMVtjSF1jKG5vMSlbTkhdQyg9TylbTkhdW0NIMl1bQ0BIXShbQ0gzXSlOMltDSDJdW0NAQEhdKFtDSDNdKU9bQ0BASF0oW0NIM10pW0NIMl0y

> <s_epik_cmdline>
J2VwaWtfcHl0aG9uJywgJy1waCcsICc3LjAnLCAnLXRuJywgJzgnLCAnLW1hJywgJzIwMCcsICctbWV0YWxfYmluZGluZycsICctaW1hZScsICc8aW5maWxlLm1hZT4nLCAnLW9tYWUnLCAnPG91dGZpbGUubWFlPic=

> <r_epik_Ionization_Penalty>
0.214073

> <r_epik_Ionization_Penalty_Charging>
0

> <r_epik_Ionization_Penalty_Neutral>
0.214073

> <r_epik_State_Penalty>
0.204211

> <r_epik_Charging_Adjusted_Penalty>
0.204211

> <i_epik_Tot_Q>
0

> <i_epik_Tot_abs_Q>
0

> <r_epik_Metal_State_Penalty>
0.217067

> <b_epik_Metal_Only>
0

> <s_lp_Force_Field>
OPLS_2005

> <r_lp_Energy>
26.137

> <b_lp_Chiralities_Consistent>
1

> <s_lp_Variant>
AV-unprocessed.smi:2061-1

> <Gold.Version>
5.8.1

> <Gold.Id.Protein>
6NUR|6NUR_protein|mol2

> <Gold.PLP.Fitness>
41.7892

> <Gold.PLP.PLP>
-40.5914

> <Gold.PLP.part.hbond>
-1.0000

> <Gold.PLP.part.metal>
0.0000

> <Gold.PLP.part.buried>
-4.6150

> <Gold.PLP.part.nonpolar>
-35.6099

> <Gold.PLP.part.repulsive>
0.1408

> <Gold.PLP.ligand.clash>
0.0000

> <Gold.PLP.ligand.torsion>
0.8815

> <Gold.PLP.Chemscore.Hbond>
0.9760

> <Gold.PLP.Chemscore.CHOScore>
0.0000

> <Gold.PLP.Chemscore.Metal>
0.0000

> <Gold.Chemscore.Hbonds>
donor molecule, donor type, donor heavy atom, donor atom, acceptor molecule, acceptor atom, score
      P1  H 10752 10764       L1     7  0.46

> <Gold.PLP.Chemscore.Internal.Correction>
0.0328

> <Gold.Rescore>
     Score         DG    S(hbond)    S(metal)    S(lipo)     H(rot)  DE(clash)    DE(int)     intcor
     14.21     -16.04       0.96        0.00      96.72       1.55       0.01       1.81       ----

> <Gold.Chemscore.Fitness>
14.2129

> <Gold.Chemscore.DG>
-16.0387

> <Gold.Chemscore.ZeroCoef>
-5.4800

> <Gold.Chemscore.Hbond>
0.9593

> <Gold.Chemscore.Metal>
0.0000

> <Gold.Chemscore.Lipo>
96.7185

> <Gold.Chemscore.Internal_Hbond>
0.0000

> <Gold.Chemscore.DEClash>
0.0149

> <Gold.Chemscore.DEInternal>
1.8110

> <Gold.Chemscore.Rot>
1.5474

> <Gold.Chemscore.Internal.Correction>
   9.000000E+99

> <Gold.Chemscore.Hbonds>
donor molecule, donor type, donor heavy atom, donor atom, acceptor molecule, acceptor atom, score
      P1  H 10752 10764       L1     7  0.34

> <Gold.Chemscore.Hbond.Weighted>
-3.2039

> <Gold.Chemscore.Metal.Weighted>
-0.0000

> <Gold.Chemscore.Lipo.Weighted>
-11.3161

> <Gold.Chemscore.Internal_Hbond.Weighted>
0.0000

> <Gold.Chemscore.DEClash.Weighted>
0.0149

> <Gold.Chemscore.DEInternal.Weighted>
1.8110

> <Gold.Chemscore.Rot.Weighted>
3.9612

> <Gold.Chemscore.Internal.Correction.Weighted>
   9.000000E+99

> <Gold.Protein.RotatedTorsions>
[ 6907 6896 6895 6894 ] final  120.00 input  -60.11 | X-H torsion
[ 7974 7965 7964 7962 ] final   12.56 input  175.53 | X-H torsion
[ 8008 7997 7996 7995 ] final  118.46 input   59.86 | X-H torsion
[ 10167 10162 10161 10158 ] final   46.62 input  -65.29 | X-H torsion
[ 10718 10713 10712 10709 ] final  -23.66 input   66.30 | X-H torsion
[ 10763 10752 10751 10750 ] final  -36.45 input  -60.55 | X-H torsion
[ 11005 11000 10999 10996 ] final  -95.47 input  -57.11 | X-H torsion

> <Gold.Protein.ActiveResidues>
 VAL166  LYS551  ARG553  GLY616  TRP617  ASP618  TYR619  PRO620  LYS621  CYS622 
 ASP623  PHE694  ASN695  SER759  ASP760  ASP761  ALA762  ILE779  LEU786  VAL792 
 PHE793  MET794  SER795  GLU796  ALA797  LYS798  CYS799  TRP800  GLU811  SER814 

> <Gold.Protein.RotatedAtoms>
  152.4431  133.7484  159.6680 H   0  0  0  0  0  0  0  0  0  0  0  0  # atno 6907 bound_to 6896
  150.8325  133.8057  159.3099 H   0  0  0  0  0  0  0  0  0  0  0  0  # atno 6908 bound_to 6896
  151.5707  135.1065  160.0046 H   0  0  0  0  0  0  0  0  0  0  0  0  # atno 6909 bound_to 6896
  146.2348  139.9318  142.8495 H   0  0  0  0  0  0  0  0  0  0  0  0  # atno 7974 bound_to 7965
  156.2547  140.2874  156.0838 H   0  0  0  0  0  0  0  0  0  0  0  0  # atno 8008 bound_to 7997
  155.1537  140.0398  157.2844 H   0  0  0  0  0  0  0  0  0  0  0  0  # atno 8009 bound_to 7997
  154.6442  140.2529  155.7293 H   0  0  0  0  0  0  0  0  0  0  0  0  # atno 8010 bound_to 7997
  140.3120  144.2808  150.6198 H   0  0  0  0  0  0  0  0  0  0  0  0  # atno 10167 bound_to 10162
  156.4880  130.4560  149.6772 H   0  0  0  0  0  0  0  0  0  0  0  0  # atno 10718 bound_to 10713
  153.8800  135.6822  153.4768 H   0  0  0  0  0  0  0  0  0  0  0  0  # atno 10763 bound_to 10752
  153.1239  135.4727  154.9238 H   0  0  0  0  0  0  0  0  0  0  0  0  # atno 10764 bound_to 10752
  154.7673  135.3228  154.8211 H   0  0  0  0  0  0  0  0  0  0  0  0  # atno 10765 bound_to 10752
  141.1441  133.8028  157.0439 H   0  0  0  0  0  0  0  0  0  0  0  0  # atno 11005 bound_to 11000
  145.2037  140.9865  143.4141 LP  0  0  0  0  0  0  0  0  0  0  0  0  # atno 17320 bound_to 7965
  144.9751  139.3840  143.6289 LP  0  0  0  0  0  0  0  0  0  0  0  0  # atno 17321 bound_to 7965
  140.5559  143.2199  151.7848 LP  0  0  0  0  0  0  0  0  0  0  0  0  # atno 17342 bound_to 10162
  139.4892  144.4414  151.9760 LP  0  0  0  0  0  0  0  0  0  0  0  0  # atno 17343 bound_to 10162
  156.3455  130.7404  151.2356 LP  0  0  0  0  0  0  0  0  0  0  0  0  # atno 17370 bound_to 10713
  157.7477  131.0392  150.4538 LP  0  0  0  0  0  0  0  0  0  0  0  0  # atno 17371 bound_to 10713
  140.0675  134.9721  157.1410 LP  0  0  0  0  0  0  0  0  0  0  0  0  # atno 17394 bound_to 11000
  140.3759  134.2340  155.7174 LP  0  0  0  0  0  0  0  0  0  0  0  0  # atno 17395 bound_to 11000

$$$$
