AV-unprocessed.smi:525|AV-procd|sdf|2808|dock5
  -GOLD-   2262023283D 1   1.00000     0.00000
 Structure written by MMmdl.
 43 45  0  0  0  0  0  0  0  0  1 V2000
  153.0034  138.5569  154.8182 C   0  0  0  0  0  0  0  0  0  0  0  0
  153.2392  138.8833  156.1790 O   0  0  0  0  0  0  0  0  0  0  0  0
  152.4788  138.1035  157.0906 C   0  0  0  0  0  0  0  0  0  0  0  0
  151.9009  138.9528  158.2364 C   0  0  0  0  0  0  0  0  0  0  0  0
  151.4510  140.2599  157.7771 N   0  0  0  0  0  0  0  0  0  0  0  0
  150.6050  140.5556  156.7580 C   0  0  0  0  0  0  0  0  0  0  0  0
  149.8659  139.2908  155.7661 S   0  0  0  0  0  0  0  0  0  0  0  0
  148.2745  140.0800  155.3409 C   0  0  1  0  0  0  0  0  0  0  0  0
  148.4169  141.4569  154.6728 C   0  0  0  0  0  0  0  0  0  0  0  0
  147.6544  142.4432  155.1517 N   0  0  0  0  0  0  0  0  0  0  0  0
  149.2016  141.6335  153.7430 O   0  0  0  0  0  0  0  0  0  0  0  0
  147.4717  139.1478  154.4397 C   0  0  0  0  0  0  0  0  0  0  0  0
  146.9758  137.9155  154.9253 C   0  0  0  0  0  0  0  0  0  0  0  0
  146.2335  137.0649  154.0836 C   0  0  0  0  0  0  0  0  0  0  0  0
  145.9803  137.4391  152.7504 C   0  0  0  0  0  0  0  0  0  0  0  0
  146.4709  138.6639  152.2593 C   0  0  0  0  0  0  0  0  0  0  0  0
  147.2134  139.5152  153.1007 C   0  0  0  0  0  0  0  0  0  0  0  0
  150.3608  141.8553  156.5757 N   0  0  0  0  0  0  0  0  0  0  0  0
  151.1313  142.4553  157.5505 C   0  0  0  0  0  0  0  0  0  0  0  0
  151.3120  143.8206  157.8684 C   0  0  0  0  0  0  0  0  0  0  0  0
  152.1641  144.1997  158.9264 C   0  0  0  0  0  0  0  0  0  0  0  0
  152.8447  143.2215  159.6801 C   0  0  0  0  0  0  0  0  0  0  0  0
  152.6773  141.8560  159.3797 C   0  0  0  0  0  0  0  0  0  0  0  0
  151.8267  141.4835  158.3217 C   0  0  0  0  0  0  0  0  0  0  0  0
  153.5936  139.2117  154.1773 H   0  0  0  0  0  0  0  0  0  0  0  0
  151.9556  138.6814  154.5455 H   0  0  0  0  0  0  0  0  0  0  0  0
  153.2972  137.5285  154.6055 H   0  0  0  0  0  0  0  0  0  0  0  0
  151.6879  137.5582  156.5733 H   0  0  0  0  0  0  0  0  0  0  0  0
  153.1423  137.3467  157.5098 H   0  0  0  0  0  0  0  0  0  0  0  0
  151.0869  138.4346  158.7415 H   0  0  0  0  0  0  0  0  0  0  0  0
  152.6686  139.1078  158.9950 H   0  0  0  0  0  0  0  0  0  0  0  0
  147.7217  140.2034  156.2733 H   0  0  0  0  0  0  0  0  0  0  0  0
  147.7085  143.3656  154.7450 H   0  0  0  0  0  0  0  0  0  0  0  0
  147.0233  142.2603  155.9184 H   0  0  0  0  0  0  0  0  0  0  0  0
  147.1647  137.6182  155.9467 H   0  0  0  0  0  0  0  0  0  0  0  0
  145.8584  136.1252  154.4614 H   0  0  0  0  0  0  0  0  0  0  0  0
  145.4109  136.7869  152.1049 H   0  0  0  0  0  0  0  0  0  0  0  0
  146.2781  138.9506  151.2359 H   0  0  0  0  0  0  0  0  0  0  0  0
  147.5849  140.4518  152.7117 H   0  0  0  0  0  0  0  0  0  0  0  0
  150.7947  144.5772  157.2973 H   0  0  0  0  0  0  0  0  0  0  0  0
  152.2962  145.2457  159.1607 H   0  0  0  0  0  0  0  0  0  0  0  0
  153.4958  143.5197  160.4888 H   0  0  0  0  0  0  0  0  0  0  0  0
  153.1977  141.1042  159.9540 H   0  0  0  0  0  0  0  0  0  0  0  0
  1  2  1  0  0  0  0
  1 25  1  0  0  0  0
  1 26  1  0  0  0  0
  1 27  1  0  0  0  0
  2  3  1  0  0  0  0
  3  4  1  0  0  0  0
  3 28  1  0  0  0  0
  3 29  1  0  0  0  0
  4  5  1  0  0  0  0
  4 30  1  0  0  0  0
  4 31  1  0  0  0  0
  5 24  1  0  0  0  0
  5  6  1  0  0  0  0
  6  7  1  0  0  0  0
  6 18  2  0  0  0  0
  7  8  1  0  0  0  0
  8  9  1  0  0  0  0
  8 12  1  0  0  0  0
  8 32  1  0  0  0  0
  9 10  1  0  0  0  0
  9 11  2  0  0  0  0
 10 33  1  0  0  0  0
 10 34  1  0  0  0  0
 12 17  1  0  0  0  0
 12 13  2  0  0  0  0
 13 14  1  0  0  0  0
 13 35  1  0  0  0  0
 14 15  2  0  0  0  0
 14 36  1  0  0  0  0
 15 16  1  0  0  0  0
 15 37  1  0  0  0  0
 16 17  2  0  0  0  0
 16 38  1  0  0  0  0
 17 39  1  0  0  0  0
 18 19  1  0  0  0  0
 19 24  2  0  0  0  0
 19 20  1  0  0  0  0
 20 21  2  0  0  0  0
 20 40  1  0  0  0  0
 21 22  1  0  0  0  0
 21 41  1  0  0  0  0
 22 23  2  0  0  0  0
 22 42  1  0  0  0  0
 23 24  1  0  0  0  0
 23 43  1  0  0  0  0
M  END
> <s_m_source_file>
AV-unprocessed.smi

> <i_m_source_file_index>
525

> <i_lp_mmshare_version>
43012

> <i_f3d_flags>
0

> <s_epik_input>
W2NIXTFbY0hdW2NIXVtjSF1jKGMxMiluKFtDSDJdW0NIMl1PW0NIM10pYyhuMilTW0NASF0oQyg9TylbTkgyXSljM1tjSF1bY0hdW2NIXVtjSF1bY0hdMw==

> <s_epik_cmdline>
J2VwaWtfcHl0aG9uJywgJy1waCcsICc3LjAnLCAnLXRuJywgJzgnLCAnLW1hJywgJzIwMCcsICctbWV0YWxfYmluZGluZycsICctaW1hZScsICc8aW5maWxlLm1hZT4nLCAnLW9tYWUnLCAnPG91dGZpbGUubWFlPic=

> <r_epik_Ionization_Penalty>
0.0706634

> <r_epik_Ionization_Penalty_Charging>
0

> <r_epik_Ionization_Penalty_Neutral>
0.0706634

> <r_epik_State_Penalty>
0.0619781

> <r_epik_Charging_Adjusted_Penalty>
0.0619781

> <i_epik_Tot_Q>
0

> <i_epik_Tot_abs_Q>
0

> <r_epik_Metal_State_Penalty>
0.0552401

> <b_epik_Metal_Only>
0

> <s_lp_Force_Field>
OPLS_2005

> <r_lp_Energy>
10.3034

> <b_lp_Chiralities_Consistent>
1

> <s_lp_Variant>
AV-unprocessed.smi:525-2

> <Gold.Version>
5.8.1

> <Gold.Id.Protein>
6NUR|6NUR_protein|mol2

> <Gold.PLP.Fitness>
48.1749

> <Gold.PLP.PLP>
-44.4803

> <Gold.PLP.part.hbond>
-3.7288

> <Gold.PLP.part.metal>
0.0000

> <Gold.PLP.part.buried>
-4.4876

> <Gold.PLP.part.nonpolar>
-37.8389

> <Gold.PLP.part.repulsive>
0.6717

> <Gold.PLP.ligand.clash>
0.0248

> <Gold.PLP.ligand.torsion>
1.3545

> <Gold.PLP.Chemscore.Hbond>
2.0720

> <Gold.PLP.Chemscore.CHOScore>
0.0000

> <Gold.PLP.Chemscore.Metal>
0.0000

> <Gold.Chemscore.Hbonds>
donor molecule, donor type, donor heavy atom, donor atom, acceptor molecule, acceptor atom, score
      L1  H    10    33       P1  8028  0.38
      P1  H  7997  8010       L1     2  1.00
      P1  H  8011  8017       L1    11  0.69

> <Gold.PLP.Chemscore.Internal.Correction>
0.2124

> <Gold.Rescore>
     Score         DG    S(hbond)    S(metal)    S(lipo)     H(rot)  DE(clash)    DE(int)     intcor
     14.44     -18.31       1.74        0.00     113.47       2.44       0.22       3.65       ----

> <Gold.Chemscore.Fitness>
14.4395

> <Gold.Chemscore.DG>
-18.3120

> <Gold.Chemscore.ZeroCoef>
-5.4800

> <Gold.Chemscore.Hbond>
1.7370

> <Gold.Chemscore.Metal>
0.0000

> <Gold.Chemscore.Lipo>
113.4696

> <Gold.Chemscore.Internal_Hbond>
0.0000

> <Gold.Chemscore.DEClash>
0.2228

> <Gold.Chemscore.DEInternal>
3.6497

> <Gold.Chemscore.Rot>
2.4396

> <Gold.Chemscore.Internal.Correction>
   9.000000E+99

> <Gold.Chemscore.Hbonds>
donor molecule, donor type, donor heavy atom, donor atom, acceptor molecule, acceptor atom, score
      L1  H    10    33       P1  8028  0.19
      P1  H  7997  8010       L1     2  0.68
      P1  H  8011  8017       L1    11  0.70

> <Gold.Chemscore.Hbond.Weighted>
-5.8015

> <Gold.Chemscore.Metal.Weighted>
-0.0000

> <Gold.Chemscore.Lipo.Weighted>
-13.2759

> <Gold.Chemscore.Internal_Hbond.Weighted>
0.0000

> <Gold.Chemscore.DEClash.Weighted>
0.2228

> <Gold.Chemscore.DEInternal.Weighted>
3.6497

> <Gold.Chemscore.Rot.Weighted>
6.2454

> <Gold.Chemscore.Internal.Correction.Weighted>
   9.000000E+99

> <Gold.Protein.RotatedTorsions>
[ 6907 6896 6895 6894 ] final  156.39 input  -60.11 | X-H torsion
[ 7974 7965 7964 7962 ] final   13.42 input  175.53 | X-H torsion
[ 8008 7997 7996 7995 ] final   82.39 input   59.86 | X-H torsion
[ 10167 10162 10161 10158 ] final  170.78 input  -65.29 | X-H torsion
[ 10718 10713 10712 10709 ] final  -91.10 input   66.30 | X-H torsion
[ 10763 10752 10751 10750 ] final   11.42 input  -60.55 | X-H torsion
[ 11005 11000 10999 10996 ] final  -22.84 input  -57.11 | X-H torsion

> <Gold.Protein.ActiveResidues>
 VAL166  LYS551  ARG553  GLY616  TRP617  ASP618  TYR619  PRO620  LYS621  CYS622 
 ASP623  PHE694  ASN695  SER759  ASP760  ASP761  ALA762  ILE779  LEU786  VAL792 
 PHE793  MET794  SER795  GLU796  ALA797  LYS798  CYS799  TRP800  GLU811  SER814 

> <Gold.Protein.RotatedAtoms>
  152.0303  133.3934  159.4294 H   0  0  0  0  0  0  0  0  0  0  0  0  # atno 6907 bound_to 6896
  150.6883  134.3528  159.4925 H   0  0  0  0  0  0  0  0  0  0  0  0  # atno 6908 bound_to 6896
  152.1313  134.9132  160.0609 H   0  0  0  0  0  0  0  0  0  0  0  0  # atno 6909 bound_to 6896
  146.2329  139.9191  142.8513 H   0  0  0  0  0  0  0  0  0  0  0  0  # atno 7974 bound_to 7965
  155.9100  140.3428  155.6091 H   0  0  0  0  0  0  0  0  0  0  0  0  # atno 8008 bound_to 7997
  155.7399  140.0806  157.2269 H   0  0  0  0  0  0  0  0  0  0  0  0  # atno 8009 bound_to 7997
  154.4054  140.1572  156.2591 H   0  0  0  0  0  0  0  0  0  0  0  0  # atno 8010 bound_to 7997
  139.5028  144.3558  151.9875 H   0  0  0  0  0  0  0  0  0  0  0  0  # atno 10167 bound_to 10162
  155.9991  130.4935  150.5424 H   0  0  0  0  0  0  0  0  0  0  0  0  # atno 10718 bound_to 10713
  153.1928  135.6845  153.8330 H   0  0  0  0  0  0  0  0  0  0  0  0  # atno 10763 bound_to 10752
  153.7623  135.3208  155.3340 H   0  0  0  0  0  0  0  0  0  0  0  0  # atno 10764 bound_to 10752
  154.8127  135.4706  154.0659 H   0  0  0  0  0  0  0  0  0  0  0  0  # atno 10765 bound_to 10752
  140.8695  133.7731  156.0169 H   0  0  0  0  0  0  0  0  0  0  0  0  # atno 11005 bound_to 11000
  145.2155  140.9913  143.4076 LP  0  0  0  0  0  0  0  0  0  0  0  0  # atno 17320 bound_to 7965
  144.9655  139.3935  143.6335 LP  0  0  0  0  0  0  0  0  0  0  0  0  # atno 17321 bound_to 7965
  140.2995  144.3663  150.6064 LP  0  0  0  0  0  0  0  0  0  0  0  0  # atno 17342 bound_to 10162
  140.5884  143.2169  151.7298 LP  0  0  0  0  0  0  0  0  0  0  0  0  # atno 17343 bound_to 10162
  157.3358  131.0708  151.1826 LP  0  0  0  0  0  0  0  0  0  0  0  0  # atno 17370 bound_to 10713
  157.2691  130.6695  149.6011 LP  0  0  0  0  0  0  0  0  0  0  0  0  # atno 17371 bound_to 10713
  140.8590  134.2863  157.5243 LP  0  0  0  0  0  0  0  0  0  0  0  0  # atno 17394 bound_to 11000
  139.8711  134.9508  156.4066 LP  0  0  0  0  0  0  0  0  0  0  0  0  # atno 17395 bound_to 11000

$$$$
