AV-unprocessed.smi:1762|AV-procd|sdf|7114|dock4
  -GOLD-   22720 8343D 1   1.00000     0.00000
 Structure written by MMmdl.
 53 54  0  0  0  0  0  0  0  0  2 V2000
  148.6874  141.5474  154.5189 C   0  0  0  0  0  0  0  0  0  0  0  0
  149.3016  140.1751  154.8154 C   0  0  1  0  0  0  0  0  0  0  0  0
  148.8279  139.1017  153.8107 C   0  0  0  0  0  0  0  0  0  0  0  0
  149.5002  137.7916  154.0497 N   0  3  2  0  0  0  0  0  0  0  0  0
  148.9704  137.0129  155.2254 C   0  0  1  0  0  0  0  0  0  0  0  0
  147.5674  136.4423  154.9266 C   0  0  0  0  0  0  0  0  0  0  0  0
  146.6323  136.6641  155.6967 O   0  0  0  0  0  0  0  0  0  0  0  0
  147.4392  135.7054  153.8114 N   0  0  0  0  0  0  0  0  0  0  0  0
  146.2048  135.0664  153.3703 C   0  0  0  0  0  0  0  0  0  0  0  0
  146.4116  133.5667  153.0979 C   0  0  0  0  0  0  0  0  0  0  0  0
  145.6441  133.0920  151.8783 C   0  0  0  0  0  0  0  0  0  0  0  0
  146.3240  132.5952  150.7457 C   0  0  0  0  0  0  0  0  0  0  0  0
  145.5629  132.1727  149.6384 C   0  0  0  0  0  0  0  0  0  0  0  0
  144.1592  132.2639  149.7052 C   0  0  0  0  0  0  0  0  0  0  0  0
  143.5762  132.7754  150.8817 C   0  0  0  0  0  0  0  0  0  0  0  0
  144.2966  133.1828  151.9492 N   0  0  0  0  0  0  0  0  0  0  0  0
  149.9320  135.8827  155.7255 C   0  0  0  0  0  0  0  0  0  0  0  0
  151.1387  136.3963  156.5383 C   0  0  0  0  0  0  0  0  0  0  0  0
  150.4127  134.9470  154.5984 C   0  0  0  0  0  0  0  0  0  0  0  0
  150.9719  138.0147  154.0091 C   0  0  0  0  0  0  0  0  0  0  0  0
  151.4039  139.0859  155.0307 C   0  0  1  0  0  0  0  0  0  0  0  0
  152.9090  139.3668  154.9682 C   0  0  0  0  0  0  0  0  0  0  0  0
  150.7180  140.2990  154.7374 O   0  0  0  0  0  0  0  0  0  0  0  0
  147.5997  141.5122  154.5837 H   0  0  0  0  0  0  0  0  0  0  0  0
  148.9520  141.8923  153.5189 H   0  0  0  0  0  0  0  0  0  0  0  0
  149.0377  142.2939  155.2321 H   0  0  0  0  0  0  0  0  0  0  0  0
  149.0223  139.8938  155.8315 H   0  0  0  0  0  0  0  0  0  0  0  0
  147.7418  139.0196  153.8259 H   0  0  0  0  0  0  0  0  0  0  0  0
  149.0758  139.4250  152.7986 H   0  0  0  0  0  0  0  0  0  0  0  0
  148.8616  137.7132  156.0540 H   0  0  0  0  0  0  0  0  0  0  0  0
  148.2530  135.5745  153.2280 H   0  0  0  0  0  0  0  0  0  0  0  0
  145.4194  135.2176  154.1130 H   0  0  0  0  0  0  0  0  0  0  0  0
  145.8712  135.5654  152.4600 H   0  0  0  0  0  0  0  0  0  0  0  0
  147.4730  133.3567  152.9587 H   0  0  0  0  0  0  0  0  0  0  0  0
  146.0946  132.9780  153.9602 H   0  0  0  0  0  0  0  0  0  0  0  0
  147.4024  132.5392  150.7228 H   0  0  0  0  0  0  0  0  0  0  0  0
  146.0473  131.7864  148.7536 H   0  0  0  0  0  0  0  0  0  0  0  0
  143.5438  131.9498  148.8751 H   0  0  0  0  0  0  0  0  0  0  0  0
  142.5030  132.8602  150.9673 H   0  0  0  0  0  0  0  0  0  0  0  0
  149.3576  135.2258  156.3769 H   0  0  0  0  0  0  0  0  0  0  0  0
  151.8253  136.9758  155.9212 H   0  0  0  0  0  0  0  0  0  0  0  0
  151.7057  135.5641  156.9563 H   0  0  0  0  0  0  0  0  0  0  0  0
  150.8329  137.0270  157.3725 H   0  0  0  0  0  0  0  0  0  0  0  0
  151.0991  135.4465  153.9139 H   0  0  0  0  0  0  0  0  0  0  0  0
  149.5728  134.5685  154.0152 H   0  0  0  0  0  0  0  0  0  0  0  0
  150.9390  134.0843  155.0079 H   0  0  0  0  0  0  0  0  0  0  0  0
  151.5408  137.0962  154.1330 H   0  0  0  0  0  0  0  0  0  0  0  0
  151.2278  138.3606  153.0063 H   0  0  0  0  0  0  0  0  0  0  0  0
  151.1571  138.7645  156.0436 H   0  0  0  0  0  0  0  0  0  0  0  0
  153.4854  138.4698  155.1962 H   0  0  0  0  0  0  0  0  0  0  0  0
  153.1919  140.1347  155.6886 H   0  0  0  0  0  0  0  0  0  0  0  0
  153.2063  139.7132  153.9780 H   0  0  0  0  0  0  0  0  0  0  0  0
  149.2852  137.2160  153.2475 H   0  0  0  0  0  0  0  0  0  0  0  0
  1  2  1  0  0  0  0
  1 24  1  0  0  0  0
  1 25  1  0  0  0  0
  1 26  1  0  0  0  0
  2 23  1  0  0  0  0
  2  3  1  0  0  0  0
  2 27  1  0  0  0  0
  3  4  1  0  0  0  0
  3 28  1  0  0  0  0
  3 29  1  0  0  0  0
  4  5  1  0  0  0  0
  4 20  1  0  0  0  0
  4 53  1  0  0  0  0
  5  6  1  0  0  0  0
  5 17  1  0  0  0  0
  5 30  1  0  0  0  0
  6  7  2  0  0  0  0
  6  8  1  0  0  0  0
  8  9  1  0  0  0  0
  8 31  1  0  0  0  0
  9 10  1  0  0  0  0
  9 32  1  0  0  0  0
  9 33  1  0  0  0  0
 10 11  1  0  0  0  0
 10 34  1  0  0  0  0
 10 35  1  0  0  0  0
 11 16  1  0  0  0  0
 11 12  2  0  0  0  0
 12 13  1  0  0  0  0
 12 36  1  0  0  0  0
 13 14  2  0  0  0  0
 13 37  1  0  0  0  0
 14 15  1  0  0  0  0
 14 38  1  0  0  0  0
 15 16  2  0  0  0  0
 15 39  1  0  0  0  0
 17 18  1  0  0  0  0
 17 19  1  0  0  0  0
 17 40  1  0  0  0  0
 18 41  1  0  0  0  0
 18 42  1  0  0  0  0
 18 43  1  0  0  0  0
 19 44  1  0  0  0  0
 19 45  1  0  0  0  0
 19 46  1  0  0  0  0
 20 21  1  0  0  0  0
 20 47  1  0  0  0  0
 20 48  1  0  0  0  0
 21 22  1  0  0  0  0
 21 23  1  0  0  0  0
 21 49  1  0  0  0  0
 22 50  1  0  0  0  0
 22 51  1  0  0  0  0
 22 52  1  0  0  0  0
M  CHG  1   4   1
M  END
> <s_m_source_file>
AV-unprocessed.smi

> <i_m_source_file_index>
1762

> <i_lp_mmshare_version>
43012

> <i_f3d_flags>
0

> <s_epik_input>
W0NIM11bQ0BASF0xW0NIMl1OKFtDSDJdW0NASF0oTzEpW0NIM10pW0NAQEhdKFtDSF0oW0NIM10pW0NIM10pQyg9TylbTkhdW0NIMl1bQ0gyXWMyW2NIXVtjSF1bY0hdW2NIXW4y

> <s_epik_cmdline>
J2VwaWtfcHl0aG9uJywgJy1waCcsICc3LjAnLCAnLXRuJywgJzgnLCAnLW1hJywgJzIwMCcsICctbWV0YWxfYmluZGluZycsICctaW1hZScsICc8aW5maWxlLm1hZT4nLCAnLW9tYWUnLCAnPG91dGZpbGUubWFlPic=

> <r_epik_Ionization_Penalty>
2.27005

> <r_epik_Ionization_Penalty_Charging>
2.24983

> <r_epik_Ionization_Penalty_Neutral>
0.0202209

> <r_epik_State_Penalty>
2.40228

> <r_epik_Charging_Adjusted_Penalty>
4.65211

> <i_epik_Tot_Q>
1

> <i_epik_Tot_abs_Q>
1

> <r_epik_Metal_State_Penalty>
2.40762

> <b_epik_Metal_Only>
0

> <s_lp_Force_Field>
OPLS_2005

> <r_lp_Energy>
25.1603

> <b_lp_Chiralities_Consistent>
1

> <s_lp_Variant>
AV-unprocessed.smi:1762-16

> <Gold.Version>
5.8.1

> <Gold.Id.Protein>
6NUR|6NUR_protein|mol2

> <Gold.PLP.Fitness>
52.2267

> <Gold.PLP.PLP>
-39.5368

> <Gold.PLP.part.hbond>
-3.0000

> <Gold.PLP.part.metal>
0.0000

> <Gold.PLP.part.buried>
-1.2474

> <Gold.PLP.part.nonpolar>
-35.7362

> <Gold.PLP.part.repulsive>
0.2370

> <Gold.PLP.ligand.clash>
0.0000

> <Gold.PLP.ligand.torsion>
1.1053

> <Gold.PLP.Chemscore.Hbond>
3.8320

> <Gold.PLP.Chemscore.CHOScore>
1.0000

> <Gold.PLP.Chemscore.Metal>
0.0000

> <Gold.Chemscore.Hbonds>
donor molecule, donor type, donor heavy atom, donor atom, acceptor molecule, acceptor atom, score
      L1  H     4    53       P1  7948  2.00
      L1  H     8    31       P1  7948  0.82
      P1  H  7989  7998       L1    23  1.00
      L1  C    15    39       P1 10186  0.81

> <Gold.PLP.Chemscore.Internal.Correction>
0.4044

> <Gold.Rescore>
     Score         DG    S(hbond)    S(metal)    S(lipo)     H(rot)  DE(clash)    DE(int)     intcor
     20.29     -22.29       2.46        0.00     109.73       1.66       0.08       1.91       ----

> <Gold.Chemscore.Fitness>
20.2905

> <Gold.Chemscore.DG>
-22.2885

> <Gold.Chemscore.ZeroCoef>
-5.4800

> <Gold.Chemscore.Hbond>
2.4637

> <Gold.Chemscore.Metal>
0.0000

> <Gold.Chemscore.Lipo>
109.7286

> <Gold.Chemscore.Internal_Hbond>
0.0000

> <Gold.Chemscore.DEClash>
0.0849

> <Gold.Chemscore.DEInternal>
1.9131

> <Gold.Chemscore.Rot>
1.6635

> <Gold.Chemscore.Internal.Correction>
   9.000000E+99

> <Gold.Chemscore.Hbonds>
donor molecule, donor type, donor heavy atom, donor atom, acceptor molecule, acceptor atom, score
      L1  H     4    53       P1  7948  0.98
      L1  H     8    31       P1  7948  0.81
      P1  H  7989  7998       L1    23  0.30

> <Gold.Chemscore.Hbond.Weighted>
-8.2289

> <Gold.Chemscore.Metal.Weighted>
-0.0000

> <Gold.Chemscore.Lipo.Weighted>
-12.8382

> <Gold.Chemscore.Internal_Hbond.Weighted>
0.0000

> <Gold.Chemscore.DEClash.Weighted>
0.0849

> <Gold.Chemscore.DEInternal.Weighted>
1.9131

> <Gold.Chemscore.Rot.Weighted>
4.2586

> <Gold.Chemscore.Internal.Correction.Weighted>
   9.000000E+99

> <Gold.Protein.RotatedTorsions>
[ 6907 6896 6895 6894 ] final   67.39 input  -60.11 | X-H torsion
[ 7974 7965 7964 7962 ] final -104.30 input  175.53 | X-H torsion
[ 8008 7997 7996 7995 ] final  122.36 input   59.86 | X-H torsion
[ 10167 10162 10161 10158 ] final -150.31 input  -65.29 | X-H torsion
[ 10718 10713 10712 10709 ] final -136.92 input   66.30 | X-H torsion
[ 10763 10752 10751 10750 ] final    3.69 input  -60.55 | X-H torsion
[ 11005 11000 10999 10996 ] final -142.31 input  -57.11 | X-H torsion

> <Gold.Protein.ActiveResidues>
 VAL166  LYS551  ARG553  GLY616  TRP617  ASP618  TYR619  PRO620  LYS621  CYS622 
 ASP623  PHE694  ASN695  SER759  ASP760  ASP761  ALA762  ILE779  LEU786  VAL792 
 PHE793  MET794  SER795  GLU796  ALA797  LYS798  CYS799  TRP800  GLU811  SER814 

> <Gold.Protein.RotatedAtoms>
  152.4549  134.5314  159.9811 H   0  0  0  0  0  0  0  0  0  0  0  0  # atno 6907 bound_to 6896
  151.5377  133.3432  159.2937 H   0  0  0  0  0  0  0  0  0  0  0  0  # atno 6908 bound_to 6896
  150.8489  134.7839  159.7056 H   0  0  0  0  0  0  0  0  0  0  0  0  # atno 6909 bound_to 6896
  145.2449  140.9218  143.3129 H   0  0  0  0  0  0  0  0  0  0  0  0  # atno 7974 bound_to 7965
  156.2724  140.2787  156.1455 H   0  0  0  0  0  0  0  0  0  0  0  0  # atno 8008 bound_to 7997
  155.0908  140.0388  157.2686 H   0  0  0  0  0  0  0  0  0  0  0  0  # atno 8009 bound_to 7997
  154.6890  140.2625  155.6837 H   0  0  0  0  0  0  0  0  0  0  0  0  # atno 8010 bound_to 7997
  139.7366  143.8727  152.2550 H   0  0  0  0  0  0  0  0  0  0  0  0  # atno 10167 bound_to 10162
  156.2824  130.7328  151.1329 H   0  0  0  0  0  0  0  0  0  0  0  0  # atno 10718 bound_to 10713
  153.2803  135.6940  153.7392 H   0  0  0  0  0  0  0  0  0  0  0  0  # atno 10763 bound_to 10752
  153.6382  135.3398  155.3064 H   0  0  0  0  0  0  0  0  0  0  0  0  # atno 10764 bound_to 10752
  154.8493  135.4425  154.1854 H   0  0  0  0  0  0  0  0  0  0  0  0  # atno 10765 bound_to 10752
  140.8238  134.2599  157.4888 H   0  0  0  0  0  0  0  0  0  0  0  0  # atno 11005 bound_to 11000
  144.9556  139.4035  143.6381 LP  0  0  0  0  0  0  0  0  0  0  0  0  # atno 17320 bound_to 7965
  146.3318  139.8584  142.8860 LP  0  0  0  0  0  0  0  0  0  0  0  0  # atno 17321 bound_to 7965
  139.8665  144.7090  150.9037 LP  0  0  0  0  0  0  0  0  0  0  0  0  # atno 17342 bound_to 10162
  140.7779  143.3774  151.1539 LP  0  0  0  0  0  0  0  0  0  0  0  0  # atno 17343 bound_to 10162
  157.7318  131.0605  150.5658 LP  0  0  0  0  0  0  0  0  0  0  0  0  # atno 17370 bound_to 10713
  156.5766  130.4293  149.5996 LP  0  0  0  0  0  0  0  0  0  0  0  0  # atno 17371 bound_to 10713
  139.8707  134.9550  156.4192 LP  0  0  0  0  0  0  0  0  0  0  0  0  # atno 17394 bound_to 11000
  140.9071  133.7738  155.9747 LP  0  0  0  0  0  0  0  0  0  0  0  0  # atno 17395 bound_to 11000

$$$$
