AV-unprocessed.smi:1180|AV-procd|sdf|4964|dock4
  -GOLD-   22720 3553D 1   1.00000     0.00000
 Structure written by MMmdl.
 37 38  0  0  0  0  0  0  0  0  2 V2000
  153.7670  137.0765  161.4586 C   0  0  0  0  0  0  0  0  0  0  0  0
  153.0637  137.3992  160.1574 C   0  0  0  0  0  0  0  0  0  0  0  0
  151.8024  137.2110  160.0669 N   0  0  0  0  0  0  0  0  0  0  0  0
  151.1439  137.5038  158.8607 C   0  0  0  0  0  0  0  0  0  0  0  0
  149.6478  137.2446  158.8424 C   0  0  0  0  0  0  0  0  0  0  0  0
  151.8268  137.9868  157.7833 C   0  0  0  0  0  0  0  0  0  0  0  0
  151.1619  138.3176  156.4467 C   0  0  0  0  0  0  0  0  0  0  0  0
  151.0339  139.8029  156.0975 C   0  0  0  0  0  0  0  0  0  0  0  0
  150.8976  140.1690  154.9297 O   0  0  0  0  0  0  0  0  0  0  0  0
  151.0827  140.6538  157.1333 N   0  0  0  0  0  0  0  0  0  0  0  0
  150.9761  142.1052  157.0327 C   0  0  0  0  0  0  0  0  0  0  0  0
  151.2303  142.8013  158.3838 C   0  0  2  0  0  0  0  0  0  0  0  0
  151.0689  144.3169  158.3381 C   0  0  0  0  0  0  0  0  0  0  0  0
  152.2071  144.8501  159.2145 C   0  0  0  0  0  0  0  0  0  0  0  0
  152.7659  143.7062  159.8441 O   0  0  0  0  0  0  0  0  0  0  0  0
  152.6451  142.6262  158.9348 C   0  0  0  0  0  0  0  0  0  0  0  0
  153.2779  138.1970  157.9312 C   0  0  0  0  0  0  0  0  0  0  0  0
  153.9379  138.6461  156.9948 O   0  0  0  0  0  0  0  0  0  0  0  0
  153.8447  137.8808  159.1306 N   0  5  0  0  0  0  0  0  0  0  0  0
  153.0522  136.9822  162.2772 H   0  0  0  0  0  0  0  0  0  0  0  0
  154.4761  137.8638  161.7171 H   0  0  0  0  0  0  0  0  0  0  0  0
  154.3114  136.1365  161.3668 H   0  0  0  0  0  0  0  0  0  0  0  0
  149.4096  136.4390  158.1478 H   0  0  0  0  0  0  0  0  0  0  0  0
  149.1053  138.1394  158.5371 H   0  0  0  0  0  0  0  0  0  0  0  0
  149.2852  136.9554  159.8294 H   0  0  0  0  0  0  0  0  0  0  0  0
  151.6801  137.8079  155.6332 H   0  0  0  0  0  0  0  0  0  0  0  0
  150.1582  137.8930  156.4415 H   0  0  0  0  0  0  0  0  0  0  0  0
  151.1954  140.2663  158.0588 H   0  0  0  0  0  0  0  0  0  0  0  0
  151.7032  142.4450  156.2947 H   0  0  0  0  0  0  0  0  0  0  0  0
  149.9936  142.3797  156.6451 H   0  0  0  0  0  0  0  0  0  0  0  0
  150.5313  142.4143  159.1272 H   0  0  0  0  0  0  0  0  0  0  0  0
  151.1599  144.7093  157.3245 H   0  0  0  0  0  0  0  0  0  0  0  0
  150.0920  144.6134  158.7215 H   0  0  0  0  0  0  0  0  0  0  0  0
  152.9706  145.3290  158.5996 H   0  0  0  0  0  0  0  0  0  0  0  0
  151.8628  145.5745  159.9529 H   0  0  0  0  0  0  0  0  0  0  0  0
  152.7885  141.6660  159.4315 H   0  0  0  0  0  0  0  0  0  0  0  0
  153.3952  142.7244  158.1481 H   0  0  0  0  0  0  0  0  0  0  0  0
  1  2  1  0  0  0  0
  1 20  1  0  0  0  0
  1 21  1  0  0  0  0
  1 22  1  0  0  0  0
  2 19  1  0  0  0  0
  2  3  2  0  0  0  0
  3  4  1  0  0  0  0
  4  5  1  0  0  0  0
  4  6  2  0  0  0  0
  5 23  1  0  0  0  0
  5 24  1  0  0  0  0
  5 25  1  0  0  0  0
  6  7  1  0  0  0  0
  6 17  1  0  0  0  0
  7  8  1  0  0  0  0
  7 26  1  0  0  0  0
  7 27  1  0  0  0  0
  8  9  2  0  0  0  0
  8 10  1  0  0  0  0
 10 11  1  0  0  0  0
 10 28  1  0  0  0  0
 11 12  1  0  0  0  0
 11 29  1  0  0  0  0
 11 30  1  0  0  0  0
 12 16  1  0  0  0  0
 12 13  1  0  0  0  0
 12 31  1  0  0  0  0
 13 14  1  0  0  0  0
 13 32  1  0  0  0  0
 13 33  1  0  0  0  0
 14 15  1  0  0  0  0
 14 34  1  0  0  0  0
 14 35  1  0  0  0  0
 15 16  1  0  0  0  0
 16 36  1  0  0  0  0
 16 37  1  0  0  0  0
 17 18  2  0  0  0  0
 17 19  1  0  0  0  0
M  CHG  1  19  -1
M  END
> <s_m_source_file>
AV-unprocessed.smi

> <i_m_source_file_index>
1180

> <i_lp_mmshare_version>
43012

> <i_f3d_flags>
0

> <s_epik_input>
W0NIM11jMW5jKFtDSDNdKWMoYyg9TylbbkhdMSlbQ0gyXUMoPU8pW05IXVtDSDJdW0NAQEhdMltDSDJdW0NIMl1PW0NIMl0y

> <s_epik_cmdline>
J2VwaWtfcHl0aG9uJywgJy1waCcsICc3LjAnLCAnLXRuJywgJzgnLCAnLW1hJywgJzIwMCcsICctbWV0YWxfYmluZGluZycsICctaW1hZScsICc8aW5maWxlLm1hZT4nLCAnLW9tYWUnLCAnPG91dGZpbGUubWFlPic=

> <r_lp_tautomer_probability>
0.839158

> <r_epik_Ionization_Penalty>
6.60319

> <r_epik_Ionization_Penalty_Charging>
6.85407e-08

> <r_epik_Ionization_Penalty_Neutral>
6.60319

> <r_epik_State_Penalty>
4.42883

> <r_epik_Charging_Adjusted_Penalty>
4.42883

> <i_epik_Tot_Q>
-1

> <i_epik_Tot_abs_Q>
1

> <r_epik_Metal_State_Penalty>
0.797578

> <b_epik_Metal_Only>
1

> <s_lp_Force_Field>
OPLS_2005

> <r_lp_Energy>
24.7937

> <b_lp_Chiralities_Consistent>
1

> <s_lp_Variant>
AV-unprocessed.smi:1180-5

> <Gold.Version>
5.8.1

> <Gold.Id.Protein>
6NUR|6NUR_protein|mol2

> <Gold.PLP.Fitness>
39.4313

> <Gold.PLP.PLP>
-32.1168

> <Gold.PLP.part.hbond>
-2.4100

> <Gold.PLP.part.metal>
0.0000

> <Gold.PLP.part.buried>
-6.7604

> <Gold.PLP.part.nonpolar>
-24.7546

> <Gold.PLP.part.repulsive>
0.1206

> <Gold.PLP.ligand.clash>
0.0000

> <Gold.PLP.ligand.torsion>
0.4562

> <Gold.PLP.Chemscore.Hbond>
2.7367

> <Gold.PLP.Chemscore.CHOScore>
0.0000

> <Gold.PLP.Chemscore.Metal>
0.0000

> <Gold.Chemscore.Hbonds>
donor molecule, donor type, donor heavy atom, donor atom, acceptor molecule, acceptor atom, score
      P1  H  6896  6908       L1     3  0.91
      P1  H  7989  7998       L1     9  1.00
      P1  H  7997  8009       L1    18  0.68

> <Gold.PLP.Chemscore.Internal.Correction>
0.0170

> <Gold.Rescore>
     Score         DG    S(hbond)    S(metal)    S(lipo)     H(rot)  DE(clash)    DE(int)     intcor
     16.38     -16.81       1.94        0.00      79.83       1.76       0.06       0.37       ----

> <Gold.Chemscore.Fitness>
16.3839

> <Gold.Chemscore.DG>
-16.8118

> <Gold.Chemscore.ZeroCoef>
-5.4800

> <Gold.Chemscore.Hbond>
1.9437

> <Gold.Chemscore.Metal>
0.0000

> <Gold.Chemscore.Lipo>
79.8261

> <Gold.Chemscore.Internal_Hbond>
0.0000

> <Gold.Chemscore.DEClash>
0.0565

> <Gold.Chemscore.DEInternal>
0.3714

> <Gold.Chemscore.Rot>
1.7577

> <Gold.Chemscore.Internal.Correction>
   9.000000E+99

> <Gold.Chemscore.Hbonds>
donor molecule, donor type, donor heavy atom, donor atom, acceptor molecule, acceptor atom, score
      P1  H  6896  6908       L1     3  0.07
      P1  H  7989  7998       L1     9  1.00
      P1  H  7997  8009       L1    18  0.65

> <Gold.Chemscore.Hbond.Weighted>
-6.4920

> <Gold.Chemscore.Metal.Weighted>
-0.0000

> <Gold.Chemscore.Lipo.Weighted>
-9.3396

> <Gold.Chemscore.Internal_Hbond.Weighted>
0.0000

> <Gold.Chemscore.DEClash.Weighted>
0.0565

> <Gold.Chemscore.DEInternal.Weighted>
0.3714

> <Gold.Chemscore.Rot.Weighted>
4.4998

> <Gold.Chemscore.Internal.Correction.Weighted>
   9.000000E+99

> <Gold.Protein.RotatedTorsions>
[ 6907 6896 6895 6894 ] final -114.25 input  -60.11 | X-H torsion
[ 7974 7965 7964 7962 ] final  -31.66 input  175.53 | X-H torsion
[ 8008 7997 7996 7995 ] final  155.94 input   59.86 | X-H torsion
[ 10167 10162 10161 10158 ] final   95.65 input  -65.29 | X-H torsion
[ 10718 10713 10712 10709 ] final  161.63 input   66.30 | X-H torsion
[ 10763 10752 10751 10750 ] final  -22.19 input  -60.55 | X-H torsion
[ 11005 11000 10999 10996 ] final  -89.94 input  -57.11 | X-H torsion

> <Gold.Protein.ActiveResidues>
 VAL166  LYS551  ARG553  GLY616  TRP617  ASP618  TYR619  PRO620  LYS621  CYS622 
 ASP623  PHE694  ASN695  SER759  ASP760  ASP761  ALA762  ILE779  LEU786  VAL792 
 PHE793  MET794  SER795  GLU796  ALA797  LYS798  CYS799  TRP800  GLU811  SER814 

> <Gold.Protein.RotatedAtoms>
  150.7888  133.8828  159.3290 H   0  0  0  0  0  0  0  0  0  0  0  0  # atno 6907 bound_to 6896
  151.6671  135.0979  160.0200 H   0  0  0  0  0  0  0  0  0  0  0  0  # atno 6908 bound_to 6896
  152.3958  133.6706  159.6310 H   0  0  0  0  0  0  0  0  0  0  0  0  # atno 6909 bound_to 6896
  146.1050  140.5695  142.8803 H   0  0  0  0  0  0  0  0  0  0  0  0  # atno 7974 bound_to 7965
  156.2450  140.1926  156.6879 H   0  0  0  0  0  0  0  0  0  0  0  0  # atno 8008 bound_to 7997
  154.6273  140.0600  156.9716 H   0  0  0  0  0  0  0  0  0  0  0  0  # atno 8009 bound_to 7997
  155.1766  140.3273  155.4385 H   0  0  0  0  0  0  0  0  0  0  0  0  # atno 8010 bound_to 7997
  139.7968  144.6830  150.9818 H   0  0  0  0  0  0  0  0  0  0  0  0  # atno 10167 bound_to 10162
  157.1338  131.0523  151.2359 H   0  0  0  0  0  0  0  0  0  0  0  0  # atno 10718 bound_to 10713
  153.6481  135.6982  153.5218 H   0  0  0  0  0  0  0  0  0  0  0  0  # atno 10763 bound_to 10752
  153.2729  135.4209  155.1004 H   0  0  0  0  0  0  0  0  0  0  0  0  # atno 10764 bound_to 10752
  154.8483  135.3583  154.6025 H   0  0  0  0  0  0  0  0  0  0  0  0  # atno 10765 bound_to 10752
  141.1575  133.7661  156.9667 H   0  0  0  0  0  0  0  0  0  0  0  0  # atno 11005 bound_to 11000
  144.7464  140.5078  143.6833 LP  0  0  0  0  0  0  0  0  0  0  0  0  # atno 17320 bound_to 7965
  145.5778  139.1487  143.3252 LP  0  0  0  0  0  0  0  0  0  0  0  0  # atno 17321 bound_to 7965
  140.7820  143.4322  151.0677 LP  0  0  0  0  0  0  0  0  0  0  0  0  # atno 17342 bound_to 10162
  139.7996  143.8102  152.3161 LP  0  0  0  0  0  0  0  0  0  0  0  0  # atno 17343 bound_to 10162
  157.4368  130.7522  149.7036 LP  0  0  0  0  0  0  0  0  0  0  0  0  # atno 17370 bound_to 10713
  155.9802  130.4032  150.3540 LP  0  0  0  0  0  0  0  0  0  0  0  0  # atno 17371 bound_to 10713
  140.1157  134.9449  157.2130 LP  0  0  0  0  0  0  0  0  0  0  0  0  # atno 17394 bound_to 11000
  140.3137  134.2995  155.7261 LP  0  0  0  0  0  0  0  0  0  0  0  0  # atno 17395 bound_to 11000

$$$$
