AV-unprocessed.smi:2447|AV-procd|sdf|9650|dock4
  -GOLD-   2272013283D 1   1.00000     0.00000
 Structure written by MMmdl.
 29 30  0  0  0  0  0  0  0  0  2 V2000
  150.1508  138.4704  153.4600 N   0  0  0  0  0  0  0  0  0  0  0  0
  150.7886  138.6510  154.6159 C   0  0  0  0  0  0  0  0  0  0  0  0
  150.9170  137.6814  155.3629 O   0  0  0  0  0  0  0  0  0  0  0  0
  151.2211  139.9219  154.8125 N   0  5  0  0  0  0  0  0  0  0  0  0
  151.4824  140.4683  156.0179 C   0  0  0  0  0  0  0  0  0  0  0  0
  152.3615  139.8080  156.8351 N   0  0  0  0  0  0  0  0  0  0  0  0
  152.3690  140.6098  157.8890 C   0  0  0  0  0  0  0  0  0  0  0  0
  151.5780  141.6712  157.7596 N   0  0  0  0  0  0  0  0  0  0  0  0
  151.3143  142.7674  158.6786 C   0  0  0  0  0  0  0  0  0  0  0  0
  151.5326  144.1372  158.0030 C   0  0  0  0  0  0  0  0  0  0  0  0
  151.2418  145.2913  158.9761 C   0  0  0  0  0  0  0  0  0  0  0  0
  152.0852  145.1660  160.2555 C   0  0  0  0  0  0  0  0  0  0  0  0
  151.8718  143.8025  160.9328 C   0  0  0  0  0  0  0  0  0  0  0  0
  152.1632  142.6472  159.9611 C   0  0  0  0  0  0  0  0  0  0  0  0
  150.9887  141.5983  156.5435 N   0  0  0  0  0  0  0  0  0  0  0  0
  149.7909  137.5585  153.2221 H   0  0  0  0  0  0  0  0  0  0  0  0
  150.0337  139.2513  152.8315 H   0  0  0  0  0  0  0  0  0  0  0  0
  152.9629  140.4176  158.7702 H   0  0  0  0  0  0  0  0  0  0  0  0
  150.2632  142.6967  158.9633 H   0  0  0  0  0  0  0  0  0  0  0  0
  152.5605  144.2198  157.6465 H   0  0  0  0  0  0  0  0  0  0  0  0
  150.8931  144.2261  157.1242 H   0  0  0  0  0  0  0  0  0  0  0  0
  151.4432  146.2460  158.4898 H   0  0  0  0  0  0  0  0  0  0  0  0
  150.1821  145.2934  159.2349 H   0  0  0  0  0  0  0  0  0  0  0  0
  153.1406  145.2891  160.0092 H   0  0  0  0  0  0  0  0  0  0  0  0
  151.8330  145.9695  160.9480 H   0  0  0  0  0  0  0  0  0  0  0  0
  152.5129  143.7190  161.8109 H   0  0  0  0  0  0  0  0  0  0  0  0
  150.8445  143.7285  161.2916 H   0  0  0  0  0  0  0  0  0  0  0  0
  151.9648  141.6939  160.4522 H   0  0  0  0  0  0  0  0  0  0  0  0
  153.2249  142.6499  159.7097 H   0  0  0  0  0  0  0  0  0  0  0  0
  1  2  1  0  0  0  0
  1 16  1  0  0  0  0
  1 17  1  0  0  0  0
  2  3  2  0  0  0  0
  2  4  1  0  0  0  0
  4  5  1  0  0  0  0
  5 15  2  0  0  0  0
  5  6  1  0  0  0  0
  6  7  2  0  0  0  0
  7  8  1  0  0  0  0
  7 18  1  0  0  0  0
  8  9  1  0  0  0  0
  8 15  1  0  0  0  0
  9 14  1  0  0  0  0
  9 10  1  0  0  0  0
  9 19  1  0  0  0  0
 10 11  1  0  0  0  0
 10 20  1  0  0  0  0
 10 21  1  0  0  0  0
 11 12  1  0  0  0  0
 11 22  1  0  0  0  0
 11 23  1  0  0  0  0
 12 13  1  0  0  0  0
 12 24  1  0  0  0  0
 12 25  1  0  0  0  0
 13 14  1  0  0  0  0
 13 26  1  0  0  0  0
 13 27  1  0  0  0  0
 14 28  1  0  0  0  0
 14 29  1  0  0  0  0
M  CHG  1   4  -1
M  END
> <s_m_source_file>
AV-unprocessed.smi

> <i_m_source_file_index>
2447

> <i_lp_mmshare_version>
43012

> <i_f3d_flags>
0

> <s_epik_input>
W05IMl1DKD1PKVtOSF1jMW5bY0hdbihuMSlbQ0hdMltDSDJdW0NIMl1bQ0gyXVtDSDJdW0NIMl0y

> <s_epik_cmdline>
J2VwaWtfcHl0aG9uJywgJy1waCcsICc3LjAnLCAnLXRuJywgJzgnLCAnLW1hJywgJzIwMCcsICctbWV0YWxfYmluZGluZycsICctaW1hZScsICc8aW5maWxlLm1hZT4nLCAnLW9tYWUnLCAnPG91dGZpbGUubWFlPic=

> <r_epik_Ionization_Penalty>
6.34251

> <r_epik_Ionization_Penalty_Charging>
2.59949

> <r_epik_Ionization_Penalty_Neutral>
3.74302

> <r_epik_State_Penalty>
2.59208

> <r_epik_Charging_Adjusted_Penalty>
5.19156

> <i_epik_Tot_Q>
-1

> <i_epik_Tot_abs_Q>
1

> <r_epik_Metal_State_Penalty>
0.11953

> <b_epik_Metal_Only>
1

> <s_lp_Force_Field>
OPLS_2005

> <r_lp_Energy>
9.7345

> <b_lp_Chiralities_Consistent>
1

> <s_lp_Variant>
AV-unprocessed.smi:2447-2

> <Gold.Version>
5.8.1

> <Gold.Id.Protein>
6NUR|6NUR_protein|mol2

> <Gold.PLP.Fitness>
45.1709

> <Gold.PLP.PLP>
-35.1818

> <Gold.PLP.part.hbond>
-4.0097

> <Gold.PLP.part.metal>
0.0000

> <Gold.PLP.part.buried>
-4.6608

> <Gold.PLP.part.nonpolar>
-25.7963

> <Gold.PLP.part.repulsive>
0.2886

> <Gold.PLP.ligand.clash>
0.0000

> <Gold.PLP.ligand.torsion>
0.6671

> <Gold.PLP.Chemscore.Hbond>
3.7672

> <Gold.PLP.Chemscore.CHOScore>
0.0000

> <Gold.PLP.Chemscore.Metal>
0.0000

> <Gold.Chemscore.Hbonds>
donor molecule, donor type, donor heavy atom, donor atom, acceptor molecule, acceptor atom, score
      L1  H     1    16       P1  7948  0.99
      L1  H     1    17       P1  7957  1.00
      P1  H  7989  7998       L1     4  1.00
      P1  H  7997  8008       L1     6  0.72

> <Gold.PLP.Chemscore.Internal.Correction>
0.0217

> <Gold.Rescore>
     Score         DG    S(hbond)    S(metal)    S(lipo)     H(rot)  DE(clash)    DE(int)     intcor
     18.80     -19.60       2.67        0.00      66.42       1.00       0.02       0.78       ----

> <Gold.Chemscore.Fitness>
18.7971

> <Gold.Chemscore.DG>
-19.5983

> <Gold.Chemscore.ZeroCoef>
-5.4800

> <Gold.Chemscore.Hbond>
2.6667

> <Gold.Chemscore.Metal>
0.0000

> <Gold.Chemscore.Lipo>
66.4245

> <Gold.Chemscore.Internal_Hbond>
0.0000

> <Gold.Chemscore.DEClash>
0.0234

> <Gold.Chemscore.DEInternal>
0.7778

> <Gold.Chemscore.Rot>
1.0000

> <Gold.Chemscore.Internal.Correction>
   9.000000E+99

> <Gold.Chemscore.Hbonds>
donor molecule, donor type, donor heavy atom, donor atom, acceptor molecule, acceptor atom, score
      L1  H     1    16       P1  7948  0.53
      L1  H     1    17       P1  7957  0.88
      P1  H  7989  7998       L1     4  0.88
      P1  H  7997  8008       L1     6  0.08

> <Gold.Chemscore.Hbond.Weighted>
-8.9066

> <Gold.Chemscore.Metal.Weighted>
-0.0000

> <Gold.Chemscore.Lipo.Weighted>
-7.7717

> <Gold.Chemscore.Internal_Hbond.Weighted>
0.0000

> <Gold.Chemscore.DEClash.Weighted>
0.0234

> <Gold.Chemscore.DEInternal.Weighted>
0.7778

> <Gold.Chemscore.Rot.Weighted>
2.5600

> <Gold.Chemscore.Internal.Correction.Weighted>
   9.000000E+99

> <Gold.Protein.RotatedTorsions>
[ 6907 6896 6895 6894 ] final   66.78 input  -60.11 | X-H torsion
[ 7974 7965 7964 7962 ] final -153.78 input  175.53 | X-H torsion
[ 8008 7997 7996 7995 ] final  -38.77 input   59.86 | X-H torsion
[ 10167 10162 10161 10158 ] final  159.19 input  -65.29 | X-H torsion
[ 10718 10713 10712 10709 ] final   90.12 input   66.30 | X-H torsion
[ 10763 10752 10751 10750 ] final  103.35 input  -60.55 | X-H torsion
[ 11005 11000 10999 10996 ] final  -32.61 input  -57.11 | X-H torsion

> <Gold.Protein.ActiveResidues>
 VAL166  LYS551  ARG553  GLY616  TRP617  ASP618  TYR619  PRO620  LYS621  CYS622 
 ASP623  PHE694  ASN695  SER759  ASP760  ASP761  ALA762  ILE779  LEU786  VAL792 
 PHE793  MET794  SER795  GLU796  ALA797  LYS798  CYS799  TRP800  GLU811  SER814 

> <Gold.Protein.RotatedAtoms>
  152.4505  134.5403  159.9836 H   0  0  0  0  0  0  0  0  0  0  0  0  # atno 6907 bound_to 6896
  151.5476  133.3417  159.2955 H   0  0  0  0  0  0  0  0  0  0  0  0  # atno 6908 bound_to 6896
  150.8433  134.7765  159.7013 H   0  0  0  0  0  0  0  0  0  0  0  0  # atno 6909 bound_to 6896
  144.7723  140.4479  143.5898 H   0  0  0  0  0  0  0  0  0  0  0  0  # atno 7974 bound_to 7965
  154.4032  140.1569  156.2754 H   0  0  0  0  0  0  0  0  0  0  0  0  # atno 8008 bound_to 7997
  155.8916  140.3438  155.5938 H   0  0  0  0  0  0  0  0  0  0  0  0  # atno 8009 bound_to 7997
  155.7551  140.0810  157.2173 H   0  0  0  0  0  0  0  0  0  0  0  0  # atno 8010 bound_to 7997
  139.4831  144.4753  151.8519 H   0  0  0  0  0  0  0  0  0  0  0  0  # atno 10167 bound_to 10162
  157.6958  131.0359  150.3529 H   0  0  0  0  0  0  0  0  0  0  0  0  # atno 10718 bound_to 10713
  153.3515  135.3980  155.1649 H   0  0  0  0  0  0  0  0  0  0  0  0  # atno 10763 bound_to 10752
  154.8663  135.3657  154.5216 H   0  0  0  0  0  0  0  0  0  0  0  0  # atno 10764 bound_to 10752
  153.5668  135.7080  153.5582 H   0  0  0  0  0  0  0  0  0  0  0  0  # atno 10765 bound_to 10752
  140.9566  133.7189  156.1304 H   0  0  0  0  0  0  0  0  0  0  0  0  # atno 11005 bound_to 11000
  145.6288  139.1533  143.2981 LP  0  0  0  0  0  0  0  0  0  0  0  0  # atno 17320 bound_to 7965
  146.1878  140.6393  142.9159 LP  0  0  0  0  0  0  0  0  0  0  0  0  # atno 17321 bound_to 7965
  140.4225  144.2224  150.5887 LP  0  0  0  0  0  0  0  0  0  0  0  0  # atno 17342 bound_to 10162
  140.4859  143.2363  151.8888 LP  0  0  0  0  0  0  0  0  0  0  0  0  # atno 17343 bound_to 10162
  156.3975  130.3909  149.6984 LP  0  0  0  0  0  0  0  0  0  0  0  0  # atno 17370 bound_to 10713
  156.4313  130.7816  151.2836 LP  0  0  0  0  0  0  0  0  0  0  0  0  # atno 17371 bound_to 10713
  140.7527  134.4027  157.5539 LP  0  0  0  0  0  0  0  0  0  0  0  0  # atno 17394 bound_to 11000
  139.8864  134.8910  156.2585 LP  0  0  0  0  0  0  0  0  0  0  0  0  # atno 17395 bound_to 11000

$$$$
