AV-unprocessed.smi:1929|AV-procd|sdf|7803|dock3
  -GOLD-   22720 9543D 1   1.00000     0.00000
 Structure written by MMmdl.
 44 45  0  0  0  0  0  0  0  0  3 V2000
  145.9030  135.2154  153.0581 C   0  0  0  0  0  0  0  0  0  0  0  0
  146.5550  136.3358  152.3973 N   0  0  0  0  0  0  0  0  0  0  0  0
  146.0859  137.5914  152.4064 C   0  0  0  0  0  0  0  0  0  0  0  0
  145.0512  137.9209  152.9874 O   0  0  0  0  0  0  0  0  0  0  0  0
  146.9238  138.6341  151.6588 C   0  0  0  0  0  0  0  0  0  0  0  0
  147.6201  139.5813  152.5675 N   0  3  2  0  0  0  0  0  0  0  0  0
  148.2396  138.9133  153.7436 C   0  0  0  0  0  0  0  0  0  0  0  0
  149.0663  139.9092  154.5737 C   0  0  0  0  0  0  0  0  0  0  0  0
  148.2048  141.0976  155.0288 C   0  0  1  0  0  0  0  0  0  0  0  0
  149.0305  142.0650  155.7467 N   0  0  0  0  0  0  0  0  0  0  0  0
  149.7142  141.8085  156.8716 C   0  0  0  0  0  0  0  0  0  0  0  0
  149.7124  140.7114  157.4296 O   0  0  0  0  0  0  0  0  0  0  0  0
  150.3675  142.8994  157.3078 N   0  0  0  0  0  0  0  0  0  0  0  0
  151.2024  143.0275  158.4510 C   0  0  0  0  0  0  0  0  0  0  0  0
  151.4765  144.3316  158.9199 C   0  0  0  0  0  0  0  0  0  0  0  0
  152.3141  144.5058  160.0406 C   0  0  0  0  0  0  0  0  0  0  0  0
  152.8560  143.4291  160.6493 N   0  3  0  0  0  0  0  0  0  0  0  0
  152.6357  142.1650  160.2285 C   0  0  0  0  0  0  0  0  0  0  0  0
  151.8058  141.9281  159.1134 C   0  0  0  0  0  0  0  0  0  0  0  0
  147.5366  141.7481  153.8034 C   0  0  0  0  0  0  0  0  0  0  0  0
  146.7515  140.7134  152.9791 C   0  0  0  0  0  0  0  0  0  0  0  0
  146.4744  134.3023  152.8923 H   0  0  0  0  0  0  0  0  0  0  0  0
  144.8968  135.0639  152.6654 H   0  0  0  0  0  0  0  0  0  0  0  0
  145.8355  135.3839  154.1334 H   0  0  0  0  0  0  0  0  0  0  0  0
  147.4159  136.1431  151.9053 H   0  0  0  0  0  0  0  0  0  0  0  0
  147.6584  138.0792  151.0736 H   0  0  0  0  0  0  0  0  0  0  0  0
  146.3066  139.1845  150.9465 H   0  0  0  0  0  0  0  0  0  0  0  0
  147.4597  138.4670  154.3627 H   0  0  0  0  0  0  0  0  0  0  0  0
  148.8860  138.0983  153.4171 H   0  0  0  0  0  0  0  0  0  0  0  0
  149.4915  139.4014  155.4405 H   0  0  0  0  0  0  0  0  0  0  0  0
  149.9090  140.2646  153.9783 H   0  0  0  0  0  0  0  0  0  0  0  0
  147.4302  140.7198  155.6995 H   0  0  0  0  0  0  0  0  0  0  0  0
  149.0849  142.9950  155.3569 H   0  0  0  0  0  0  0  0  0  0  0  0
  150.1999  143.7531  156.7955 H   0  0  0  0  0  0  0  0  0  0  0  0
  151.0457  145.1940  158.4322 H   0  0  0  0  0  0  0  0  0  0  0  0
  152.5664  145.4673  160.4637 H   0  0  0  0  0  0  0  0  0  0  0  0
  153.1319  141.3853  160.7880 H   0  0  0  0  0  0  0  0  0  0  0  0
  151.6597  140.9116  158.7816 H   0  0  0  0  0  0  0  0  0  0  0  0
  146.8650  142.5475  154.1190 H   0  0  0  0  0  0  0  0  0  0  0  0
  148.2946  142.2136  153.1714 H   0  0  0  0  0  0  0  0  0  0  0  0
  146.3393  141.2017  152.0952 H   0  0  0  0  0  0  0  0  0  0  0  0
  145.9061  140.3345  153.5555 H   0  0  0  0  0  0  0  0  0  0  0  0
  148.3733  139.9829  152.0267 H   0  0  0  0  0  0  0  0  0  0  0  0
  153.4611  143.5770  161.4576 H   0  0  0  0  0  0  0  0  0  0  0  0
  1  2  1  0  0  0  0
  1 22  1  0  0  0  0
  1 23  1  0  0  0  0
  1 24  1  0  0  0  0
  2  3  1  0  0  0  0
  2 25  1  0  0  0  0
  3  4  2  0  0  0  0
  3  5  1  0  0  0  0
  5  6  1  0  0  0  0
  5 26  1  0  0  0  0
  5 27  1  0  0  0  0
  6 21  1  0  0  0  0
  6  7  1  0  0  0  0
  6 43  1  0  0  0  0
  7  8  1  0  0  0  0
  7 28  1  0  0  0  0
  7 29  1  0  0  0  0
  8  9  1  0  0  0  0
  8 30  1  0  0  0  0
  8 31  1  0  0  0  0
  9 10  1  0  0  0  0
  9 20  1  0  0  0  0
  9 32  1  0  0  0  0
 10 11  1  0  0  0  0
 10 33  1  0  0  0  0
 11 12  2  0  0  0  0
 11 13  1  0  0  0  0
 13 14  1  0  0  0  0
 13 34  1  0  0  0  0
 14 19  1  0  0  0  0
 14 15  2  0  0  0  0
 15 16  1  0  0  0  0
 15 35  1  0  0  0  0
 16 17  2  0  0  0  0
 16 36  1  0  0  0  0
 17 18  1  0  0  0  0
 17 44  1  0  0  0  0
 18 19  2  0  0  0  0
 18 37  1  0  0  0  0
 19 38  1  0  0  0  0
 20 21  1  0  0  0  0
 20 39  1  0  0  0  0
 20 40  1  0  0  0  0
 21 41  1  0  0  0  0
 21 42  1  0  0  0  0
M  CHG  1   6   1
M  CHG  1  17   1
M  END
> <s_m_source_file>
AV-unprocessed.smi

> <i_m_source_file_index>
1929

> <i_lp_mmshare_version>
43012

> <i_f3d_flags>
0

> <s_epik_input>
W0NIM11bTkhdQyg9TylbQ0gyXU4xW0NIMl1bQ0gyXVtDSF0oW0NIMl1bQ0gyXTEpW05IXUMoPU8pW05IXWMyW2NIXVtjSF1uW2NIXVtjSF0y

> <s_epik_cmdline>
J2VwaWtfcHl0aG9uJywgJy1waCcsICc3LjAnLCAnLXRuJywgJzgnLCAnLW1hJywgJzIwMCcsICctbWV0YWxfYmluZGluZycsICctaW1hZScsICc8aW5maWxlLm1hZT4nLCAnLW9tYWUnLCAnPG91dGZpbGUubWFlPic=

> <r_epik_Ionization_Penalty>
1.97435

> <r_epik_Ionization_Penalty_Charging>
1.97431

> <r_epik_Ionization_Penalty_Neutral>
3.89585e-05

> <r_epik_State_Penalty>
2.00691

> <r_epik_Charging_Adjusted_Penalty>
3.98122

> <i_epik_Tot_Q>
2

> <i_epik_Tot_abs_Q>
2

> <r_epik_Metal_State_Penalty>
2.11022

> <b_epik_Metal_Only>
0

> <s_lp_Force_Field>
OPLS_2005

> <r_lp_Energy>
26.2035

> <b_lp_Chiralities_Consistent>
1

> <s_lp_Variant>
AV-unprocessed.smi:1929-5

> <Gold.Version>
5.8.1

> <Gold.Id.Protein>
6NUR|6NUR_protein|mol2

> <Gold.PLP.Fitness>
48.4902

> <Gold.PLP.PLP>
-37.6277

> <Gold.PLP.part.hbond>
-3.8096

> <Gold.PLP.part.metal>
0.0000

> <Gold.PLP.part.buried>
-2.2589

> <Gold.PLP.part.nonpolar>
-33.4500

> <Gold.PLP.part.repulsive>
1.4536

> <Gold.PLP.ligand.clash>
0.0000

> <Gold.PLP.ligand.torsion>
0.3853

> <Gold.PLP.Chemscore.Hbond>
3.8720

> <Gold.PLP.Chemscore.CHOScore>
0.0000

> <Gold.PLP.Chemscore.Metal>
0.0000

> <Gold.Chemscore.Hbonds>
donor molecule, donor type, donor heavy atom, donor atom, acceptor molecule, acceptor atom, score
      L1  H     2    25       P1  7948  0.96
      L1  H     6    43       P1  7957  0.91
      L1  H    10    33       P1  8028  0.93
      L1  H    13    34       P1  8028  0.90

> <Gold.PLP.Chemscore.Internal.Correction>
0.0170

> <Gold.Rescore>
     Score         DG    S(hbond)    S(metal)    S(lipo)     H(rot)  DE(clash)    DE(int)     intcor
     23.48     -24.94       3.69        0.00      98.30       1.71       0.68       0.78       ----

> <Gold.Chemscore.Fitness>
23.4777

> <Gold.Chemscore.DG>
-24.9363

> <Gold.Chemscore.ZeroCoef>
-5.4800

> <Gold.Chemscore.Hbond>
3.6942

> <Gold.Chemscore.Metal>
0.0000

> <Gold.Chemscore.Lipo>
98.3038

> <Gold.Chemscore.Internal_Hbond>
0.0000

> <Gold.Chemscore.DEClash>
0.6807

> <Gold.Chemscore.DEInternal>
0.7780

> <Gold.Chemscore.Rot>
1.7124

> <Gold.Chemscore.Internal.Correction>
   9.000000E+99

> <Gold.Chemscore.Hbonds>
donor molecule, donor type, donor heavy atom, donor atom, acceptor molecule, acceptor atom, score
      L1  H     2    25       P1  7948  0.87
      L1  H     6    43       P1  7957  0.87
      L1  H    10    33       P1  8028  0.91
      L1  H    13    34       P1  8028  0.86

> <Gold.Chemscore.Hbond.Weighted>
-12.3386

> <Gold.Chemscore.Metal.Weighted>
-0.0000

> <Gold.Chemscore.Lipo.Weighted>
-11.5015

> <Gold.Chemscore.Internal_Hbond.Weighted>
0.0000

> <Gold.Chemscore.DEClash.Weighted>
0.6807

> <Gold.Chemscore.DEInternal.Weighted>
0.7780

> <Gold.Chemscore.Rot.Weighted>
4.3838

> <Gold.Chemscore.Internal.Correction.Weighted>
   9.000000E+99

> <Gold.Protein.RotatedTorsions>
[ 6907 6896 6895 6894 ] final  -75.69 input  -60.11 | X-H torsion
[ 7974 7965 7964 7962 ] final   38.08 input  175.53 | X-H torsion
[ 8008 7997 7996 7995 ] final -116.68 input   59.86 | X-H torsion
[ 10167 10162 10161 10158 ] final   19.33 input  -65.29 | X-H torsion
[ 10718 10713 10712 10709 ] final  107.69 input   66.30 | X-H torsion
[ 10763 10752 10751 10750 ] final  148.73 input  -60.55 | X-H torsion
[ 11005 11000 10999 10996 ] final  120.34 input  -57.11 | X-H torsion

> <Gold.Protein.ActiveResidues>
 VAL166  LYS551  ARG553  GLY616  TRP617  ASP618  TYR619  PRO620  LYS621  CYS622 
 ASP623  PHE694  ASN695  SER759  ASP760  ASP761  ALA762  ILE779  LEU786  VAL792 
 PHE793  MET794  SER795  GLU796  ALA797  LYS798  CYS799  TRP800  GLU811  SER814 

> <Gold.Protein.RotatedAtoms>
  150.7051  134.4683  159.5412 H   0  0  0  0  0  0  0  0  0  0  0  0  # atno 6907 bound_to 6896
  152.2344  134.8288  160.0478 H   0  0  0  0  0  0  0  0  0  0  0  0  # atno 6908 bound_to 6896
  151.9092  133.3522  159.3894 H   0  0  0  0  0  0  0  0  0  0  0  0  # atno 6909 bound_to 6896
  146.1089  139.5816  142.9365 H   0  0  0  0  0  0  0  0  0  0  0  0  # atno 7974 bound_to 7965
  155.0717  140.0393  157.2611 H   0  0  0  0  0  0  0  0  0  0  0  0  # atno 8008 bound_to 7997
  154.6977  140.2666  155.6725 H   0  0  0  0  0  0  0  0  0  0  0  0  # atno 8009 bound_to 7997
  156.2750  140.2747  156.1577 H   0  0  0  0  0  0  0  0  0  0  0  0  # atno 8010 bound_to 7997
  140.5587  143.9377  150.6627 H   0  0  0  0  0  0  0  0  0  0  0  0  # atno 10167 bound_to 10162
  157.6618  131.0878  150.6194 H   0  0  0  0  0  0  0  0  0  0  0  0  # atno 10718 bound_to 10713
  154.0596  135.2875  155.3327 H   0  0  0  0  0  0  0  0  0  0  0  0  # atno 10763 bound_to 10752
  154.6817  135.5261  153.8275 H   0  0  0  0  0  0  0  0  0  0  0  0  # atno 10764 bound_to 10752
  153.0528  135.6583  154.0786 H   0  0  0  0  0  0  0  0  0  0  0  0  # atno 10765 bound_to 10752
  139.9181  134.9634  156.7792 H   0  0  0  0  0  0  0  0  0  0  0  0  # atno 11005 bound_to 11000
  145.5704  141.0395  143.2177 LP  0  0  0  0  0  0  0  0  0  0  0  0  # atno 17320 bound_to 7965
  144.7494  139.7232  143.7279 LP  0  0  0  0  0  0  0  0  0  0  0  0  # atno 17321 bound_to 7965
  140.2822  143.3381  152.1140 LP  0  0  0  0  0  0  0  0  0  0  0  0  # atno 17342 bound_to 10162
  139.5060  144.6805  151.6021 LP  0  0  0  0  0  0  0  0  0  0  0  0  # atno 17343 bound_to 10162
  156.6497  130.4481  149.5724 LP  0  0  0  0  0  0  0  0  0  0  0  0  # atno 17370 bound_to 10713
  156.2147  130.6700  151.1306 LP  0  0  0  0  0  0  0  0  0  0  0  0  # atno 17371 bound_to 10713
  140.6557  133.9690  155.7778 LP  0  0  0  0  0  0  0  0  0  0  0  0  # atno 17394 bound_to 11000
  141.0677  134.0252  157.3570 LP  0  0  0  0  0  0  0  0  0  0  0  0  # atno 17395 bound_to 11000

$$$$
