AV-unprocessed.smi:672|AV-procd|sdf|3293|dock7
  -GOLD-   22720 0253D 1   1.00000     0.00000
 Structure written by MMmdl.
 35 36  0  0  0  0  0  0  0  0  2 V2000
  150.3988  137.8117  155.0545 C   0  0  0  0  0  0  0  0  0  0  0  0
  149.9788  136.9717  156.2652 C   0  0  0  0  0  0  0  0  0  0  0  0
  150.9309  137.0977  157.4072 C   0  0  0  0  0  0  0  0  0  0  0  0
  151.3473  136.0499  158.1230 N   0  0  0  0  0  0  0  0  0  0  0  0
  152.2038  136.4243  159.1481 N   0  0  0  0  0  0  0  0  0  0  0  0
  152.4027  137.7485  159.2097 C   0  0  0  0  0  0  0  0  0  0  0  0
  153.1967  138.3163  160.1324 N   0  5  0  0  0  0  0  0  0  0  0  0
  153.6462  139.5789  159.9510 C   0  0  0  0  0  0  0  0  0  0  0  0
  154.1425  140.0369  158.9191 O   0  0  0  0  0  0  0  0  0  0  0  0
  153.5176  140.3588  161.0339 N   0  0  0  0  0  0  0  0  0  0  0  0
  153.9171  141.7613  161.1296 C   0  0  2  0  0  0  0  0  0  0  0  0
  153.3800  142.4261  162.4150 C   0  0  0  0  0  0  0  0  0  0  0  0
  152.6719  143.7069  161.9695 C   0  0  0  0  0  0  0  0  0  0  0  0
  152.1927  143.4001  160.5514 C   0  0  1  0  0  0  0  0  0  0  0  0
  151.8350  144.8905  159.5769 S   0  0  0  0  0  0  0  0  0  0  0  0
  151.1253  144.1390  158.0882 C   0  0  0  0  0  0  0  0  0  0  0  0
  153.3320  142.5688  159.9576 C   0  0  0  0  0  0  0  0  0  0  0  0
  151.5423  138.6476  157.9604 S   0  0  0  0  0  0  0  0  0  0  0  0
  149.6883  137.6966  154.2360 H   0  0  0  0  0  0  0  0  0  0  0  0
  151.3810  137.5106  154.6890 H   0  0  0  0  0  0  0  0  0  0  0  0
  150.4464  138.8709  155.3091 H   0  0  0  0  0  0  0  0  0  0  0  0
  148.9845  137.2703  156.5993 H   0  0  0  0  0  0  0  0  0  0  0  0
  149.9105  135.9209  155.9824 H   0  0  0  0  0  0  0  0  0  0  0  0
  153.1059  139.9437  161.8568 H   0  0  0  0  0  0  0  0  0  0  0  0
  155.0061  141.8266  161.0938 H   0  0  0  0  0  0  0  0  0  0  0  0
  152.6589  141.7757  162.9128 H   0  0  0  0  0  0  0  0  0  0  0  0
  154.1752  142.6304  163.1326 H   0  0  0  0  0  0  0  0  0  0  0  0
  151.8583  143.9843  162.6398 H   0  0  0  0  0  0  0  0  0  0  0  0
  153.3861  144.5312  161.9521 H   0  0  0  0  0  0  0  0  0  0  0  0
  151.2946  142.7824  160.5986 H   0  0  0  0  0  0  0  0  0  0  0  0
  150.8796  144.9113  157.3595 H   0  0  0  0  0  0  0  0  0  0  0  0
  150.2137  143.5929  158.3300 H   0  0  0  0  0  0  0  0  0  0  0  0
  151.8361  143.4485  157.6339 H   0  0  0  0  0  0  0  0  0  0  0  0
  154.1044  143.2325  159.5666 H   0  0  0  0  0  0  0  0  0  0  0  0
  152.9979  141.9454  159.1271 H   0  0  0  0  0  0  0  0  0  0  0  0
  1  2  1  0  0  0  0
  1 19  1  0  0  0  0
  1 20  1  0  0  0  0
  1 21  1  0  0  0  0
  2  3  1  0  0  0  0
  2 22  1  0  0  0  0
  2 23  1  0  0  0  0
  3 18  1  0  0  0  0
  3  4  2  0  0  0  0
  4  5  1  0  0  0  0
  5  6  2  0  0  0  0
  6  7  1  0  0  0  0
  6 18  1  0  0  0  0
  7  8  1  0  0  0  0
  8  9  2  0  0  0  0
  8 10  1  0  0  0  0
 10 11  1  0  0  0  0
 10 24  1  0  0  0  0
 11 17  1  0  0  0  0
 11 12  1  0  0  0  0
 11 25  1  0  0  0  0
 12 13  1  0  0  0  0
 12 26  1  0  0  0  0
 12 27  1  0  0  0  0
 13 14  1  0  0  0  0
 13 28  1  0  0  0  0
 13 29  1  0  0  0  0
 14 15  1  0  0  0  0
 14 17  1  0  0  0  0
 14 30  1  0  0  0  0
 15 16  1  0  0  0  0
 16 31  1  0  0  0  0
 16 32  1  0  0  0  0
 16 33  1  0  0  0  0
 17 34  1  0  0  0  0
 17 35  1  0  0  0  0
M  CHG  1   7  -1
M  END
> <s_m_source_file>
AV-unprocessed.smi

> <i_m_source_file_index>
672

> <i_lp_mmshare_version>
43012

> <i_f3d_flags>
0

> <s_epik_input>
W0NIM11bQ0gyXWMxbm5jKHMxKVtOSF1DKD1PKVtOSF1bQ0BASF0yW0NIMl1bQ0gyXVtDQEhdKFtDSDJdMilTW0NIM10=

> <s_epik_cmdline>
J2VwaWtfcHl0aG9uJywgJy1waCcsICc3LjAnLCAnLXRuJywgJzgnLCAnLW1hJywgJzIwMCcsICctbWV0YWxfYmluZGluZycsICctaW1hZScsICc8aW5maWxlLm1hZT4nLCAnLW9tYWUnLCAnPG91dGZpbGUubWFlPic=

> <r_lp_tautomer_probability>
1

> <r_epik_Ionization_Penalty>
4.49964

> <r_epik_Ionization_Penalty_Charging>
4.32991

> <r_epik_Ionization_Penalty_Neutral>
0.169727

> <r_epik_State_Penalty>
4.32952

> <r_epik_Charging_Adjusted_Penalty>
8.65943

> <i_epik_Tot_Q>
-1

> <i_epik_Tot_abs_Q>
1

> <r_epik_Metal_State_Penalty>
0.740482

> <b_epik_Metal_Only>
1

> <s_lp_Force_Field>
OPLS_2005

> <r_lp_Energy>
9.96547

> <b_lp_Chiralities_Consistent>
1

> <s_lp_Variant>
AV-unprocessed.smi:672-5

> <Gold.Version>
5.8.1

> <Gold.Id.Protein>
6NUR|6NUR_protein|mol2

> <Gold.PLP.Fitness>
43.9306

> <Gold.PLP.PLP>
-40.3625

> <Gold.PLP.part.hbond>
-2.9594

> <Gold.PLP.part.metal>
0.0000

> <Gold.PLP.part.buried>
-3.8149

> <Gold.PLP.part.nonpolar>
-34.1864

> <Gold.PLP.part.repulsive>
0.0632

> <Gold.PLP.ligand.clash>
0.0000

> <Gold.PLP.ligand.torsion>
0.7780

> <Gold.PLP.Chemscore.Hbond>
1.6880

> <Gold.PLP.Chemscore.CHOScore>
0.0000

> <Gold.PLP.Chemscore.Metal>
0.0000

> <Gold.Chemscore.Hbonds>
donor molecule, donor type, donor heavy atom, donor atom, acceptor molecule, acceptor atom, score
      P1  H  6896  6909       L1     5  0.52
      P1  H  7997  8010       L1     9  0.90

> <Gold.PLP.Chemscore.Internal.Correction>
0.0600

> <Gold.Rescore>
     Score         DG    S(hbond)    S(metal)    S(lipo)     H(rot)  DE(clash)    DE(int)     intcor
     18.14     -19.06       1.49        0.00     102.88       1.34       0.05       0.86       ----

> <Gold.Chemscore.Fitness>
18.1447

> <Gold.Chemscore.DG>
-19.0583

> <Gold.Chemscore.ZeroCoef>
-5.4800

> <Gold.Chemscore.Hbond>
1.4892

> <Gold.Chemscore.Metal>
0.0000

> <Gold.Chemscore.Lipo>
102.8819

> <Gold.Chemscore.Internal_Hbond>
0.0000

> <Gold.Chemscore.DEClash>
0.0515

> <Gold.Chemscore.DEInternal>
0.8621

> <Gold.Chemscore.Rot>
1.3410

> <Gold.Chemscore.Internal.Correction>
   9.000000E+99

> <Gold.Chemscore.Hbonds>
donor molecule, donor type, donor heavy atom, donor atom, acceptor molecule, acceptor atom, score
      P1  H  6896  6909       L1     5  0.04
      P1  H  7997  8010       L1     9  0.88

> <Gold.Chemscore.Hbond.Weighted>
-4.9740

> <Gold.Chemscore.Metal.Weighted>
-0.0000

> <Gold.Chemscore.Lipo.Weighted>
-12.0372

> <Gold.Chemscore.Internal_Hbond.Weighted>
0.0000

> <Gold.Chemscore.DEClash.Weighted>
0.0515

> <Gold.Chemscore.DEInternal.Weighted>
0.8621

> <Gold.Chemscore.Rot.Weighted>
3.4329

> <Gold.Chemscore.Internal.Correction.Weighted>
   9.000000E+99

> <Gold.Protein.RotatedTorsions>
[ 6907 6896 6895 6894 ] final  134.43 input  -60.11 | X-H torsion
[ 7974 7965 7964 7962 ] final -111.12 input  175.53 | X-H torsion
[ 8008 7997 7996 7995 ] final   -2.08 input   59.86 | X-H torsion
[ 10167 10162 10161 10158 ] final  -82.62 input  -65.29 | X-H torsion
[ 10718 10713 10712 10709 ] final  113.03 input   66.30 | X-H torsion
[ 10763 10752 10751 10750 ] final   55.82 input  -60.55 | X-H torsion
[ 11005 11000 10999 10996 ] final -178.65 input  -57.11 | X-H torsion

> <Gold.Protein.ActiveResidues>
 VAL166  LYS551  ARG553  GLY616  TRP617  ASP618  TYR619  PRO620  LYS621  CYS622 
 ASP623  PHE694  ASN695  SER759  ASP760  ASP761  ALA762  ILE779  LEU786  VAL792 
 PHE793  MET794  SER795  GLU796  ALA797  LYS798  CYS799  TRP800  GLU811  SER814 

> <Gold.Protein.RotatedAtoms>
  152.3114  133.5757  159.5682 H   0  0  0  0  0  0  0  0  0  0  0  0  # atno 6907 bound_to 6896
  150.7325  134.0147  159.3690 H   0  0  0  0  0  0  0  0  0  0  0  0  # atno 6908 bound_to 6896
  151.8039  135.0701  160.0455 H   0  0  0  0  0  0  0  0  0  0  0  0  # atno 6909 bound_to 6896
  145.1599  140.8873  143.3597 H   0  0  0  0  0  0  0  0  0  0  0  0  # atno 7974 bound_to 7965
  154.6397  140.2543  155.7336 H   0  0  0  0  0  0  0  0  0  0  0  0  # atno 8008 bound_to 7997
  156.2522  140.2890  156.0705 H   0  0  0  0  0  0  0  0  0  0  0  0  # atno 8009 bound_to 7997
  155.1616  140.0384  157.2834 H   0  0  0  0  0  0  0  0  0  0  0  0  # atno 8010 bound_to 7997
  140.4303  143.2551  151.8769 H   0  0  0  0  0  0  0  0  0  0  0  0  # atno 10167 bound_to 10162
  157.6360  131.0977  150.6982 H   0  0  0  0  0  0  0  0  0  0  0  0  # atno 10718 bound_to 10713
  152.9822  135.5697  154.5129 H   0  0  0  0  0  0  0  0  0  0  0  0  # atno 10763 bound_to 10752
  154.4630  135.2782  155.1701 H   0  0  0  0  0  0  0  0  0  0  0  0  # atno 10764 bound_to 10752
  154.3280  135.6255  153.5592 H   0  0  0  0  0  0  0  0  0  0  0  0  # atno 10765 bound_to 10752
  140.4274  134.6550  157.4695 H   0  0  0  0  0  0  0  0  0  0  0  0  # atno 11005 bound_to 11000
  145.0342  139.3315  143.6009 LP  0  0  0  0  0  0  0  0  0  0  0  0  # atno 17320 bound_to 7965
  146.3484  139.9690  142.8708 LP  0  0  0  0  0  0  0  0  0  0  0  0  # atno 17321 bound_to 7965
  139.4785  144.5342  151.8622 LP  0  0  0  0  0  0  0  0  0  0  0  0  # atno 17342 bound_to 10162
  140.4435  144.1954  150.5892 LP  0  0  0  0  0  0  0  0  0  0  0  0  # atno 17343 bound_to 10162
  156.7313  130.4710  149.5499 LP  0  0  0  0  0  0  0  0  0  0  0  0  # atno 17370 bound_to 10713
  156.1600  130.6367  151.0706 LP  0  0  0  0  0  0  0  0  0  0  0  0  # atno 17371 bound_to 10713
  140.0158  134.6622  155.9312 LP  0  0  0  0  0  0  0  0  0  0  0  0  # atno 17394 bound_to 11000
  141.1759  133.6540  156.4828 LP  0  0  0  0  0  0  0  0  0  0  0  0  # atno 17395 bound_to 11000

$$$$
