AV-unprocessed.smi:921|AV-procd|sdf|4170|dock5
  -GOLD-   22720 2 73D 1   1.00000     0.00000
 Structure written by MMmdl.
 39 41  0  0  0  0  0  0  0  0  1 V2000
  152.4792  137.7469  157.5532 N   0  0  0  0  0  0  0  0  0  0  0  0
  152.3565  138.2810  156.3350 C   0  0  0  0  0  0  0  0  0  0  0  0
  152.2710  137.5885  155.3228 O   0  0  0  0  0  0  0  0  0  0  0  0
  152.3218  139.8118  156.2418 C   0  0  0  0  0  0  0  0  0  0  0  0
  150.9885  140.2544  155.6899 C   0  0  0  0  0  0  0  0  0  0  0  0
  150.5584  139.8623  154.4860 N   0  0  0  0  0  0  0  0  0  0  0  0
  149.3266  140.4745  154.3798 C   0  0  0  0  0  0  0  0  0  0  0  0
  148.3678  140.4360  153.3423 C   0  0  0  0  0  0  0  0  0  0  0  0
  147.1611  141.1565  153.4588 C   0  0  0  0  0  0  0  0  0  0  0  0
  146.8977  141.9254  154.6108 C   0  0  0  0  0  0  0  0  0  0  0  0
  147.8412  141.9785  155.6548 C   0  0  0  0  0  0  0  0  0  0  0  0
  149.0435  141.2554  155.5341 C   0  0  0  0  0  0  0  0  0  0  0  0
  150.1554  141.0996  156.3562 N   0  0  0  0  0  0  0  0  0  0  0  0
  150.3325  141.7433  157.6522 C   0  0  0  0  0  0  0  0  0  0  0  0
  151.5533  142.6846  157.6896 C   0  0  1  0  0  0  0  0  0  0  0  0
  151.3067  143.8470  156.9252 O   0  0  0  0  0  0  0  0  0  0  0  0
  151.9654  143.0108  159.1182 C   0  0  0  0  0  0  0  0  0  0  0  0
  152.6833  142.0553  159.8699 C   0  0  0  0  0  0  0  0  0  0  0  0
  153.0702  142.3350  161.1945 C   0  0  0  0  0  0  0  0  0  0  0  0
  153.7586  141.4122  161.9071 F   0  0  0  0  0  0  0  0  0  0  0  0
  152.7409  143.5727  161.7781 C   0  0  0  0  0  0  0  0  0  0  0  0
  152.0217  144.5292  161.0365 C   0  0  0  0  0  0  0  0  0  0  0  0
  151.6324  144.2514  159.7115 C   0  0  0  0  0  0  0  0  0  0  0  0
  150.9342  145.1822  159.0176 F   0  0  0  0  0  0  0  0  0  0  0  0
  152.5147  136.7433  157.6581 H   0  0  0  0  0  0  0  0  0  0  0  0
  152.5446  138.3465  158.3630 H   0  0  0  0  0  0  0  0  0  0  0  0
  152.5065  140.2132  157.2361 H   0  0  0  0  0  0  0  0  0  0  0  0
  153.1167  140.1804  155.5923 H   0  0  0  0  0  0  0  0  0  0  0  0
  148.5610  139.8500  152.4560 H   0  0  0  0  0  0  0  0  0  0  0  0
  146.4345  141.1191  152.6605 H   0  0  0  0  0  0  0  0  0  0  0  0
  145.9714  142.4747  154.6927 H   0  0  0  0  0  0  0  0  0  0  0  0
  147.6421  142.5669  156.5381 H   0  0  0  0  0  0  0  0  0  0  0  0
  149.4172  142.2572  157.9417 H   0  0  0  0  0  0  0  0  0  0  0  0
  150.4644  140.9561  158.3954 H   0  0  0  0  0  0  0  0  0  0  0  0
  152.3881  142.1772  157.2043 H   0  0  0  0  0  0  0  0  0  0  0  0
  150.3785  143.9086  156.7597 H   0  0  0  0  0  0  0  0  0  0  0  0
  152.9402  141.1010  159.4336 H   0  0  0  0  0  0  0  0  0  0  0  0
  153.0379  143.7876  162.7940 H   0  0  0  0  0  0  0  0  0  0  0  0
  151.7664  145.4777  161.4850 H   0  0  0  0  0  0  0  0  0  0  0  0
  1  2  1  0  0  0  0
  1 25  1  0  0  0  0
  1 26  1  0  0  0  0
  2  3  2  0  0  0  0
  2  4  1  0  0  0  0
  4  5  1  0  0  0  0
  4 27  1  0  0  0  0
  4 28  1  0  0  0  0
  5 13  1  0  0  0  0
  5  6  2  0  0  0  0
  6  7  1  0  0  0  0
  7 12  2  0  0  0  0
  7  8  1  0  0  0  0
  8  9  2  0  0  0  0
  8 29  1  0  0  0  0
  9 10  1  0  0  0  0
  9 30  1  0  0  0  0
 10 11  2  0  0  0  0
 10 31  1  0  0  0  0
 11 12  1  0  0  0  0
 11 32  1  0  0  0  0
 12 13  1  0  0  0  0
 13 14  1  0  0  0  0
 14 15  1  0  0  0  0
 14 33  1  0  0  0  0
 14 34  1  0  0  0  0
 15 16  1  0  0  0  0
 15 17  1  0  0  0  0
 15 35  1  0  0  0  0
 16 36  1  0  0  0  0
 17 23  1  0  0  0  0
 17 18  2  0  0  0  0
 18 19  1  0  0  0  0
 18 37  1  0  0  0  0
 19 20  1  0  0  0  0
 19 21  2  0  0  0  0
 21 22  1  0  0  0  0
 21 38  1  0  0  0  0
 22 23  2  0  0  0  0
 22 39  1  0  0  0  0
 23 24  1  0  0  0  0
M  END
> <s_m_source_file>
AV-unprocessed.smi

> <i_m_source_file_index>
921

> <i_lp_mmshare_version>
43012

> <i_f3d_flags>
0

> <s_epik_input>
W2NIXTFbY0hdW2NIXVtjSF1jKGMxMiluKGMobjIpW0NIMl1DKD1PKVtOSDJdKVtDSDJdW0NASF0oW09IXSljM1tjSF1jKEYpW2NIXVtjSF1jM0Y=

> <s_epik_cmdline>
J2VwaWtfcHl0aG9uJywgJy1waCcsICc3LjAnLCAnLXRuJywgJzgnLCAnLW1hJywgJzIwMCcsICctbWV0YWxfYmluZGluZycsICctaW1hZScsICc8aW5maWxlLm1hZT4nLCAnLW9tYWUnLCAnPG91dGZpbGUubWFlPic=

> <r_epik_Ionization_Penalty>
0.0366909

> <r_epik_Ionization_Penalty_Charging>
0

> <r_epik_Ionization_Penalty_Neutral>
0.0366909

> <r_epik_State_Penalty>
0.0306642

> <r_epik_Charging_Adjusted_Penalty>
0.0306642

> <i_epik_Tot_Q>
0

> <i_epik_Tot_abs_Q>
0

> <r_epik_Metal_State_Penalty>
0.028853

> <b_epik_Metal_Only>
0

> <s_lp_Force_Field>
OPLS_2005

> <r_lp_Energy>
12.6205

> <b_lp_Chiralities_Consistent>
1

> <s_lp_Variant>
AV-unprocessed.smi:921-2

> <Gold.Version>
5.8.1

> <Gold.Id.Protein>
6NUR|6NUR_protein|mol2

> <Gold.PLP.Fitness>
58.7421

> <Gold.PLP.PLP>
-53.0983

> <Gold.PLP.part.hbond>
-3.0000

> <Gold.PLP.part.metal>
0.0000

> <Gold.PLP.part.buried>
0.0734

> <Gold.PLP.part.nonpolar>
-50.2954

> <Gold.PLP.part.repulsive>
0.2515

> <Gold.PLP.ligand.clash>
0.0000

> <Gold.PLP.ligand.torsion>
0.6674

> <Gold.PLP.Chemscore.Hbond>
2.2944

> <Gold.PLP.Chemscore.CHOScore>
0.0000

> <Gold.PLP.Chemscore.Metal>
0.0000

> <Gold.Chemscore.Hbonds>
donor molecule, donor type, donor heavy atom, donor atom, acceptor molecule, acceptor atom, score
      L1  H    16    36       P1  8028  0.94
      P1  H  7989  7998       L1     6  0.95
      P1  H 10752 10764       L1     3  0.39

> <Gold.PLP.Chemscore.Internal.Correction>
0.0954

> <Gold.Rescore>
     Score         DG    S(hbond)    S(metal)    S(lipo)     H(rot)  DE(clash)    DE(int)     intcor
     13.98     -18.70       1.75        0.00     131.22       3.11       2.15       2.56       ----

> <Gold.Chemscore.Fitness>
13.9821

> <Gold.Chemscore.DG>
-18.6950

> <Gold.Chemscore.ZeroCoef>
-5.4800

> <Gold.Chemscore.Hbond>
1.7454

> <Gold.Chemscore.Metal>
0.0000

> <Gold.Chemscore.Lipo>
131.2165

> <Gold.Chemscore.Internal_Hbond>
0.0000

> <Gold.Chemscore.DEClash>
2.1532

> <Gold.Chemscore.DEInternal>
2.5597

> <Gold.Chemscore.Rot>
3.1121

> <Gold.Chemscore.Internal.Correction>
   9.000000E+99

> <Gold.Chemscore.Hbonds>
donor molecule, donor type, donor heavy atom, donor atom, acceptor molecule, acceptor atom, score
      L1  H    16    36       P1  8028  0.87
      P1  H  7989  7998       L1     6  0.10
      P1  H 10752 10764       L1     3  0.39

> <Gold.Chemscore.Hbond.Weighted>
-5.8297

> <Gold.Chemscore.Metal.Weighted>
-0.0000

> <Gold.Chemscore.Lipo.Weighted>
-15.3523

> <Gold.Chemscore.Internal_Hbond.Weighted>
0.0000

> <Gold.Chemscore.DEClash.Weighted>
2.1532

> <Gold.Chemscore.DEInternal.Weighted>
2.5597

> <Gold.Chemscore.Rot.Weighted>
7.9670

> <Gold.Chemscore.Internal.Correction.Weighted>
   9.000000E+99

> <Gold.Protein.RotatedTorsions>
[ 6907 6896 6895 6894 ] final  -39.18 input  -60.11 | X-H torsion
[ 7974 7965 7964 7962 ] final  115.63 input  175.53 | X-H torsion
[ 8008 7997 7996 7995 ] final -132.10 input   59.86 | X-H torsion
[ 10167 10162 10161 10158 ] final   56.28 input  -65.29 | X-H torsion
[ 10718 10713 10712 10709 ] final   42.51 input   66.30 | X-H torsion
[ 10763 10752 10751 10750 ] final  -52.86 input  -60.55 | X-H torsion
[ 11005 11000 10999 10996 ] final   55.00 input  -57.11 | X-H torsion

> <Gold.Protein.ActiveResidues>
 VAL166  LYS551  ARG553  GLY616  TRP617  ASP618  TYR619  PRO620  LYS621  CYS622 
 ASP623  PHE694  ASN695  SER759  ASP760  ASP761  ALA762  ILE779  LEU786  VAL792 
 PHE793  MET794  SER795  GLU796  ALA797  LYS798  CYS799  TRP800  GLU811  SER814 

> <Gold.Protein.RotatedAtoms>
  150.9934  134.9263  159.7912 H   0  0  0  0  0  0  0  0  0  0  0  0  # atno 6907 bound_to 6896
  152.5257  134.3251  159.9172 H   0  0  0  0  0  0  0  0  0  0  0  0  # atno 6908 bound_to 6896
  151.3257  133.3980  159.2692 H   0  0  0  0  0  0  0  0  0  0  0  0  # atno 6909 bound_to 6896
  145.1896  139.3007  143.4375 H   0  0  0  0  0  0  0  0  0  0  0  0  # atno 7974 bound_to 7965
  155.3233  140.0463  157.3040 H   0  0  0  0  0  0  0  0  0  0  0  0  # atno 8008 bound_to 7997
  154.5368  140.2275  155.8675 H   0  0  0  0  0  0  0  0  0  0  0  0  # atno 8009 bound_to 7997
  156.1843  140.3066  155.9214 H   0  0  0  0  0  0  0  0  0  0  0  0  # atno 8010 bound_to 7997
  140.2105  144.3894  150.6491 H   0  0  0  0  0  0  0  0  0  0  0  0  # atno 10167 bound_to 10162
  157.4056  130.7885  149.7386 H   0  0  0  0  0  0  0  0  0  0  0  0  # atno 10718 bound_to 10713
  154.1495  135.6492  153.4960 H   0  0  0  0  0  0  0  0  0  0  0  0  # atno 10763 bound_to 10752
  153.0142  135.5334  154.6823 H   0  0  0  0  0  0  0  0  0  0  0  0  # atno 10764 bound_to 10752
  154.6106  135.2953  155.0407 H   0  0  0  0  0  0  0  0  0  0  0  0  # atno 10765 bound_to 10752
  140.0641  134.5560  155.9118 H   0  0  0  0  0  0  0  0  0  0  0  0  # atno 11005 bound_to 11000
  146.3438  140.2104  142.8590 LP  0  0  0  0  0  0  0  0  0  0  0  0  # atno 17320 bound_to 7965
  145.0055  140.8669  143.5256 LP  0  0  0  0  0  0  0  0  0  0  0  0  # atno 17321 bound_to 7965
  140.6327  143.2190  151.6461 LP  0  0  0  0  0  0  0  0  0  0  0  0  # atno 17342 bound_to 10162
  139.5182  144.3292  152.0842 LP  0  0  0  0  0  0  0  0  0  0  0  0  # atno 17343 bound_to 10162
  155.9835  130.3999  150.3358 LP  0  0  0  0  0  0  0  0  0  0  0  0  # atno 17370 bound_to 10713
  157.1490  131.0316  151.2893 LP  0  0  0  0  0  0  0  0  0  0  0  0  # atno 17371 bound_to 10713
  141.1985  133.6602  156.5798 LP  0  0  0  0  0  0  0  0  0  0  0  0  # atno 17394 bound_to 11000
  140.3725  134.7593  157.4608 LP  0  0  0  0  0  0  0  0  0  0  0  0  # atno 17395 bound_to 11000

$$$$
