AV-unprocessed.smi:2568|AV-procd|sdf|10096|dock8
  -GOLD-   2272014113D 1   1.00000     0.00000
 Structure written by MMmdl.
 24 25  0  0  0  0  0  0  0  0  1 V2000
  140.1107  137.0012  153.9611 C   0  0  0  0  0  0  0  0  0  0  0  0
  141.1818  136.0076  153.6644 C   0  0  0  0  0  0  0  0  0  0  0  0
  141.0882  134.7446  154.0766 N   0  0  0  0  0  0  0  0  0  0  0  0
  142.2347  134.2110  153.6048 N   0  0  0  0  0  0  0  0  0  0  0  0
  142.9267  135.1495  152.9550 C   0  0  0  0  0  0  0  0  0  0  0  0
  144.2534  134.8621  152.3258 C   0  0  2  0  0  0  0  0  0  0  0  0
  144.2636  135.1591  150.8134 C   0  0  0  0  0  0  0  0  0  0  0  0
  145.5520  134.7836  150.2336 N   0  0  0  0  0  0  0  0  0  0  0  0
  145.8728  133.3863  150.5214 C   0  0  0  0  0  0  0  0  0  0  0  0
  145.8150  133.1243  152.0375 C   0  0  0  0  0  0  0  0  0  0  0  0
  144.5298  133.4799  152.5361 O   0  0  0  0  0  0  0  0  0  0  0  0
  142.3084  136.3274  152.9594 N   0  0  0  0  0  0  0  0  0  0  0  0
  142.4914  133.2439  153.7424 H   0  0  0  0  0  0  0  0  0  0  0  0
  139.4108  136.6104  154.7007 H   0  0  0  0  0  0  0  0  0  0  0  0
  139.5570  137.2387  153.0528 H   0  0  0  0  0  0  0  0  0  0  0  0
  140.5461  137.9210  154.3524 H   0  0  0  0  0  0  0  0  0  0  0  0
  145.0119  135.4632  152.8313 H   0  0  0  0  0  0  0  0  0  0  0  0
  143.4630  134.6041  150.3227 H   0  0  0  0  0  0  0  0  0  0  0  0
  144.0674  136.2169  150.6362 H   0  0  0  0  0  0  0  0  0  0  0  0
  145.5274  134.9265  149.2289 H   0  0  0  0  0  0  0  0  0  0  0  0
  145.1668  132.7307  150.0104 H   0  0  0  0  0  0  0  0  0  0  0  0
  146.8627  133.1424  150.1353 H   0  0  0  0  0  0  0  0  0  0  0  0
  145.9922  132.0683  152.2418 H   0  0  0  0  0  0  0  0  0  0  0  0
  146.5916  133.6840  152.5615 H   0  0  0  0  0  0  0  0  0  0  0  0
  1  2  1  0  0  0  0
  1 14  1  0  0  0  0
  1 15  1  0  0  0  0
  1 16  1  0  0  0  0
  2 12  1  0  0  0  0
  2  3  2  0  0  0  0
  3  4  1  0  0  0  0
  4 13  1  0  0  0  0
  4  5  1  0  0  0  0
  5  6  1  0  0  0  0
  5 12  2  0  0  0  0
  6 11  1  0  0  0  0
  6  7  1  0  0  0  0
  6 17  1  0  0  0  0
  7  8  1  0  0  0  0
  7 18  1  0  0  0  0
  7 19  1  0  0  0  0
  8  9  1  0  0  0  0
  8 20  1  0  0  0  0
  9 10  1  0  0  0  0
  9 21  1  0  0  0  0
  9 22  1  0  0  0  0
 10 11  1  0  0  0  0
 10 23  1  0  0  0  0
 10 24  1  0  0  0  0
M  END
> <s_m_source_file>
AV-unprocessed.smi

> <i_m_source_file_index>
2568

> <i_lp_mmshare_version>
43012

> <i_f3d_flags>
0

> <s_epik_input>
W0NIM11jMW5bbkhdYyhuMSlbQ0BASF0yW0NIMl1bTkhdW0NIMl1bQ0gyXU8y

> <s_epik_cmdline>
J2VwaWtfcHl0aG9uJywgJy1waCcsICc3LjAnLCAnLXRuJywgJzgnLCAnLW1hJywgJzIwMCcsICctbWV0YWxfYmluZGluZycsICctaW1hZScsICc8aW5maWxlLm1hZT4nLCAnLW9tYWUnLCAnPG91dGZpbGUubWFlPic=

> <r_lp_tautomer_probability>
0.948284

> <r_epik_Ionization_Penalty>
0.982563

> <r_epik_Ionization_Penalty_Charging>
0

> <r_epik_Ionization_Penalty_Neutral>
0.982563

> <r_epik_State_Penalty>
2.21233

> <r_epik_Charging_Adjusted_Penalty>
2.21233

> <i_epik_Tot_Q>
0

> <i_epik_Tot_abs_Q>
0

> <r_epik_Metal_State_Penalty>
2.51138

> <b_epik_Metal_Only>
0

> <s_lp_Force_Field>
OPLS_2005

> <r_lp_Energy>
12.795

> <b_lp_Chiralities_Consistent>
1

> <s_lp_Variant>
AV-unprocessed.smi:2568-9

> <Gold.Version>
5.8.1

> <Gold.Id.Protein>
6NUR|6NUR_protein|mol2

> <Gold.PLP.Fitness>
30.1657

> <Gold.PLP.PLP>
-21.1740

> <Gold.PLP.part.hbond>
-3.5368

> <Gold.PLP.part.metal>
0.0000

> <Gold.PLP.part.buried>
-4.8097

> <Gold.PLP.part.nonpolar>
-12.5600

> <Gold.PLP.part.repulsive>
0.5240

> <Gold.PLP.ligand.clash>
0.0000

> <Gold.PLP.ligand.torsion>
0.0046

> <Gold.PLP.Chemscore.Hbond>
3.0000

> <Gold.PLP.Chemscore.CHOScore>
0.0000

> <Gold.PLP.Chemscore.Metal>
0.0000

> <Gold.Chemscore.Hbonds>
donor molecule, donor type, donor heavy atom, donor atom, acceptor molecule, acceptor atom, score
      L1  H     4    13       P1 10957  1.00
      L1  H     8    20       P1  7921  1.00
      P1  H 11000 11005       L1     3  1.00

> <Gold.PLP.Chemscore.Internal.Correction>
0.0008

> <Gold.Rescore>
     Score         DG    S(hbond)    S(metal)    S(lipo)     H(rot)  DE(clash)    DE(int)     intcor
     16.01     -16.03       2.91        0.00      28.85       1.00       0.00       0.01       ----

> <Gold.Chemscore.Fitness>
16.0148

> <Gold.Chemscore.DG>
-16.0301

> <Gold.Chemscore.ZeroCoef>
-5.4800

> <Gold.Chemscore.Hbond>
2.9147

> <Gold.Chemscore.Metal>
0.0000

> <Gold.Chemscore.Lipo>
28.8465

> <Gold.Chemscore.Internal_Hbond>
0.0000

> <Gold.Chemscore.DEClash>
0.0047

> <Gold.Chemscore.DEInternal>
0.0106

> <Gold.Chemscore.Rot>
1.0000

> <Gold.Chemscore.Internal.Correction>
   9.000000E+99

> <Gold.Chemscore.Hbonds>
donor molecule, donor type, donor heavy atom, donor atom, acceptor molecule, acceptor atom, score
      L1  H     4    13       P1 10957  0.96
      L1  H     8    20       P1  7921  0.98
      P1  H 11000 11005       L1     3  0.97

> <Gold.Chemscore.Hbond.Weighted>
-9.7350

> <Gold.Chemscore.Metal.Weighted>
-0.0000

> <Gold.Chemscore.Lipo.Weighted>
-3.3750

> <Gold.Chemscore.Internal_Hbond.Weighted>
0.0000

> <Gold.Chemscore.DEClash.Weighted>
0.0047

> <Gold.Chemscore.DEInternal.Weighted>
0.0106

> <Gold.Chemscore.Rot.Weighted>
2.5600

> <Gold.Chemscore.Internal.Correction.Weighted>
   9.000000E+99

> <Gold.Protein.RotatedTorsions>
[ 6907 6896 6895 6894 ] final  133.75 input  -60.11 | X-H torsion
[ 7974 7965 7964 7962 ] final  -84.53 input  175.53 | X-H torsion
[ 8008 7997 7996 7995 ] final -170.50 input   59.86 | X-H torsion
[ 10167 10162 10161 10158 ] final -108.82 input  -65.29 | X-H torsion
[ 10718 10713 10712 10709 ] final  -78.46 input   66.30 | X-H torsion
[ 10763 10752 10751 10750 ] final  -35.65 input  -60.55 | X-H torsion
[ 11005 11000 10999 10996 ] final   29.39 input  -57.11 | X-H torsion

> <Gold.Protein.ActiveResidues>
 VAL166  LYS551  ARG553  GLY616  TRP617  ASP618  TYR619  PRO620  LYS621  CYS622 
 ASP623  PHE694  ASN695  SER759  ASP760  ASP761  ALA762  ILE779  LEU786  VAL792 
 PHE793  MET794  SER795  GLU796  ALA797  LYS798  CYS799  TRP800  GLU811  SER814 

> <Gold.Protein.RotatedAtoms>
  152.3186  133.5829  159.5728 H   0  0  0  0  0  0  0  0  0  0  0  0  # atno 6907 bound_to 6896
  150.7359  134.0045  159.3658 H   0  0  0  0  0  0  0  0  0  0  0  0  # atno 6908 bound_to 6896
  151.7931  135.0730  160.0441 H   0  0  0  0  0  0  0  0  0  0  0  0  # atno 6909 bound_to 6896
  145.5054  140.9544  143.1737 H   0  0  0  0  0  0  0  0  0  0  0  0  # atno 7974 bound_to 7965
  155.9192  140.1071  157.1220 H   0  0  0  0  0  0  0  0  0  0  0  0  # atno 8008 bound_to 7997
  154.4051  140.1259  156.4722 H   0  0  0  0  0  0  0  0  0  0  0  0  # atno 8009 bound_to 7997
  155.7216  140.3469  155.5021 H   0  0  0  0  0  0  0  0  0  0  0  0  # atno 8010 bound_to 7997
  140.1620  143.4113  152.1419 H   0  0  0  0  0  0  0  0  0  0  0  0  # atno 10167 bound_to 10162
  156.0117  130.4518  150.3499 H   0  0  0  0  0  0  0  0  0  0  0  0  # atno 10718 bound_to 10713
  153.8667  135.6835  153.4778 H   0  0  0  0  0  0  0  0  0  0  0  0  # atno 10763 bound_to 10752
  153.1310  135.4698  154.9347 H   0  0  0  0  0  0  0  0  0  0  0  0  # atno 10764 bound_to 10752
  154.7733  135.3245  154.8094 H   0  0  0  0  0  0  0  0  0  0  0  0  # atno 10765 bound_to 10752
  140.3055  134.2709  155.7745 H   0  0  0  0  0  0  0  0  0  0  0  0  # atno 11005 bound_to 11000
  144.7757  139.6636  143.7176 LP  0  0  0  0  0  0  0  0  0  0  0  0  # atno 17320 bound_to 7965
  146.2200  139.5618  142.9625 LP  0  0  0  0  0  0  0  0  0  0  0  0  # atno 17321 bound_to 7965
  139.5377  144.7226  151.4838 LP  0  0  0  0  0  0  0  0  0  0  0  0  # atno 17342 bound_to 10162
  140.6637  143.8444  150.6917 LP  0  0  0  0  0  0  0  0  0  0  0  0  # atno 17343 bound_to 10162
  157.1592  131.0340  151.2849 LP  0  0  0  0  0  0  0  0  0  0  0  0  # atno 17370 bound_to 10713
  157.4326  130.7499  149.7002 LP  0  0  0  0  0  0  0  0  0  0  0  0  # atno 17371 bound_to 10713
  141.2119  133.7674  156.9830 LP  0  0  0  0  0  0  0  0  0  0  0  0  # atno 17394 bound_to 11000
  140.1071  134.9499  157.2011 LP  0  0  0  0  0  0  0  0  0  0  0  0  # atno 17395 bound_to 11000

$$$$
