AV-unprocessed.smi:1082|AV-procd|sdf|4714|dock9
  -GOLD-   22720 3243D 1   1.00000     0.00000
 Structure written by MMmdl.
 48 50  0  0  0  0  0  0  0  0  4 V2000
  149.8010  137.8369  158.5044 O   0  0  0  0  0  0  0  0  0  0  0  0
  149.3538  137.7649  157.3540 C   0  0  0  0  0  0  0  0  0  0  0  0
  148.8131  136.6815  156.7362 N   0  5  0  0  0  0  0  0  0  0  0  0
  148.8261  136.4523  155.2895 C   0  0  0  0  0  0  0  0  0  0  0  0
  148.9237  134.9405  154.9994 C   0  0  0  0  0  0  0  0  0  0  0  0
  148.1776  134.5355  153.7776 N   0  3  0  0  0  0  0  0  0  0  0  0
  148.5320  133.1928  153.2586 C   0  0  0  0  0  0  0  0  0  0  0  0
  147.2309  132.5420  152.7682 C   0  0  0  0  0  0  0  0  0  0  0  0
  146.2104  133.6755  152.7480 C   0  0  0  0  0  0  0  0  0  0  0  0
  146.6997  134.5960  153.8600 C   0  0  0  0  0  0  0  0  0  0  0  0
  149.3831  138.8424  156.5513 N   0  0  0  0  0  0  0  0  0  0  0  0
  149.9553  140.1163  156.8185 C   0  0  0  0  0  0  0  0  0  0  0  0
  151.1196  140.2324  157.6185 C   0  0  0  0  0  0  0  0  0  0  0  0
  151.6297  141.5055  157.9348 C   0  0  0  0  0  0  0  0  0  0  0  0
  150.9561  142.6442  157.4601 C   0  0  0  0  0  0  0  0  0  0  0  0
  149.8418  142.4999  156.7132 N   0  3  0  0  0  0  0  0  0  0  0  0
  149.3102  141.3018  156.3626 C   0  0  0  0  0  0  0  0  0  0  0  0
  148.1431  141.3047  155.5649 N   0  0  0  0  0  0  0  0  0  0  0  0
  148.2455  141.6550  154.1512 C   0  0  0  0  0  0  0  0  0  0  0  0
  146.9583  142.4088  153.7995 C   0  0  0  0  0  0  0  0  0  0  0  0
  145.9762  141.9748  154.8838 C   0  0  0  0  0  0  0  0  0  0  0  0
  146.8831  141.8068  156.0999 C   0  0  0  0  0  0  0  0  0  0  0  0
  147.9230  136.8422  154.8202 H   0  0  0  0  0  0  0  0  0  0  0  0
  149.6571  136.9544  154.7923 H   0  0  0  0  0  0  0  0  0  0  0  0
  149.9780  134.6901  154.8700 H   0  0  0  0  0  0  0  0  0  0  0  0
  148.5781  134.3614  155.8564 H   0  0  0  0  0  0  0  0  0  0  0  0
  149.2513  133.3076  152.4472 H   0  0  0  0  0  0  0  0  0  0  0  0
  148.9944  132.5704  154.0261 H   0  0  0  0  0  0  0  0  0  0  0  0
  147.3415  132.0627  151.7951 H   0  0  0  0  0  0  0  0  0  0  0  0
  146.9141  131.7779  153.4792 H   0  0  0  0  0  0  0  0  0  0  0  0
  146.2521  134.1964  151.7904 H   0  0  0  0  0  0  0  0  0  0  0  0
  145.1874  133.3304  152.9012 H   0  0  0  0  0  0  0  0  0  0  0  0
  146.3648  134.2145  154.8260 H   0  0  0  0  0  0  0  0  0  0  0  0
  146.3249  135.6141  153.7484 H   0  0  0  0  0  0  0  0  0  0  0  0
  149.0952  138.6810  155.5973 H   0  0  0  0  0  0  0  0  0  0  0  0
  151.6162  139.3570  158.0104 H   0  0  0  0  0  0  0  0  0  0  0  0
  152.5169  141.6049  158.5426 H   0  0  0  0  0  0  0  0  0  0  0  0
  151.2689  143.6593  157.6571 H   0  0  0  0  0  0  0  0  0  0  0  0
  149.1290  142.2591  153.9391 H   0  0  0  0  0  0  0  0  0  0  0  0
  148.3125  140.7378  153.5653 H   0  0  0  0  0  0  0  0  0  0  0  0
  147.1313  143.4835  153.8723 H   0  0  0  0  0  0  0  0  0  0  0  0
  146.6037  142.1935  152.7911 H   0  0  0  0  0  0  0  0  0  0  0  0
  145.1728  142.6937  155.0473 H   0  0  0  0  0  0  0  0  0  0  0  0
  145.5273  141.0170  154.6166 H   0  0  0  0  0  0  0  0  0  0  0  0
  146.4571  141.1187  156.8309 H   0  0  0  0  0  0  0  0  0  0  0  0
  147.0331  142.7738  156.5819 H   0  0  0  0  0  0  0  0  0  0  0  0
  148.4513  135.1879  153.0557 H   0  0  0  0  0  0  0  0  0  0  0  0
  149.3746  143.3450  156.3846 H   0  0  0  0  0  0  0  0  0  0  0  0
  1  2  2  0  0  0  0
  2  3  1  0  0  0  0
  2 11  1  0  0  0  0
  3  4  1  0  0  0  0
  4  5  1  0  0  0  0
  4 23  1  0  0  0  0
  4 24  1  0  0  0  0
  5  6  1  0  0  0  0
  5 25  1  0  0  0  0
  5 26  1  0  0  0  0
  6 10  1  0  0  0  0
  6  7  1  0  0  0  0
  6 47  1  0  0  0  0
  7  8  1  0  0  0  0
  7 27  1  0  0  0  0
  7 28  1  0  0  0  0
  8  9  1  0  0  0  0
  8 29  1  0  0  0  0
  8 30  1  0  0  0  0
  9 10  1  0  0  0  0
  9 31  1  0  0  0  0
  9 32  1  0  0  0  0
 10 33  1  0  0  0  0
 10 34  1  0  0  0  0
 11 12  1  0  0  0  0
 11 35  1  0  0  0  0
 12 17  1  0  0  0  0
 12 13  2  0  0  0  0
 13 14  1  0  0  0  0
 13 36  1  0  0  0  0
 14 15  2  0  0  0  0
 14 37  1  0  0  0  0
 15 16  1  0  0  0  0
 15 38  1  0  0  0  0
 16 17  2  0  0  0  0
 16 48  1  0  0  0  0
 17 18  1  0  0  0  0
 18 22  1  0  0  0  0
 18 19  1  0  0  0  0
 19 20  1  0  0  0  0
 19 39  1  0  0  0  0
 19 40  1  0  0  0  0
 20 21  1  0  0  0  0
 20 41  1  0  0  0  0
 20 42  1  0  0  0  0
 21 22  1  0  0  0  0
 21 43  1  0  0  0  0
 21 44  1  0  0  0  0
 22 45  1  0  0  0  0
 22 46  1  0  0  0  0
M  CHG  1   3  -1
M  CHG  1   6   1
M  CHG  1  16   1
M  END
> <s_m_source_file>
AV-unprocessed.smi

> <i_m_source_file_index>
1082

> <i_lp_mmshare_version>
43012

> <i_f3d_flags>
0

> <s_epik_input>
W0NIMl0xW0NIMl1bQ0gyXVtDSDJdTjFbQ0gyXVtDSDJdW05IXUMoPU8pW05IXWMyW2NIXVtjSF1bY0hdbmMyTjNbQ0gyXVtDSDJdW0NIMl1bQ0gyXTM=

> <s_epik_cmdline>
J2VwaWtfcHl0aG9uJywgJy1waCcsICc3LjAnLCAnLXRuJywgJzgnLCAnLW1hJywgJzIwMCcsICctbWV0YWxfYmluZGluZycsICctaW1hZScsICc8aW5maWxlLm1hZT4nLCAnLW9tYWUnLCAnPG91dGZpbGUubWFlPic=

> <r_lp_tautomer_probability>
0.999994

> <r_epik_Ionization_Penalty>
8.55934

> <r_epik_Ionization_Penalty_Charging>
8.55934

> <r_epik_Ionization_Penalty_Neutral>
3.77642e-06

> <r_epik_State_Penalty>
8.06887

> <r_epik_Charging_Adjusted_Penalty>
16.6282

> <i_epik_Tot_Q>
1

> <i_epik_Tot_abs_Q>
3

> <r_epik_Metal_State_Penalty>
4.05607

> <b_epik_Metal_Only>
1

> <s_lp_Force_Field>
OPLS_2005

> <r_lp_Energy>
53.4939

> <b_lp_Chiralities_Consistent>
1

> <s_lp_Variant>
AV-unprocessed.smi:1082-3

> <Gold.Version>
5.8.1

> <Gold.Id.Protein>
6NUR|6NUR_protein|mol2

> <Gold.PLP.Fitness>
43.3683

> <Gold.PLP.PLP>
-32.9874

> <Gold.PLP.part.hbond>
-2.0000

> <Gold.PLP.part.metal>
0.0000

> <Gold.PLP.part.buried>
-5.7126

> <Gold.PLP.part.nonpolar>
-25.1840

> <Gold.PLP.part.repulsive>
0.1251

> <Gold.PLP.ligand.clash>
0.0000

> <Gold.PLP.ligand.torsion>
1.1125

> <Gold.PLP.Chemscore.Hbond>
4.0000

> <Gold.PLP.Chemscore.CHOScore>
0.0000

> <Gold.PLP.Chemscore.Metal>
0.0000

> <Gold.Chemscore.Hbonds>
donor molecule, donor type, donor heavy atom, donor atom, acceptor molecule, acceptor atom, score
      L1  H     6    47       P1  7948  2.00
      L1  H    16    48       P1  8028  2.00

> <Gold.PLP.Chemscore.Internal.Correction>
0.6058

> <Gold.Rescore>
     Score         DG    S(hbond)    S(metal)    S(lipo)     H(rot)  DE(clash)    DE(int)     intcor
     13.75     -15.88       1.98        0.00      67.40       1.60       0.03       2.10       ----

> <Gold.Chemscore.Fitness>
13.7461

> <Gold.Chemscore.DG>
-15.8768

> <Gold.Chemscore.ZeroCoef>
-5.4800

> <Gold.Chemscore.Hbond>
1.9780

> <Gold.Chemscore.Metal>
0.0000

> <Gold.Chemscore.Lipo>
67.4014

> <Gold.Chemscore.Internal_Hbond>
0.0000

> <Gold.Chemscore.DEClash>
0.0270

> <Gold.Chemscore.DEInternal>
2.1037

> <Gold.Chemscore.Rot>
1.5998

> <Gold.Chemscore.Internal.Correction>
   9.000000E+99

> <Gold.Chemscore.Hbonds>
donor molecule, donor type, donor heavy atom, donor atom, acceptor molecule, acceptor atom, score
      L1  H     6    47       P1  7948  0.88
      L1  H    16    48       P1  8028  0.99

> <Gold.Chemscore.Hbond.Weighted>
-6.6064

> <Gold.Chemscore.Metal.Weighted>
-0.0000

> <Gold.Chemscore.Lipo.Weighted>
-7.8860

> <Gold.Chemscore.Internal_Hbond.Weighted>
0.0000

> <Gold.Chemscore.DEClash.Weighted>
0.0270

> <Gold.Chemscore.DEInternal.Weighted>
2.1037

> <Gold.Chemscore.Rot.Weighted>
4.0956

> <Gold.Chemscore.Internal.Correction.Weighted>
   9.000000E+99

> <Gold.Protein.RotatedTorsions>
[ 6907 6896 6895 6894 ] final -168.90 input  -60.11 | X-H torsion
[ 7974 7965 7964 7962 ] final  -94.45 input  175.53 | X-H torsion
[ 8008 7997 7996 7995 ] final  105.68 input   59.86 | X-H torsion
[ 10167 10162 10161 10158 ] final  -39.19 input  -65.29 | X-H torsion
[ 10718 10713 10712 10709 ] final  107.25 input   66.30 | X-H torsion
[ 10763 10752 10751 10750 ] final  -74.24 input  -60.55 | X-H torsion
[ 11005 11000 10999 10996 ] final  -68.43 input  -57.11 | X-H torsion

> <Gold.Protein.ActiveResidues>
 VAL166  LYS551  ARG553  GLY616  TRP617  ASP618  TYR619  PRO620  LYS621  CYS622 
 ASP623  PHE694  ASN695  SER759  ASP760  ASP761  ALA762  ILE779  LEU786  VAL792 
 PHE793  MET794  SER795  GLU796  ALA797  LYS798  CYS799  TRP800  GLU811  SER814 

> <Gold.Protein.RotatedAtoms>
  151.4830  133.3542  159.2841 H   0  0  0  0  0  0  0  0  0  0  0  0  # atno 6907 bound_to 6896
  150.8884  134.8287  159.7287 H   0  0  0  0  0  0  0  0  0  0  0  0  # atno 6908 bound_to 6896
  152.4808  134.4737  159.9695 H   0  0  0  0  0  0  0  0  0  0  0  0  # atno 6909 bound_to 6896
  145.3731  140.9508  143.2436 H   0  0  0  0  0  0  0  0  0  0  0  0  # atno 7974 bound_to 7965
  156.1679  140.3126  155.8922 H   0  0  0  0  0  0  0  0  0  0  0  0  # atno 8008 bound_to 7997
  155.3647  140.0478  157.3063 H   0  0  0  0  0  0  0  0  0  0  0  0  # atno 8009 bound_to 7997
  154.5211  140.2198  155.8985 H   0  0  0  0  0  0  0  0  0  0  0  0  # atno 8010 bound_to 7997
  140.7071  143.3230  151.2748 H   0  0  0  0  0  0  0  0  0  0  0  0  # atno 10167 bound_to 10162
  157.6636  131.0868  150.6129 H   0  0  0  0  0  0  0  0  0  0  0  0  # atno 10718 bound_to 10713
  154.4703  135.5871  153.6317 H   0  0  0  0  0  0  0  0  0  0  0  0  # atno 10763 bound_to 10752
  152.9834  135.6065  154.3374 H   0  0  0  0  0  0  0  0  0  0  0  0  # atno 10764 bound_to 10752
  154.3256  135.2843  155.2477 H   0  0  0  0  0  0  0  0  0  0  0  0  # atno 10765 bound_to 10752
  141.1532  133.6740  156.6445 H   0  0  0  0  0  0  0  0  0  0  0  0  # atno 11005 bound_to 11000
  144.8562  139.5246  143.6833 LP  0  0  0  0  0  0  0  0  0  0  0  0  # atno 17320 bound_to 7965
  146.2876  139.7048  142.9184 LP  0  0  0  0  0  0  0  0  0  0  0  0  # atno 17321 bound_to 7965
  139.6689  144.0055  152.2740 LP  0  0  0  0  0  0  0  0  0  0  0  0  # atno 17342 bound_to 10162
  139.9647  144.6534  150.8046 LP  0  0  0  0  0  0  0  0  0  0  0  0  # atno 17343 bound_to 10162
  156.6430  130.4464  149.5746 LP  0  0  0  0  0  0  0  0  0  0  0  0  # atno 17370 bound_to 10713
  156.2195  130.6728  151.1353 LP  0  0  0  0  0  0  0  0  0  0  0  0  # atno 17371 bound_to 10713
  140.3368  134.7882  157.4368 LP  0  0  0  0  0  0  0  0  0  0  0  0  # atno 17394 bound_to 11000
  140.0971  134.5523  155.8388 LP  0  0  0  0  0  0  0  0  0  0  0  0  # atno 17395 bound_to 11000

$$$$
