AV-unprocessed.smi:701|AV-procd|sdf|3408|dock5
  -GOLD-   22720 0383D 1   1.00000     0.00000
 Structure written by MMmdl.
 49 51  0  0  0  0  0  0  0  0  1 V2000
  143.1662  140.5003  156.3303 C   0  0  0  0  0  0  0  0  0  0  0  0
  143.7161  139.1887  156.8951 C   0  0  0  0  0  0  0  0  0  0  0  0
  145.0518  139.0258  156.4494 O   0  0  0  0  0  0  0  0  0  0  0  0
  145.1736  139.0177  155.0320 C   0  0  2  0  0  0  0  0  0  0  0  0
  144.7590  137.6709  154.4243 C   0  0  0  0  0  0  0  0  0  0  0  0
  146.2130  137.2404  154.6214 C   0  0  1  0  0  0  0  0  0  0  0  0
  146.7150  136.4219  153.5240 N   0  0  0  0  0  0  0  0  0  0  0  0
  146.1133  135.3115  153.0743 C   0  0  0  0  0  0  0  0  0  0  0  0
  145.0700  134.8688  153.5567 O   0  0  0  0  0  0  0  0  0  0  0  0
  146.8148  134.5753  151.9251 C   0  0  0  0  0  0  0  0  0  0  0  0
  145.8659  133.9274  151.0085 N   0  0  0  0  0  0  0  0  0  0  0  0
  146.0844  132.6275  150.5747 C   0  0  0  0  0  0  0  0  0  0  0  0
  145.2424  131.9671  149.7449 C   0  0  0  0  0  0  0  0  0  0  0  0
  144.0299  132.6140  149.2551 C   0  0  0  0  0  0  0  0  0  0  0  0
  143.2065  132.0998  148.5016 O   0  0  0  0  0  0  0  0  0  0  0  0
  143.8451  133.9208  149.7146 N   0  0  0  0  0  0  0  0  0  0  0  0
  144.7077  134.6063  150.5714 C   0  0  0  0  0  0  0  0  0  0  0  0
  144.4474  135.7573  150.9198 O   0  0  0  0  0  0  0  0  0  0  0  0
  146.6258  138.7343  154.5597 C   0  0  0  0  0  0  0  0  0  0  0  0
  146.9863  139.3102  153.1697 C   0  0  0  0  0  0  0  0  0  0  0  0
  147.1677  140.8384  153.1817 C   0  0  0  0  0  0  0  0  0  0  0  0
  148.2309  141.2660  154.2017 C   0  0  0  0  0  0  0  0  0  0  0  0
  147.9422  140.6752  155.5878 C   0  0  0  0  0  0  0  0  0  0  0  0
  147.7612  139.1504  155.5120 C   0  0  0  0  0  0  0  0  0  0  0  0
  143.0181  134.4087  149.4031 H   0  0  0  0  0  0  0  0  0  0  0  0
  142.1384  140.6639  156.6542 H   0  0  0  0  0  0  0  0  0  0  0  0
  143.1766  140.4916  155.2399 H   0  0  0  0  0  0  0  0  0  0  0  0
  143.7620  141.3496  156.6650 H   0  0  0  0  0  0  0  0  0  0  0  0
  143.6752  139.2085  157.9845 H   0  0  0  0  0  0  0  0  0  0  0  0
  143.1040  138.3515  156.5570 H   0  0  0  0  0  0  0  0  0  0  0  0
  144.7153  139.8857  154.5560 H   0  0  0  0  0  0  0  0  0  0  0  0
  144.0363  137.0976  155.0049 H   0  0  0  0  0  0  0  0  0  0  0  0
  144.4591  137.7518  153.3781 H   0  0  0  0  0  0  0  0  0  0  0  0
  146.3662  136.8009  155.6101 H   0  0  0  0  0  0  0  0  0  0  0  0
  147.5731  136.7169  153.0815 H   0  0  0  0  0  0  0  0  0  0  0  0
  147.4617  135.2617  151.3748 H   0  0  0  0  0  0  0  0  0  0  0  0
  147.4867  133.8346  152.3606 H   0  0  0  0  0  0  0  0  0  0  0  0
  146.9677  132.1071  150.9165 H   0  0  0  0  0  0  0  0  0  0  0  0
  145.4661  130.9540  149.4431 H   0  0  0  0  0  0  0  0  0  0  0  0
  147.9072  138.8540  152.8035 H   0  0  0  0  0  0  0  0  0  0  0  0
  146.2225  139.0571  152.4343 H   0  0  0  0  0  0  0  0  0  0  0  0
  147.4486  141.1866  152.1874 H   0  0  0  0  0  0  0  0  0  0  0  0
  146.2199  141.3223  153.4183 H   0  0  0  0  0  0  0  0  0  0  0  0
  149.2114  140.9290  153.8629 H   0  0  0  0  0  0  0  0  0  0  0  0
  148.2803  142.3536  154.2593 H   0  0  0  0  0  0  0  0  0  0  0  0
  148.7552  140.9203  156.2717 H   0  0  0  0  0  0  0  0  0  0  0  0
  147.0416  141.1302  156.0020 H   0  0  0  0  0  0  0  0  0  0  0  0
  147.5854  138.7628  156.5157 H   0  0  0  0  0  0  0  0  0  0  0  0
  148.6991  138.6959  155.1903 H   0  0  0  0  0  0  0  0  0  0  0  0
  1  2  1  0  0  0  0
  1 26  1  0  0  0  0
  1 27  1  0  0  0  0
  1 28  1  0  0  0  0
  2  3  1  0  0  0  0
  2 29  1  0  0  0  0
  2 30  1  0  0  0  0
  3  4  1  0  0  0  0
  4 19  1  0  0  0  0
  4  5  1  0  0  0  0
  4 31  1  0  0  0  0
  5  6  1  0  0  0  0
  5 32  1  0  0  0  0
  5 33  1  0  0  0  0
  6  7  1  0  0  0  0
  6 19  1  0  0  0  0
  6 34  1  0  0  0  0
  7  8  1  0  0  0  0
  7 35  1  0  0  0  0
  8  9  2  0  0  0  0
  8 10  1  0  0  0  0
 10 11  1  0  0  0  0
 10 36  1  0  0  0  0
 10 37  1  0  0  0  0
 11 17  1  0  0  0  0
 11 12  1  0  0  0  0
 12 13  2  0  0  0  0
 12 38  1  0  0  0  0
 13 14  1  0  0  0  0
 13 39  1  0  0  0  0
 14 15  2  0  0  0  0
 14 16  1  0  0  0  0
 16 25  1  0  0  0  0
 16 17  1  0  0  0  0
 17 18  2  0  0  0  0
 19 24  1  0  0  0  0
 19 20  1  0  0  0  0
 20 21  1  0  0  0  0
 20 40  1  0  0  0  0
 20 41  1  0  0  0  0
 21 22  1  0  0  0  0
 21 42  1  0  0  0  0
 21 43  1  0  0  0  0
 22 23  1  0  0  0  0
 22 44  1  0  0  0  0
 22 45  1  0  0  0  0
 23 24  1  0  0  0  0
 23 46  1  0  0  0  0
 23 47  1  0  0  0  0
 24 48  1  0  0  0  0
 24 49  1  0  0  0  0
M  END
> <s_m_source_file>
AV-unprocessed.smi

> <i_m_source_file_index>
701

> <i_lp_mmshare_version>
43012

> <i_f3d_flags>
0

> <s_epik_input>
W0NIMl0xW0NIMl1bQ0gyXVtDSDJdW0NIMl1DMTJbQ0BIXShPW0NIMl1bQ0gzXSlbQ0gyXVtDQEhdMltOSF1DKD1PKVtDSDJdbjNbY0hdW2NIXWMoPU8pW25IXWMzPU8=

> <s_epik_cmdline>
J2VwaWtfcHl0aG9uJywgJy1waCcsICc3LjAnLCAnLXRuJywgJzgnLCAnLW1hJywgJzIwMCcsICctbWV0YWxfYmluZGluZycsICctaW1hZScsICc8aW5maWxlLm1hZT4nLCAnLW9tYWUnLCAnPG91dGZpbGUubWFlPic=

> <r_lp_tautomer_probability>
0.999537

> <r_epik_Ionization_Penalty>
0.00304597

> <r_epik_Ionization_Penalty_Charging>
0.00304595

> <r_epik_Ionization_Penalty_Neutral>
1.88422e-08

> <r_epik_State_Penalty>
0.00214084

> <r_epik_Charging_Adjusted_Penalty>
0.00518679

> <i_epik_Tot_Q>
0

> <i_epik_Tot_abs_Q>
0

> <r_epik_Metal_State_Penalty>
0.361872

> <b_epik_Metal_Only>
0

> <s_lp_Force_Field>
OPLS_2005

> <r_lp_Energy>
27.2214

> <b_lp_Chiralities_Consistent>
1

> <s_lp_Variant>
AV-unprocessed.smi:701-1

> <Gold.Version>
5.8.1

> <Gold.Id.Protein>
6NUR|6NUR_protein|mol2

> <Gold.PLP.Fitness>
37.9506

> <Gold.PLP.PLP>
-28.8148

> <Gold.PLP.part.hbond>
-3.5627

> <Gold.PLP.part.metal>
0.0000

> <Gold.PLP.part.buried>
-2.5781

> <Gold.PLP.part.nonpolar>
-24.3486

> <Gold.PLP.part.repulsive>
1.3875

> <Gold.PLP.ligand.clash>
0.0000

> <Gold.PLP.ligand.torsion>
0.8412

> <Gold.PLP.Chemscore.Hbond>
2.4924

> <Gold.PLP.Chemscore.CHOScore>
1.0000

> <Gold.PLP.Chemscore.Metal>
0.0000

> <Gold.Chemscore.Hbonds>
donor molecule, donor type, donor heavy atom, donor atom, acceptor molecule, acceptor atom, score
      L1  H     7    35       P1  7948  0.91
      L1  H    16    25       P1 10186  0.88
      P1  H 10785 10796       L1    15  0.82
      L1  C    12    38       P1 10747  1.00

> <Gold.PLP.Chemscore.Internal.Correction>
0.3410

> <Gold.Rescore>
     Score         DG    S(hbond)    S(metal)    S(lipo)     H(rot)  DE(clash)    DE(int)     intcor
     11.35     -15.98       2.74        0.00      57.26       2.09       2.77       1.86       ----

> <Gold.Chemscore.Fitness>
11.3512

> <Gold.Chemscore.DG>
-15.9808

> <Gold.Chemscore.ZeroCoef>
-5.4800

> <Gold.Chemscore.Hbond>
2.7425

> <Gold.Chemscore.Metal>
0.0000

> <Gold.Chemscore.Lipo>
57.2620

> <Gold.Chemscore.Internal_Hbond>
0.0000

> <Gold.Chemscore.DEClash>
2.7656

> <Gold.Chemscore.DEInternal>
1.8641

> <Gold.Chemscore.Rot>
2.0933

> <Gold.Chemscore.Internal.Correction>
   9.000000E+99

> <Gold.Chemscore.Hbonds>
donor molecule, donor type, donor heavy atom, donor atom, acceptor molecule, acceptor atom, score
      L1  H     7    35       P1  7948  0.88
      L1  H    16    25       P1 10186  0.82
      P1  H 10785 10796       L1    15  0.61

> <Gold.Chemscore.Hbond.Weighted>
-9.1599

> <Gold.Chemscore.Metal.Weighted>
-0.0000

> <Gold.Chemscore.Lipo.Weighted>
-6.6997

> <Gold.Chemscore.Internal_Hbond.Weighted>
0.0000

> <Gold.Chemscore.DEClash.Weighted>
2.7656

> <Gold.Chemscore.DEInternal.Weighted>
1.8641

> <Gold.Chemscore.Rot.Weighted>
5.3588

> <Gold.Chemscore.Internal.Correction.Weighted>
   9.000000E+99

> <Gold.Protein.RotatedTorsions>
[ 6907 6896 6895 6894 ] final    6.78 input  -60.11 | X-H torsion
[ 7974 7965 7964 7962 ] final   92.74 input  175.53 | X-H torsion
[ 8008 7997 7996 7995 ] final  -27.17 input   59.86 | X-H torsion
[ 10167 10162 10161 10158 ] final   12.08 input  -65.29 | X-H torsion
[ 10718 10713 10712 10709 ] final  163.03 input   66.30 | X-H torsion
[ 10763 10752 10751 10750 ] final -165.46 input  -60.55 | X-H torsion
[ 11005 11000 10999 10996 ] final   73.77 input  -57.11 | X-H torsion

> <Gold.Protein.ActiveResidues>
 VAL166  LYS551  ARG553  GLY616  TRP617  ASP618  TYR619  PRO620  LYS621  CYS622 
 ASP623  PHE694  ASN695  SER759  ASP760  ASP761  ALA762  ILE779  LEU786  VAL792 
 PHE793  MET794  SER795  GLU796  ALA797  LYS798  CYS799  TRP800  GLU811  SER814 

> <Gold.Protein.RotatedAtoms>
  151.6792  135.0964  160.0212 H   0  0  0  0  0  0  0  0  0  0  0  0  # atno 6907 bound_to 6896
  152.3846  133.6588  159.6196 H   0  0  0  0  0  0  0  0  0  0  0  0  # atno 6908 bound_to 6896
  150.7774  133.8974  159.3372 H   0  0  0  0  0  0  0  0  0  0  0  0  # atno 6909 bound_to 6896
  145.4882  139.2277  143.2844 H   0  0  0  0  0  0  0  0  0  0  0  0  # atno 7974 bound_to 7965
  154.4390  140.1879  156.0890 H   0  0  0  0  0  0  0  0  0  0  0  0  # atno 8008 bound_to 7997
  156.0380  140.3323  155.7186 H   0  0  0  0  0  0  0  0  0  0  0  0  # atno 8009 bound_to 7997
  155.5742  140.0615  157.2790 H   0  0  0  0  0  0  0  0  0  0  0  0  # atno 8010 bound_to 7997
  140.6091  143.8446  150.7046 H   0  0  0  0  0  0  0  0  0  0  0  0  # atno 10167 bound_to 10162
  157.1142  131.0476  151.2444 H   0  0  0  0  0  0  0  0  0  0  0  0  # atno 10718 bound_to 10713
  154.6930  135.2974  154.9452 H   0  0  0  0  0  0  0  0  0  0  0  0  # atno 10763 bound_to 10752
  154.0409  135.6657  153.4794 H   0  0  0  0  0  0  0  0  0  0  0  0  # atno 10764 bound_to 10752
  153.0625  135.5107  154.8032 H   0  0  0  0  0  0  0  0  0  0  0  0  # atno 10765 bound_to 10752
  139.9424  134.7375  156.1066 H   0  0  0  0  0  0  0  0  0  0  0  0  # atno 11005 bound_to 11000
  146.2300  140.5674  142.8979 LP  0  0  0  0  0  0  0  0  0  0  0  0  # atno 17320 bound_to 7965
  144.7849  140.5916  143.6580 LP  0  0  0  0  0  0  0  0  0  0  0  0  # atno 17321 bound_to 7965
  140.2010  143.3959  152.1792 LP  0  0  0  0  0  0  0  0  0  0  0  0  # atno 17342 bound_to 10162
  139.5347  144.7197  151.4933 LP  0  0  0  0  0  0  0  0  0  0  0  0  # atno 17343 bound_to 10162
  157.4533  130.7610  149.7170 LP  0  0  0  0  0  0  0  0  0  0  0  0  # atno 17370 bound_to 10713
  155.9843  130.3992  150.3318 LP  0  0  0  0  0  0  0  0  0  0  0  0  # atno 17371 bound_to 10713
  141.1063  133.6659  156.2871 LP  0  0  0  0  0  0  0  0  0  0  0  0  # atno 17394 bound_to 11000
  140.5919  134.5642  157.5501 LP  0  0  0  0  0  0  0  0  0  0  0  0  # atno 17395 bound_to 11000

$$$$
