AV-unprocessed.smi:148|AV-procd|sdf|1229|dock8
  -GOLD-   2262018433D 1   1.00000     0.00000
 Structure written by MMmdl.
 63 67  0  0  0  0  0  0  0  0  1 V2000
  151.1692  140.1712  155.4196 O   0  0  0  0  0  0  0  0  0  0  0  0
  150.9891  141.4430  156.0072 C   0  0  0  0  0  0  0  0  0  0  0  0
  151.0987  141.3719  157.5504 C   0  0  1  0  0  0  0  0  0  0  0  0
  152.0550  140.2447  158.0209 C   0  0  0  0  0  0  0  0  0  0  0  0
  151.3664  139.0178  158.3818 N   0  0  0  0  0  0  0  0  0  0  0  0
  151.9360  137.8764  158.9004 C   0  0  0  0  0  0  0  0  0  0  0  0
  151.1056  136.8961  159.1332 N   0  0  0  0  0  0  0  0  0  0  0  0
  149.8721  137.4016  158.7438 C   0  0  0  0  0  0  0  0  0  0  0  0
  148.5547  136.8751  158.7136 C   0  0  0  0  0  0  0  0  0  0  0  0
  148.2781  135.6111  159.1094 N   0  0  0  0  0  0  0  0  0  0  0  0
  148.8383  134.6573  158.1505 C   0  0  0  0  0  0  0  0  0  0  0  0
  148.3921  133.2209  158.4527 C   0  0  0  0  0  0  0  0  0  0  0  0
  148.7463  132.8473  159.8953 C   0  0  0  0  0  0  0  0  0  0  0  0
  148.1104  133.8555  160.8596 C   0  0  0  0  0  0  0  0  0  0  0  0
  148.5342  135.3133  160.5325 C   0  0  2  0  0  0  0  0  0  0  0  0
  147.9220  136.3702  161.5168 C   0  0  2  0  0  0  0  0  0  0  0  0
  148.1722  136.0171  163.0016 C   0  0  0  0  0  0  0  0  0  0  0  0
  146.8106  136.0407  163.7090 C   0  0  0  0  0  0  0  0  0  0  0  0
  145.7767  135.8843  162.5973 C   0  0  0  0  0  0  0  0  0  0  0  0
  146.4000  136.6471  161.4306 C   0  0  2  0  0  0  0  0  0  0  0  0
  145.7760  136.3478  160.1987 O   0  0  0  0  0  0  0  0  0  0  0  0
  147.5566  137.6798  158.2609 N   0  0  0  0  0  0  0  0  0  0  0  0
  147.8350  138.9216  157.8528 C   0  0  0  0  0  0  0  0  0  0  0  0
  149.0165  139.5421  157.8125 N   0  0  0  0  0  0  0  0  0  0  0  0
  150.0163  138.7353  158.2713 C   0  0  0  0  0  0  0  0  0  0  0  0
  151.4313  142.7632  158.1613 C   0  0  1  0  0  0  0  0  0  0  0  0
  150.2564  143.6634  158.5004 C   0  0  0  0  0  0  0  0  0  0  0  0
  150.9353  144.7232  159.3601 C   0  0  0  0  0  0  0  0  0  0  0  0
  151.9270  144.0212  160.1024 O   0  0  0  0  0  0  0  0  0  0  0  0
  152.2168  142.7719  159.4781 C   0  0  0  0  0  0  0  0  0  0  0  0
  150.5410  139.5740  155.7962 H   0  0  0  0  0  0  0  0  0  0  0  0
  151.7519  142.0954  155.5834 H   0  0  0  0  0  0  0  0  0  0  0  0
  150.0232  141.8475  155.7038 H   0  0  0  0  0  0  0  0  0  0  0  0
  150.1083  141.1015  157.9198 H   0  0  0  0  0  0  0  0  0  0  0  0
  152.7866  140.0073  157.2496 H   0  0  0  0  0  0  0  0  0  0  0  0
  152.6211  140.5586  158.8970 H   0  0  0  0  0  0  0  0  0  0  0  0
  152.9944  137.7942  159.1007 H   0  0  0  0  0  0  0  0  0  0  0  0
  148.5309  134.9262  157.1386 H   0  0  0  0  0  0  0  0  0  0  0  0
  149.9279  134.7130  158.1763 H   0  0  0  0  0  0  0  0  0  0  0  0
  147.3159  133.1287  158.3001 H   0  0  0  0  0  0  0  0  0  0  0  0
  148.8670  132.5280  157.7578 H   0  0  0  0  0  0  0  0  0  0  0  0
  148.3971  131.8391  160.1200 H   0  0  0  0  0  0  0  0  0  0  0  0
  149.8292  132.8419  160.0243 H   0  0  0  0  0  0  0  0  0  0  0  0
  147.0286  133.7472  160.7979 H   0  0  0  0  0  0  0  0  0  0  0  0
  148.3822  133.5868  161.8792 H   0  0  0  0  0  0  0  0  0  0  0  0
  149.6173  135.3591  160.6568 H   0  0  0  0  0  0  0  0  0  0  0  0
  148.4245  137.3234  161.3538 H   0  0  0  0  0  0  0  0  0  0  0  0
  148.6326  135.0361  163.1113 H   0  0  0  0  0  0  0  0  0  0  0  0
  148.8580  136.7266  163.4658 H   0  0  0  0  0  0  0  0  0  0  0  0
  146.7229  135.2667  164.4718 H   0  0  0  0  0  0  0  0  0  0  0  0
  146.6717  137.0048  164.2001 H   0  0  0  0  0  0  0  0  0  0  0  0
  145.6576  134.8292  162.3493 H   0  0  0  0  0  0  0  0  0  0  0  0
  144.7975  136.2734  162.8780 H   0  0  0  0  0  0  0  0  0  0  0  0
  146.2431  137.7121  161.6089 H   0  0  0  0  0  0  0  0  0  0  0  0
  146.4248  136.3949  159.5125 H   0  0  0  0  0  0  0  0  0  0  0  0
  146.9912  139.4997  157.5061 H   0  0  0  0  0  0  0  0  0  0  0  0
  152.0277  143.3130  157.4314 H   0  0  0  0  0  0  0  0  0  0  0  0
  149.7662  144.0806  157.6205 H   0  0  0  0  0  0  0  0  0  0  0  0
  149.5075  143.1478  159.1000 H   0  0  0  0  0  0  0  0  0  0  0  0
  151.4286  145.4655  158.7312 H   0  0  0  0  0  0  0  0  0  0  0  0
  150.2376  145.2436  160.0164 H   0  0  0  0  0  0  0  0  0  0  0  0
  151.8962  141.9785  160.1519 H   0  0  0  0  0  0  0  0  0  0  0  0
  153.2887  142.6580  159.3146 H   0  0  0  0  0  0  0  0  0  0  0  0
  1  2  1  0  0  0  0
  1 31  1  0  0  0  0
  2  3  1  0  0  0  0
  2 32  1  0  0  0  0
  2 33  1  0  0  0  0
  3  4  1  0  0  0  0
  3 26  1  0  0  0  0
  3 34  1  0  0  0  0
  4  5  1  0  0  0  0
  4 35  1  0  0  0  0
  4 36  1  0  0  0  0
  5 25  1  0  0  0  0
  5  6  1  0  0  0  0
  6  7  2  0  0  0  0
  6 37  1  0  0  0  0
  7  8  1  0  0  0  0
  8 25  2  0  0  0  0
  8  9  1  0  0  0  0
  9 10  1  0  0  0  0
  9 22  2  0  0  0  0
 10 15  1  0  0  0  0
 10 11  1  0  0  0  0
 11 12  1  0  0  0  0
 11 38  1  0  0  0  0
 11 39  1  0  0  0  0
 12 13  1  0  0  0  0
 12 40  1  0  0  0  0
 12 41  1  0  0  0  0
 13 14  1  0  0  0  0
 13 42  1  0  0  0  0
 13 43  1  0  0  0  0
 14 15  1  0  0  0  0
 14 44  1  0  0  0  0
 14 45  1  0  0  0  0
 15 16  1  0  0  0  0
 15 46  1  0  0  0  0
 16 20  1  0  0  0  0
 16 17  1  0  0  0  0
 16 47  1  0  0  0  0
 17 18  1  0  0  0  0
 17 48  1  0  0  0  0
 17 49  1  0  0  0  0
 18 19  1  0  0  0  0
 18 50  1  0  0  0  0
 18 51  1  0  0  0  0
 19 20  1  0  0  0  0
 19 52  1  0  0  0  0
 19 53  1  0  0  0  0
 20 21  1  0  0  0  0
 20 54  1  0  0  0  0
 21 55  1  0  0  0  0
 22 23  1  0  0  0  0
 23 24  2  0  0  0  0
 23 56  1  0  0  0  0
 24 25  1  0  0  0  0
 26 30  1  0  0  0  0
 26 27  1  0  0  0  0
 26 57  1  0  0  0  0
 27 28  1  0  0  0  0
 27 58  1  0  0  0  0
 27 59  1  0  0  0  0
 28 29  1  0  0  0  0
 28 60  1  0  0  0  0
 28 61  1  0  0  0  0
 29 30  1  0  0  0  0
 30 62  1  0  0  0  0
 30 63  1  0  0  0  0
M  END
> <s_m_source_file>
AV-unprocessed.smi

> <i_m_source_file_index>
148

> <i_lp_mmshare_version>
43012

> <i_f3d_flags>
0

> <s_epik_input>
W0NIMl0xT1tDSDJdW0NIMl1bQ0BIXTFbQ0BIXShbQ0gyXVtPSF0pW0NIMl1uKFtjSF1uMiljKGMyMyluW2NIXW5jM040W0NIMl1bQ0gyXVtDSDJdW0NIMl1bQ0BIXTRbQ0BASF01W0NIMl1bQ0gyXVtDSDJdW0NASF01W09IXQ==

> <s_epik_cmdline>
J2VwaWtfcHl0aG9uJywgJy1waCcsICc3LjAnLCAnLXRuJywgJzgnLCAnLW1hJywgJzIwMCcsICctbWV0YWxfYmluZGluZycsICctaW1hZScsICc8aW5maWxlLm1hZT4nLCAnLW9tYWUnLCAnPG91dGZpbGUubWFlPic=

> <r_lp_tautomer_probability>
1

> <r_epik_Ionization_Penalty>
0.00556303

> <r_epik_Ionization_Penalty_Charging>
0

> <r_epik_Ionization_Penalty_Neutral>
0.00556303

> <r_epik_State_Penalty>
0.00401767

> <r_epik_Charging_Adjusted_Penalty>
0.00401767

> <i_epik_Tot_Q>
0

> <i_epik_Tot_abs_Q>
0

> <r_epik_Metal_State_Penalty>
-0

> <b_epik_Metal_Only>
0

> <s_lp_Force_Field>
OPLS_2005

> <r_lp_Energy>
73.9782

> <b_lp_Chiralities_Consistent>
1

> <s_lp_Variant>
AV-unprocessed.smi:148-28

> <Gold.Version>
5.8.1

> <Gold.Id.Protein>
6NUR|6NUR_protein|mol2

> <Gold.PLP.Fitness>
43.9267

> <Gold.PLP.PLP>
-41.5602

> <Gold.PLP.part.hbond>
-2.0000

> <Gold.PLP.part.metal>
0.0000

> <Gold.PLP.part.buried>
-9.5842

> <Gold.PLP.part.nonpolar>
-31.3975

> <Gold.PLP.part.repulsive>
0.0675

> <Gold.PLP.ligand.clash>
0.0354

> <Gold.PLP.ligand.torsion>
1.8725

> <Gold.PLP.Chemscore.Hbond>
1.9263

> <Gold.PLP.Chemscore.CHOScore>
0.0000

> <Gold.PLP.Chemscore.Metal>
0.0000

> <Gold.Chemscore.Hbonds>
donor molecule, donor type, donor heavy atom, donor atom, acceptor molecule, acceptor atom, score
      P1  H  6896  6909       L1     7  0.96
      P1  H  7989  7998       L1     1  0.68

> <Gold.PLP.Chemscore.Internal.Correction>
0.3682

> <Gold.Rescore>
     Score         DG    S(hbond)    S(metal)    S(lipo)     H(rot)  DE(clash)    DE(int)     intcor
     11.08     -15.90       1.64        0.00     114.88       3.32       1.24       3.58       ----

> <Gold.Chemscore.Fitness>
11.0848

> <Gold.Chemscore.DG>
-15.8981

> <Gold.Chemscore.ZeroCoef>
-5.4800

> <Gold.Chemscore.Hbond>
1.6399

> <Gold.Chemscore.Metal>
0.0000

> <Gold.Chemscore.Lipo>
114.8788

> <Gold.Chemscore.Internal_Hbond>
0.0000

> <Gold.Chemscore.DEClash>
1.2352

> <Gold.Chemscore.DEInternal>
3.5781

> <Gold.Chemscore.Rot>
3.3203

> <Gold.Chemscore.Internal.Correction>
   9.000000E+99

> <Gold.Chemscore.Hbonds>
donor molecule, donor type, donor heavy atom, donor atom, acceptor molecule, acceptor atom, score
      P1  H  6896  6909       L1     7  0.80
      P1  H  7989  7998       L1     1  0.09

> <Gold.Chemscore.Hbond.Weighted>
-5.4773

> <Gold.Chemscore.Metal.Weighted>
-0.0000

> <Gold.Chemscore.Lipo.Weighted>
-13.4408

> <Gold.Chemscore.Internal_Hbond.Weighted>
0.0000

> <Gold.Chemscore.DEClash.Weighted>
1.2352

> <Gold.Chemscore.DEInternal.Weighted>
3.5781

> <Gold.Chemscore.Rot.Weighted>
8.5000

> <Gold.Chemscore.Internal.Correction.Weighted>
   9.000000E+99

> <Gold.Protein.RotatedTorsions>
[ 6907 6896 6895 6894 ] final   85.44 input  -60.11 | X-H torsion
[ 7974 7965 7964 7962 ] final  -95.07 input  175.53 | X-H torsion
[ 8008 7997 7996 7995 ] final -148.76 input   59.86 | X-H torsion
[ 10167 10162 10161 10158 ] final  -49.01 input  -65.29 | X-H torsion
[ 10718 10713 10712 10709 ] final  112.13 input   66.30 | X-H torsion
[ 10763 10752 10751 10750 ] final  -97.09 input  -60.55 | X-H torsion
[ 11005 11000 10999 10996 ] final  -26.19 input  -57.11 | X-H torsion

> <Gold.Protein.ActiveResidues>
 VAL166  LYS551  ARG553  GLY616  TRP617  ASP618  TYR619  PRO620  LYS621  CYS622 
 ASP623  PHE694  ASN695  SER759  ASP760  ASP761  ALA762  ILE779  LEU786  VAL792 
 PHE793  MET794  SER795  GLU796  ALA797  LYS798  CYS799  TRP800  GLU811  SER814 

> <Gold.Protein.RotatedAtoms>
  152.5375  134.2585  159.8925 H   0  0  0  0  0  0  0  0  0  0  0  0  # atno 6907 bound_to 6896
  151.2546  133.4326  159.2620 H   0  0  0  0  0  0  0  0  0  0  0  0  # atno 6908 bound_to 6896
  151.0508  134.9686  159.8267 H   0  0  0  0  0  0  0  0  0  0  0  0  # atno 6909 bound_to 6896
  145.3650  140.9497  143.2479 H   0  0  0  0  0  0  0  0  0  0  0  0  # atno 7974 bound_to 7965
  155.5968  140.0658  157.2744 H   0  0  0  0  0  0  0  0  0  0  0  0  # atno 8008 bound_to 7997
  154.4290  140.1825  156.1179 H   0  0  0  0  0  0  0  0  0  0  0  0  # atno 8009 bound_to 7997
  156.0190  140.3319  155.7022 H   0  0  0  0  0  0  0  0  0  0  0  0  # atno 8010 bound_to 7997
  140.6705  143.2716  151.4153 H   0  0  0  0  0  0  0  0  0  0  0  0  # atno 10167 bound_to 10162
  157.6409  131.0962  150.6850 H   0  0  0  0  0  0  0  0  0  0  0  0  # atno 10718 bound_to 10713
  154.7298  135.5059  153.8945 H   0  0  0  0  0  0  0  0  0  0  0  0  # atno 10763 bound_to 10752
  153.0939  135.6667  153.9810 H   0  0  0  0  0  0  0  0  0  0  0  0  # atno 10764 bound_to 10752
  153.9614  135.3047  155.3412 H   0  0  0  0  0  0  0  0  0  0  0  0  # atno 10765 bound_to 10752
  140.9007  133.7526  156.0539 H   0  0  0  0  0  0  0  0  0  0  0  0  # atno 11005 bound_to 11000
  144.8618  139.5166  143.6808 LP  0  0  0  0  0  0  0  0  0  0  0  0  # atno 17320 bound_to 7965
  146.2911  139.7141  142.9160 LP  0  0  0  0  0  0  0  0  0  0  0  0  # atno 17321 bound_to 7965
  139.5971  144.1374  152.2156 LP  0  0  0  0  0  0  0  0  0  0  0  0  # atno 17342 bound_to 10162
  140.0746  144.5751  150.7166 LP  0  0  0  0  0  0  0  0  0  0  0  0  # atno 17343 bound_to 10162
  156.7174  130.4670  149.5531 LP  0  0  0  0  0  0  0  0  0  0  0  0  # atno 17370 bound_to 10713
  156.1688  130.6423  151.0812 LP  0  0  0  0  0  0  0  0  0  0  0  0  # atno 17371 bound_to 10713
  140.8234  134.3263  157.5374 LP  0  0  0  0  0  0  0  0  0  0  0  0  # atno 17394 bound_to 11000
  139.8742  134.9322  156.3548 LP  0  0  0  0  0  0  0  0  0  0  0  0  # atno 17395 bound_to 11000

$$$$
