AV-unprocessed.smi:3349|AV-procd|sdf|12934|dock2
  -GOLD-   2272019363D 1   1.00000     0.00000
 Structure written by MMmdl.
 40 41  0  0  0  0  0  0  0  0  1 V2000
  144.7183  138.4563  154.4181 C   0  0  0  0  0  0  0  0  0  0  0  0
  146.1850  138.2054  153.9818 C   0  0  1  0  0  0  0  0  0  0  0  0
  146.2171  137.9330  152.4522 C   0  0  0  0  0  0  0  0  0  0  0  0
  146.5798  136.5567  152.1343 N   0  0  0  0  0  0  0  0  0  0  0  0
  145.7113  135.5374  152.0616 C   0  0  0  0  0  0  0  0  0  0  0  0
  144.5000  135.6730  152.2388 O   0  0  0  0  0  0  0  0  0  0  0  0
  146.3075  134.1590  151.7371 C   0  0  1  0  0  0  0  0  0  0  0  0
  146.3464  133.2262  152.9615 C   0  0  0  0  0  0  0  0  0  0  0  0
  145.5869  133.5393  150.6339 N   0  0  0  0  0  0  0  0  0  0  0  0
  145.8365  132.4260  149.9382 C   0  0  0  0  0  0  0  0  0  0  0  0
  144.9532  132.1820  148.9803 N   0  0  0  0  0  0  0  0  0  0  0  0
  144.1319  133.2608  149.1477 C   0  0  0  0  0  0  0  0  0  0  0  0
  144.4684  134.1065  150.1218 N   0  0  0  0  0  0  0  0  0  0  0  0
  147.0990  139.2947  154.3987 N   0  0  0  0  0  0  0  0  0  0  0  0
  146.8088  140.5694  153.7315 C   0  0  0  0  0  0  0  0  0  0  0  0
  147.7741  141.6942  154.1452 C   0  0  0  0  0  0  0  0  0  0  0  0
  149.1133  141.2982  153.8837 O   0  0  0  0  0  0  0  0  0  0  0  0
  149.4613  140.1072  154.5758 C   0  0  0  0  0  0  0  0  0  0  0  0
  148.5106  138.9712  154.1604 C   0  0  0  0  0  0  0  0  0  0  0  0
  144.0387  137.6784  154.0716 H   0  0  0  0  0  0  0  0  0  0  0  0
  144.3503  139.4074  154.0317 H   0  0  0  0  0  0  0  0  0  0  0  0
  144.6042  138.4652  155.5010 H   0  0  0  0  0  0  0  0  0  0  0  0
  146.5099  137.2876  154.4747 H   0  0  0  0  0  0  0  0  0  0  0  0
  145.2458  138.1672  152.0130 H   0  0  0  0  0  0  0  0  0  0  0  0
  146.9561  138.5575  151.9520 H   0  0  0  0  0  0  0  0  0  0  0  0
  147.5576  136.3652  151.9697 H   0  0  0  0  0  0  0  0  0  0  0  0
  147.3395  134.3198  151.4183 H   0  0  0  0  0  0  0  0  0  0  0  0
  146.8807  133.6867  153.7931 H   0  0  0  0  0  0  0  0  0  0  0  0
  146.8575  132.2935  152.7218 H   0  0  0  0  0  0  0  0  0  0  0  0
  145.3444  132.9719  153.3089 H   0  0  0  0  0  0  0  0  0  0  0  0
  146.6815  131.7824  150.1363 H   0  0  0  0  0  0  0  0  0  0  0  0
  143.2608  133.4295  148.5319 H   0  0  0  0  0  0  0  0  0  0  0  0
  146.8480  140.4382  152.6492 H   0  0  0  0  0  0  0  0  0  0  0  0
  145.8051  140.9125  153.9740 H   0  0  0  0  0  0  0  0  0  0  0  0
  147.5571  142.6039  153.5851 H   0  0  0  0  0  0  0  0  0  0  0  0
  147.6566  141.9341  155.2032 H   0  0  0  0  0  0  0  0  0  0  0  0
  150.4919  139.8447  154.3363 H   0  0  0  0  0  0  0  0  0  0  0  0
  149.4156  140.2753  155.6531 H   0  0  0  0  0  0  0  0  0  0  0  0
  148.8044  138.0891  154.7264 H   0  0  0  0  0  0  0  0  0  0  0  0
  148.6641  138.7380  153.1057 H   0  0  0  0  0  0  0  0  0  0  0  0
  1  2  1  0  0  0  0
  1 20  1  0  0  0  0
  1 21  1  0  0  0  0
  1 22  1  0  0  0  0
  2  3  1  0  0  0  0
  2 14  1  0  0  0  0
  2 23  1  0  0  0  0
  3  4  1  0  0  0  0
  3 24  1  0  0  0  0
  3 25  1  0  0  0  0
  4  5  1  0  0  0  0
  4 26  1  0  0  0  0
  5  6  2  0  0  0  0
  5  7  1  0  0  0  0
  7  8  1  0  0  0  0
  7  9  1  0  0  0  0
  7 27  1  0  0  0  0
  8 28  1  0  0  0  0
  8 29  1  0  0  0  0
  8 30  1  0  0  0  0
  9 13  1  0  0  0  0
  9 10  1  0  0  0  0
 10 11  2  0  0  0  0
 10 31  1  0  0  0  0
 11 12  1  0  0  0  0
 12 13  2  0  0  0  0
 12 32  1  0  0  0  0
 14 19  1  0  0  0  0
 14 15  1  0  0  0  0
 15 16  1  0  0  0  0
 15 33  1  0  0  0  0
 15 34  1  0  0  0  0
 16 17  1  0  0  0  0
 16 35  1  0  0  0  0
 16 36  1  0  0  0  0
 17 18  1  0  0  0  0
 18 19  1  0  0  0  0
 18 37  1  0  0  0  0
 18 38  1  0  0  0  0
 19 39  1  0  0  0  0
 19 40  1  0  0  0  0
M  END
> <s_m_source_file>
AV-unprocessed.smi

> <i_m_source_file_index>
3349

> <i_lp_mmshare_version>
43012

> <i_f3d_flags>
0

> <s_epik_input>
W0NIMl0xW0NIMl1PW0NIMl1bQ0gyXU4xW0NASF0oW0NIM10pW0NIMl1bTkhdQyg9TylbQ0BIXShbQ0gzXSluMltjSF1uW2NIXW4y

> <s_epik_cmdline>
J2VwaWtfcHl0aG9uJywgJy1waCcsICc3LjAnLCAnLXRuJywgJzgnLCAnLW1hJywgJzIwMCcsICctbWV0YWxfYmluZGluZycsICctaW1hZScsICc8aW5maWxlLm1hZT4nLCAnLW9tYWUnLCAnPG91dGZpbGUubWFlPic=

> <r_lp_tautomer_probability>
1

> <r_epik_Ionization_Penalty>
0.211373

> <r_epik_Ionization_Penalty_Charging>
0

> <r_epik_Ionization_Penalty_Neutral>
0.211373

> <r_epik_State_Penalty>
0.201459

> <r_epik_Charging_Adjusted_Penalty>
0.201459

> <i_epik_Tot_Q>
0

> <i_epik_Tot_abs_Q>
0

> <r_epik_Metal_State_Penalty>
0.201458

> <b_epik_Metal_Only>
0

> <s_lp_Force_Field>
OPLS_2005

> <r_lp_Energy>
35.0343

> <b_lp_Chiralities_Consistent>
1

> <s_lp_Variant>
AV-unprocessed.smi:3349-4

> <Gold.Version>
5.8.1

> <Gold.Id.Protein>
6NUR|6NUR_protein|mol2

> <Gold.PLP.Fitness>
37.0860

> <Gold.PLP.PLP>
-28.7352

> <Gold.PLP.part.hbond>
-3.0074

> <Gold.PLP.part.metal>
0.0000

> <Gold.PLP.part.buried>
-4.8068

> <Gold.PLP.part.nonpolar>
-23.2938

> <Gold.PLP.part.repulsive>
1.9353

> <Gold.PLP.ligand.clash>
0.0000

> <Gold.PLP.ligand.torsion>
1.2438

> <Gold.PLP.Chemscore.Hbond>
1.5955

> <Gold.PLP.Chemscore.CHOScore>
1.9827

> <Gold.PLP.Chemscore.Metal>
0.0000

> <Gold.Chemscore.Hbonds>
donor molecule, donor type, donor heavy atom, donor atom, acceptor molecule, acceptor atom, score
      L1  H     4    26       P1  7948  0.63
      P1  H  8011  8017       L1    17  0.82
      L1  C    10    31       P1 10747  1.00
      L1  C    12    32       P1 10186  0.59

> <Gold.PLP.Chemscore.Internal.Correction>
0.1038

> <Gold.Rescore>
     Score         DG    S(hbond)    S(metal)    S(lipo)     H(rot)  DE(clash)    DE(int)     intcor
      6.87      -9.69       1.72        0.00      42.82       2.56       0.03       2.79       ----

> <Gold.Chemscore.Fitness>
6.8711

> <Gold.Chemscore.DG>
-9.6937

> <Gold.Chemscore.ZeroCoef>
-5.4800

> <Gold.Chemscore.Hbond>
1.7214

> <Gold.Chemscore.Metal>
0.0000

> <Gold.Chemscore.Lipo>
42.8225

> <Gold.Chemscore.Internal_Hbond>
0.0000

> <Gold.Chemscore.DEClash>
0.0318

> <Gold.Chemscore.DEInternal>
2.7908

> <Gold.Chemscore.Rot>
2.5570

> <Gold.Chemscore.Internal.Correction>
   9.000000E+99

> <Gold.Chemscore.Hbonds>
donor molecule, donor type, donor heavy atom, donor atom, acceptor molecule, acceptor atom, score
      L1  H     4    26       P1  7948  0.65
      P1  H  8011  8017       L1    17  0.50

> <Gold.Chemscore.Hbond.Weighted>
-5.7494

> <Gold.Chemscore.Metal.Weighted>
-0.0000

> <Gold.Chemscore.Lipo.Weighted>
-5.0102

> <Gold.Chemscore.Internal_Hbond.Weighted>
0.0000

> <Gold.Chemscore.DEClash.Weighted>
0.0318

> <Gold.Chemscore.DEInternal.Weighted>
2.7908

> <Gold.Chemscore.Rot.Weighted>
6.5459

> <Gold.Chemscore.Internal.Correction.Weighted>
   9.000000E+99

> <Gold.Protein.RotatedTorsions>
[ 6907 6896 6895 6894 ] final  107.61 input  -60.11 | X-H torsion
[ 7974 7965 7964 7962 ] final  -41.74 input  175.53 | X-H torsion
[ 8008 7997 7996 7995 ] final   27.81 input   59.86 | X-H torsion
[ 10167 10162 10161 10158 ] final -149.95 input  -65.29 | X-H torsion
[ 10718 10713 10712 10709 ] final   66.83 input   66.30 | X-H torsion
[ 10763 10752 10751 10750 ] final  -58.41 input  -60.55 | X-H torsion
[ 11005 11000 10999 10996 ] final -172.03 input  -57.11 | X-H torsion

> <Gold.Protein.ActiveResidues>
 VAL166  LYS551  ARG553  GLY616  TRP617  ASP618  TYR619  PRO620  LYS621  CYS622 
 ASP623  PHE694  ASN695  SER759  ASP760  ASP761  ALA762  ILE779  LEU786  VAL792 
 PHE793  MET794  SER795  GLU796  ALA797  LYS798  CYS799  TRP800  GLU811  SER814 

> <Gold.Protein.RotatedAtoms>
  152.5147  133.9210  159.7534 H   0  0  0  0  0  0  0  0  0  0  0  0  # atno 6907 bound_to 6896
  150.9582  133.6466  159.2766 H   0  0  0  0  0  0  0  0  0  0  0  0  # atno 6908 bound_to 6896
  151.3720  135.0929  159.9521 H   0  0  0  0  0  0  0  0  0  0  0  0  # atno 6909 bound_to 6896
  146.0182  140.6882  142.9191 H   0  0  0  0  0  0  0  0  0  0  0  0  # atno 7974 bound_to 7965
  155.0488  140.3177  155.4699 H   0  0  0  0  0  0  0  0  0  0  0  0  # atno 8008 bound_to 7997
  156.2839  140.2150  156.5557 H   0  0  0  0  0  0  0  0  0  0  0  0  # atno 8009 bound_to 7997
  154.7228  140.0488  157.0643 H   0  0  0  0  0  0  0  0  0  0  0  0  # atno 8010 bound_to 7997
  139.7397  143.8681  152.2559 H   0  0  0  0  0  0  0  0  0  0  0  0  # atno 10167 bound_to 10162
  157.6193  130.9288  150.0161 H   0  0  0  0  0  0  0  0  0  0  0  0  # atno 10718 bound_to 10713
  154.2376  135.6349  153.5196 H   0  0  0  0  0  0  0  0  0  0  0  0  # atno 10763 bound_to 10752
  152.9936  135.5534  154.5945 H   0  0  0  0  0  0  0  0  0  0  0  0  # atno 10764 bound_to 10752
  154.5443  135.2897  155.1041 H   0  0  0  0  0  0  0  0  0  0  0  0  # atno 10765 bound_to 10752
  140.5015  134.5889  157.4989 H   0  0  0  0  0  0  0  0  0  0  0  0  # atno 11005 bound_to 11000
  144.6979  140.3519  143.7180 LP  0  0  0  0  0  0  0  0  0  0  0  0  # atno 17320 bound_to 7965
  145.7235  139.1716  143.2471 LP  0  0  0  0  0  0  0  0  0  0  0  0  # atno 17321 bound_to 7965
  139.8628  144.7108  150.9079 LP  0  0  0  0  0  0  0  0  0  0  0  0  # atno 17342 bound_to 10162
  140.7784  143.3803  151.1489 LP  0  0  0  0  0  0  0  0  0  0  0  0  # atno 17343 bound_to 10162
  156.1330  130.3643  149.9701 LP  0  0  0  0  0  0  0  0  0  0  0  0  # atno 17370 bound_to 10713
  156.7758  130.9203  151.3645 LP  0  0  0  0  0  0  0  0  0  0  0  0  # atno 17371 bound_to 10713
  139.9710  134.7292  156.0041 LP  0  0  0  0  0  0  0  0  0  0  0  0  # atno 17394 bound_to 11000
  141.1433  133.6560  156.3793 LP  0  0  0  0  0  0  0  0  0  0  0  0  # atno 17395 bound_to 11000

$$$$
