AV-unprocessed.smi:99|AV-procd|sdf|881|dock7
  -GOLD-   2262017353D 1   1.00000     0.00000
 Structure written by MMmdl.
 52 55  0  0  0  0  0  0  0  0  2 V2000
  146.2635  138.4988  159.5791 O   0  0  0  0  0  0  0  0  0  0  0  0
  146.2739  137.2670  159.5429 C   0  0  0  0  0  0  0  0  0  0  0  0
  145.9568  136.5483  158.4493 O   0  0  0  0  0  0  0  0  0  0  0  0
  145.3167  137.1603  157.3414 C   0  0  0  0  0  0  0  0  0  0  0  0
  146.3401  137.3249  156.2109 C   0  0  2  0  0  0  0  0  0  0  0  0
  147.0519  138.5472  156.3716 O   0  0  0  0  0  0  0  0  0  0  0  0
  147.5500  138.9794  155.1345 C   0  0  1  0  0  0  0  0  0  0  0  0
  149.0642  138.8902  155.1434 N   0  0  0  0  0  0  0  0  0  0  0  0
  149.7227  137.8065  155.7014 C   0  0  0  0  0  0  0  0  0  0  0  0
  151.0695  137.7304  155.7056 C   0  0  0  0  0  0  0  0  0  0  0  0
  151.8512  138.8109  155.1112 C   0  0  0  0  0  0  0  0  0  0  0  0
  153.0782  138.7349  155.1251 O   0  0  0  0  0  0  0  0  0  0  0  0
  151.1789  139.8636  154.5624 N   0  5  0  0  0  0  0  0  0  0  0  0
  149.8160  139.9415  154.5526 C   0  0  0  0  0  0  0  0  0  0  0  0
  149.1972  140.8802  154.0504 O   0  0  0  0  0  0  0  0  0  0  0  0
  146.8947  138.1018  154.0399 C   0  0  1  0  0  0  0  0  0  0  0  0
  147.7675  137.1004  153.5370 O   0  0  0  0  0  0  0  0  0  0  0  0
  145.7377  137.4920  154.8170 C   0  0  1  0  0  0  0  0  0  0  0  0
  145.2656  136.2862  154.2207 O   0  0  0  0  0  0  0  0  0  0  0  0
  144.5803  136.2995  153.0564 C   0  0  0  0  0  0  0  0  0  0  0  0
  143.8624  137.2326  152.6917 O   0  0  0  0  0  0  0  0  0  0  0  0
  144.7461  135.0407  152.2759 C   0  0  0  0  0  0  0  0  0  0  0  0
  145.8157  134.1691  152.5871 C   0  0  0  0  0  0  0  0  0  0  0  0
  146.0145  132.9866  151.8487 C   0  0  0  0  0  0  0  0  0  0  0  0
  145.1436  132.6591  150.7935 C   0  0  0  0  0  0  0  0  0  0  0  0
  144.0723  133.5150  150.4783 C   0  0  0  0  0  0  0  0  0  0  0  0
  143.8735  134.6999  151.2134 C   0  0  0  0  0  0  0  0  0  0  0  0
  146.6133  136.4084  160.7145 C   0  0  0  0  0  0  0  0  0  0  0  0
  147.1944  136.9968  161.8616 C   0  0  0  0  0  0  0  0  0  0  0  0
  147.5018  136.2142  162.9915 C   0  0  0  0  0  0  0  0  0  0  0  0
  147.2330  134.8330  162.9876 C   0  0  0  0  0  0  0  0  0  0  0  0
  146.6594  134.2347  161.8512 C   0  0  0  0  0  0  0  0  0  0  0  0
  146.3530  135.0156  160.7201 C   0  0  0  0  0  0  0  0  0  0  0  0
  144.4694  136.5674  156.9934 H   0  0  0  0  0  0  0  0  0  0  0  0
  144.9339  138.1332  157.6511 H   0  0  0  0  0  0  0  0  0  0  0  0
  147.0563  136.5013  156.2230 H   0  0  0  0  0  0  0  0  0  0  0  0
  147.3121  140.0402  155.0403 H   0  0  0  0  0  0  0  0  0  0  0  0
  149.1633  136.9967  156.1434 H   0  0  0  0  0  0  0  0  0  0  0  0
  151.5667  136.8777  156.1442 H   0  0  0  0  0  0  0  0  0  0  0  0
  146.5511  138.7245  153.2136 H   0  0  0  0  0  0  0  0  0  0  0  0
  147.7682  137.1511  152.5936 H   0  0  0  0  0  0  0  0  0  0  0  0
  144.9473  138.2426  154.8680 H   0  0  0  0  0  0  0  0  0  0  0  0
  146.5024  134.4040  153.3875 H   0  0  0  0  0  0  0  0  0  0  0  0
  146.8387  132.3319  152.0907 H   0  0  0  0  0  0  0  0  0  0  0  0
  145.2971  131.7530  150.2265 H   0  0  0  0  0  0  0  0  0  0  0  0
  143.4027  133.2644  149.6690 H   0  0  0  0  0  0  0  0  0  0  0  0
  143.0441  135.3372  150.9433 H   0  0  0  0  0  0  0  0  0  0  0  0
  147.4044  138.0564  161.8898 H   0  0  0  0  0  0  0  0  0  0  0  0
  147.9420  136.6754  163.8632 H   0  0  0  0  0  0  0  0  0  0  0  0
  147.4654  134.2338  163.8555 H   0  0  0  0  0  0  0  0  0  0  0  0
  146.4476  133.1757  161.8477 H   0  0  0  0  0  0  0  0  0  0  0  0
  145.9058  134.5248  159.8681 H   0  0  0  0  0  0  0  0  0  0  0  0
  1  2  2  0  0  0  0
  2  3  1  0  0  0  0
  2 28  1  0  0  0  0
  3  4  1  0  0  0  0
  4  5  1  0  0  0  0
  4 34  1  0  0  0  0
  4 35  1  0  0  0  0
  5 18  1  0  0  0  0
  5  6  1  0  0  0  0
  5 36  1  0  0  0  0
  6  7  1  0  0  0  0
  7  8  1  0  0  0  0
  7 16  1  0  0  0  0
  7 37  1  0  0  0  0
  8 14  1  0  0  0  0
  8  9  1  0  0  0  0
  9 10  2  0  0  0  0
  9 38  1  0  0  0  0
 10 11  1  0  0  0  0
 10 39  1  0  0  0  0
 11 12  2  0  0  0  0
 11 13  1  0  0  0  0
 13 14  1  0  0  0  0
 14 15  2  0  0  0  0
 16 17  1  0  0  0  0
 16 18  1  0  0  0  0
 16 40  1  0  0  0  0
 17 41  1  0  0  0  0
 18 19  1  0  0  0  0
 18 42  1  0  0  0  0
 19 20  1  0  0  0  0
 20 21  2  0  0  0  0
 20 22  1  0  0  0  0
 22 27  1  0  0  0  0
 22 23  2  0  0  0  0
 23 24  1  0  0  0  0
 23 43  1  0  0  0  0
 24 25  2  0  0  0  0
 24 44  1  0  0  0  0
 25 26  1  0  0  0  0
 25 45  1  0  0  0  0
 26 27  2  0  0  0  0
 26 46  1  0  0  0  0
 27 47  1  0  0  0  0
 28 33  1  0  0  0  0
 28 29  2  0  0  0  0
 29 30  1  0  0  0  0
 29 48  1  0  0  0  0
 30 31  2  0  0  0  0
 30 49  1  0  0  0  0
 31 32  1  0  0  0  0
 31 50  1  0  0  0  0
 32 33  2  0  0  0  0
 32 51  1  0  0  0  0
 33 52  1  0  0  0  0
M  CHG  1  13  -1
M  END
> <s_m_source_file>
AV-unprocessed.smi

> <i_m_source_file_index>
99

> <i_lp_mmshare_version>
43012

> <i_f3d_flags>
0

> <s_epik_input>
W2NIXTFbY0hdW2NIXVtjSF1bY0hdYzFDKD1PKU9bQ0gyXVtDQEBIXTJPW0NAQEhdKG4zW2NIXVtjSF1jKD1PKVtuSF1jMz1PKVtDQEBIXShbT0hdKVtDQEhdMk9DKD1PKWM0W2NIXVtjSF1bY0hdW2NIXVtjSF00

> <s_epik_cmdline>
J2VwaWtfcHl0aG9uJywgJy1waCcsICc3LjAnLCAnLXRuJywgJzgnLCAnLW1hJywgJzIwMCcsICctbWV0YWxfYmluZGluZycsICctaW1hZScsICc8aW5maWxlLm1hZT4nLCAnLW9tYWUnLCAnPG91dGZpbGUubWFlPic=

> <r_lp_tautomer_probability>
1

> <r_epik_Ionization_Penalty>
2.89159

> <r_epik_Ionization_Penalty_Charging>
2.1077e-08

> <r_epik_Ionization_Penalty_Neutral>
2.89159

> <r_epik_State_Penalty>
2.88671

> <r_epik_Charging_Adjusted_Penalty>
2.88671

> <i_epik_Tot_Q>
-1

> <i_epik_Tot_abs_Q>
1

> <r_epik_Metal_State_Penalty>
0.0727308

> <b_epik_Metal_Only>
1

> <s_epik_Chemistry_Notes>
This compound has an ester and may undergo hydrolysis at high or low pH. This compound contains an acetal/aminal-like group ( X-CH(R)-Y where X, Y are N, S, or O) that may be acid/base labile, releasing an aldehyde.

> <s_lp_Force_Field>
OPLS_2005

> <r_lp_Energy>
51.3472

> <b_lp_Chiralities_Consistent>
1

> <s_lp_Variant>
AV-unprocessed.smi:99-17

> <Gold.Version>
5.8.1

> <Gold.Id.Protein>
6NUR|6NUR_protein|mol2

> <Gold.PLP.Fitness>
49.9256

> <Gold.PLP.PLP>
-44.4341

> <Gold.PLP.part.hbond>
-2.6764

> <Gold.PLP.part.metal>
0.0000

> <Gold.PLP.part.buried>
-9.4416

> <Gold.PLP.part.nonpolar>
-33.7651

> <Gold.PLP.part.repulsive>
0.4742

> <Gold.PLP.ligand.clash>
0.0000

> <Gold.PLP.ligand.torsion>
1.8515

> <Gold.PLP.Chemscore.Hbond>
2.9760

> <Gold.PLP.Chemscore.CHOScore>
0.0000

> <Gold.PLP.Chemscore.Metal>
0.0000

> <Gold.Chemscore.Hbonds>
donor molecule, donor type, donor heavy atom, donor atom, acceptor molecule, acceptor atom, score
      L1  H    17    41       P1  7948  0.30
      P1  H  6934  6947       L1     1  0.53
      P1  H  7989  7998       L1    13  1.00
      P1  H  7997  8008       L1    12  0.73
      P1  H  8011  8017       L1    15  0.12

> <Gold.PLP.Chemscore.Internal.Correction>
0.2666

> <Gold.Rescore>
     Score         DG    S(hbond)    S(metal)    S(lipo)     H(rot)  DE(clash)    DE(int)     intcor
     15.89     -17.87       3.00        0.00      88.84       3.13       0.03       1.95       ----

> <Gold.Chemscore.Fitness>
15.8914

> <Gold.Chemscore.DG>
-17.8677

> <Gold.Chemscore.ZeroCoef>
-5.4800

> <Gold.Chemscore.Hbond>
2.9994

> <Gold.Chemscore.Metal>
0.0000

> <Gold.Chemscore.Lipo>
88.8388

> <Gold.Chemscore.Internal_Hbond>
0.0000

> <Gold.Chemscore.DEClash>
0.0299

> <Gold.Chemscore.DEInternal>
1.9464

> <Gold.Chemscore.Rot>
3.1346

> <Gold.Chemscore.Internal.Correction>
   9.000000E+99

> <Gold.Chemscore.Hbonds>
donor molecule, donor type, donor heavy atom, donor atom, acceptor molecule, acceptor atom, score
      L1  H    17    41       P1  7948  0.30
      P1  H  6934  6947       L1     1  0.41
      P1  H  7989  7998       L1    13  0.47
      P1  H  7997  8008       L1    12  0.72
      P1  H  8011  8017       L1    15  0.14

> <Gold.Chemscore.Hbond.Weighted>
-10.0181

> <Gold.Chemscore.Metal.Weighted>
-0.0000

> <Gold.Chemscore.Lipo.Weighted>
-10.3941

> <Gold.Chemscore.Internal_Hbond.Weighted>
0.0000

> <Gold.Chemscore.DEClash.Weighted>
0.0299

> <Gold.Chemscore.DEInternal.Weighted>
1.9464

> <Gold.Chemscore.Rot.Weighted>
8.0246

> <Gold.Chemscore.Internal.Correction.Weighted>
   9.000000E+99

> <Gold.Protein.RotatedTorsions>
[ 6907 6896 6895 6894 ] final    0.53 input  -60.11 | X-H torsion
[ 7974 7965 7964 7962 ] final  -57.40 input  175.53 | X-H torsion
[ 8008 7997 7996 7995 ] final  -25.37 input   59.86 | X-H torsion
[ 10167 10162 10161 10158 ] final   54.14 input  -65.29 | X-H torsion
[ 10718 10713 10712 10709 ] final   -5.16 input   66.30 | X-H torsion
[ 10763 10752 10751 10750 ] final  -81.12 input  -60.55 | X-H torsion
[ 11005 11000 10999 10996 ] final  -79.96 input  -57.11 | X-H torsion

> <Gold.Protein.ActiveResidues>
 VAL166  LYS551  ARG553  GLY616  TRP617  ASP618  TYR619  PRO620  LYS621  CYS622 
 ASP623  PHE694  ASN695  SER759  ASP760  ASP761  ALA762  ILE779  LEU786  VAL792 
 PHE793  MET794  SER795  GLU796  ALA797  LYS798  CYS799  TRP800  GLU811  SER814 

> <Gold.Protein.RotatedAtoms>
  151.5779  135.1060  160.0010 H   0  0  0  0  0  0  0  0  0  0  0  0  # atno 6907 bound_to 6896
  152.4369  133.7372  159.6631 H   0  0  0  0  0  0  0  0  0  0  0  0  # atno 6908 bound_to 6896
  150.8268  133.8089  159.3138 H   0  0  0  0  0  0  0  0  0  0  0  0  # atno 6909 bound_to 6896
  145.8515  140.8349  142.9983 H   0  0  0  0  0  0  0  0  0  0  0  0  # atno 7974 bound_to 7965
  154.4479  140.1928  156.0608 H   0  0  0  0  0  0  0  0  0  0  0  0  # atno 8008 bound_to 7997
  156.0584  140.3300  155.7405 H   0  0  0  0  0  0  0  0  0  0  0  0  # atno 8009 bound_to 7997
  155.5450  140.0590  157.2853 H   0  0  0  0  0  0  0  0  0  0  0  0  # atno 8010 bound_to 7997
  140.2333  144.3663  150.6406 H   0  0  0  0  0  0  0  0  0  0  0  0  # atno 10167 bound_to 10162
  156.7507  130.5238  149.5805 H   0  0  0  0  0  0  0  0  0  0  0  0  # atno 10718 bound_to 10713
  154.5596  135.5637  153.6995 H   0  0  0  0  0  0  0  0  0  0  0  0  # atno 10763 bound_to 10752
  153.0014  135.6270  154.2263 H   0  0  0  0  0  0  0  0  0  0  0  0  # atno 10764 bound_to 10752
  154.2200  135.2870  155.2908 H   0  0  0  0  0  0  0  0  0  0  0  0  # atno 10765 bound_to 10752
  141.1668  133.7129  156.8201 H   0  0  0  0  0  0  0  0  0  0  0  0  # atno 11005 bound_to 11000
  144.6729  140.0961  143.7463 LP  0  0  0  0  0  0  0  0  0  0  0  0  # atno 17320 bound_to 7965
  145.9352  139.2632  143.1301 LP  0  0  0  0  0  0  0  0  0  0  0  0  # atno 17321 bound_to 7965
  140.6169  143.2173  151.6774 LP  0  0  0  0  0  0  0  0  0  0  0  0  # atno 17342 bound_to 10162
  139.5102  144.3550  152.0617 LP  0  0  0  0  0  0  0  0  0  0  0  0  # atno 17343 bound_to 10162
  156.1403  130.6240  151.0458 LP  0  0  0  0  0  0  0  0  0  0  0  0  # atno 17370 bound_to 10713
  157.6778  131.0846  150.7448 LP  0  0  0  0  0  0  0  0  0  0  0  0  # atno 17371 bound_to 10713
  140.2125  134.8817  157.3290 LP  0  0  0  0  0  0  0  0  0  0  0  0  # atno 17394 bound_to 11000
  140.2072  134.4183  155.7631 LP  0  0  0  0  0  0  0  0  0  0  0  0  # atno 17395 bound_to 11000

$$$$
