AV-unprocessed.smi:114|AV-procd|sdf|1122|dock4
  -GOLD-   2262018243D 1   1.00000     0.00000
 Structure written by MMmdl.
 32 34  0  0  0  0  0  0  0  0  1 V2000
  154.2678  142.1806  161.1405 N   0  0  0  0  0  0  0  0  0  0  0  0
  153.4167  142.5753  160.1831 C   0  0  0  0  0  0  0  0  0  0  0  0
  152.8671  143.8088  160.2782 N   0  0  0  0  0  0  0  0  0  0  0  0
  152.0109  144.2426  159.3441 C   0  0  0  0  0  0  0  0  0  0  0  0
  151.5103  145.4879  159.5202 F   0  0  0  0  0  0  0  0  0  0  0  0
  151.5941  143.5843  158.2564 N   0  0  0  0  0  0  0  0  0  0  0  0
  152.1487  142.3417  158.1588 C   0  0  0  0  0  0  0  0  0  0  0  0
  153.0638  141.7632  159.0775 C   0  0  0  0  0  0  0  0  0  0  0  0
  153.4094  140.4845  158.6592 N   0  0  0  0  0  0  0  0  0  0  0  0
  152.7327  140.3221  157.5528 C   0  0  0  0  0  0  0  0  0  0  0  0
  151.9503  141.3945  157.1800 N   0  0  0  0  0  0  0  0  0  0  0  0
  151.0591  141.5395  155.9902 C   0  0  1  0  0  0  0  0  0  0  0  0
  151.1245  140.3748  155.2364 O   0  0  0  0  0  0  0  0  0  0  0  0
  149.9338  140.2710  154.4643 C   0  0  1  0  0  0  0  0  0  0  0  0
  149.5620  138.7876  154.2880 C   0  0  0  0  0  0  0  0  0  0  0  0
  150.5166  138.0939  153.5107 O   0  0  0  0  0  0  0  0  0  0  0  0
  148.8712  141.1621  155.1456 C   0  0  2  0  0  0  0  0  0  0  0  0
  148.5164  142.2197  154.2751 O   0  0  0  0  0  0  0  0  0  0  0  0
  149.5850  141.7224  156.3719 C   0  0  1  0  0  0  0  0  0  0  0  0
  149.2223  141.0091  157.5407 O   0  0  0  0  0  0  0  0  0  0  0  0
  151.4617  142.3764  155.4169 H   0  0  0  0  0  0  0  0  0  0  0  0
  150.1804  140.6741  153.4801 H   0  0  0  0  0  0  0  0  0  0  0  0
  147.9608  140.6226  155.4102 H   0  0  0  0  0  0  0  0  0  0  0  0
  149.3791  142.7801  156.5429 H   0  0  0  0  0  0  0  0  0  0  0  0
  154.6897  141.2641  161.0915 H   0  0  0  0  0  0  0  0  0  0  0  0
  154.4867  142.7993  161.9080 H   0  0  0  0  0  0  0  0  0  0  0  0
  152.7816  139.4087  156.9772 H   0  0  0  0  0  0  0  0  0  0  0  0
  149.5110  138.3037  155.2638 H   0  0  0  0  0  0  0  0  0  0  0  0
  148.5770  138.6888  153.8311 H   0  0  0  0  0  0  0  0  0  0  0  0
  150.0597  137.5313  152.9041 H   0  0  0  0  0  0  0  0  0  0  0  0
  148.7144  143.0392  154.7019 H   0  0  0  0  0  0  0  0  0  0  0  0
  148.2796  141.0108  157.6089 H   0  0  0  0  0  0  0  0  0  0  0  0
  1  2  1  0  0  0  0
  1 25  1  0  0  0  0
  1 26  1  0  0  0  0
  2  8  1  0  0  0  0
  2  3  2  0  0  0  0
  3  4  1  0  0  0  0
  4  5  1  0  0  0  0
  4  6  2  0  0  0  0
  6  7  1  0  0  0  0
  7 11  1  0  0  0  0
  7  8  2  0  0  0  0
  8  9  1  0  0  0  0
  9 10  2  0  0  0  0
 10 11  1  0  0  0  0
 10 27  1  0  0  0  0
 11 12  1  0  0  0  0
 12 21  1  0  0  0  0
 12 19  1  0  0  0  0
 12 13  1  0  0  0  0
 13 14  1  0  0  0  0
 14 22  1  0  0  0  0
 14 15  1  0  0  0  0
 14 17  1  0  0  0  0
 15 16  1  0  0  0  0
 15 28  1  0  0  0  0
 15 29  1  0  0  0  0
 16 30  1  0  0  0  0
 17 23  1  0  0  0  0
 17 18  1  0  0  0  0
 17 19  1  0  0  0  0
 18 31  1  0  0  0  0
 19 24  1  0  0  0  0
 19 20  1  0  0  0  0
 20 32  1  0  0  0  0
M  END
> <s_m_source_file>
AV-unprocessed.smi

> <i_m_source_file_index>
114

> <i_lp_mmshare_version>
43012

> <i_f3d_flags>
0

> <s_epik_input>
RmMobjEpbmMoW05IMl0pYyhjMTIpbltjSF1uMltDQEBIXTNPW0NASF0oW0NIMl1bT0hdKVtDQEBIXShbT0hdKVtDQEBIXTNbT0hd

> <s_epik_cmdline>
J2VwaWtfcHl0aG9uJywgJy1waCcsICc3LjAnLCAnLXRuJywgJzgnLCAnLW1hJywgJzIwMCcsICctbWV0YWxfYmluZGluZycsICctaW1hZScsICc8aW5maWxlLm1hZT4nLCAnLW9tYWUnLCAnPG91dGZpbGUubWFlPic=

> <r_lp_tautomer_probability>
1

> <r_epik_Ionization_Penalty>
1.13199e-05

> <r_epik_Ionization_Penalty_Charging>
0

> <r_epik_Ionization_Penalty_Neutral>
1.13199e-05

> <r_epik_State_Penalty>
-0

> <r_epik_Charging_Adjusted_Penalty>
0

> <i_epik_Tot_Q>
0

> <i_epik_Tot_abs_Q>
0

> <r_epik_Metal_State_Penalty>
-0

> <b_epik_Metal_Only>
0

> <s_epik_Chemistry_Notes>
This compound contains an acetal/aminal-like group ( X-CH(R)-Y where X, Y are N, S, or O) that may be acid/base labile, releasing an aldehyde.

> <s_lp_Force_Field>
OPLS_2005

> <r_lp_Energy>
41.8757

> <b_lp_Chiralities_Consistent>
1

> <s_lp_Variant>
AV-unprocessed.smi:114-16

> <Gold.Version>
5.8.1

> <Gold.Id.Protein>
6NUR|6NUR_protein|mol2

> <Gold.PLP.Fitness>
46.2750

> <Gold.PLP.PLP>
-39.4721

> <Gold.PLP.part.hbond>
-4.4121

> <Gold.PLP.part.metal>
0.0000

> <Gold.PLP.part.buried>
-6.3829

> <Gold.PLP.part.nonpolar>
-29.0781

> <Gold.PLP.part.repulsive>
0.1696

> <Gold.PLP.ligand.clash>
0.0000

> <Gold.PLP.ligand.torsion>
0.0302

> <Gold.PLP.Chemscore.Hbond>
2.2855

> <Gold.PLP.Chemscore.CHOScore>
0.0000

> <Gold.PLP.Chemscore.Metal>
0.0000

> <Gold.Chemscore.Hbonds>
donor molecule, donor type, donor heavy atom, donor atom, acceptor molecule, acceptor atom, score
      L1  H    16    30       P1  7948  0.80
      L1  H    18    31       P1  8028  1.00
      P1  H  7997  8008       L1     9  0.03
      P1  H  8011  8017       L1    18  0.08

> <Gold.PLP.Chemscore.Internal.Correction>
0.0068

> <Gold.Rescore>
     Score         DG    S(hbond)    S(metal)    S(lipo)     H(rot)  DE(clash)    DE(int)     intcor
      5.90      -5.98       2.08        0.00      33.16       4.03       0.04       0.04       ----

> <Gold.Chemscore.Fitness>
5.9036

> <Gold.Chemscore.DG>
-5.9836

> <Gold.Chemscore.ZeroCoef>
-5.4800

> <Gold.Chemscore.Hbond>
2.0763

> <Gold.Chemscore.Metal>
0.0000

> <Gold.Chemscore.Lipo>
33.1594

> <Gold.Chemscore.Internal_Hbond>
0.0000

> <Gold.Chemscore.DEClash>
0.0411

> <Gold.Chemscore.DEInternal>
0.0388

> <Gold.Chemscore.Rot>
4.0277

> <Gold.Chemscore.Internal.Correction>
   9.000000E+99

> <Gold.Chemscore.Hbonds>
donor molecule, donor type, donor heavy atom, donor atom, acceptor molecule, acceptor atom, score
      L1  H    16    30       P1  7948  0.12
      L1  H    18    31       P1  8028  1.00
      P1  H  8011  8017       L1    18  0.02

> <Gold.Chemscore.Hbond.Weighted>
-6.9349

> <Gold.Chemscore.Metal.Weighted>
-0.0000

> <Gold.Chemscore.Lipo.Weighted>
-3.8797

> <Gold.Chemscore.Internal_Hbond.Weighted>
0.0000

> <Gold.Chemscore.DEClash.Weighted>
0.0411

> <Gold.Chemscore.DEInternal.Weighted>
0.0388

> <Gold.Chemscore.Rot.Weighted>
10.3110

> <Gold.Chemscore.Internal.Correction.Weighted>
   9.000000E+99

> <Gold.Protein.RotatedTorsions>
[ 6907 6896 6895 6894 ] final  -52.38 input  -60.11 | X-H torsion
[ 7974 7965 7964 7962 ] final  -32.93 input  175.53 | X-H torsion
[ 8008 7997 7996 7995 ] final -123.99 input   59.86 | X-H torsion
[ 10167 10162 10161 10158 ] final    6.67 input  -65.29 | X-H torsion
[ 10718 10713 10712 10709 ] final    4.21 input   66.30 | X-H torsion
[ 10763 10752 10751 10750 ] final  -22.26 input  -60.55 | X-H torsion
[ 11005 11000 10999 10996 ] final   24.41 input  -57.11 | X-H torsion

> <Gold.Protein.ActiveResidues>
 VAL166  LYS551  ARG553  GLY616  TRP617  ASP618  TYR619  PRO620  LYS621  CYS622 
 ASP623  PHE694  ASN695  SER759  ASP760  ASP761  ALA762  ILE779  LEU786  VAL792 
 PHE793  MET794  SER795  GLU796  ALA797  LYS798  CYS799  TRP800  GLU811  SER814 

> <Gold.Protein.RotatedAtoms>
  150.8523  134.7852  159.7018 H   0  0  0  0  0  0  0  0  0  0  0  0  # atno 6907 bound_to 6896
  152.4584  134.5235  159.9799 H   0  0  0  0  0  0  0  0  0  0  0  0  # atno 6908 bound_to 6896
  151.5354  133.3404  159.2961 H   0  0  0  0  0  0  0  0  0  0  0  0  # atno 6909 bound_to 6896
  146.0951  140.5854  142.8847 H   0  0  0  0  0  0  0  0  0  0  0  0  # atno 7974 bound_to 7965
  155.1896  140.0413  157.2898 H   0  0  0  0  0  0  0  0  0  0  0  0  # atno 8008 bound_to 7997
  154.6148  140.2486  155.7595 H   0  0  0  0  0  0  0  0  0  0  0  0  # atno 8009 bound_to 7997
  156.2400  140.2907  156.0427 H   0  0  0  0  0  0  0  0  0  0  0  0  # atno 8010 bound_to 7997
  140.6415  143.7763  150.7435 H   0  0  0  0  0  0  0  0  0  0  0  0  # atno 10167 bound_to 10162
  156.8892  130.5681  149.5650 H   0  0  0  0  0  0  0  0  0  0  0  0  # atno 10718 bound_to 10713
  153.6491  135.6981  153.5215 H   0  0  0  0  0  0  0  0  0  0  0  0  # atno 10763 bound_to 10752
  153.2721  135.4212  155.0997 H   0  0  0  0  0  0  0  0  0  0  0  0  # atno 10764 bound_to 10752
  154.8481  135.3581  154.6035 H   0  0  0  0  0  0  0  0  0  0  0  0  # atno 10765 bound_to 10752
  140.3590  134.2146  155.7673 H   0  0  0  0  0  0  0  0  0  0  0  0  # atno 11005 bound_to 11000
  144.7389  140.4886  143.6884 LP  0  0  0  0  0  0  0  0  0  0  0  0  # atno 17320 bound_to 7965
  145.5965  139.1500  143.3153 LP  0  0  0  0  0  0  0  0  0  0  0  0  # atno 17321 bound_to 7965
  140.1396  143.4453  152.2202 LP  0  0  0  0  0  0  0  0  0  0  0  0  # atno 17342 bound_to 10162
  139.5624  144.7414  151.4117 LP  0  0  0  0  0  0  0  0  0  0  0  0  # atno 17343 bound_to 10162
  156.0638  130.5685  150.9246 LP  0  0  0  0  0  0  0  0  0  0  0  0  # atno 17370 bound_to 10713
  157.6094  131.0937  150.8822 LP  0  0  0  0  0  0  0  0  0  0  0  0  # atno 17371 bound_to 10713
  141.1990  133.8023  157.0558 LP  0  0  0  0  0  0  0  0  0  0  0  0  # atno 17394 bound_to 11000
  140.0642  134.9738  157.1357 LP  0  0  0  0  0  0  0  0  0  0  0  0  # atno 17395 bound_to 11000

$$$$
