AV-unprocessed.smi:2410|AV-procd|sdf|9528|dock7
  -GOLD-   2272013163D 1   1.00000     0.00000
 Structure written by MMmdl.
 47 49  0  0  0  0  0  0  0  0  2 V2000
  152.3715  143.9651  161.3320 C   0  0  0  0  0  0  0  0  0  0  0  0
  152.1546  143.0798  160.1166 C   0  0  0  0  0  0  0  0  0  0  0  0
  151.2923  143.5369  159.0939 C   0  0  0  0  0  0  0  0  0  0  0  0
  151.1164  142.7060  157.9936 C   0  0  0  0  0  0  0  0  0  0  0  0
  150.3486  142.8646  156.8371 N   0  3  0  0  0  0  0  0  0  0  0  0
  150.5017  141.7732  156.0362 C   0  0  0  0  0  0  0  0  0  0  0  0
  151.3551  140.9209  156.6657 N   0  0  0  0  0  0  0  0  0  0  0  0
  151.8676  139.6092  156.2512 C   0  0  0  0  0  0  0  0  0  0  0  0
  150.8353  138.4828  156.4539 C   0  0  2  0  0  0  0  0  0  0  0  0
  151.5348  137.2610  156.5888 O   0  0  0  0  0  0  0  0  0  0  0  0
  149.8555  138.3745  155.2649 C   0  0  0  0  0  0  0  0  0  0  0  0
  148.9498  139.5327  155.1952 N   0  0  0  0  0  0  0  0  0  0  0  0
  148.9353  140.2410  153.9830 C   0  0  0  0  0  0  0  0  0  0  0  0
  148.1769  141.2737  153.8097 N   0  0  0  0  0  0  0  0  0  0  0  0
  147.3408  141.7067  154.8432 C   0  0  0  0  0  0  0  0  0  0  0  0
  146.4982  142.9318  154.5355 C   0  0  0  0  0  0  0  0  0  0  0  0
  147.2993  141.0566  156.0385 C   0  0  0  0  0  0  0  0  0  0  0  0
  146.4094  141.4817  157.1998 C   0  0  0  0  0  0  0  0  0  0  0  0
  148.1514  139.8751  156.2479 C   0  0  0  0  0  0  0  0  0  0  0  0
  148.1499  139.2251  157.2960 O   0  0  0  0  0  0  0  0  0  0  0  0
  151.7623  141.4594  157.8903 C   0  0  0  0  0  0  0  0  0  0  0  0
  152.6131  140.9921  158.8890 C   0  0  0  0  0  0  0  0  0  0  0  0
  152.8065  141.8231  160.0151 C   0  0  0  0  0  0  0  0  0  0  0  0
  153.7338  141.3418  161.1182 C   0  0  0  0  0  0  0  0  0  0  0  0
  151.8185  144.9012  161.2476 H   0  0  0  0  0  0  0  0  0  0  0  0
  153.4276  144.2116  161.4437 H   0  0  0  0  0  0  0  0  0  0  0  0
  152.0354  143.4602  162.2380 H   0  0  0  0  0  0  0  0  0  0  0  0
  150.7932  144.4923  159.1643 H   0  0  0  0  0  0  0  0  0  0  0  0
  150.0348  141.6154  155.0746 H   0  0  0  0  0  0  0  0  0  0  0  0
  152.1649  139.6822  155.2043 H   0  0  0  0  0  0  0  0  0  0  0  0
  152.7772  139.4085  156.8191 H   0  0  0  0  0  0  0  0  0  0  0  0
  150.2887  138.6662  157.3795 H   0  0  0  0  0  0  0  0  0  0  0  0
  151.2210  136.8182  157.3625 H   0  0  0  0  0  0  0  0  0  0  0  0
  150.4174  138.3339  154.3298 H   0  0  0  0  0  0  0  0  0  0  0  0
  149.3179  137.4243  155.2896 H   0  0  0  0  0  0  0  0  0  0  0  0
  149.6003  139.8588  153.2067 H   0  0  0  0  0  0  0  0  0  0  0  0
  146.7367  143.7426  155.2243 H   0  0  0  0  0  0  0  0  0  0  0  0
  145.4369  142.6981  154.6241 H   0  0  0  0  0  0  0  0  0  0  0  0
  146.6767  143.2917  153.5213 H   0  0  0  0  0  0  0  0  0  0  0  0
  145.7329  140.6708  157.4722 H   0  0  0  0  0  0  0  0  0  0  0  0
  145.7992  142.3551  156.9755 H   0  0  0  0  0  0  0  0  0  0  0  0
  147.0187  141.7222  158.0718 H   0  0  0  0  0  0  0  0  0  0  0  0
  153.1111  140.0364  158.8094 H   0  0  0  0  0  0  0  0  0  0  0  0
  154.1262  140.3470  160.9040 H   0  0  0  0  0  0  0  0  0  0  0  0
  153.2052  141.2922  162.0704 H   0  0  0  0  0  0  0  0  0  0  0  0
  154.5820  142.0180  161.2263 H   0  0  0  0  0  0  0  0  0  0  0  0
  149.7645  143.6587  156.6077 H   0  0  0  0  0  0  0  0  0  0  0  0
  1  2  1  0  0  0  0
  1 25  1  0  0  0  0
  1 26  1  0  0  0  0
  1 27  1  0  0  0  0
  2 23  1  0  0  0  0
  2  3  2  0  0  0  0
  3  4  1  0  0  0  0
  3 28  1  0  0  0  0
  4 21  2  0  0  0  0
  4  5  1  0  0  0  0
  5  6  2  0  0  0  0
  5 47  1  0  0  0  0
  6  7  1  0  0  0  0
  6 29  1  0  0  0  0
  7  8  1  0  0  0  0
  7 21  1  0  0  0  0
  8  9  1  0  0  0  0
  8 30  1  0  0  0  0
  8 31  1  0  0  0  0
  9 10  1  0  0  0  0
  9 11  1  0  0  0  0
  9 32  1  0  0  0  0
 10 33  1  0  0  0  0
 11 12  1  0  0  0  0
 11 34  1  0  0  0  0
 11 35  1  0  0  0  0
 12 19  1  0  0  0  0
 12 13  1  0  0  0  0
 13 14  2  0  0  0  0
 13 36  1  0  0  0  0
 14 15  1  0  0  0  0
 15 16  1  0  0  0  0
 15 17  2  0  0  0  0
 16 37  1  0  0  0  0
 16 38  1  0  0  0  0
 16 39  1  0  0  0  0
 17 18  1  0  0  0  0
 17 19  1  0  0  0  0
 18 40  1  0  0  0  0
 18 41  1  0  0  0  0
 18 42  1  0  0  0  0
 19 20  2  0  0  0  0
 21 22  1  0  0  0  0
 22 23  2  0  0  0  0
 22 43  1  0  0  0  0
 23 24  1  0  0  0  0
 24 44  1  0  0  0  0
 24 45  1  0  0  0  0
 24 46  1  0  0  0  0
M  CHG  1   5   1
M  END
> <s_m_source_file>
AV-unprocessed.smi

> <i_m_source_file_index>
2410

> <i_lp_mmshare_version>
43012

> <i_f3d_flags>
0

> <s_epik_input>
W0NIM11jKFtjSF0xKWMoW0NIM10pW2NIXWMoYzEyKW4oW2NIXW4yKVtDSDJdW0NASF0oW09IXSlbQ0gyXW4zW2NIXW5jKFtDSDNdKWMoW0NIM10pYzM9Tw==

> <s_epik_cmdline>
J2VwaWtfcHl0aG9uJywgJy1waCcsICc3LjAnLCAnLXRuJywgJzgnLCAnLW1hJywgJzIwMCcsICctbWV0YWxfYmluZGluZycsICctaW1hZScsICc8aW5maWxlLm1hZT4nLCAnLW9tYWUnLCAnPG91dGZpbGUubWFlPic=

> <r_lp_tautomer_probability>
1

> <r_epik_Ionization_Penalty>
1.03571

> <r_epik_Ionization_Penalty_Charging>
1.03568

> <r_epik_Ionization_Penalty_Neutral>
3.18232e-05

> <r_epik_State_Penalty>
1.08724

> <r_epik_Charging_Adjusted_Penalty>
2.12292

> <i_epik_Tot_Q>
1

> <i_epik_Tot_abs_Q>
1

> <r_epik_Metal_State_Penalty>
1.18374

> <b_epik_Metal_Only>
0

> <s_lp_Force_Field>
OPLS_2005

> <r_lp_Energy>
24.5371

> <b_lp_Chiralities_Consistent>
1

> <s_lp_Variant>
AV-unprocessed.smi:2410-3

> <Gold.Version>
5.8.1

> <Gold.Id.Protein>
6NUR|6NUR_protein|mol2

> <Gold.PLP.Fitness>
50.0632

> <Gold.PLP.PLP>
-42.1695

> <Gold.PLP.part.hbond>
-1.2072

> <Gold.PLP.part.metal>
0.0000

> <Gold.PLP.part.buried>
-4.8314

> <Gold.PLP.part.nonpolar>
-38.1092

> <Gold.PLP.part.repulsive>
0.2010

> <Gold.PLP.ligand.clash>
0.0000

> <Gold.PLP.ligand.torsion>
0.5615

> <Gold.PLP.Chemscore.Hbond>
2.0000

> <Gold.PLP.Chemscore.CHOScore>
1.0000

> <Gold.PLP.Chemscore.Metal>
0.0000

> <Gold.Chemscore.Hbonds>
donor molecule, donor type, donor heavy atom, donor atom, acceptor molecule, acceptor atom, score
      L1  H     5    47       P1  8028  2.00
      L1  C    13    36       P1  7957  1.00

> <Gold.PLP.Chemscore.Internal.Correction>
0.0168

> <Gold.Rescore>
     Score         DG    S(hbond)    S(metal)    S(lipo)     H(rot)  DE(clash)    DE(int)     intcor
     12.07     -15.22       0.99        0.00     107.76       2.41       0.07       3.08       ----

> <Gold.Chemscore.Fitness>
12.0731

> <Gold.Chemscore.DG>
-15.2247

> <Gold.Chemscore.ZeroCoef>
-5.4800

> <Gold.Chemscore.Hbond>
0.9861

> <Gold.Chemscore.Metal>
0.0000

> <Gold.Chemscore.Lipo>
107.7644

> <Gold.Chemscore.Internal_Hbond>
0.0000

> <Gold.Chemscore.DEClash>
0.0680

> <Gold.Chemscore.DEInternal>
3.0836

> <Gold.Chemscore.Rot>
2.4052

> <Gold.Chemscore.Internal.Correction>
   9.000000E+99

> <Gold.Chemscore.Hbonds>
donor molecule, donor type, donor heavy atom, donor atom, acceptor molecule, acceptor atom, score
      L1  H     5    47       P1  8028  0.99

> <Gold.Chemscore.Hbond.Weighted>
-3.2936

> <Gold.Chemscore.Metal.Weighted>
-0.0000

> <Gold.Chemscore.Lipo.Weighted>
-12.6084

> <Gold.Chemscore.Internal_Hbond.Weighted>
0.0000

> <Gold.Chemscore.DEClash.Weighted>
0.0680

> <Gold.Chemscore.DEInternal.Weighted>
3.0836

> <Gold.Chemscore.Rot.Weighted>
6.1573

> <Gold.Chemscore.Internal.Correction.Weighted>
   9.000000E+99

> <Gold.Protein.RotatedTorsions>
[ 6907 6896 6895 6894 ] final   11.90 input  -60.11 | X-H torsion
[ 7974 7965 7964 7962 ] final   34.82 input  175.53 | X-H torsion
[ 8008 7997 7996 7995 ] final   81.19 input   59.86 | X-H torsion
[ 10167 10162 10161 10158 ] final -140.60 input  -65.29 | X-H torsion
[ 10718 10713 10712 10709 ] final   98.30 input   66.30 | X-H torsion
[ 10763 10752 10751 10750 ] final    2.12 input  -60.55 | X-H torsion
[ 11005 11000 10999 10996 ] final  175.99 input  -57.11 | X-H torsion

> <Gold.Protein.ActiveResidues>
 VAL166  LYS551  ARG553  GLY616  TRP617  ASP618  TYR619  PRO620  LYS621  CYS622 
 ASP623  PHE694  ASN695  SER759  ASP760  ASP761  ALA762  ILE779  LEU786  VAL792 
 PHE793  MET794  SER795  GLU796  ALA797  LYS798  CYS799  TRP800  GLU811  SER814 

> <Gold.Protein.RotatedAtoms>
  151.7617  135.0808  160.0346 H   0  0  0  0  0  0  0  0  0  0  0  0  # atno 6907 bound_to 6896
  152.3349  133.5995  159.5844 H   0  0  0  0  0  0  0  0  0  0  0  0  # atno 6908 bound_to 6896
  150.7444  133.9728  159.3593 H   0  0  0  0  0  0  0  0  0  0  0  0  # atno 6909 bound_to 6896
  146.1326  139.6220  142.9216 H   0  0  0  0  0  0  0  0  0  0  0  0  # atno 7974 bound_to 7965
  155.8937  140.3437  155.5975 H   0  0  0  0  0  0  0  0  0  0  0  0  # atno 8008 bound_to 7997
  155.7581  140.0829  157.2188 H   0  0  0  0  0  0  0  0  0  0  0  0  # atno 8009 bound_to 7997
  154.4036  140.1541  156.2788 H   0  0  0  0  0  0  0  0  0  0  0  0  # atno 8010 bound_to 7997
  139.8265  143.7503  152.2666 H   0  0  0  0  0  0  0  0  0  0  0  0  # atno 10167 bound_to 10162
  157.6898  131.0636  150.4775 H   0  0  0  0  0  0  0  0  0  0  0  0  # atno 10718 bound_to 10713
  153.2995  135.6955  153.7216 H   0  0  0  0  0  0  0  0  0  0  0  0  # atno 10763 bound_to 10752
  153.6136  135.3440  155.2988 H   0  0  0  0  0  0  0  0  0  0  0  0  # atno 10764 bound_to 10752
  154.8547  135.4369  154.2102 H   0  0  0  0  0  0  0  0  0  0  0  0  # atno 10765 bound_to 10752
  140.3682  134.7053  157.4375 H   0  0  0  0  0  0  0  0  0  0  0  0  # atno 11005 bound_to 11000
  145.5227  141.0431  143.2427 LP  0  0  0  0  0  0  0  0  0  0  0  0  # atno 17320 bound_to 7965
  144.7706  139.6743  143.7196 LP  0  0  0  0  0  0  0  0  0  0  0  0  # atno 17321 bound_to 7965
  139.7698  144.7480  151.0241 LP  0  0  0  0  0  0  0  0  0  0  0  0  # atno 17342 bound_to 10162
  140.7810  143.4658  151.0214 LP  0  0  0  0  0  0  0  0  0  0  0  0  # atno 17343 bound_to 10162
  156.5109  130.4139  149.6302 LP  0  0  0  0  0  0  0  0  0  0  0  0  # atno 17370 bound_to 10713
  156.3242  130.7297  151.2214 LP  0  0  0  0  0  0  0  0  0  0  0  0  # atno 17371 bound_to 10713
  140.0573  134.6046  155.8790 LP  0  0  0  0  0  0  0  0  0  0  0  0  # atno 17394 bound_to 11000
  141.1963  133.6591  156.5684 LP  0  0  0  0  0  0  0  0  0  0  0  0  # atno 17395 bound_to 11000

$$$$
