AV-unprocessed.smi:37|AV-procd|sdf|328|dock4
  -GOLD-   2262016153D 1   1.00000     0.00000
 Structure written by MMmdl.
 43 44  0  0  0  0  0  0  0  0  2 V2000
  144.8942  135.5791  162.6293 C   0  0  0  0  0  0  0  0  0  0  0  0
  146.3614  135.1369  162.5386 C   0  0  0  0  0  0  0  0  0  0  0  0
  147.1255  135.8958  161.4561 C   0  0  0  0  0  0  0  0  0  0  0  0
  147.4451  137.0760  161.6009 O   0  0  0  0  0  0  0  0  0  0  0  0
  147.3828  135.1369  160.3818 O   0  0  0  0  0  0  0  0  0  0  0  0
  148.3836  135.5294  159.4571 C   0  0  0  0  0  0  0  0  0  0  0  0
  148.0233  136.8913  158.8488 C   0  0  1  0  0  0  0  0  0  0  0  0
  149.2162  137.5613  158.4570 O   0  0  0  0  0  0  0  0  0  0  0  0
  148.9521  138.2857  157.3011 C   0  0  1  0  0  0  0  0  0  0  0  0
  150.2377  138.5483  156.5523 N   0  0  0  0  0  0  0  0  0  0  0  0
  151.4343  137.9765  156.9537 C   0  0  0  0  0  0  0  0  0  0  0  0
  152.5778  138.2043  156.2763 C   0  0  0  0  0  0  0  0  0  0  0  0
  153.7229  137.6312  156.6852 F   0  0  0  0  0  0  0  0  0  0  0  0
  152.5609  139.0710  155.0994 C   0  0  0  0  0  0  0  0  0  0  0  0
  153.6080  139.2778  154.4881 O   0  0  0  0  0  0  0  0  0  0  0  0
  151.3677  139.6187  154.7267 N   0  5  0  0  0  0  0  0  0  0  0  0
  150.2066  139.3877  155.4069 C   0  0  0  0  0  0  0  0  0  0  0  0
  149.1228  139.8699  155.0769 O   0  0  0  0  0  0  0  0  0  0  0  0
  147.9556  137.4449  156.4956 C   0  0  1  0  0  0  0  0  0  0  0  0
  148.8452  135.9834  155.4653 Br  0  0  0  0  0  0  0  0  0  0  0  0
  147.1161  136.8213  157.6042 C   0  0  2  0  0  0  0  0  0  0  0  0
  145.9523  137.6058  157.8398 O   0  0  0  0  0  0  0  0  0  0  0  0
  145.1352  137.3199  158.8705 C   0  0  0  0  0  0  0  0  0  0  0  0
  145.1627  136.2948  159.5516 O   0  0  0  0  0  0  0  0  0  0  0  0
  144.1057  138.4179  159.1278 C   0  0  0  0  0  0  0  0  0  0  0  0
  144.2000  138.9832  160.5516 C   0  0  0  0  0  0  0  0  0  0  0  0
  144.3677  135.0081  163.3942 H   0  0  0  0  0  0  0  0  0  0  0  0
  144.3741  135.4228  161.6837 H   0  0  0  0  0  0  0  0  0  0  0  0
  144.8068  136.6340  162.8905 H   0  0  0  0  0  0  0  0  0  0  0  0
  146.8585  135.2952  163.4958 H   0  0  0  0  0  0  0  0  0  0  0  0
  146.4146  134.0688  162.3267 H   0  0  0  0  0  0  0  0  0  0  0  0
  149.3476  135.5862  159.9638 H   0  0  0  0  0  0  0  0  0  0  0  0
  148.4724  134.7849  158.6647 H   0  0  0  0  0  0  0  0  0  0  0  0
  147.5475  137.4995  159.6199 H   0  0  0  0  0  0  0  0  0  0  0  0
  148.5579  139.2627  157.5884 H   0  0  0  0  0  0  0  0  0  0  0  0
  151.4661  137.3264  157.8152 H   0  0  0  0  0  0  0  0  0  0  0  0
  147.3935  138.0611  155.7929 H   0  0  0  0  0  0  0  0  0  0  0  0
  146.8390  135.7925  157.3685 H   0  0  0  0  0  0  0  0  0  0  0  0
  144.2514  139.2145  158.3982 H   0  0  0  0  0  0  0  0  0  0  0  0
  143.1084  138.0116  158.9573 H   0  0  0  0  0  0  0  0  0  0  0  0
  143.4232  139.7293  160.7199 H   0  0  0  0  0  0  0  0  0  0  0  0
  145.1623  139.4650  160.7282 H   0  0  0  0  0  0  0  0  0  0  0  0
  144.0726  138.1995  161.2991 H   0  0  0  0  0  0  0  0  0  0  0  0
  1  2  1  0  0  0  0
  1 27  1  0  0  0  0
  1 28  1  0  0  0  0
  1 29  1  0  0  0  0
  2  3  1  0  0  0  0
  2 30  1  0  0  0  0
  2 31  1  0  0  0  0
  3  4  2  0  0  0  0
  3  5  1  0  0  0  0
  5  6  1  0  0  0  0
  6  7  1  0  0  0  0
  6 32  1  0  0  0  0
  6 33  1  0  0  0  0
  7 21  1  0  0  0  0
  7  8  1  0  0  0  0
  7 34  1  0  0  0  0
  8  9  1  0  0  0  0
  9 10  1  0  0  0  0
  9 19  1  0  0  0  0
  9 35  1  0  0  0  0
 10 17  1  0  0  0  0
 10 11  1  0  0  0  0
 11 12  2  0  0  0  0
 11 36  1  0  0  0  0
 12 13  1  0  0  0  0
 12 14  1  0  0  0  0
 14 15  2  0  0  0  0
 14 16  1  0  0  0  0
 16 17  1  0  0  0  0
 17 18  2  0  0  0  0
 19 20  1  0  0  0  0
 19 21  1  0  0  0  0
 19 37  1  0  0  0  0
 21 22  1  0  0  0  0
 21 38  1  0  0  0  0
 22 23  1  0  0  0  0
 23 24  2  0  0  0  0
 23 25  1  0  0  0  0
 25 26  1  0  0  0  0
 25 39  1  0  0  0  0
 25 40  1  0  0  0  0
 26 41  1  0  0  0  0
 26 42  1  0  0  0  0
 26 43  1  0  0  0  0
M  CHG  1  16  -1
M  END
> <s_m_source_file>
AV-unprocessed.smi

> <i_m_source_file_index>
37

> <i_lp_mmshare_version>
43012

> <i_f3d_flags>
0

> <s_epik_input>
W0NIM11bQ0gyXUMoPU8pT1tDSDJdW0NAQEhdMU9bQ0BASF0objJbY0hdYyhGKWMoPU8pW25IXWMyPU8pW0NAQEhdKEJyKVtDQEhdMU9DKD1PKVtDSDJdW0NIM10=

> <s_epik_cmdline>
J2VwaWtfcHl0aG9uJywgJy1waCcsICc3LjAnLCAnLXRuJywgJzgnLCAnLW1hJywgJzIwMCcsICctbWV0YWxfYmluZGluZycsICctaW1hZScsICc8aW5maWxlLm1hZT4nLCAnLW9tYWUnLCAnPG91dGZpbGUubWFlPic=

> <r_epik_Ionization_Penalty>
1.08158

> <r_epik_Ionization_Penalty_Charging>
9.05154e-09

> <r_epik_Ionization_Penalty_Neutral>
1.08158

> <r_epik_State_Penalty>
1.13706

> <r_epik_Charging_Adjusted_Penalty>
1.13706

> <i_epik_Tot_Q>
-1

> <i_epik_Tot_abs_Q>
1

> <r_epik_Metal_State_Penalty>
0.00343535

> <b_epik_Metal_Only>
0

> <s_epik_Chemistry_Notes>
This compound has an ester and may undergo hydrolysis at high or low pH. This compound contains an acetal/aminal-like group ( X-CH(R)-Y where X, Y are N, S, or O) that may be acid/base labile, releasing an aldehyde.

> <s_lp_Force_Field>
OPLS_2005

> <r_lp_Energy>
31.9934

> <b_lp_Chiralities_Consistent>
1

> <s_lp_Variant>
AV-unprocessed.smi:37-26

> <Gold.Version>
5.8.1

> <Gold.Id.Protein>
6NUR|6NUR_protein|mol2

> <Gold.PLP.Fitness>
34.9107

> <Gold.PLP.PLP>
-25.1202

> <Gold.PLP.part.hbond>
-4.5391

> <Gold.PLP.part.metal>
0.0000

> <Gold.PLP.part.buried>
-4.8925

> <Gold.PLP.part.nonpolar>
-16.9944

> <Gold.PLP.part.repulsive>
0.1681

> <Gold.PLP.ligand.clash>
0.0000

> <Gold.PLP.ligand.torsion>
0.9585

> <Gold.PLP.Chemscore.Hbond>
3.8400

> <Gold.PLP.Chemscore.CHOScore>
0.0000

> <Gold.PLP.Chemscore.Metal>
0.0000

> <Gold.Chemscore.Hbonds>
donor molecule, donor type, donor heavy atom, donor atom, acceptor molecule, acceptor atom, score
      P1  H  6931  6943       L1     4  0.98
      P1  H  6934  6947       L1     4  0.79
      P1  H  7989  7998       L1    16  1.00
      P1  H  7997  8010       L1    15  1.00

> <Gold.PLP.Chemscore.Internal.Correction>
0.1875

> <Gold.Rescore>
     Score         DG    S(hbond)    S(metal)    S(lipo)     H(rot)  DE(clash)    DE(int)     intcor
      9.33     -13.13       3.54        0.00      35.77       3.27       0.04       3.77       ----

> <Gold.Chemscore.Fitness>
9.3262

> <Gold.Chemscore.DG>
-13.1302

> <Gold.Chemscore.ZeroCoef>
-5.4800

> <Gold.Chemscore.Hbond>
3.5415

> <Gold.Chemscore.Metal>
0.0000

> <Gold.Chemscore.Lipo>
35.7696

> <Gold.Chemscore.Internal_Hbond>
0.0000

> <Gold.Chemscore.DEClash>
0.0354

> <Gold.Chemscore.DEInternal>
3.7685

> <Gold.Chemscore.Rot>
3.2669

> <Gold.Chemscore.Internal.Correction>
   9.000000E+99

> <Gold.Chemscore.Hbonds>
donor molecule, donor type, donor heavy atom, donor atom, acceptor molecule, acceptor atom, score
      P1  H  6931  6943       L1     4  0.90
      P1  H  6934  6947       L1     4  0.74
      P1  H  7989  7998       L1    16  0.70
      P1  H  7997  8010       L1    15  0.73

> <Gold.Chemscore.Hbond.Weighted>
-11.8285

> <Gold.Chemscore.Metal.Weighted>
-0.0000

> <Gold.Chemscore.Lipo.Weighted>
-4.1850

> <Gold.Chemscore.Internal_Hbond.Weighted>
0.0000

> <Gold.Chemscore.DEClash.Weighted>
0.0354

> <Gold.Chemscore.DEInternal.Weighted>
3.7685

> <Gold.Chemscore.Rot.Weighted>
8.3634

> <Gold.Chemscore.Internal.Correction.Weighted>
   9.000000E+99

> <Gold.Protein.RotatedTorsions>
[ 6907 6896 6895 6894 ] final -161.35 input  -60.11 | X-H torsion
[ 7974 7965 7964 7962 ] final  -98.45 input  175.53 | X-H torsion
[ 8008 7997 7996 7995 ] final  133.12 input   59.86 | X-H torsion
[ 10167 10162 10161 10158 ] final    3.68 input  -65.29 | X-H torsion
[ 10718 10713 10712 10709 ] final  150.60 input   66.30 | X-H torsion
[ 10763 10752 10751 10750 ] final  -71.85 input  -60.55 | X-H torsion
[ 11005 11000 10999 10996 ] final  -58.70 input  -57.11 | X-H torsion

> <Gold.Protein.ActiveResidues>
 VAL166  LYS551  ARG553  GLY616  TRP617  ASP618  TYR619  PRO620  LYS621  CYS622 
 ASP623  PHE694  ASN695  SER759  ASP760  ASP761  ALA762  ILE779  LEU786  VAL792 
 PHE793  MET794  SER795  GLU796  ALA797  LYS798  CYS799  TRP800  GLU811  SER814 

> <Gold.Protein.RotatedAtoms>
  151.3634  133.3881  159.2691 H   0  0  0  0  0  0  0  0  0  0  0  0  # atno 6907 bound_to 6896
  150.9708  134.9082  159.7797 H   0  0  0  0  0  0  0  0  0  0  0  0  # atno 6908 bound_to 6896
  152.5184  134.3595  159.9332 H   0  0  0  0  0  0  0  0  0  0  0  0  # atno 6909 bound_to 6896
  145.3205  140.9420  143.2718 H   0  0  0  0  0  0  0  0  0  0  0  0  # atno 7974 bound_to 7965
  156.2989  140.2529  156.3200 H   0  0  0  0  0  0  0  0  0  0  0  0  # atno 8008 bound_to 7997
  154.9244  140.0400  157.2034 H   0  0  0  0  0  0  0  0  0  0  0  0  # atno 8009 bound_to 7997
  154.8279  140.2871  155.5746 H   0  0  0  0  0  0  0  0  0  0  0  0  # atno 8010 bound_to 7997
  140.6573  143.7394  150.7676 H   0  0  0  0  0  0  0  0  0  0  0  0  # atno 10167 bound_to 10162
  157.2814  131.0836  151.1529 H   0  0  0  0  0  0  0  0  0  0  0  0  # atno 10718 bound_to 10713
  154.4375  135.5949  153.6108 H   0  0  0  0  0  0  0  0  0  0  0  0  # atno 10763 bound_to 10752
  152.9803  135.5990  154.3763 H   0  0  0  0  0  0  0  0  0  0  0  0  # atno 10764 bound_to 10752
  154.3608  135.2841  155.2299 H   0  0  0  0  0  0  0  0  0  0  0  0  # atno 10765 bound_to 10752
  141.1218  133.6613  156.4960 H   0  0  0  0  0  0  0  0  0  0  0  0  # atno 11005 bound_to 11000
  144.8943  139.4733  143.6663 LP  0  0  0  0  0  0  0  0  0  0  0  0  # atno 17320 bound_to 7965
  146.3084  139.7660  142.9038 LP  0  0  0  0  0  0  0  0  0  0  0  0  # atno 17321 bound_to 7965
  140.1056  143.4747  152.2400 LP  0  0  0  0  0  0  0  0  0  0  0  0  # atno 17342 bound_to 10162
  139.5799  144.7505  151.3668 LP  0  0  0  0  0  0  0  0  0  0  0  0  # atno 17343 bound_to 10162
  157.2961  130.6820  149.6139 LP  0  0  0  0  0  0  0  0  0  0  0  0  # atno 17370 bound_to 10713
  155.9664  130.4406  150.5306 LP  0  0  0  0  0  0  0  0  0  0  0  0  # atno 17371 bound_to 10713
  140.4484  134.6951  157.5027 LP  0  0  0  0  0  0  0  0  0  0  0  0  # atno 17394 bound_to 11000
  140.0182  134.6587  155.9279 LP  0  0  0  0  0  0  0  0  0  0  0  0  # atno 17395 bound_to 11000

$$$$
