AV-unprocessed.smi:244|AV-procd|sdf|1866|dock10
  -GOLD-   2262020503D 1   1.00000     0.00000
 Structure written by MMmdl.
 57 61  0  0  0  0  0  0  0  0  2 V2000
  149.0571  142.4695  158.3256 C   0  0  0  0  0  0  0  0  0  0  0  0
  150.0949  143.4957  158.0716 N   0  3  1  0  0  0  0  0  0  0  0  0
  150.5734  144.1809  159.2981 C   0  0  0  0  0  0  0  0  0  0  0  0
  151.5543  143.3075  160.0958 C   0  0  0  0  0  0  0  0  0  0  0  0
  152.7427  142.8778  159.2131 C   0  0  1  0  0  0  0  0  0  0  0  0
  153.6880  142.0770  159.9233 O   0  0  0  0  0  0  0  0  0  0  0  0
  153.2393  140.7595  160.2272 C   0  0  0  0  0  0  0  0  0  0  0  0
  152.8521  140.0316  158.9342 C   0  0  0  0  0  0  0  0  0  0  0  0
  151.8589  140.7977  158.1907 N   0  0  0  0  0  0  0  0  0  0  0  0
  151.3783  140.0662  157.1578 C   0  0  0  0  0  0  0  0  0  0  0  0
  151.3908  140.5660  155.8936 N   0  0  0  0  0  0  0  0  0  0  0  0
  150.9153  139.8338  154.8815 C   0  0  0  0  0  0  0  0  0  0  0  0
  150.3930  138.6058  154.9134 N   0  0  0  0  0  0  0  0  0  0  0  0
  150.3886  138.0998  156.1799 C   0  0  0  0  0  0  0  0  0  0  0  0
  150.8664  138.7560  157.3476 C   0  0  0  0  0  0  0  0  0  0  0  0
  150.7066  137.9369  158.4571 N   0  0  0  0  0  0  0  0  0  0  0  0
  150.1588  136.8554  157.9731 C   0  0  0  0  0  0  0  0  0  0  0  0
  149.9195  136.8731  156.6168 N   0  0  0  0  0  0  0  0  0  0  0  0
  149.3122  135.8119  155.8275 C   0  0  0  0  0  0  0  0  0  0  0  0
  150.3364  134.9262  155.0661 C   0  0  0  0  0  0  0  0  0  0  0  0
  151.1828  135.7892  154.3283 O   0  0  0  0  0  0  0  0  0  0  0  0
  151.2349  134.0705  155.9851 C   0  0  0  0  0  0  0  0  0  0  0  0
  150.4544  132.8922  156.5943 C   0  0  0  0  0  0  0  0  0  0  0  0
  149.8893  132.0985  155.5567 O   0  0  0  0  0  0  0  0  0  0  0  0
  148.9492  132.8101  154.7592 C   0  0  0  0  0  0  0  0  0  0  0  0
  149.6423  133.9911  154.0559 C   0  0  0  0  0  0  0  0  0  0  0  0
  152.2790  142.1773  157.9131 C   0  0  1  0  0  0  0  0  0  0  0  0
  151.2059  143.0434  157.1912 C   0  0  0  0  0  0  0  0  0  0  0  0
  149.4194  141.6720  158.9726 H   0  0  0  0  0  0  0  0  0  0  0  0
  148.7178  142.0222  157.3907 H   0  0  0  0  0  0  0  0  0  0  0  0
  148.1904  142.9209  158.8086 H   0  0  0  0  0  0  0  0  0  0  0  0
  151.0684  145.1074  159.0042 H   0  0  0  0  0  0  0  0  0  0  0  0
  149.7249  144.4699  159.9194 H   0  0  0  0  0  0  0  0  0  0  0  0
  151.9202  143.8615  160.9604 H   0  0  0  0  0  0  0  0  0  0  0  0
  151.0222  142.4437  160.4913 H   0  0  0  0  0  0  0  0  0  0  0  0
  153.2757  143.7860  158.9286 H   0  0  0  0  0  0  0  0  0  0  0  0
  154.0472  140.2232  160.7252 H   0  0  0  0  0  0  0  0  0  0  0  0
  152.4065  140.7798  160.9295 H   0  0  0  0  0  0  0  0  0  0  0  0
  153.7368  139.8878  158.3119 H   0  0  0  0  0  0  0  0  0  0  0  0
  152.4658  139.0400  159.1752 H   0  0  0  0  0  0  0  0  0  0  0  0
  150.9576  140.2986  153.9074 H   0  0  0  0  0  0  0  0  0  0  0  0
  149.9034  136.0111  158.5973 H   0  0  0  0  0  0  0  0  0  0  0  0
  148.6958  135.2088  156.4935 H   0  0  0  0  0  0  0  0  0  0  0  0
  148.6211  136.2741  155.1210 H   0  0  0  0  0  0  0  0  0  0  0  0
  150.9812  135.6942  153.4099 H   0  0  0  0  0  0  0  0  0  0  0  0
  152.0639  133.6616  155.4055 H   0  0  0  0  0  0  0  0  0  0  0  0
  151.6910  134.6719  156.7712 H   0  0  0  0  0  0  0  0  0  0  0  0
  151.1254  132.2691  157.1854 H   0  0  0  0  0  0  0  0  0  0  0  0
  149.6705  133.2376  157.2686 H   0  0  0  0  0  0  0  0  0  0  0  0
  148.5355  132.1279  154.0163 H   0  0  0  0  0  0  0  0  0  0  0  0
  148.1136  133.1461  155.3736 H   0  0  0  0  0  0  0  0  0  0  0  0
  148.9239  134.5434  153.4488 H   0  0  0  0  0  0  0  0  0  0  0  0
  150.3809  133.5866  153.3619 H   0  0  0  0  0  0  0  0  0  0  0  0
  153.1468  142.1098  157.2551 H   0  0  0  0  0  0  0  0  0  0  0  0
  150.8028  142.5567  156.3034 H   0  0  0  0  0  0  0  0  0  0  0  0
  151.6969  143.9441  156.8211 H   0  0  0  0  0  0  0  0  0  0  0  0
  149.6134  144.2068  157.5398 H   0  0  0  0  0  0  0  0  0  0  0  0
  1  2  1  0  0  0  0
  1 29  1  0  0  0  0
  1 30  1  0  0  0  0
  1 31  1  0  0  0  0
  2 28  1  0  0  0  0
  2  3  1  0  0  0  0
  2 57  1  0  0  0  0
  3  4  1  0  0  0  0
  3 32  1  0  0  0  0
  3 33  1  0  0  0  0
  4  5  1  0  0  0  0
  4 34  1  0  0  0  0
  4 35  1  0  0  0  0
  5 27  1  0  0  0  0
  5  6  1  0  0  0  0
  5 36  1  0  0  0  0
  6  7  1  0  0  0  0
  7  8  1  0  0  0  0
  7 37  1  0  0  0  0
  7 38  1  0  0  0  0
  8  9  1  0  0  0  0
  8 39  1  0  0  0  0
  8 40  1  0  0  0  0
  9 10  1  0  0  0  0
  9 27  1  0  0  0  0
 10 15  1  0  0  0  0
 10 11  2  0  0  0  0
 11 12  1  0  0  0  0
 12 13  2  0  0  0  0
 12 41  1  0  0  0  0
 13 14  1  0  0  0  0
 14 18  1  0  0  0  0
 14 15  2  0  0  0  0
 15 16  1  0  0  0  0
 16 17  2  0  0  0  0
 17 18  1  0  0  0  0
 17 42  1  0  0  0  0
 18 19  1  0  0  0  0
 19 20  1  0  0  0  0
 19 43  1  0  0  0  0
 19 44  1  0  0  0  0
 20 26  1  0  0  0  0
 20 21  1  0  0  0  0
 20 22  1  0  0  0  0
 21 45  1  0  0  0  0
 22 23  1  0  0  0  0
 22 46  1  0  0  0  0
 22 47  1  0  0  0  0
 23 24  1  0  0  0  0
 23 48  1  0  0  0  0
 23 49  1  0  0  0  0
 24 25  1  0  0  0  0
 25 26  1  0  0  0  0
 25 50  1  0  0  0  0
 25 51  1  0  0  0  0
 26 52  1  0  0  0  0
 26 53  1  0  0  0  0
 27 28  1  0  0  0  0
 27 54  1  0  0  0  0
 28 55  1  0  0  0  0
 28 56  1  0  0  0  0
M  CHG  1   2   1
M  END
> <s_m_source_file>
AV-unprocessed.smi

> <i_m_source_file_index>
244

> <i_lp_mmshare_version>
43012

> <i_f3d_flags>
0

> <s_epik_input>
W0NIMl0xW0NIMl1OKFtDSDNdKVtDSDJdW0NAQEhdKFtDQEhdMTIpTihbQ0gyXVtDSDJdTzIpYyhuW2NIXW4zKWMoYzM0KW5bY0hdbjRbQ0gyXUM1KFtPSF0pW0NIMl1bQ0gyXU9bQ0gyXVtDSDJdNQ==

> <s_epik_cmdline>
J2VwaWtfcHl0aG9uJywgJy1waCcsICc3LjAnLCAnLXRuJywgJzgnLCAnLW1hJywgJzIwMCcsICctbWV0YWxfYmluZGluZycsICctaW1hZScsICc8aW5maWxlLm1hZT4nLCAnLW9tYWUnLCAnPG91dGZpbGUubWFlPic=

> <r_lp_tautomer_probability>
1

> <r_epik_Ionization_Penalty>
0.0136215

> <r_epik_Ionization_Penalty_Charging>
0.0131385

> <r_epik_Ionization_Penalty_Neutral>
0.000483022

> <r_epik_State_Penalty>
0.0104001

> <r_epik_Charging_Adjusted_Penalty>
0.0235387

> <i_epik_Tot_Q>
1

> <i_epik_Tot_abs_Q>
1

> <r_epik_Metal_State_Penalty>
0.0104469

> <b_epik_Metal_Only>
0

> <s_lp_Force_Field>
OPLS_2005

> <r_lp_Energy>
49.6468

> <b_lp_Chiralities_Consistent>
1

> <s_lp_Variant>
AV-unprocessed.smi:244-3

> <Gold.Version>
5.8.1

> <Gold.Id.Protein>
6NUR|6NUR_protein|mol2

> <Gold.PLP.Fitness>
44.9647

> <Gold.PLP.PLP>
-35.1993

> <Gold.PLP.part.hbond>
-3.5699

> <Gold.PLP.part.metal>
0.0000

> <Gold.PLP.part.buried>
-4.2309

> <Gold.PLP.part.nonpolar>
-26.5143

> <Gold.PLP.part.repulsive>
0.1578

> <Gold.PLP.ligand.clash>
0.0000

> <Gold.PLP.ligand.torsion>
0.4171

> <Gold.PLP.Chemscore.Hbond>
3.4828

> <Gold.PLP.Chemscore.CHOScore>
0.0000

> <Gold.PLP.Chemscore.Metal>
0.0000

> <Gold.Chemscore.Hbonds>
donor molecule, donor type, donor heavy atom, donor atom, acceptor molecule, acceptor atom, score
      L1  H     2    57       P1  8028  1.57
      L1  H    21    45       P1  7949  0.80
      P1  H 10752 10763       L1    21  1.00

> <Gold.PLP.Chemscore.Internal.Correction>
0.1514

> <Gold.Rescore>
     Score         DG    S(hbond)    S(metal)    S(lipo)     H(rot)  DE(clash)    DE(int)     intcor
      9.55     -15.95       1.27        0.00      99.12       2.09       4.07       2.33       ----

> <Gold.Chemscore.Fitness>
9.5536

> <Gold.Chemscore.DG>
-15.9506

> <Gold.Chemscore.ZeroCoef>
-5.4800

> <Gold.Chemscore.Hbond>
1.2656

> <Gold.Chemscore.Metal>
0.0000

> <Gold.Chemscore.Lipo>
99.1164

> <Gold.Chemscore.Internal_Hbond>
0.0000

> <Gold.Chemscore.DEClash>
4.0690

> <Gold.Chemscore.DEInternal>
2.3280

> <Gold.Chemscore.Rot>
2.0911

> <Gold.Chemscore.Internal.Correction>
   9.000000E+99

> <Gold.Chemscore.Hbonds>
donor molecule, donor type, donor heavy atom, donor atom, acceptor molecule, acceptor atom, score
      L1  H     2    57       P1  8028  0.14
      L1  H    21    45       P1  7949  0.12
      P1  H 10752 10763       L1    21  0.44

> <Gold.Chemscore.Hbond.Weighted>
-4.2271

> <Gold.Chemscore.Metal.Weighted>
-0.0000

> <Gold.Chemscore.Lipo.Weighted>
-11.5966

> <Gold.Chemscore.Internal_Hbond.Weighted>
0.0000

> <Gold.Chemscore.DEClash.Weighted>
4.0690

> <Gold.Chemscore.DEInternal.Weighted>
2.3280

> <Gold.Chemscore.Rot.Weighted>
5.3531

> <Gold.Chemscore.Internal.Correction.Weighted>
   9.000000E+99

> <Gold.Protein.RotatedTorsions>
[ 6907 6896 6895 6894 ] final  113.30 input  -60.11 | X-H torsion
[ 7974 7965 7964 7962 ] final  -22.85 input  175.53 | X-H torsion
[ 8008 7997 7996 7995 ] final  120.62 input   59.86 | X-H torsion
[ 10167 10162 10161 10158 ] final -149.34 input  -65.29 | X-H torsion
[ 10718 10713 10712 10709 ] final  126.28 input   66.30 | X-H torsion
[ 10763 10752 10751 10750 ] final   49.43 input  -60.55 | X-H torsion
[ 11005 11000 10999 10996 ] final   40.93 input  -57.11 | X-H torsion

> <Gold.Protein.ActiveResidues>
 VAL166  LYS551  ARG553  GLY616  TRP617  ASP618  TYR619  PRO620  LYS621  CYS622 
 ASP623  PHE694  ASN695  SER759  ASP760  ASP761  ALA762  ILE779  LEU786  VAL792 
 PHE793  MET794  SER795  GLU796  ALA797  LYS798  CYS799  TRP800  GLU811  SER814 

> <Gold.Protein.RotatedAtoms>
  152.4868  133.8394  159.7144 H   0  0  0  0  0  0  0  0  0  0  0  0  # atno 6907 bound_to 6896
  150.8962  133.7169  159.2898 H   0  0  0  0  0  0  0  0  0  0  0  0  # atno 6908 bound_to 6896
  151.4625  135.1043  159.9781 H   0  0  0  0  0  0  0  0  0  0  0  0  # atno 6909 bound_to 6896
  146.1651  140.4535  142.8555 H   0  0  0  0  0  0  0  0  0  0  0  0  # atno 7974 bound_to 7965
  156.2650  140.2827  156.1178 H   0  0  0  0  0  0  0  0  0  0  0  0  # atno 8008 bound_to 7997
  155.1188  140.0392  157.2762 H   0  0  0  0  0  0  0  0  0  0  0  0  # atno 8009 bound_to 7997
  154.6686  140.2583  155.7037 H   0  0  0  0  0  0  0  0  0  0  0  0  # atno 8010 bound_to 7997
  139.7451  143.8602  152.2572 H   0  0  0  0  0  0  0  0  0  0  0  0  # atno 10167 bound_to 10162
  157.5432  131.1096  150.8824 H   0  0  0  0  0  0  0  0  0  0  0  0  # atno 10718 bound_to 10713
  152.9787  135.5912  154.4088 H   0  0  0  0  0  0  0  0  0  0  0  0  # atno 10763 bound_to 10752
  154.3726  135.2767  155.2259 H   0  0  0  0  0  0  0  0  0  0  0  0  # atno 10764 bound_to 10752
  154.4208  135.6059  153.6063 H   0  0  0  0  0  0  0  0  0  0  0  0  # atno 10765 bound_to 10752
  140.1883  134.4019  155.8161 H   0  0  0  0  0  0  0  0  0  0  0  0  # atno 11005 bound_to 11000
  144.8081  140.6337  143.6433 LP  0  0  0  0  0  0  0  0  0  0  0  0  # atno 17320 bound_to 7965
  145.4487  139.1526  143.3930 LP  0  0  0  0  0  0  0  0  0  0  0  0  # atno 17321 bound_to 7965
  139.8564  144.7139  150.9152 LP  0  0  0  0  0  0  0  0  0  0  0  0  # atno 17342 bound_to 10162
  140.7791  143.3855  151.1402 LP  0  0  0  0  0  0  0  0  0  0  0  0  # atno 17343 bound_to 10162
  156.9371  130.5371  149.5279 LP  0  0  0  0  0  0  0  0  0  0  0  0  # atno 17370 bound_to 10713
  156.0514  130.5583  150.8997 LP  0  0  0  0  0  0  0  0  0  0  0  0  # atno 17371 bound_to 10713
  141.2225  133.7034  156.8050 LP  0  0  0  0  0  0  0  0  0  0  0  0  # atno 17394 bound_to 11000
  140.2189  134.8772  157.3355 LP  0  0  0  0  0  0  0  0  0  0  0  0  # atno 17395 bound_to 11000

$$$$
