AV-unprocessed.smi:2021|AV-procd|sdf|8176|dock9
  -GOLD-   2272010423D 1   1.00000     0.00000
 Structure written by MMmdl.
 42 43  0  0  0  0  0  0  0  0  2 V2000
  145.3927  131.8937  151.1288 C   0  0  0  0  0  0  0  0  0  0  0  0
  144.4869  133.0861  150.7869 C   0  0  0  0  0  0  0  0  0  0  0  0
  144.0429  133.0184  149.3160 C   0  0  0  0  0  0  0  0  0  0  0  0
  145.1976  134.4179  151.1130 C   0  0  0  0  0  0  0  0  0  0  0  0
  145.1673  134.7563  152.5625 N   0  3  2  0  0  0  0  0  0  0  0  0
  143.7968  134.9251  153.1038 C   0  0  0  0  0  0  0  0  0  0  0  0
  143.2139  136.2971  152.7210 C   0  0  0  0  0  0  0  0  0  0  0  0
  144.0813  137.3235  153.1862 O   0  0  0  0  0  0  0  0  0  0  0  0
  145.3734  137.2573  152.5901 C   0  0  1  0  0  0  0  0  0  0  0  0
  146.2042  138.4479  153.1024 C   0  0  0  0  0  0  0  0  0  0  0  0
  147.6332  138.1513  153.1188 N   0  0  0  0  0  0  0  0  0  0  0  0
  148.4998  138.6064  154.0351 C   0  0  0  0  0  0  0  0  0  0  0  0
  148.1705  139.3344  154.9719 O   0  0  0  0  0  0  0  0  0  0  0  0
  149.7462  138.1638  153.7931 N   0  0  0  0  0  0  0  0  0  0  0  0
  150.9249  138.3991  154.5500 C   0  0  0  0  0  0  0  0  0  0  0  0
  151.6167  139.5486  154.5114 N   0  0  0  0  0  0  0  0  0  0  0  0
  152.7231  139.5180  155.3504 N   0  0  0  0  0  0  0  0  0  0  0  0
  152.8219  138.3483  155.9887 C   0  0  0  0  0  0  0  0  0  0  0  0
  151.5724  137.1700  155.6274 S   0  0  0  0  0  0  0  0  0  0  0  0
  146.0240  135.9050  152.9566 C   0  0  0  0  0  0  0  0  0  0  0  0
  146.3082  131.9068  150.5362 H   0  0  0  0  0  0  0  0  0  0  0  0
  144.8866  130.9469  150.9381 H   0  0  0  0  0  0  0  0  0  0  0  0
  145.6774  131.9052  152.1815 H   0  0  0  0  0  0  0  0  0  0  0  0
  143.5982  132.9902  151.4097 H   0  0  0  0  0  0  0  0  0  0  0  0
  144.8952  133.0983  148.6403 H   0  0  0  0  0  0  0  0  0  0  0  0
  143.3467  133.8205  149.0709 H   0  0  0  0  0  0  0  0  0  0  0  0
  143.5380  132.0759  149.1019 H   0  0  0  0  0  0  0  0  0  0  0  0
  146.2270  134.3963  150.7556 H   0  0  0  0  0  0  0  0  0  0  0  0
  144.7044  135.2095  150.5474 H   0  0  0  0  0  0  0  0  0  0  0  0
  143.1452  134.1170  152.7691 H   0  0  0  0  0  0  0  0  0  0  0  0
  143.8455  134.8465  154.1905 H   0  0  0  0  0  0  0  0  0  0  0  0
  143.0690  136.3819  151.6429 H   0  0  0  0  0  0  0  0  0  0  0  0
  142.2358  136.4297  153.1832 H   0  0  0  0  0  0  0  0  0  0  0  0
  145.2751  137.3352  151.5068 H   0  0  0  0  0  0  0  0  0  0  0  0
  146.0404  139.3198  152.4686 H   0  0  0  0  0  0  0  0  0  0  0  0
  145.8823  138.7302  154.1063 H   0  0  0  0  0  0  0  0  0  0  0  0
  147.9843  137.5583  152.3809 H   0  0  0  0  0  0  0  0  0  0  0  0
  149.8662  137.5837  152.9758 H   0  0  0  0  0  0  0  0  0  0  0  0
  153.6359  138.1789  156.6781 H   0  0  0  0  0  0  0  0  0  0  0  0
  146.1713  135.8571  154.0364 H   0  0  0  0  0  0  0  0  0  0  0  0
  147.0159  135.8248  152.5146 H   0  0  0  0  0  0  0  0  0  0  0  0
  145.5459  133.9423  153.0258 H   0  0  0  0  0  0  0  0  0  0  0  0
  1  2  1  0  0  0  0
  1 21  1  0  0  0  0
  1 22  1  0  0  0  0
  1 23  1  0  0  0  0
  2  3  1  0  0  0  0
  2  4  1  0  0  0  0
  2 24  1  0  0  0  0
  3 25  1  0  0  0  0
  3 26  1  0  0  0  0
  3 27  1  0  0  0  0
  4  5  1  0  0  0  0
  4 28  1  0  0  0  0
  4 29  1  0  0  0  0
  5 20  1  0  0  0  0
  5  6  1  0  0  0  0
  5 42  1  0  0  0  0
  6  7  1  0  0  0  0
  6 30  1  0  0  0  0
  6 31  1  0  0  0  0
  7  8  1  0  0  0  0
  7 32  1  0  0  0  0
  7 33  1  0  0  0  0
  8  9  1  0  0  0  0
  9 10  1  0  0  0  0
  9 20  1  0  0  0  0
  9 34  1  0  0  0  0
 10 11  1  0  0  0  0
 10 35  1  0  0  0  0
 10 36  1  0  0  0  0
 11 12  1  0  0  0  0
 11 37  1  0  0  0  0
 12 13  2  0  0  0  0
 12 14  1  0  0  0  0
 14 15  1  0  0  0  0
 14 38  1  0  0  0  0
 15 19  1  0  0  0  0
 15 16  2  0  0  0  0
 16 17  1  0  0  0  0
 17 18  2  0  0  0  0
 18 19  1  0  0  0  0
 18 39  1  0  0  0  0
 20 40  1  0  0  0  0
 20 41  1  0  0  0  0
M  CHG  1   5   1
M  END
> <s_m_source_file>
AV-unprocessed.smi

> <i_m_source_file_index>
2021

> <i_lp_mmshare_version>
43012

> <i_f3d_flags>
0

> <s_epik_input>
W0NIM11bQ0hdKFtDSDNdKVtDSDJdTjFbQ0gyXVtDSDJdT1tDQEhdKFtDSDJdMSlbQ0gyXVtOSF1DKD1PKVtOSF1jMm5uW2NIXXMy

> <s_epik_cmdline>
J2VwaWtfcHl0aG9uJywgJy1waCcsICc3LjAnLCAnLXRuJywgJzgnLCAnLW1hJywgJzIwMCcsICctbWV0YWxfYmluZGluZycsICctaW1hZScsICc8aW5maWxlLm1hZT4nLCAnLW9tYWUnLCAnPG91dGZpbGUubWFlPic=

> <r_lp_tautomer_probability>
1

> <r_epik_Ionization_Penalty>
0.102019

> <r_epik_Ionization_Penalty_Charging>
0.098413

> <r_epik_Ionization_Penalty_Neutral>
0.00360555

> <r_epik_State_Penalty>
0.0884988

> <r_epik_Charging_Adjusted_Penalty>
0.186912

> <i_epik_Tot_Q>
1

> <i_epik_Tot_abs_Q>
1

> <r_epik_Metal_State_Penalty>
0.454709

> <b_epik_Metal_Only>
0

> <s_lp_Force_Field>
OPLS_2005

> <r_lp_Energy>
18.1157

> <b_lp_Chiralities_Consistent>
1

> <s_lp_Variant>
AV-unprocessed.smi:2021-2

> <Gold.Version>
5.8.1

> <Gold.Id.Protein>
6NUR|6NUR_protein|mol2

> <Gold.PLP.Fitness>
39.4472

> <Gold.PLP.PLP>
-30.5372

> <Gold.PLP.part.hbond>
-4.1433

> <Gold.PLP.part.metal>
0.0000

> <Gold.PLP.part.buried>
-5.3344

> <Gold.PLP.part.nonpolar>
-21.9424

> <Gold.PLP.part.repulsive>
0.3963

> <Gold.PLP.ligand.clash>
0.0000

> <Gold.PLP.ligand.torsion>
1.4552

> <Gold.PLP.Chemscore.Hbond>
3.9120

> <Gold.PLP.Chemscore.CHOScore>
0.0000

> <Gold.PLP.Chemscore.Metal>
0.0000

> <Gold.Chemscore.Hbonds>
donor molecule, donor type, donor heavy atom, donor atom, acceptor molecule, acceptor atom, score
      L1  H    11    37       P1  7948  1.00
      L1  H    14    38       P1  7948  0.90
      P1  H  7989  7998       L1    16  1.00
      P1  H  7997  8008       L1    17  0.90

> <Gold.PLP.Chemscore.Internal.Correction>
0.0844

> <Gold.Rescore>
     Score         DG    S(hbond)    S(metal)    S(lipo)     H(rot)  DE(clash)    DE(int)     intcor
     16.42     -17.97       3.00        0.00      62.32       1.88       0.07       1.48       ----

> <Gold.Chemscore.Fitness>
16.4231

> <Gold.Chemscore.DG>
-17.9729

> <Gold.Chemscore.ZeroCoef>
-5.4800

> <Gold.Chemscore.Hbond>
2.9992

> <Gold.Chemscore.Metal>
0.0000

> <Gold.Chemscore.Lipo>
62.3216

> <Gold.Chemscore.Internal_Hbond>
0.0000

> <Gold.Chemscore.DEClash>
0.0651

> <Gold.Chemscore.DEInternal>
1.4847

> <Gold.Chemscore.Rot>
1.8812

> <Gold.Chemscore.Internal.Correction>
   9.000000E+99

> <Gold.Chemscore.Hbonds>
donor molecule, donor type, donor heavy atom, donor atom, acceptor molecule, acceptor atom, score
      L1  H    11    37       P1  7948  0.95
      L1  H    14    38       P1  7948  0.30
      P1  H  7989  7998       L1    16  0.81
      P1  H  7997  8008       L1    17  0.17

> <Gold.Chemscore.Hbond.Weighted>
-10.0172

> <Gold.Chemscore.Metal.Weighted>
-0.0000

> <Gold.Chemscore.Lipo.Weighted>
-7.2916

> <Gold.Chemscore.Internal_Hbond.Weighted>
0.0000

> <Gold.Chemscore.DEClash.Weighted>
0.0651

> <Gold.Chemscore.DEInternal.Weighted>
1.4847

> <Gold.Chemscore.Rot.Weighted>
4.8159

> <Gold.Chemscore.Internal.Correction.Weighted>
   9.000000E+99

> <Gold.Protein.RotatedTorsions>
[ 6907 6896 6895 6894 ] final  106.88 input  -60.11 | X-H torsion
[ 7974 7965 7964 7962 ] final   35.79 input  175.53 | X-H torsion
[ 8008 7997 7996 7995 ] final   -7.93 input   59.86 | X-H torsion
[ 10167 10162 10161 10158 ] final -146.53 input  -65.29 | X-H torsion
[ 10718 10713 10712 10709 ] final -176.72 input   66.30 | X-H torsion
[ 10763 10752 10751 10750 ] final   35.05 input  -60.55 | X-H torsion
[ 11005 11000 10999 10996 ] final  -60.82 input  -57.11 | X-H torsion

> <Gold.Protein.ActiveResidues>
 VAL166  LYS551  ARG553  GLY616  TRP617  ASP618  TYR619  PRO620  LYS621  CYS622 
 ASP623  PHE694  ASN695  SER759  ASP760  ASP761  ALA762  ILE779  LEU786  VAL792 
 PHE793  MET794  SER795  GLU796  ALA797  LYS798  CYS799  TRP800  GLU811  SER814 

> <Gold.Protein.RotatedAtoms>
  152.5177  133.9317  159.7583 H   0  0  0  0  0  0  0  0  0  0  0  0  # atno 6907 bound_to 6896
  150.9666  133.6380  159.2752 H   0  0  0  0  0  0  0  0  0  0  0  0  # atno 6908 bound_to 6896
  151.3606  135.0909  159.9486 H   0  0  0  0  0  0  0  0  0  0  0  0  # atno 6909 bound_to 6896
  146.1258  139.6099  142.9259 H   0  0  0  0  0  0  0  0  0  0  0  0  # atno 7974 bound_to 7965
  154.5790  140.2394  155.8081 H   0  0  0  0  0  0  0  0  0  0  0  0  # atno 8008 bound_to 7997
  156.2165  140.3010  155.9808 H   0  0  0  0  0  0  0  0  0  0  0  0  # atno 8009 bound_to 7997
  155.2575  140.0413  157.2984 H   0  0  0  0  0  0  0  0  0  0  0  0  # atno 8010 bound_to 7997
  139.7705  143.8245  152.2623 H   0  0  0  0  0  0  0  0  0  0  0  0  # atno 10167 bound_to 10162
  156.8188  130.9612  151.3112 H   0  0  0  0  0  0  0  0  0  0  0  0  # atno 10718 bound_to 10713
  153.0136  135.6344  154.1765 H   0  0  0  0  0  0  0  0  0  0  0  0  # atno 10763 bound_to 10752
  154.1506  135.2829  155.3138 H   0  0  0  0  0  0  0  0  0  0  0  0  # atno 10764 bound_to 10752
  154.6056  135.5573  153.7480 H   0  0  0  0  0  0  0  0  0  0  0  0  # atno 10765 bound_to 10752
  141.1301  133.6625  156.5282 H   0  0  0  0  0  0  0  0  0  0  0  0  # atno 11005 bound_to 11000
  145.5368  141.0423  143.2352 LP  0  0  0  0  0  0  0  0  0  0  0  0  # atno 17320 bound_to 7965
  144.7641  139.6887  143.7222 LP  0  0  0  0  0  0  0  0  0  0  0  0  # atno 17321 bound_to 7965
  139.8278  144.7267  150.9489 LP  0  0  0  0  0  0  0  0  0  0  0  0  # atno 17342 bound_to 10162
  140.7813  143.4098  151.1011 LP  0  0  0  0  0  0  0  0  0  0  0  0  # atno 17343 bound_to 10162
  157.6467  130.8850  149.9553 LP  0  0  0  0  0  0  0  0  0  0  0  0  # atno 17370 bound_to 10713
  156.1001  130.3656  150.0234 LP  0  0  0  0  0  0  0  0  0  0  0  0  # atno 17371 bound_to 10713
  140.4237  134.7164  157.4904 LP  0  0  0  0  0  0  0  0  0  0  0  0  # atno 17394 bound_to 11000
  140.0342  134.6362  155.9066 LP  0  0  0  0  0  0  0  0  0  0  0  0  # atno 17395 bound_to 11000

$$$$
