AV-unprocessed.smi:2893|AV-procd|sdf|11124|dock10
  -GOLD-   2272015593D 1   1.00000     0.00000
 Structure written by MMmdl.
 37 39  0  0  0  0  0  0  0  0  1 V2000
  156.4377  140.1724  167.0675 C   0  0  0  0  0  0  0  0  0  0  0  0
  156.6892  139.3162  165.8190 C   0  0  0  0  0  0  0  0  0  0  0  0
  156.0008  139.8524  164.6509 N   0  0  0  0  0  0  0  0  0  0  0  0
  155.9087  139.2433  163.4559 C   0  0  0  0  0  0  0  0  0  0  0  0
  156.3973  138.1366  163.2236 O   0  0  0  0  0  0  0  0  0  0  0  0
  155.1223  139.9774  162.4026 C   0  0  0  0  0  0  0  0  0  0  0  0
  154.7426  139.3177  161.2134 C   0  0  0  0  0  0  0  0  0  0  0  0
  154.0221  140.0523  160.2562 C   0  0  0  0  0  0  0  0  0  0  0  0
  153.7309  141.3987  160.5466 C   0  0  0  0  0  0  0  0  0  0  0  0
  153.0109  142.1531  159.6097 N   0  0  0  0  0  0  0  0  0  0  0  0
  152.9575  143.6099  159.6884 C   0  0  2  0  0  0  0  0  0  0  0  0
  152.1572  144.1159  160.8911 C   0  0  0  0  0  0  0  0  0  0  0  0
  151.1547  145.0691  160.2250 C   0  0  2  0  0  0  0  0  0  0  0  0
  150.0468  144.3002  159.4938 C   0  0  0  0  0  0  0  0  0  0  0  0
  150.7980  143.7524  158.2821 C   0  0  0  0  0  0  0  0  0  0  0  0
  152.2196  144.2903  158.5178 C   0  0  1  0  0  0  0  0  0  0  0  0
  151.9145  145.5357  159.1226 O   0  0  0  0  0  0  0  0  0  0  0  0
  154.1231  141.9788  161.7071 N   0  0  0  0  0  0  0  0  0  0  0  0
  154.8109  141.2810  162.6170 N   0  0  0  0  0  0  0  0  0  0  0  0
  156.9886  139.7805  167.9227 H   0  0  0  0  0  0  0  0  0  0  0  0
  155.3805  140.1867  167.3347 H   0  0  0  0  0  0  0  0  0  0  0  0
  156.7580  141.2026  166.9101 H   0  0  0  0  0  0  0  0  0  0  0  0
  157.7570  139.2901  165.6011 H   0  0  0  0  0  0  0  0  0  0  0  0
  156.3829  138.2841  165.9973 H   0  0  0  0  0  0  0  0  0  0  0  0
  155.5612  140.7563  164.7517 H   0  0  0  0  0  0  0  0  0  0  0  0
  154.9901  138.2813  161.0344 H   0  0  0  0  0  0  0  0  0  0  0  0
  153.7057  139.5947  159.3303 H   0  0  0  0  0  0  0  0  0  0  0  0
  152.6643  141.7038  158.7746 H   0  0  0  0  0  0  0  0  0  0  0  0
  153.9722  144.0047  159.7576 H   0  0  0  0  0  0  0  0  0  0  0  0
  151.6561  143.3252  161.4514 H   0  0  0  0  0  0  0  0  0  0  0  0
  152.8098  144.6552  161.5784 H   0  0  0  0  0  0  0  0  0  0  0  0
  150.7862  145.8555  160.8842 H   0  0  0  0  0  0  0  0  0  0  0  0
  149.6070  143.5161  160.1109 H   0  0  0  0  0  0  0  0  0  0  0  0
  149.2502  144.9742  159.1766 H   0  0  0  0  0  0  0  0  0  0  0  0
  150.7570  142.6655  158.2109 H   0  0  0  0  0  0  0  0  0  0  0  0
  150.3818  144.1646  157.3623 H   0  0  0  0  0  0  0  0  0  0  0  0
  152.8142  144.3751  157.6079 H   0  0  0  0  0  0  0  0  0  0  0  0
  1  2  1  0  0  0  0
  1 20  1  0  0  0  0
  1 21  1  0  0  0  0
  1 22  1  0  0  0  0
  2  3  1  0  0  0  0
  2 23  1  0  0  0  0
  2 24  1  0  0  0  0
  3  4  1  0  0  0  0
  3 25  1  0  0  0  0
  4  5  2  0  0  0  0
  4  6  1  0  0  0  0
  6 19  1  0  0  0  0
  6  7  2  0  0  0  0
  7  8  1  0  0  0  0
  7 26  1  0  0  0  0
  8  9  2  0  0  0  0
  8 27  1  0  0  0  0
  9 10  1  0  0  0  0
  9 18  1  0  0  0  0
 10 11  1  0  0  0  0
 10 28  1  0  0  0  0
 11 16  1  0  0  0  0
 11 12  1  0  0  0  0
 11 29  1  0  0  0  0
 12 13  1  0  0  0  0
 12 30  1  0  0  0  0
 12 31  1  0  0  0  0
 13 17  1  0  0  0  0
 13 14  1  0  0  0  0
 13 32  1  0  0  0  0
 14 15  1  0  0  0  0
 14 33  1  0  0  0  0
 14 34  1  0  0  0  0
 15 16  1  0  0  0  0
 15 35  1  0  0  0  0
 15 36  1  0  0  0  0
 16 17  1  0  0  0  0
 16 37  1  0  0  0  0
 18 19  2  0  0  0  0
M  END
> <s_m_source_file>
AV-unprocessed.smi

> <i_m_source_file_index>
2893

> <i_lp_mmshare_version>
43012

> <i_f3d_flags>
0

> <s_epik_input>
W0NIM11bQ0gyXVtOSF1DKD1PKWMxW2NIXVtjSF1jKG5uMSlbTkhdW0NASF0oW0NIMl1bQ0BASF0yMylbQ0BASF0oTzMpW0NIMl1bQ0gyXTI=

> <s_epik_cmdline>
J2VwaWtfcHl0aG9uJywgJy1waCcsICc3LjAnLCAnLXRuJywgJzgnLCAnLW1hJywgJzIwMCcsICctbWV0YWxfYmluZGluZycsICctaW1hZScsICc8aW5maWxlLm1hZT4nLCAnLW9tYWUnLCAnPG91dGZpbGUubWFlPic=

> <r_lp_tautomer_probability>
1

> <r_epik_Ionization_Penalty>
0.00432031

> <r_epik_Ionization_Penalty_Charging>
0

> <r_epik_Ionization_Penalty_Neutral>
0.00432031

> <r_epik_State_Penalty>
-0

> <r_epik_Charging_Adjusted_Penalty>
0

> <i_epik_Tot_Q>
0

> <i_epik_Tot_abs_Q>
0

> <r_epik_Metal_State_Penalty>
-0

> <b_epik_Metal_Only>
0

> <s_lp_Force_Field>
OPLS_2005

> <r_lp_Energy>
51.9869

> <b_lp_Chiralities_Consistent>
1

> <s_lp_Variant>
AV-unprocessed.smi:2893-3

> <Gold.Version>
5.8.1

> <Gold.Id.Protein>
6NUR|6NUR_protein|mol2

> <Gold.PLP.Fitness>
39.5576

> <Gold.PLP.PLP>
-39.9349

> <Gold.PLP.part.hbond>
-2.7706

> <Gold.PLP.part.metal>
0.0000

> <Gold.PLP.part.buried>
-5.0961

> <Gold.PLP.part.nonpolar>
-32.2679

> <Gold.PLP.part.repulsive>
0.1808

> <Gold.PLP.ligand.clash>
0.0000

> <Gold.PLP.ligand.torsion>
0.1983

> <Gold.PLP.Chemscore.Hbond>
0.0000

> <Gold.PLP.Chemscore.CHOScore>
0.0000

> <Gold.PLP.Chemscore.Metal>
0.0000

> <Gold.PLP.Chemscore.Internal.Correction>
0.0193

> <Gold.Rescore>
     Score         DG    S(hbond)    S(metal)    S(lipo)     H(rot)  DE(clash)    DE(int)     intcor
     11.95     -13.54       0.00        0.00      95.26       1.21       0.16       1.43       ----

> <Gold.Chemscore.Fitness>
11.9511

> <Gold.Chemscore.DG>
-13.5374

> <Gold.Chemscore.ZeroCoef>
-5.4800

> <Gold.Chemscore.Hbond>
0.0000

> <Gold.Chemscore.Metal>
0.0000

> <Gold.Chemscore.Lipo>
95.2570

> <Gold.Chemscore.Internal_Hbond>
0.0000

> <Gold.Chemscore.DEClash>
0.1582

> <Gold.Chemscore.DEInternal>
1.4281

> <Gold.Chemscore.Rot>
1.2061

> <Gold.Chemscore.Internal.Correction>
   9.000000E+99

> <Gold.Chemscore.Hbond.Weighted>
-0.0000

> <Gold.Chemscore.Metal.Weighted>
-0.0000

> <Gold.Chemscore.Lipo.Weighted>
-11.1451

> <Gold.Chemscore.Internal_Hbond.Weighted>
0.0000

> <Gold.Chemscore.DEClash.Weighted>
0.1582

> <Gold.Chemscore.DEInternal.Weighted>
1.4281

> <Gold.Chemscore.Rot.Weighted>
3.0876

> <Gold.Chemscore.Internal.Correction.Weighted>
   9.000000E+99

> <Gold.Protein.RotatedTorsions>
[ 6907 6896 6895 6894 ] final  152.30 input  -60.11 | X-H torsion
[ 7974 7965 7964 7962 ] final   53.58 input  175.53 | X-H torsion
[ 8008 7997 7996 7995 ] final   12.02 input   59.86 | X-H torsion
[ 10167 10162 10161 10158 ] final  172.23 input  -65.29 | X-H torsion
[ 10718 10713 10712 10709 ] final -136.61 input   66.30 | X-H torsion
[ 10763 10752 10751 10750 ] final   69.10 input  -60.55 | X-H torsion
[ 11005 11000 10999 10996 ] final  106.02 input  -57.11 | X-H torsion

> <Gold.Protein.ActiveResidues>
 VAL166  LYS551  ARG553  GLY616  TRP617  ASP618  TYR619  PRO620  LYS621  CYS622 
 ASP623  PHE694  ASN695  SER759  ASP760  ASP761  ALA762  ILE779  LEU786  VAL792 
 PHE793  MET794  SER795  GLU796  ALA797  LYS798  CYS799  TRP800  GLU811  SER814 

> <Gold.Protein.RotatedAtoms>
  152.0886  133.4189  159.4533 H   0  0  0  0  0  0  0  0  0  0  0  0  # atno 6907 bound_to 6896
  150.6862  134.2898  159.4671 H   0  0  0  0  0  0  0  0  0  0  0  0  # atno 6908 bound_to 6896
  152.0747  134.9510  160.0625 H   0  0  0  0  0  0  0  0  0  0  0  0  # atno 6909 bound_to 6896
  145.9697  139.4137  143.0197 H   0  0  0  0  0  0  0  0  0  0  0  0  # atno 7974 bound_to 7965
  154.8149  140.2874  155.5827 H   0  0  0  0  0  0  0  0  0  0  0  0  # atno 8008 bound_to 7997
  156.2992  140.2561  156.2974 H   0  0  0  0  0  0  0  0  0  0  0  0  # atno 8009 bound_to 7997
  154.9405  140.0381  157.2084 H   0  0  0  0  0  0  0  0  0  0  0  0  # atno 8010 bound_to 7997
  139.5070  144.3397  152.0030 H   0  0  0  0  0  0  0  0  0  0  0  0  # atno 10167 bound_to 10162
  156.2789  130.7309  151.1300 H   0  0  0  0  0  0  0  0  0  0  0  0  # atno 10718 bound_to 10713
  153.0269  135.5223  154.7236 H   0  0  0  0  0  0  0  0  0  0  0  0  # atno 10763 bound_to 10752
  154.6284  135.2897  155.0247 H   0  0  0  0  0  0  0  0  0  0  0  0  # atno 10764 bound_to 10752
  154.1208  135.6608  153.4955 H   0  0  0  0  0  0  0  0  0  0  0  0  # atno 10765 bound_to 10752
  139.8809  134.9355  156.5602 H   0  0  0  0  0  0  0  0  0  0  0  0  # atno 11005 bound_to 11000
  145.7923  140.9808  143.1042 LP  0  0  0  0  0  0  0  0  0  0  0  0  # atno 17320 bound_to 7965
  144.6834  139.9698  143.7482 LP  0  0  0  0  0  0  0  0  0  0  0  0  # atno 17321 bound_to 7965
  140.2835  144.3833  150.6111 LP  0  0  0  0  0  0  0  0  0  0  0  0  # atno 17342 bound_to 10162
  140.6000  143.2167  151.7090 LP  0  0  0  0  0  0  0  0  0  0  0  0  # atno 17343 bound_to 10162
  157.7308  131.0613  150.5708 LP  0  0  0  0  0  0  0  0  0  0  0  0  # atno 17370 bound_to 10713
  156.5812  130.4305  149.5976 LP  0  0  0  0  0  0  0  0  0  0  0  0  # atno 17371 bound_to 10713
  140.8175  133.8380  155.8865 LP  0  0  0  0  0  0  0  0  0  0  0  0  # atno 17394 bound_to 11000
  140.9449  134.1853  157.4770 LP  0  0  0  0  0  0  0  0  0  0  0  0  # atno 17395 bound_to 11000

$$$$
