AV-unprocessed.smi:1576|AV-procd|sdf|6343|dock5
  -GOLD-   22720 6563D 1   1.00000     0.00000
 Structure written by MMmdl.
 45 47  0  0  0  0  0  0  0  0  1 V2000
  146.5706  139.6761  153.3859 O   0  0  0  0  0  0  0  0  0  0  0  0
  147.3422  138.7870  153.0276 C   0  0  0  0  0  0  0  0  0  0  0  0
  148.5962  138.6150  153.4791 N   0  0  0  0  0  0  0  0  0  0  0  0
  149.3342  139.4321  154.3776 C   0  0  0  0  0  0  0  0  0  0  0  0
  149.0139  140.8019  154.4411 C   0  0  0  0  0  0  0  0  0  0  0  0
  149.7109  141.6317  155.3392 C   0  0  0  0  0  0  0  0  0  0  0  0
  150.7120  141.0677  156.1639 C   0  0  0  0  0  0  0  0  0  0  0  0
  151.4218  141.8814  157.0732 N   0  0  0  0  0  0  0  0  0  0  0  0
  151.1183  143.3150  157.0829 C   0  0  0  0  0  0  0  0  0  0  0  0
  152.2084  144.1093  157.8223 C   0  0  0  0  0  0  0  0  0  0  0  0
  152.4406  143.5460  159.2319 C   0  0  0  0  0  0  0  0  0  0  0  0
  152.7600  142.0456  159.1520 C   0  0  0  0  0  0  0  0  0  0  0  0
  151.6619  141.2851  158.3889 C   0  0  0  0  0  0  0  0  0  0  0  0
  151.0090  139.7460  156.1149 N   0  0  0  0  0  0  0  0  0  0  0  0
  150.3407  138.9540  155.2499 C   0  0  0  0  0  0  0  0  0  0  0  0
  147.0143  137.8396  152.1378 N   0  0  0  0  0  0  0  0  0  0  0  0
  145.7252  137.7309  151.4576 C   0  0  2  0  0  0  0  0  0  0  0  0
  144.6046  137.3883  152.4623 C   0  0  0  0  0  0  0  0  0  0  0  0
  144.6568  135.8890  152.7835 C   0  0  0  0  0  0  0  0  0  0  0  0
  145.2828  135.0698  151.2683 S   0  0  0  0  0  0  0  0  0  0  0  0
  146.4836  134.2919  151.6090 O   0  0  0  0  0  0  0  0  0  0  0  0
  144.1624  134.4537  150.5414 O   0  0  0  0  0  0  0  0  0  0  0  0
  145.7785  136.6110  150.4070 C   0  0  0  0  0  0  0  0  0  0  0  0
  149.0714  137.7824  153.1628 H   0  0  0  0  0  0  0  0  0  0  0  0
  148.2413  141.2165  153.8100 H   0  0  0  0  0  0  0  0  0  0  0  0
  149.4612  142.6807  155.3979 H   0  0  0  0  0  0  0  0  0  0  0  0
  151.0370  143.6893  156.0614 H   0  0  0  0  0  0  0  0  0  0  0  0
  150.1515  143.4728  157.5628 H   0  0  0  0  0  0  0  0  0  0  0  0
  153.1389  144.0664  157.2544 H   0  0  0  0  0  0  0  0  0  0  0  0
  151.9286  145.1615  157.8791 H   0  0  0  0  0  0  0  0  0  0  0  0
  153.2549  144.0802  159.7226 H   0  0  0  0  0  0  0  0  0  0  0  0
  151.5501  143.7016  159.8420 H   0  0  0  0  0  0  0  0  0  0  0  0
  153.7180  141.9022  158.6501 H   0  0  0  0  0  0  0  0  0  0  0  0
  152.8706  141.6326  160.1549 H   0  0  0  0  0  0  0  0  0  0  0  0
  150.7307  141.3116  158.9563 H   0  0  0  0  0  0  0  0  0  0  0  0
  151.9479  140.2372  158.3100 H   0  0  0  0  0  0  0  0  0  0  0  0
  150.6179  137.9124  155.2896 H   0  0  0  0  0  0  0  0  0  0  0  0
  147.7076  137.1415  151.9107 H   0  0  0  0  0  0  0  0  0  0  0  0
  145.5108  138.6795  150.9618 H   0  0  0  0  0  0  0  0  0  0  0  0
  144.6514  137.9965  153.3663 H   0  0  0  0  0  0  0  0  0  0  0  0
  143.6448  137.6068  151.9927 H   0  0  0  0  0  0  0  0  0  0  0  0
  145.3637  135.6915  153.5896 H   0  0  0  0  0  0  0  0  0  0  0  0
  143.6864  135.4784  153.0624 H   0  0  0  0  0  0  0  0  0  0  0  0
  145.0483  136.7969  149.6189 H   0  0  0  0  0  0  0  0  0  0  0  0
  146.7568  136.4892  149.9412 H   0  0  0  0  0  0  0  0  0  0  0  0
  1  2  2  0  0  0  0
  2  3  1  0  0  0  0
  2 16  1  0  0  0  0
  3  4  1  0  0  0  0
  3 24  1  0  0  0  0
  4 15  1  0  0  0  0
  4  5  2  0  0  0  0
  5  6  1  0  0  0  0
  5 25  1  0  0  0  0
  6  7  2  0  0  0  0
  6 26  1  0  0  0  0
  7  8  1  0  0  0  0
  7 14  1  0  0  0  0
  8 13  1  0  0  0  0
  8  9  1  0  0  0  0
  9 10  1  0  0  0  0
  9 27  1  0  0  0  0
  9 28  1  0  0  0  0
 10 11  1  0  0  0  0
 10 29  1  0  0  0  0
 10 30  1  0  0  0  0
 11 12  1  0  0  0  0
 11 31  1  0  0  0  0
 11 32  1  0  0  0  0
 12 13  1  0  0  0  0
 12 33  1  0  0  0  0
 12 34  1  0  0  0  0
 13 35  1  0  0  0  0
 13 36  1  0  0  0  0
 14 15  2  0  0  0  0
 15 37  1  0  0  0  0
 16 17  1  0  0  0  0
 16 38  1  0  0  0  0
 17 23  1  0  0  0  0
 17 18  1  0  0  0  0
 17 39  1  0  0  0  0
 18 19  1  0  0  0  0
 18 40  1  0  0  0  0
 18 41  1  0  0  0  0
 19 20  1  0  0  0  0
 19 42  1  0  0  0  0
 19 43  1  0  0  0  0
 20 21  2  0  0  0  0
 20 22  2  0  0  0  0
 20 23  1  0  0  0  0
 23 44  1  0  0  0  0
 23 45  1  0  0  0  0
M  END
> <s_m_source_file>
AV-unprocessed.smi

> <i_m_source_file_index>
1576

> <i_lp_mmshare_version>
43012

> <i_f3d_flags>
0

> <s_epik_input>
Tz1TMSg9TylbQ0gyXVtDSDJdW0NASF0oW0NIMl0xKVtOSF1DKD1PKVtOSF1jMltjSF1bY0hdYyhuW2NIXTIpTjNbQ0gyXVtDSDJdW0NIMl1bQ0gyXVtDSDJdMw==

> <s_epik_cmdline>
J2VwaWtfcHl0aG9uJywgJy1waCcsICc3LjAnLCAnLXRuJywgJzgnLCAnLW1hJywgJzIwMCcsICctbWV0YWxfYmluZGluZycsICctaW1hZScsICc8aW5maWxlLm1hZT4nLCAnLW9tYWUnLCAnPG91dGZpbGUubWFlPic=

> <r_lp_tautomer_probability>
1

> <r_epik_Ionization_Penalty>
0.0900267

> <r_epik_Ionization_Penalty_Charging>
0

> <r_epik_Ionization_Penalty_Neutral>
0.0900267

> <r_epik_State_Penalty>
0.0748882

> <r_epik_Charging_Adjusted_Penalty>
0.0748882

> <i_epik_Tot_Q>
0

> <i_epik_Tot_abs_Q>
0

> <r_epik_Metal_State_Penalty>
0.0662821

> <b_epik_Metal_Only>
0

> <s_lp_Force_Field>
OPLS_2005

> <r_lp_Energy>
21.2293

> <b_lp_Chiralities_Consistent>
1

> <s_lp_Variant>
AV-unprocessed.smi:1576-1

> <Gold.Version>
5.8.1

> <Gold.Id.Protein>
6NUR|6NUR_protein|mol2

> <Gold.PLP.Fitness>
43.1303

> <Gold.PLP.PLP>
-38.0026

> <Gold.PLP.part.hbond>
-2.9527

> <Gold.PLP.part.metal>
0.0000

> <Gold.PLP.part.buried>
2.7676

> <Gold.PLP.part.nonpolar>
-40.4171

> <Gold.PLP.part.repulsive>
1.1032

> <Gold.PLP.ligand.clash>
0.0000

> <Gold.PLP.ligand.torsion>
0.4761

> <Gold.PLP.Chemscore.Hbond>
1.8873

> <Gold.PLP.Chemscore.CHOScore>
0.0000

> <Gold.PLP.Chemscore.Metal>
0.0000

> <Gold.Chemscore.Hbonds>
donor molecule, donor type, donor heavy atom, donor atom, acceptor molecule, acceptor atom, score
      L1  H     3    24       P1  7948  0.88
      L1  H    16    38       P1  7948  0.98

> <Gold.PLP.Chemscore.Internal.Correction>
0.4180

> <Gold.Rescore>
     Score         DG    S(hbond)    S(metal)    S(lipo)     H(rot)  DE(clash)    DE(int)     intcor
     17.61     -19.46       1.80        0.00      95.22       1.24       0.15       1.70       ----

> <Gold.Chemscore.Fitness>
17.6079

> <Gold.Chemscore.DG>
-19.4600

> <Gold.Chemscore.ZeroCoef>
-5.4800

> <Gold.Chemscore.Hbond>
1.7980

> <Gold.Chemscore.Metal>
0.0000

> <Gold.Chemscore.Lipo>
95.2169

> <Gold.Chemscore.Internal_Hbond>
0.0000

> <Gold.Chemscore.DEClash>
0.1519

> <Gold.Chemscore.DEInternal>
1.7002

> <Gold.Chemscore.Rot>
1.2366

> <Gold.Chemscore.Internal.Correction>
   9.000000E+99

> <Gold.Chemscore.Hbonds>
donor molecule, donor type, donor heavy atom, donor atom, acceptor molecule, acceptor atom, score
      L1  H     3    24       P1  7948  0.83
      L1  H    16    38       P1  7948  0.91

> <Gold.Chemscore.Hbond.Weighted>
-6.0053

> <Gold.Chemscore.Metal.Weighted>
-0.0000

> <Gold.Chemscore.Lipo.Weighted>
-11.1404

> <Gold.Chemscore.Internal_Hbond.Weighted>
0.0000

> <Gold.Chemscore.DEClash.Weighted>
0.1519

> <Gold.Chemscore.DEInternal.Weighted>
1.7002

> <Gold.Chemscore.Rot.Weighted>
3.1657

> <Gold.Chemscore.Internal.Correction.Weighted>
   9.000000E+99

> <Gold.Protein.RotatedTorsions>
[ 6907 6896 6895 6894 ] final   84.37 input  -60.11 | X-H torsion
[ 7974 7965 7964 7962 ] final -168.60 input  175.53 | X-H torsion
[ 8008 7997 7996 7995 ] final   80.02 input   59.86 | X-H torsion
[ 10167 10162 10161 10158 ] final -170.53 input  -65.29 | X-H torsion
[ 10718 10713 10712 10709 ] final   -5.99 input   66.30 | X-H torsion
[ 10763 10752 10751 10750 ] final -120.25 input  -60.55 | X-H torsion
[ 11005 11000 10999 10996 ] final  -34.31 input  -57.11 | X-H torsion

> <Gold.Protein.ActiveResidues>
 VAL166  LYS551  ARG553  GLY616  TRP617  ASP618  TYR619  PRO620  LYS621  CYS622 
 ASP623  PHE694  ASN695  SER759  ASP760  ASP761  ALA762  ILE779  LEU786  VAL792 
 PHE793  MET794  SER795  GLU796  ALA797  LYS798  CYS799  TRP800  GLU811  SER814 

> <Gold.Protein.RotatedAtoms>
  152.5350  134.2751  159.8986 H   0  0  0  0  0  0  0  0  0  0  0  0  # atno 6907 bound_to 6896
  151.2707  133.4250  159.2628 H   0  0  0  0  0  0  0  0  0  0  0  0  # atno 6908 bound_to 6896
  151.0370  134.9595  159.8198 H   0  0  0  0  0  0  0  0  0  0  0  0  # atno 6909 bound_to 6896
  144.7200  140.2345  143.6299 H   0  0  0  0  0  0  0  0  0  0  0  0  # atno 7974 bound_to 7965
  155.8777  140.3445  155.5866 H   0  0  0  0  0  0  0  0  0  0  0  0  # atno 8008 bound_to 7997
  155.7755  140.0851  157.2105 H   0  0  0  0  0  0  0  0  0  0  0  0  # atno 8009 bound_to 7997
  154.4022  140.1510  156.2979 H   0  0  0  0  0  0  0  0  0  0  0  0  # atno 8010 bound_to 7997
  139.5856  144.1326  152.1571 H   0  0  0  0  0  0  0  0  0  0  0  0  # atno 10167 bound_to 10162
  156.7385  130.5202  149.5829 H   0  0  0  0  0  0  0  0  0  0  0  0  # atno 10718 bound_to 10713
  154.8639  135.4209  154.2429 H   0  0  0  0  0  0  0  0  0  0  0  0  # atno 10763 bound_to 10752
  153.3391  135.6992  153.6888 H   0  0  0  0  0  0  0  0  0  0  0  0  # atno 10764 bound_to 10752
  153.5874  135.3561  155.2871 H   0  0  0  0  0  0  0  0  0  0  0  0  # atno 10765 bound_to 10752
  140.9706  133.7112  156.1517 H   0  0  0  0  0  0  0  0  0  0  0  0  # atno 11005 bound_to 11000
  145.8378  139.2116  143.1845 LP  0  0  0  0  0  0  0  0  0  0  0  0  # atno 17320 bound_to 7965
  146.0373  140.8199  142.9846 LP  0  0  0  0  0  0  0  0  0  0  0  0  # atno 17321 bound_to 7965
  140.0888  144.5638  150.7069 LP  0  0  0  0  0  0  0  0  0  0  0  0  # atno 17342 bound_to 10162
  140.7128  143.2519  151.4527 LP  0  0  0  0  0  0  0  0  0  0  0  0  # atno 17343 bound_to 10162
  156.1480  130.6291  151.0558 LP  0  0  0  0  0  0  0  0  0  0  0  0  # atno 17370 bound_to 10713
  157.6828  131.0833  150.7323 LP  0  0  0  0  0  0  0  0  0  0  0  0  # atno 17371 bound_to 10713
  140.7335  134.4229  157.5563 LP  0  0  0  0  0  0  0  0  0  0  0  0  # atno 17394 bound_to 11000
  139.8911  134.8789  156.2338 LP  0  0  0  0  0  0  0  0  0  0  0  0  # atno 17395 bound_to 11000

$$$$
