AV-unprocessed.smi:3051|AV-procd|sdf|11634|dock9
  -GOLD-   2272017 23D 1   1.00000     0.00000
 Structure written by MMmdl.
 37 37  0  0  0  0  0  0  0  0  1 V2000
  152.5511  144.2831  158.9934 C   0  0  0  0  0  0  0  0  0  0  0  0
  151.2881  144.1946  158.1269 C   0  0  0  0  0  0  0  0  0  0  0  0
  151.4056  143.1546  157.1123 N   0  0  0  0  0  0  0  0  0  0  0  0
  150.9056  141.9130  157.2142 C   0  0  0  0  0  0  0  0  0  0  0  0
  150.2698  141.5143  158.1897 O   0  0  0  0  0  0  0  0  0  0  0  0
  151.1604  140.9754  156.0327 C   0  0  0  0  0  0  0  0  0  0  0  0
  149.9381  140.7251  155.2900 N   0  0  0  0  0  0  0  0  0  0  0  0
  148.8021  141.5076  155.2192 C   0  0  0  0  0  0  0  0  0  0  0  0
  147.9057  140.8584  154.4183 C   0  0  0  0  0  0  0  0  0  0  0  0
  148.5976  139.6727  154.0494 C   0  0  0  0  0  0  0  0  0  0  0  0
  148.0174  138.7004  153.2258 N   0  0  0  0  0  0  0  0  0  0  0  0
  146.6640  138.8702  152.7091 C   0  0  1  0  0  0  0  0  0  0  0  0
  146.6894  139.2449  151.2174 C   0  0  0  0  0  0  0  0  0  0  0  0
  145.8451  137.5902  152.9364 C   0  0  0  0  0  0  0  0  0  0  0  0
  145.8758  136.7974  151.7606 O   0  0  0  0  0  0  0  0  0  0  0  0
  144.8594  135.8106  151.7449 C   0  0  0  0  0  0  0  0  0  0  0  0
  149.8160  139.5932  154.5619 N   0  0  0  0  0  0  0  0  0  0  0  0
  152.4359  145.0417  159.7676 H   0  0  0  0  0  0  0  0  0  0  0  0
  153.4245  144.5495  158.3974 H   0  0  0  0  0  0  0  0  0  0  0  0
  152.7581  143.3332  159.4872 H   0  0  0  0  0  0  0  0  0  0  0  0
  150.4279  143.9606  158.7541 H   0  0  0  0  0  0  0  0  0  0  0  0
  151.0789  145.1585  157.6602 H   0  0  0  0  0  0  0  0  0  0  0  0
  151.9179  143.3900  156.2741 H   0  0  0  0  0  0  0  0  0  0  0  0
  151.8969  141.4148  155.3584 H   0  0  0  0  0  0  0  0  0  0  0  0
  151.5734  140.0293  156.3869 H   0  0  0  0  0  0  0  0  0  0  0  0
  148.7266  142.4489  155.7434 H   0  0  0  0  0  0  0  0  0  0  0  0
  146.9109  141.1792  154.1464 H   0  0  0  0  0  0  0  0  0  0  0  0
  148.5390  137.8736  152.9728 H   0  0  0  0  0  0  0  0  0  0  0  0
  146.1787  139.6791  153.2570 H   0  0  0  0  0  0  0  0  0  0  0  0
  145.6792  139.3926  150.8347 H   0  0  0  0  0  0  0  0  0  0  0  0
  147.1594  138.4628  150.6202 H   0  0  0  0  0  0  0  0  0  0  0  0
  147.2388  140.1702  151.0436 H   0  0  0  0  0  0  0  0  0  0  0  0
  146.2753  137.0177  153.7599 H   0  0  0  0  0  0  0  0  0  0  0  0
  144.8173  137.8335  153.2121 H   0  0  0  0  0  0  0  0  0  0  0  0
  144.9211  135.2353  150.8213 H   0  0  0  0  0  0  0  0  0  0  0  0
  143.8683  136.2637  151.7933 H   0  0  0  0  0  0  0  0  0  0  0  0
  144.9693  135.1181  152.5805 H   0  0  0  0  0  0  0  0  0  0  0  0
  1  2  1  0  0  0  0
  1 18  1  0  0  0  0
  1 19  1  0  0  0  0
  1 20  1  0  0  0  0
  2  3  1  0  0  0  0
  2 21  1  0  0  0  0
  2 22  1  0  0  0  0
  3  4  1  0  0  0  0
  3 23  1  0  0  0  0
  4  5  2  0  0  0  0
  4  6  1  0  0  0  0
  6  7  1  0  0  0  0
  6 24  1  0  0  0  0
  6 25  1  0  0  0  0
  7 17  1  0  0  0  0
  7  8  1  0  0  0  0
  8  9  2  0  0  0  0
  8 26  1  0  0  0  0
  9 10  1  0  0  0  0
  9 27  1  0  0  0  0
 10 11  1  0  0  0  0
 10 17  2  0  0  0  0
 11 12  1  0  0  0  0
 11 28  1  0  0  0  0
 12 13  1  0  0  0  0
 12 14  1  0  0  0  0
 12 29  1  0  0  0  0
 13 30  1  0  0  0  0
 13 31  1  0  0  0  0
 13 32  1  0  0  0  0
 14 15  1  0  0  0  0
 14 33  1  0  0  0  0
 14 34  1  0  0  0  0
 15 16  1  0  0  0  0
 16 35  1  0  0  0  0
 16 36  1  0  0  0  0
 16 37  1  0  0  0  0
M  END
> <s_m_source_file>
AV-unprocessed.smi

> <i_m_source_file_index>
3051

> <i_lp_mmshare_version>
43012

> <i_f3d_flags>
0

> <s_epik_input>
W0NIM11bQ0gyXVtOSF1DKD1PKVtDSDJdbjFbY0hdW2NIXWMobjEpW05IXVtDQEhdKFtDSDNdKVtDSDJdT1tDSDNd

> <s_epik_cmdline>
J2VwaWtfcHl0aG9uJywgJy1waCcsICc3LjAnLCAnLXRuJywgJzgnLCAnLW1hJywgJzIwMCcsICctbWV0YWxfYmluZGluZycsICctaW1hZScsICc8aW5maWxlLm1hZT4nLCAnLW9tYWUnLCAnPG91dGZpbGUubWFlPic=

> <r_lp_tautomer_probability>
1

> <r_epik_Ionization_Penalty>
0.00023157

> <r_epik_Ionization_Penalty_Charging>
0

> <r_epik_Ionization_Penalty_Neutral>
0.00023157

> <r_epik_State_Penalty>
-0

> <r_epik_Charging_Adjusted_Penalty>
0

> <i_epik_Tot_Q>
0

> <i_epik_Tot_abs_Q>
0

> <r_epik_Metal_State_Penalty>
-0

> <b_epik_Metal_Only>
0

> <s_lp_Force_Field>
OPLS_2005

> <r_lp_Energy>
3.21547

> <b_lp_Chiralities_Consistent>
1

> <s_lp_Variant>
AV-unprocessed.smi:3051-2

> <Gold.Version>
5.8.1

> <Gold.Id.Protein>
6NUR|6NUR_protein|mol2

> <Gold.PLP.Fitness>
36.6918

> <Gold.PLP.PLP>
-33.2411

> <Gold.PLP.part.hbond>
-2.8354

> <Gold.PLP.part.metal>
0.0000

> <Gold.PLP.part.buried>
1.6867

> <Gold.PLP.part.nonpolar>
-32.5557

> <Gold.PLP.part.repulsive>
0.7903

> <Gold.PLP.ligand.clash>
0.0000

> <Gold.PLP.ligand.torsion>
1.2944

> <Gold.PLP.Chemscore.Hbond>
1.0000

> <Gold.PLP.Chemscore.CHOScore>
1.0000

> <Gold.PLP.Chemscore.Metal>
0.0000

> <Gold.Chemscore.Hbonds>
donor molecule, donor type, donor heavy atom, donor atom, acceptor molecule, acceptor atom, score
      L1  H    11    28       P1  7948  1.00
      L1  C     8    26       P1  8028  1.00

> <Gold.PLP.Chemscore.Internal.Correction>
0.0395

> <Gold.Rescore>
     Score         DG    S(hbond)    S(metal)    S(lipo)     H(rot)  DE(clash)    DE(int)     intcor
     10.14     -11.33       0.97        0.00      70.09       2.19       0.12       1.07       ----

> <Gold.Chemscore.Fitness>
10.1423

> <Gold.Chemscore.DG>
-11.3320

> <Gold.Chemscore.ZeroCoef>
-5.4800

> <Gold.Chemscore.Hbond>
0.9745

> <Gold.Chemscore.Metal>
0.0000

> <Gold.Chemscore.Lipo>
70.0938

> <Gold.Chemscore.Internal_Hbond>
0.0000

> <Gold.Chemscore.DEClash>
0.1212

> <Gold.Chemscore.DEInternal>
1.0685

> <Gold.Chemscore.Rot>
2.1890

> <Gold.Chemscore.Internal.Correction>
   9.000000E+99

> <Gold.Chemscore.Hbonds>
donor molecule, donor type, donor heavy atom, donor atom, acceptor molecule, acceptor atom, score
      L1  H    11    28       P1  7948  0.93

> <Gold.Chemscore.Hbond.Weighted>
-3.2550

> <Gold.Chemscore.Metal.Weighted>
-0.0000

> <Gold.Chemscore.Lipo.Weighted>
-8.2010

> <Gold.Chemscore.Internal_Hbond.Weighted>
0.0000

> <Gold.Chemscore.DEClash.Weighted>
0.1212

> <Gold.Chemscore.DEInternal.Weighted>
1.0685

> <Gold.Chemscore.Rot.Weighted>
5.6039

> <Gold.Chemscore.Internal.Correction.Weighted>
   9.000000E+99

> <Gold.Protein.RotatedTorsions>
[ 6907 6896 6895 6894 ] final -130.62 input  -60.11 | X-H torsion
[ 7974 7965 7964 7962 ] final -176.85 input  175.53 | X-H torsion
[ 8008 7997 7996 7995 ] final  -44.00 input   59.86 | X-H torsion
[ 10167 10162 10161 10158 ] final  -27.48 input  -65.29 | X-H torsion
[ 10718 10713 10712 10709 ] final -163.80 input   66.30 | X-H torsion
[ 10763 10752 10751 10750 ] final   96.08 input  -60.55 | X-H torsion
[ 11005 11000 10999 10996 ] final -120.47 input  -57.11 | X-H torsion

> <Gold.Protein.ActiveResidues>
 VAL166  LYS551  ARG553  GLY616  TRP617  ASP618  TYR619  PRO620  LYS621  CYS622 
 ASP623  PHE694  ASN695  SER759  ASP760  ASP761  ALA762  ILE779  LEU786  VAL792 
 PHE793  MET794  SER795  GLU796  ALA797  LYS798  CYS799  TRP800  GLU811  SER814 

> <Gold.Protein.RotatedAtoms>
  150.9418  133.6648  159.2789 H   0  0  0  0  0  0  0  0  0  0  0  0  # atno 6907 bound_to 6896
  151.4035  135.0973  159.9573 H   0  0  0  0  0  0  0  0  0  0  0  0  # atno 6908 bound_to 6896
  152.5072  133.8906  159.7447 H   0  0  0  0  0  0  0  0  0  0  0  0  # atno 6909 bound_to 6896
  144.7127  140.1109  143.6411 H   0  0  0  0  0  0  0  0  0  0  0  0  # atno 7974 bound_to 7965
  154.3997  140.1433  156.3611 H   0  0  0  0  0  0  0  0  0  0  0  0  # atno 8008 bound_to 7997
  155.8180  140.3470  155.5476 H   0  0  0  0  0  0  0  0  0  0  0  0  # atno 8009 bound_to 7997
  155.8318  140.0913  157.1778 H   0  0  0  0  0  0  0  0  0  0  0  0  # atno 8010 bound_to 7997
  140.7277  143.4090  151.1138 H   0  0  0  0  0  0  0  0  0  0  0  0  # atno 10167 bound_to 10162
  156.6299  130.8925  151.2975 H   0  0  0  0  0  0  0  0  0  0  0  0  # atno 10718 bound_to 10713
  153.2607  135.4231  155.0891 H   0  0  0  0  0  0  0  0  0  0  0  0  # atno 10763 bound_to 10752
  154.8419  135.3448  154.6381 H   0  0  0  0  0  0  0  0  0  0  0  0  # atno 10764 bound_to 10752
  153.6801  135.7039  153.5177 H   0  0  0  0  0  0  0  0  0  0  0  0  # atno 10765 bound_to 10752
  141.0141  134.0221  157.3373 H   0  0  0  0  0  0  0  0  0  0  0  0  # atno 11005 bound_to 11000
  145.9456  139.2698  143.1243 LP  0  0  0  0  0  0  0  0  0  0  0  0  # atno 17320 bound_to 7965
  145.9378  140.9002  143.0323 LP  0  0  0  0  0  0  0  0  0  0  0  0  # atno 17321 bound_to 7965
  139.7720  143.8480  152.3122 LP  0  0  0  0  0  0  0  0  0  0  0  0  # atno 17342 bound_to 10162
  139.8402  144.7213  150.9341 LP  0  0  0  0  0  0  0  0  0  0  0  0  # atno 17343 bound_to 10162
  157.7203  130.9550  150.1412 LP  0  0  0  0  0  0  0  0  0  0  0  0  # atno 17370 bound_to 10713
  156.2243  130.3676  149.8519 LP  0  0  0  0  0  0  0  0  0  0  0  0  # atno 17371 bound_to 10713
  139.9107  135.0189  156.7678 LP  0  0  0  0  0  0  0  0  0  0  0  0  # atno 17394 bound_to 11000
  140.6684  133.9582  155.7843 LP  0  0  0  0  0  0  0  0  0  0  0  0  # atno 17395 bound_to 11000

$$$$
