AV-unprocessed.smi:1721|AV-procd|sdf|6942|dock4
  -GOLD-   22720 8153D 1   1.00000     0.00000
 Structure written by MMmdl.
 44 46  0  0  0  0  0  0  0  0  2 V2000
  151.7870  138.2867  154.5631 C   0  0  0  0  0  0  0  0  0  0  0  0
  150.4578  138.1665  154.0676 O   0  0  0  0  0  0  0  0  0  0  0  0
  149.6047  139.2465  154.1958 C   0  0  0  0  0  0  0  0  0  0  0  0
  150.1014  140.4012  154.7061 N   0  0  0  0  0  0  0  0  0  0  0  0
  149.2730  141.4575  154.8310 C   0  0  0  0  0  0  0  0  0  0  0  0
  147.9181  141.4205  154.4563 C   0  0  0  0  0  0  0  0  0  0  0  0
  147.3998  140.2243  153.9269 C   0  0  0  0  0  0  0  0  0  0  0  0
  148.2562  139.1030  153.7906 C   0  0  0  0  0  0  0  0  0  0  0  0
  147.8568  137.8384  153.2698 N   0  0  0  0  0  0  0  0  0  0  0  0
  146.6275  137.3152  153.1218 C   0  0  0  0  0  0  0  0  0  0  0  0
  145.5695  137.8651  153.4244 O   0  0  0  0  0  0  0  0  0  0  0  0
  146.6902  136.0847  152.5937 N   0  0  0  0  0  0  0  0  0  0  0  0
  145.5391  135.2367  152.2964 C   0  0  1  0  0  0  0  0  0  0  0  0
  144.6558  135.7943  151.1867 C   0  0  0  0  0  0  0  0  0  0  0  0
  143.8704  134.5576  150.7471 C   0  0  0  0  0  0  0  0  0  0  0  0
  144.7888  133.4080  150.9183 N   0  3  2  0  0  0  0  0  0  0  0  0
  144.1295  132.1541  151.3585 C   0  0  0  0  0  0  0  0  0  0  0  0
  145.1553  131.0121  151.4844 C   0  0  0  0  0  0  0  0  0  0  0  0
  146.4081  131.4094  152.2929 C   0  0  0  0  0  0  0  0  0  0  0  0
  146.3136  132.8356  152.8564 C   0  0  0  0  0  0  0  0  0  0  0  0
  145.9398  133.8538  151.7546 C   0  0  2  0  0  0  0  0  0  0  0  0
  152.3250  137.3566  154.3801 H   0  0  0  0  0  0  0  0  0  0  0  0
  151.7967  138.4681  155.6387 H   0  0  0  0  0  0  0  0  0  0  0  0
  152.3307  139.0871  154.0592 H   0  0  0  0  0  0  0  0  0  0  0  0
  149.7033  142.3593  155.2407 H   0  0  0  0  0  0  0  0  0  0  0  0
  147.2896  142.2912  154.5718 H   0  0  0  0  0  0  0  0  0  0  0  0
  146.3614  140.2047  153.6396 H   0  0  0  0  0  0  0  0  0  0  0  0
  148.6208  137.2476  152.9748 H   0  0  0  0  0  0  0  0  0  0  0  0
  147.6017  135.7100  152.3745 H   0  0  0  0  0  0  0  0  0  0  0  0
  144.9175  135.1183  153.1868 H   0  0  0  0  0  0  0  0  0  0  0  0
  144.0111  136.6071  151.5229 H   0  0  0  0  0  0  0  0  0  0  0  0
  145.2652  136.1627  150.3599 H   0  0  0  0  0  0  0  0  0  0  0  0
  142.9993  134.4385  151.3938 H   0  0  0  0  0  0  0  0  0  0  0  0
  143.5136  134.6329  149.7197 H   0  0  0  0  0  0  0  0  0  0  0  0
  143.6311  132.3179  152.3153 H   0  0  0  0  0  0  0  0  0  0  0  0
  143.3526  131.8807  150.6437 H   0  0  0  0  0  0  0  0  0  0  0  0
  144.6768  130.1456  151.9421 H   0  0  0  0  0  0  0  0  0  0  0  0
  145.4624  130.6917  150.4880 H   0  0  0  0  0  0  0  0  0  0  0  0
  146.5726  130.7000  153.1047 H   0  0  0  0  0  0  0  0  0  0  0  0
  147.2856  131.3394  151.6488 H   0  0  0  0  0  0  0  0  0  0  0  0
  145.5714  132.8577  153.6557 H   0  0  0  0  0  0  0  0  0  0  0  0
  147.2612  133.1130  153.3187 H   0  0  0  0  0  0  0  0  0  0  0  0
  146.7832  133.9635  151.0707 H   0  0  0  0  0  0  0  0  0  0  0  0
  145.1792  133.2143  150.0070 H   0  0  0  0  0  0  0  0  0  0  0  0
  1  2  1  0  0  0  0
  1 22  1  0  0  0  0
  1 23  1  0  0  0  0
  1 24  1  0  0  0  0
  2  3  1  0  0  0  0
  3  8  1  0  0  0  0
  3  4  2  0  0  0  0
  4  5  1  0  0  0  0
  5  6  2  0  0  0  0
  5 25  1  0  0  0  0
  6  7  1  0  0  0  0
  6 26  1  0  0  0  0
  7  8  2  0  0  0  0
  7 27  1  0  0  0  0
  8  9  1  0  0  0  0
  9 10  1  0  0  0  0
  9 28  1  0  0  0  0
 10 11  2  0  0  0  0
 10 12  1  0  0  0  0
 12 13  1  0  0  0  0
 12 29  1  0  0  0  0
 13 21  1  0  0  0  0
 13 14  1  0  0  0  0
 13 30  1  0  0  0  0
 14 15  1  0  0  0  0
 14 31  1  0  0  0  0
 14 32  1  0  0  0  0
 15 16  1  0  0  0  0
 15 33  1  0  0  0  0
 15 34  1  0  0  0  0
 16 21  1  0  0  0  0
 16 17  1  0  0  0  0
 16 44  1  0  0  0  0
 17 18  1  0  0  0  0
 17 35  1  0  0  0  0
 17 36  1  0  0  0  0
 18 19  1  0  0  0  0
 18 37  1  0  0  0  0
 18 38  1  0  0  0  0
 19 20  1  0  0  0  0
 19 39  1  0  0  0  0
 19 40  1  0  0  0  0
 20 21  1  0  0  0  0
 20 41  1  0  0  0  0
 20 42  1  0  0  0  0
 21 43  1  0  0  0  0
M  CHG  1  16   1
M  END
> <s_m_source_file>
AV-unprocessed.smi

> <i_m_source_file_index>
1721

> <i_lp_mmshare_version>
43012

> <i_f3d_flags>
0

> <s_epik_input>
W0NIM11PYzFuW2NIXVtjSF1bY0hdYzFbTkhdQyg9TylbTkhdW0NASF0oW0NIMl1bQ0gyXTIpW0NAQEhdKE4yMylbQ0gyXVtDSDJdW0NIMl1bQ0gyXTM=

> <s_epik_cmdline>
J2VwaWtfcHl0aG9uJywgJy1waCcsICc3LjAnLCAnLXRuJywgJzgnLCAnLW1hJywgJzIwMCcsICctbWV0YWxfYmluZGluZycsICctaW1hZScsICc8aW5maWxlLm1hZT4nLCAnLW9tYWUnLCAnPG91dGZpbGUubWFlPic=

> <r_lp_tautomer_probability>
1

> <r_epik_Ionization_Penalty>
0.00104793

> <r_epik_Ionization_Penalty_Charging>
0.000974069

> <r_epik_Ionization_Penalty_Neutral>
7.38649e-05

> <r_epik_State_Penalty>
0.000633842

> <r_epik_Charging_Adjusted_Penalty>
0.00160791

> <i_epik_Tot_Q>
1

> <i_epik_Tot_abs_Q>
1

> <r_epik_Metal_State_Penalty>
-0

> <b_epik_Metal_Only>
0

> <s_lp_Force_Field>
OPLS_2005

> <r_lp_Energy>
42.7216

> <b_lp_Chiralities_Consistent>
1

> <s_lp_Variant>
AV-unprocessed.smi:1721-8

> <Gold.Version>
5.8.1

> <Gold.Id.Protein>
6NUR|6NUR_protein|mol2

> <Gold.PLP.Fitness>
42.6734

> <Gold.PLP.PLP>
-32.2853

> <Gold.PLP.part.hbond>
-2.0271

> <Gold.PLP.part.metal>
0.0000

> <Gold.PLP.part.buried>
-2.1647

> <Gold.PLP.part.nonpolar>
-29.8106

> <Gold.PLP.part.repulsive>
0.5982

> <Gold.PLP.ligand.clash>
0.0000

> <Gold.PLP.ligand.torsion>
0.1156

> <Gold.PLP.Chemscore.Hbond>
2.5373

> <Gold.PLP.Chemscore.CHOScore>
1.0000

> <Gold.PLP.Chemscore.Metal>
0.0000

> <Gold.Chemscore.Hbonds>
donor molecule, donor type, donor heavy atom, donor atom, acceptor molecule, acceptor atom, score
      L1  H     9    28       P1  7948  0.80
      L1  H    12    29       P1  7948  0.75
      P1  H  7989  7998       L1     4  0.98
      L1  C     5    25       P1  8028  1.00

> <Gold.PLP.Chemscore.Internal.Correction>
0.0073

> <Gold.Rescore>
     Score         DG    S(hbond)    S(metal)    S(lipo)     H(rot)  DE(clash)    DE(int)     intcor
     16.90     -20.48       2.46        0.00      85.35       1.25       2.52       1.06       ----

> <Gold.Chemscore.Fitness>
16.9035

> <Gold.Chemscore.DG>
-20.4799

> <Gold.Chemscore.ZeroCoef>
-5.4800

> <Gold.Chemscore.Hbond>
2.4573

> <Gold.Chemscore.Metal>
0.0000

> <Gold.Chemscore.Lipo>
85.3496

> <Gold.Chemscore.Internal_Hbond>
0.0000

> <Gold.Chemscore.DEClash>
2.5186

> <Gold.Chemscore.DEInternal>
1.0578

> <Gold.Chemscore.Rot>
1.2474

> <Gold.Chemscore.Internal.Correction>
   9.000000E+99

> <Gold.Chemscore.Hbonds>
donor molecule, donor type, donor heavy atom, donor atom, acceptor molecule, acceptor atom, score
      L1  H     9    28       P1  7948  0.74
      L1  H    12    29       P1  7948  0.71
      P1  H  7989  7998       L1     4  0.31

> <Gold.Chemscore.Hbond.Weighted>
-8.2074

> <Gold.Chemscore.Metal.Weighted>
-0.0000

> <Gold.Chemscore.Lipo.Weighted>
-9.9859

> <Gold.Chemscore.Internal_Hbond.Weighted>
0.0000

> <Gold.Chemscore.DEClash.Weighted>
2.5186

> <Gold.Chemscore.DEInternal.Weighted>
1.0578

> <Gold.Chemscore.Rot.Weighted>
3.1934

> <Gold.Chemscore.Internal.Correction.Weighted>
   9.000000E+99

> <Gold.Protein.RotatedTorsions>
[ 6907 6896 6895 6894 ] final -144.19 input  -60.11 | X-H torsion
[ 7974 7965 7964 7962 ] final -159.14 input  175.53 | X-H torsion
[ 8008 7997 7996 7995 ] final  106.58 input   59.86 | X-H torsion
[ 10167 10162 10161 10158 ] final -118.88 input  -65.29 | X-H torsion
[ 10718 10713 10712 10709 ] final  145.80 input   66.30 | X-H torsion
[ 10763 10752 10751 10750 ] final   73.39 input  -60.55 | X-H torsion
[ 11005 11000 10999 10996 ] final   21.78 input  -57.11 | X-H torsion

> <Gold.Protein.ActiveResidues>
 VAL166  LYS551  ARG553  GLY616  TRP617  ASP618  TYR619  PRO620  LYS621  CYS622 
 ASP623  PHE694  ASN695  SER759  ASP760  ASP761  ALA762  ILE779  LEU786  VAL792 
 PHE793  MET794  SER795  GLU796  ALA797  LYS798  CYS799  TRP800  GLU811  SER814 

> <Gold.Protein.RotatedAtoms>
  151.1107  133.5175  159.2605 H   0  0  0  0  0  0  0  0  0  0  0  0  # atno 6907 bound_to 6896
  151.1970  135.0426  159.8866 H   0  0  0  0  0  0  0  0  0  0  0  0  # atno 6908 bound_to 6896
  152.5450  134.0940  159.8342 H   0  0  0  0  0  0  0  0  0  0  0  0  # atno 6909 bound_to 6896
  144.7477  140.3727  143.6072 H   0  0  0  0  0  0  0  0  0  0  0  0  # atno 7974 bound_to 7965
  156.1754  140.3110  155.9050 H   0  0  0  0  0  0  0  0  0  0  0  0  # atno 8008 bound_to 7997
  155.3498  140.0470  157.3063 H   0  0  0  0  0  0  0  0  0  0  0  0  # atno 8009 bound_to 7997
  154.5285  140.2222  155.8857 H   0  0  0  0  0  0  0  0  0  0  0  0  # atno 8010 bound_to 7997
  140.0527  143.5044  152.2073 H   0  0  0  0  0  0  0  0  0  0  0  0  # atno 10167 bound_to 10162
  157.3410  131.0935  151.1083 H   0  0  0  0  0  0  0  0  0  0  0  0  # atno 10718 bound_to 10713
  153.0519  135.5064  154.7887 H   0  0  0  0  0  0  0  0  0  0  0  0  # atno 10763 bound_to 10752
  154.6743  135.2958  154.9703 H   0  0  0  0  0  0  0  0  0  0  0  0  # atno 10764 bound_to 10752
  154.0510  135.6704  153.4853 H   0  0  0  0  0  0  0  0  0  0  0  0  # atno 10765 bound_to 10752
  140.3878  134.1852  155.7663 H   0  0  0  0  0  0  0  0  0  0  0  0  # atno 11005 bound_to 11000
  145.7060  139.1673  143.2565 LP  0  0  0  0  0  0  0  0  0  0  0  0  # atno 17320 bound_to 7965
  146.1381  140.7095  142.9380 LP  0  0  0  0  0  0  0  0  0  0  0  0  # atno 17321 bound_to 7965
  139.5943  144.7561  151.3324 LP  0  0  0  0  0  0  0  0  0  0  0  0  # atno 17342 bound_to 10162
  140.7209  143.7138  150.7749 LP  0  0  0  0  0  0  0  0  0  0  0  0  # atno 17343 bound_to 10162
  157.2295  130.6518  149.5844 LP  0  0  0  0  0  0  0  0  0  0  0  0  # atno 17370 bound_to 10713
  155.9707  130.4603  150.6069 LP  0  0  0  0  0  0  0  0  0  0  0  0  # atno 17371 bound_to 10713
  141.1901  133.8223  157.0930 LP  0  0  0  0  0  0  0  0  0  0  0  0  # atno 17394 bound_to 11000
  140.0430  134.9845  157.0996 LP  0  0  0  0  0  0  0  0  0  0  0  0  # atno 17395 bound_to 11000

$$$$
