AV-unprocessed.smi:287|AV-procd|sdf|2196|dock10
  -GOLD-   2262022 03D 1   1.00000     0.00000
 Structure written by MMmdl.
 55 58  0  0  0  0  0  0  0  0  1 V2000
  154.1124  140.7609  161.0081 C   0  0  0  0  0  0  0  0  0  0  0  0
  153.2920  141.7835  160.2996 C   0  0  0  0  0  0  0  0  0  0  0  0
  152.7416  141.8550  159.0532 C   0  0  0  0  0  0  0  0  0  0  0  0
  152.0589  143.1043  158.9594 C   0  0  0  0  0  0  0  0  0  0  0  0
  151.2877  143.6104  157.7474 C   0  0  2  0  0  0  0  0  0  0  0  0
  151.7611  145.0245  157.3671 C   0  0  0  0  0  0  0  0  0  0  0  0
  149.9012  143.7449  157.9936 O   0  0  0  0  0  0  0  0  0  0  0  0
  151.4251  142.6617  156.5357 C   0  0  0  0  0  0  0  0  0  0  0  0
  150.1387  142.2399  155.9965 N   0  0  0  0  0  0  0  0  0  0  0  0
  149.9487  140.9819  155.5467 C   0  0  0  0  0  0  0  0  0  0  0  0
  150.9261  140.1012  155.8638 N   0  0  0  0  0  0  0  0  0  0  0  0
  150.8398  138.8323  155.4610 C   0  0  0  0  0  0  0  0  0  0  0  0
  149.8760  138.2508  154.7477 N   0  0  0  0  0  0  0  0  0  0  0  0
  148.8788  139.1238  154.4211 C   0  0  0  0  0  0  0  0  0  0  0  0
  148.8419  140.5036  154.7829 C   0  0  0  0  0  0  0  0  0  0  0  0
  147.6823  141.0788  154.2788 N   0  0  0  0  0  0  0  0  0  0  0  0
  147.0835  140.1044  153.6536 C   0  0  0  0  0  0  0  0  0  0  0  0
  147.7218  138.8854  153.6946 N   0  0  0  0  0  0  0  0  0  0  0  0
  147.2458  137.6258  153.0201 C   0  0  1  0  0  0  0  0  0  0  0  0
  146.7506  136.7658  153.9956 O   0  0  0  0  0  0  0  0  0  0  0  0
  145.3438  136.9264  154.1065 C   0  0  2  0  0  0  0  0  0  0  0  0
  144.7238  135.6628  154.7220 C   0  0  0  0  0  0  0  0  0  0  0  0
  145.0313  134.5360  153.9289 O   0  0  0  0  0  0  0  0  0  0  0  0
  144.9115  137.1727  152.6522 C   0  0  1  0  0  0  0  0  0  0  0  0
  143.7785  138.0167  152.6117 O   0  0  0  0  0  0  0  0  0  0  0  0
  146.1196  137.8497  151.9957 C   0  0  2  0  0  0  0  0  0  0  0  0
  146.4174  137.2211  150.7649 O   0  0  0  0  0  0  0  0  0  0  0  0
  152.2479  143.6995  160.1841 C   0  0  0  0  0  0  0  0  0  0  0  0
  151.8094  144.9922  160.7896 C   0  0  0  0  0  0  0  0  0  0  0  0
  152.9969  142.9069  161.0003 O   0  0  0  0  0  0  0  0  0  0  0  0
  148.1531  137.2107  152.5788 H   0  0  0  0  0  0  0  0  0  0  0  0
  145.1254  137.7960  154.7265 H   0  0  0  0  0  0  0  0  0  0  0  0
  144.6834  136.2242  152.1625 H   0  0  0  0  0  0  0  0  0  0  0  0
  145.9750  138.9124  151.8044 H   0  0  0  0  0  0  0  0  0  0  0  0
  154.1823  139.8438  160.4226 H   0  0  0  0  0  0  0  0  0  0  0  0
  153.6715  140.5120  161.9736 H   0  0  0  0  0  0  0  0  0  0  0  0
  155.1236  141.1295  161.1813 H   0  0  0  0  0  0  0  0  0  0  0  0
  152.8180  141.0934  158.2912 H   0  0  0  0  0  0  0  0  0  0  0  0
  152.8190  145.0337  157.1021 H   0  0  0  0  0  0  0  0  0  0  0  0
  151.6240  145.7243  158.1927 H   0  0  0  0  0  0  0  0  0  0  0  0
  151.2099  145.4135  156.5099 H   0  0  0  0  0  0  0  0  0  0  0  0
  149.4703  143.9461  157.1771 H   0  0  0  0  0  0  0  0  0  0  0  0
  152.0369  143.1157  155.7549 H   0  0  0  0  0  0  0  0  0  0  0  0
  151.9439  141.7595  156.8631 H   0  0  0  0  0  0  0  0  0  0  0  0
  149.3981  142.9243  156.0509 H   0  0  0  0  0  0  0  0  0  0  0  0
  151.6592  138.1912  155.7500 H   0  0  0  0  0  0  0  0  0  0  0  0
  146.1469  140.2519  153.1357 H   0  0  0  0  0  0  0  0  0  0  0  0
  145.1413  135.4870  155.7138 H   0  0  0  0  0  0  0  0  0  0  0  0
  143.6442  135.7644  154.8371 H   0  0  0  0  0  0  0  0  0  0  0  0
  145.2444  133.8142  154.5004 H   0  0  0  0  0  0  0  0  0  0  0  0
  144.0741  138.9142  152.6076 H   0  0  0  0  0  0  0  0  0  0  0  0
  147.2384  136.7616  150.8539 H   0  0  0  0  0  0  0  0  0  0  0  0
  152.2221  145.8369  160.2380 H   0  0  0  0  0  0  0  0  0  0  0  0
  152.1383  145.0758  161.8259 H   0  0  0  0  0  0  0  0  0  0  0  0
  150.7225  145.0755  160.7759 H   0  0  0  0  0  0  0  0  0  0  0  0
  1  2  1  0  0  0  0
  1 35  1  0  0  0  0
  1 36  1  0  0  0  0
  1 37  1  0  0  0  0
  2 30  1  0  0  0  0
  2  3  2  0  0  0  0
  3  4  1  0  0  0  0
  3 38  1  0  0  0  0
  4  5  1  0  0  0  0
  4 28  2  0  0  0  0
  5  6  1  0  0  0  0
  5  7  1  0  0  0  0
  5  8  1  0  0  0  0
  6 39  1  0  0  0  0
  6 40  1  0  0  0  0
  6 41  1  0  0  0  0
  7 42  1  0  0  0  0
  8  9  1  0  0  0  0
  8 43  1  0  0  0  0
  8 44  1  0  0  0  0
  9 10  1  0  0  0  0
  9 45  1  0  0  0  0
 10 15  1  0  0  0  0
 10 11  2  0  0  0  0
 11 12  1  0  0  0  0
 12 13  2  0  0  0  0
 12 46  1  0  0  0  0
 13 14  1  0  0  0  0
 14 18  1  0  0  0  0
 14 15  2  0  0  0  0
 15 16  1  0  0  0  0
 16 17  2  0  0  0  0
 17 18  1  0  0  0  0
 17 47  1  0  0  0  0
 18 19  1  0  0  0  0
 19 31  1  0  0  0  0
 19 26  1  0  0  0  0
 19 20  1  0  0  0  0
 20 21  1  0  0  0  0
 21 32  1  0  0  0  0
 21 22  1  0  0  0  0
 21 24  1  0  0  0  0
 22 23  1  0  0  0  0
 22 48  1  0  0  0  0
 22 49  1  0  0  0  0
 23 50  1  0  0  0  0
 24 33  1  0  0  0  0
 24 25  1  0  0  0  0
 24 26  1  0  0  0  0
 25 51  1  0  0  0  0
 26 34  1  0  0  0  0
 26 27  1  0  0  0  0
 27 52  1  0  0  0  0
 28 29  1  0  0  0  0
 28 30  1  0  0  0  0
 29 53  1  0  0  0  0
 29 54  1  0  0  0  0
 29 55  1  0  0  0  0
M  END
> <s_m_source_file>
AV-unprocessed.smi

> <i_m_source_file_index>
287

> <i_lp_mmshare_version>
43012

> <i_f3d_flags>
0

> <s_epik_input>
W0NIM11jMVtjSF1jKGMobzEpW0NIM10pW0NAQF0oW0NIM10pKFtPSF0pW0NIMl1bTkhdYyhuW2NIXW4yKWMoYzIzKW5bY0hdbjNbQ0BASF00T1tDQEhdKFtDSDJdW09IXSlbQ0BASF0oW09IXSlbQ0BIXTRbT0hd

> <s_epik_cmdline>
J2VwaWtfcHl0aG9uJywgJy1waCcsICc3LjAnLCAnLXRuJywgJzgnLCAnLW1hJywgJzIwMCcsICctbWV0YWxfYmluZGluZycsICctaW1hZScsICc8aW5maWxlLm1hZT4nLCAnLW9tYWUnLCAnPG91dGZpbGUubWFlPic=

> <r_lp_tautomer_probability>
1

> <r_epik_Ionization_Penalty>
0.000992612

> <r_epik_Ionization_Penalty_Charging>
0

> <r_epik_Ionization_Penalty_Neutral>
0.000992612

> <r_epik_State_Penalty>
-0

> <r_epik_Charging_Adjusted_Penalty>
0

> <i_epik_Tot_Q>
0

> <i_epik_Tot_abs_Q>
0

> <r_epik_Metal_State_Penalty>
-0

> <b_epik_Metal_Only>
0

> <s_epik_Chemistry_Notes>
This compound contains an acetal/aminal-like group ( X-CH(R)-Y where X, Y are N, S, or O) that may be acid/base labile, releasing an aldehyde.

> <s_lp_Force_Field>
OPLS_2005

> <r_lp_Energy>
37.3025

> <b_lp_Chiralities_Consistent>
1

> <s_lp_Variant>
AV-unprocessed.smi:287-20

> <Gold.Version>
5.8.1

> <Gold.Id.Protein>
6NUR|6NUR_protein|mol2

> <Gold.PLP.Fitness>
57.4023

> <Gold.PLP.PLP>
-46.5516

> <Gold.PLP.part.hbond>
-7.1807

> <Gold.PLP.part.metal>
0.0000

> <Gold.PLP.part.buried>
-4.8206

> <Gold.PLP.part.nonpolar>
-37.8088

> <Gold.PLP.part.repulsive>
0.5572

> <Gold.PLP.ligand.clash>
0.0000

> <Gold.PLP.ligand.torsion>
1.7577

> <Gold.PLP.Chemscore.Hbond>
3.8437

> <Gold.PLP.Chemscore.CHOScore>
0.9142

> <Gold.PLP.Chemscore.Metal>
0.0000

> <Gold.Chemscore.Hbonds>
donor molecule, donor type, donor heavy atom, donor atom, acceptor molecule, acceptor atom, score
      L1  H     7    42       P1  8028  1.00
      L1  H     9    45       P1  8028  0.91
      L1  H    25    51       P1 10175  0.91
      L1  H    27    52       P1  7948  1.00
      L1  C    17    47       P1 10175  0.93

> <Gold.PLP.Chemscore.Internal.Correction>
0.0924

> <Gold.Rescore>
     Score         DG    S(hbond)    S(metal)    S(lipo)     H(rot)  DE(clash)    DE(int)     intcor
     12.25     -18.17       3.59        0.00     121.05       5.27       4.24       1.68       ----

> <Gold.Chemscore.Fitness>
12.2476

> <Gold.Chemscore.DG>
-18.1656

> <Gold.Chemscore.ZeroCoef>
-5.4800

> <Gold.Chemscore.Hbond>
3.5950

> <Gold.Chemscore.Metal>
0.0000

> <Gold.Chemscore.Lipo>
121.0460

> <Gold.Chemscore.Internal_Hbond>
0.0000

> <Gold.Chemscore.DEClash>
4.2414

> <Gold.Chemscore.DEInternal>
1.6766

> <Gold.Chemscore.Rot>
5.2672

> <Gold.Chemscore.Internal.Correction>
   9.000000E+99

> <Gold.Chemscore.Hbonds>
donor molecule, donor type, donor heavy atom, donor atom, acceptor molecule, acceptor atom, score
      L1  H     7    42       P1  8028  0.55
      L1  H     9    45       P1  8028  0.89
      L1  H    25    51       P1 10175  0.88
      L1  H    27    52       P1  7948  0.93

> <Gold.Chemscore.Hbond.Weighted>
-12.0072

> <Gold.Chemscore.Metal.Weighted>
-0.0000

> <Gold.Chemscore.Lipo.Weighted>
-14.1624

> <Gold.Chemscore.Internal_Hbond.Weighted>
0.0000

> <Gold.Chemscore.DEClash.Weighted>
4.2414

> <Gold.Chemscore.DEInternal.Weighted>
1.6766

> <Gold.Chemscore.Rot.Weighted>
13.4839

> <Gold.Chemscore.Internal.Correction.Weighted>
   9.000000E+99

> <Gold.Protein.RotatedTorsions>
[ 6907 6896 6895 6894 ] final  171.98 input  -60.11 | X-H torsion
[ 7974 7965 7964 7962 ] final  -97.33 input  175.53 | X-H torsion
[ 8008 7997 7996 7995 ] final   38.14 input   59.86 | X-H torsion
[ 10167 10162 10161 10158 ] final  -52.40 input  -65.29 | X-H torsion
[ 10718 10713 10712 10709 ] final  110.41 input   66.30 | X-H torsion
[ 10763 10752 10751 10750 ] final   78.66 input  -60.55 | X-H torsion
[ 11005 11000 10999 10996 ] final -108.89 input  -57.11 | X-H torsion

> <Gold.Protein.ActiveResidues>
 VAL166  LYS551  ARG553  GLY616  TRP617  ASP618  TYR619  PRO620  LYS621  CYS622 
 ASP623  PHE694  ASN695  SER759  ASP760  ASP761  ALA762  ILE779  LEU786  VAL792 
 PHE793  MET794  SER795  GLU796  ALA797  LYS798  CYS799  TRP800  GLU811  SER814 

> <Gold.Protein.RotatedAtoms>
  151.7916  133.3360  159.3500 H   0  0  0  0  0  0  0  0  0  0  0  0  # atno 6907 bound_to 6896
  150.7390  134.5837  159.5961 H   0  0  0  0  0  0  0  0  0  0  0  0  # atno 6908 bound_to 6896
  152.3206  134.7386  160.0366 H   0  0  0  0  0  0  0  0  0  0  0  0  # atno 6909 bound_to 6896
  145.3351  140.9449  143.2640 H   0  0  0  0  0  0  0  0  0  0  0  0  # atno 7974 bound_to 7965
  155.2154  140.3326  155.4323 H   0  0  0  0  0  0  0  0  0  0  0  0  # atno 8008 bound_to 7997
  156.2354  140.1870  156.7180 H   0  0  0  0  0  0  0  0  0  0  0  0  # atno 8009 bound_to 7997
  154.6051  140.0617  156.9405 H   0  0  0  0  0  0  0  0  0  0  0  0  # atno 8010 bound_to 7997
  140.6539  143.2585  151.4642 H   0  0  0  0  0  0  0  0  0  0  0  0  # atno 10167 bound_to 10162
  157.6495  131.0932  150.6597 H   0  0  0  0  0  0  0  0  0  0  0  0  # atno 10718 bound_to 10713
  153.0892  135.4868  154.8656 H   0  0  0  0  0  0  0  0  0  0  0  0  # atno 10763 bound_to 10752
  154.7248  135.3047  154.8991 H   0  0  0  0  0  0  0  0  0  0  0  0  # atno 10764 bound_to 10752
  153.9644  135.6808  153.4799 H   0  0  0  0  0  0  0  0  0  0  0  0  # atno 10765 bound_to 10752
  141.0877  133.9110  157.2147 H   0  0  0  0  0  0  0  0  0  0  0  0  # atno 11005 bound_to 11000
  144.8834  139.4873  143.6712 LP  0  0  0  0  0  0  0  0  0  0  0  0  # atno 17320 bound_to 7965
  146.3030  139.7487  142.9077 LP  0  0  0  0  0  0  0  0  0  0  0  0  # atno 17321 bound_to 7965
  139.5758  144.1821  152.1901 LP  0  0  0  0  0  0  0  0  0  0  0  0  # atno 17342 bound_to 10162
  140.1132  144.5439  150.6911 LP  0  0  0  0  0  0  0  0  0  0  0  0  # atno 17343 bound_to 10162
  156.6910  130.4595  149.5600 LP  0  0  0  0  0  0  0  0  0  0  0  0  # atno 17370 bound_to 10713
  156.1861  130.6530  151.1008 LP  0  0  0  0  0  0  0  0  0  0  0  0  # atno 17371 bound_to 10713
  139.9698  135.0131  156.9482 LP  0  0  0  0  0  0  0  0  0  0  0  0  # atno 17394 bound_to 11000
  140.5324  134.0800  155.7319 LP  0  0  0  0  0  0  0  0  0  0  0  0  # atno 17395 bound_to 11000

$$$$
