AV-unprocessed.smi:1381|AV-procd|sdf|5602|dock1
  -GOLD-   22720 5213D 1   1.00000     0.00000
 Structure written by MMmdl.
 42 43  0  0  0  0  0  0  0  0  1 V2000
  143.9076  132.4011  149.1467 C   0  0  0  0  0  0  0  0  0  0  0  0
  144.9353  132.5234  150.2194 C   0  0  0  0  0  0  0  0  0  0  0  0
  145.7683  133.5393  150.5956 C   0  0  0  0  0  0  0  0  0  0  0  0
  146.4840  132.9787  151.6868 C   0  0  0  0  0  0  0  0  0  0  0  0
  147.4700  133.7318  152.3743 N   0  0  0  0  0  0  0  0  0  0  0  0
  147.8906  133.5686  153.6403 C   0  0  0  0  0  0  0  0  0  0  0  0
  147.4709  132.7159  154.4234 O   0  0  0  0  0  0  0  0  0  0  0  0
  148.8396  134.4611  153.9577 N   0  0  0  0  0  0  0  0  0  0  0  0
  149.5015  134.5508  155.2537 C   0  0  0  0  0  0  0  0  0  0  0  0
  149.3461  135.9555  155.8661 C   0  0  0  0  0  0  0  0  0  0  0  0
  149.8566  137.0484  155.0405 N   0  0  0  0  0  0  0  0  0  0  0  0
  149.1666  138.3113  155.2939 C   0  0  0  0  0  0  0  0  0  0  0  0
  149.7327  139.4605  154.4370 C   0  0  1  0  0  0  0  0  0  0  0  0
  149.0724  140.8047  154.7609 C   0  0  0  0  0  0  0  0  0  0  0  0
  151.1319  139.5794  154.6785 O   0  0  0  0  0  0  0  0  0  0  0  0
  151.8547  138.3840  154.3986 C   0  0  1  0  0  0  0  0  0  0  0  0
  153.3384  138.6407  154.6825 C   0  0  0  0  0  0  0  0  0  0  0  0
  151.2855  137.2408  155.2600 C   0  0  0  0  0  0  0  0  0  0  0  0
  146.1217  131.7329  151.9520 N   0  0  0  0  0  0  0  0  0  0  0  0
  145.1276  131.4345  151.0127 O   0  0  0  0  0  0  0  0  0  0  0  0
  144.3705  132.1226  148.2001 H   0  0  0  0  0  0  0  0  0  0  0  0
  143.3835  133.3461  149.0025 H   0  0  0  0  0  0  0  0  0  0  0  0
  143.1675  131.6411  149.3982 H   0  0  0  0  0  0  0  0  0  0  0  0
  145.8500  134.5233  150.1585 H   0  0  0  0  0  0  0  0  0  0  0  0
  147.9005  134.4754  151.8450 H   0  0  0  0  0  0  0  0  0  0  0  0
  149.1230  135.1287  153.2555 H   0  0  0  0  0  0  0  0  0  0  0  0
  149.0538  133.8072  155.9137 H   0  0  0  0  0  0  0  0  0  0  0  0
  150.5511  134.2772  155.1407 H   0  0  0  0  0  0  0  0  0  0  0  0
  148.2979  136.1389  156.1075 H   0  0  0  0  0  0  0  0  0  0  0  0
  149.8769  135.9600  156.8191 H   0  0  0  0  0  0  0  0  0  0  0  0
  148.1034  138.2102  155.0792 H   0  0  0  0  0  0  0  0  0  0  0  0
  149.2491  138.5706  156.3507 H   0  0  0  0  0  0  0  0  0  0  0  0
  149.5748  139.2390  153.3800 H   0  0  0  0  0  0  0  0  0  0  0  0
  147.9979  140.7680  154.5796 H   0  0  0  0  0  0  0  0  0  0  0  0
  149.4866  141.6010  154.1420 H   0  0  0  0  0  0  0  0  0  0  0  0
  149.2271  141.0791  155.8047 H   0  0  0  0  0  0  0  0  0  0  0  0
  151.7371  138.1385  153.3416 H   0  0  0  0  0  0  0  0  0  0  0  0
  153.9373  137.7544  154.4719 H   0  0  0  0  0  0  0  0  0  0  0  0
  153.4988  138.9135  155.7259 H   0  0  0  0  0  0  0  0  0  0  0  0
  153.7181  139.4539  154.0636 H   0  0  0  0  0  0  0  0  0  0  0  0
  151.4706  137.4538  156.3143 H   0  0  0  0  0  0  0  0  0  0  0  0
  151.8200  136.3180  155.0307 H   0  0  0  0  0  0  0  0  0  0  0  0
  1  2  1  0  0  0  0
  1 21  1  0  0  0  0
  1 22  1  0  0  0  0
  1 23  1  0  0  0  0
  2 20  1  0  0  0  0
  2  3  2  0  0  0  0
  3  4  1  0  0  0  0
  3 24  1  0  0  0  0
  4  5  1  0  0  0  0
  4 19  2  0  0  0  0
  5  6  1  0  0  0  0
  5 25  1  0  0  0  0
  6  7  2  0  0  0  0
  6  8  1  0  0  0  0
  8  9  1  0  0  0  0
  8 26  1  0  0  0  0
  9 10  1  0  0  0  0
  9 27  1  0  0  0  0
  9 28  1  0  0  0  0
 10 11  1  0  0  0  0
 10 29  1  0  0  0  0
 10 30  1  0  0  0  0
 11 18  1  0  0  0  0
 11 12  1  0  0  0  0
 12 13  1  0  0  0  0
 12 31  1  0  0  0  0
 12 32  1  0  0  0  0
 13 14  1  0  0  0  0
 13 15  1  0  0  0  0
 13 33  1  0  0  0  0
 14 34  1  0  0  0  0
 14 35  1  0  0  0  0
 14 36  1  0  0  0  0
 15 16  1  0  0  0  0
 16 17  1  0  0  0  0
 16 18  1  0  0  0  0
 16 37  1  0  0  0  0
 17 38  1  0  0  0  0
 17 39  1  0  0  0  0
 17 40  1  0  0  0  0
 18 41  1  0  0  0  0
 18 42  1  0  0  0  0
 19 20  1  0  0  0  0
M  END
> <s_m_source_file>
AV-unprocessed.smi

> <i_m_source_file_index>
1381

> <i_lp_mmshare_version>
43012

> <i_f3d_flags>
0

> <s_epik_input>
W0NIM11jMVtjSF1jKG5vMSlbTkhdQyg9TylbTkhdW0NIMl1bQ0gyXU4yW0NIMl1bQ0BASF0oW0NIM10pT1tDQEBIXShbQ0gzXSlbQ0gyXTI=

> <s_epik_cmdline>
J2VwaWtfcHl0aG9uJywgJy1waCcsICc3LjAnLCAnLXRuJywgJzgnLCAnLW1hJywgJzIwMCcsICctbWV0YWxfYmluZGluZycsICctaW1hZScsICc8aW5maWxlLm1hZT4nLCAnLW9tYWUnLCAnPG91dGZpbGUubWFlPic=

> <r_epik_Ionization_Penalty>
0.214073

> <r_epik_Ionization_Penalty_Charging>
0

> <r_epik_Ionization_Penalty_Neutral>
0.214073

> <r_epik_State_Penalty>
0.204211

> <r_epik_Charging_Adjusted_Penalty>
0.204211

> <i_epik_Tot_Q>
0

> <i_epik_Tot_abs_Q>
0

> <r_epik_Metal_State_Penalty>
0.217067

> <b_epik_Metal_Only>
0

> <s_lp_Force_Field>
OPLS_2005

> <r_lp_Energy>
17.1752

> <b_lp_Chiralities_Consistent>
1

> <s_lp_Variant>
AV-unprocessed.smi:1381-1

> <Gold.Version>
5.8.1

> <Gold.Id.Protein>
6NUR|6NUR_protein|mol2

> <Gold.PLP.Fitness>
41.5341

> <Gold.PLP.PLP>
-33.8490

> <Gold.PLP.part.hbond>
-3.0000

> <Gold.PLP.part.metal>
0.0000

> <Gold.PLP.part.buried>
-6.1515

> <Gold.PLP.part.nonpolar>
-26.3266

> <Gold.PLP.part.repulsive>
0.5259

> <Gold.PLP.ligand.clash>
0.0000

> <Gold.PLP.ligand.torsion>
0.4462

> <Gold.PLP.Chemscore.Hbond>
2.8428

> <Gold.PLP.Chemscore.CHOScore>
0.0000

> <Gold.PLP.Chemscore.Metal>
0.0000

> <Gold.Chemscore.Hbonds>
donor molecule, donor type, donor heavy atom, donor atom, acceptor molecule, acceptor atom, score
      L1  H     5    25       P1  7948  0.79
      L1  H     8    26       P1  7948  0.90
      P1  H  7989  7998       L1    15  1.00

> <Gold.PLP.Chemscore.Internal.Correction>
0.0491

> <Gold.Rescore>
     Score         DG    S(hbond)    S(metal)    S(lipo)     H(rot)  DE(clash)    DE(int)     intcor
     13.74     -15.46       1.50        0.00      76.91       1.57       0.12       1.60       ----

> <Gold.Chemscore.Fitness>
13.7394

> <Gold.Chemscore.DG>
-15.4634

> <Gold.Chemscore.ZeroCoef>
-5.4800

> <Gold.Chemscore.Hbond>
1.4979

> <Gold.Chemscore.Metal>
0.0000

> <Gold.Chemscore.Lipo>
76.9145

> <Gold.Chemscore.Internal_Hbond>
0.0000

> <Gold.Chemscore.DEClash>
0.1238

> <Gold.Chemscore.DEInternal>
1.6002

> <Gold.Chemscore.Rot>
1.5697

> <Gold.Chemscore.Internal.Correction>
   9.000000E+99

> <Gold.Chemscore.Hbonds>
donor molecule, donor type, donor heavy atom, donor atom, acceptor molecule, acceptor atom, score
      L1  H     5    25       P1  7948  0.11
      L1  H     8    26       P1  7948  0.18
      P1  H  7989  7998       L1    15  0.28

> <Gold.Chemscore.Hbond.Weighted>
-5.0029

> <Gold.Chemscore.Metal.Weighted>
-0.0000

> <Gold.Chemscore.Lipo.Weighted>
-8.9990

> <Gold.Chemscore.Internal_Hbond.Weighted>
0.0000

> <Gold.Chemscore.DEClash.Weighted>
0.1238

> <Gold.Chemscore.DEInternal.Weighted>
1.6002

> <Gold.Chemscore.Rot.Weighted>
4.0185

> <Gold.Chemscore.Internal.Correction.Weighted>
   9.000000E+99

> <Gold.Protein.RotatedTorsions>
[ 6907 6896 6895 6894 ] final -166.34 input  -60.11 | X-H torsion
[ 7974 7965 7964 7962 ] final -109.09 input  175.53 | X-H torsion
[ 8008 7997 7996 7995 ] final  -29.24 input   59.86 | X-H torsion
[ 10167 10162 10161 10158 ] final  -37.55 input  -65.29 | X-H torsion
[ 10718 10713 10712 10709 ] final  168.14 input   66.30 | X-H torsion
[ 10763 10752 10751 10750 ] final -109.93 input  -60.55 | X-H torsion
[ 11005 11000 10999 10996 ] final  -79.01 input  -57.11 | X-H torsion

> <Gold.Protein.ActiveResidues>
 VAL166  LYS551  ARG553  GLY616  TRP617  ASP618  TYR619  PRO620  LYS621  CYS622 
 ASP623  PHE694  ASN695  SER759  ASP760  ASP761  ALA762  ILE779  LEU786  VAL792 
 PHE793  MET794  SER795  GLU796  ALA797  LYS798  CYS799  TRP800  GLU811  SER814 

> <Gold.Protein.RotatedAtoms>
  151.4421  133.3640  159.2782 H   0  0  0  0  0  0  0  0  0  0  0  0  # atno 6907 bound_to 6896
  150.9150  134.8569  159.7462 H   0  0  0  0  0  0  0  0  0  0  0  0  # atno 6908 bound_to 6896
  152.4952  134.4354  159.9578 H   0  0  0  0  0  0  0  0  0  0  0  0  # atno 6909 bound_to 6896
  145.1848  140.8988  143.3459 H   0  0  0  0  0  0  0  0  0  0  0  0  # atno 7974 bound_to 7965
  154.4298  140.1823  156.1216 H   0  0  0  0  0  0  0  0  0  0  0  0  # atno 8008 bound_to 7997
  156.0138  140.3348  155.6943 H   0  0  0  0  0  0  0  0  0  0  0  0  # atno 8009 bound_to 7997
  155.6073  140.0646  157.2707 H   0  0  0  0  0  0  0  0  0  0  0  0  # atno 8010 bound_to 7997
  140.7115  143.3335  151.2516 H   0  0  0  0  0  0  0  0  0  0  0  0  # atno 10167 bound_to 10162
  157.0414  131.0288  151.2712 H   0  0  0  0  0  0  0  0  0  0  0  0  # atno 10718 bound_to 10713
  154.8220  135.4583  154.0807 H   0  0  0  0  0  0  0  0  0  0  0  0  # atno 10763 bound_to 10752
  153.2153  135.6887  153.8071 H   0  0  0  0  0  0  0  0  0  0  0  0  # atno 10764 bound_to 10752
  153.7508  135.3298  155.3297 H   0  0  0  0  0  0  0  0  0  0  0  0  # atno 10765 bound_to 10752
  141.1666  133.7087  156.8058 H   0  0  0  0  0  0  0  0  0  0  0  0  # atno 11005 bound_to 11000
  145.0100  139.3519  143.6125 LP  0  0  0  0  0  0  0  0  0  0  0  0  # atno 17320 bound_to 7965
  146.3447  139.9358  142.8747 LP  0  0  0  0  0  0  0  0  0  0  0  0  # atno 17321 bound_to 7965
  139.6823  143.9833  152.2815 LP  0  0  0  0  0  0  0  0  0  0  0  0  # atno 17342 bound_to 10162
  139.9467  144.6647  150.8212 LP  0  0  0  0  0  0  0  0  0  0  0  0  # atno 17343 bound_to 10162
  157.5101  130.7933  149.7696 LP  0  0  0  0  0  0  0  0  0  0  0  0  # atno 17370 bound_to 10713
  156.0037  130.3867  150.2511 LP  0  0  0  0  0  0  0  0  0  0  0  0  # atno 17371 bound_to 10713
  140.2223  134.8747  157.3390 LP  0  0  0  0  0  0  0  0  0  0  0  0  # atno 17394 bound_to 11000
  140.1975  134.4296  155.7681 LP  0  0  0  0  0  0  0  0  0  0  0  0  # atno 17395 bound_to 11000

$$$$
