AV-unprocessed.smi:1464|AV-procd|sdf|5950|dock3
  -GOLD-   22720 6 33D 1   1.00000     0.00000
 Structure written by MMmdl.
 41 42  0  0  0  0  0  0  0  0  1 V2000
  153.0831  142.9266  162.8212 C   0  0  0  0  0  0  0  0  0  0  0  0
  152.4910  143.1384  161.4163 C   0  0  1  0  0  0  0  0  0  0  0  0
  152.2305  144.6409  161.1821 C   0  0  0  0  0  0  0  0  0  0  0  0
  151.6264  144.9154  159.7987 C   0  0  0  0  0  0  0  0  0  0  0  0
  152.5228  144.3513  158.6875 C   0  0  0  0  0  0  0  0  0  0  0  0
  152.7979  142.8471  158.8823 C   0  0  2  0  0  0  0  0  0  0  0  0
  151.5879  142.0602  158.6401 N   0  0  0  0  0  0  0  0  0  0  0  0
  151.5348  140.8840  157.9974 C   0  0  0  0  0  0  0  0  0  0  0  0
  152.5223  140.3375  157.5041 O   0  0  0  0  0  0  0  0  0  0  0  0
  150.1437  140.2453  157.8787 C   0  0  0  0  0  0  0  0  0  0  0  0
  149.6794  140.1271  156.4891 N   0  0  0  0  0  0  0  0  0  0  0  0
  149.3760  141.3386  155.8864 N   0  0  0  0  0  0  0  0  0  0  0  0
  148.9705  141.3653  154.6617 C   0  0  0  0  0  0  0  0  0  0  0  0
  148.6850  142.5867  154.1026 O   0  0  0  0  0  0  0  0  0  0  0  0
  148.8190  140.1473  153.8962 C   0  0  0  0  0  0  0  0  0  0  0  0
  149.1121  138.9718  154.4940 C   0  0  0  0  0  0  0  0  0  0  0  0
  149.5751  138.9053  155.8813 C   0  0  0  0  0  0  0  0  0  0  0  0
  149.8470  137.8488  156.4515 O   0  0  0  0  0  0  0  0  0  0  0  0
  153.3851  142.5526  160.2873 C   0  0  2  0  0  0  0  0  0  0  0  0
  153.6772  141.0485  160.4653 C   0  0  0  0  0  0  0  0  0  0  0  0
  149.0009  143.2262  154.7225 H   0  0  0  0  0  0  0  0  0  0  0  0
  154.0841  143.3520  162.8983 H   0  0  0  0  0  0  0  0  0  0  0  0
  153.1453  141.8699  163.0796 H   0  0  0  0  0  0  0  0  0  0  0  0
  152.4626  143.4012  163.5821 H   0  0  0  0  0  0  0  0  0  0  0  0
  151.5275  142.6274  161.3908 H   0  0  0  0  0  0  0  0  0  0  0  0
  151.5598  145.0269  161.9505 H   0  0  0  0  0  0  0  0  0  0  0  0
  153.1642  145.1959  161.2840 H   0  0  0  0  0  0  0  0  0  0  0  0
  150.6317  144.4724  159.7357 H   0  0  0  0  0  0  0  0  0  0  0  0
  151.4943  145.9885  159.6584 H   0  0  0  0  0  0  0  0  0  0  0  0
  152.0704  144.5349  157.7122 H   0  0  0  0  0  0  0  0  0  0  0  0
  153.4708  144.8909  158.6860 H   0  0  0  0  0  0  0  0  0  0  0  0
  153.5474  142.5482  158.1469 H   0  0  0  0  0  0  0  0  0  0  0  0
  150.7251  142.4371  159.0049 H   0  0  0  0  0  0  0  0  0  0  0  0
  150.1471  139.2617  158.3530 H   0  0  0  0  0  0  0  0  0  0  0  0
  149.4455  140.8485  158.4619 H   0  0  0  0  0  0  0  0  0  0  0  0
  148.4791  140.1871  152.8719 H   0  0  0  0  0  0  0  0  0  0  0  0
  149.0036  138.0546  153.9337 H   0  0  0  0  0  0  0  0  0  0  0  0
  154.3472  143.0649  160.3380 H   0  0  0  0  0  0  0  0  0  0  0  0
  152.7594  140.4670  160.5578 H   0  0  0  0  0  0  0  0  0  0  0  0
  154.2817  140.8586  161.3517 H   0  0  0  0  0  0  0  0  0  0  0  0
  154.2338  140.6557  159.6139 H   0  0  0  0  0  0  0  0  0  0  0  0
  1  2  1  0  0  0  0
  1 22  1  0  0  0  0
  1 23  1  0  0  0  0
  1 24  1  0  0  0  0
  2 19  1  0  0  0  0
  2  3  1  0  0  0  0
  2 25  1  0  0  0  0
  3  4  1  0  0  0  0
  3 26  1  0  0  0  0
  3 27  1  0  0  0  0
  4  5  1  0  0  0  0
  4 28  1  0  0  0  0
  4 29  1  0  0  0  0
  5  6  1  0  0  0  0
  5 30  1  0  0  0  0
  5 31  1  0  0  0  0
  6  7  1  0  0  0  0
  6 19  1  0  0  0  0
  6 32  1  0  0  0  0
  7  8  1  0  0  0  0
  7 33  1  0  0  0  0
  8  9  2  0  0  0  0
  8 10  1  0  0  0  0
 10 34  1  0  0  0  0
 10 35  1  0  0  0  0
 10 11  1  0  0  0  0
 11 12  1  0  0  0  0
 11 17  1  0  0  0  0
 12 13  2  0  0  0  0
 13 14  1  0  0  0  0
 13 15  1  0  0  0  0
 14 21  1  0  0  0  0
 15 36  1  0  0  0  0
 15 16  2  0  0  0  0
 16 37  1  0  0  0  0
 16 17  1  0  0  0  0
 17 18  2  0  0  0  0
 19 20  1  0  0  0  0
 19 38  1  0  0  0  0
 20 39  1  0  0  0  0
 20 40  1  0  0  0  0
 20 41  1  0  0  0  0
M  END
> <s_m_source_file>
AV-unprocessed.smi

> <i_m_source_file_index>
1464

> <i_lp_mmshare_version>
43012

> <i_f3d_flags>
0

> <s_epik_input>
W0NIM11bQ0BASF0xW0NIMl1bQ0gyXVtDSDJdW0NASF0oW0NASF0xW0NIM10pW05IXUMoPU8pW0NIMl1uMltuSF1jKD1PKVtjSF1bY0hdYzI9Tw==

> <s_epik_cmdline>
J2VwaWtfcHl0aG9uJywgJy1waCcsICc3LjAnLCAnLXRuJywgJzgnLCAnLW1hJywgJzIwMCcsICctbWV0YWxfYmluZGluZycsICctaW1hZScsICc8aW5maWxlLm1hZT4nLCAnLW9tYWUnLCAnPG91dGZpbGUubWFlPic=

> <r_lp_tautomer_probability>
0.9996

> <r_epik_Ionization_Penalty>
2.10335

> <r_epik_Ionization_Penalty_Charging>
3.98079e-08

> <r_epik_Ionization_Penalty_Neutral>
2.10335

> <r_epik_State_Penalty>
1.67957

> <r_epik_Charging_Adjusted_Penalty>
1.67957

> <i_epik_Tot_Q>
0

> <i_epik_Tot_abs_Q>
0

> <r_epik_Metal_State_Penalty>
1.67957

> <b_epik_Metal_Only>
0

> <s_lp_Force_Field>
OPLS_2005

> <r_lp_Energy>
23.2489

> <b_lp_Chiralities_Consistent>
1

> <s_lp_Variant>
AV-unprocessed.smi:1464-16

> <Gold.Version>
5.8.1

> <Gold.Id.Protein>
6NUR|6NUR_protein|mol2

> <Gold.PLP.Fitness>
51.0637

> <Gold.PLP.PLP>
-45.8077

> <Gold.PLP.part.hbond>
-3.4500

> <Gold.PLP.part.metal>
0.0000

> <Gold.PLP.part.buried>
-1.9097

> <Gold.PLP.part.nonpolar>
-39.0905

> <Gold.PLP.part.repulsive>
0.1661

> <Gold.PLP.ligand.clash>
0.0000

> <Gold.PLP.ligand.torsion>
0.4136

> <Gold.PLP.Chemscore.Hbond>
2.0218

> <Gold.PLP.Chemscore.CHOScore>
0.0000

> <Gold.PLP.Chemscore.Metal>
0.0000

> <Gold.Chemscore.Hbonds>
donor molecule, donor type, donor heavy atom, donor atom, acceptor molecule, acceptor atom, score
      L1  H    14    21       P1  8028  1.00
      P1  H  7997  8008       L1     9  0.92
      P1  H  8011  8017       L1    14  0.09

> <Gold.PLP.Chemscore.Internal.Correction>
0.0178

> <Gold.Rescore>
     Score         DG    S(hbond)    S(metal)    S(lipo)     H(rot)  DE(clash)    DE(int)     intcor
     18.79     -19.21       1.86        0.00     112.74       2.22       0.23       0.19       ----

> <Gold.Chemscore.Fitness>
18.7859

> <Gold.Chemscore.DG>
-19.2086

> <Gold.Chemscore.ZeroCoef>
-5.4800

> <Gold.Chemscore.Hbond>
1.8646

> <Gold.Chemscore.Metal>
0.0000

> <Gold.Chemscore.Lipo>
112.7354

> <Gold.Chemscore.Internal_Hbond>
0.0000

> <Gold.Chemscore.DEClash>
0.2304

> <Gold.Chemscore.DEInternal>
0.1923

> <Gold.Chemscore.Rot>
2.2224

> <Gold.Chemscore.Internal.Correction>
   9.000000E+99

> <Gold.Chemscore.Hbonds>
donor molecule, donor type, donor heavy atom, donor atom, acceptor molecule, acceptor atom, score
      L1  H    14    21       P1  8028  0.97
      P1  H  7997  8008       L1     9  0.84
      P1  H  8011  8017       L1    14  0.03

> <Gold.Chemscore.Hbond.Weighted>
-6.2279

> <Gold.Chemscore.Metal.Weighted>
-0.0000

> <Gold.Chemscore.Lipo.Weighted>
-13.1900

> <Gold.Chemscore.Internal_Hbond.Weighted>
0.0000

> <Gold.Chemscore.DEClash.Weighted>
0.2304

> <Gold.Chemscore.DEInternal.Weighted>
0.1923

> <Gold.Chemscore.Rot.Weighted>
5.6893

> <Gold.Chemscore.Internal.Correction.Weighted>
   9.000000E+99

> <Gold.Protein.RotatedTorsions>
[ 6907 6896 6895 6894 ] final -103.17 input  -60.11 | X-H torsion
[ 7974 7965 7964 7962 ] final  140.66 input  175.53 | X-H torsion
[ 8008 7997 7996 7995 ] final  -66.90 input   59.86 | X-H torsion
[ 10167 10162 10161 10158 ] final  160.20 input  -65.29 | X-H torsion
[ 10718 10713 10712 10709 ] final  101.38 input   66.30 | X-H torsion
[ 10763 10752 10751 10750 ] final -110.34 input  -60.55 | X-H torsion
[ 11005 11000 10999 10996 ] final   69.08 input  -57.11 | X-H torsion

> <Gold.Protein.ActiveResidues>
 VAL166  LYS551  ARG553  GLY616  TRP617  ASP618  TYR619  PRO620  LYS621  CYS622 
 ASP623  PHE694  ASN695  SER759  ASP760  ASP761  ALA762  ILE779  LEU786  VAL792 
 PHE793  MET794  SER795  GLU796  ALA797  LYS798  CYS799  TRP800  GLU811  SER814 

> <Gold.Protein.RotatedAtoms>
  150.7228  134.0470  159.3785 H   0  0  0  0  0  0  0  0  0  0  0  0  # atno 6907 bound_to 6896
  151.8446  135.0576  160.0461 H   0  0  0  0  0  0  0  0  0  0  0  0  # atno 6908 bound_to 6896
  152.2837  133.5458  159.5550 H   0  0  0  0  0  0  0  0  0  0  0  0  # atno 6909 bound_to 6896
  144.9166  139.5222  143.5683 H   0  0  0  0  0  0  0  0  0  0  0  0  # atno 7974 bound_to 7965
  154.4764  140.0903  156.7273 H   0  0  0  0  0  0  0  0  0  0  0  0  # atno 8008 bound_to 7997
  155.4584  140.3460  155.4291 H   0  0  0  0  0  0  0  0  0  0  0  0  # atno 8009 bound_to 7997
  156.1123  140.1451  156.9309 H   0  0  0  0  0  0  0  0  0  0  0  0  # atno 8010 bound_to 7997
  139.4838  144.4656  151.8645 H   0  0  0  0  0  0  0  0  0  0  0  0  # atno 10167 bound_to 10162
  157.6831  131.0724  150.5243 H   0  0  0  0  0  0  0  0  0  0  0  0  # atno 10718 bound_to 10713
  154.8242  135.4568  154.0870 H   0  0  0  0  0  0  0  0  0  0  0  0  # atno 10763 bound_to 10752
  153.2198  135.6892  153.8020 H   0  0  0  0  0  0  0  0  0  0  0  0  # atno 10764 bound_to 10752
  153.7442  135.3308  155.3286 H   0  0  0  0  0  0  0  0  0  0  0  0  # atno 10765 bound_to 10752
  139.9674  134.6957  156.0516 H   0  0  0  0  0  0  0  0  0  0  0  0  # atno 11005 bound_to 11000
  146.3185  139.8014  142.8965 LP  0  0  0  0  0  0  0  0  0  0  0  0  # atno 17320 bound_to 7965
  145.3365  141.0278  143.3417 LP  0  0  0  0  0  0  0  0  0  0  0  0  # atno 17321 bound_to 7965
  140.4122  144.2354  150.5888 LP  0  0  0  0  0  0  0  0  0  0  0  0  # atno 17342 bound_to 10162
  140.4956  143.2334  151.8755 LP  0  0  0  0  0  0  0  0  0  0  0  0  # atno 17343 bound_to 10162
  156.5556  130.4242  149.6087 LP  0  0  0  0  0  0  0  0  0  0  0  0  # atno 17370 bound_to 10713
  156.2865  130.7100  151.1938 LP  0  0  0  0  0  0  0  0  0  0  0  0  # atno 17371 bound_to 10713
  141.1354  133.6576  156.3579 LP  0  0  0  0  0  0  0  0  0  0  0  0  # atno 17394 bound_to 11000
  140.5366  134.6161  157.5367 LP  0  0  0  0  0  0  0  0  0  0  0  0  # atno 17395 bound_to 11000

$$$$
