AV-unprocessed.smi:2510|AV-procd|sdf|9884|dock3
  -GOLD-   2272013523D 1   1.00000     0.00000
 Structure written by MMmdl.
 48 49  0  0  0  0  0  0  0  0  1 V2000
  150.6951  143.9771  158.8810 C   0  0  0  0  0  0  0  0  0  0  0  0
  151.2727  143.2222  157.6688 C   0  0  0  0  0  0  0  0  0  0  0  0
  150.8761  141.7258  157.5136 C   0  0  0  0  0  0  0  0  0  0  0  0
  151.3252  140.9470  158.7693 C   0  0  0  0  0  0  0  0  0  0  0  0
  152.7696  141.2244  159.2167 C   0  0  0  0  0  0  0  0  0  0  0  0
  149.4400  141.3983  157.0156 C   0  0  1  0  0  0  0  0  0  0  0  0
  148.4268  142.4060  157.3047 N   0  0  0  0  0  0  0  0  0  0  0  0
  147.3262  142.1871  158.0395 C   0  0  0  0  0  0  0  0  0  0  0  0
  147.0710  141.1092  158.5763 O   0  0  0  0  0  0  0  0  0  0  0  0
  146.3665  143.3661  158.1955 C   0  0  0  0  0  0  0  0  0  0  0  0
  146.0284  143.5866  159.6346 C   0  0  0  0  0  0  0  0  0  0  0  0
  144.8680  143.3878  160.3290 C   0  0  0  0  0  0  0  0  0  0  0  0
  145.1800  143.7902  161.6606 C   0  0  0  0  0  0  0  0  0  0  0  0
  144.2809  143.7941  162.8617 C   0  0  0  0  0  0  0  0  0  0  0  0
  146.4337  144.2000  161.7848 N   0  0  0  0  0  0  0  0  0  0  0  0
  146.9414  144.0695  160.5452 N   0  0  0  0  0  0  0  0  0  0  0  0
  149.9389  141.4708  155.5694 C   0  0  2  0  0  0  0  0  0  0  0  0
  149.2876  140.5973  154.5040 C   0  0  0  0  0  0  0  0  0  0  0  0
  151.3200  141.1179  156.1515 C   0  0  2  0  0  0  0  0  0  0  0  0
  151.5327  139.7120  156.2324 O   0  0  0  0  0  0  0  0  0  0  0  0
  151.8928  139.1308  154.9906 C   0  0  0  0  0  0  0  0  0  0  0  0
  147.8993  144.3132  160.3380 H   0  0  0  0  0  0  0  0  0  0  0  0
  150.9427  145.0369  158.8183 H   0  0  0  0  0  0  0  0  0  0  0  0
  151.1078  143.6136  159.8217 H   0  0  0  0  0  0  0  0  0  0  0  0
  149.6115  143.9017  158.9392 H   0  0  0  0  0  0  0  0  0  0  0  0
  150.9853  143.7782  156.7767 H   0  0  0  0  0  0  0  0  0  0  0  0
  152.3586  143.3121  157.7019 H   0  0  0  0  0  0  0  0  0  0  0  0
  150.6442  141.1251  159.6007 H   0  0  0  0  0  0  0  0  0  0  0  0
  151.2380  139.8756  158.5864 H   0  0  0  0  0  0  0  0  0  0  0  0
  153.0385  140.5863  160.0586 H   0  0  0  0  0  0  0  0  0  0  0  0
  152.9045  142.2568  159.5374 H   0  0  0  0  0  0  0  0  0  0  0  0
  153.4803  141.0259  158.4144 H   0  0  0  0  0  0  0  0  0  0  0  0
  149.1325  140.3808  157.2707 H   0  0  0  0  0  0  0  0  0  0  0  0
  148.5623  143.3230  156.9046 H   0  0  0  0  0  0  0  0  0  0  0  0
  146.8304  144.2614  157.7800 H   0  0  0  0  0  0  0  0  0  0  0  0
  145.4600  143.1889  157.6146 H   0  0  0  0  0  0  0  0  0  0  0  0
  143.9317  143.0136  159.9419 H   0  0  0  0  0  0  0  0  0  0  0  0
  143.2777  143.4536  162.6047 H   0  0  0  0  0  0  0  0  0  0  0  0
  144.1924  144.7957  163.2831 H   0  0  0  0  0  0  0  0  0  0  0  0
  144.6647  143.1357  163.6411 H   0  0  0  0  0  0  0  0  0  0  0  0
  149.9572  142.5085  155.2314 H   0  0  0  0  0  0  0  0  0  0  0  0
  149.2466  139.5520  154.8111 H   0  0  0  0  0  0  0  0  0  0  0  0
  149.8354  140.6466  153.5631 H   0  0  0  0  0  0  0  0  0  0  0  0
  148.2651  140.9191  154.3064 H   0  0  0  0  0  0  0  0  0  0  0  0
  152.1520  141.6570  155.6942 H   0  0  0  0  0  0  0  0  0  0  0  0
  152.0022  138.0530  155.1089 H   0  0  0  0  0  0  0  0  0  0  0  0
  152.8453  139.5275  154.6371 H   0  0  0  0  0  0  0  0  0  0  0  0
  151.1366  139.3108  154.2266 H   0  0  0  0  0  0  0  0  0  0  0  0
  1  2  1  0  0  0  0
  1 23  1  0  0  0  0
  1 24  1  0  0  0  0
  1 25  1  0  0  0  0
  2  3  1  0  0  0  0
  2 26  1  0  0  0  0
  2 27  1  0  0  0  0
  3 19  1  0  0  0  0
  3  4  1  0  0  0  0
  3  6  1  0  0  0  0
  4  5  1  0  0  0  0
  4 28  1  0  0  0  0
  4 29  1  0  0  0  0
  5 30  1  0  0  0  0
  5 31  1  0  0  0  0
  5 32  1  0  0  0  0
  6  7  1  0  0  0  0
  6 17  1  0  0  0  0
  6 33  1  0  0  0  0
  7  8  1  0  0  0  0
  7 34  1  0  0  0  0
  8  9  2  0  0  0  0
  8 10  1  0  0  0  0
 10 35  1  0  0  0  0
 10 36  1  0  0  0  0
 10 11  1  0  0  0  0
 11 16  1  0  0  0  0
 11 12  2  0  0  0  0
 12 13  1  0  0  0  0
 12 37  1  0  0  0  0
 13 14  1  0  0  0  0
 13 15  2  0  0  0  0
 14 38  1  0  0  0  0
 14 39  1  0  0  0  0
 14 40  1  0  0  0  0
 15 16  1  0  0  0  0
 16 22  1  0  0  0  0
 17 18  1  0  0  0  0
 17 19  1  0  0  0  0
 17 41  1  0  0  0  0
 18 42  1  0  0  0  0
 18 43  1  0  0  0  0
 18 44  1  0  0  0  0
 19 20  1  0  0  0  0
 19 45  1  0  0  0  0
 20 21  1  0  0  0  0
 21 46  1  0  0  0  0
 21 47  1  0  0  0  0
 21 48  1  0  0  0  0
M  END
> <s_m_source_file>
AV-unprocessed.smi

> <i_m_source_file_index>
2510

> <i_lp_mmshare_version>
43012

> <i_f3d_flags>
0

> <s_epik_input>
W0NIM11PW0NAQEhdMVtDQEhdKFtDSDNdKVtDQEBIXShDMShbQ0gyXVtDSDNdKVtDSDJdW0NIM10pW05IXUMoPU8pW0NIMl1jMltjSF1jKFtDSDNdKVtuSF1uMg==

> <s_epik_cmdline>
J2VwaWtfcHl0aG9uJywgJy1waCcsICc3LjAnLCAnLXRuJywgJzgnLCAnLW1hJywgJzIwMCcsICctbWV0YWxfYmluZGluZycsICctaW1hZScsICc8aW5maWxlLm1hZT4nLCAnLW9tYWUnLCAnPG91dGZpbGUubWFlPic=

> <r_lp_tautomer_probability>
0.5

> <r_epik_Ionization_Penalty>
0.000134763

> <r_epik_Ionization_Penalty_Charging>
0

> <r_epik_Ionization_Penalty_Neutral>
0.000134763

> <r_epik_State_Penalty>
0.41068

> <r_epik_Charging_Adjusted_Penalty>
0.41068

> <i_epik_Tot_Q>
0

> <i_epik_Tot_abs_Q>
0

> <r_epik_Metal_State_Penalty>
0.410661

> <b_epik_Metal_Only>
0

> <s_lp_Force_Field>
OPLS_2005

> <r_lp_Energy>
27.4462

> <b_lp_Chiralities_Consistent>
1

> <s_lp_Variant>
AV-unprocessed.smi:2510-15

> <Gold.Version>
5.8.1

> <Gold.Id.Protein>
6NUR|6NUR_protein|mol2

> <Gold.PLP.Fitness>
42.0212

> <Gold.PLP.PLP>
-38.8499

> <Gold.PLP.part.hbond>
-2.0000

> <Gold.PLP.part.metal>
0.0000

> <Gold.PLP.part.buried>
-6.5039

> <Gold.PLP.part.nonpolar>
-31.0104

> <Gold.PLP.part.repulsive>
0.2787

> <Gold.PLP.ligand.clash>
0.0000

> <Gold.PLP.ligand.torsion>
0.6221

> <Gold.PLP.Chemscore.Hbond>
1.2122

> <Gold.PLP.Chemscore.CHOScore>
0.0000

> <Gold.PLP.Chemscore.Metal>
0.0000

> <Gold.Chemscore.Hbonds>
donor molecule, donor type, donor heavy atom, donor atom, acceptor molecule, acceptor atom, score
      L1  H     7    34       P1  8028  1.00
      P1  H  6934  6946       L1     9  0.20

> <Gold.PLP.Chemscore.Internal.Correction>
0.7791

> <Gold.Rescore>
     Score         DG    S(hbond)    S(metal)    S(lipo)     H(rot)  DE(clash)    DE(int)     intcor
     14.42     -15.25       0.80        0.00     100.19       1.81       0.02       0.80       ----

> <Gold.Chemscore.Fitness>
14.4247

> <Gold.Chemscore.DG>
-15.2455

> <Gold.Chemscore.ZeroCoef>
-5.4800

> <Gold.Chemscore.Hbond>
0.8015

> <Gold.Chemscore.Metal>
0.0000

> <Gold.Chemscore.Lipo>
100.1941

> <Gold.Chemscore.Internal_Hbond>
0.0000

> <Gold.Chemscore.DEClash>
0.0245

> <Gold.Chemscore.DEInternal>
0.7963

> <Gold.Chemscore.Rot>
1.8102

> <Gold.Chemscore.Internal.Correction>
   9.000000E+99

> <Gold.Chemscore.Hbonds>
donor molecule, donor type, donor heavy atom, donor atom, acceptor molecule, acceptor atom, score
      L1  H     7    34       P1  8028  0.40
      P1  H  6934  6946       L1     9  0.20

> <Gold.Chemscore.Hbond.Weighted>
-2.6769

> <Gold.Chemscore.Metal.Weighted>
-0.0000

> <Gold.Chemscore.Lipo.Weighted>
-11.7227

> <Gold.Chemscore.Internal_Hbond.Weighted>
0.0000

> <Gold.Chemscore.DEClash.Weighted>
0.0245

> <Gold.Chemscore.DEInternal.Weighted>
0.7963

> <Gold.Chemscore.Rot.Weighted>
4.6341

> <Gold.Chemscore.Internal.Correction.Weighted>
   9.000000E+99

> <Gold.Protein.RotatedTorsions>
[ 6907 6896 6895 6894 ] final -140.31 input  -60.11 | X-H torsion
[ 7974 7965 7964 7962 ] final  120.30 input  175.53 | X-H torsion
[ 8008 7997 7996 7995 ] final -156.85 input   59.86 | X-H torsion
[ 10167 10162 10161 10158 ] final   10.95 input  -65.29 | X-H torsion
[ 10718 10713 10712 10709 ] final -110.59 input   66.30 | X-H torsion
[ 10763 10752 10751 10750 ] final  -63.97 input  -60.55 | X-H torsion
[ 11005 11000 10999 10996 ] final -149.81 input  -57.11 | X-H torsion

> <Gold.Protein.ActiveResidues>
 VAL166  LYS551  ARG553  GLY616  TRP617  ASP618  TYR619  PRO620  LYS621  CYS622 
 ASP623  PHE694  ASN695  SER759  ASP760  ASP761  ALA762  ILE779  LEU786  VAL792 
 PHE793  MET794  SER795  GLU796  ALA797  LYS798  CYS799  TRP800  GLU811  SER814 

> <Gold.Protein.RotatedAtoms>
  151.0591  133.5559  159.2635 H   0  0  0  0  0  0  0  0  0  0  0  0  # atno 6907 bound_to 6896
  151.2541  135.0631  159.9083 H   0  0  0  0  0  0  0  0  0  0  0  0  # atno 6908 bound_to 6896
  152.5394  134.0347  159.8094 H   0  0  0  0  0  0  0  0  0  0  0  0  # atno 6909 bound_to 6896
  145.1328  139.3316  143.4656 H   0  0  0  0  0  0  0  0  0  0  0  0  # atno 7974 bound_to 7965
  155.7235  140.0793  157.2320 H   0  0  0  0  0  0  0  0  0  0  0  0  # atno 8008 bound_to 7997
  154.4042  140.1608  156.2483 H   0  0  0  0  0  0  0  0  0  0  0  0  # atno 8009 bound_to 7997
  155.9175  140.3400  155.6149 H   0  0  0  0  0  0  0  0  0  0  0  0  # atno 8010 bound_to 7997
  140.6162  143.8302  150.7121 H   0  0  0  0  0  0  0  0  0  0  0  0  # atno 10167 bound_to 10162
  156.0599  130.5823  150.8258 H   0  0  0  0  0  0  0  0  0  0  0  0  # atno 10718 bound_to 10713
  154.3230  135.6192  153.5516 H   0  0  0  0  0  0  0  0  0  0  0  0  # atno 10763 bound_to 10752
  152.9818  135.5728  154.5048 H   0  0  0  0  0  0  0  0  0  0  0  0  # atno 10764 bound_to 10752
  154.4720  135.2859  155.1612 H   0  0  0  0  0  0  0  0  0  0  0  0  # atno 10765 bound_to 10752
  140.7469  134.3451  157.5135 H   0  0  0  0  0  0  0  0  0  0  0  0  # atno 11005 bound_to 11000
  146.3512  140.1334  142.8596 LP  0  0  0  0  0  0  0  0  0  0  0  0  # atno 17320 bound_to 7965
  145.0616  140.9092  143.4935 LP  0  0  0  0  0  0  0  0  0  0  0  0  # atno 17321 bound_to 7965
  140.1882  143.4058  152.1883 LP  0  0  0  0  0  0  0  0  0  0  0  0  # atno 17342 bound_to 10162
  139.5401  144.7248  151.4763 LP  0  0  0  0  0  0  0  0  0  0  0  0  # atno 17343 bound_to 10162
  157.5600  131.0945  150.9573 LP  0  0  0  0  0  0  0  0  0  0  0  0  # atno 17370 bound_to 10713
  156.9813  130.5528  149.5296 LP  0  0  0  0  0  0  0  0  0  0  0  0  # atno 17371 bound_to 10713
  139.8795  134.9117  156.3042 LP  0  0  0  0  0  0  0  0  0  0  0  0  # atno 17394 bound_to 11000
  140.9786  133.7281  156.0639 LP  0  0  0  0  0  0  0  0  0  0  0  0  # atno 17395 bound_to 11000

$$$$
