AV-unprocessed.smi:48|AV-procd|sdf|462|dock1
  -GOLD-   2262016333D 1   1.00000     0.00000
 Structure written by MMmdl.
 30 32  0  0  0  0  0  0  0  0  1 V2000
  152.1356  137.4852  153.8132 O   0  0  0  0  0  0  0  0  0  0  0  0
  151.6138  137.8475  155.0737 C   0  0  0  0  0  0  0  0  0  0  0  0
  151.4187  139.3695  155.1468 C   0  0  2  0  0  0  0  0  0  0  0  0
  152.3749  139.9351  156.0348 O   0  0  0  0  0  0  0  0  0  0  0  0
  151.9104  141.1658  156.4954 C   0  0  2  0  0  0  0  0  0  0  0  0
  152.2678  141.2773  157.9417 N   0  0  0  0  0  0  0  0  0  0  0  0
  152.7626  140.3098  158.7406 C   0  0  0  0  0  0  0  0  0  0  0  0
  153.0056  140.6276  160.0115 N   0  0  0  0  0  0  0  0  0  0  0  0
  152.6139  141.9558  160.0438 C   0  0  0  0  0  0  0  0  0  0  0  0
  152.5940  142.9257  161.0754 C   0  0  0  0  0  0  0  0  0  0  0  0
  153.1353  142.5399  162.6677 Cl  0  0  0  0  0  0  0  0  0  0  0  0
  152.1395  144.1679  160.7842 N   0  0  0  0  0  0  0  0  0  0  0  0
  151.7257  144.4399  159.5406 C   0  0  0  0  0  0  0  0  0  0  0  0
  151.6885  143.6350  158.4726 N   0  0  0  0  0  0  0  0  0  0  0  0
  152.1473  142.3829  158.7680 C   0  0  0  0  0  0  0  0  0  0  0  0
  150.3855  141.2001  156.2948 C   0  0  1  0  0  0  0  0  0  0  0  0
  150.0253  142.1918  155.3502 O   0  0  0  0  0  0  0  0  0  0  0  0
  150.0954  139.7864  155.7907 C   0  0  1  0  0  0  0  0  0  0  0  0
  149.0007  139.7170  154.8958 O   0  0  0  0  0  0  0  0  0  0  0  0
  151.5150  139.8337  154.1630 H   0  0  0  0  0  0  0  0  0  0  0  0
  152.4384  141.9869  156.0075 H   0  0  0  0  0  0  0  0  0  0  0  0
  149.8656  141.4048  157.2319 H   0  0  0  0  0  0  0  0  0  0  0  0
  149.8842  139.1393  156.6422 H   0  0  0  0  0  0  0  0  0  0  0  0
  151.4207  137.2097  153.2601 H   0  0  0  0  0  0  0  0  0  0  0  0
  150.6553  137.3406  155.1881 H   0  0  0  0  0  0  0  0  0  0  0  0
  152.2654  137.4920  155.8727 H   0  0  0  0  0  0  0  0  0  0  0  0
  152.9587  139.3149  158.3681 H   0  0  0  0  0  0  0  0  0  0  0  0
  151.3755  145.4481  159.3759 H   0  0  0  0  0  0  0  0  0  0  0  0
  149.7809  142.9771  155.8153 H   0  0  0  0  0  0  0  0  0  0  0  0
  149.1045  138.9490  154.3552 H   0  0  0  0  0  0  0  0  0  0  0  0
  1  2  1  0  0  0  0
  1 24  1  0  0  0  0
  2  3  1  0  0  0  0
  2 25  1  0  0  0  0
  2 26  1  0  0  0  0
  3 20  1  0  0  0  0
  3 18  1  0  0  0  0
  3  4  1  0  0  0  0
  4  5  1  0  0  0  0
  5 21  1  0  0  0  0
  5  6  1  0  0  0  0
  5 16  1  0  0  0  0
  6 15  1  0  0  0  0
  6  7  1  0  0  0  0
  7  8  2  0  0  0  0
  7 27  1  0  0  0  0
  8  9  1  0  0  0  0
  9 15  2  0  0  0  0
  9 10  1  0  0  0  0
 10 11  1  0  0  0  0
 10 12  2  0  0  0  0
 12 13  1  0  0  0  0
 13 14  2  0  0  0  0
 13 28  1  0  0  0  0
 14 15  1  0  0  0  0
 16 22  1  0  0  0  0
 16 17  1  0  0  0  0
 16 18  1  0  0  0  0
 17 29  1  0  0  0  0
 18 23  1  0  0  0  0
 18 19  1  0  0  0  0
 19 30  1  0  0  0  0
M  END
> <s_m_source_file>
AV-unprocessed.smi

> <i_m_source_file_index>
48

> <i_lp_mmshare_version>
43012

> <i_f3d_flags>
0

> <s_epik_input>
W09IXVtDSDJdW0NASF0xT1tDQEhdKFtDQEhdKFtPSF0pW0NAQEhdMVtPSF0pbihbY0hdbjIpYyhjMjMpbltjSF1uYzNDbA==

> <s_epik_cmdline>
J2VwaWtfcHl0aG9uJywgJy1waCcsICc3LjAnLCAnLXRuJywgJzgnLCAnLW1hJywgJzIwMCcsICctbWV0YWxfYmluZGluZycsICctaW1hZScsICc8aW5maWxlLm1hZT4nLCAnLW9tYWUnLCAnPG91dGZpbGUubWFlPic=

> <r_lp_tautomer_probability>
1

> <r_epik_Ionization_Penalty>
3.45505e-06

> <r_epik_Ionization_Penalty_Charging>
0

> <r_epik_Ionization_Penalty_Neutral>
3.45505e-06

> <r_epik_State_Penalty>
-0

> <r_epik_Charging_Adjusted_Penalty>
0

> <i_epik_Tot_Q>
0

> <i_epik_Tot_abs_Q>
0

> <r_epik_Metal_State_Penalty>
-0

> <b_epik_Metal_Only>
0

> <s_epik_Chemistry_Notes>
This compound contains an acetal/aminal-like group ( X-CH(R)-Y where X, Y are N, S, or O) that may be acid/base labile, releasing an aldehyde.

> <s_lp_Force_Field>
OPLS_2005

> <r_lp_Energy>
36.5243

> <b_lp_Chiralities_Consistent>
1

> <s_lp_Variant>
AV-unprocessed.smi:48-16

> <Gold.Version>
5.8.1

> <Gold.Id.Protein>
6NUR|6NUR_protein|mol2

> <Gold.PLP.Fitness>
44.7798

> <Gold.PLP.PLP>
-36.5243

> <Gold.PLP.part.hbond>
-4.0892

> <Gold.PLP.part.metal>
0.0000

> <Gold.PLP.part.buried>
-6.3264

> <Gold.PLP.part.nonpolar>
-25.2218

> <Gold.PLP.part.repulsive>
0.1664

> <Gold.PLP.ligand.clash>
0.0000

> <Gold.PLP.ligand.torsion>
0.8348

> <Gold.PLP.Chemscore.Hbond>
3.3030

> <Gold.PLP.Chemscore.CHOScore>
0.0000

> <Gold.PLP.Chemscore.Metal>
0.0000

> <Gold.Chemscore.Hbonds>
donor molecule, donor type, donor heavy atom, donor atom, acceptor molecule, acceptor atom, score
      L1  H     1    24       P1  7949  0.49
      L1  H    17    29       P1  8028  0.90
      P1  H  7997  8009       L1     4  1.00
      P1  H 10752 10765       L1     1  0.90

> <Gold.PLP.Chemscore.Internal.Correction>
0.0161

> <Gold.Rescore>
     Score         DG    S(hbond)    S(metal)    S(lipo)     H(rot)  DE(clash)    DE(int)     intcor
      6.98      -8.68       1.81        0.00      58.83       3.80       0.95       0.75       ----

> <Gold.Chemscore.Fitness>
6.9762

> <Gold.Chemscore.DG>
-8.6767

> <Gold.Chemscore.ZeroCoef>
-5.4800

> <Gold.Chemscore.Hbond>
1.8100

> <Gold.Chemscore.Metal>
0.0000

> <Gold.Chemscore.Lipo>
58.8348

> <Gold.Chemscore.Internal_Hbond>
0.0000

> <Gold.Chemscore.DEClash>
0.9515

> <Gold.Chemscore.DEInternal>
0.7490

> <Gold.Chemscore.Rot>
3.8017

> <Gold.Chemscore.Internal.Correction>
   9.000000E+99

> <Gold.Chemscore.Hbonds>
donor molecule, donor type, donor heavy atom, donor atom, acceptor molecule, acceptor atom, score
      L1  H     1    24       P1  7949  0.40
      L1  H    17    29       P1  8028  0.85
      P1  H  7997  8009       L1     4  0.29
      P1  H 10752 10765       L1     1  0.12

> <Gold.Chemscore.Hbond.Weighted>
-6.0454

> <Gold.Chemscore.Metal.Weighted>
-0.0000

> <Gold.Chemscore.Lipo.Weighted>
-6.8837

> <Gold.Chemscore.Internal_Hbond.Weighted>
0.0000

> <Gold.Chemscore.DEClash.Weighted>
0.9515

> <Gold.Chemscore.DEInternal.Weighted>
0.7490

> <Gold.Chemscore.Rot.Weighted>
9.7324

> <Gold.Chemscore.Internal.Correction.Weighted>
   9.000000E+99

> <Gold.Protein.RotatedTorsions>
[ 6907 6896 6895 6894 ] final -157.94 input  -60.11 | X-H torsion
[ 7974 7965 7964 7962 ] final  -13.35 input  175.53 | X-H torsion
[ 8008 7997 7996 7995 ] final -158.58 input   59.86 | X-H torsion
[ 10167 10162 10161 10158 ] final   27.26 input  -65.29 | X-H torsion
[ 10718 10713 10712 10709 ] final  152.63 input   66.30 | X-H torsion
[ 10763 10752 10751 10750 ] final  144.71 input  -60.55 | X-H torsion
[ 11005 11000 10999 10996 ] final  148.10 input  -57.11 | X-H torsion

> <Gold.Protein.ActiveResidues>
 VAL166  LYS551  ARG553  GLY616  TRP617  ASP618  TYR619  PRO620  LYS621  CYS622 
 ASP623  PHE694  ASN695  SER759  ASP760  ASP761  ALA762  ILE779  LEU786  VAL792 
 PHE793  MET794  SER795  GLU796  ALA797  LYS798  CYS799  TRP800  GLU811  SER814 

> <Gold.Protein.RotatedAtoms>
  151.3105  133.4083  159.2646 H   0  0  0  0  0  0  0  0  0  0  0  0  # atno 6907 bound_to 6896
  151.0118  134.9403  159.8022 H   0  0  0  0  0  0  0  0  0  0  0  0  # atno 6908 bound_to 6896
  152.5303  134.3069  159.9151 H   0  0  0  0  0  0  0  0  0  0  0  0  # atno 6909 bound_to 6896
  146.2117  140.3191  142.8389 H   0  0  0  0  0  0  0  0  0  0  0  0  # atno 7974 bound_to 7965
  155.7496  140.0825  157.2207 H   0  0  0  0  0  0  0  0  0  0  0  0  # atno 8008 bound_to 7997
  154.4013  140.1563  156.2765 H   0  0  0  0  0  0  0  0  0  0  0  0  # atno 8009 bound_to 7997
  155.8943  140.3413  155.5982 H   0  0  0  0  0  0  0  0  0  0  0  0  # atno 8010 bound_to 7997
  140.4953  144.0402  150.6312 H   0  0  0  0  0  0  0  0  0  0  0  0  # atno 10167 bound_to 10162
  157.2552  131.0787  151.1703 H   0  0  0  0  0  0  0  0  0  0  0  0  # atno 10718 bound_to 10713
  153.9933  135.2930  155.3410 H   0  0  0  0  0  0  0  0  0  0  0  0  # atno 10763 bound_to 10752
  154.7202  135.5112  153.8803 H   0  0  0  0  0  0  0  0  0  0  0  0  # atno 10764 bound_to 10752
  153.0799  135.6675  154.0183 H   0  0  0  0  0  0  0  0  0  0  0  0  # atno 10765 bound_to 10752
  140.0931  134.9029  157.1681 H   0  0  0  0  0  0  0  0  0  0  0  0  # atno 11005 bound_to 11000
  144.8933  140.7551  143.5913 LP  0  0  0  0  0  0  0  0  0  0  0  0  # atno 17320 bound_to 7965
  145.3114  139.1817  143.4636 LP  0  0  0  0  0  0  0  0  0  0  0  0  # atno 17321 bound_to 7965
  140.3682  143.2869  152.0307 LP  0  0  0  0  0  0  0  0  0  0  0  0  # atno 17342 bound_to 10162
  139.4860  144.6250  151.7182 LP  0  0  0  0  0  0  0  0  0  0  0  0  # atno 17343 bound_to 10162
  157.3235  130.6949  149.6282 LP  0  0  0  0  0  0  0  0  0  0  0  0  # atno 17370 bound_to 10713
  155.9665  130.4328  150.4981 LP  0  0  0  0  0  0  0  0  0  0  0  0  # atno 17371 bound_to 10713
  140.3324  134.2795  155.7225 LP  0  0  0  0  0  0  0  0  0  0  0  0  # atno 17394 bound_to 11000
  141.2084  133.7779  157.0062 LP  0  0  0  0  0  0  0  0  0  0  0  0  # atno 17395 bound_to 11000

$$$$
