AV-unprocessed.smi:2712|AV-procd|sdf|10477|dock5
  -GOLD-   2272014513D 1   1.00000     0.00000
 Structure written by MMmdl.
 52 53  0  0  0  0  0  0  0  0  1 V2000
  152.2606  142.7171  159.6414 C   0  0  0  0  0  0  0  0  0  0  0  0
  151.8839  142.1533  158.3035 C   0  0  0  0  0  0  0  0  0  0  0  0
  151.2900  142.9546  157.2503 C   0  0  0  0  0  0  0  0  0  0  0  0
  150.9767  142.3723  156.0730 C   0  0  0  0  0  0  0  0  0  0  0  0
  151.2215  140.9525  155.8288 C   0  0  0  0  0  0  0  0  0  0  0  0
  150.9436  140.3916  154.7688 O   0  0  0  0  0  0  0  0  0  0  0  0
  151.7897  140.3029  156.8879 N   0  0  0  0  0  0  0  0  0  0  0  0
  152.1201  138.8723  156.8138 C   0  0  0  0  0  0  0  0  0  0  0  0
  152.9150  138.3691  158.0275 C   0  0  0  0  0  0  0  0  0  0  0  0
  154.1028  138.6635  158.1687 O   0  0  0  0  0  0  0  0  0  0  0  0
  152.2336  137.6175  158.9066 N   0  0  0  0  0  0  0  0  0  0  0  0
  152.7831  137.0316  160.1276 C   0  0  1  0  0  0  0  0  0  0  0  0
  153.9368  136.0898  159.7349 C   0  0  0  0  0  0  0  0  0  0  0  0
  154.8973  135.6859  160.8650 C   0  0  0  0  0  0  0  0  0  0  0  0
  154.2449  135.4398  162.2359 C   0  0  0  0  0  0  0  0  0  0  0  0
  154.1551  136.7128  163.1247 C   0  0  2  0  0  0  0  0  0  0  0  0
  154.0019  136.3867  164.6574 C   0  0  0  0  0  0  0  0  0  0  0  0
  155.1857  135.5493  165.1887 C   0  0  0  0  0  0  0  0  0  0  0  0
  152.6948  135.6086  164.9360 C   0  0  0  0  0  0  0  0  0  0  0  0
  153.9088  137.6898  165.4867 C   0  0  0  0  0  0  0  0  0  0  0  0
  153.0777  137.7008  162.5983 C   0  0  0  0  0  0  0  0  0  0  0  0
  153.1943  138.1351  161.1246 C   0  0  0  0  0  0  0  0  0  0  0  0
  152.1069  140.8965  158.0987 N   0  0  0  0  0  0  0  0  0  0  0  0
  151.9189  143.7472  159.7457 H   0  0  0  0  0  0  0  0  0  0  0  0
  153.3429  142.7089  159.7737 H   0  0  0  0  0  0  0  0  0  0  0  0
  151.8161  142.1355  160.4495 H   0  0  0  0  0  0  0  0  0  0  0  0
  151.1032  144.0056  157.4146 H   0  0  0  0  0  0  0  0  0  0  0  0
  150.5346  142.9702  155.2896 H   0  0  0  0  0  0  0  0  0  0  0  0
  151.2084  138.2769  156.7378 H   0  0  0  0  0  0  0  0  0  0  0  0
  152.6792  138.6692  155.8982 H   0  0  0  0  0  0  0  0  0  0  0  0
  151.2611  137.4287  158.7112 H   0  0  0  0  0  0  0  0  0  0  0  0
  152.0007  136.4242  160.5864 H   0  0  0  0  0  0  0  0  0  0  0  0
  153.5044  135.1881  159.2992 H   0  0  0  0  0  0  0  0  0  0  0  0
  154.5326  136.5413  158.9400 H   0  0  0  0  0  0  0  0  0  0  0  0
  155.4123  134.7773  160.5508 H   0  0  0  0  0  0  0  0  0  0  0  0
  155.6842  136.4344  160.9630 H   0  0  0  0  0  0  0  0  0  0  0  0
  153.2671  134.9718  162.1172 H   0  0  0  0  0  0  0  0  0  0  0  0
  154.8612  134.6897  162.7246 H   0  0  0  0  0  0  0  0  0  0  0  0
  155.1091  137.2334  163.0301 H   0  0  0  0  0  0  0  0  0  0  0  0
  155.0602  135.3216  166.2479 H   0  0  0  0  0  0  0  0  0  0  0  0
  156.1352  136.0745  165.0884 H   0  0  0  0  0  0  0  0  0  0  0  0
  155.2782  134.5969  164.6675 H   0  0  0  0  0  0  0  0  0  0  0  0
  152.7266  134.5929  164.5425 H   0  0  0  0  0  0  0  0  0  0  0  0
  151.8305  136.1116  164.5010 H   0  0  0  0  0  0  0  0  0  0  0  0
  152.5086  135.5112  166.0062 H   0  0  0  0  0  0  0  0  0  0  0  0
  153.6665  137.4789  166.5290 H   0  0  0  0  0  0  0  0  0  0  0  0
  153.1316  138.3521  165.1037 H   0  0  0  0  0  0  0  0  0  0  0  0
  154.8427  138.2489  165.5054 H   0  0  0  0  0  0  0  0  0  0  0  0
  152.0797  137.2978  162.7691 H   0  0  0  0  0  0  0  0  0  0  0  0
  153.1255  138.6223  163.1757 H   0  0  0  0  0  0  0  0  0  0  0  0
  154.1946  138.5102  160.9044 H   0  0  0  0  0  0  0  0  0  0  0  0
  152.5305  138.9919  161.0000 H   0  0  0  0  0  0  0  0  0  0  0  0
  1  2  1  0  0  0  0
  1 24  1  0  0  0  0
  1 25  1  0  0  0  0
  1 26  1  0  0  0  0
  2 23  2  0  0  0  0
  2  3  1  0  0  0  0
  3  4  2  0  0  0  0
  3 27  1  0  0  0  0
  4  5  1  0  0  0  0
  4 28  1  0  0  0  0
  5  6  2  0  0  0  0
  5  7  1  0  0  0  0
  7  8  1  0  0  0  0
  7 23  1  0  0  0  0
  8  9  1  0  0  0  0
  8 29  1  0  0  0  0
  8 30  1  0  0  0  0
  9 10  2  0  0  0  0
  9 11  1  0  0  0  0
 11 12  1  0  0  0  0
 11 31  1  0  0  0  0
 12 22  1  0  0  0  0
 12 13  1  0  0  0  0
 12 32  1  0  0  0  0
 13 14  1  0  0  0  0
 13 33  1  0  0  0  0
 13 34  1  0  0  0  0
 14 15  1  0  0  0  0
 14 35  1  0  0  0  0
 14 36  1  0  0  0  0
 15 16  1  0  0  0  0
 15 37  1  0  0  0  0
 15 38  1  0  0  0  0
 16 17  1  0  0  0  0
 16 21  1  0  0  0  0
 16 39  1  0  0  0  0
 17 18  1  0  0  0  0
 17 19  1  0  0  0  0
 17 20  1  0  0  0  0
 18 40  1  0  0  0  0
 18 41  1  0  0  0  0
 18 42  1  0  0  0  0
 19 43  1  0  0  0  0
 19 44  1  0  0  0  0
 19 45  1  0  0  0  0
 20 46  1  0  0  0  0
 20 47  1  0  0  0  0
 20 48  1  0  0  0  0
 21 22  1  0  0  0  0
 21 49  1  0  0  0  0
 21 50  1  0  0  0  0
 22 51  1  0  0  0  0
 22 52  1  0  0  0  0
M  END
> <s_m_source_file>
AV-unprocessed.smi

> <i_m_source_file_index>
2712

> <i_lp_mmshare_version>
43012

> <i_f3d_flags>
0

> <s_epik_input>
W0NIM11jMVtjSF1bY0hdYyg9TyluKG4xKVtDSDJdQyg9TylbTkhdW0NAQEhdMltDSDJdW0NIMl1bQ0gyXVtDQEBIXShDKFtDSDNdKShbQ0gzXSlbQ0gzXSlbQ0gyXVtDSDJdMg==

> <s_epik_cmdline>
J2VwaWtfcHl0aG9uJywgJy1waCcsICc3LjAnLCAnLXRuJywgJzgnLCAnLW1hJywgJzIwMCcsICctbWV0YWxfYmluZGluZycsICctaW1hZScsICc8aW5maWxlLm1hZT4nLCAnLW9tYWUnLCAnPG91dGZpbGUubWFlPic=

> <r_lp_tautomer_probability>
1

> <r_epik_Ionization_Penalty>
8.71758e-07

> <r_epik_Ionization_Penalty_Charging>
8.50442e-07

> <r_epik_Ionization_Penalty_Neutral>
2.13165e-08

> <r_epik_State_Penalty>
-0

> <r_epik_Charging_Adjusted_Penalty>
8.50442e-07

> <i_epik_Tot_Q>
0

> <i_epik_Tot_abs_Q>
0

> <r_epik_Metal_State_Penalty>
-0

> <b_epik_Metal_Only>
0

> <s_lp_Force_Field>
OPLS_2005

> <r_lp_Energy>
38.5576

> <b_lp_Chiralities_Consistent>
1

> <s_lp_Variant>
AV-unprocessed.smi:2712-4

> <Gold.Version>
5.8.1

> <Gold.Id.Protein>
6NUR|6NUR_protein|mol2

> <Gold.PLP.Fitness>
40.8578

> <Gold.PLP.PLP>
-35.4187

> <Gold.PLP.part.hbond>
-1.7008

> <Gold.PLP.part.metal>
0.0000

> <Gold.PLP.part.buried>
-2.0014

> <Gold.PLP.part.nonpolar>
-32.7234

> <Gold.PLP.part.repulsive>
0.1617

> <Gold.PLP.ligand.clash>
0.0000

> <Gold.PLP.ligand.torsion>
0.2739

> <Gold.PLP.Chemscore.Hbond>
1.9675

> <Gold.PLP.Chemscore.CHOScore>
0.0000

> <Gold.PLP.Chemscore.Metal>
0.0000

> <Gold.Chemscore.Hbonds>
donor molecule, donor type, donor heavy atom, donor atom, acceptor molecule, acceptor atom, score
      P1  H  7989  7998       L1     6  0.98
      P1  H  7997  8010       L1    10  1.00

> <Gold.PLP.Chemscore.Internal.Correction>
0.0844

> <Gold.Rescore>
     Score         DG    S(hbond)    S(metal)    S(lipo)     H(rot)  DE(clash)    DE(int)     intcor
     18.13     -20.31       1.92        0.00     105.03       1.52       0.92       1.25       ----

> <Gold.Chemscore.Fitness>
18.1329

> <Gold.Chemscore.DG>
-20.3057

> <Gold.Chemscore.ZeroCoef>
-5.4800

> <Gold.Chemscore.Hbond>
1.9218

> <Gold.Chemscore.Metal>
0.0000

> <Gold.Chemscore.Lipo>
105.0288

> <Gold.Chemscore.Internal_Hbond>
0.0000

> <Gold.Chemscore.DEClash>
0.9193

> <Gold.Chemscore.DEInternal>
1.2535

> <Gold.Chemscore.Rot>
1.5162

> <Gold.Chemscore.Internal.Correction>
   9.000000E+99

> <Gold.Chemscore.Hbonds>
donor molecule, donor type, donor heavy atom, donor atom, acceptor molecule, acceptor atom, score
      P1  H  7989  7998       L1     6  0.86
      P1  H  7997  8010       L1    10  0.98

> <Gold.Chemscore.Hbond.Weighted>
-6.4188

> <Gold.Chemscore.Metal.Weighted>
-0.0000

> <Gold.Chemscore.Lipo.Weighted>
-12.2884

> <Gold.Chemscore.Internal_Hbond.Weighted>
0.0000

> <Gold.Chemscore.DEClash.Weighted>
0.9193

> <Gold.Chemscore.DEInternal.Weighted>
1.2535

> <Gold.Chemscore.Rot.Weighted>
3.8814

> <Gold.Chemscore.Internal.Correction.Weighted>
   9.000000E+99

> <Gold.Protein.RotatedTorsions>
[ 6907 6896 6895 6894 ] final   61.04 input  -60.11 | X-H torsion
[ 7974 7965 7964 7962 ] final   76.42 input  175.53 | X-H torsion
[ 8008 7997 7996 7995 ] final    8.52 input   59.86 | X-H torsion
[ 10167 10162 10161 10158 ] final -172.88 input  -65.29 | X-H torsion
[ 10718 10713 10712 10709 ] final  -71.16 input   66.30 | X-H torsion
[ 10763 10752 10751 10750 ] final  -32.26 input  -60.55 | X-H torsion
[ 11005 11000 10999 10996 ] final   73.41 input  -57.11 | X-H torsion

> <Gold.Protein.ActiveResidues>
 VAL166  LYS551  ARG553  GLY616  TRP617  ASP618  TYR619  PRO620  LYS621  CYS622 
 ASP623  PHE694  ASN695  SER759  ASP760  ASP761  ALA762  ILE779  LEU786  VAL792 
 PHE793  MET794  SER795  GLU796  ALA797  LYS798  CYS799  TRP800  GLU811  SER814 

> <Gold.Protein.RotatedAtoms>
  152.4055  134.6214  160.0051 H   0  0  0  0  0  0  0  0  0  0  0  0  # atno 6907 bound_to 6896
  151.6407  133.3320  159.3137 H   0  0  0  0  0  0  0  0  0  0  0  0  # atno 6908 bound_to 6896
  150.7950  134.7045  159.6613 H   0  0  0  0  0  0  0  0  0  0  0  0  # atno 6909 bound_to 6896
  145.7031  139.2589  143.1694 H   0  0  0  0  0  0  0  0  0  0  0  0  # atno 7974 bound_to 7965
  154.7679  140.2796  155.6161 H   0  0  0  0  0  0  0  0  0  0  0  0  # atno 8008 bound_to 7997
  156.2928  140.2647  156.2402 H   0  0  0  0  0  0  0  0  0  0  0  0  # atno 8009 bound_to 7997
  154.9936  140.0373  157.2320 H   0  0  0  0  0  0  0  0  0  0  0  0  # atno 8010 bound_to 7997
  139.5720  144.1620  152.1397 H   0  0  0  0  0  0  0  0  0  0  0  0  # atno 10167 bound_to 10162
  156.0375  130.4346  150.2403 H   0  0  0  0  0  0  0  0  0  0  0  0  # atno 10718 bound_to 10713
  153.8108  135.6882  153.4841 H   0  0  0  0  0  0  0  0  0  0  0  0  # atno 10763 bound_to 10752
  153.1629  135.4572  154.9796 H   0  0  0  0  0  0  0  0  0  0  0  0  # atno 10764 bound_to 10752
  154.7968  135.3322  154.7589 H   0  0  0  0  0  0  0  0  0  0  0  0  # atno 10765 bound_to 10752
  139.9442  134.7344  156.1022 H   0  0  0  0  0  0  0  0  0  0  0  0  # atno 11005 bound_to 11000
  146.0780  140.7795  142.9655 LP  0  0  0  0  0  0  0  0  0  0  0  0  # atno 17320 bound_to 7965
  144.6963  140.3445  143.7193 LP  0  0  0  0  0  0  0  0  0  0  0  0  # atno 17321 bound_to 7965
  140.1155  144.5419  150.6897 LP  0  0  0  0  0  0  0  0  0  0  0  0  # atno 17342 bound_to 10162
  140.7004  143.2431  151.4881 LP  0  0  0  0  0  0  0  0  0  0  0  0  # atno 17343 bound_to 10162
  157.0501  131.0060  151.3256 LP  0  0  0  0  0  0  0  0  0  0  0  0  # atno 17370 bound_to 10713
  157.5147  130.7960  149.7743 LP  0  0  0  0  0  0  0  0  0  0  0  0  # atno 17371 bound_to 10713
  141.1086  133.6651  156.2925 LP  0  0  0  0  0  0  0  0  0  0  0  0  # atno 17394 bound_to 11000
  140.5877  134.5682  157.5493 LP  0  0  0  0  0  0  0  0  0  0  0  0  # atno 17395 bound_to 11000

$$$$
