AV-unprocessed.smi:1983|AV-procd|sdf|8037|dock3
  -GOLD-   2272010233D 1   1.00000     0.00000
 Structure written by MMmdl.
 50 51  0  0  0  0  0  0  0  0  2 V2000
  144.7188  134.7578  153.2382 C   0  0  0  0  0  0  0  0  0  0  0  0
  145.4853  135.0504  151.9393 C   0  0  1  0  0  0  0  0  0  0  0  0
  144.5422  135.3495  150.7575 C   0  0  0  0  0  0  0  0  0  0  0  0
  145.2231  136.0687  149.7513 O   0  0  0  0  0  0  0  0  0  0  0  0
  146.3887  136.1764  152.1611 N   0  0  0  0  0  0  0  0  0  0  0  0
  146.0137  137.4115  152.5230 C   0  0  0  0  0  0  0  0  0  0  0  0
  144.8471  137.7521  152.7185 O   0  0  0  0  0  0  0  0  0  0  0  0
  147.0653  138.2318  152.6583 N   0  0  0  0  0  0  0  0  0  0  0  0
  146.9797  139.6451  153.0160 C   0  0  0  0  0  0  0  0  0  0  0  0
  147.9401  140.0933  154.1108 C   0  0  0  0  0  0  0  0  0  0  0  0
  148.7362  139.1772  154.8345 C   0  0  0  0  0  0  0  0  0  0  0  0
  149.6052  139.6494  155.8394 C   0  0  0  0  0  0  0  0  0  0  0  0
  149.6837  141.0392  156.1100 C   0  0  0  0  0  0  0  0  0  0  0  0
  150.5156  141.6036  157.1013 N   0  0  0  0  0  0  0  0  0  0  0  0
  149.9625  142.6519  157.9531 C   0  0  0  0  0  0  0  0  0  0  0  0
  151.0751  143.3840  158.7286 C   0  0  2  0  0  0  0  0  0  0  0  0
  151.8777  144.3724  157.8632 C   0  0  0  0  0  0  0  0  0  0  0  0
  151.9171  142.4404  159.3933 O   0  0  0  0  0  0  0  0  0  0  0  0
  152.5143  141.4671  158.5385 C   0  0  1  0  0  0  0  0  0  0  0  0
  153.3832  140.5474  159.4026 C   0  0  0  0  0  0  0  0  0  0  0  0
  151.4142  140.6868  157.7981 C   0  0  0  0  0  0  0  0  0  0  0  0
  148.9061  141.8758  155.3803 N   0  3  0  0  0  0  0  0  0  0  0  0
  148.0583  141.4648  154.4130 C   0  0  0  0  0  0  0  0  0  0  0  0
  144.0644  133.8931  153.1243 H   0  0  0  0  0  0  0  0  0  0  0  0
  144.1003  135.6052  153.5355 H   0  0  0  0  0  0  0  0  0  0  0  0
  145.4046  134.5418  154.0580 H   0  0  0  0  0  0  0  0  0  0  0  0
  146.0853  134.1705  151.6981 H   0  0  0  0  0  0  0  0  0  0  0  0
  144.1336  134.4297  150.3382 H   0  0  0  0  0  0  0  0  0  0  0  0
  143.6973  135.9579  151.0822 H   0  0  0  0  0  0  0  0  0  0  0  0
  144.8940  136.9546  149.7391 H   0  0  0  0  0  0  0  0  0  0  0  0
  147.3730  135.9993  152.0243 H   0  0  0  0  0  0  0  0  0  0  0  0
  147.9866  137.8613  152.4754 H   0  0  0  0  0  0  0  0  0  0  0  0
  147.1840  140.2338  152.1216 H   0  0  0  0  0  0  0  0  0  0  0  0
  145.9552  139.8787  153.3109 H   0  0  0  0  0  0  0  0  0  0  0  0
  148.6861  138.1181  154.6296 H   0  0  0  0  0  0  0  0  0  0  0  0
  150.2037  138.9312  156.3790 H   0  0  0  0  0  0  0  0  0  0  0  0
  149.4049  143.3777  157.3602 H   0  0  0  0  0  0  0  0  0  0  0  0
  149.2616  142.1975  158.6546 H   0  0  0  0  0  0  0  0  0  0  0  0
  150.5991  143.9713  159.5143 H   0  0  0  0  0  0  0  0  0  0  0  0
  151.2320  145.1642  157.4832 H   0  0  0  0  0  0  0  0  0  0  0  0
  152.3382  143.8911  157.0009 H   0  0  0  0  0  0  0  0  0  0  0  0
  152.6692  144.8446  158.4455 H   0  0  0  0  0  0  0  0  0  0  0  0
  153.1638  141.9598  157.8149 H   0  0  0  0  0  0  0  0  0  0  0  0
  153.8738  139.7859  158.7959 H   0  0  0  0  0  0  0  0  0  0  0  0
  152.7869  140.0388  160.1608 H   0  0  0  0  0  0  0  0  0  0  0  0
  154.1605  141.1140  159.9158 H   0  0  0  0  0  0  0  0  0  0  0  0
  150.8292  140.0975  158.5055 H   0  0  0  0  0  0  0  0  0  0  0  0
  151.8843  139.9837  157.1108 H   0  0  0  0  0  0  0  0  0  0  0  0
  147.4976  142.2439  153.9169 H   0  0  0  0  0  0  0  0  0  0  0  0
  148.9583  142.8755  155.5774 H   0  0  0  0  0  0  0  0  0  0  0  0
  1  2  1  0  0  0  0
  1 24  1  0  0  0  0
  1 25  1  0  0  0  0
  1 26  1  0  0  0  0
  2  3  1  0  0  0  0
  2  5  1  0  0  0  0
  2 27  1  0  0  0  0
  3  4  1  0  0  0  0
  3 28  1  0  0  0  0
  3 29  1  0  0  0  0
  4 30  1  0  0  0  0
  5  6  1  0  0  0  0
  5 31  1  0  0  0  0
  6  7  2  0  0  0  0
  6  8  1  0  0  0  0
  8  9  1  0  0  0  0
  8 32  1  0  0  0  0
  9 10  1  0  0  0  0
  9 33  1  0  0  0  0
  9 34  1  0  0  0  0
 10 23  1  0  0  0  0
 10 11  2  0  0  0  0
 11 12  1  0  0  0  0
 11 35  1  0  0  0  0
 12 13  2  0  0  0  0
 12 36  1  0  0  0  0
 13 14  1  0  0  0  0
 13 22  1  0  0  0  0
 14 21  1  0  0  0  0
 14 15  1  0  0  0  0
 15 16  1  0  0  0  0
 15 37  1  0  0  0  0
 15 38  1  0  0  0  0
 16 17  1  0  0  0  0
 16 18  1  0  0  0  0
 16 39  1  0  0  0  0
 17 40  1  0  0  0  0
 17 41  1  0  0  0  0
 17 42  1  0  0  0  0
 18 19  1  0  0  0  0
 19 20  1  0  0  0  0
 19 21  1  0  0  0  0
 19 43  1  0  0  0  0
 20 44  1  0  0  0  0
 20 45  1  0  0  0  0
 20 46  1  0  0  0  0
 21 47  1  0  0  0  0
 21 48  1  0  0  0  0
 22 23  2  0  0  0  0
 22 50  1  0  0  0  0
 23 49  1  0  0  0  0
M  CHG  1  22   1
M  END
> <s_m_source_file>
AV-unprocessed.smi

> <i_m_source_file_index>
1983

> <i_lp_mmshare_version>
43012

> <i_f3d_flags>
0

> <s_epik_input>
W09IXVtDSDJdW0NAQEhdKFtDSDNdKVtOSF1DKD1PKVtOSF1bQ0gyXWMxW2NIXVtjSF1jKG5bY0hdMSlOMltDSDJdW0NAQEhdKFtDSDNdKU9bQ0BASF0oW0NIM10pW0NIMl0y

> <s_epik_cmdline>
J2VwaWtfcHl0aG9uJywgJy1waCcsICc3LjAnLCAnLXRuJywgJzgnLCAnLW1hJywgJzIwMCcsICctbWV0YWxfYmluZGluZycsICctaW1hZScsICc8aW5maWxlLm1hZT4nLCAnLW9tYWUnLCAnPG91dGZpbGUubWFlPic=

> <r_lp_tautomer_probability>
0.999994

> <r_epik_Ionization_Penalty>
2.55677

> <r_epik_Ionization_Penalty_Charging>
2.55673

> <r_epik_Ionization_Penalty_Neutral>
3.71772e-05

> <r_epik_State_Penalty>
2.72571

> <r_epik_Charging_Adjusted_Penalty>
5.28244

> <i_epik_Tot_Q>
1

> <i_epik_Tot_abs_Q>
1

> <r_epik_Metal_State_Penalty>
2.73364

> <b_epik_Metal_Only>
0

> <s_lp_Force_Field>
OPLS_2005

> <r_lp_Energy>
21.2151

> <b_lp_Chiralities_Consistent>
1

> <s_lp_Variant>
AV-unprocessed.smi:1983-10

> <Gold.Version>
5.8.1

> <Gold.Id.Protein>
6NUR|6NUR_protein|mol2

> <Gold.PLP.Fitness>
51.2371

> <Gold.PLP.PLP>
-37.5217

> <Gold.PLP.part.hbond>
-4.8911

> <Gold.PLP.part.metal>
0.0000

> <Gold.PLP.part.buried>
-7.3989

> <Gold.PLP.part.nonpolar>
-28.4428

> <Gold.PLP.part.repulsive>
2.2633

> <Gold.PLP.ligand.clash>
0.0000

> <Gold.PLP.ligand.torsion>
0.6076

> <Gold.PLP.Chemscore.Hbond>
4.8230

> <Gold.PLP.Chemscore.CHOScore>
0.0000

> <Gold.PLP.Chemscore.Metal>
0.0000

> <Gold.Chemscore.Hbonds>
donor molecule, donor type, donor heavy atom, donor atom, acceptor molecule, acceptor atom, score
      L1  H     4    30       P1 10171  1.00
      L1  H     5    31       P1  7948  1.00
      L1  H     8    32       P1  7948  0.88
      L1  H    22    50       P1  8028  2.00

> <Gold.PLP.Chemscore.Internal.Correction>
0.4615

> <Gold.Rescore>
     Score         DG    S(hbond)    S(metal)    S(lipo)     H(rot)  DE(clash)    DE(int)     intcor
     20.70     -22.22       3.89        0.00      90.21       2.66       0.15       1.37       ----

> <Gold.Chemscore.Fitness>
20.6954

> <Gold.Chemscore.DG>
-22.2202

> <Gold.Chemscore.ZeroCoef>
-5.4800

> <Gold.Chemscore.Hbond>
3.8938

> <Gold.Chemscore.Metal>
0.0000

> <Gold.Chemscore.Lipo>
90.2061

> <Gold.Chemscore.Internal_Hbond>
0.0000

> <Gold.Chemscore.DEClash>
0.1545

> <Gold.Chemscore.DEInternal>
1.3703

> <Gold.Chemscore.Rot>
2.6637

> <Gold.Chemscore.Internal.Correction>
   9.000000E+99

> <Gold.Chemscore.Hbonds>
donor molecule, donor type, donor heavy atom, donor atom, acceptor molecule, acceptor atom, score
      L1  H     4    30       P1 10171  1.00
      L1  H     5    31       P1  7948  0.98
      L1  H     8    32       P1  7948  0.85
      L1  H    22    50       P1  8028  1.00

> <Gold.Chemscore.Hbond.Weighted>
-13.0052

> <Gold.Chemscore.Metal.Weighted>
-0.0000

> <Gold.Chemscore.Lipo.Weighted>
-10.5541

> <Gold.Chemscore.Internal_Hbond.Weighted>
0.0000

> <Gold.Chemscore.DEClash.Weighted>
0.1545

> <Gold.Chemscore.DEInternal.Weighted>
1.3703

> <Gold.Chemscore.Rot.Weighted>
6.8191

> <Gold.Chemscore.Internal.Correction.Weighted>
   9.000000E+99

> <Gold.Protein.RotatedTorsions>
[ 6907 6896 6895 6894 ] final  146.75 input  -60.11 | X-H torsion
[ 7974 7965 7964 7962 ] final   95.85 input  175.53 | X-H torsion
[ 8008 7997 7996 7995 ] final    2.83 input   59.86 | X-H torsion
[ 10167 10162 10161 10158 ] final -110.64 input  -65.29 | X-H torsion
[ 10718 10713 10712 10709 ] final -152.26 input   66.30 | X-H torsion
[ 10763 10752 10751 10750 ] final  -32.72 input  -60.55 | X-H torsion
[ 11005 11000 10999 10996 ] final   51.84 input  -57.11 | X-H torsion

> <Gold.Protein.ActiveResidues>
 VAL166  LYS551  ARG553  GLY616  TRP617  ASP618  TYR619  PRO620  LYS621  CYS622 
 ASP623  PHE694  ASN695  SER759  ASP760  ASP761  ALA762  ILE779  LEU786  VAL792 
 PHE793  MET794  SER795  GLU796  ALA797  LYS798  CYS799  TRP800  GLU811  SER814 

> <Gold.Protein.RotatedAtoms>
  152.1638  133.4599  159.4874 H   0  0  0  0  0  0  0  0  0  0  0  0  # atno 6907 bound_to 6896
  150.6910  134.2038  159.4341 H   0  0  0  0  0  0  0  0  0  0  0  0  # atno 6908 bound_to 6896
  151.9942  134.9963  160.0613 H   0  0  0  0  0  0  0  0  0  0  0  0  # atno 6909 bound_to 6896
  145.4466  139.2296  143.3062 H   0  0  0  0  0  0  0  0  0  0  0  0  # atno 7974 bound_to 7965
  154.6963  140.2664  155.6762 H   0  0  0  0  0  0  0  0  0  0  0  0  # atno 8008 bound_to 7997
  156.2750  140.2781  156.1482 H   0  0  0  0  0  0  0  0  0  0  0  0  # atno 8009 bound_to 7997
  155.0826  140.0373  157.2634 H   0  0  0  0  0  0  0  0  0  0  0  0  # atno 8010 bound_to 7997
  140.1423  143.4269  152.1553 H   0  0  0  0  0  0  0  0  0  0  0  0  # atno 10167 bound_to 10162
  156.4702  130.8254  151.2484 H   0  0  0  0  0  0  0  0  0  0  0  0  # atno 10718 bound_to 10713
  153.8184  135.6876  153.4830 H   0  0  0  0  0  0  0  0  0  0  0  0  # atno 10763 bound_to 10752
  153.1584  135.4589  154.9736 H   0  0  0  0  0  0  0  0  0  0  0  0  # atno 10764 bound_to 10752
  154.7938  135.3311  154.7659 H   0  0  0  0  0  0  0  0  0  0  0  0  # atno 10765 bound_to 10752
  140.0899  134.5223  155.8862 H   0  0  0  0  0  0  0  0  0  0  0  0  # atno 11005 bound_to 11000
  146.2527  140.5221  142.8886 LP  0  0  0  0  0  0  0  0  0  0  0  0  # atno 17320 bound_to 7965
  144.8088  140.6347  143.6429 LP  0  0  0  0  0  0  0  0  0  0  0  0  # atno 17321 bound_to 7965
  139.5466  144.7303  151.4564 LP  0  0  0  0  0  0  0  0  0  0  0  0  # atno 17342 bound_to 10162
  140.6753  143.8203  150.7050 LP  0  0  0  0  0  0  0  0  0  0  0  0  # atno 17343 bound_to 10162
  157.7492  131.0079  150.3207 LP  0  0  0  0  0  0  0  0  0  0  0  0  # atno 17370 bound_to 10713
  156.3626  130.3849  149.7239 LP  0  0  0  0  0  0  0  0  0  0  0  0  # atno 17371 bound_to 10713
  141.2074  133.6664  156.6306 LP  0  0  0  0  0  0  0  0  0  0  0  0  # atno 17394 bound_to 11000
  140.3367  134.7883  157.4367 LP  0  0  0  0  0  0  0  0  0  0  0  0  # atno 17395 bound_to 11000

$$$$
