AV-unprocessed.smi:546|AV-procd|sdf|2888|dock10
  -GOLD-   2262023383D 1   1.00000     0.00000
 Structure written by MMmdl.
 51 53  0  0  0  0  0  0  0  0  2 V2000
  147.3503  141.8984  154.2475 C   0  0  0  0  0  0  0  0  0  0  0  0
  147.8916  141.2909  155.5433 C   0  0  0  0  0  0  0  0  0  0  0  0
  149.3005  141.1989  155.4415 O   0  0  0  0  0  0  0  0  0  0  0  0
  149.9127  140.6791  156.6096 C   0  0  0  0  0  0  0  0  0  0  0  0
  151.3482  141.2133  156.7211 C   0  0  0  0  0  0  0  0  0  0  0  0
  152.1707  140.3637  157.5774 N   0  0  0  0  0  0  0  0  0  0  0  0
  152.7413  140.6865  158.7693 C   0  0  0  0  0  0  0  0  0  0  0  0
  152.6497  141.9655  159.3246 N   0  0  0  0  0  0  0  0  0  0  0  0
  152.6326  143.2001  158.5333 C   0  0  0  0  0  0  0  0  0  0  0  0
  151.7958  144.3399  159.1605 C   0  0  1  0  0  0  0  0  0  0  0  0
  150.2790  144.1322  159.0237 C   0  0  0  0  0  0  0  0  0  0  0  0
  152.2264  144.5895  160.6154 C   0  0  0  0  0  0  0  0  0  0  0  0
  152.2603  143.2771  161.4139 C   0  0  2  0  0  0  0  0  0  0  0  0
  152.7570  143.5040  162.8478 C   0  0  0  0  0  0  0  0  0  0  0  0
  153.1334  142.2476  160.6758 C   0  0  0  0  0  0  0  0  0  0  0  0
  153.3683  139.6764  159.3756 N   0  0  0  0  0  0  0  0  0  0  0  0
  153.2024  138.6260  158.4870 C   0  0  0  0  0  0  0  0  0  0  0  0
  152.4868  139.0115  157.3964 C   0  0  0  0  0  0  0  0  0  0  0  0
  152.1269  138.0973  156.2875 C   0  0  0  0  0  0  0  0  0  0  0  0
  151.4650  138.4861  155.3276 O   0  0  0  0  0  0  0  0  0  0  0  0
  152.6135  136.8308  156.4818 N   0  5  0  0  0  0  0  0  0  0  0  0
  153.3444  136.4010  157.5680 C   0  0  0  0  0  0  0  0  0  0  0  0
  153.7461  135.2404  157.6630 O   0  0  0  0  0  0  0  0  0  0  0  0
  153.6411  137.2770  158.5783 N   0  0  0  0  0  0  0  0  0  0  0  0
  154.4080  136.8454  159.7505 C   0  0  0  0  0  0  0  0  0  0  0  0
  146.2645  141.9878  154.2814 H   0  0  0  0  0  0  0  0  0  0  0  0
  147.6097  141.2790  153.3884 H   0  0  0  0  0  0  0  0  0  0  0  0
  147.7643  142.8928  154.0792 H   0  0  0  0  0  0  0  0  0  0  0  0
  147.6150  141.9139  156.3949 H   0  0  0  0  0  0  0  0  0  0  0  0
  147.4593  140.3015  155.6996 H   0  0  0  0  0  0  0  0  0  0  0  0
  149.3387  140.9618  157.4931 H   0  0  0  0  0  0  0  0  0  0  0  0
  149.9267  139.5892  156.5621 H   0  0  0  0  0  0  0  0  0  0  0  0
  151.8034  141.3004  155.7372 H   0  0  0  0  0  0  0  0  0  0  0  0
  151.3413  142.2264  157.1095 H   0  0  0  0  0  0  0  0  0  0  0  0
  153.6655  143.5352  158.4306 H   0  0  0  0  0  0  0  0  0  0  0  0
  152.2945  142.9956  157.5179 H   0  0  0  0  0  0  0  0  0  0  0  0
  152.0227  145.2470  158.5989 H   0  0  0  0  0  0  0  0  0  0  0  0
  149.9419  143.2391  159.5473 H   0  0  0  0  0  0  0  0  0  0  0  0
  149.9892  144.0375  157.9773 H   0  0  0  0  0  0  0  0  0  0  0  0
  149.7310  144.9800  159.4355 H   0  0  0  0  0  0  0  0  0  0  0  0
  153.2215  145.0370  160.6193 H   0  0  0  0  0  0  0  0  0  0  0  0
  151.5641  145.3134  161.0918 H   0  0  0  0  0  0  0  0  0  0  0  0
  151.2466  142.8798  161.4799 H   0  0  0  0  0  0  0  0  0  0  0  0
  153.7777  143.8877  162.8590 H   0  0  0  0  0  0  0  0  0  0  0  0
  152.7448  142.5747  163.4181 H   0  0  0  0  0  0  0  0  0  0  0  0
  152.1252  144.2209  163.3726 H   0  0  0  0  0  0  0  0  0  0  0  0
  153.1517  141.3175  161.2456 H   0  0  0  0  0  0  0  0  0  0  0  0
  154.1659  142.5951  160.6187 H   0  0  0  0  0  0  0  0  0  0  0  0
  155.4124  136.5398  159.4556 H   0  0  0  0  0  0  0  0  0  0  0  0
  153.9227  135.9983  160.2371 H   0  0  0  0  0  0  0  0  0  0  0  0
  154.5110  137.6306  160.4986 H   0  0  0  0  0  0  0  0  0  0  0  0
  1  2  1  0  0  0  0
  1 26  1  0  0  0  0
  1 27  1  0  0  0  0
  1 28  1  0  0  0  0
  2  3  1  0  0  0  0
  2 29  1  0  0  0  0
  2 30  1  0  0  0  0
  3  4  1  0  0  0  0
  4  5  1  0  0  0  0
  4 31  1  0  0  0  0
  4 32  1  0  0  0  0
  5  6  1  0  0  0  0
  5 33  1  0  0  0  0
  5 34  1  0  0  0  0
  6 18  1  0  0  0  0
  6  7  1  0  0  0  0
  7  8  1  0  0  0  0
  7 16  2  0  0  0  0
  8 15  1  0  0  0  0
  8  9  1  0  0  0  0
  9 10  1  0  0  0  0
  9 35  1  0  0  0  0
  9 36  1  0  0  0  0
 10 11  1  0  0  0  0
 10 12  1  0  0  0  0
 10 37  1  0  0  0  0
 11 38  1  0  0  0  0
 11 39  1  0  0  0  0
 11 40  1  0  0  0  0
 12 13  1  0  0  0  0
 12 41  1  0  0  0  0
 12 42  1  0  0  0  0
 13 14  1  0  0  0  0
 13 15  1  0  0  0  0
 13 43  1  0  0  0  0
 14 44  1  0  0  0  0
 14 45  1  0  0  0  0
 14 46  1  0  0  0  0
 15 47  1  0  0  0  0
 15 48  1  0  0  0  0
 16 17  1  0  0  0  0
 17 24  1  0  0  0  0
 17 18  2  0  0  0  0
 18 19  1  0  0  0  0
 19 20  2  0  0  0  0
 19 21  1  0  0  0  0
 21 22  1  0  0  0  0
 22 23  2  0  0  0  0
 22 24  1  0  0  0  0
 24 25  1  0  0  0  0
 25 49  1  0  0  0  0
 25 50  1  0  0  0  0
 25 51  1  0  0  0  0
M  CHG  1  21  -1
M  END
> <s_m_source_file>
AV-unprocessed.smi

> <i_m_source_file_index>
546

> <i_lp_mmshare_version>
43012

> <i_f3d_flags>
0

> <s_epik_input>
W0NIM11uMWMoPU8pW25IXWMoPU8pYyhjMTIpbihbQ0gyXVtDSDJdT1tDSDJdW0NIM10pYyhuMilOM1tDSDJdW0NAQEhdKFtDSDNdKVtDSDJdW0NAQEhdKFtDSDNdKVtDSDJdMw==

> <s_epik_cmdline>
J2VwaWtfcHl0aG9uJywgJy1waCcsICc3LjAnLCAnLXRuJywgJzgnLCAnLW1hJywgJzIwMCcsICctbWV0YWxfYmluZGluZycsICctaW1hZScsICc8aW5maWxlLm1hZT4nLCAnLW9tYWUnLCAnPG91dGZpbGUubWFlPic=

> <r_lp_tautomer_probability>
1

> <r_epik_Ionization_Penalty>
5.12825

> <r_epik_Ionization_Penalty_Charging>
0.0743105

> <r_epik_Ionization_Penalty_Neutral>
5.05394

> <r_epik_State_Penalty>
5.04406

> <r_epik_Charging_Adjusted_Penalty>
5.11837

> <i_epik_Tot_Q>
-1

> <i_epik_Tot_abs_Q>
1

> <r_epik_Metal_State_Penalty>
1.15122

> <b_epik_Metal_Only>
1

> <s_lp_Force_Field>
OPLS_2005

> <r_lp_Energy>
44.0722

> <b_lp_Chiralities_Consistent>
1

> <s_lp_Variant>
AV-unprocessed.smi:546-6

> <Gold.Version>
5.8.1

> <Gold.Id.Protein>
6NUR|6NUR_protein|mol2

> <Gold.PLP.Fitness>
51.9381

> <Gold.PLP.PLP>
-47.1127

> <Gold.PLP.part.hbond>
-1.3519

> <Gold.PLP.part.metal>
0.0000

> <Gold.PLP.part.buried>
-5.4730

> <Gold.PLP.part.nonpolar>
-39.6135

> <Gold.PLP.part.repulsive>
0.1390

> <Gold.PLP.ligand.clash>
0.6604

> <Gold.PLP.ligand.torsion>
0.5204

> <Gold.PLP.Chemscore.Hbond>
1.9825

> <Gold.PLP.Chemscore.CHOScore>
0.0000

> <Gold.PLP.Chemscore.Metal>
0.0000

> <Gold.Chemscore.Hbonds>
donor molecule, donor type, donor heavy atom, donor atom, acceptor molecule, acceptor atom, score
      P1  H 10752 10765       L1    21  1.80

> <Gold.PLP.Chemscore.Internal.Correction>
0.5792

> <Gold.Rescore>
     Score         DG    S(hbond)    S(metal)    S(lipo)     H(rot)  DE(clash)    DE(int)     intcor
     16.82     -19.09       1.13        0.00     117.46       1.52       0.56       1.71       ----

> <Gold.Chemscore.Fitness>
16.8237

> <Gold.Chemscore.DG>
-19.0914

> <Gold.Chemscore.ZeroCoef>
-5.4800

> <Gold.Chemscore.Hbond>
1.1260

> <Gold.Chemscore.Metal>
0.0000

> <Gold.Chemscore.Lipo>
117.4625

> <Gold.Chemscore.Internal_Hbond>
0.0000

> <Gold.Chemscore.DEClash>
0.5556

> <Gold.Chemscore.DEInternal>
1.7120

> <Gold.Chemscore.Rot>
1.5206

> <Gold.Chemscore.Internal.Correction>
   9.000000E+99

> <Gold.Chemscore.Hbonds>
donor molecule, donor type, donor heavy atom, donor atom, acceptor molecule, acceptor atom, score
      P1  H 10752 10765       L1    21  0.16

> <Gold.Chemscore.Hbond.Weighted>
-3.7609

> <Gold.Chemscore.Metal.Weighted>
-0.0000

> <Gold.Chemscore.Lipo.Weighted>
-13.7431

> <Gold.Chemscore.Internal_Hbond.Weighted>
0.0000

> <Gold.Chemscore.DEClash.Weighted>
0.5556

> <Gold.Chemscore.DEInternal.Weighted>
1.7120

> <Gold.Chemscore.Rot.Weighted>
3.8926

> <Gold.Chemscore.Internal.Correction.Weighted>
   9.000000E+99

> <Gold.Protein.RotatedTorsions>
[ 6907 6896 6895 6894 ] final -152.02 input  -60.11 | X-H torsion
[ 7974 7965 7964 7962 ] final  -20.03 input  175.53 | X-H torsion
[ 8008 7997 7996 7995 ] final  -81.61 input   59.86 | X-H torsion
[ 10167 10162 10161 10158 ] final   78.86 input  -65.29 | X-H torsion
[ 10718 10713 10712 10709 ] final  164.91 input   66.30 | X-H torsion
[ 10763 10752 10751 10750 ] final -142.05 input  -60.55 | X-H torsion
[ 11005 11000 10999 10996 ] final   10.40 input  -57.11 | X-H torsion

> <Gold.Protein.ActiveResidues>
 VAL166  LYS551  ARG553  GLY616  TRP617  ASP618  TYR619  PRO620  LYS621  CYS622 
 ASP623  PHE694  ASN695  SER759  ASP760  ASP761  ALA762  ILE779  LEU786  VAL792 
 PHE793  MET794  SER795  GLU796  ALA797  LYS798  CYS799  TRP800  GLU811  SER814 

> <Gold.Protein.RotatedAtoms>
  151.2217  133.4499  159.2600 H   0  0  0  0  0  0  0  0  0  0  0  0  # atno 6907 bound_to 6896
  151.0879  134.9898  159.8398 H   0  0  0  0  0  0  0  0  0  0  0  0  # atno 6908 bound_to 6896
  152.5431  134.2152  159.8819 H   0  0  0  0  0  0  0  0  0  0  0  0  # atno 6909 bound_to 6896
  146.1810  140.4145  142.8494 H   0  0  0  0  0  0  0  0  0  0  0  0  # atno 7974 bound_to 7965
  154.6001  140.0645  156.9356 H   0  0  0  0  0  0  0  0  0  0  0  0  # atno 8008 bound_to 7997
  155.2147  140.3325  155.4305 H   0  0  0  0  0  0  0  0  0  0  0  0  # atno 8009 bound_to 7997
  156.2312  140.1842  156.7220 H   0  0  0  0  0  0  0  0  0  0  0  0  # atno 8010 bound_to 7997
  139.9664  144.5925  150.8025 H   0  0  0  0  0  0  0  0  0  0  0  0  # atno 10167 bound_to 10162
  157.0876  131.0409  151.2550 H   0  0  0  0  0  0  0  0  0  0  0  0  # atno 10718 bound_to 10713
  154.8523  135.3507  154.5966 H   0  0  0  0  0  0  0  0  0  0  0  0  # atno 10763 bound_to 10752
  153.6575  135.6991  153.5193 H   0  0  0  0  0  0  0  0  0  0  0  0  # atno 10764 bound_to 10752
  153.2844  135.4253  155.1066 H   0  0  0  0  0  0  0  0  0  0  0  0  # atno 10765 bound_to 10752
  140.5149  134.0616  155.7828 H   0  0  0  0  0  0  0  0  0  0  0  0  # atno 11005 bound_to 11000
  144.8315  140.6714  143.6288 LP  0  0  0  0  0  0  0  0  0  0  0  0  # atno 17320 bound_to 7965
  145.4076  139.1586  143.4143 LP  0  0  0  0  0  0  0  0  0  0  0  0  # atno 17321 bound_to 7965
  140.7536  143.3012  151.3076 LP  0  0  0  0  0  0  0  0  0  0  0  0  # atno 17342 bound_to 10162
  139.6514  144.0355  152.2629 LP  0  0  0  0  0  0  0  0  0  0  0  0  # atno 17343 bound_to 10162
  157.4748  130.7730  149.7357 LP  0  0  0  0  0  0  0  0  0  0  0  0  # atno 17370 bound_to 10713
  155.9906  130.3943  150.3019 LP  0  0  0  0  0  0  0  0  0  0  0  0  # atno 17371 bound_to 10713
  141.1366  133.9211  157.2421 LP  0  0  0  0  0  0  0  0  0  0  0  0  # atno 17394 bound_to 11000
  139.9638  135.0147  156.9332 LP  0  0  0  0  0  0  0  0  0  0  0  0  # atno 17395 bound_to 11000

$$$$
