AV-unprocessed.smi:2119|AV-procd|sdf|8637|dock7
  -GOLD-   2272011383D 1   1.00000     0.00000
 Structure written by MMmdl.
 48 50  0  0  0  0  0  0  0  0  2 V2000
  146.7917  139.6912  149.6893 O   0  0  0  0  0  0  0  0  0  0  0  0
  147.3364  138.6679  150.1018 C   0  0  0  0  0  0  0  0  0  0  0  0
  147.5969  138.4448  151.3977 N   0  0  0  0  0  0  0  0  0  0  0  0
  147.2330  139.3462  152.4864 C   0  0  0  0  0  0  0  0  0  0  0  0
  148.0168  139.0997  153.8072 C   0  0  1  0  0  0  0  0  0  0  0  0
  148.3934  140.4346  154.4938 C   0  0  1  0  0  0  0  0  0  0  0  0
  149.3445  141.3067  153.6923 C   0  0  0  0  0  0  0  0  0  0  0  0
  149.1550  142.6701  154.3465 C   0  0  0  0  0  0  0  0  0  0  0  0
  147.7904  142.7120  154.7463 O   0  0  0  0  0  0  0  0  0  0  0  0
  147.2241  141.4062  154.6903 C   0  0  0  0  0  0  0  0  0  0  0  0
  147.3192  138.2112  154.7875 N   0  3  0  0  0  0  0  0  0  0  0  0
  146.4430  137.1592  154.2148 C   0  0  0  0  0  0  0  0  0  0  0  0
  145.6255  136.4942  155.3350 C   0  0  0  0  0  0  0  0  0  0  0  0
  146.5074  135.9666  156.3194 O   0  0  0  0  0  0  0  0  0  0  0  0
  147.2996  136.9790  156.9303 C   0  0  0  0  0  0  0  0  0  0  0  0
  148.1755  137.6627  155.8674 C   0  0  0  0  0  0  0  0  0  0  0  0
  147.7712  137.6534  149.3353 N   0  0  0  0  0  0  0  0  0  0  0  0
  147.6487  137.4941  147.9284 C   0  0  0  0  0  0  0  0  0  0  0  0
  146.7455  138.3333  147.2436 C   0  0  0  0  0  0  0  0  0  0  0  0
  146.6193  138.2119  145.8468 C   0  0  0  0  0  0  0  0  0  0  0  0
  147.4133  137.2567  145.1834 C   0  0  0  0  0  0  0  0  0  0  0  0
  148.2933  136.4559  145.8201 N   0  0  0  0  0  0  0  0  0  0  0  0
  148.4082  136.5763  147.1604 C   0  0  0  0  0  0  0  0  0  0  0  0
  148.0521  137.5798  151.6512 H   0  0  0  0  0  0  0  0  0  0  0  0
  147.3886  140.3694  152.1417 H   0  0  0  0  0  0  0  0  0  0  0  0
  146.1596  139.2596  152.6561 H   0  0  0  0  0  0  0  0  0  0  0  0
  148.9597  138.6157  153.5482 H   0  0  0  0  0  0  0  0  0  0  0  0
  148.8429  140.2387  155.4684 H   0  0  0  0  0  0  0  0  0  0  0  0
  150.3795  140.9655  153.7316 H   0  0  0  0  0  0  0  0  0  0  0  0
  149.0378  141.3490  152.6459 H   0  0  0  0  0  0  0  0  0  0  0  0
  149.7803  142.7558  155.2359 H   0  0  0  0  0  0  0  0  0  0  0  0
  149.4012  143.4941  153.6765 H   0  0  0  0  0  0  0  0  0  0  0  0
  146.5403  141.3691  153.8410 H   0  0  0  0  0  0  0  0  0  0  0  0
  146.6511  141.1914  155.5926 H   0  0  0  0  0  0  0  0  0  0  0  0
  145.7689  137.5898  153.4745 H   0  0  0  0  0  0  0  0  0  0  0  0
  147.0422  136.4025  153.7074 H   0  0  0  0  0  0  0  0  0  0  0  0
  144.9359  137.2068  155.7905 H   0  0  0  0  0  0  0  0  0  0  0  0
  145.0221  135.6823  154.9288 H   0  0  0  0  0  0  0  0  0  0  0  0
  146.6583  137.7051  157.4327 H   0  0  0  0  0  0  0  0  0  0  0  0
  147.9263  136.5235  157.6973 H   0  0  0  0  0  0  0  0  0  0  0  0
  148.8844  136.9403  155.4655 H   0  0  0  0  0  0  0  0  0  0  0  0
  148.7552  138.4618  156.3308 H   0  0  0  0  0  0  0  0  0  0  0  0
  148.2806  136.9221  149.8093 H   0  0  0  0  0  0  0  0  0  0  0  0
  146.1525  139.0601  147.7796 H   0  0  0  0  0  0  0  0  0  0  0  0
  145.9314  138.8371  145.2966 H   0  0  0  0  0  0  0  0  0  0  0  0
  147.3437  137.1369  144.1124 H   0  0  0  0  0  0  0  0  0  0  0  0
  149.1465  135.9291  147.6073 H   0  0  0  0  0  0  0  0  0  0  0  0
  146.6934  138.8377  155.2730 H   0  0  0  0  0  0  0  0  0  0  0  0
  1  2  2  0  0  0  0
  2  3  1  0  0  0  0
  2 17  1  0  0  0  0
  3  4  1  0  0  0  0
  3 24  1  0  0  0  0
  4  5  1  0  0  0  0
  4 25  1  0  0  0  0
  4 26  1  0  0  0  0
  5  6  1  0  0  0  0
  5 11  1  0  0  0  0
  5 27  1  0  0  0  0
  6 10  1  0  0  0  0
  6  7  1  0  0  0  0
  6 28  1  0  0  0  0
  7  8  1  0  0  0  0
  7 29  1  0  0  0  0
  7 30  1  0  0  0  0
  8  9  1  0  0  0  0
  8 31  1  0  0  0  0
  8 32  1  0  0  0  0
  9 10  1  0  0  0  0
 10 33  1  0  0  0  0
 10 34  1  0  0  0  0
 11 16  1  0  0  0  0
 11 12  1  0  0  0  0
 11 48  1  0  0  0  0
 12 13  1  0  0  0  0
 12 35  1  0  0  0  0
 12 36  1  0  0  0  0
 13 14  1  0  0  0  0
 13 37  1  0  0  0  0
 13 38  1  0  0  0  0
 14 15  1  0  0  0  0
 15 16  1  0  0  0  0
 15 39  1  0  0  0  0
 15 40  1  0  0  0  0
 16 41  1  0  0  0  0
 16 42  1  0  0  0  0
 17 18  1  0  0  0  0
 17 43  1  0  0  0  0
 18 23  1  0  0  0  0
 18 19  2  0  0  0  0
 19 20  1  0  0  0  0
 19 44  1  0  0  0  0
 20 21  2  0  0  0  0
 20 45  1  0  0  0  0
 21 22  1  0  0  0  0
 21 46  1  0  0  0  0
 22 23  2  0  0  0  0
 23 47  1  0  0  0  0
M  CHG  1  11   1
M  END
> <s_m_source_file>
AV-unprocessed.smi

> <i_m_source_file_index>
2119

> <i_lp_mmshare_version>
43012

> <i_f3d_flags>
0

> <s_epik_input>
W2NIXTFuW2NIXVtjSF1bY0hdYzFbTkhdQyg9TylbTkhdW0NIMl1bQ0BIXShbQ0BASF0yW0NIMl1bQ0gyXU9bQ0gyXTIpTjNbQ0gyXVtDSDJdT1tDSDJdW0NIMl0z

> <s_epik_cmdline>
J2VwaWtfcHl0aG9uJywgJy1waCcsICc3LjAnLCAnLXRuJywgJzgnLCAnLW1hJywgJzIwMCcsICctbWV0YWxfYmluZGluZycsICctaW1hZScsICc8aW5maWxlLm1hZT4nLCAnLW9tYWUnLCAnPG91dGZpbGUubWFlPic=

> <r_epik_Ionization_Penalty>
0.987463

> <r_epik_Ionization_Penalty_Charging>
0.98326

> <r_epik_Ionization_Penalty_Neutral>
0.00420251

> <r_epik_State_Penalty>
1.01721

> <r_epik_Charging_Adjusted_Penalty>
2.00047

> <i_epik_Tot_Q>
1

> <i_epik_Tot_abs_Q>
1

> <r_epik_Metal_State_Penalty>
1.01439

> <b_epik_Metal_Only>
0

> <s_lp_Force_Field>
OPLS_2005

> <r_lp_Energy>
47.2413

> <b_lp_Chiralities_Consistent>
1

> <s_lp_Variant>
AV-unprocessed.smi:2119-8

> <Gold.Version>
5.8.1

> <Gold.Id.Protein>
6NUR|6NUR_protein|mol2

> <Gold.PLP.Fitness>
42.2283

> <Gold.PLP.PLP>
-31.1356

> <Gold.PLP.part.hbond>
-2.9760

> <Gold.PLP.part.metal>
0.0000

> <Gold.PLP.part.buried>
-1.7499

> <Gold.PLP.part.nonpolar>
-27.8252

> <Gold.PLP.part.repulsive>
0.4855

> <Gold.PLP.ligand.clash>
0.0000

> <Gold.PLP.ligand.torsion>
1.1939

> <Gold.PLP.Chemscore.Hbond>
2.4533

> <Gold.PLP.Chemscore.CHOScore>
1.9748

> <Gold.PLP.Chemscore.Metal>
0.0000

> <Gold.Chemscore.Hbonds>
donor molecule, donor type, donor heavy atom, donor atom, acceptor molecule, acceptor atom, score
      L1  H     3    24       P1  7948  1.00
      L1  H    17    43       P1  7948  0.11

> <Gold.PLP.Chemscore.Internal.Correction>
0.1965

> <Gold.Rescore>
     Score         DG    S(hbond)    S(metal)    S(lipo)     H(rot)  DE(clash)    DE(int)     intcor
     16.66     -19.43       2.63        0.00      81.45       1.70       0.01       2.76       ----

> <Gold.Chemscore.Fitness>
16.6583

> <Gold.Chemscore.DG>
-19.4263

> <Gold.Chemscore.ZeroCoef>
-5.4800

> <Gold.Chemscore.Hbond>
2.6271

> <Gold.Chemscore.Metal>
0.0000

> <Gold.Chemscore.Lipo>
81.4482

> <Gold.Chemscore.Internal_Hbond>
0.0000

> <Gold.Chemscore.DEClash>
0.0052

> <Gold.Chemscore.DEInternal>
2.7628

> <Gold.Chemscore.Rot>
1.7021

> <Gold.Chemscore.Internal.Correction>
   9.000000E+99

> <Gold.Chemscore.Hbonds>
donor molecule, donor type, donor heavy atom, donor atom, acceptor molecule, acceptor atom, score
      L1  H     3    24       P1  7948  0.98

> <Gold.Chemscore.Hbond.Weighted>
-8.7744

> <Gold.Chemscore.Metal.Weighted>
-0.0000

> <Gold.Chemscore.Lipo.Weighted>
-9.5294

> <Gold.Chemscore.Internal_Hbond.Weighted>
0.0000

> <Gold.Chemscore.DEClash.Weighted>
0.0052

> <Gold.Chemscore.DEInternal.Weighted>
2.7628

> <Gold.Chemscore.Rot.Weighted>
4.3575

> <Gold.Chemscore.Internal.Correction.Weighted>
   9.000000E+99

> <Gold.Protein.RotatedTorsions>
[ 6907 6896 6895 6894 ] final -173.79 input  -60.11 | X-H torsion
[ 7974 7965 7964 7962 ] final   20.88 input  175.53 | X-H torsion
[ 8008 7997 7996 7995 ] final   89.38 input   59.86 | X-H torsion
[ 10167 10162 10161 10158 ] final  117.62 input  -65.29 | X-H torsion
[ 10718 10713 10712 10709 ] final  -84.76 input   66.30 | X-H torsion
[ 10763 10752 10751 10750 ] final   78.52 input  -60.55 | X-H torsion
[ 11005 11000 10999 10996 ] final  136.48 input  -57.11 | X-H torsion

> <Gold.Protein.ActiveResidues>
 VAL166  LYS551  ARG553  GLY616  TRP617  ASP618  TYR619  PRO620  LYS621  CYS622 
 ASP623  PHE694  ASN695  SER759  ASP760  ASP761  ALA762  ILE779  LEU786  VAL792 
 PHE793  MET794  SER795  GLU796  ALA797  LYS798  CYS799  TRP800  GLU811  SER814 

> <Gold.Protein.RotatedAtoms>
  151.5619  133.3402  159.2972 H   0  0  0  0  0  0  0  0  0  0  0  0  # atno 6907 bound_to 6896
  150.8418  134.7715  159.6949 H   0  0  0  0  0  0  0  0  0  0  0  0  # atno 6908 bound_to 6896
  152.4484  134.5453  159.9903 H   0  0  0  0  0  0  0  0  0  0  0  0  # atno 6909 bound_to 6896
  146.2094  139.8106  142.8701 H   0  0  0  0  0  0  0  0  0  0  0  0  # atno 7974 bound_to 7965
  155.9993  140.3361  155.6830 H   0  0  0  0  0  0  0  0  0  0  0  0  # atno 8008 bound_to 7997
  155.6312  140.0685  157.2666 H   0  0  0  0  0  0  0  0  0  0  0  0  # atno 8009 bound_to 7997
  154.4244  140.1759  156.1462 H   0  0  0  0  0  0  0  0  0  0  0  0  # atno 8010 bound_to 7997
  139.6166  144.7093  151.2725 H   0  0  0  0  0  0  0  0  0  0  0  0  # atno 10167 bound_to 10162
  156.0003  130.4708  150.4459 H   0  0  0  0  0  0  0  0  0  0  0  0  # atno 10718 bound_to 10713
  153.0880  135.4874  154.8635 H   0  0  0  0  0  0  0  0  0  0  0  0  # atno 10763 bound_to 10752
  154.7235  135.3044  154.9011 H   0  0  0  0  0  0  0  0  0  0  0  0  # atno 10764 bound_to 10752
  153.9668  135.6806  153.4799 H   0  0  0  0  0  0  0  0  0  0  0  0  # atno 10765 bound_to 10752
  140.0049  134.9463  157.0152 H   0  0  0  0  0  0  0  0  0  0  0  0  # atno 11005 bound_to 11000
  145.3200  141.0241  143.3506 LP  0  0  0  0  0  0  0  0  0  0  0  0  # atno 17320 bound_to 7965
  144.8874  139.4821  143.6694 LP  0  0  0  0  0  0  0  0  0  0  0  0  # atno 17321 bound_to 7965
  140.7355  143.6734  150.8062 LP  0  0  0  0  0  0  0  0  0  0  0  0  # atno 17342 bound_to 10162
  140.0338  143.5416  152.2748 LP  0  0  0  0  0  0  0  0  0  0  0  0  # atno 17343 bound_to 10162
  157.2496  131.0543  151.2387 LP  0  0  0  0  0  0  0  0  0  0  0  0  # atno 17370 bound_to 10713
  157.3541  130.7097  149.6459 LP  0  0  0  0  0  0  0  0  0  0  0  0  # atno 17371 bound_to 10713
  140.4660  134.1435  155.7197 LP  0  0  0  0  0  0  0  0  0  0  0  0  # atno 17394 bound_to 11000
  141.1669  133.8685  157.1687 LP  0  0  0  0  0  0  0  0  0  0  0  0  # atno 17395 bound_to 11000

$$$$
