AV-unprocessed.smi:1893|AV-procd|sdf|7671|dock7
  -GOLD-   22720 9403D 1   1.00000     0.00000
 Structure written by MMmdl.
 43 44  0  0  0  0  0  0  0  0  2 V2000
  147.0492  129.5500  152.9775 C   0  0  0  0  0  0  0  0  0  0  0  0
  146.4633  130.8802  152.4566 C   0  0  2  0  0  0  0  0  0  0  0  0
  145.8164  130.6177  151.0777 C   0  0  0  0  0  0  0  0  0  0  0  0
  145.2078  131.8847  150.4736 C   0  0  0  0  0  0  0  0  0  0  0  0
  146.2816  132.9684  150.3918 C   0  0  0  0  0  0  0  0  0  0  0  0
  146.8938  133.2219  151.7760 C   0  0  0  0  0  0  0  0  0  0  0  0
  147.4775  131.9836  152.3698 N   0  3  1  0  0  0  0  0  0  0  0  0
  148.1771  132.2729  153.6549 C   0  0  0  0  0  0  0  0  0  0  0  0
  149.2806  133.3431  153.5161 C   0  0  0  0  0  0  0  0  0  0  0  0
  148.8239  134.6379  154.0069 N   0  0  0  0  0  0  0  0  0  0  0  0
  149.5573  135.4784  154.7543 C   0  0  0  0  0  0  0  0  0  0  0  0
  150.7231  135.2432  155.0751 O   0  0  0  0  0  0  0  0  0  0  0  0
  148.8580  136.7679  155.2144 C   0  0  2  0  0  0  0  0  0  0  0  0
  147.4875  136.9815  154.5401 C   0  0  0  0  0  0  0  0  0  0  0  0
  149.7414  137.9126  155.0284 N   0  0  0  0  0  0  0  0  0  0  0  0
  150.0275  138.6059  153.9242 C   0  0  0  0  0  0  0  0  0  0  0  0
  150.8453  139.6291  154.1272 N   0  0  0  0  0  0  0  0  0  0  0  0
  151.0369  139.5046  155.4740 C   0  0  0  0  0  0  0  0  0  0  0  0
  150.3895  138.5005  156.0653 N   0  0  0  0  0  0  0  0  0  0  0  0
  146.3368  128.7345  152.8482 H   0  0  0  0  0  0  0  0  0  0  0  0
  147.2750  129.5794  154.0427 H   0  0  0  0  0  0  0  0  0  0  0  0
  147.9583  129.2768  152.4408 H   0  0  0  0  0  0  0  0  0  0  0  0
  145.6792  131.1983  153.1459 H   0  0  0  0  0  0  0  0  0  0  0  0
  146.5629  130.2140  150.3919 H   0  0  0  0  0  0  0  0  0  0  0  0
  145.0403  129.8565  151.1669 H   0  0  0  0  0  0  0  0  0  0  0  0
  144.8040  131.6757  149.4825 H   0  0  0  0  0  0  0  0  0  0  0  0
  144.3743  132.2287  151.0876 H   0  0  0  0  0  0  0  0  0  0  0  0
  147.0621  132.6678  149.6912 H   0  0  0  0  0  0  0  0  0  0  0  0
  145.8502  133.8902  150.0001 H   0  0  0  0  0  0  0  0  0  0  0  0
  147.6533  133.9936  151.6656 H   0  0  0  0  0  0  0  0  0  0  0  0
  146.1351  133.6243  152.4492 H   0  0  0  0  0  0  0  0  0  0  0  0
  147.4488  132.5667  154.4123 H   0  0  0  0  0  0  0  0  0  0  0  0
  148.6622  131.3782  154.0352 H   0  0  0  0  0  0  0  0  0  0  0  0
  150.1821  133.0369  154.0499 H   0  0  0  0  0  0  0  0  0  0  0  0
  149.5672  133.4870  152.4756 H   0  0  0  0  0  0  0  0  0  0  0  0
  147.8763  134.9056  153.7816 H   0  0  0  0  0  0  0  0  0  0  0  0
  148.6782  136.6713  156.2867 H   0  0  0  0  0  0  0  0  0  0  0  0
  146.8201  136.1401  154.7295 H   0  0  0  0  0  0  0  0  0  0  0  0
  147.5756  137.0967  153.4590 H   0  0  0  0  0  0  0  0  0  0  0  0
  147.0001  137.8768  154.9273 H   0  0  0  0  0  0  0  0  0  0  0  0
  149.6247  138.3609  152.9523 H   0  0  0  0  0  0  0  0  0  0  0  0
  151.6659  140.1787  156.0366 H   0  0  0  0  0  0  0  0  0  0  0  0
  148.1863  131.6576  151.7283 H   0  0  0  0  0  0  0  0  0  0  0  0
  1  2  1  0  0  0  0
  1 20  1  0  0  0  0
  1 21  1  0  0  0  0
  1 22  1  0  0  0  0
  2  7  1  0  0  0  0
  2  3  1  0  0  0  0
  2 23  1  0  0  0  0
  3  4  1  0  0  0  0
  3 24  1  0  0  0  0
  3 25  1  0  0  0  0
  4  5  1  0  0  0  0
  4 26  1  0  0  0  0
  4 27  1  0  0  0  0
  5  6  1  0  0  0  0
  5 28  1  0  0  0  0
  5 29  1  0  0  0  0
  6  7  1  0  0  0  0
  6 30  1  0  0  0  0
  6 31  1  0  0  0  0
  7  8  1  0  0  0  0
  7 43  1  0  0  0  0
  8  9  1  0  0  0  0
  8 32  1  0  0  0  0
  8 33  1  0  0  0  0
  9 10  1  0  0  0  0
  9 34  1  0  0  0  0
  9 35  1  0  0  0  0
 10 11  1  0  0  0  0
 10 36  1  0  0  0  0
 11 12  2  0  0  0  0
 11 13  1  0  0  0  0
 13 14  1  0  0  0  0
 13 15  1  0  0  0  0
 13 37  1  0  0  0  0
 14 38  1  0  0  0  0
 14 39  1  0  0  0  0
 14 40  1  0  0  0  0
 15 19  1  0  0  0  0
 15 16  1  0  0  0  0
 16 17  2  0  0  0  0
 16 41  1  0  0  0  0
 17 18  1  0  0  0  0
 18 19  2  0  0  0  0
 18 42  1  0  0  0  0
M  CHG  1   7   1
M  END
> <s_m_source_file>
AV-unprocessed.smi

> <i_m_source_file_index>
1893

> <i_lp_mmshare_version>
43012

> <i_f3d_flags>
0

> <s_epik_input>
W0NIM11bQ0BASF0xW0NIMl1bQ0gyXVtDSDJdW0NIMl1OMVtDSDJdW0NIMl1bTkhdQyg9TylbQ0BIXShbQ0gzXSluMltjSF1uW2NIXW4y

> <s_epik_cmdline>
J2VwaWtfcHl0aG9uJywgJy1waCcsICc3LjAnLCAnLXRuJywgJzgnLCAnLW1hJywgJzIwMCcsICctbWV0YWxfYmluZGluZycsICctaW1hZScsICc8aW5maWxlLm1hZT4nLCAnLW9tYWUnLCAnPG91dGZpbGUubWFlPic=

> <r_lp_tautomer_probability>
1

> <r_epik_Ionization_Penalty>
0.00266409

> <r_epik_Ionization_Penalty_Charging>
0.00265606

> <r_epik_Ionization_Penalty_Neutral>
8.02794e-06

> <r_epik_State_Penalty>
0.00184955

> <r_epik_Charging_Adjusted_Penalty>
0.00450561

> <i_epik_Tot_Q>
1

> <i_epik_Tot_abs_Q>
1

> <r_epik_Metal_State_Penalty>
-0

> <b_epik_Metal_Only>
0

> <s_lp_Force_Field>
OPLS_2005

> <r_lp_Energy>
24.7489

> <b_lp_Chiralities_Consistent>
1

> <s_lp_Variant>
AV-unprocessed.smi:1893-1

> <Gold.Version>
5.8.1

> <Gold.Id.Protein>
6NUR|6NUR_protein|mol2

> <Gold.PLP.Fitness>
41.3396

> <Gold.PLP.PLP>
-31.9211

> <Gold.PLP.part.hbond>
-3.4620

> <Gold.PLP.part.metal>
0.0000

> <Gold.PLP.part.buried>
-3.2581

> <Gold.PLP.part.nonpolar>
-25.6391

> <Gold.PLP.part.repulsive>
0.2663

> <Gold.PLP.ligand.clash>
0.0000

> <Gold.PLP.ligand.torsion>
1.0489

> <Gold.PLP.Chemscore.Hbond>
2.0000

> <Gold.PLP.Chemscore.CHOScore>
1.7955

> <Gold.PLP.Chemscore.Metal>
0.0000

> <Gold.Chemscore.Hbonds>
donor molecule, donor type, donor heavy atom, donor atom, acceptor molecule, acceptor atom, score
      L1  H     7    43       P1 10747  1.00
      P1  H  7989  7998       L1    17  1.00
      L1  C    16    41       P1  7948  1.00
      L1  C    16    41       P1  7957  0.82

> <Gold.PLP.Chemscore.Internal.Correction>
0.1297

> <Gold.Rescore>
     Score         DG    S(hbond)    S(metal)    S(lipo)     H(rot)  DE(clash)    DE(int)     intcor
     12.63     -13.23       1.98        0.00      65.11       2.54       0.03       0.56       ----

> <Gold.Chemscore.Fitness>
12.6328

> <Gold.Chemscore.DG>
-13.2266

> <Gold.Chemscore.ZeroCoef>
-5.4800

> <Gold.Chemscore.Hbond>
1.9836

> <Gold.Chemscore.Metal>
0.0000

> <Gold.Chemscore.Lipo>
65.1100

> <Gold.Chemscore.Internal_Hbond>
0.0000

> <Gold.Chemscore.DEClash>
0.0313

> <Gold.Chemscore.DEInternal>
0.5625

> <Gold.Chemscore.Rot>
2.5377

> <Gold.Chemscore.Internal.Correction>
   9.000000E+99

> <Gold.Chemscore.Hbonds>
donor molecule, donor type, donor heavy atom, donor atom, acceptor molecule, acceptor atom, score
      L1  H     7    43       P1 10747  1.00
      P1  H  7989  7998       L1    17  0.87

> <Gold.Chemscore.Hbond.Weighted>
-6.6253

> <Gold.Chemscore.Metal.Weighted>
-0.0000

> <Gold.Chemscore.Lipo.Weighted>
-7.6179

> <Gold.Chemscore.Internal_Hbond.Weighted>
0.0000

> <Gold.Chemscore.DEClash.Weighted>
0.0313

> <Gold.Chemscore.DEInternal.Weighted>
0.5625

> <Gold.Chemscore.Rot.Weighted>
6.4966

> <Gold.Chemscore.Internal.Correction.Weighted>
   9.000000E+99

> <Gold.Protein.RotatedTorsions>
[ 6907 6896 6895 6894 ] final   53.70 input  -60.11 | X-H torsion
[ 7974 7965 7964 7962 ] final -122.28 input  175.53 | X-H torsion
[ 8008 7997 7996 7995 ] final  -14.09 input   59.86 | X-H torsion
[ 10167 10162 10161 10158 ] final  148.13 input  -65.29 | X-H torsion
[ 10718 10713 10712 10709 ] final  -98.70 input   66.30 | X-H torsion
[ 10763 10752 10751 10750 ] final  110.48 input  -60.55 | X-H torsion
[ 11005 11000 10999 10996 ] final  110.72 input  -57.11 | X-H torsion

> <Gold.Protein.ActiveResidues>
 VAL166  LYS551  ARG553  GLY616  TRP617  ASP618  TYR619  PRO620  LYS621  CYS622 
 ASP623  PHE694  ASN695  SER759  ASP760  ASP761  ALA762  ILE779  LEU786  VAL792 
 PHE793  MET794  SER795  GLU796  ALA797  LYS798  CYS799  TRP800  GLU811  SER814 

> <Gold.Protein.RotatedAtoms>
  152.3364  134.7192  160.0275 H   0  0  0  0  0  0  0  0  0  0  0  0  # atno 6907 bound_to 6896
  151.7592  133.3327  159.3421 H   0  0  0  0  0  0  0  0  0  0  0  0  # atno 6908 bound_to 6896
  150.7453  134.6054  159.6102 H   0  0  0  0  0  0  0  0  0  0  0  0  # atno 6909 bound_to 6896
  145.0311  140.8068  143.4323 H   0  0  0  0  0  0  0  0  0  0  0  0  # atno 7974 bound_to 7965
  154.5238  140.2232  155.8926 H   0  0  0  0  0  0  0  0  0  0  0  0  # atno 8008 bound_to 7997
  156.1691  140.3125  155.8907 H   0  0  0  0  0  0  0  0  0  0  0  0  # atno 8009 bound_to 7997
  155.3594  140.0460  157.3037 H   0  0  0  0  0  0  0  0  0  0  0  0  # atno 8010 bound_to 7997
  139.4879  144.5703  151.7067 H   0  0  0  0  0  0  0  0  0  0  0  0  # atno 10167 bound_to 10162
  156.0114  130.5249  150.6561 H   0  0  0  0  0  0  0  0  0  0  0  0  # atno 10718 bound_to 10713
  153.4495  135.3747  155.2276 H   0  0  0  0  0  0  0  0  0  0  0  0  # atno 10763 bound_to 10752
  154.8756  135.3882  154.4055 H   0  0  0  0  0  0  0  0  0  0  0  0  # atno 10764 bound_to 10752
  153.4612  135.7086  153.6113 H   0  0  0  0  0  0  0  0  0  0  0  0  # atno 10765 bound_to 10752
  139.8888  134.9491  156.6323 H   0  0  0  0  0  0  0  0  0  0  0  0  # atno 11005 bound_to 11000
  145.1769  139.2373  143.5313 LP  0  0  0  0  0  0  0  0  0  0  0  0  # atno 17320 bound_to 7965
  146.3498  140.1533  142.8592 LP  0  0  0  0  0  0  0  0  0  0  0  0  # atno 17321 bound_to 7965
  140.5289  144.0762  150.6047 LP  0  0  0  0  0  0  0  0  0  0  0  0  # atno 17342 bound_to 10162
  140.3745  143.2836  152.0241 LP  0  0  0  0  0  0  0  0  0  0  0  0  # atno 17343 bound_to 10162
  157.4313  131.0849  151.1036 LP  0  0  0  0  0  0  0  0  0  0  0  0  # atno 17370 bound_to 10713
  157.1608  130.6225  149.5610 LP  0  0  0  0  0  0  0  0  0  0  0  0  # atno 17371 bound_to 10713
  140.7657  133.8780  155.8452 LP  0  0  0  0  0  0  0  0  0  0  0  0  # atno 17394 bound_to 11000
  140.9884  134.1311  157.4430 LP  0  0  0  0  0  0  0  0  0  0  0  0  # atno 17395 bound_to 11000

$$$$
