AV-unprocessed.smi:1240|AV-procd|sdf|5205|dock7
  -GOLD-   22720 4293D 1   1.00000     0.00000
 Structure written by MMmdl.
 48 50  0  0  0  0  0  0  0  0  2 V2000
  144.9563  138.0639  151.3560 O   0  0  0  0  0  0  0  0  0  0  0  0
  146.0498  137.5078  151.4545 C   0  0  0  0  0  0  0  0  0  0  0  0
  147.1936  138.1656  151.6906 N   0  0  0  0  0  0  0  0  0  0  0  0
  147.3088  139.6120  151.8618 C   0  0  0  0  0  0  0  0  0  0  0  0
  147.0120  140.0966  153.3165 C   0  0  2  0  0  0  0  0  0  0  0  0
  146.2439  141.4616  153.2538 C   0  0  1  0  0  0  0  0  0  0  0  0
  145.9713  142.2386  154.5305 C   0  0  0  0  0  0  0  0  0  0  0  0
  145.5136  143.5823  153.9768 C   0  0  0  0  0  0  0  0  0  0  0  0
  146.2987  143.7849  152.8065 O   0  0  0  0  0  0  0  0  0  0  0  0
  146.9032  142.5568  152.4065 C   0  0  0  0  0  0  0  0  0  0  0  0
  148.1862  140.1149  154.2259 N   0  0  0  0  0  0  0  0  0  0  0  0
  149.0610  138.9545  154.0102 C   0  0  0  0  0  0  0  0  0  0  0  0
  150.2188  138.9038  155.0200 C   0  0  0  0  0  0  0  0  0  0  0  0
  150.9893  140.0939  154.9082 O   0  0  0  0  0  0  0  0  0  0  0  0
  150.2125  141.2661  155.1213 C   0  0  0  0  0  0  0  0  0  0  0  0
  149.0367  141.3059  154.1278 C   0  0  0  0  0  0  0  0  0  0  0  0
  146.2645  136.1875  151.3204 N   0  0  0  0  0  0  0  0  0  0  0  0
  145.3182  135.1618  151.0489 C   0  0  0  0  0  0  0  0  0  0  0  0
  143.9486  135.4854  151.1731 C   0  0  0  0  0  0  0  0  0  0  0  0
  142.9744  134.5027  150.9028 C   0  0  0  0  0  0  0  0  0  0  0  0
  143.3555  133.2661  150.5176 N   0  3  0  0  0  0  0  0  0  0  0  0
  144.6506  132.9141  150.3696 C   0  0  0  0  0  0  0  0  0  0  0  0
  145.6694  133.8542  150.6260 C   0  0  0  0  0  0  0  0  0  0  0  0
  148.0489  137.6326  151.7536 H   0  0  0  0  0  0  0  0  0  0  0  0
  148.3175  139.8892  151.5528 H   0  0  0  0  0  0  0  0  0  0  0  0
  146.6313  140.0886  151.1530 H   0  0  0  0  0  0  0  0  0  0  0  0
  146.3096  139.3669  153.7220 H   0  0  0  0  0  0  0  0  0  0  0  0
  145.2633  141.2648  152.8176 H   0  0  0  0  0  0  0  0  0  0  0  0
  145.2299  141.7698  155.1780 H   0  0  0  0  0  0  0  0  0  0  0  0
  146.8867  142.4081  155.0971 H   0  0  0  0  0  0  0  0  0  0  0  0
  144.4613  143.5411  153.6928 H   0  0  0  0  0  0  0  0  0  0  0  0
  145.6418  144.3956  154.6912 H   0  0  0  0  0  0  0  0  0  0  0  0
  147.9730  142.6142  152.6114 H   0  0  0  0  0  0  0  0  0  0  0  0
  146.7723  142.3955  151.3363 H   0  0  0  0  0  0  0  0  0  0  0  0
  148.5189  138.0157  154.0541 H   0  0  0  0  0  0  0  0  0  0  0  0
  149.4782  138.9972  153.0029 H   0  0  0  0  0  0  0  0  0  0  0  0
  149.8414  138.7939  156.0379 H   0  0  0  0  0  0  0  0  0  0  0  0
  150.8602  138.0455  154.8196 H   0  0  0  0  0  0  0  0  0  0  0  0
  149.8475  141.2843  156.1494 H   0  0  0  0  0  0  0  0  0  0  0  0
  150.8482  142.1419  154.9918 H   0  0  0  0  0  0  0  0  0  0  0  0
  149.4222  141.4085  153.1122 H   0  0  0  0  0  0  0  0  0  0  0  0
  148.4594  142.2042  154.3452 H   0  0  0  0  0  0  0  0  0  0  0  0
  147.2292  135.8914  151.3491 H   0  0  0  0  0  0  0  0  0  0  0  0
  143.6433  136.4755  151.4799 H   0  0  0  0  0  0  0  0  0  0  0  0
  141.9098  134.6682  150.9810 H   0  0  0  0  0  0  0  0  0  0  0  0
  144.8322  131.8993  150.0470 H   0  0  0  0  0  0  0  0  0  0  0  0
  146.6970  133.5570  150.4822 H   0  0  0  0  0  0  0  0  0  0  0  0
  142.6349  132.5696  150.3254 H   0  0  0  0  0  0  0  0  0  0  0  0
  1  2  2  0  0  0  0
  2  3  1  0  0  0  0
  2 17  1  0  0  0  0
  3  4  1  0  0  0  0
  3 24  1  0  0  0  0
  4  5  1  0  0  0  0
  4 25  1  0  0  0  0
  4 26  1  0  0  0  0
  5  6  1  0  0  0  0
  5 11  1  0  0  0  0
  5 27  1  0  0  0  0
  6 10  1  0  0  0  0
  6  7  1  0  0  0  0
  6 28  1  0  0  0  0
  7  8  1  0  0  0  0
  7 29  1  0  0  0  0
  7 30  1  0  0  0  0
  8  9  1  0  0  0  0
  8 31  1  0  0  0  0
  8 32  1  0  0  0  0
  9 10  1  0  0  0  0
 10 33  1  0  0  0  0
 10 34  1  0  0  0  0
 11 16  1  0  0  0  0
 11 12  1  0  0  0  0
 12 13  1  0  0  0  0
 12 35  1  0  0  0  0
 12 36  1  0  0  0  0
 13 14  1  0  0  0  0
 13 37  1  0  0  0  0
 13 38  1  0  0  0  0
 14 15  1  0  0  0  0
 15 16  1  0  0  0  0
 15 39  1  0  0  0  0
 15 40  1  0  0  0  0
 16 41  1  0  0  0  0
 16 42  1  0  0  0  0
 17 18  1  0  0  0  0
 17 43  1  0  0  0  0
 18 23  1  0  0  0  0
 18 19  2  0  0  0  0
 19 20  1  0  0  0  0
 19 44  1  0  0  0  0
 20 21  2  0  0  0  0
 20 45  1  0  0  0  0
 21 22  1  0  0  0  0
 21 48  1  0  0  0  0
 22 23  2  0  0  0  0
 22 46  1  0  0  0  0
 23 47  1  0  0  0  0
M  CHG  1  21   1
M  END
> <s_m_source_file>
AV-unprocessed.smi

> <i_m_source_file_index>
1240

> <i_lp_mmshare_version>
43012

> <i_f3d_flags>
0

> <s_epik_input>
W2NIXTFbY0hdbltjSF1bY0hdYzFbTkhdQyg9TylbTkhdW0NIMl1bQ0BIXShbQ0BASF0yW0NIMl1bQ0gyXU9bQ0gyXTIpTjNbQ0gyXVtDSDJdT1tDSDJdW0NIMl0z

> <s_epik_cmdline>
J2VwaWtfcHl0aG9uJywgJy1waCcsICc3LjAnLCAnLXRuJywgJzgnLCAnLW1hJywgJzIwMCcsICctbWV0YWxfYmluZGluZycsICctaW1hZScsICc8aW5maWxlLm1hZT4nLCAnLW9tYWUnLCAnPG91dGZpbGUubWFlPic=

> <r_epik_Ionization_Penalty>
1.15944

> <r_epik_Ionization_Penalty_Charging>
1.0344

> <r_epik_Ionization_Penalty_Neutral>
0.125034

> <r_epik_State_Penalty>
1.2199

> <r_epik_Charging_Adjusted_Penalty>
2.25431

> <i_epik_Tot_Q>
1

> <i_epik_Tot_abs_Q>
1

> <r_epik_Metal_State_Penalty>
1.3155

> <b_epik_Metal_Only>
0

> <s_lp_Force_Field>
OPLS_2005

> <r_lp_Energy>
67.1195

> <b_lp_Chiralities_Consistent>
1

> <s_lp_Variant>
AV-unprocessed.smi:1240-11

> <Gold.Version>
5.8.1

> <Gold.Id.Protein>
6NUR|6NUR_protein|mol2

> <Gold.PLP.Fitness>
43.2140

> <Gold.PLP.PLP>
-36.3345

> <Gold.PLP.part.hbond>
-3.0000

> <Gold.PLP.part.metal>
0.0000

> <Gold.PLP.part.buried>
-6.7615

> <Gold.PLP.part.nonpolar>
-28.9637

> <Gold.PLP.part.repulsive>
1.5259

> <Gold.PLP.ligand.clash>
0.0000

> <Gold.PLP.ligand.torsion>
1.1413

> <Gold.PLP.Chemscore.Hbond>
2.9920

> <Gold.PLP.Chemscore.CHOScore>
0.0000

> <Gold.PLP.Chemscore.Metal>
0.0000

> <Gold.Chemscore.Hbonds>
donor molecule, donor type, donor heavy atom, donor atom, acceptor molecule, acceptor atom, score
      L1  H     3    24       P1  7948  1.00
      L1  H    17    43       P1  7948  1.00
      P1  H  7989  7998       L1    14  0.35

> <Gold.PLP.Chemscore.Internal.Correction>
0.1860

> <Gold.Rescore>
     Score         DG    S(hbond)    S(metal)    S(lipo)     H(rot)  DE(clash)    DE(int)     intcor
     16.01     -19.45       2.76        0.00      77.77       1.69       0.03       3.41       ----

> <Gold.Chemscore.Fitness>
16.0149

> <Gold.Chemscore.DG>
-19.4543

> <Gold.Chemscore.ZeroCoef>
-5.4800

> <Gold.Chemscore.Hbond>
2.7557

> <Gold.Chemscore.Metal>
0.0000

> <Gold.Chemscore.Lipo>
77.7740

> <Gold.Chemscore.Internal_Hbond>
0.0000

> <Gold.Chemscore.DEClash>
0.0324

> <Gold.Chemscore.DEInternal>
3.4069

> <Gold.Chemscore.Rot>
1.6912

> <Gold.Chemscore.Internal.Correction>
   9.000000E+99

> <Gold.Chemscore.Hbonds>
donor molecule, donor type, donor heavy atom, donor atom, acceptor molecule, acceptor atom, score
      L1  H     3    24       P1  7948  0.98
      L1  H    17    43       P1  7948  0.94
      P1  H  7989  7998       L1    14  0.01

> <Gold.Chemscore.Hbond.Weighted>
-9.2042

> <Gold.Chemscore.Metal.Weighted>
-0.0000

> <Gold.Chemscore.Lipo.Weighted>
-9.0996

> <Gold.Chemscore.Internal_Hbond.Weighted>
0.0000

> <Gold.Chemscore.DEClash.Weighted>
0.0324

> <Gold.Chemscore.DEInternal.Weighted>
3.4069

> <Gold.Chemscore.Rot.Weighted>
4.3295

> <Gold.Chemscore.Internal.Correction.Weighted>
   9.000000E+99

> <Gold.Protein.RotatedTorsions>
[ 6907 6896 6895 6894 ] final -110.14 input  -60.11 | X-H torsion
[ 7974 7965 7964 7962 ] final  -57.83 input  175.53 | X-H torsion
[ 8008 7997 7996 7995 ] final -124.43 input   59.86 | X-H torsion
[ 10167 10162 10161 10158 ] final   52.25 input  -65.29 | X-H torsion
[ 10718 10713 10712 10709 ] final   73.23 input   66.30 | X-H torsion
[ 10763 10752 10751 10750 ] final   77.25 input  -60.55 | X-H torsion
[ 11005 11000 10999 10996 ] final  141.60 input  -57.11 | X-H torsion

> <Gold.Protein.ActiveResidues>
 VAL166  LYS551  ARG553  GLY616  TRP617  ASP618  TYR619  PRO620  LYS621  CYS622 
 ASP623  PHE694  ASN695  SER759  ASP760  ASP761  ALA762  ILE779  LEU786  VAL792 
 PHE793  MET794  SER795  GLU796  ALA797  LYS798  CYS799  TRP800  GLU811  SER814 

> <Gold.Protein.RotatedAtoms>
  150.7606  133.9426  159.3460 H   0  0  0  0  0  0  0  0  0  0  0  0  # atno 6907 bound_to 6896
  151.7335  135.0868  160.0313 H   0  0  0  0  0  0  0  0  0  0  0  0  # atno 6908 bound_to 6896
  152.3574  133.6217  159.6025 H   0  0  0  0  0  0  0  0  0  0  0  0  # atno 6909 bound_to 6896
  145.8465  140.8381  143.0007 H   0  0  0  0  0  0  0  0  0  0  0  0  # atno 7974 bound_to 7965
  155.1967  140.0415  157.2910 H   0  0  0  0  0  0  0  0  0  0  0  0  # atno 8008 bound_to 7997
  154.6102  140.2474  155.7651 H   0  0  0  0  0  0  0  0  0  0  0  0  # atno 8009 bound_to 7997
  156.2374  140.2916  156.0360 H   0  0  0  0  0  0  0  0  0  0  0  0  # atno 8010 bound_to 7997
  140.2534  144.3454  150.6341 H   0  0  0  0  0  0  0  0  0  0  0  0  # atno 10167 bound_to 10162
  157.6538  130.9618  150.1040 H   0  0  0  0  0  0  0  0  0  0  0  0  # atno 10718 bound_to 10713
  153.0784  135.4921  154.8453 H   0  0  0  0  0  0  0  0  0  0  0  0  # atno 10763 bound_to 10752
  154.7119  135.3021  154.9187 H   0  0  0  0  0  0  0  0  0  0  0  0  # atno 10764 bound_to 10752
  153.9878  135.6782  153.4805 H   0  0  0  0  0  0  0  0  0  0  0  0  # atno 10765 bound_to 10752
  140.0413  134.9303  157.0848 H   0  0  0  0  0  0  0  0  0  0  0  0  # atno 11005 bound_to 11000
  144.6731  140.0890  143.7466 LP  0  0  0  0  0  0  0  0  0  0  0  0  # atno 17320 bound_to 7965
  145.9406  139.2666  143.1271 LP  0  0  0  0  0  0  0  0  0  0  0  0  # atno 17321 bound_to 7965
  140.6023  143.2167  151.7048 LP  0  0  0  0  0  0  0  0  0  0  0  0  # atno 17342 bound_to 10162
  139.5039  144.3773  152.0411 LP  0  0  0  0  0  0  0  0  0  0  0  0  # atno 17343 bound_to 10162
  156.1955  130.3657  149.8855 LP  0  0  0  0  0  0  0  0  0  0  0  0  # atno 17370 bound_to 10713
  156.6772  130.8844  151.3571 LP  0  0  0  0  0  0  0  0  0  0  0  0  # atno 17371 bound_to 10713
  140.4064  134.2027  155.7163 LP  0  0  0  0  0  0  0  0  0  0  0  0  # atno 17394 bound_to 11000
  141.1884  133.8260  157.0994 LP  0  0  0  0  0  0  0  0  0  0  0  0  # atno 17395 bound_to 11000

$$$$
