AV-unprocessed.smi:1757|AV-procd|sdf|7077|dock7
  -GOLD-   22720 8293D 1   1.00000     0.00000
 Structure written by MMmdl.
 39 40  0  0  0  0  0  0  0  0  3 V2000
  143.5617  133.3151  148.2660 C   0  0  0  0  0  0  0  0  0  0  0  0
  144.6566  133.4963  149.2430 N   0  3  2  0  0  0  0  0  0  0  0  0
  144.9357  132.2594  150.0144 C   0  0  0  0  0  0  0  0  0  0  0  0
  146.1596  132.4418  150.9277 C   0  0  0  0  0  0  0  0  0  0  0  0
  145.9776  133.6453  151.8675 C   0  0  1  0  0  0  0  0  0  0  0  0
  147.1969  133.8625  152.6418 N   0  0  0  0  0  0  0  0  0  0  0  0
  147.6728  133.0572  153.6027 C   0  0  0  0  0  0  0  0  0  0  0  0
  147.1180  132.0143  153.9486 O   0  0  0  0  0  0  0  0  0  0  0  0
  148.8047  133.5605  154.1273 N   0  0  0  0  0  0  0  0  0  0  0  0
  149.6375  133.0266  155.1253 C   0  0  0  0  0  0  0  0  0  0  0  0
  150.3135  131.8488  155.0235 C   0  0  0  0  0  0  0  0  0  0  0  0
  151.1771  131.3528  156.0880 C   0  0  0  0  0  0  0  0  0  0  0  0
  151.9350  130.0391  156.0332 C   0  0  0  0  0  0  0  0  0  0  0  0
  151.6527  129.3921  154.9029 F   0  0  0  0  0  0  0  0  0  0  0  0
  153.2483  130.2630  156.0629 F   0  0  0  0  0  0  0  0  0  0  0  0
  151.6190  129.2498  157.0600 F   0  0  0  0  0  0  0  0  0  0  0  0
  151.2266  132.2112  157.1681 C   0  0  0  0  0  0  0  0  0  0  0  0
  150.6020  133.3966  157.3425 N   0  5  0  0  0  0  0  0  0  0  0  0
  149.7923  133.8490  156.3435 C   0  0  0  0  0  0  0  0  0  0  0  0
  149.1924  134.9207  156.4355 O   0  0  0  0  0  0  0  0  0  0  0  0
  145.6467  134.9028  151.0461 C   0  0  0  0  0  0  0  0  0  0  0  0
  144.4349  134.6661  150.1290 C   0  0  0  0  0  0  0  0  0  0  0  0
  142.6196  133.0954  148.7702 H   0  0  0  0  0  0  0  0  0  0  0  0
  143.7855  132.4935  147.5848 H   0  0  0  0  0  0  0  0  0  0  0  0
  143.4273  134.2162  147.6665 H   0  0  0  0  0  0  0  0  0  0  0  0
  144.0597  131.9936  150.6084 H   0  0  0  0  0  0  0  0  0  0  0  0
  145.1159  131.4323  149.3267 H   0  0  0  0  0  0  0  0  0  0  0  0
  146.3236  131.5343  151.5104 H   0  0  0  0  0  0  0  0  0  0  0  0
  147.0507  132.5804  150.3138 H   0  0  0  0  0  0  0  0  0  0  0  0
  145.1347  133.4364  152.5289 H   0  0  0  0  0  0  0  0  0  0  0  0
  147.7228  134.6987  152.4330 H   0  0  0  0  0  0  0  0  0  0  0  0
  149.0923  134.4684  153.7924 H   0  0  0  0  0  0  0  0  0  0  0  0
  150.2442  131.2504  154.1302 H   0  0  0  0  0  0  0  0  0  0  0  0
  151.8654  131.8953  158.0206 H   0  0  0  0  0  0  0  0  0  0  0  0
  145.4465  135.7428  151.7125 H   0  0  0  0  0  0  0  0  0  0  0  0
  146.5078  135.1880  150.4397 H   0  0  0  0  0  0  0  0  0  0  0  0
  144.2593  135.5557  149.5227 H   0  0  0  0  0  0  0  0  0  0  0  0
  143.5360  134.5072  150.7271 H   0  0  0  0  0  0  0  0  0  0  0  0
  145.4887  133.6949  148.7061 H   0  0  0  0  0  0  0  0  0  0  0  0
  1  2  1  0  0  0  0
  1 23  1  0  0  0  0
  1 24  1  0  0  0  0
  1 25  1  0  0  0  0
  2 22  1  0  0  0  0
  2  3  1  0  0  0  0
  2 39  1  0  0  0  0
  3  4  1  0  0  0  0
  3 26  1  0  0  0  0
  3 27  1  0  0  0  0
  4  5  1  0  0  0  0
  4 28  1  0  0  0  0
  4 29  1  0  0  0  0
  5  6  1  0  0  0  0
  5 21  1  0  0  0  0
  5 30  1  0  0  0  0
  6  7  1  0  0  0  0
  6 31  1  0  0  0  0
  7  8  2  0  0  0  0
  7  9  1  0  0  0  0
  9 10  1  0  0  0  0
  9 32  1  0  0  0  0
 10 19  1  0  0  0  0
 10 11  2  0  0  0  0
 11 12  1  0  0  0  0
 11 33  1  0  0  0  0
 12 13  1  0  0  0  0
 12 17  2  0  0  0  0
 13 14  1  0  0  0  0
 13 15  1  0  0  0  0
 13 16  1  0  0  0  0
 17 18  1  0  0  0  0
 17 34  1  0  0  0  0
 18 19  1  0  0  0  0
 19 20  2  0  0  0  0
 21 22  1  0  0  0  0
 21 35  1  0  0  0  0
 21 36  1  0  0  0  0
 22 37  1  0  0  0  0
 22 38  1  0  0  0  0
M  CHG  1   2   1
M  CHG  1  18  -1
M  END
> <s_m_source_file>
AV-unprocessed.smi

> <i_m_source_file_index>
1757

> <i_lp_mmshare_version>
43012

> <i_f3d_flags>
0

> <s_epik_input>
W0NIM11OMVtDSDJdW0NIMl1bQ0hdKFtDSDJdW0NIMl0xKVtOSF1DKD1PKVtOSF1jMltjSF1jKEMoRikoRilGKVtjSF1bbkhdYzI9Tw==

> <s_epik_cmdline>
J2VwaWtfcHl0aG9uJywgJy1waCcsICc3LjAnLCAnLXRuJywgJzgnLCAnLW1hJywgJzIwMCcsICctbWV0YWxfYmluZGluZycsICctaW1hZScsICc8aW5maWxlLm1hZT4nLCAnLW9tYWUnLCAnPG91dGZpbGUubWFlPic=

> <r_lp_tautomer_probability>
1

> <r_epik_Ionization_Penalty>
3.04759

> <r_epik_Ionization_Penalty_Charging>
0.155898

> <r_epik_Ionization_Penalty_Neutral>
2.89169

> <r_epik_State_Penalty>
2.88714

> <r_epik_Charging_Adjusted_Penalty>
3.04304

> <i_epik_Tot_Q>
0

> <i_epik_Tot_abs_Q>
2

> <r_epik_Metal_State_Penalty>
0.445786

> <b_epik_Metal_Only>
1

> <s_lp_Force_Field>
OPLS_2005

> <r_lp_Energy>
29.3736

> <b_lp_Chiralities_Consistent>
1

> <s_lp_Variant>
AV-unprocessed.smi:1757-3

> <Gold.Version>
5.8.1

> <Gold.Id.Protein>
6NUR|6NUR_protein|mol2

> <Gold.PLP.Fitness>
44.7421

> <Gold.PLP.PLP>
-35.1054

> <Gold.PLP.part.hbond>
-3.0000

> <Gold.PLP.part.metal>
0.0000

> <Gold.PLP.part.buried>
-1.8895

> <Gold.PLP.part.nonpolar>
-30.6723

> <Gold.PLP.part.repulsive>
0.2253

> <Gold.PLP.ligand.clash>
0.0000

> <Gold.PLP.ligand.torsion>
0.6923

> <Gold.PLP.Chemscore.Hbond>
3.6720

> <Gold.PLP.Chemscore.CHOScore>
0.0000

> <Gold.PLP.Chemscore.Metal>
0.0000

> <Gold.Chemscore.Hbonds>
donor molecule, donor type, donor heavy atom, donor atom, acceptor molecule, acceptor atom, score
      L1  H     2    39       P1  7921  0.86
      L1  H     6    31       P1  7948  1.00
      P1  H  6896  6909       L1    18  1.16

> <Gold.PLP.Chemscore.Internal.Correction>
0.0053

> <Gold.Rescore>
     Score         DG    S(hbond)    S(metal)    S(lipo)     H(rot)  DE(clash)    DE(int)     intcor
     15.65     -18.90       2.28        0.00      71.45       1.00       2.30       0.95       ----

> <Gold.Chemscore.Fitness>
15.6513

> <Gold.Chemscore.DG>
-18.8996

> <Gold.Chemscore.ZeroCoef>
-5.4800

> <Gold.Chemscore.Hbond>
2.2814

> <Gold.Chemscore.Metal>
0.0000

> <Gold.Chemscore.Lipo>
71.4503

> <Gold.Chemscore.Internal_Hbond>
0.0000

> <Gold.Chemscore.DEClash>
2.2999

> <Gold.Chemscore.DEInternal>
0.9484

> <Gold.Chemscore.Rot>
1.0000

> <Gold.Chemscore.Internal.Correction>
   9.000000E+99

> <Gold.Chemscore.Hbonds>
donor molecule, donor type, donor heavy atom, donor atom, acceptor molecule, acceptor atom, score
      L1  H     2    39       P1  7921  0.38
      L1  H     6    31       P1  7948  0.75
      P1  H  6896  6909       L1    18  0.05

> <Gold.Chemscore.Hbond.Weighted>
-7.6199

> <Gold.Chemscore.Metal.Weighted>
-0.0000

> <Gold.Chemscore.Lipo.Weighted>
-8.3597

> <Gold.Chemscore.Internal_Hbond.Weighted>
0.0000

> <Gold.Chemscore.DEClash.Weighted>
2.2999

> <Gold.Chemscore.DEInternal.Weighted>
0.9484

> <Gold.Chemscore.Rot.Weighted>
2.5600

> <Gold.Chemscore.Internal.Correction.Weighted>
   9.000000E+99

> <Gold.Protein.RotatedTorsions>
[ 6907 6896 6895 6894 ] final  -24.54 input  -60.11 | X-H torsion
[ 7974 7965 7964 7962 ] final   57.11 input  175.53 | X-H torsion
[ 8008 7997 7996 7995 ] final -102.38 input   59.86 | X-H torsion
[ 10167 10162 10161 10158 ] final -177.62 input  -65.29 | X-H torsion
[ 10718 10713 10712 10709 ] final  -98.17 input   66.30 | X-H torsion
[ 10763 10752 10751 10750 ] final  -32.44 input  -60.55 | X-H torsion
[ 11005 11000 10999 10996 ] final   10.03 input  -57.11 | X-H torsion

> <Gold.Protein.ActiveResidues>
 VAL166  LYS551  ARG553  GLY616  TRP617  ASP618  TYR619  PRO620  LYS621  CYS622 
 ASP623  PHE694  ASN695  SER759  ASP760  ASP761  ALA762  ILE779  LEU786  VAL792 
 PHE793  MET794  SER795  GLU796  ALA797  LYS798  CYS799  TRP800  GLU811  SER814 

> <Gold.Protein.RotatedAtoms>
  151.1881  135.0390  159.8820 H   0  0  0  0  0  0  0  0  0  0  0  0  # atno 6907 bound_to 6896
  152.5441  134.0987  159.8318 H   0  0  0  0  0  0  0  0  0  0  0  0  # atno 6908 bound_to 6896
  151.1112  133.5124  159.2638 H   0  0  0  0  0  0  0  0  0  0  0  0  # atno 6909 bound_to 6896
  145.9326  139.3820  143.0412 H   0  0  0  0  0  0  0  0  0  0  0  0  # atno 7974 bound_to 7965
  154.8559  140.0429  157.1634 H   0  0  0  0  0  0  0  0  0  0  0  0  # atno 8008 bound_to 7997
  154.8892  140.2984  155.5360 H   0  0  0  0  0  0  0  0  0  0  0  0  # atno 8009 bound_to 7997
  156.2997  140.2396  156.3906 H   0  0  0  0  0  0  0  0  0  0  0  0  # atno 8010 bound_to 7997
  139.5471  144.2206  152.1009 H   0  0  0  0  0  0  0  0  0  0  0  0  # atno 10167 bound_to 10162
  156.0101  130.5226  150.6483 H   0  0  0  0  0  0  0  0  0  0  0  0  # atno 10718 bound_to 10713
  153.8139  135.6880  153.4837 H   0  0  0  0  0  0  0  0  0  0  0  0  # atno 10763 bound_to 10752
  153.1611  135.4579  154.9772 H   0  0  0  0  0  0  0  0  0  0  0  0  # atno 10764 bound_to 10752
  154.7956  135.3318  154.7617 H   0  0  0  0  0  0  0  0  0  0  0  0  # atno 10765 bound_to 10752
  140.5191  134.0577  155.7839 H   0  0  0  0  0  0  0  0  0  0  0  0  # atno 11005 bound_to 11000
  145.8405  140.9583  143.0801 LP  0  0  0  0  0  0  0  0  0  0  0  0  # atno 17320 bound_to 7965
  144.6767  140.0279  143.7483 LP  0  0  0  0  0  0  0  0  0  0  0  0  # atno 17321 bound_to 7965
  140.1694  144.4950  150.6588 LP  0  0  0  0  0  0  0  0  0  0  0  0  # atno 17342 bound_to 10162
  140.6723  143.2291  151.5594 LP  0  0  0  0  0  0  0  0  0  0  0  0  # atno 17343 bound_to 10162
  157.4250  131.0842  151.1094 LP  0  0  0  0  0  0  0  0  0  0  0  0  # atno 17370 bound_to 10713
  157.1685  130.6257  149.5633 LP  0  0  0  0  0  0  0  0  0  0  0  0  # atno 17371 bound_to 10713
  141.1344  133.9247  157.2466 LP  0  0  0  0  0  0  0  0  0  0  0  0  # atno 17394 bound_to 11000
  139.9616  135.0153  156.9276 LP  0  0  0  0  0  0  0  0  0  0  0  0  # atno 17395 bound_to 11000

$$$$
