AV-unprocessed.smi:767|AV-procd|sdf|3660|dock9
  -GOLD-   22720 1 73D 1   1.00000     0.00000
 Structure written by MMmdl.
 47 49  0  0  0  0  0  0  0  0  1 V2000
  146.0006  130.0224  151.6586 C   0  0  0  0  0  0  0  0  0  0  0  0
  145.6844  131.4849  151.4256 C   0  0  0  0  0  0  0  0  0  0  0  0
  144.4517  131.8758  150.8620 C   0  0  0  0  0  0  0  0  0  0  0  0
  144.2106  133.2487  150.6637 C   0  0  0  0  0  0  0  0  0  0  0  0
  145.2081  134.1748  151.0324 C   0  0  0  0  0  0  0  0  0  0  0  0
  145.0149  135.6645  150.8079 C   0  0  0  0  0  0  0  0  0  0  0  0
  145.0299  136.4913  152.1083 C   0  0  0  0  0  0  0  0  0  0  0  0
  146.3713  136.9562  152.4535 N   0  0  0  0  0  0  0  0  0  0  0  0
  146.6614  137.8407  153.4187 C   0  0  0  0  0  0  0  0  0  0  0  0
  145.8198  138.4007  154.1212 O   0  0  0  0  0  0  0  0  0  0  0  0
  147.9813  138.0317  153.5384 N   0  0  0  0  0  0  0  0  0  0  0  0
  148.5951  138.8958  154.5410 C   0  0  1  0  0  0  0  0  0  0  0  0
  149.9656  139.4313  154.0989 C   0  0  2  0  0  0  0  0  0  0  0  0
  151.2069  139.0116  154.8377 C   0  0  0  0  0  0  0  0  0  0  0  0
  151.4017  140.1445  155.8495 C   0  0  0  0  0  0  0  0  0  0  0  0
  150.1157  140.7485  155.9702 O   0  0  0  0  0  0  0  0  0  0  0  0
  149.5274  140.7707  154.6718 C   0  0  2  0  0  0  0  0  0  0  0  0
  148.0468  140.3450  154.5753 C   0  0  0  0  0  0  0  0  0  0  0  0
  147.3233  140.8607  153.3228 C   0  0  0  0  0  0  0  0  0  0  0  0
  147.1657  140.7047  155.7726 C   0  0  0  0  0  0  0  0  0  0  0  0
  146.4042  133.6793  151.5931 C   0  0  0  0  0  0  0  0  0  0  0  0
  146.6427  132.3649  151.7902 N   0  0  0  0  0  0  0  0  0  0  0  0
  145.3267  129.3800  151.0911 H   0  0  0  0  0  0  0  0  0  0  0  0
  145.8968  129.7783  152.7160 H   0  0  0  0  0  0  0  0  0  0  0  0
  147.0219  129.7950  151.3506 H   0  0  0  0  0  0  0  0  0  0  0  0
  143.7087  131.1430  150.5842 H   0  0  0  0  0  0  0  0  0  0  0  0
  143.2813  133.5810  150.2253 H   0  0  0  0  0  0  0  0  0  0  0  0
  145.7924  136.0270  150.1341 H   0  0  0  0  0  0  0  0  0  0  0  0
  144.0685  135.8184  150.2882 H   0  0  0  0  0  0  0  0  0  0  0  0
  144.3888  137.3652  151.9916 H   0  0  0  0  0  0  0  0  0  0  0  0
  144.6024  135.9106  152.9276 H   0  0  0  0  0  0  0  0  0  0  0  0
  147.1376  136.5533  151.9347 H   0  0  0  0  0  0  0  0  0  0  0  0
  148.6011  137.5297  152.9196 H   0  0  0  0  0  0  0  0  0  0  0  0
  148.6399  138.4474  155.5364 H   0  0  0  0  0  0  0  0  0  0  0  0
  150.0719  139.4743  153.0132 H   0  0  0  0  0  0  0  0  0  0  0  0
  151.0545  138.0584  155.3451 H   0  0  0  0  0  0  0  0  0  0  0  0
  152.0711  138.9078  154.1810 H   0  0  0  0  0  0  0  0  0  0  0  0
  151.7696  139.7894  156.8123 H   0  0  0  0  0  0  0  0  0  0  0  0
  152.1053  140.8845  155.4655 H   0  0  0  0  0  0  0  0  0  0  0  0
  149.8233  141.6319  154.0706 H   0  0  0  0  0  0  0  0  0  0  0  0
  147.1803  141.9408  153.3631 H   0  0  0  0  0  0  0  0  0  0  0  0
  146.3385  140.4060  153.2094 H   0  0  0  0  0  0  0  0  0  0  0  0
  147.8859  140.6479  152.4134 H   0  0  0  0  0  0  0  0  0  0  0  0
  147.0442  141.7837  155.8698 H   0  0  0  0  0  0  0  0  0  0  0  0
  147.5908  140.3420  156.7085 H   0  0  0  0  0  0  0  0  0  0  0  0
  146.1718  140.2651  155.6833 H   0  0  0  0  0  0  0  0  0  0  0  0
  147.1957  134.3548  151.8827 H   0  0  0  0  0  0  0  0  0  0  0  0
  1  2  1  0  0  0  0
  1 23  1  0  0  0  0
  1 24  1  0  0  0  0
  1 25  1  0  0  0  0
  2 22  1  0  0  0  0
  2  3  2  0  0  0  0
  3  4  1  0  0  0  0
  3 26  1  0  0  0  0
  4  5  2  0  0  0  0
  4 27  1  0  0  0  0
  5  6  1  0  0  0  0
  5 21  1  0  0  0  0
  6  7  1  0  0  0  0
  6 28  1  0  0  0  0
  6 29  1  0  0  0  0
  7  8  1  0  0  0  0
  7 30  1  0  0  0  0
  7 31  1  0  0  0  0
  8  9  1  0  0  0  0
  8 32  1  0  0  0  0
  9 10  2  0  0  0  0
  9 11  1  0  0  0  0
 11 12  1  0  0  0  0
 11 33  1  0  0  0  0
 12 18  1  0  0  0  0
 12 13  1  0  0  0  0
 12 34  1  0  0  0  0
 13 17  1  0  0  0  0
 13 14  1  0  0  0  0
 13 35  1  0  0  0  0
 14 15  1  0  0  0  0
 14 36  1  0  0  0  0
 14 37  1  0  0  0  0
 15 16  1  0  0  0  0
 15 38  1  0  0  0  0
 15 39  1  0  0  0  0
 16 17  1  0  0  0  0
 17 18  1  0  0  0  0
 17 40  1  0  0  0  0
 18 19  1  0  0  0  0
 18 20  1  0  0  0  0
 19 41  1  0  0  0  0
 19 42  1  0  0  0  0
 19 43  1  0  0  0  0
 20 44  1  0  0  0  0
 20 45  1  0  0  0  0
 20 46  1  0  0  0  0
 21 22  2  0  0  0  0
 21 47  1  0  0  0  0
M  END
> <s_m_source_file>
AV-unprocessed.smi

> <i_m_source_file_index>
767

> <i_lp_mmshare_version>
43012

> <i_f3d_flags>
0

> <s_epik_input>
W0NIM11jMVtjSF1bY0hdYyhbY0hdbjEpW0NIMl1bQ0gyXVtOSF1DKD1PKVtOSF1bQ0BIXTJDKFtDSDNdKShbQ0gzXSlbQ0BIXShbQ0BASF0yMylPW0NIMl1bQ0gyXTM=

> <s_epik_cmdline>
J2VwaWtfcHl0aG9uJywgJy1waCcsICc3LjAnLCAnLXRuJywgJzgnLCAnLW1hJywgJzIwMCcsICctbWV0YWxfYmluZGluZycsICctaW1hZScsICc8aW5maWxlLm1hZT4nLCAnLW9tYWUnLCAnPG91dGZpbGUubWFlPic=

> <r_epik_Ionization_Penalty>
0.0567523

> <r_epik_Ionization_Penalty_Charging>
0

> <r_epik_Ionization_Penalty_Neutral>
0.0567523

> <r_epik_State_Penalty>
0.0489186

> <r_epik_Charging_Adjusted_Penalty>
0.0489186

> <i_epik_Tot_Q>
0

> <i_epik_Tot_abs_Q>
0

> <r_epik_Metal_State_Penalty>
0.044622

> <b_epik_Metal_Only>
0

> <s_lp_Force_Field>
OPLS_2005

> <r_lp_Energy>
33.1778

> <b_lp_Chiralities_Consistent>
1

> <s_lp_Variant>
AV-unprocessed.smi:767-4

> <Gold.Version>
5.8.1

> <Gold.Id.Protein>
6NUR|6NUR_protein|mol2

> <Gold.PLP.Fitness>
48.4632

> <Gold.PLP.PLP>
-40.2388

> <Gold.PLP.part.hbond>
-2.0000

> <Gold.PLP.part.metal>
0.0000

> <Gold.PLP.part.buried>
-3.8248

> <Gold.PLP.part.nonpolar>
-35.0753

> <Gold.PLP.part.repulsive>
0.3614

> <Gold.PLP.ligand.clash>
0.0000

> <Gold.PLP.ligand.torsion>
0.4428

> <Gold.PLP.Chemscore.Hbond>
1.9760

> <Gold.PLP.Chemscore.CHOScore>
1.0000

> <Gold.PLP.Chemscore.Metal>
0.0000

> <Gold.Chemscore.Hbonds>
donor molecule, donor type, donor heavy atom, donor atom, acceptor molecule, acceptor atom, score
      L1  H     8    32       P1  7948  0.96
      L1  H    11    33       P1  7948  1.00
      L1  C    21    47       P1  7948  1.00

> <Gold.PLP.Chemscore.Internal.Correction>
0.1820

> <Gold.Rescore>
     Score         DG    S(hbond)    S(metal)    S(lipo)     H(rot)  DE(clash)    DE(int)     intcor
     19.47     -20.65       1.92        0.00     106.40       1.45       0.02       1.16       ----

> <Gold.Chemscore.Fitness>
19.4672

> <Gold.Chemscore.DG>
-20.6470

> <Gold.Chemscore.ZeroCoef>
-5.4800

> <Gold.Chemscore.Hbond>
1.9249

> <Gold.Chemscore.Metal>
0.0000

> <Gold.Chemscore.Lipo>
106.4015

> <Gold.Chemscore.Internal_Hbond>
0.0000

> <Gold.Chemscore.DEClash>
0.0226

> <Gold.Chemscore.DEInternal>
1.1573

> <Gold.Chemscore.Rot>
1.4497

> <Gold.Chemscore.Internal.Correction>
   9.000000E+99

> <Gold.Chemscore.Hbonds>
donor molecule, donor type, donor heavy atom, donor atom, acceptor molecule, acceptor atom, score
      L1  H     8    32       P1  7948  0.92
      L1  H    11    33       P1  7948  0.97

> <Gold.Chemscore.Hbond.Weighted>
-6.4293

> <Gold.Chemscore.Metal.Weighted>
-0.0000

> <Gold.Chemscore.Lipo.Weighted>
-12.4490

> <Gold.Chemscore.Internal_Hbond.Weighted>
0.0000

> <Gold.Chemscore.DEClash.Weighted>
0.0226

> <Gold.Chemscore.DEInternal.Weighted>
1.1573

> <Gold.Chemscore.Rot.Weighted>
3.7112

> <Gold.Chemscore.Internal.Correction.Weighted>
   9.000000E+99

> <Gold.Protein.RotatedTorsions>
[ 6907 6896 6895 6894 ] final -178.32 input  -60.11 | X-H torsion
[ 7974 7965 7964 7962 ] final   81.26 input  175.53 | X-H torsion
[ 8008 7997 7996 7995 ] final  -85.44 input   59.86 | X-H torsion
[ 10167 10162 10161 10158 ] final  -15.01 input  -65.29 | X-H torsion
[ 10718 10713 10712 10709 ] final   44.72 input   66.30 | X-H torsion
[ 10763 10752 10751 10750 ] final   10.55 input  -60.55 | X-H torsion
[ 11005 11000 10999 10996 ] final  141.20 input  -57.11 | X-H torsion

> <Gold.Protein.ActiveResidues>
 VAL166  LYS551  ARG553  GLY616  TRP617  ASP618  TYR619  PRO620  LYS621  CYS622 
 ASP623  PHE694  ASN695  SER759  ASP760  ASP761  ALA762  ILE779  LEU786  VAL792 
 PHE793  MET794  SER795  GLU796  ALA797  LYS798  CYS799  TRP800  GLU811  SER814 

> <Gold.Protein.RotatedAtoms>
  151.6353  133.3329  159.3117 H   0  0  0  0  0  0  0  0  0  0  0  0  # atno 6907 bound_to 6896
  150.8035  134.7149  159.6634 H   0  0  0  0  0  0  0  0  0  0  0  0  # atno 6908 bound_to 6896
  152.4130  134.6096  160.0073 H   0  0  0  0  0  0  0  0  0  0  0  0  # atno 6909 bound_to 6896
  145.6404  139.2424  143.2034 H   0  0  0  0  0  0  0  0  0  0  0  0  # atno 7974 bound_to 7965
  154.6408  140.0591  156.9843 H   0  0  0  0  0  0  0  0  0  0  0  0  # atno 8008 bound_to 7997
  155.1520  140.3275  155.4410 H   0  0  0  0  0  0  0  0  0  0  0  0  # atno 8009 bound_to 7997
  156.2530  140.1945  156.6632 H   0  0  0  0  0  0  0  0  0  0  0  0  # atno 8010 bound_to 7997
  140.7211  143.5262  150.9574 H   0  0  0  0  0  0  0  0  0  0  0  0  # atno 10167 bound_to 10162
  157.4299  130.8018  149.7593 H   0  0  0  0  0  0  0  0  0  0  0  0  # atno 10718 bound_to 10713
  153.2020  135.6857  153.8219 H   0  0  0  0  0  0  0  0  0  0  0  0  # atno 10763 bound_to 10752
  153.7482  135.3228  155.3317 H   0  0  0  0  0  0  0  0  0  0  0  0  # atno 10764 bound_to 10752
  154.8176  135.4674  154.0790 H   0  0  0  0  0  0  0  0  0  0  0  0  # atno 10765 bound_to 10752
  140.0384  134.9317  157.0796 H   0  0  0  0  0  0  0  0  0  0  0  0  # atno 11005 bound_to 11000
  146.1285  140.7216  142.9423 LP  0  0  0  0  0  0  0  0  0  0  0  0  # atno 17320 bound_to 7965
  144.7159  140.4209  143.7044 LP  0  0  0  0  0  0  0  0  0  0  0  0  # atno 17321 bound_to 7965
  139.8981  143.6870  152.3135 LP  0  0  0  0  0  0  0  0  0  0  0  0  # atno 17342 bound_to 10162
  139.7209  144.7602  151.0956 LP  0  0  0  0  0  0  0  0  0  0  0  0  # atno 17343 bound_to 10162
  155.9909  130.3941  150.3006 LP  0  0  0  0  0  0  0  0  0  0  0  0  # atno 17370 bound_to 10713
  157.1162  131.0234  151.3028 LP  0  0  0  0  0  0  0  0  0  0  0  0  # atno 17371 bound_to 10713
  140.4110  134.1981  155.7163 LP  0  0  0  0  0  0  0  0  0  0  0  0  # atno 17394 bound_to 11000
  141.1870  133.8291  157.1049 LP  0  0  0  0  0  0  0  0  0  0  0  0  # atno 17395 bound_to 11000

$$$$
