AV-unprocessed.smi:2368|AV-procd|sdf|9427|dock6
  -GOLD-   2272013 63D 1   1.00000     0.00000
 Structure written by MMmdl.
 35 36  0  0  0  0  0  0  0  0  1 V2000
  152.6285  144.0566  161.7760 C   0  0  0  0  0  0  0  0  0  0  0  0
  152.5738  143.0028  160.6855 C   0  0  0  0  0  0  0  0  0  0  0  0
  153.3760  141.9315  160.8683 N   0  0  0  0  0  0  0  0  0  0  0  0
  153.3604  140.9610  159.9322 C   0  0  0  0  0  0  0  0  0  0  0  0
  152.5568  141.0106  158.7774 C   0  0  0  0  0  0  0  0  0  0  0  0
  151.7246  142.1383  158.5743 C   0  0  0  0  0  0  0  0  0  0  0  0
  150.8561  142.2883  157.4557 N   0  0  0  0  0  0  0  0  0  0  0  0
  150.7120  141.4980  156.3777 C   0  0  0  0  0  0  0  0  0  0  0  0
  151.3608  140.4785  156.1446 O   0  0  0  0  0  0  0  0  0  0  0  0
  149.7628  141.9698  155.5569 N   0  0  0  0  0  0  0  0  0  0  0  0
  149.3473  141.3358  154.3104 C   0  0  2  0  0  0  0  0  0  0  0  0
  148.1059  141.9925  153.7723 C   0  0  0  0  0  0  0  0  0  0  0  0
  147.0791  141.1507  153.6757 C   0  0  0  0  0  0  0  0  0  0  0  0
  147.4122  139.7627  154.1561 C   0  0  1  0  0  0  0  0  0  0  0  0
  147.0772  138.6879  153.1088 C   0  0  0  0  0  0  0  0  0  0  0  0
  147.3128  137.4011  153.6398 O   0  0  0  0  0  0  0  0  0  0  0  0
  148.9212  139.8566  154.5037 C   0  0  0  0  0  0  0  0  0  0  0  0
  151.7286  143.1531  159.5608 C   0  0  0  0  0  0  0  0  0  0  0  0
  150.7228  144.5539  159.3950 Cl  0  0  0  0  0  0  0  0  0  0  0  0
  150.1381  141.4189  153.5629 H   0  0  0  0  0  0  0  0  0  0  0  0
  146.8319  139.5861  155.0629 H   0  0  0  0  0  0  0  0  0  0  0  0
  151.6420  144.1967  162.2186 H   0  0  0  0  0  0  0  0  0  0  0  0
  152.9615  145.0100  161.3653 H   0  0  0  0  0  0  0  0  0  0  0  0
  153.3179  143.7739  162.5729 H   0  0  0  0  0  0  0  0  0  0  0  0
  154.0044  140.1131  160.1121 H   0  0  0  0  0  0  0  0  0  0  0  0
  152.5885  140.1823  158.0874 H   0  0  0  0  0  0  0  0  0  0  0  0
  150.2999  143.1309  157.4599 H   0  0  0  0  0  0  0  0  0  0  0  0
  149.2825  142.8184  155.8185 H   0  0  0  0  0  0  0  0  0  0  0  0
  148.0827  143.0352  153.4909 H   0  0  0  0  0  0  0  0  0  0  0  0
  146.0955  141.4123  153.3144 H   0  0  0  0  0  0  0  0  0  0  0  0
  146.0283  138.7534  152.8178 H   0  0  0  0  0  0  0  0  0  0  0  0
  147.6728  138.8220  152.2051 H   0  0  0  0  0  0  0  0  0  0  0  0
  147.8050  136.8998  153.0075 H   0  0  0  0  0  0  0  0  0  0  0  0
  149.5127  139.2219  153.8425 H   0  0  0  0  0  0  0  0  0  0  0  0
  149.1044  139.5003  155.5184 H   0  0  0  0  0  0  0  0  0  0  0  0
  1  2  1  0  0  0  0
  1 22  1  0  0  0  0
  1 23  1  0  0  0  0
  1 24  1  0  0  0  0
  2 18  1  0  0  0  0
  2  3  2  0  0  0  0
  3  4  1  0  0  0  0
  4  5  2  0  0  0  0
  4 25  1  0  0  0  0
  5  6  1  0  0  0  0
  5 26  1  0  0  0  0
  6  7  1  0  0  0  0
  6 18  2  0  0  0  0
  7  8  1  0  0  0  0
  7 27  1  0  0  0  0
  8  9  2  0  0  0  0
  8 10  1  0  0  0  0
 10 11  1  0  0  0  0
 10 28  1  0  0  0  0
 11 20  1  0  0  0  0
 11 17  1  0  0  0  0
 11 12  1  0  0  0  0
 12 13  2  0  0  0  0
 12 29  1  0  0  0  0
 13 14  1  0  0  0  0
 13 30  1  0  0  0  0
 14 21  1  0  0  0  0
 14 15  1  0  0  0  0
 14 17  1  0  0  0  0
 15 16  1  0  0  0  0
 15 31  1  0  0  0  0
 15 32  1  0  0  0  0
 16 33  1  0  0  0  0
 17 34  1  0  0  0  0
 17 35  1  0  0  0  0
 18 19  1  0  0  0  0
M  END
> <s_m_source_file>
AV-unprocessed.smi

> <i_m_source_file_index>
2368

> <i_lp_mmshare_version>
43012

> <i_f3d_flags>
0

> <s_epik_input>
W0NIM11jMW5bY0hdW2NIXWMoYzFDbClbTkhdQyg9TylbTkhdW0NAQEhdMltDSF09W0NIXVtDQEBIXShbQ0gyXTIpW0NIMl1bT0hd

> <s_epik_cmdline>
J2VwaWtfcHl0aG9uJywgJy1waCcsICc3LjAnLCAnLXRuJywgJzgnLCAnLW1hJywgJzIwMCcsICctbWV0YWxfYmluZGluZycsICctaW1hZScsICc8aW5maWxlLm1hZT4nLCAnLW9tYWUnLCAnPG91dGZpbGUubWFlPic=

> <r_epik_Ionization_Penalty>
0.00964582

> <r_epik_Ionization_Penalty_Charging>
0

> <r_epik_Ionization_Penalty_Neutral>
0.00964582

> <r_epik_State_Penalty>
0.00730775

> <r_epik_Charging_Adjusted_Penalty>
0.00730775

> <i_epik_Tot_Q>
0

> <i_epik_Tot_abs_Q>
0

> <r_epik_Metal_State_Penalty>
0.00719079

> <b_epik_Metal_Only>
0

> <s_lp_Force_Field>
OPLS_2005

> <r_lp_Energy>
22.0768

> <b_lp_Chiralities_Consistent>
1

> <s_lp_Variant>
AV-unprocessed.smi:2368-3

> <Gold.Version>
5.8.1

> <Gold.Id.Protein>
6NUR|6NUR_protein|mol2

> <Gold.PLP.Fitness>
44.6753

> <Gold.PLP.PLP>
-39.4274

> <Gold.PLP.part.hbond>
-2.0000

> <Gold.PLP.part.metal>
0.0000

> <Gold.PLP.part.buried>
-5.7898

> <Gold.PLP.part.nonpolar>
-31.2144

> <Gold.PLP.part.repulsive>
0.1768

> <Gold.PLP.ligand.clash>
0.0000

> <Gold.PLP.ligand.torsion>
0.0837

> <Gold.PLP.Chemscore.Hbond>
1.8000

> <Gold.PLP.Chemscore.CHOScore>
0.0000

> <Gold.PLP.Chemscore.Metal>
0.0000

> <Gold.Chemscore.Hbonds>
donor molecule, donor type, donor heavy atom, donor atom, acceptor molecule, acceptor atom, score
      L1  H    10    28       P1  8028  1.00
      L1  H    16    33       P1  7948  1.00

> <Gold.PLP.Chemscore.Internal.Correction>
0.0152

> <Gold.Rescore>
     Score         DG    S(hbond)    S(metal)    S(lipo)     H(rot)  DE(clash)    DE(int)     intcor
     17.21     -19.38       1.74        0.00     107.92       1.78       0.25       1.92       ----

> <Gold.Chemscore.Fitness>
17.2051

> <Gold.Chemscore.DG>
-19.3791

> <Gold.Chemscore.ZeroCoef>
-5.4800

> <Gold.Chemscore.Hbond>
1.7449

> <Gold.Chemscore.Metal>
0.0000

> <Gold.Chemscore.Lipo>
107.9226

> <Gold.Chemscore.Internal_Hbond>
0.0000

> <Gold.Chemscore.DEClash>
0.2497

> <Gold.Chemscore.DEInternal>
1.9243

> <Gold.Chemscore.Rot>
1.7796

> <Gold.Chemscore.Internal.Correction>
   9.000000E+99

> <Gold.Chemscore.Hbonds>
donor molecule, donor type, donor heavy atom, donor atom, acceptor molecule, acceptor atom, score
      L1  H    10    28       P1  8028  0.97
      L1  H    16    33       P1  7948  1.00

> <Gold.Chemscore.Hbond.Weighted>
-5.8280

> <Gold.Chemscore.Metal.Weighted>
-0.0000

> <Gold.Chemscore.Lipo.Weighted>
-12.6269

> <Gold.Chemscore.Internal_Hbond.Weighted>
0.0000

> <Gold.Chemscore.DEClash.Weighted>
0.2497

> <Gold.Chemscore.DEInternal.Weighted>
1.9243

> <Gold.Chemscore.Rot.Weighted>
4.5558

> <Gold.Chemscore.Internal.Correction.Weighted>
   9.000000E+99

> <Gold.Protein.RotatedTorsions>
[ 6907 6896 6895 6894 ] final  145.41 input  -60.11 | X-H torsion
[ 7974 7965 7964 7962 ] final  -95.58 input  175.53 | X-H torsion
[ 8008 7997 7996 7995 ] final  -56.01 input   59.86 | X-H torsion
[ 10167 10162 10161 10158 ] final -119.36 input  -65.29 | X-H torsion
[ 10718 10713 10712 10709 ] final -122.51 input   66.30 | X-H torsion
[ 10763 10752 10751 10750 ] final   46.55 input  -60.55 | X-H torsion
[ 11005 11000 10999 10996 ] final -137.26 input  -57.11 | X-H torsion

> <Gold.Protein.ActiveResidues>
 VAL166  LYS551  ARG553  GLY616  TRP617  ASP618  TYR619  PRO620  LYS621  CYS622 
 ASP623  PHE694  ASN695  SER759  ASP760  ASP761  ALA762  ILE779  LEU786  VAL792 
 PHE793  MET794  SER795  GLU796  ALA797  LYS798  CYS799  TRP800  GLU811  SER814 

> <Gold.Protein.RotatedAtoms>
  152.1812  133.4708  159.4958 H   0  0  0  0  0  0  0  0  0  0  0  0  # atno 6907 bound_to 6896
  150.6935  134.1831  159.4265 H   0  0  0  0  0  0  0  0  0  0  0  0  # atno 6908 bound_to 6896
  151.9742  135.0061  160.0605 H   0  0  0  0  0  0  0  0  0  0  0  0  # atno 6909 bound_to 6896
  145.3581  140.9487  143.2516 H   0  0  0  0  0  0  0  0  0  0  0  0  # atno 7974 bound_to 7965
  154.4215  140.1139  156.5569 H   0  0  0  0  0  0  0  0  0  0  0  0  # atno 8008 bound_to 7997
  155.6352  140.3496  155.4677 H   0  0  0  0  0  0  0  0  0  0  0  0  # atno 8009 bound_to 7997
  155.9915  140.1180  157.0623 H   0  0  0  0  0  0  0  0  0  0  0  0  # atno 8010 bound_to 7997
  140.0475  143.5092  152.2099 H   0  0  0  0  0  0  0  0  0  0  0  0  # atno 10167 bound_to 10162
  156.1425  130.6476  150.9792 H   0  0  0  0  0  0  0  0  0  0  0  0  # atno 10718 bound_to 10713
  152.9809  135.6004  154.3618 H   0  0  0  0  0  0  0  0  0  0  0  0  # atno 10763 bound_to 10752
  154.3299  135.2768  155.2479 H   0  0  0  0  0  0  0  0  0  0  0  0  # atno 10764 bound_to 10752
  154.4607  135.5966  153.6309 H   0  0  0  0  0  0  0  0  0  0  0  0  # atno 10765 bound_to 10752
  140.8728  134.2029  157.4640 H   0  0  0  0  0  0  0  0  0  0  0  0  # atno 11005 bound_to 11000
  144.8667  139.5098  143.6787 LP  0  0  0  0  0  0  0  0  0  0  0  0  # atno 17320 bound_to 7965
  146.2939  139.7220  142.9141 LP  0  0  0  0  0  0  0  0  0  0  0  0  # atno 17321 bound_to 7965
  139.5974  144.7571  151.3253 LP  0  0  0  0  0  0  0  0  0  0  0  0  # atno 17342 bound_to 10162
  140.7232  143.7078  150.7794 LP  0  0  0  0  0  0  0  0  0  0  0  0  # atno 17343 bound_to 10162
  157.6588  131.0884  150.7887 LP  0  0  0  0  0  0  0  0  0  0  0  0  # atno 17370 bound_to 10713
  156.7961  130.4906  149.5377 LP  0  0  0  0  0  0  0  0  0  0  0  0  # atno 17371 bound_to 10713
  139.8713  134.9782  156.4988 LP  0  0  0  0  0  0  0  0  0  0  0  0  # atno 17394 bound_to 11000
  140.8553  133.8101  155.9210 LP  0  0  0  0  0  0  0  0  0  0  0  0  # atno 17395 bound_to 11000

$$$$
