AV-unprocessed.smi:2243|AV-procd|sdf|9062|dock6
  -GOLD-   2272012273D 1   1.00000     0.00000
 Structure written by MMmdl.
 34 35  0  0  0  0  0  0  0  0  1 V2000
  147.7368  141.8494  155.0749 C   0  0  0  0  0  0  0  0  0  0  0  0
  148.9399  141.0686  154.5183 C   0  0  2  0  0  0  0  0  0  0  0  0
  148.4662  140.2416  153.4077 N   0  0  0  0  0  0  0  0  0  0  0  0
  147.4442  139.3729  153.4497 C   0  0  0  0  0  0  0  0  0  0  0  0
  146.7597  139.1682  154.4525 O   0  0  0  0  0  0  0  0  0  0  0  0
  147.2729  138.7692  152.2619 N   0  0  0  0  0  0  0  0  0  0  0  0
  146.2983  137.7984  151.9188 C   0  0  0  0  0  0  0  0  0  0  0  0
  145.3400  137.3180  152.7128 N   0  0  0  0  0  0  0  0  0  0  0  0
  144.6559  136.4056  151.9228 C   0  0  0  0  0  0  0  0  0  0  0  0
  145.2450  136.3859  150.6846 C   0  0  0  0  0  0  0  0  0  0  0  0
  146.2924  137.2675  150.6675 O   0  0  0  0  0  0  0  0  0  0  0  0
  149.6514  140.1921  155.5833 C   0  0  0  0  0  0  0  0  0  0  0  0
  150.4103  141.0322  156.6308 C   0  0  0  0  0  0  0  0  0  0  0  0
  151.1705  140.1371  157.6229 C   0  0  0  0  0  0  0  0  0  0  0  0
  152.0665  139.2835  156.9226 O   0  0  0  0  0  0  0  0  0  0  0  0
  151.3957  138.3947  156.0382 C   0  0  0  0  0  0  0  0  0  0  0  0
  150.6478  139.1919  154.9576 C   0  0  0  0  0  0  0  0  0  0  0  0
  148.0409  142.5875  155.8164 H   0  0  0  0  0  0  0  0  0  0  0  0
  147.0107  141.1828  155.5414 H   0  0  0  0  0  0  0  0  0  0  0  0
  147.2242  142.3941  154.2809 H   0  0  0  0  0  0  0  0  0  0  0  0
  149.6613  141.8011  154.1515 H   0  0  0  0  0  0  0  0  0  0  0  0
  148.9634  140.3392  152.5345 H   0  0  0  0  0  0  0  0  0  0  0  0
  147.9071  139.0317  151.5220 H   0  0  0  0  0  0  0  0  0  0  0  0
  143.8118  135.8471  152.2995 H   0  0  0  0  0  0  0  0  0  0  0  0
  145.0543  135.8409  149.7720 H   0  0  0  0  0  0  0  0  0  0  0  0
  148.8894  139.6141  156.1089 H   0  0  0  0  0  0  0  0  0  0  0  0
  151.1153  141.6978  156.1312 H   0  0  0  0  0  0  0  0  0  0  0  0
  149.7229  141.6667  157.1895 H   0  0  0  0  0  0  0  0  0  0  0  0
  151.7424  140.7520  158.3178 H   0  0  0  0  0  0  0  0  0  0  0  0
  150.4775  139.5430  158.2206 H   0  0  0  0  0  0  0  0  0  0  0  0
  152.1324  137.7381  155.5748 H   0  0  0  0  0  0  0  0  0  0  0  0
  150.7090  137.7572  156.5970 H   0  0  0  0  0  0  0  0  0  0  0  0
  150.1341  138.4926  154.2976 H   0  0  0  0  0  0  0  0  0  0  0  0
  151.3693  139.7282  154.3397 H   0  0  0  0  0  0  0  0  0  0  0  0
  1  2  1  0  0  0  0
  1 18  1  0  0  0  0
  1 19  1  0  0  0  0
  1 20  1  0  0  0  0
  2  3  1  0  0  0  0
  2 12  1  0  0  0  0
  2 21  1  0  0  0  0
  3  4  1  0  0  0  0
  3 22  1  0  0  0  0
  4  5  2  0  0  0  0
  4  6  1  0  0  0  0
  6  7  1  0  0  0  0
  6 23  1  0  0  0  0
  7 11  1  0  0  0  0
  7  8  2  0  0  0  0
  8  9  1  0  0  0  0
  9 10  2  0  0  0  0
  9 24  1  0  0  0  0
 10 11  1  0  0  0  0
 10 25  1  0  0  0  0
 12 17  1  0  0  0  0
 12 13  1  0  0  0  0
 12 26  1  0  0  0  0
 13 14  1  0  0  0  0
 13 27  1  0  0  0  0
 13 28  1  0  0  0  0
 14 15  1  0  0  0  0
 14 29  1  0  0  0  0
 14 30  1  0  0  0  0
 15 16  1  0  0  0  0
 16 17  1  0  0  0  0
 16 31  1  0  0  0  0
 16 32  1  0  0  0  0
 17 33  1  0  0  0  0
 17 34  1  0  0  0  0
M  END
> <s_m_source_file>
AV-unprocessed.smi

> <i_m_source_file_index>
2243

> <i_lp_mmshare_version>
43012

> <i_f3d_flags>
0

> <s_epik_input>
W0NIMl0xW0NIMl1PW0NIMl1bQ0gyXVtDSF0xW0NASF0oW0NIM10pW05IXUMoPU8pW05IXWMybltjSF1bY0hdbzI=

> <s_epik_cmdline>
J2VwaWtfcHl0aG9uJywgJy1waCcsICc3LjAnLCAnLXRuJywgJzgnLCAnLW1hJywgJzIwMCcsICctbWV0YWxfYmluZGluZycsICctaW1hZScsICc8aW5maWxlLm1hZT4nLCAnLW9tYWUnLCAnPG91dGZpbGUubWFlPic=

> <r_lp_tautomer_probability>
0.785861

> <r_epik_Ionization_Penalty>
5.17761e-05

> <r_epik_Ionization_Penalty_Charging>
0

> <r_epik_Ionization_Penalty_Neutral>
5.17761e-05

> <r_epik_State_Penalty>
0.0447104

> <r_epik_Charging_Adjusted_Penalty>
0.0447104

> <i_epik_Tot_Q>
0

> <i_epik_Tot_abs_Q>
0

> <r_epik_Metal_State_Penalty>
0.0593601

> <b_epik_Metal_Only>
0

> <s_lp_Force_Field>
OPLS_2005

> <r_lp_Energy>
10.6877

> <b_lp_Chiralities_Consistent>
1

> <s_lp_Variant>
AV-unprocessed.smi:2243-1

> <Gold.Version>
5.8.1

> <Gold.Id.Protein>
6NUR|6NUR_protein|mol2

> <Gold.PLP.Fitness>
40.6276

> <Gold.PLP.PLP>
-26.7794

> <Gold.PLP.part.hbond>
-4.7643

> <Gold.PLP.part.metal>
0.0000

> <Gold.PLP.part.buried>
2.8140

> <Gold.PLP.part.nonpolar>
-27.4088

> <Gold.PLP.part.repulsive>
2.9093

> <Gold.PLP.ligand.clash>
0.0000

> <Gold.PLP.ligand.torsion>
0.2235

> <Gold.PLP.Chemscore.Hbond>
3.7600

> <Gold.PLP.Chemscore.CHOScore>
1.0000

> <Gold.PLP.Chemscore.Metal>
0.0000

> <Gold.Chemscore.Hbonds>
donor molecule, donor type, donor heavy atom, donor atom, acceptor molecule, acceptor atom, score
      L1  H     3    22       P1  7957  1.00
      L1  H     6    23       P1  7957  0.88
      P1  H  7954  7966       L1    11  0.78
      L1  C    10    25       P1  7921  0.84

> <Gold.PLP.Chemscore.Internal.Correction>
0.0151

> <Gold.Rescore>
     Score         DG    S(hbond)    S(metal)    S(lipo)     H(rot)  DE(clash)    DE(int)     intcor
     15.56     -21.33       3.85        0.00      54.41       1.32       3.10       2.67       ----

> <Gold.Chemscore.Fitness>
15.5618

> <Gold.Chemscore.DG>
-21.3263

> <Gold.Chemscore.ZeroCoef>
-5.4800

> <Gold.Chemscore.Hbond>
3.8501

> <Gold.Chemscore.Metal>
0.0000

> <Gold.Chemscore.Lipo>
54.4143

> <Gold.Chemscore.Internal_Hbond>
0.0000

> <Gold.Chemscore.DEClash>
3.0952

> <Gold.Chemscore.DEInternal>
2.6693

> <Gold.Chemscore.Rot>
1.3201

> <Gold.Chemscore.Internal.Correction>
   9.000000E+99

> <Gold.Chemscore.Hbonds>
donor molecule, donor type, donor heavy atom, donor atom, acceptor molecule, acceptor atom, score
      L1  H     3    22       P1  7957  0.94
      L1  H     6    23       P1  7957  0.73
      P1  H  7954  7966       L1    11  0.33

> <Gold.Chemscore.Hbond.Weighted>
-12.8592

> <Gold.Chemscore.Metal.Weighted>
-0.0000

> <Gold.Chemscore.Lipo.Weighted>
-6.3665

> <Gold.Chemscore.Internal_Hbond.Weighted>
0.0000

> <Gold.Chemscore.DEClash.Weighted>
3.0952

> <Gold.Chemscore.DEInternal.Weighted>
2.6693

> <Gold.Chemscore.Rot.Weighted>
3.3794

> <Gold.Chemscore.Internal.Correction.Weighted>
   9.000000E+99

> <Gold.Protein.RotatedTorsions>
[ 6907 6896 6895 6894 ] final  -51.22 input  -60.11 | X-H torsion
[ 7974 7965 7964 7962 ] final -142.64 input  175.53 | X-H torsion
[ 8008 7997 7996 7995 ] final  -29.91 input   59.86 | X-H torsion
[ 10167 10162 10161 10158 ] final   -1.78 input  -65.29 | X-H torsion
[ 10718 10713 10712 10709 ] final  175.14 input   66.30 | X-H torsion
[ 10763 10752 10751 10750 ] final   35.95 input  -60.55 | X-H torsion
[ 11005 11000 10999 10996 ] final  178.11 input  -57.11 | X-H torsion

> <Gold.Protein.ActiveResidues>
 VAL166  LYS551  ARG553  GLY616  TRP617  ASP618  TYR619  PRO620  LYS621  CYS622 
 ASP623  PHE694  ASN695  SER759  ASP760  ASP761  ALA762  ILE779  LEU786  VAL792 
 PHE793  MET794  SER795  GLU796  ALA797  LYS798  CYS799  TRP800  GLU811  SER814 

> <Gold.Protein.RotatedAtoms>
  150.8632  134.7989  159.7098 H   0  0  0  0  0  0  0  0  0  0  0  0  # atno 6907 bound_to 6896
  152.4662  134.5066  159.9751 H   0  0  0  0  0  0  0  0  0  0  0  0  # atno 6908 bound_to 6896
  151.5166  133.3436  159.2930 H   0  0  0  0  0  0  0  0  0  0  0  0  # atno 6909 bound_to 6896
  144.8428  140.5933  143.5441 H   0  0  0  0  0  0  0  0  0  0  0  0  # atno 7974 bound_to 7965
  154.4271  140.1805  156.1323 H   0  0  0  0  0  0  0  0  0  0  0  0  # atno 8008 bound_to 7997
  156.0058  140.3355  155.6866 H   0  0  0  0  0  0  0  0  0  0  0  0  # atno 8009 bound_to 7997
  155.6180  140.0657  157.2677 H   0  0  0  0  0  0  0  0  0  0  0  0  # atno 8010 bound_to 7997
  140.6824  143.6734  150.8166 H   0  0  0  0  0  0  0  0  0  0  0  0  # atno 10167 bound_to 10162
  156.9392  130.9996  151.2972 H   0  0  0  0  0  0  0  0  0  0  0  0  # atno 10718 bound_to 10713
  153.0097  135.6319  154.1907 H   0  0  0  0  0  0  0  0  0  0  0  0  # atno 10763 bound_to 10752
  154.1650  135.2821  155.3099 H   0  0  0  0  0  0  0  0  0  0  0  0  # atno 10764 bound_to 10752
  154.5952  135.5605  153.7379 H   0  0  0  0  0  0  0  0  0  0  0  0  # atno 10765 bound_to 10752
  140.3915  134.6858  157.4510 H   0  0  0  0  0  0  0  0  0  0  0  0  # atno 11005 bound_to 11000
  145.4658  139.1508  143.3841 LP  0  0  0  0  0  0  0  0  0  0  0  0  # atno 17320 bound_to 7965
  146.2718  140.4790  142.8811 LP  0  0  0  0  0  0  0  0  0  0  0  0  # atno 17321 bound_to 7965
  140.0436  143.5320  152.2706 LP  0  0  0  0  0  0  0  0  0  0  0  0  # atno 17342 bound_to 10162
  139.6157  144.7619  151.2852 LP  0  0  0  0  0  0  0  0  0  0  0  0  # atno 17343 bound_to 10162
  157.5796  130.8367  149.8504 LP  0  0  0  0  0  0  0  0  0  0  0  0  # atno 17370 bound_to 10713
  156.0412  130.3738  150.1431 LP  0  0  0  0  0  0  0  0  0  0  0  0  # atno 17371 bound_to 10713
  140.0403  134.6277  155.8989 LP  0  0  0  0  0  0  0  0  0  0  0  0  # atno 17394 bound_to 11000
  141.1889  133.6564  156.5345 LP  0  0  0  0  0  0  0  0  0  0  0  0  # atno 17395 bound_to 11000

$$$$
