AV-unprocessed.smi:1258|AV-procd|sdf|5288|dock5
  -GOLD-   22720 4403D 1   1.00000     0.00000
 Structure written by MMmdl.
 33 34  0  0  0  0  0  0  0  0  1 V2000
  151.9477  145.6209  159.9173 C   0  0  0  0  0  0  0  0  0  0  0  0
  152.1510  144.2665  159.2235 C   0  0  1  0  0  0  0  0  0  0  0  0
  152.1634  143.1089  160.2400 C   0  0  0  0  0  0  0  0  0  0  0  0
  152.3643  141.7524  159.5465 C   0  0  0  0  0  0  0  0  0  0  0  0
  151.2980  141.5157  158.4661 C   0  0  0  0  0  0  0  0  0  0  0  0
  151.2783  142.6621  157.4388 C   0  0  1  0  0  0  0  0  0  0  0  0
  150.2169  142.4260  156.4654 N   0  0  0  0  0  0  0  0  0  0  0  0
  150.1924  141.4279  155.5682 C   0  0  0  0  0  0  0  0  0  0  0  0
  151.0896  140.5932  155.4539 O   0  0  0  0  0  0  0  0  0  0  0  0
  148.9655  141.3584  154.6595 C   0  0  0  0  0  0  0  0  0  0  0  0
  148.3061  140.0719  154.7770 N   0  0  0  0  0  0  0  0  0  0  0  0
  148.0216  139.1456  153.8591 C   0  0  0  0  0  0  0  0  0  0  0  0
  147.4135  138.0981  154.3948 N   0  0  0  0  0  0  0  0  0  0  0  0
  147.3325  138.4328  155.7364 N   0  0  0  0  0  0  0  0  0  0  0  0
  147.8611  139.6027  155.9694 N   0  0  0  0  0  0  0  0  0  0  0  0
  151.0826  144.0225  158.1398 C   0  0  0  0  0  0  0  0  0  0  0  0
  150.9869  145.6631  160.4310 H   0  0  0  0  0  0  0  0  0  0  0  0
  151.9766  146.4392  159.1976 H   0  0  0  0  0  0  0  0  0  0  0  0
  152.7286  145.8048  160.6559 H   0  0  0  0  0  0  0  0  0  0  0  0
  153.1251  144.2929  158.7329 H   0  0  0  0  0  0  0  0  0  0  0  0
  152.9556  143.2642  160.9733 H   0  0  0  0  0  0  0  0  0  0  0  0
  151.2257  143.0962  160.7973 H   0  0  0  0  0  0  0  0  0  0  0  0
  153.3564  141.7157  159.0947 H   0  0  0  0  0  0  0  0  0  0  0  0
  152.3306  140.9496  160.2836 H   0  0  0  0  0  0  0  0  0  0  0  0
  151.4887  140.5663  157.9640 H   0  0  0  0  0  0  0  0  0  0  0  0
  150.3190  141.4243  158.9393 H   0  0  0  0  0  0  0  0  0  0  0  0
  152.2393  142.6676  156.9205 H   0  0  0  0  0  0  0  0  0  0  0  0
  149.4337  143.0635  156.4851 H   0  0  0  0  0  0  0  0  0  0  0  0
  148.2627  142.1541  154.9122 H   0  0  0  0  0  0  0  0  0  0  0  0
  149.2612  141.5062  153.6202 H   0  0  0  0  0  0  0  0  0  0  0  0
  148.2611  139.2373  152.8099 H   0  0  0  0  0  0  0  0  0  0  0  0
  150.0897  144.0631  158.5905 H   0  0  0  0  0  0  0  0  0  0  0  0
  151.1193  144.8270  157.4038 H   0  0  0  0  0  0  0  0  0  0  0  0
  1  2  1  0  0  0  0
  1 17  1  0  0  0  0
  1 18  1  0  0  0  0
  1 19  1  0  0  0  0
  2 16  1  0  0  0  0
  2  3  1  0  0  0  0
  2 20  1  0  0  0  0
  3  4  1  0  0  0  0
  3 21  1  0  0  0  0
  3 22  1  0  0  0  0
  4  5  1  0  0  0  0
  4 23  1  0  0  0  0
  4 24  1  0  0  0  0
  5  6  1  0  0  0  0
  5 25  1  0  0  0  0
  5 26  1  0  0  0  0
  6  7  1  0  0  0  0
  6 16  1  0  0  0  0
  6 27  1  0  0  0  0
  7  8  1  0  0  0  0
  7 28  1  0  0  0  0
  8  9  2  0  0  0  0
  8 10  1  0  0  0  0
 10 11  1  0  0  0  0
 10 29  1  0  0  0  0
 10 30  1  0  0  0  0
 11 15  1  0  0  0  0
 11 12  1  0  0  0  0
 12 13  2  0  0  0  0
 12 31  1  0  0  0  0
 13 14  1  0  0  0  0
 14 15  2  0  0  0  0
 16 32  1  0  0  0  0
 16 33  1  0  0  0  0
M  END
> <s_m_source_file>
AV-unprocessed.smi

> <i_m_source_file_index>
1258

> <i_lp_mmshare_version>
43012

> <i_f3d_flags>
0

> <s_epik_input>
W0NIM11bQ0BASF0xW0NIMl1bQ0gyXVtDSDJdW0NASF0oW0NIMl0xKVtOSF1DKD1PKVtDSDJdbjJbY0hdbm5uMg==

> <s_epik_cmdline>
J2VwaWtfcHl0aG9uJywgJy1waCcsICc3LjAnLCAnLXRuJywgJzgnLCAnLW1hJywgJzIwMCcsICctbWV0YWxfYmluZGluZycsICctaW1hZScsICc8aW5maWxlLm1hZT4nLCAnLW9tYWUnLCAnPG91dGZpbGUubWFlPic=

> <r_lp_tautomer_probability>
1

> <r_epik_Ionization_Penalty>
5.03816e-07

> <r_epik_Ionization_Penalty_Charging>
0

> <r_epik_Ionization_Penalty_Neutral>
5.03816e-07

> <r_epik_State_Penalty>
-0

> <r_epik_Charging_Adjusted_Penalty>
0

> <i_epik_Tot_Q>
0

> <i_epik_Tot_abs_Q>
0

> <r_epik_Metal_State_Penalty>
-0

> <b_epik_Metal_Only>
0

> <s_lp_Force_Field>
OPLS_2005

> <r_lp_Energy>
10.5543

> <b_lp_Chiralities_Consistent>
1

> <s_lp_Variant>
AV-unprocessed.smi:1258-2

> <Gold.Version>
5.8.1

> <Gold.Id.Protein>
6NUR|6NUR_protein|mol2

> <Gold.PLP.Fitness>
41.4653

> <Gold.PLP.PLP>
-33.5374

> <Gold.PLP.part.hbond>
-2.0000

> <Gold.PLP.part.metal>
0.0000

> <Gold.PLP.part.buried>
-4.0908

> <Gold.PLP.part.nonpolar>
-28.1721

> <Gold.PLP.part.repulsive>
0.2463

> <Gold.PLP.ligand.clash>
0.0000

> <Gold.PLP.ligand.torsion>
0.0826

> <Gold.PLP.Chemscore.Hbond>
1.6960

> <Gold.PLP.Chemscore.CHOScore>
1.0000

> <Gold.PLP.Chemscore.Metal>
0.0000

> <Gold.Chemscore.Hbonds>
donor molecule, donor type, donor heavy atom, donor atom, acceptor molecule, acceptor atom, score
      L1  H     7    28       P1  8028  0.78
      P1  H  7989  7998       L1     9  0.86
      L1  C    12    31       P1  7957  1.00

> <Gold.PLP.Chemscore.Internal.Correction>
0.0050

> <Gold.Rescore>
     Score         DG    S(hbond)    S(metal)    S(lipo)     H(rot)  DE(clash)    DE(int)     intcor
     15.33     -15.56       1.52        0.00      84.74       1.92       0.18       0.05       ----

> <Gold.Chemscore.Fitness>
15.3265

> <Gold.Chemscore.DG>
-15.5609

> <Gold.Chemscore.ZeroCoef>
-5.4800

> <Gold.Chemscore.Hbond>
1.5192

> <Gold.Chemscore.Metal>
0.0000

> <Gold.Chemscore.Lipo>
84.7364

> <Gold.Chemscore.Internal_Hbond>
0.0000

> <Gold.Chemscore.DEClash>
0.1805

> <Gold.Chemscore.DEInternal>
0.0540

> <Gold.Chemscore.Rot>
1.9169

> <Gold.Chemscore.Internal.Correction>
   9.000000E+99

> <Gold.Chemscore.Hbonds>
donor molecule, donor type, donor heavy atom, donor atom, acceptor molecule, acceptor atom, score
      L1  H     7    28       P1  8028  0.77
      P1  H  7989  7998       L1     9  0.24

> <Gold.Chemscore.Hbond.Weighted>
-5.0740

> <Gold.Chemscore.Metal.Weighted>
-0.0000

> <Gold.Chemscore.Lipo.Weighted>
-9.9142

> <Gold.Chemscore.Internal_Hbond.Weighted>
0.0000

> <Gold.Chemscore.DEClash.Weighted>
0.1805

> <Gold.Chemscore.DEInternal.Weighted>
0.0540

> <Gold.Chemscore.Rot.Weighted>
4.9073

> <Gold.Chemscore.Internal.Correction.Weighted>
   9.000000E+99

> <Gold.Protein.RotatedTorsions>
[ 6907 6896 6895 6894 ] final  166.25 input  -60.11 | X-H torsion
[ 7974 7965 7964 7962 ] final  106.73 input  175.53 | X-H torsion
[ 8008 7997 7996 7995 ] final  159.16 input   59.86 | X-H torsion
[ 10167 10162 10161 10158 ] final  147.63 input  -65.29 | X-H torsion
[ 10718 10713 10712 10709 ] final   30.38 input   66.30 | X-H torsion
[ 10763 10752 10751 10750 ] final   15.97 input  -60.55 | X-H torsion
[ 11005 11000 10999 10996 ] final -146.95 input  -57.11 | X-H torsion

> <Gold.Protein.ActiveResidues>
 VAL166  LYS551  ARG553  GLY616  TRP617  ASP618  TYR619  PRO620  LYS621  CYS622 
 ASP623  PHE694  ASN695  SER759  ASP760  ASP761  ALA762  ILE779  LEU786  VAL792 
 PHE793  MET794  SER795  GLU796  ALA797  LYS798  CYS799  TRP800  GLU811  SER814 

> <Gold.Protein.RotatedAtoms>
  151.8818  133.3497  159.3768 H   0  0  0  0  0  0  0  0  0  0  0  0  # atno 6907 bound_to 6896
  150.7125  134.5011  159.5571 H   0  0  0  0  0  0  0  0  0  0  0  0  # atno 6908 bound_to 6896
  152.2564  134.8080  160.0489 H   0  0  0  0  0  0  0  0  0  0  0  0  # atno 6909 bound_to 6896
  145.3029  139.2564  143.3804 H   0  0  0  0  0  0  0  0  0  0  0  0  # atno 7974 bound_to 7965
  156.2257  140.1839  156.7369 H   0  0  0  0  0  0  0  0  0  0  0  0  # atno 8008 bound_to 7997
  154.5937  140.0647  156.9302 H   0  0  0  0  0  0  0  0  0  0  0  0  # atno 8009 bound_to 7997
  155.2293  140.3313  155.4308 H   0  0  0  0  0  0  0  0  0  0  0  0  # atno 8010 bound_to 7997
  139.4887  144.5741  151.7000 H   0  0  0  0  0  0  0  0  0  0  0  0  # atno 10167 bound_to 10162
  157.2589  130.7151  149.6443 H   0  0  0  0  0  0  0  0  0  0  0  0  # atno 10718 bound_to 10713
  153.1475  135.6772  153.8933 H   0  0  0  0  0  0  0  0  0  0  0  0  # atno 10763 bound_to 10752
  153.8370  135.3110  155.3424 H   0  0  0  0  0  0  0  0  0  0  0  0  # atno 10764 bound_to 10752
  154.7836  135.4874  153.9983 H   0  0  0  0  0  0  0  0  0  0  0  0  # atno 10765 bound_to 10752
  140.7767  134.3126  157.5058 H   0  0  0  0  0  0  0  0  0  0  0  0  # atno 11005 bound_to 11000
  146.3146  140.3547  142.8659 LP  0  0  0  0  0  0  0  0  0  0  0  0  # atno 17320 bound_to 7965
  144.9079  140.7722  143.5826 LP  0  0  0  0  0  0  0  0  0  0  0  0  # atno 17321 bound_to 7965
  140.5333  144.0695  150.6061 LP  0  0  0  0  0  0  0  0  0  0  0  0  # atno 17342 bound_to 10162
  140.3693  143.2864  152.0296 LP  0  0  0  0  0  0  0  0  0  0  0  0  # atno 17343 bound_to 10162
  155.9664  130.4404  150.5297 LP  0  0  0  0  0  0  0  0  0  0  0  0  # atno 17370 bound_to 10713
  157.3197  131.0679  151.1941 LP  0  0  0  0  0  0  0  0  0  0  0  0  # atno 17371 bound_to 10713
  139.8748  134.9294  156.3474 LP  0  0  0  0  0  0  0  0  0  0  0  0  # atno 17394 bound_to 11000
  140.9522  133.7443  156.0287 LP  0  0  0  0  0  0  0  0  0  0  0  0  # atno 17395 bound_to 11000

$$$$
