AV-unprocessed.smi:2973|AV-procd|sdf|11339|dock3
  -GOLD-   2272016253D 1   1.00000     0.00000
 Structure written by MMmdl.
 49 51  0  0  0  0  0  0  0  0  1 V2000
  152.9558  138.7939  158.3375 C   0  0  0  0  0  0  0  0  0  0  0  0
  152.5915  140.2712  158.0740 C   0  0  2  0  0  0  0  0  0  0  0  0
  152.2818  140.9886  159.4061 C   0  0  0  0  0  0  0  0  0  0  0  0
  151.9821  142.4819  159.2004 C   0  0  0  0  0  0  0  0  0  0  0  0
  150.8342  142.6899  158.2026 C   0  0  0  0  0  0  0  0  0  0  0  0
  151.1361  141.9939  156.8658 C   0  0  0  0  0  0  0  0  0  0  0  0
  151.4314  140.4863  157.0525 C   0  0  2  0  0  0  0  0  0  0  0  0
  150.2273  139.7639  157.4280 N   0  0  0  0  0  0  0  0  0  0  0  0
  149.8474  138.8682  156.5084 C   0  0  0  0  0  0  0  0  0  0  0  0
  148.8692  138.1289  156.6014 O   0  0  0  0  0  0  0  0  0  0  0  0
  150.7236  138.9112  155.4881 N   0  0  0  0  0  0  0  0  0  0  0  0
  150.6578  138.0412  154.3039 C   0  0  0  0  0  0  0  0  0  0  0  0
  150.7190  136.5323  154.6009 C   0  0  0  0  0  0  0  0  0  0  0  0
  151.5835  136.1104  155.3680 O   0  0  0  0  0  0  0  0  0  0  0  0
  149.8254  135.7269  154.0016 N   0  0  0  0  0  0  0  0  0  0  0  0
  149.7593  134.2792  154.1524 C   0  0  0  0  0  0  0  0  0  0  0  0
  149.6133  133.5812  152.7906 C   0  0  0  0  0  0  0  0  0  0  0  0
  148.1622  133.3338  152.4251 C   0  0  0  0  0  0  0  0  0  0  0  0
  147.6850  133.6330  151.1313 C   0  0  0  0  0  0  0  0  0  0  0  0
  146.3310  133.3782  150.8401 C   0  0  0  0  0  0  0  0  0  0  0  0
  145.5108  132.8359  151.8482 C   0  0  0  0  0  0  0  0  0  0  0  0
  146.0840  132.5713  153.1081 C   0  0  0  0  0  0  0  0  0  0  0  0
  147.3813  132.8112  153.3976 N   0  0  0  0  0  0  0  0  0  0  0  0
  151.6859  139.8185  155.7068 C   0  0  0  0  0  0  0  0  0  0  0  0
  152.6389  140.0831  154.9737 O   0  0  0  0  0  0  0  0  0  0  0  0
  152.1136  138.2357  158.7474 H   0  0  0  0  0  0  0  0  0  0  0  0
  153.7755  138.7185  159.0523 H   0  0  0  0  0  0  0  0  0  0  0  0
  153.2820  138.2881  157.4290 H   0  0  0  0  0  0  0  0  0  0  0  0
  153.4837  140.7439  157.6596 H   0  0  0  0  0  0  0  0  0  0  0  0
  151.4323  140.5115  159.8962 H   0  0  0  0  0  0  0  0  0  0  0  0
  153.1256  140.8839  160.0890 H   0  0  0  0  0  0  0  0  0  0  0  0
  151.7321  142.9453  160.1551 H   0  0  0  0  0  0  0  0  0  0  0  0
  152.8778  142.9873  158.8368 H   0  0  0  0  0  0  0  0  0  0  0  0
  149.9058  142.3015  158.6231 H   0  0  0  0  0  0  0  0  0  0  0  0
  150.6745  143.7559  158.0377 H   0  0  0  0  0  0  0  0  0  0  0  0
  150.2992  142.1408  156.1812 H   0  0  0  0  0  0  0  0  0  0  0  0
  151.9949  142.4818  156.4017 H   0  0  0  0  0  0  0  0  0  0  0  0
  149.7418  139.9272  158.2981 H   0  0  0  0  0  0  0  0  0  0  0  0
  149.7388  138.2438  153.7513 H   0  0  0  0  0  0  0  0  0  0  0  0
  151.4695  138.2862  153.6169 H   0  0  0  0  0  0  0  0  0  0  0  0
  149.1457  136.1508  153.3874 H   0  0  0  0  0  0  0  0  0  0  0  0
  150.6432  133.9139  154.6781 H   0  0  0  0  0  0  0  0  0  0  0  0
  148.9024  134.0463  154.7853 H   0  0  0  0  0  0  0  0  0  0  0  0
  150.0767  134.1857  152.0094 H   0  0  0  0  0  0  0  0  0  0  0  0
  150.1456  132.6291  152.7960 H   0  0  0  0  0  0  0  0  0  0  0  0
  148.3400  134.0462  150.3782 H   0  0  0  0  0  0  0  0  0  0  0  0
  145.9292  133.5937  149.8610 H   0  0  0  0  0  0  0  0  0  0  0  0
  144.4680  132.6272  151.6602 H   0  0  0  0  0  0  0  0  0  0  0  0
  145.4848  132.1553  153.9043 H   0  0  0  0  0  0  0  0  0  0  0  0
  1  2  1  0  0  0  0
  1 26  1  0  0  0  0
  1 27  1  0  0  0  0
  1 28  1  0  0  0  0
  2  7  1  0  0  0  0
  2  3  1  0  0  0  0
  2 29  1  0  0  0  0
  3  4  1  0  0  0  0
  3 30  1  0  0  0  0
  3 31  1  0  0  0  0
  4  5  1  0  0  0  0
  4 32  1  0  0  0  0
  4 33  1  0  0  0  0
  5  6  1  0  0  0  0
  5 34  1  0  0  0  0
  5 35  1  0  0  0  0
  6  7  1  0  0  0  0
  6 36  1  0  0  0  0
  6 37  1  0  0  0  0
  7 24  1  0  0  0  0
  7  8  1  0  0  0  0
  8  9  1  0  0  0  0
  8 38  1  0  0  0  0
  9 10  2  0  0  0  0
  9 11  1  0  0  0  0
 11 12  1  0  0  0  0
 11 24  1  0  0  0  0
 12 13  1  0  0  0  0
 12 39  1  0  0  0  0
 12 40  1  0  0  0  0
 13 14  2  0  0  0  0
 13 15  1  0  0  0  0
 15 16  1  0  0  0  0
 15 41  1  0  0  0  0
 16 17  1  0  0  0  0
 16 42  1  0  0  0  0
 16 43  1  0  0  0  0
 17 18  1  0  0  0  0
 17 44  1  0  0  0  0
 17 45  1  0  0  0  0
 18 23  1  0  0  0  0
 18 19  2  0  0  0  0
 19 20  1  0  0  0  0
 19 46  1  0  0  0  0
 20 21  2  0  0  0  0
 20 47  1  0  0  0  0
 21 22  1  0  0  0  0
 21 48  1  0  0  0  0
 22 23  2  0  0  0  0
 22 49  1  0  0  0  0
 24 25  2  0  0  0  0
M  END
> <s_m_source_file>
AV-unprocessed.smi

> <i_m_source_file_index>
2973

> <i_lp_mmshare_version>
43012

> <i_f3d_flags>
0

> <s_epik_input>
W0NIMl0xW0NIMl1bQ0gyXVtDSDJdW0NAQEhdKFtDSDNdKVtDQF0xMltOSF1DKD1PKU4oQzI9TylbQ0gyXUMoPU8pW05IXVtDSDJdW0NIMl1jM1tjSF1bY0hdW2NIXVtjSF1uMw==

> <s_epik_cmdline>
J2VwaWtfcHl0aG9uJywgJy1waCcsICc3LjAnLCAnLXRuJywgJzgnLCAnLW1hJywgJzIwMCcsICctbWV0YWxfYmluZGluZycsICctaW1hZScsICc8aW5maWxlLm1hZT4nLCAnLW9tYWUnLCAnPG91dGZpbGUubWFlPic=

> <r_lp_tautomer_probability>
1

> <r_epik_Ionization_Penalty>
0.0245152

> <r_epik_Ionization_Penalty_Charging>
0

> <r_epik_Ionization_Penalty_Neutral>
0.0245152

> <r_epik_State_Penalty>
0.0198648

> <r_epik_Charging_Adjusted_Penalty>
0.0198648

> <i_epik_Tot_Q>
0

> <i_epik_Tot_abs_Q>
0

> <r_epik_Metal_State_Penalty>
0.0400162

> <b_epik_Metal_Only>
0

> <s_lp_Force_Field>
OPLS_2005

> <r_lp_Energy>
21.7018

> <b_lp_Chiralities_Consistent>
1

> <s_lp_Variant>
AV-unprocessed.smi:2973-3

> <Gold.Version>
5.8.1

> <Gold.Id.Protein>
6NUR|6NUR_protein|mol2

> <Gold.PLP.Fitness>
49.5795

> <Gold.PLP.PLP>
-38.5889

> <Gold.PLP.part.hbond>
-3.9794

> <Gold.PLP.part.metal>
0.0000

> <Gold.PLP.part.buried>
-4.4120

> <Gold.PLP.part.nonpolar>
-30.8345

> <Gold.PLP.part.repulsive>
0.2454

> <Gold.PLP.ligand.clash>
0.0000

> <Gold.PLP.ligand.torsion>
0.5997

> <Gold.PLP.Chemscore.Hbond>
3.0705

> <Gold.PLP.Chemscore.CHOScore>
0.9797

> <Gold.PLP.Chemscore.Metal>
0.0000

> <Gold.Chemscore.Hbonds>
donor molecule, donor type, donor heavy atom, donor atom, acceptor molecule, acceptor atom, score
      L1  H    15    41       P1  7948  0.66
      P1  H  7989  7998       L1    25  0.48
      P1  H  7997  8010       L1    25  0.99
      P1  H 10752 10763       L1    14  1.00

> <Gold.PLP.Chemscore.Internal.Correction>
0.0393

> <Gold.Rescore>
     Score         DG    S(hbond)    S(metal)    S(lipo)     H(rot)  DE(clash)    DE(int)     intcor
     18.91     -20.06       2.49        0.00      94.15       1.86       0.42       0.72       ----

> <Gold.Chemscore.Fitness>
18.9130

> <Gold.Chemscore.DG>
-20.0583

> <Gold.Chemscore.ZeroCoef>
-5.4800

> <Gold.Chemscore.Hbond>
2.4888

> <Gold.Chemscore.Metal>
0.0000

> <Gold.Chemscore.Lipo>
94.1481

> <Gold.Chemscore.Internal_Hbond>
0.0000

> <Gold.Chemscore.DEClash>
0.4214

> <Gold.Chemscore.DEInternal>
0.7239

> <Gold.Chemscore.Rot>
1.8553

> <Gold.Chemscore.Internal.Correction>
   9.000000E+99

> <Gold.Chemscore.Hbonds>
donor molecule, donor type, donor heavy atom, donor atom, acceptor molecule, acceptor atom, score
      L1  H    15    41       P1  7948  0.55
      P1  H  7989  7998       L1    25  0.12
      P1  H  7997  8010       L1    25  0.81
      P1  H 10752 10763       L1    14  0.99

> <Gold.Chemscore.Hbond.Weighted>
-8.3126

> <Gold.Chemscore.Metal.Weighted>
-0.0000

> <Gold.Chemscore.Lipo.Weighted>
-11.0153

> <Gold.Chemscore.Internal_Hbond.Weighted>
0.0000

> <Gold.Chemscore.DEClash.Weighted>
0.4214

> <Gold.Chemscore.DEInternal.Weighted>
0.7239

> <Gold.Chemscore.Rot.Weighted>
4.7497

> <Gold.Chemscore.Internal.Correction.Weighted>
   9.000000E+99

> <Gold.Protein.RotatedTorsions>
[ 6907 6896 6895 6894 ] final  155.42 input  -60.11 | X-H torsion
[ 7974 7965 7964 7962 ] final  -12.90 input  175.53 | X-H torsion
[ 8008 7997 7996 7995 ] final  100.51 input   59.86 | X-H torsion
[ 10167 10162 10161 10158 ] final    1.89 input  -65.29 | X-H torsion
[ 10718 10713 10712 10709 ] final -166.62 input   66.30 | X-H torsion
[ 10763 10752 10751 10750 ] final   79.51 input  -60.55 | X-H torsion
[ 11005 11000 10999 10996 ] final  -95.46 input  -57.11 | X-H torsion

> <Gold.Protein.ActiveResidues>
 VAL166  LYS551  ARG553  GLY616  TRP617  ASP618  TYR619  PRO620  LYS621  CYS622 
 ASP623  PHE694  ASN695  SER759  ASP760  ASP761  ALA762  ILE779  LEU786  VAL792 
 PHE793  MET794  SER795  GLU796  ALA797  LYS798  CYS799  TRP800  GLU811  SER814 

> <Gold.Protein.RotatedAtoms>
  152.0444  133.3991  159.4350 H   0  0  0  0  0  0  0  0  0  0  0  0  # atno 6907 bound_to 6896
  150.6873  134.3378  159.4864 H   0  0  0  0  0  0  0  0  0  0  0  0  # atno 6908 bound_to 6896
  152.1181  134.9225  160.0615 H   0  0  0  0  0  0  0  0  0  0  0  0  # atno 6909 bound_to 6896
  146.2134  140.3125  142.8384 H   0  0  0  0  0  0  0  0  0  0  0  0  # atno 7974 bound_to 7965
  156.1210  140.3212  155.8208 H   0  0  0  0  0  0  0  0  0  0  0  0  # atno 8008 bound_to 7997
  155.4504  140.0532  157.3019 H   0  0  0  0  0  0  0  0  0  0  0  0  # atno 8009 bound_to 7997
  154.4827  140.2060  155.9739 H   0  0  0  0  0  0  0  0  0  0  0  0  # atno 8010 bound_to 7997
  140.6661  143.7175  150.7830 H   0  0  0  0  0  0  0  0  0  0  0  0  # atno 10167 bound_to 10162
  156.6705  130.9082  151.3043 H   0  0  0  0  0  0  0  0  0  0  0  0  # atno 10718 bound_to 10713
  153.0958  135.4837  154.8776 H   0  0  0  0  0  0  0  0  0  0  0  0  # atno 10763 bound_to 10752
  154.7323  135.3063  154.8873 H   0  0  0  0  0  0  0  0  0  0  0  0  # atno 10764 bound_to 10752
  153.9506  135.6824  153.4797 H   0  0  0  0  0  0  0  0  0  0  0  0  # atno 10765 bound_to 10752
  141.1441  133.8027  157.0438 H   0  0  0  0  0  0  0  0  0  0  0  0  # atno 11005 bound_to 11000
  144.8978  140.7604  143.5886 LP  0  0  0  0  0  0  0  0  0  0  0  0  # atno 17320 bound_to 7965
  145.3050  139.1837  143.4669 LP  0  0  0  0  0  0  0  0  0  0  0  0  # atno 17321 bound_to 7965
  140.0853  143.4930  152.2508 LP  0  0  0  0  0  0  0  0  0  0  0  0  # atno 17342 bound_to 10162
  139.5911  144.7550  151.3400 LP  0  0  0  0  0  0  0  0  0  0  0  0  # atno 17343 bound_to 10162
  157.7079  130.9406  150.0991 LP  0  0  0  0  0  0  0  0  0  0  0  0  # atno 17370 bound_to 10713
  156.1942  130.3656  149.8870 LP  0  0  0  0  0  0  0  0  0  0  0  0  # atno 17371 bound_to 10713
  140.0676  134.9720  157.1412 LP  0  0  0  0  0  0  0  0  0  0  0  0  # atno 17394 bound_to 11000
  140.3758  134.2341  155.7174 LP  0  0  0  0  0  0  0  0  0  0  0  0  # atno 17395 bound_to 11000

$$$$
