AV-unprocessed.smi:1575|AV-procd|sdf|6342|dock3
  -GOLD-   22720 6563D 1   1.00000     0.00000
 Structure written by MMmdl.
 40 40  0  0  0  0  0  0  0  0  2 V2000
  144.1037  128.5043  155.3110 C   0  0  0  0  0  0  0  0  0  0  0  0
  144.5178  129.1760  154.0890 N   0  0  0  0  0  0  0  0  0  0  0  0
  145.6959  129.7963  153.9320 C   0  0  0  0  0  0  0  0  0  0  0  0
  146.5406  129.8701  154.8261 O   0  0  0  0  0  0  0  0  0  0  0  0
  145.9446  130.4506  152.5624 C   0  0  1  0  0  0  0  0  0  0  0  0
  144.8477  131.5194  152.3416 C   0  0  0  0  0  0  0  0  0  0  0  0
  144.9914  132.3538  151.0478 C   0  0  0  0  0  0  0  0  0  0  0  0
  143.7656  133.2585  150.8511 C   0  0  0  0  0  0  0  0  0  0  0  0
  145.2151  131.4779  149.8036 C   0  0  0  0  0  0  0  0  0  0  0  0
  147.2512  131.1080  152.5610 N   0  0  0  0  0  0  0  0  0  0  0  0
  147.5871  132.1663  153.3147 C   0  0  0  0  0  0  0  0  0  0  0  0
  146.8239  132.6805  154.1336 O   0  0  0  0  0  0  0  0  0  0  0  0
  149.0129  132.7013  153.1272 C   0  0  0  0  0  0  0  0  0  0  0  0
  149.8213  132.6223  154.3545 N   0  0  0  0  0  0  0  0  0  0  0  0
  150.5229  133.7739  154.7524 C   0  0  0  0  0  0  0  0  0  0  0  0
  151.2889  133.7919  155.8597 C   0  0  0  0  0  0  0  0  0  0  0  0
  151.3812  132.5741  156.6553 C   0  0  0  0  0  0  0  0  0  0  0  0
  152.0716  132.5739  157.6727 O   0  0  0  0  0  0  0  0  0  0  0  0
  150.6861  131.4809  156.2249 N   0  5  0  0  0  0  0  0  0  0  0  0
  149.9123  131.4764  155.0952 C   0  0  0  0  0  0  0  0  0  0  0  0
  149.2943  130.4780  154.7240 O   0  0  0  0  0  0  0  0  0  0  0  0
  143.1105  128.0752  155.1812 H   0  0  0  0  0  0  0  0  0  0  0  0
  144.0666  129.2046  156.1459 H   0  0  0  0  0  0  0  0  0  0  0  0
  144.7934  127.6978  155.5628 H   0  0  0  0  0  0  0  0  0  0  0  0
  143.8751  129.1605  153.3105 H   0  0  0  0  0  0  0  0  0  0  0  0
  145.8979  129.6901  151.7814 H   0  0  0  0  0  0  0  0  0  0  0  0
  143.8680  131.0383  152.3370 H   0  0  0  0  0  0  0  0  0  0  0  0
  144.8368  132.2005  153.1948 H   0  0  0  0  0  0  0  0  0  0  0  0
  145.8551  133.0116  151.1504 H   0  0  0  0  0  0  0  0  0  0  0  0
  142.8546  132.6707  150.7332 H   0  0  0  0  0  0  0  0  0  0  0  0
  143.8753  133.8838  149.9645 H   0  0  0  0  0  0  0  0  0  0  0  0
  143.6251  133.9234  151.7038 H   0  0  0  0  0  0  0  0  0  0  0  0
  144.4035  130.7621  149.6711 H   0  0  0  0  0  0  0  0  0  0  0  0
  146.1486  130.9196  149.8671 H   0  0  0  0  0  0  0  0  0  0  0  0
  145.2699  132.0875  148.9011 H   0  0  0  0  0  0  0  0  0  0  0  0
  147.9382  130.7531  151.9120 H   0  0  0  0  0  0  0  0  0  0  0  0
  149.4831  132.1358  152.3217 H   0  0  0  0  0  0  0  0  0  0  0  0
  148.9777  133.7325  152.7708 H   0  0  0  0  0  0  0  0  0  0  0  0
  150.4061  134.6308  154.1053 H   0  0  0  0  0  0  0  0  0  0  0  0
  151.8242  134.6838  156.1501 H   0  0  0  0  0  0  0  0  0  0  0  0
  1  2  1  0  0  0  0
  1 22  1  0  0  0  0
  1 23  1  0  0  0  0
  1 24  1  0  0  0  0
  2  3  1  0  0  0  0
  2 25  1  0  0  0  0
  3  4  2  0  0  0  0
  3  5  1  0  0  0  0
  5  6  1  0  0  0  0
  5 10  1  0  0  0  0
  5 26  1  0  0  0  0
  6  7  1  0  0  0  0
  6 27  1  0  0  0  0
  6 28  1  0  0  0  0
  7  8  1  0  0  0  0
  7  9  1  0  0  0  0
  7 29  1  0  0  0  0
  8 30  1  0  0  0  0
  8 31  1  0  0  0  0
  8 32  1  0  0  0  0
  9 33  1  0  0  0  0
  9 34  1  0  0  0  0
  9 35  1  0  0  0  0
 10 11  1  0  0  0  0
 10 36  1  0  0  0  0
 11 12  2  0  0  0  0
 11 13  1  0  0  0  0
 13 14  1  0  0  0  0
 13 37  1  0  0  0  0
 13 38  1  0  0  0  0
 14 20  1  0  0  0  0
 14 15  1  0  0  0  0
 15 16  2  0  0  0  0
 15 39  1  0  0  0  0
 16 17  1  0  0  0  0
 16 40  1  0  0  0  0
 17 18  2  0  0  0  0
 17 19  1  0  0  0  0
 19 20  1  0  0  0  0
 20 21  2  0  0  0  0
M  CHG  1  19  -1
M  END
> <s_m_source_file>
AV-unprocessed.smi

> <i_m_source_file_index>
1575

> <i_lp_mmshare_version>
43012

> <i_f3d_flags>
0

> <s_epik_input>
W0NIM11bTkhdQyg9TylbQ0BIXShbQ0gyXVtDSF0oW0NIM10pW0NIM10pW05IXUMoPU8pW0NIMl1uMVtjSF1bY0hdYyg9TylbbkhdYzE9Tw==

> <s_epik_cmdline>
J2VwaWtfcHl0aG9uJywgJy1waCcsICc3LjAnLCAnLXRuJywgJzgnLCAnLW1hJywgJzIwMCcsICctbWV0YWxfYmluZGluZycsICctaW1hZScsICc8aW5maWxlLm1hZT4nLCAnLW9tYWUnLCAnPG91dGZpbGUubWFlPic=

> <r_lp_tautomer_probability>
0.999537

> <r_epik_Ionization_Penalty>
3.03017

> <r_epik_Ionization_Penalty_Charging>
2.35557e-08

> <r_epik_Ionization_Penalty_Neutral>
3.03017

> <r_epik_State_Penalty>
3.02913

> <r_epik_Charging_Adjusted_Penalty>
3.02913

> <i_epik_Tot_Q>
-1

> <i_epik_Tot_abs_Q>
1

> <r_epik_Metal_State_Penalty>
0.455824

> <b_epik_Metal_Only>
1

> <s_lp_Force_Field>
OPLS_2005

> <r_lp_Energy>
14.624

> <b_lp_Chiralities_Consistent>
1

> <s_lp_Variant>
AV-unprocessed.smi:1575-4

> <Gold.Version>
5.8.1

> <Gold.Id.Protein>
6NUR|6NUR_protein|mol2

> <Gold.PLP.Fitness>
39.1518

> <Gold.PLP.PLP>
-33.3800

> <Gold.PLP.part.hbond>
-2.7752

> <Gold.PLP.part.metal>
0.0000

> <Gold.PLP.part.buried>
-1.8027

> <Gold.PLP.part.nonpolar>
-29.2484

> <Gold.PLP.part.repulsive>
0.2896

> <Gold.PLP.ligand.clash>
0.0000

> <Gold.PLP.ligand.torsion>
0.2010

> <Gold.PLP.Chemscore.Hbond>
2.0000

> <Gold.PLP.Chemscore.CHOScore>
0.0000

> <Gold.PLP.Chemscore.Metal>
0.0000

> <Gold.Chemscore.Hbonds>
donor molecule, donor type, donor heavy atom, donor atom, acceptor molecule, acceptor atom, score
      L1  H    10    36       P1 10747  1.00
      P1  H  6896  6907       L1    18  0.99

> <Gold.PLP.Chemscore.Internal.Correction>
0.1738

> <Gold.Rescore>
     Score         DG    S(hbond)    S(metal)    S(lipo)     H(rot)  DE(clash)    DE(int)     intcor
      5.34     -12.32       1.93        0.00      63.37       2.74       0.70       6.27       ----

> <Gold.Chemscore.Fitness>
5.3399

> <Gold.Chemscore.DG>
-12.3157

> <Gold.Chemscore.ZeroCoef>
-5.4800

> <Gold.Chemscore.Hbond>
1.9296

> <Gold.Chemscore.Metal>
0.0000

> <Gold.Chemscore.Lipo>
63.3698

> <Gold.Chemscore.Internal_Hbond>
0.0000

> <Gold.Chemscore.DEClash>
0.7027

> <Gold.Chemscore.DEInternal>
6.2731

> <Gold.Chemscore.Rot>
2.7435

> <Gold.Chemscore.Internal.Correction>
   9.000000E+99

> <Gold.Chemscore.Hbonds>
donor molecule, donor type, donor heavy atom, donor atom, acceptor molecule, acceptor atom, score
      L1  H    10    36       P1 10747  0.97
      P1  H  6896  6907       L1    18  0.94

> <Gold.Chemscore.Hbond.Weighted>
-6.4448

> <Gold.Chemscore.Metal.Weighted>
-0.0000

> <Gold.Chemscore.Lipo.Weighted>
-7.4143

> <Gold.Chemscore.Internal_Hbond.Weighted>
0.0000

> <Gold.Chemscore.DEClash.Weighted>
0.7027

> <Gold.Chemscore.DEInternal.Weighted>
6.2731

> <Gold.Chemscore.Rot.Weighted>
7.0233

> <Gold.Chemscore.Internal.Correction.Weighted>
   9.000000E+99

> <Gold.Protein.RotatedTorsions>
[ 6907 6896 6895 6894 ] final  165.49 input  -60.11 | X-H torsion
[ 7974 7965 7964 7962 ] final -152.03 input  175.53 | X-H torsion
[ 8008 7997 7996 7995 ] final  -83.49 input   59.86 | X-H torsion
[ 10167 10162 10161 10158 ] final -114.57 input  -65.29 | X-H torsion
[ 10718 10713 10712 10709 ] final  -69.94 input   66.30 | X-H torsion
[ 10763 10752 10751 10750 ] final -132.02 input  -60.55 | X-H torsion
[ 11005 11000 10999 10996 ] final   -7.46 input  -57.11 | X-H torsion

> <Gold.Protein.ActiveResidues>
 VAL166  LYS551  ARG553  GLY616  TRP617  ASP618  TYR619  PRO620  LYS621  CYS622 
 ASP623  PHE694  ASN695  SER759  ASP760  ASP761  ALA762  ILE779  LEU786  VAL792 
 PHE793  MET794  SER795  GLU796  ALA797  LYS798  CYS799  TRP800  GLU811  SER814 

> <Gold.Protein.RotatedAtoms>
  151.8936  133.3521  159.3806 H   0  0  0  0  0  0  0  0  0  0  0  0  # atno 6907 bound_to 6896
  150.7097  134.4899  159.5520 H   0  0  0  0  0  0  0  0  0  0  0  0  # atno 6908 bound_to 6896
  152.2474  134.8168  160.0502 H   0  0  0  0  0  0  0  0  0  0  0  0  # atno 6909 bound_to 6896
  144.7816  140.4717  143.5835 H   0  0  0  0  0  0  0  0  0  0  0  0  # atno 7974 bound_to 7965
  154.6197  140.0618  156.9599 H   0  0  0  0  0  0  0  0  0  0  0  0  # atno 8008 bound_to 7997
  155.1838  140.3301  155.4352 H   0  0  0  0  0  0  0  0  0  0  0  0  # atno 8009 bound_to 7997
  156.2424  140.1893  156.6933 H   0  0  0  0  0  0  0  0  0  0  0  0  # atno 8010 bound_to 7997
  140.0995  143.4625  152.1820 H   0  0  0  0  0  0  0  0  0  0  0  0  # atno 10167 bound_to 10162
  156.0431  130.4322  150.2221 H   0  0  0  0  0  0  0  0  0  0  0  0  # atno 10718 bound_to 10713
  154.8746  135.3811  154.4341 H   0  0  0  0  0  0  0  0  0  0  0  0  # atno 10763 bound_to 10752
  153.5032  135.7030  153.5825 H   0  0  0  0  0  0  0  0  0  0  0  0  # atno 10764 bound_to 10752
  153.4148  135.3916  155.2040 H   0  0  0  0  0  0  0  0  0  0  0  0  # atno 10765 bound_to 10752
  140.7130  133.8893  155.8764 H   0  0  0  0  0  0  0  0  0  0  0  0  # atno 11005 bound_to 11000
  145.6034  139.1506  143.3116 LP  0  0  0  0  0  0  0  0  0  0  0  0  # atno 17320 bound_to 7965
  146.2028  140.6154  142.9095 LP  0  0  0  0  0  0  0  0  0  0  0  0  # atno 17321 bound_to 7965
  139.5679  144.7446  151.3972 LP  0  0  0  0  0  0  0  0  0  0  0  0  # atno 17342 bound_to 10162
  140.6985  143.7690  150.7365 LP  0  0  0  0  0  0  0  0  0  0  0  0  # atno 17343 bound_to 10162
  157.0314  131.0008  151.3311 LP  0  0  0  0  0  0  0  0  0  0  0  0  # atno 17370 bound_to 10713
  157.5274  130.8037  149.7878 LP  0  0  0  0  0  0  0  0  0  0  0  0  # atno 17371 bound_to 10713
  141.0068  134.1075  157.4262 LP  0  0  0  0  0  0  0  0  0  0  0  0  # atno 17394 bound_to 11000
  139.8867  135.0083  156.6514 LP  0  0  0  0  0  0  0  0  0  0  0  0  # atno 17395 bound_to 11000

$$$$
