AV-unprocessed.smi:2223|AV-procd|sdf|8989|dock7
  -GOLD-   2272012203D 1   1.00000     0.00000
 Structure written by MMmdl.
 46 47  0  0  0  0  0  0  0  0  1 V2000
  144.6275  132.2796  149.5431 C   0  0  0  0  0  0  0  0  0  0  0  0
  145.4861  131.8886  150.7275 C   0  0  0  0  0  0  0  0  0  0  0  0
  145.4287  130.5864  151.2600 C   0  0  0  0  0  0  0  0  0  0  0  0
  146.2537  130.2809  152.3602 C   0  0  0  0  0  0  0  0  0  0  0  0
  146.2425  128.9000  152.9813 C   0  0  0  0  0  0  0  0  0  0  0  0
  147.0948  131.1758  152.9214 N   0  0  0  0  0  0  0  0  0  0  0  0
  147.1589  132.4328  152.4163 C   0  0  0  0  0  0  0  0  0  0  0  0
  148.0041  133.4487  152.9360 N   0  0  0  0  0  0  0  0  0  0  0  0
  148.7623  133.4127  154.0459 C   0  0  0  0  0  0  0  0  0  0  0  0
  148.8675  132.4515  154.8083 O   0  0  0  0  0  0  0  0  0  0  0  0
  149.4119  134.5715  154.2261 N   0  0  0  0  0  0  0  0  0  0  0  0
  150.3227  134.8560  155.3317 C   0  0  2  0  0  0  0  0  0  0  0  0
  149.6370  134.6811  156.6878 C   0  0  0  0  0  0  0  0  0  0  0  0
  149.9952  135.9485  157.4434 C   0  0  0  0  0  0  0  0  0  0  0  0
  149.6715  136.1074  158.6196 O   0  0  0  0  0  0  0  0  0  0  0  0
  150.6730  136.8214  156.6739 N   0  0  0  0  0  0  0  0  0  0  0  0
  151.1408  138.1777  157.0647 C   0  0  0  0  0  0  0  0  0  0  0  0
  151.7877  138.8721  155.8459 C   0  0  0  0  0  0  0  0  0  0  0  0
  152.1996  138.1222  158.1920 C   0  0  0  0  0  0  0  0  0  0  0  0
  149.9544  139.0237  157.5800 C   0  0  0  0  0  0  0  0  0  0  0  0
  150.8126  136.3148  155.3091 C   0  0  0  0  0  0  0  0  0  0  0  0
  146.3635  132.8220  151.3152 C   0  0  0  0  0  0  0  0  0  0  0  0
  143.7734  131.6096  149.4395 H   0  0  0  0  0  0  0  0  0  0  0  0
  145.2125  132.2353  148.6242 H   0  0  0  0  0  0  0  0  0  0  0  0
  144.2486  133.2951  149.6614 H   0  0  0  0  0  0  0  0  0  0  0  0
  144.7706  129.8419  150.8361 H   0  0  0  0  0  0  0  0  0  0  0  0
  145.3913  128.3166  152.6293 H   0  0  0  0  0  0  0  0  0  0  0  0
  146.1792  128.9688  154.0678 H   0  0  0  0  0  0  0  0  0  0  0  0
  147.1557  128.3635  152.7233 H   0  0  0  0  0  0  0  0  0  0  0  0
  148.0312  134.3043  152.4018 H   0  0  0  0  0  0  0  0  0  0  0  0
  149.2694  135.3090  153.5516 H   0  0  0  0  0  0  0  0  0  0  0  0
  151.1799  134.1811  155.2863 H   0  0  0  0  0  0  0  0  0  0  0  0
  148.5516  134.6126  156.6012 H   0  0  0  0  0  0  0  0  0  0  0  0
  149.9979  133.7975  157.2155 H   0  0  0  0  0  0  0  0  0  0  0  0
  152.1887  139.8498  156.1155 H   0  0  0  0  0  0  0  0  0  0  0  0
  151.0772  139.0349  155.0356 H   0  0  0  0  0  0  0  0  0  0  0  0
  152.6122  138.2800  155.4468 H   0  0  0  0  0  0  0  0  0  0  0  0
  153.0857  137.5598  157.8957 H   0  0  0  0  0  0  0  0  0  0  0  0
  151.8007  137.6731  159.1021 H   0  0  0  0  0  0  0  0  0  0  0  0
  152.5392  139.1235  158.4594 H   0  0  0  0  0  0  0  0  0  0  0  0
  150.2925  139.9940  157.9451 H   0  0  0  0  0  0  0  0  0  0  0  0
  149.4439  138.5251  158.4048 H   0  0  0  0  0  0  0  0  0  0  0  0
  149.2140  139.2233  156.8060 H   0  0  0  0  0  0  0  0  0  0  0  0
  151.8462  136.3536  154.9642 H   0  0  0  0  0  0  0  0  0  0  0  0
  150.2083  136.9292  154.6393 H   0  0  0  0  0  0  0  0  0  0  0  0
  146.4247  133.8268  150.9221 H   0  0  0  0  0  0  0  0  0  0  0  0
  1  2  1  0  0  0  0
  1 23  1  0  0  0  0
  1 24  1  0  0  0  0
  1 25  1  0  0  0  0
  2 22  1  0  0  0  0
  2  3  2  0  0  0  0
  3  4  1  0  0  0  0
  3 26  1  0  0  0  0
  4  5  1  0  0  0  0
  4  6  2  0  0  0  0
  5 27  1  0  0  0  0
  5 28  1  0  0  0  0
  5 29  1  0  0  0  0
  6  7  1  0  0  0  0
  7  8  1  0  0  0  0
  7 22  2  0  0  0  0
  8  9  1  0  0  0  0
  8 30  1  0  0  0  0
  9 10  2  0  0  0  0
  9 11  1  0  0  0  0
 11 12  1  0  0  0  0
 11 31  1  0  0  0  0
 12 21  1  0  0  0  0
 12 13  1  0  0  0  0
 12 32  1  0  0  0  0
 13 14  1  0  0  0  0
 13 33  1  0  0  0  0
 13 34  1  0  0  0  0
 14 15  2  0  0  0  0
 14 16  1  0  0  0  0
 16 17  1  0  0  0  0
 16 21  1  0  0  0  0
 17 18  1  0  0  0  0
 17 19  1  0  0  0  0
 17 20  1  0  0  0  0
 18 35  1  0  0  0  0
 18 36  1  0  0  0  0
 18 37  1  0  0  0  0
 19 38  1  0  0  0  0
 19 39  1  0  0  0  0
 19 40  1  0  0  0  0
 20 41  1  0  0  0  0
 20 42  1  0  0  0  0
 20 43  1  0  0  0  0
 21 44  1  0  0  0  0
 21 45  1  0  0  0  0
 22 46  1  0  0  0  0
M  END
> <s_m_source_file>
AV-unprocessed.smi

> <i_m_source_file_index>
2223

> <i_lp_mmshare_version>
43012

> <i_f3d_flags>
0

> <s_epik_input>
W0NIM11jMVtjSF1jKFtDSDNdKW5jKFtjSF0xKVtOSF1DKD1PKVtOSF1bQ0BASF0yW0NIMl1DKD1PKU4oW0NIMl0yKUMoW0NIM10pKFtDSDNdKVtDSDNd

> <s_epik_cmdline>
J2VwaWtfcHl0aG9uJywgJy1waCcsICc3LjAnLCAnLXRuJywgJzgnLCAnLW1hJywgJzIwMCcsICctbWV0YWxfYmluZGluZycsICctaW1hZScsICc8aW5maWxlLm1hZT4nLCAnLW9tYWUnLCAnPG91dGZpbGUubWFlPic=

> <r_lp_tautomer_probability>
1

> <r_epik_Ionization_Penalty>
0.000228403

> <r_epik_Ionization_Penalty_Charging>
0

> <r_epik_Ionization_Penalty_Neutral>
0.000228403

> <r_epik_State_Penalty>
-0

> <r_epik_Charging_Adjusted_Penalty>
0

> <i_epik_Tot_Q>
0

> <i_epik_Tot_abs_Q>
0

> <r_epik_Metal_State_Penalty>
-0

> <b_epik_Metal_Only>
0

> <s_lp_Force_Field>
OPLS_2005

> <r_lp_Energy>
26.8517

> <b_lp_Chiralities_Consistent>
1

> <s_lp_Variant>
AV-unprocessed.smi:2223-1

> <Gold.Version>
5.8.1

> <Gold.Id.Protein>
6NUR|6NUR_protein|mol2

> <Gold.PLP.Fitness>
43.4702

> <Gold.PLP.PLP>
-34.5344

> <Gold.PLP.part.hbond>
-3.0172

> <Gold.PLP.part.metal>
0.0000

> <Gold.PLP.part.buried>
-5.2607

> <Gold.PLP.part.nonpolar>
-26.8477

> <Gold.PLP.part.repulsive>
0.1696

> <Gold.PLP.ligand.clash>
0.0000

> <Gold.PLP.ligand.torsion>
0.0563

> <Gold.PLP.Chemscore.Hbond>
3.0000

> <Gold.PLP.Chemscore.CHOScore>
0.0000

> <Gold.PLP.Chemscore.Metal>
0.0000

> <Gold.Chemscore.Hbonds>
donor molecule, donor type, donor heavy atom, donor atom, acceptor molecule, acceptor atom, score
      L1  H     8    30       P1  7948  0.66
      L1  H    11    31       P1  7948  1.00
      P1  H  6896  6908       L1    15  1.00

> <Gold.PLP.Chemscore.Internal.Correction>
0.0485

> <Gold.Rescore>
     Score         DG    S(hbond)    S(metal)    S(lipo)     H(rot)  DE(clash)    DE(int)     intcor
     17.73     -19.14       2.07        0.00      84.13       1.21       0.10       1.31       ----

> <Gold.Chemscore.Fitness>
17.7307

> <Gold.Chemscore.DG>
-19.1404

> <Gold.Chemscore.ZeroCoef>
-5.4800

> <Gold.Chemscore.Hbond>
2.0668

> <Gold.Chemscore.Metal>
0.0000

> <Gold.Chemscore.Lipo>
84.1302

> <Gold.Chemscore.Internal_Hbond>
0.0000

> <Gold.Chemscore.DEClash>
0.0976

> <Gold.Chemscore.DEInternal>
1.3121

> <Gold.Chemscore.Rot>
1.2055

> <Gold.Chemscore.Internal.Correction>
   9.000000E+99

> <Gold.Chemscore.Hbonds>
donor molecule, donor type, donor heavy atom, donor atom, acceptor molecule, acceptor atom, score
      L1  H     8    30       P1  7948  0.14
      L1  H    11    31       P1  7948  0.30
      P1  H  6896  6908       L1    15  0.48

> <Gold.Chemscore.Hbond.Weighted>
-6.9033

> <Gold.Chemscore.Metal.Weighted>
-0.0000

> <Gold.Chemscore.Lipo.Weighted>
-9.8432

> <Gold.Chemscore.Internal_Hbond.Weighted>
0.0000

> <Gold.Chemscore.DEClash.Weighted>
0.0976

> <Gold.Chemscore.DEInternal.Weighted>
1.3121

> <Gold.Chemscore.Rot.Weighted>
3.0861

> <Gold.Chemscore.Internal.Correction.Weighted>
   9.000000E+99

> <Gold.Protein.RotatedTorsions>
[ 6907 6896 6895 6894 ] final -176.62 input  -60.11 | X-H torsion
[ 7974 7965 7964 7962 ] final  -67.44 input  175.53 | X-H torsion
[ 8008 7997 7996 7995 ] final -128.99 input   59.86 | X-H torsion
[ 10167 10162 10161 10158 ] final   48.52 input  -65.29 | X-H torsion
[ 10718 10713 10712 10709 ] final  -34.74 input   66.30 | X-H torsion
[ 10763 10752 10751 10750 ] final -137.39 input  -60.55 | X-H torsion
[ 11005 11000 10999 10996 ] final   98.52 input  -57.11 | X-H torsion

> <Gold.Protein.ActiveResidues>
 VAL166  LYS551  ARG553  GLY616  TRP617  ASP618  TYR619  PRO620  LYS621  CYS622 
 ASP623  PHE694  ASN695  SER759  ASP760  ASP761  ALA762  ILE779  LEU786  VAL792 
 PHE793  MET794  SER795  GLU796  ALA797  LYS798  CYS799  TRP800  GLU811  SER814 

> <Gold.Protein.RotatedAtoms>
  151.6078  133.3350  159.3060 H   0  0  0  0  0  0  0  0  0  0  0  0  # atno 6907 bound_to 6896
  150.8173  134.7365  159.6752 H   0  0  0  0  0  0  0  0  0  0  0  0  # atno 6908 bound_to 6896
  152.4268  134.5858  160.0012 H   0  0  0  0  0  0  0  0  0  0  0  0  # atno 6909 bound_to 6896
  145.7292  140.9004  143.0589 H   0  0  0  0  0  0  0  0  0  0  0  0  # atno 7974 bound_to 7965
  155.2718  140.0440  157.3007 H   0  0  0  0  0  0  0  0  0  0  0  0  # atno 8008 bound_to 7997
  154.5649  140.2357  155.8248 H   0  0  0  0  0  0  0  0  0  0  0  0  # atno 8009 bound_to 7997
  156.2077  140.3008  155.9670 H   0  0  0  0  0  0  0  0  0  0  0  0  # atno 8010 bound_to 7997
  140.2925  144.3029  150.6237 H   0  0  0  0  0  0  0  0  0  0  0  0  # atno 10167 bound_to 10162
  156.3469  130.4302  149.7738 H   0  0  0  0  0  0  0  0  0  0  0  0  # atno 10718 bound_to 10713
  154.8663  135.3643  154.5215 H   0  0  0  0  0  0  0  0  0  0  0  0  # atno 10763 bound_to 10752
  153.5845  135.7017  153.5454 H   0  0  0  0  0  0  0  0  0  0  0  0  # atno 10764 bound_to 10752
  153.3427  135.4093  155.1547 H   0  0  0  0  0  0  0  0  0  0  0  0  # atno 10765 bound_to 10752
  139.8772  134.9053  156.4469 H   0  0  0  0  0  0  0  0  0  0  0  0  # atno 11005 bound_to 11000
  144.6897  139.9307  143.7471 LP  0  0  0  0  0  0  0  0  0  0  0  0  # atno 17320 bound_to 7965
  146.0553  139.3551  143.0614 LP  0  0  0  0  0  0  0  0  0  0  0  0  # atno 17321 bound_to 7965
  140.5720  143.2180  151.7582 LP  0  0  0  0  0  0  0  0  0  0  0  0  # atno 17342 bound_to 10162
  139.4934  144.4203  151.9985 LP  0  0  0  0  0  0  0  0  0  0  0  0  # atno 17343 bound_to 10162
  156.4953  130.8104  151.3111 LP  0  0  0  0  0  0  0  0  0  0  0  0  # atno 17370 bound_to 10713
  157.7455  130.9962  150.2771 LP  0  0  0  0  0  0  0  0  0  0  0  0  # atno 17371 bound_to 10713
  140.8960  133.7814  155.9625 LP  0  0  0  0  0  0  0  0  0  0  0  0  # atno 17394 bound_to 11000
  140.8703  134.2735  157.5194 LP  0  0  0  0  0  0  0  0  0  0  0  0  # atno 17395 bound_to 11000

$$$$
