AV-unprocessed.smi:2959|AV-procd|sdf|11310|dock9
  -GOLD-   2272016213D 1   1.00000     0.00000
 Structure written by MMmdl.
 46 48  0  0  0  0  0  0  0  0  2 V2000
  145.5657  135.5679  150.5307 C   0  0  0  0  0  0  0  0  0  0  0  0
  145.2053  136.3973  151.7585 C   0  0  0  0  0  0  0  0  0  0  0  0
  144.0445  136.7629  151.9397 O   0  0  0  0  0  0  0  0  0  0  0  0
  146.2109  136.6872  152.5958 N   0  0  0  0  0  0  0  0  0  0  0  0
  146.0594  137.4594  153.8211 C   0  0  0  0  0  0  0  0  0  0  0  0
  146.7689  136.7648  154.9904 C   0  0  0  0  0  0  0  0  0  0  0  0
  148.1269  137.3422  155.2276 C   0  0  0  0  0  0  0  0  0  0  0  0
  149.1457  137.3844  154.3229 N   0  3  0  0  0  0  0  0  0  0  0  0
  150.2610  137.9982  154.8949 C   0  0  0  0  0  0  0  0  0  0  0  0
  151.5241  138.2624  154.3741 C   0  0  0  0  0  0  0  0  0  0  0  0
  152.4402  138.9065  155.2316 C   0  0  0  0  0  0  0  0  0  0  0  0
  152.0873  139.2616  156.5500 C   0  0  0  0  0  0  0  0  0  0  0  0
  150.8036  138.9884  157.0669 C   0  0  0  0  0  0  0  0  0  0  0  0
  149.9038  138.3530  156.2118 C   0  0  0  0  0  0  0  0  0  0  0  0
  148.5787  137.9342  156.3713 N   0  0  0  0  0  0  0  0  0  0  0  0
  147.9074  138.1553  157.6604 C   0  0  0  0  0  0  0  0  0  0  0  0
  148.3091  137.1078  158.7083 C   0  0  0  0  0  0  0  0  0  0  0  0
  147.5543  137.3279  159.8925 O   0  0  0  0  0  0  0  0  0  0  0  0
  147.3153  136.2585  160.7270 C   0  0  0  0  0  0  0  0  0  0  0  0
  147.3217  134.9770  160.1385 C   0  0  0  0  0  0  0  0  0  0  0  0
  147.0884  133.8262  160.9155 C   0  0  0  0  0  0  0  0  0  0  0  0
  146.8438  133.9474  162.2957 C   0  0  0  0  0  0  0  0  0  0  0  0
  146.8332  135.2203  162.8957 C   0  0  0  0  0  0  0  0  0  0  0  0
  147.0670  136.3717  162.1185 C   0  0  0  0  0  0  0  0  0  0  0  0
  146.3168  136.0817  149.9301 H   0  0  0  0  0  0  0  0  0  0  0  0
  144.6879  135.3980  149.9065 H   0  0  0  0  0  0  0  0  0  0  0  0
  145.9648  134.5983  150.8293 H   0  0  0  0  0  0  0  0  0  0  0  0
  147.1346  136.3448  152.3740 H   0  0  0  0  0  0  0  0  0  0  0  0
  146.4704  138.4598  153.6752 H   0  0  0  0  0  0  0  0  0  0  0  0
  144.9969  137.5763  154.0397 H   0  0  0  0  0  0  0  0  0  0  0  0
  146.1770  136.8570  155.9015 H   0  0  0  0  0  0  0  0  0  0  0  0
  146.8683  135.6972  154.7903 H   0  0  0  0  0  0  0  0  0  0  0  0
  151.7976  137.9902  153.3652 H   0  0  0  0  0  0  0  0  0  0  0  0
  153.4337  139.1316  154.8716 H   0  0  0  0  0  0  0  0  0  0  0  0
  152.8161  139.7534  157.1780 H   0  0  0  0  0  0  0  0  0  0  0  0
  150.5435  139.2624  158.0786 H   0  0  0  0  0  0  0  0  0  0  0  0
  148.1266  139.1655  158.0075 H   0  0  0  0  0  0  0  0  0  0  0  0
  146.8316  138.1156  157.4882 H   0  0  0  0  0  0  0  0  0  0  0  0
  148.1177  136.1067  158.3187 H   0  0  0  0  0  0  0  0  0  0  0  0
  149.3765  137.1909  158.9177 H   0  0  0  0  0  0  0  0  0  0  0  0
  147.5084  134.8752  159.0795 H   0  0  0  0  0  0  0  0  0  0  0  0
  147.0969  132.8506  160.4523 H   0  0  0  0  0  0  0  0  0  0  0  0
  146.6647  133.0656  162.8930 H   0  0  0  0  0  0  0  0  0  0  0  0
  146.6447  135.3145  163.9550 H   0  0  0  0  0  0  0  0  0  0  0  0
  147.0489  137.3306  162.6133 H   0  0  0  0  0  0  0  0  0  0  0  0
  149.0812  137.0147  153.3831 H   0  0  0  0  0  0  0  0  0  0  0  0
  1  2  1  0  0  0  0
  1 25  1  0  0  0  0
  1 26  1  0  0  0  0
  1 27  1  0  0  0  0
  2  3  2  0  0  0  0
  2  4  1  0  0  0  0
  4  5  1  0  0  0  0
  4 28  1  0  0  0  0
  5  6  1  0  0  0  0
  5 29  1  0  0  0  0
  5 30  1  0  0  0  0
  6  7  1  0  0  0  0
  6 31  1  0  0  0  0
  6 32  1  0  0  0  0
  7 15  1  0  0  0  0
  7  8  2  0  0  0  0
  8  9  1  0  0  0  0
  8 46  1  0  0  0  0
  9 14  2  0  0  0  0
  9 10  1  0  0  0  0
 10 11  2  0  0  0  0
 10 33  1  0  0  0  0
 11 12  1  0  0  0  0
 11 34  1  0  0  0  0
 12 13  2  0  0  0  0
 12 35  1  0  0  0  0
 13 14  1  0  0  0  0
 13 36  1  0  0  0  0
 14 15  1  0  0  0  0
 15 16  1  0  0  0  0
 16 17  1  0  0  0  0
 16 37  1  0  0  0  0
 16 38  1  0  0  0  0
 17 18  1  0  0  0  0
 17 39  1  0  0  0  0
 17 40  1  0  0  0  0
 18 19  1  0  0  0  0
 19 24  1  0  0  0  0
 19 20  2  0  0  0  0
 20 21  1  0  0  0  0
 20 41  1  0  0  0  0
 21 22  2  0  0  0  0
 21 42  1  0  0  0  0
 22 23  1  0  0  0  0
 22 43  1  0  0  0  0
 23 24  2  0  0  0  0
 23 44  1  0  0  0  0
 24 45  1  0  0  0  0
M  CHG  1   8   1
M  END
> <s_m_source_file>
AV-unprocessed.smi

> <i_m_source_file_index>
2959

> <i_lp_mmshare_version>
43012

> <i_f3d_flags>
0

> <s_epik_input>
W0NIM11DKD1PKVtOSF1bQ0gyXVtDSDJdYyhuMSluKGMoYzEyKVtjSF1bY0hdW2NIXVtjSF0yKVtDSDJdW0NIMl1PYzNbY0hdW2NIXVtjSF1bY0hdW2NIXTM=

> <s_epik_cmdline>
J2VwaWtfcHl0aG9uJywgJy1waCcsICc3LjAnLCAnLXRuJywgJzgnLCAnLW1hJywgJzIwMCcsICctbWV0YWxfYmluZGluZycsICctaW1hZScsICc8aW5maWxlLm1hZT4nLCAnLW9tYWUnLCAnPG91dGZpbGUubWFlPic=

> <r_lp_tautomer_probability>
1

> <r_epik_Ionization_Penalty>
1.04698

> <r_epik_Ionization_Penalty_Charging>
1.04698

> <r_epik_Ionization_Penalty_Neutral>
3.05925e-07

> <r_epik_State_Penalty>
1.0995

> <r_epik_Charging_Adjusted_Penalty>
2.14648

> <i_epik_Tot_Q>
1

> <i_epik_Tot_abs_Q>
1

> <r_epik_Metal_State_Penalty>
1.19436

> <b_epik_Metal_Only>
0

> <s_lp_Force_Field>
OPLS_2005

> <r_lp_Energy>
17.9669

> <b_lp_Chiralities_Consistent>
1

> <s_lp_Variant>
AV-unprocessed.smi:2959-2

> <Gold.Version>
5.8.1

> <Gold.Id.Protein>
6NUR|6NUR_protein|mol2

> <Gold.PLP.Fitness>
51.0449

> <Gold.PLP.PLP>
-42.0224

> <Gold.PLP.part.hbond>
-3.8839

> <Gold.PLP.part.metal>
0.0000

> <Gold.PLP.part.buried>
-6.1442

> <Gold.PLP.part.nonpolar>
-32.7366

> <Gold.PLP.part.repulsive>
0.1917

> <Gold.PLP.ligand.clash>
0.0083

> <Gold.PLP.ligand.torsion>
1.1298

> <Gold.PLP.Chemscore.Hbond>
3.7306

> <Gold.PLP.Chemscore.CHOScore>
0.0000

> <Gold.PLP.Chemscore.Metal>
0.0000

> <Gold.Chemscore.Hbonds>
donor molecule, donor type, donor heavy atom, donor atom, acceptor molecule, acceptor atom, score
      L1  H     4    28       P1  7948  1.00
      L1  H     8    46       P1  7948  2.00
      P1  H  6934  6947       L1    18  0.86

> <Gold.PLP.Chemscore.Internal.Correction>
0.0985

> <Gold.Rescore>
     Score         DG    S(hbond)    S(metal)    S(lipo)     H(rot)  DE(clash)    DE(int)     intcor
     19.41     -20.40       2.76        0.00      97.10       2.21       0.02       0.97       ----

> <Gold.Chemscore.Fitness>
19.4077

> <Gold.Chemscore.DG>
-20.3995

> <Gold.Chemscore.ZeroCoef>
-5.4800

> <Gold.Chemscore.Hbond>
2.7589

> <Gold.Chemscore.Metal>
0.0000

> <Gold.Chemscore.Lipo>
97.0984

> <Gold.Chemscore.Internal_Hbond>
0.0000

> <Gold.Chemscore.DEClash>
0.0176

> <Gold.Chemscore.DEInternal>
0.9742

> <Gold.Chemscore.Rot>
2.2093

> <Gold.Chemscore.Internal.Correction>
   9.000000E+99

> <Gold.Chemscore.Hbonds>
donor molecule, donor type, donor heavy atom, donor atom, acceptor molecule, acceptor atom, score
      L1  H     4    28       P1  7948  1.00
      L1  H     8    46       P1  7948  1.00
      P1  H  6934  6947       L1    18  0.57

> <Gold.Chemscore.Hbond.Weighted>
-9.2149

> <Gold.Chemscore.Metal.Weighted>
-0.0000

> <Gold.Chemscore.Lipo.Weighted>
-11.3605

> <Gold.Chemscore.Internal_Hbond.Weighted>
0.0000

> <Gold.Chemscore.DEClash.Weighted>
0.0176

> <Gold.Chemscore.DEInternal.Weighted>
0.9742

> <Gold.Chemscore.Rot.Weighted>
5.6559

> <Gold.Chemscore.Internal.Correction.Weighted>
   9.000000E+99

> <Gold.Protein.RotatedTorsions>
[ 6907 6896 6895 6894 ] final   92.24 input  -60.11 | X-H torsion
[ 7974 7965 7964 7962 ] final   -6.49 input  175.53 | X-H torsion
[ 8008 7997 7996 7995 ] final  -27.41 input   59.86 | X-H torsion
[ 10167 10162 10161 10158 ] final  -40.88 input  -65.29 | X-H torsion
[ 10718 10713 10712 10709 ] final  -44.60 input   66.30 | X-H torsion
[ 10763 10752 10751 10750 ] final -117.25 input  -60.55 | X-H torsion
[ 11005 11000 10999 10996 ] final -170.13 input  -57.11 | X-H torsion

> <Gold.Protein.ActiveResidues>
 VAL166  LYS551  ARG553  GLY616  TRP617  ASP618  TYR619  PRO620  LYS621  CYS622 
 ASP623  PHE694  ASN695  SER759  ASP760  ASP761  ALA762  ILE779  LEU786  VAL792 
 PHE793  MET794  SER795  GLU796  ALA797  LYS798  CYS799  TRP800  GLU811  SER814 

> <Gold.Protein.RotatedAtoms>
  152.5452  134.1533  159.8527 H   0  0  0  0  0  0  0  0  0  0  0  0  # atno 6907 bound_to 6896
  151.1558  133.4870  159.2602 H   0  0  0  0  0  0  0  0  0  0  0  0  # atno 6908 bound_to 6896
  151.1424  135.0197  159.8687 H   0  0  0  0  0  0  0  0  0  0  0  0  # atno 6909 bound_to 6896
  146.2329  140.2179  142.8337 H   0  0  0  0  0  0  0  0  0  0  0  0  # atno 7974 bound_to 7965
  154.4379  140.1873  156.0928 H   0  0  0  0  0  0  0  0  0  0  0  0  # atno 8008 bound_to 7997
  156.0353  140.3326  155.7158 H   0  0  0  0  0  0  0  0  0  0  0  0  # atno 8009 bound_to 7997
  155.5780  140.0619  157.2781 H   0  0  0  0  0  0  0  0  0  0  0  0  # atno 8010 bound_to 7997
  140.7020  143.3127  151.2987 H   0  0  0  0  0  0  0  0  0  0  0  0  # atno 10167 bound_to 10162
  156.2369  130.4177  149.8807 H   0  0  0  0  0  0  0  0  0  0  0  0  # atno 10718 bound_to 10713
  154.8548  135.4316  154.1950 H   0  0  0  0  0  0  0  0  0  0  0  0  # atno 10763 bound_to 10752
  153.3010  135.6969  153.7209 H   0  0  0  0  0  0  0  0  0  0  0  0  # atno 10764 bound_to 10752
  153.6339  135.3480  155.3025 H   0  0  0  0  0  0  0  0  0  0  0  0  # atno 10765 bound_to 10752
  140.5230  134.5691  157.5053 H   0  0  0  0  0  0  0  0  0  0  0  0  # atno 11005 bound_to 11000
  144.9655  140.8317  143.5487 LP  0  0  0  0  0  0  0  0  0  0  0  0  # atno 17320 bound_to 7965
  145.2154  139.2184  143.5121 LP  0  0  0  0  0  0  0  0  0  0  0  0  # atno 17321 bound_to 7965
  139.6555  144.0283  152.2657 LP  0  0  0  0  0  0  0  0  0  0  0  0  # atno 17342 bound_to 10162
  139.9834  144.6412  150.7880 LP  0  0  0  0  0  0  0  0  0  0  0  0  # atno 17343 bound_to 10162
  156.6401  130.8701  151.3512 LP  0  0  0  0  0  0  0  0  0  0  0  0  # atno 17370 bound_to 10713
  157.7158  130.9496  150.1251 LP  0  0  0  0  0  0  0  0  0  0  0  0  # atno 17371 bound_to 10713
  139.9595  134.7476  156.0267 LP  0  0  0  0  0  0  0  0  0  0  0  0  # atno 17394 bound_to 11000
  141.1324  133.6583  156.3499 LP  0  0  0  0  0  0  0  0  0  0  0  0  # atno 17395 bound_to 11000

$$$$
