AV-unprocessed.smi:380|AV-procd|sdf|2460|dock8
  -GOLD-   2262022403D 1   1.00000     0.00000
 Structure written by MMmdl.
 39 40  0  0  0  0  0  0  0  0  1 V2000
  151.9414  144.3354  160.9976 C   0  0  0  0  0  0  0  0  0  0  0  0
  151.8881  143.8632  159.5342 C   0  0  0  0  0  0  0  0  0  0  0  0
  152.5054  144.9148  158.6010 C   0  0  0  0  0  0  0  0  0  0  0  0
  150.4554  143.5068  159.0814 C   0  0  0  0  0  0  0  0  0  0  0  0
  150.3609  143.2682  157.6449 N   0  0  0  0  0  0  0  0  0  0  0  0
  150.6066  142.0973  157.0388 C   0  0  0  0  0  0  0  0  0  0  0  0
  150.9637  141.0866  157.6459 O   0  0  0  0  0  0  0  0  0  0  0  0
  150.4232  142.0809  155.5138 C   0  0  0  0  0  0  0  0  0  0  0  0
  149.9184  140.7884  155.0003 N   0  0  0  0  0  0  0  0  0  0  0  0
  150.7240  139.6336  155.1714 C   0  0  0  0  0  0  0  0  0  0  0  0
  151.8189  139.7009  155.7332 O   0  0  0  0  0  0  0  0  0  0  0  0
  150.1647  138.3923  154.6416 C   0  0  0  0  0  0  0  0  0  0  0  0
  150.9246  137.2017  154.8344 C   0  0  0  0  0  0  0  0  0  0  0  0
  151.5464  136.2423  155.0141 N   0  0  0  0  0  0  0  0  0  0  0  0
  148.9773  138.3827  154.0018 C   0  0  0  0  0  0  0  0  0  0  0  0
  148.2367  139.5263  153.7967 N   0  0  0  0  0  0  0  0  0  0  0  0
  146.9152  139.4733  153.2377 C   0  0  0  0  0  0  0  0  0  0  0  0
  146.3097  138.1255  152.9102 C   0  0  0  0  0  0  0  0  0  0  0  0
  146.7118  139.0572  151.7936 C   0  0  0  0  0  0  0  0  0  0  0  0
  148.6684  140.7580  154.3355 C   0  0  0  0  0  0  0  0  0  0  0  0
  147.9797  141.7759  154.2314 O   0  0  0  0  0  0  0  0  0  0  0  0
  151.3192  145.2174  161.1510 H   0  0  0  0  0  0  0  0  0  0  0  0
  152.9599  144.5925  161.2894 H   0  0  0  0  0  0  0  0  0  0  0  0
  151.5968  143.5602  161.6825 H   0  0  0  0  0  0  0  0  0  0  0  0
  152.5032  142.9655  159.4561 H   0  0  0  0  0  0  0  0  0  0  0  0
  151.9439  145.8490  158.6295 H   0  0  0  0  0  0  0  0  0  0  0  0
  152.5173  144.5647  157.5683 H   0  0  0  0  0  0  0  0  0  0  0  0
  153.5350  145.1361  158.8836 H   0  0  0  0  0  0  0  0  0  0  0  0
  150.1181  142.6052  159.5937 H   0  0  0  0  0  0  0  0  0  0  0  0
  149.7586  144.2975  159.3652 H   0  0  0  0  0  0  0  0  0  0  0  0
  150.0758  144.0487  157.0712 H   0  0  0  0  0  0  0  0  0  0  0  0
  149.7530  142.8938  155.2284 H   0  0  0  0  0  0  0  0  0  0  0  0
  151.3746  142.3514  155.0538 H   0  0  0  0  0  0  0  0  0  0  0  0
  148.5934  137.4446  153.6268 H   0  0  0  0  0  0  0  0  0  0  0  0
  146.2224  140.2232  153.6154 H   0  0  0  0  0  0  0  0  0  0  0  0
  146.9208  137.2374  153.0602 H   0  0  0  0  0  0  0  0  0  0  0  0
  145.2458  137.9951  153.0969 H   0  0  0  0  0  0  0  0  0  0  0  0
  145.9172  139.5507  151.2380 H   0  0  0  0  0  0  0  0  0  0  0  0
  147.5868  138.7808  151.2082 H   0  0  0  0  0  0  0  0  0  0  0  0
  1  2  1  0  0  0  0
  1 22  1  0  0  0  0
  1 23  1  0  0  0  0
  1 24  1  0  0  0  0
  2  3  1  0  0  0  0
  2  4  1  0  0  0  0
  2 25  1  0  0  0  0
  3 26  1  0  0  0  0
  3 27  1  0  0  0  0
  3 28  1  0  0  0  0
  4  5  1  0  0  0  0
  4 29  1  0  0  0  0
  4 30  1  0  0  0  0
  5  6  1  0  0  0  0
  5 31  1  0  0  0  0
  6  7  2  0  0  0  0
  6  8  1  0  0  0  0
  8  9  1  0  0  0  0
  8 32  1  0  0  0  0
  8 33  1  0  0  0  0
  9 20  1  0  0  0  0
  9 10  1  0  0  0  0
 10 11  2  0  0  0  0
 10 12  1  0  0  0  0
 12 13  1  0  0  0  0
 12 15  2  0  0  0  0
 13 14  3  0  0  0  0
 15 16  1  0  0  0  0
 15 34  1  0  0  0  0
 16 17  1  0  0  0  0
 16 20  1  0  0  0  0
 17 19  1  0  0  0  0
 17 18  1  0  0  0  0
 17 35  1  0  0  0  0
 18 19  1  0  0  0  0
 18 36  1  0  0  0  0
 18 37  1  0  0  0  0
 19 38  1  0  0  0  0
 19 39  1  0  0  0  0
 20 21  2  0  0  0  0
M  END
> <s_m_source_file>
AV-unprocessed.smi

> <i_m_source_file_index>
380

> <i_lp_mmshare_version>
43012

> <i_f3d_flags>
0

> <s_epik_input>
W0NIM11bQ0hdKFtDSDNdKVtDSDJdW05IXUMoPU8pW0NIMl1uMWMoPU8pYyhDI04pW2NIXW4oYzE9TylbQ0hdMltDSDJdW0NIMl0y

> <s_epik_cmdline>
J2VwaWtfcHl0aG9uJywgJy1waCcsICc3LjAnLCAnLXRuJywgJzgnLCAnLW1hJywgJzIwMCcsICctbWV0YWxfYmluZGluZycsICctaW1hZScsICc8aW5maWxlLm1hZT4nLCAnLW9tYWUnLCAnPG91dGZpbGUubWFlPic=

> <r_lp_tautomer_probability>
1

> <r_epik_Ionization_Penalty>
1.93825e-08

> <r_epik_Ionization_Penalty_Charging>
8.0817e-11

> <r_epik_Ionization_Penalty_Neutral>
1.93017e-08

> <r_epik_State_Penalty>
-0

> <r_epik_Charging_Adjusted_Penalty>
8.0817e-11

> <i_epik_Tot_Q>
0

> <i_epik_Tot_abs_Q>
0

> <r_epik_Metal_State_Penalty>
-0

> <b_epik_Metal_Only>
0

> <s_lp_Force_Field>
OPLS_2005

> <r_lp_Energy>
29.2237

> <b_lp_Chiralities_Consistent>
1

> <s_lp_Variant>
AV-unprocessed.smi:380-1

> <Gold.Version>
5.8.1

> <Gold.Id.Protein>
6NUR|6NUR_protein|mol2

> <Gold.PLP.Fitness>
48.8114

> <Gold.PLP.PLP>
-41.0403

> <Gold.PLP.part.hbond>
-2.0000

> <Gold.PLP.part.metal>
0.0000

> <Gold.PLP.part.buried>
0.5382

> <Gold.PLP.part.nonpolar>
-40.1956

> <Gold.PLP.part.repulsive>
0.3130

> <Gold.PLP.ligand.clash>
0.0000

> <Gold.PLP.ligand.torsion>
0.7110

> <Gold.PLP.Chemscore.Hbond>
1.9920

> <Gold.PLP.Chemscore.CHOScore>
1.0000

> <Gold.PLP.Chemscore.Metal>
0.0000

> <Gold.Chemscore.Hbonds>
donor molecule, donor type, donor heavy atom, donor atom, acceptor molecule, acceptor atom, score
      L1  H     5    31       P1  8028  0.98
      P1  H 10752 10765       L1    14  1.00
      L1  C    15    34       P1  7948  1.00

> <Gold.PLP.Chemscore.Internal.Correction>
0.2171

> <Gold.Rescore>
     Score         DG    S(hbond)    S(metal)    S(lipo)     H(rot)  DE(clash)    DE(int)     intcor
     11.50     -16.36       1.78        0.00      85.73       1.99       2.04       2.82       ----

> <Gold.Chemscore.Fitness>
11.4988

> <Gold.Chemscore.DG>
-16.3555

> <Gold.Chemscore.ZeroCoef>
-5.4800

> <Gold.Chemscore.Hbond>
1.7805

> <Gold.Chemscore.Metal>
0.0000

> <Gold.Chemscore.Lipo>
85.7333

> <Gold.Chemscore.Internal_Hbond>
0.0000

> <Gold.Chemscore.DEClash>
2.0407

> <Gold.Chemscore.DEInternal>
2.8161

> <Gold.Chemscore.Rot>
1.9930

> <Gold.Chemscore.Internal.Correction>
   9.000000E+99

> <Gold.Chemscore.Hbonds>
donor molecule, donor type, donor heavy atom, donor atom, acceptor molecule, acceptor atom, score
      L1  H     5    31       P1  8028  0.84
      P1  H 10752 10765       L1    14  0.98

> <Gold.Chemscore.Hbond.Weighted>
-5.9467

> <Gold.Chemscore.Metal.Weighted>
-0.0000

> <Gold.Chemscore.Lipo.Weighted>
-10.0308

> <Gold.Chemscore.Internal_Hbond.Weighted>
0.0000

> <Gold.Chemscore.DEClash.Weighted>
2.0407

> <Gold.Chemscore.DEInternal.Weighted>
2.8161

> <Gold.Chemscore.Rot.Weighted>
5.1020

> <Gold.Chemscore.Internal.Correction.Weighted>
   9.000000E+99

> <Gold.Protein.RotatedTorsions>
[ 6907 6896 6895 6894 ] final -108.89 input  -60.11 | X-H torsion
[ 7974 7965 7964 7962 ] final  -21.80 input  175.53 | X-H torsion
[ 8008 7997 7996 7995 ] final  156.48 input   59.86 | X-H torsion
[ 10167 10162 10161 10158 ] final   11.55 input  -65.29 | X-H torsion
[ 10718 10713 10712 10709 ] final -175.17 input   66.30 | X-H torsion
[ 10763 10752 10751 10750 ] final  165.25 input  -60.55 | X-H torsion
[ 11005 11000 10999 10996 ] final -163.74 input  -57.11 | X-H torsion

> <Gold.Protein.ActiveResidues>
 VAL166  LYS551  ARG553  GLY616  TRP617  ASP618  TYR619  PRO620  LYS621  CYS622 
 ASP623  PHE694  ASN695  SER759  ASP760  ASP761  ALA762  ILE779  LEU786  VAL792 
 PHE793  MET794  SER795  GLU796  ALA797  LYS798  CYS799  TRP800  GLU811  SER814 

> <Gold.Protein.RotatedAtoms>
  150.7529  133.9610  159.3515 H   0  0  0  0  0  0  0  0  0  0  0  0  # atno 6907 bound_to 6896
  151.7536  135.0825  160.0344 H   0  0  0  0  0  0  0  0  0  0  0  0  # atno 6908 bound_to 6896
  152.3450  133.6074  159.5939 H   0  0  0  0  0  0  0  0  0  0  0  0  # atno 6909 bound_to 6896
  146.1712  140.4391  142.8531 H   0  0  0  0  0  0  0  0  0  0  0  0  # atno 7974 bound_to 7965
  156.2420  140.1911  156.6962 H   0  0  0  0  0  0  0  0  0  0  0  0  # atno 8008 bound_to 7997
  154.6215  140.0608  156.9647 H   0  0  0  0  0  0  0  0  0  0  0  0  # atno 8009 bound_to 7997
  155.1854  140.3280  155.4370 H   0  0  0  0  0  0  0  0  0  0  0  0  # atno 8010 bound_to 7997
  140.6125  143.8378  150.7081 H   0  0  0  0  0  0  0  0  0  0  0  0  # atno 10167 bound_to 10162
  156.7959  130.9534  151.3119 H   0  0  0  0  0  0  0  0  0  0  0  0  # atno 10718 bound_to 10713
  154.3212  135.2756  155.2518 H   0  0  0  0  0  0  0  0  0  0  0  0  # atno 10763 bound_to 10752
  154.4871  135.5843  153.6435 H   0  0  0  0  0  0  0  0  0  0  0  0  # atno 10764 bound_to 10752
  152.9876  135.6125  154.3397 H   0  0  0  0  0  0  0  0  0  0  0  0  # atno 10765 bound_to 10752
  140.5947  134.5009  157.5197 H   0  0  0  0  0  0  0  0  0  0  0  0  # atno 11005 bound_to 11000
  144.8166  140.6479  143.6380 LP  0  0  0  0  0  0  0  0  0  0  0  0  # atno 17320 bound_to 7965
  145.4334  139.1546  143.4010 LP  0  0  0  0  0  0  0  0  0  0  0  0  # atno 17321 bound_to 7965
  140.1950  143.4005  152.1835 LP  0  0  0  0  0  0  0  0  0  0  0  0  # atno 17342 bound_to 10162
  139.5372  144.7221  151.4854 LP  0  0  0  0  0  0  0  0  0  0  0  0  # atno 17343 bound_to 10162
  157.6578  130.8939  149.9765 LP  0  0  0  0  0  0  0  0  0  0  0  0  # atno 17370 bound_to 10713
  156.1131  130.3649  150.0015 LP  0  0  0  0  0  0  0  0  0  0  0  0  # atno 17371 bound_to 10713
  139.9259  134.8058  156.1072 LP  0  0  0  0  0  0  0  0  0  0  0  0  # atno 17394 bound_to 11000
  141.0912  133.6713  156.2545 LP  0  0  0  0  0  0  0  0  0  0  0  0  # atno 17395 bound_to 11000

$$$$
