AV-unprocessed.smi:2062|AV-procd|sdf|8405|dock2
  -GOLD-   2272011 93D 1   1.00000     0.00000
 Structure written by MMmdl.
 42 43  0  0  0  0  0  0  0  0  3 V2000
  152.4467  143.9734  157.4781 C   0  0  0  0  0  0  0  0  0  0  0  0
  151.6291  142.6930  157.7182 C   0  0  0  0  0  0  0  0  0  0  0  0
  152.3990  141.7298  158.6340 C   0  0  0  0  0  0  0  0  0  0  0  0
  151.2492  141.9954  156.3939 C   0  0  0  0  0  0  0  0  0  0  0  0
  149.7816  141.9122  156.1803 N   0  3  2  0  0  0  0  0  0  0  0  0
  149.0647  141.1616  157.2407 C   0  0  0  0  0  0  0  0  0  0  0  0
  147.5521  141.1632  156.9667 C   0  0  0  0  0  0  0  0  0  0  0  0
  147.3040  140.6196  155.6774 O   0  0  0  0  0  0  0  0  0  0  0  0
  147.9040  141.3901  154.6406 C   0  0  2  0  0  0  0  0  0  0  0  0
  147.4945  140.7860  153.2908 C   0  0  0  0  0  0  0  0  0  0  0  0
  146.2543  140.0319  153.4322 N   0  0  0  0  0  0  0  0  0  0  0  0
  146.1353  138.7784  153.8886 C   0  0  0  0  0  0  0  0  0  0  0  0
  147.1383  138.1391  154.2139 O   0  0  0  0  0  0  0  0  0  0  0  0
  144.8556  138.3456  153.9408 N   0  5  0  0  0  0  0  0  0  0  0  0
  144.4042  137.4684  153.0296 C   0  0  0  0  0  0  0  0  0  0  0  0
  145.2045  136.8527  152.1520 N   0  0  0  0  0  0  0  0  0  0  0  0
  144.5246  135.9879  151.2925 C   0  0  0  0  0  0  0  0  0  0  0  0
  143.1738  135.9507  151.5154 C   0  0  0  0  0  0  0  0  0  0  0  0
  142.7123  137.0080  152.8187 S   0  0  0  0  0  0  0  0  0  0  0  0
  149.4313  141.3766  154.8434 C   0  0  0  0  0  0  0  0  0  0  0  0
  153.3706  143.7591  156.9398 H   0  0  0  0  0  0  0  0  0  0  0  0
  152.7159  144.4490  158.4217 H   0  0  0  0  0  0  0  0  0  0  0  0
  151.8841  144.7044  156.8968 H   0  0  0  0  0  0  0  0  0  0  0  0
  150.7198  142.9702  158.2506 H   0  0  0  0  0  0  0  0  0  0  0  0
  153.3357  141.4098  158.1767 H   0  0  0  0  0  0  0  0  0  0  0  0
  151.8112  140.8371  158.8495 H   0  0  0  0  0  0  0  0  0  0  0  0
  152.6394  142.2007  159.5877 H   0  0  0  0  0  0  0  0  0  0  0  0
  151.7031  142.5526  155.5729 H   0  0  0  0  0  0  0  0  0  0  0  0
  151.6754  140.9917  156.3509 H   0  0  0  0  0  0  0  0  0  0  0  0
  149.4336  140.1353  157.2770 H   0  0  0  0  0  0  0  0  0  0  0  0
  149.2516  141.6033  158.2187 H   0  0  0  0  0  0  0  0  0  0  0  0
  147.0345  140.5571  157.7105 H   0  0  0  0  0  0  0  0  0  0  0  0
  147.1424  142.1722  157.0363 H   0  0  0  0  0  0  0  0  0  0  0  0
  147.5402  142.4185  154.6928 H   0  0  0  0  0  0  0  0  0  0  0  0
  147.3245  141.5774  152.5602 H   0  0  0  0  0  0  0  0  0  0  0  0
  148.3057  140.1669  152.9040 H   0  0  0  0  0  0  0  0  0  0  0  0
  145.4013  140.5069  153.1765 H   0  0  0  0  0  0  0  0  0  0  0  0
  145.0829  135.4387  150.5492 H   0  0  0  0  0  0  0  0  0  0  0  0
  142.4259  135.3714  150.9955 H   0  0  0  0  0  0  0  0  0  0  0  0
  149.9075  141.9809  154.0702 H   0  0  0  0  0  0  0  0  0  0  0  0
  149.8194  140.3614  154.7427 H   0  0  0  0  0  0  0  0  0  0  0  0
  149.4344  142.8605  156.2017 H   0  0  0  0  0  0  0  0  0  0  0  0
  1  2  1  0  0  0  0
  1 21  1  0  0  0  0
  1 22  1  0  0  0  0
  1 23  1  0  0  0  0
  2  3  1  0  0  0  0
  2  4  1  0  0  0  0
  2 24  1  0  0  0  0
  3 25  1  0  0  0  0
  3 26  1  0  0  0  0
  3 27  1  0  0  0  0
  4  5  1  0  0  0  0
  4 28  1  0  0  0  0
  4 29  1  0  0  0  0
  5 20  1  0  0  0  0
  5  6  1  0  0  0  0
  5 42  1  0  0  0  0
  6  7  1  0  0  0  0
  6 30  1  0  0  0  0
  6 31  1  0  0  0  0
  7  8  1  0  0  0  0
  7 32  1  0  0  0  0
  7 33  1  0  0  0  0
  8  9  1  0  0  0  0
  9 10  1  0  0  0  0
  9 20  1  0  0  0  0
  9 34  1  0  0  0  0
 10 11  1  0  0  0  0
 10 35  1  0  0  0  0
 10 36  1  0  0  0  0
 11 12  1  0  0  0  0
 11 37  1  0  0  0  0
 12 13  2  0  0  0  0
 12 14  1  0  0  0  0
 14 15  1  0  0  0  0
 15 19  1  0  0  0  0
 15 16  2  0  0  0  0
 16 17  1  0  0  0  0
 17 18  2  0  0  0  0
 17 38  1  0  0  0  0
 18 19  1  0  0  0  0
 18 39  1  0  0  0  0
 20 40  1  0  0  0  0
 20 41  1  0  0  0  0
M  CHG  1   5   1
M  CHG  1  14  -1
M  END
> <s_m_source_file>
AV-unprocessed.smi

> <i_m_source_file_index>
2062

> <i_lp_mmshare_version>
43012

> <i_f3d_flags>
0

> <s_epik_input>
W0NIM11bQ0hdKFtDSDNdKVtDSDJdTjFbQ0gyXVtDSDJdT1tDQEhdKFtDSDJdMSlbQ0gyXVtOSF1DKD1PKVtOSF1jMm5bY0hdW2NIXXMy

> <s_epik_cmdline>
J2VwaWtfcHl0aG9uJywgJy1waCcsICc3LjAnLCAnLXRuJywgJzgnLCAnLW1hJywgJzIwMCcsICctbWV0YWxfYmluZGluZycsICctaW1hZScsICc8aW5maWxlLm1hZT4nLCAnLW9tYWUnLCAnPG91dGZpbGUubWFlPic=

> <r_lp_tautomer_probability>
0.999

> <r_epik_Ionization_Penalty>
6.35835

> <r_epik_Ionization_Penalty_Charging>
5.49938

> <r_epik_Ionization_Penalty_Neutral>
0.858963

> <r_epik_State_Penalty>
5.49328

> <r_epik_Charging_Adjusted_Penalty>
10.9927

> <i_epik_Tot_Q>
0

> <i_epik_Tot_abs_Q>
2

> <r_epik_Metal_State_Penalty>
1.51523

> <b_epik_Metal_Only>
1

> <s_lp_Force_Field>
OPLS_2005

> <r_lp_Energy>
7.82162

> <b_lp_Chiralities_Consistent>
1

> <s_lp_Variant>
AV-unprocessed.smi:2062-10

> <Gold.Version>
5.8.1

> <Gold.Id.Protein>
6NUR|6NUR_protein|mol2

> <Gold.PLP.Fitness>
43.8298

> <Gold.PLP.PLP>
-33.2998

> <Gold.PLP.part.hbond>
-2.0000

> <Gold.PLP.part.metal>
0.0000

> <Gold.PLP.part.buried>
-5.2241

> <Gold.PLP.part.nonpolar>
-27.7771

> <Gold.PLP.part.repulsive>
0.8468

> <Gold.PLP.ligand.clash>
0.0000

> <Gold.PLP.ligand.torsion>
2.1324

> <Gold.PLP.Chemscore.Hbond>
2.8560

> <Gold.PLP.Chemscore.CHOScore>
2.0000

> <Gold.PLP.Chemscore.Metal>
0.0000

> <Gold.Chemscore.Hbonds>
donor molecule, donor type, donor heavy atom, donor atom, acceptor molecule, acceptor atom, score
      L1  H     5    42       P1  8028  2.00
      L1  H    11    37       P1 10175  1.00

> <Gold.PLP.Chemscore.Internal.Correction>
0.2268

> <Gold.Rescore>
     Score         DG    S(hbond)    S(metal)    S(lipo)     H(rot)  DE(clash)    DE(int)     intcor
     12.50     -17.37       1.87        0.00      85.90       1.72       0.67       4.20       ----

> <Gold.Chemscore.Fitness>
12.5048

> <Gold.Chemscore.DG>
-17.3728

> <Gold.Chemscore.ZeroCoef>
-5.4800

> <Gold.Chemscore.Hbond>
1.8695

> <Gold.Chemscore.Metal>
0.0000

> <Gold.Chemscore.Lipo>
85.8994

> <Gold.Chemscore.Internal_Hbond>
0.0000

> <Gold.Chemscore.DEClash>
0.6655

> <Gold.Chemscore.DEInternal>
4.2024

> <Gold.Chemscore.Rot>
1.7194

> <Gold.Chemscore.Internal.Correction>
   9.000000E+99

> <Gold.Chemscore.Hbonds>
donor molecule, donor type, donor heavy atom, donor atom, acceptor molecule, acceptor atom, score
      L1  H     5    42       P1  8028  0.95
      L1  H    11    37       P1 10175  0.88

> <Gold.Chemscore.Hbond.Weighted>
-6.2442

> <Gold.Chemscore.Metal.Weighted>
-0.0000

> <Gold.Chemscore.Lipo.Weighted>
-10.0502

> <Gold.Chemscore.Internal_Hbond.Weighted>
0.0000

> <Gold.Chemscore.DEClash.Weighted>
0.6655

> <Gold.Chemscore.DEInternal.Weighted>
4.2024

> <Gold.Chemscore.Rot.Weighted>
4.4017

> <Gold.Chemscore.Internal.Correction.Weighted>
   9.000000E+99

> <Gold.Protein.RotatedTorsions>
[ 6907 6896 6895 6894 ] final  146.12 input  -60.11 | X-H torsion
[ 7974 7965 7964 7962 ] final   83.17 input  175.53 | X-H torsion
[ 8008 7997 7996 7995 ] final  -41.54 input   59.86 | X-H torsion
[ 10167 10162 10161 10158 ] final    2.68 input  -65.29 | X-H torsion
[ 10718 10713 10712 10709 ] final   39.44 input   66.30 | X-H torsion
[ 10763 10752 10751 10750 ] final  -87.64 input  -60.55 | X-H torsion
[ 11005 11000 10999 10996 ] final   21.78 input  -57.11 | X-H torsion

> <Gold.Protein.ActiveResidues>
 VAL166  LYS551  ARG553  GLY616  TRP617  ASP618  TYR619  PRO620  LYS621  CYS622 
 ASP623  PHE694  ASN695  SER759  ASP760  ASP761  ALA762  ILE779  LEU786  VAL792 
 PHE793  MET794  SER795  GLU796  ALA797  LYS798  CYS799  TRP800  GLU811  SER814 

> <Gold.Protein.RotatedAtoms>
  152.1720  133.4650  159.4913 H   0  0  0  0  0  0  0  0  0  0  0  0  # atno 6907 bound_to 6896
  150.6921  134.1941  159.4305 H   0  0  0  0  0  0  0  0  0  0  0  0  # atno 6908 bound_to 6896
  151.9848  135.0009  160.0609 H   0  0  0  0  0  0  0  0  0  0  0  0  # atno 6909 bound_to 6896
  145.6154  139.2376  143.2168 H   0  0  0  0  0  0  0  0  0  0  0  0  # atno 7974 bound_to 7965
  154.4003  140.1496  156.3208 H   0  0  0  0  0  0  0  0  0  0  0  0  # atno 8008 bound_to 7997
  155.8531  140.3457  155.5685 H   0  0  0  0  0  0  0  0  0  0  0  0  # atno 8009 bound_to 7997
  155.7962  140.0864  157.1972 H   0  0  0  0  0  0  0  0  0  0  0  0  # atno 8010 bound_to 7997
  140.6623  143.7271  150.7761 H   0  0  0  0  0  0  0  0  0  0  0  0  # atno 10167 bound_to 10162
  157.3706  130.7699  149.7116 H   0  0  0  0  0  0  0  0  0  0  0  0  # atno 10718 bound_to 10713
  154.6359  135.5406  153.7733 H   0  0  0  0  0  0  0  0  0  0  0  0  # atno 10763 bound_to 10752
  153.0308  135.6447  154.1232 H   0  0  0  0  0  0  0  0  0  0  0  0  # atno 10764 bound_to 10752
  154.1160  135.2923  155.3199 H   0  0  0  0  0  0  0  0  0  0  0  0  # atno 10765 bound_to 10752
  140.3878  134.1852  155.7663 H   0  0  0  0  0  0  0  0  0  0  0  0  # atno 11005 bound_to 11000
  146.1472  140.6976  142.9339 LP  0  0  0  0  0  0  0  0  0  0  0  0  # atno 17320 bound_to 7965
  144.7252  140.4503  143.6978 LP  0  0  0  0  0  0  0  0  0  0  0  0  # atno 17321 bound_to 7965
  140.0942  143.4848  152.2461 LP  0  0  0  0  0  0  0  0  0  0  0  0  # atno 17342 bound_to 10162
  139.5861  144.7531  151.3518 LP  0  0  0  0  0  0  0  0  0  0  0  0  # atno 17343 bound_to 10162
  155.9755  130.4088  150.3846 LP  0  0  0  0  0  0  0  0  0  0  0  0  # atno 17370 bound_to 10713
  157.1937  131.0421  151.2687 LP  0  0  0  0  0  0  0  0  0  0  0  0  # atno 17371 bound_to 10713
  141.1901  133.8223  157.0930 LP  0  0  0  0  0  0  0  0  0  0  0  0  # atno 17394 bound_to 11000
  140.0430  134.9845  157.0996 LP  0  0  0  0  0  0  0  0  0  0  0  0  # atno 17395 bound_to 11000

$$$$
