AV-unprocessed.smi:416|AV-procd|sdf|2526|dock8
  -GOLD-   2262022483D 1   1.00000     0.00000
 Structure written by MMmdl.
 43 44  0  0  0  0  0  0  0  0  1 V2000
  148.4391  135.3772  155.7287 C   0  0  0  0  0  0  0  0  0  0  0  0
  149.7959  134.7571  155.3381 C   0  0  0  0  0  0  0  0  0  0  0  0
  150.2965  133.8695  156.4970 C   0  0  0  0  0  0  0  0  0  0  0  0
  149.6046  133.8739  154.0822 C   0  0  0  0  0  0  0  0  0  0  0  0
  150.8120  135.9029  155.1099 C   0  0  0  0  0  0  0  0  0  0  0  0
  151.7987  135.9949  155.8417 O   0  0  0  0  0  0  0  0  0  0  0  0
  150.5741  136.7751  154.1148 N   0  0  0  0  0  0  0  0  0  0  0  0
  151.4006  137.9273  153.7693 C   0  0  0  0  0  0  0  0  0  0  0  0
  151.5097  138.9431  154.8948 C   0  0  0  0  0  0  0  0  0  0  0  0
  150.5412  139.9542  155.0490 C   0  0  0  0  0  0  0  0  0  0  0  0
  150.6793  140.8797  156.1012 C   0  0  0  0  0  0  0  0  0  0  0  0
  151.7897  140.7754  156.9732 C   0  0  0  0  0  0  0  0  0  0  0  0
  151.9528  141.6937  158.0341 N   0  0  0  0  0  0  0  0  0  0  0  0
  152.3564  141.1208  159.3164 C   0  0  0  0  0  0  0  0  0  0  0  0
  152.7947  142.2313  160.2864 C   0  0  0  0  0  0  0  0  0  0  0  0
  151.7564  143.1964  160.4164 O   0  0  0  0  0  0  0  0  0  0  0  0
  151.4602  143.8239  159.1735 C   0  0  0  0  0  0  0  0  0  0  0  0
  150.9723  142.7709  158.1644 C   0  0  0  0  0  0  0  0  0  0  0  0
  152.7176  139.7981  156.8218 N   0  0  0  0  0  0  0  0  0  0  0  0
  152.5808  138.9138  155.8119 C   0  0  0  0  0  0  0  0  0  0  0  0
  147.6943  134.6050  155.9240 H   0  0  0  0  0  0  0  0  0  0  0  0
  148.0479  136.0128  154.9329 H   0  0  0  0  0  0  0  0  0  0  0  0
  148.5150  135.9878  156.6296 H   0  0  0  0  0  0  0  0  0  0  0  0
  150.3954  134.4308  157.4274 H   0  0  0  0  0  0  0  0  0  0  0  0
  151.2694  133.4304  156.2719 H   0  0  0  0  0  0  0  0  0  0  0  0
  149.6061  133.0479  156.6909 H   0  0  0  0  0  0  0  0  0  0  0  0
  148.9010  133.0639  154.2775 H   0  0  0  0  0  0  0  0  0  0  0  0
  150.5417  133.4141  153.7646 H   0  0  0  0  0  0  0  0  0  0  0  0
  149.2079  134.4442  153.2410 H   0  0  0  0  0  0  0  0  0  0  0  0
  149.7433  136.6328  153.5585 H   0  0  0  0  0  0  0  0  0  0  0  0
  152.4042  137.6181  153.4729 H   0  0  0  0  0  0  0  0  0  0  0  0
  150.9593  138.4009  152.8918 H   0  0  0  0  0  0  0  0  0  0  0  0
  149.6989  140.0208  154.3762 H   0  0  0  0  0  0  0  0  0  0  0  0
  149.9281  141.6437  156.2333 H   0  0  0  0  0  0  0  0  0  0  0  0
  151.5133  140.5706  159.7361 H   0  0  0  0  0  0  0  0  0  0  0  0
  153.1737  140.4104  159.2041 H   0  0  0  0  0  0  0  0  0  0  0  0
  153.0106  141.8085  161.2675 H   0  0  0  0  0  0  0  0  0  0  0  0
  153.7109  142.7112  159.9385 H   0  0  0  0  0  0  0  0  0  0  0  0
  150.6894  144.5781  159.3313 H   0  0  0  0  0  0  0  0  0  0  0  0
  152.3423  144.3444  158.7969 H   0  0  0  0  0  0  0  0  0  0  0  0
  150.8050  143.2494  157.1986 H   0  0  0  0  0  0  0  0  0  0  0  0
  150.0190  142.3537  158.4924 H   0  0  0  0  0  0  0  0  0  0  0  0
  153.3542  138.1642  155.7366 H   0  0  0  0  0  0  0  0  0  0  0  0
  1  2  1  0  0  0  0
  1 21  1  0  0  0  0
  1 22  1  0  0  0  0
  1 23  1  0  0  0  0
  2  3  1  0  0  0  0
  2  4  1  0  0  0  0
  2  5  1  0  0  0  0
  3 24  1  0  0  0  0
  3 25  1  0  0  0  0
  3 26  1  0  0  0  0
  4 27  1  0  0  0  0
  4 28  1  0  0  0  0
  4 29  1  0  0  0  0
  5  6  2  0  0  0  0
  5  7  1  0  0  0  0
  7  8  1  0  0  0  0
  7 30  1  0  0  0  0
  8  9  1  0  0  0  0
  8 31  1  0  0  0  0
  8 32  1  0  0  0  0
  9 20  1  0  0  0  0
  9 10  2  0  0  0  0
 10 11  1  0  0  0  0
 10 33  1  0  0  0  0
 11 12  2  0  0  0  0
 11 34  1  0  0  0  0
 12 13  1  0  0  0  0
 12 19  1  0  0  0  0
 13 18  1  0  0  0  0
 13 14  1  0  0  0  0
 14 15  1  0  0  0  0
 14 35  1  0  0  0  0
 14 36  1  0  0  0  0
 15 16  1  0  0  0  0
 15 37  1  0  0  0  0
 15 38  1  0  0  0  0
 16 17  1  0  0  0  0
 17 18  1  0  0  0  0
 17 39  1  0  0  0  0
 17 40  1  0  0  0  0
 18 41  1  0  0  0  0
 18 42  1  0  0  0  0
 19 20  2  0  0  0  0
 20 43  1  0  0  0  0
M  END
> <s_m_source_file>
AV-unprocessed.smi

> <i_m_source_file_index>
416

> <i_lp_mmshare_version>
43012

> <i_f3d_flags>
0

> <s_epik_input>
W0NIM11DKFtDSDNdKShbQ0gzXSlDKD1PKVtOSF1bQ0gyXWMxW2NIXVtjSF1jKG5bY0hdMSlOMltDSDJdW0NIMl1PW0NIMl1bQ0gyXTI=

> <s_epik_cmdline>
J2VwaWtfcHl0aG9uJywgJy1waCcsICc3LjAnLCAnLXRuJywgJzgnLCAnLW1hJywgJzIwMCcsICctbWV0YWxfYmluZGluZycsICctaW1hZScsICc8aW5maWxlLm1hZT4nLCAnLW9tYWUnLCAnPG91dGZpbGUubWFlPic=

> <r_lp_tautomer_probability>
1

> <r_epik_Ionization_Penalty>
0.00522353

> <r_epik_Ionization_Penalty_Charging>
0

> <r_epik_Ionization_Penalty_Neutral>
0.00522353

> <r_epik_State_Penalty>
0.0038086

> <r_epik_Charging_Adjusted_Penalty>
0.0038086

> <i_epik_Tot_Q>
0

> <i_epik_Tot_abs_Q>
0

> <r_epik_Metal_State_Penalty>
-0

> <b_epik_Metal_Only>
0

> <s_lp_Force_Field>
OPLS_2005

> <r_lp_Energy>
22.6444

> <b_lp_Chiralities_Consistent>
1

> <s_lp_Variant>
AV-unprocessed.smi:416-1

> <Gold.Version>
5.8.1

> <Gold.Id.Protein>
6NUR|6NUR_protein|mol2

> <Gold.PLP.Fitness>
45.2345

> <Gold.PLP.PLP>
-37.1775

> <Gold.PLP.part.hbond>
-4.0000

> <Gold.PLP.part.metal>
0.0000

> <Gold.PLP.part.buried>
-1.5124

> <Gold.PLP.part.nonpolar>
-31.1649

> <Gold.PLP.part.repulsive>
0.1533

> <Gold.PLP.ligand.clash>
0.0000

> <Gold.PLP.ligand.torsion>
0.6088

> <Gold.PLP.Chemscore.Hbond>
2.9760

> <Gold.PLP.Chemscore.CHOScore>
0.0000

> <Gold.PLP.Chemscore.Metal>
0.0000

> <Gold.Chemscore.Hbonds>
donor molecule, donor type, donor heavy atom, donor atom, acceptor molecule, acceptor atom, score
      L1  H     7    30       P1  7948  0.94
      P1  H  7997  8009       L1    19  1.00
      P1  H 10752 10765       L1     6  1.00

> <Gold.PLP.Chemscore.Internal.Correction>
0.3466

> <Gold.Rescore>
     Score         DG    S(hbond)    S(metal)    S(lipo)     H(rot)  DE(clash)    DE(int)     intcor
     17.64     -19.99       2.18        0.00      95.08       1.52       1.70       0.65       ----

> <Gold.Chemscore.Fitness>
17.6371

> <Gold.Chemscore.DG>
-19.9907

> <Gold.Chemscore.ZeroCoef>
-5.4800

> <Gold.Chemscore.Hbond>
2.1768

> <Gold.Chemscore.Metal>
0.0000

> <Gold.Chemscore.Lipo>
95.0813

> <Gold.Chemscore.Internal_Hbond>
0.0000

> <Gold.Chemscore.DEClash>
1.7034

> <Gold.Chemscore.DEInternal>
0.6501

> <Gold.Chemscore.Rot>
1.5173

> <Gold.Chemscore.Internal.Correction>
   9.000000E+99

> <Gold.Chemscore.Hbonds>
donor molecule, donor type, donor heavy atom, donor atom, acceptor molecule, acceptor atom, score
      L1  H     7    30       P1  7948  0.41
      P1  H  7997  8009       L1    19  0.25
      P1  H 10752 10765       L1     6  0.86

> <Gold.Chemscore.Hbond.Weighted>
-7.2704

> <Gold.Chemscore.Metal.Weighted>
-0.0000

> <Gold.Chemscore.Lipo.Weighted>
-11.1245

> <Gold.Chemscore.Internal_Hbond.Weighted>
0.0000

> <Gold.Chemscore.DEClash.Weighted>
1.7034

> <Gold.Chemscore.DEInternal.Weighted>
0.6501

> <Gold.Chemscore.Rot.Weighted>
3.8843

> <Gold.Chemscore.Internal.Correction.Weighted>
   9.000000E+99

> <Gold.Protein.RotatedTorsions>
[ 6907 6896 6895 6894 ] final   21.84 input  -60.11 | X-H torsion
[ 7974 7965 7964 7962 ] final -110.49 input  175.53 | X-H torsion
[ 8008 7997 7996 7995 ] final  171.19 input   59.86 | X-H torsion
[ 10167 10162 10161 10158 ] final  162.39 input  -65.29 | X-H torsion
[ 10718 10713 10712 10709 ] final   29.50 input   66.30 | X-H torsion
[ 10763 10752 10751 10750 ] final -141.38 input  -60.55 | X-H torsion
[ 11005 11000 10999 10996 ] final   67.51 input  -57.11 | X-H torsion

> <Gold.Protein.ActiveResidues>
 VAL166  LYS551  ARG553  GLY616  TRP617  ASP618  TYR619  PRO620  LYS621  CYS622 
 ASP623  PHE694  ASN695  SER759  ASP760  ASP761  ALA762  ILE779  LEU786  VAL792 
 PHE793  MET794  SER795  GLU796  ALA797  LYS798  CYS799  TRP800  GLU811  SER814 

> <Gold.Protein.RotatedAtoms>
  151.9180  135.0311  160.0519 H   0  0  0  0  0  0  0  0  0  0  0  0  # atno 6907 bound_to 6896
  152.2224  133.4989  159.5178 H   0  0  0  0  0  0  0  0  0  0  0  0  # atno 6908 bound_to 6896
  150.7003  134.1242  159.4088 H   0  0  0  0  0  0  0  0  0  0  0  0  # atno 6909 bound_to 6896
  145.1676  140.8909  143.3554 H   0  0  0  0  0  0  0  0  0  0  0  0  # atno 7974 bound_to 7965
  156.1295  140.1518  156.9087 H   0  0  0  0  0  0  0  0  0  0  0  0  # atno 8008 bound_to 7997
  154.4898  140.0854  156.7608 H   0  0  0  0  0  0  0  0  0  0  0  0  # atno 8009 bound_to 7997
  155.4282  140.3426  155.4280 H   0  0  0  0  0  0  0  0  0  0  0  0  # atno 8010 bound_to 7997
  139.4860  144.4442  151.8913 H   0  0  0  0  0  0  0  0  0  0  0  0  # atno 10167 bound_to 10162
  157.2474  130.7098  149.6388 H   0  0  0  0  0  0  0  0  0  0  0  0  # atno 10718 bound_to 10713
  154.8547  135.3526  154.5859 H   0  0  0  0  0  0  0  0  0  0  0  0  # atno 10763 bound_to 10752
  153.6469  135.6996  153.5227 H   0  0  0  0  0  0  0  0  0  0  0  0  # atno 10764 bound_to 10752
  153.2925  135.4230  155.1138 H   0  0  0  0  0  0  0  0  0  0  0  0  # atno 10765 bound_to 10752
  139.9766  134.6812  156.0342 H   0  0  0  0  0  0  0  0  0  0  0  0  # atno 11005 bound_to 11000
  145.0266  139.3377  143.6045 LP  0  0  0  0  0  0  0  0  0  0  0  0  # atno 17320 bound_to 7965
  146.3473  139.9588  142.8720 LP  0  0  0  0  0  0  0  0  0  0  0  0  # atno 17321 bound_to 7965
  140.3895  144.2634  150.5901 LP  0  0  0  0  0  0  0  0  0  0  0  0  # atno 17342 bound_to 10162
  140.5159  143.2278  151.8463 LP  0  0  0  0  0  0  0  0  0  0  0  0  # atno 17343 bound_to 10162
  155.9667  130.4438  150.5438 LP  0  0  0  0  0  0  0  0  0  0  0  0  # atno 17370 bound_to 10713
  157.3315  131.0700  151.1857 LP  0  0  0  0  0  0  0  0  0  0  0  0  # atno 17371 bound_to 10713
  141.1443  133.6559  156.3820 LP  0  0  0  0  0  0  0  0  0  0  0  0  # atno 17394 bound_to 11000
  140.5182  134.6330  157.5308 LP  0  0  0  0  0  0  0  0  0  0  0  0  # atno 17395 bound_to 11000

$$$$
