AV-unprocessed.smi:653|AV-procd|sdf|3211|dock8
  -GOLD-   22720 0153D 1   1.00000     0.00000
 Structure written by MMmdl.
 45 46  0  0  0  0  0  0  0  0  2 V2000
  151.0998  145.2488  158.9593 C   0  0  0  0  0  0  0  0  0  0  0  0
  151.8808  144.1305  159.6164 C   0  0  0  0  0  0  0  0  0  0  0  0
  152.2118  144.1478  160.9884 C   0  0  0  0  0  0  0  0  0  0  0  0
  152.9361  143.0686  161.5358 C   0  0  0  0  0  0  0  0  0  0  0  0
  153.3140  141.9927  160.7019 C   0  0  0  0  0  0  0  0  0  0  0  0
  154.0887  140.8131  161.2621 C   0  0  0  0  0  0  0  0  0  0  0  0
  155.1098  140.3128  160.2399 C   0  0  0  0  0  0  0  0  0  0  0  0
  154.7264  139.7624  159.2084 O   0  0  0  0  0  0  0  0  0  0  0  0
  156.4034  140.5064  160.5399 N   0  0  0  0  0  0  0  0  0  0  0  0
  157.5267  140.1063  159.6995 C   0  0  0  0  0  0  0  0  0  0  0  0
  158.8805  140.4862  160.3304 C   0  0  1  0  0  0  0  0  0  0  0  0
  159.3608  139.5266  161.4024 C   0  0  0  0  0  0  0  0  0  0  0  0
  160.8460  139.8600  161.4701 C   0  0  0  0  0  0  0  0  0  0  0  0
  161.2216  140.1805  160.1351 O   0  0  0  0  0  0  0  0  0  0  0  0
  160.0618  140.4490  159.3478 C   0  0  2  0  0  0  0  0  0  0  0  0
  160.2587  141.7089  158.4736 C   0  0  0  0  0  0  0  0  0  0  0  0
  159.0420  141.9368  157.5630 C   0  0  0  0  0  0  0  0  0  0  0  0
  161.5564  141.6826  157.6448 C   0  0  0  0  0  0  0  0  0  0  0  0
  152.9568  142.0316  159.3364 C   0  0  0  0  0  0  0  0  0  0  0  0
  152.2618  143.0833  158.8506 N   0  3  0  0  0  0  0  0  0  0  0  0
  151.0697  146.1323  159.5976 H   0  0  0  0  0  0  0  0  0  0  0  0
  150.0746  144.9309  158.7672 H   0  0  0  0  0  0  0  0  0  0  0  0
  151.5569  145.5320  158.0106 H   0  0  0  0  0  0  0  0  0  0  0  0
  151.9144  144.9755  161.6160 H   0  0  0  0  0  0  0  0  0  0  0  0
  153.1941  143.0672  162.5850 H   0  0  0  0  0  0  0  0  0  0  0  0
  154.6003  141.1136  162.1777 H   0  0  0  0  0  0  0  0  0  0  0  0
  153.4072  140.0053  161.5330 H   0  0  0  0  0  0  0  0  0  0  0  0
  156.6277  140.9700  161.4083 H   0  0  0  0  0  0  0  0  0  0  0  0
  157.4696  139.0275  159.5521 H   0  0  0  0  0  0  0  0  0  0  0  0
  157.4295  140.5562  158.7102 H   0  0  0  0  0  0  0  0  0  0  0  0
  158.8036  141.4754  160.7808 H   0  0  0  0  0  0  0  0  0  0  0  0
  158.8541  139.6597  162.3587 H   0  0  0  0  0  0  0  0  0  0  0  0
  159.2240  138.4927  161.0821 H   0  0  0  0  0  0  0  0  0  0  0  0
  161.0093  140.7372  162.0973 H   0  0  0  0  0  0  0  0  0  0  0  0
  161.4430  139.0399  161.8691 H   0  0  0  0  0  0  0  0  0  0  0  0
  159.9292  139.5831  158.6970 H   0  0  0  0  0  0  0  0  0  0  0  0
  160.3159  142.5687  159.1421 H   0  0  0  0  0  0  0  0  0  0  0  0
  158.9169  141.1158  156.8562 H   0  0  0  0  0  0  0  0  0  0  0  0
  159.1476  142.8571  156.9880 H   0  0  0  0  0  0  0  0  0  0  0  0
  158.1233  142.0179  158.1443 H   0  0  0  0  0  0  0  0  0  0  0  0
  161.5813  140.8255  156.9709 H   0  0  0  0  0  0  0  0  0  0  0  0
  162.4442  141.6376  158.2742 H   0  0  0  0  0  0  0  0  0  0  0  0
  161.6460  142.5818  157.0348 H   0  0  0  0  0  0  0  0  0  0  0  0
  153.1989  141.2557  158.6245 H   0  0  0  0  0  0  0  0  0  0  0  0
  152.0123  143.0866  157.8612 H   0  0  0  0  0  0  0  0  0  0  0  0
  1  2  1  0  0  0  0
  1 21  1  0  0  0  0
  1 22  1  0  0  0  0
  1 23  1  0  0  0  0
  2 20  1  0  0  0  0
  2  3  2  0  0  0  0
  3  4  1  0  0  0  0
  3 24  1  0  0  0  0
  4  5  2  0  0  0  0
  4 25  1  0  0  0  0
  5  6  1  0  0  0  0
  5 19  1  0  0  0  0
  6  7  1  0  0  0  0
  6 26  1  0  0  0  0
  6 27  1  0  0  0  0
  7  8  2  0  0  0  0
  7  9  1  0  0  0  0
  9 10  1  0  0  0  0
  9 28  1  0  0  0  0
 10 11  1  0  0  0  0
 10 29  1  0  0  0  0
 10 30  1  0  0  0  0
 11 15  1  0  0  0  0
 11 12  1  0  0  0  0
 11 31  1  0  0  0  0
 12 13  1  0  0  0  0
 12 32  1  0  0  0  0
 12 33  1  0  0  0  0
 13 14  1  0  0  0  0
 13 34  1  0  0  0  0
 13 35  1  0  0  0  0
 14 15  1  0  0  0  0
 15 16  1  0  0  0  0
 15 36  1  0  0  0  0
 16 17  1  0  0  0  0
 16 18  1  0  0  0  0
 16 37  1  0  0  0  0
 17 38  1  0  0  0  0
 17 39  1  0  0  0  0
 17 40  1  0  0  0  0
 18 41  1  0  0  0  0
 18 42  1  0  0  0  0
 18 43  1  0  0  0  0
 19 20  2  0  0  0  0
 19 44  1  0  0  0  0
 20 45  1  0  0  0  0
M  CHG  1  20   1
M  END
> <s_m_source_file>
AV-unprocessed.smi

> <i_m_source_file_index>
653

> <i_lp_mmshare_version>
43012

> <i_f3d_flags>
0

> <s_epik_input>
W0NIM11jMVtjSF1bY0hdYyhbY0hdbjEpW0NIMl1DKD1PKVtOSF1bQ0gyXVtDQEBIXTJbQ0gyXVtDSDJdT1tDQEhdMltDSF0oW0NIM10pW0NIM10=

> <s_epik_cmdline>
J2VwaWtfcHl0aG9uJywgJy1waCcsICc3LjAnLCAnLXRuJywgJzgnLCAnLW1hJywgJzIwMCcsICctbWV0YWxfYmluZGluZycsICctaW1hZScsICc8aW5maWxlLm1hZT4nLCAnLW9tYWUnLCAnPG91dGZpbGUubWFlPic=

> <r_epik_Ionization_Penalty>
2.12486

> <r_epik_Ionization_Penalty_Charging>
2.12486

> <r_epik_Ionization_Penalty_Neutral>
9.0873e-08

> <r_epik_State_Penalty>
2.26279

> <r_epik_Charging_Adjusted_Penalty>
4.38765

> <i_epik_Tot_Q>
1

> <i_epik_Tot_abs_Q>
1

> <r_epik_Metal_State_Penalty>
2.27914

> <b_epik_Metal_Only>
0

> <s_lp_Force_Field>
OPLS_2005

> <r_lp_Energy>
26.1393

> <b_lp_Chiralities_Consistent>
1

> <s_lp_Variant>
AV-unprocessed.smi:653-8

> <Gold.Version>
5.8.1

> <Gold.Id.Protein>
6NUR|6NUR_protein|mol2

> <Gold.PLP.Fitness>
45.9365

> <Gold.PLP.PLP>
-44.0897

> <Gold.PLP.part.hbond>
-2.0000

> <Gold.PLP.part.metal>
0.0000

> <Gold.PLP.part.buried>
-4.2541

> <Gold.PLP.part.nonpolar>
-37.2516

> <Gold.PLP.part.repulsive>
0.1825

> <Gold.PLP.ligand.clash>
0.0000

> <Gold.PLP.ligand.torsion>
0.5936

> <Gold.PLP.Chemscore.Hbond>
1.0000

> <Gold.PLP.Chemscore.CHOScore>
0.0000

> <Gold.PLP.Chemscore.Metal>
0.0000

> <Gold.Chemscore.Hbonds>
donor molecule, donor type, donor heavy atom, donor atom, acceptor molecule, acceptor atom, score
      P1  H  7997  8010       L1     8  1.00

> <Gold.PLP.Chemscore.Internal.Correction>
0.0339

> <Gold.Rescore>
     Score         DG    S(hbond)    S(metal)    S(lipo)     H(rot)  DE(clash)    DE(int)     intcor
     17.76     -19.38       0.97        0.00     125.48       1.57       0.30       1.31       ----

> <Gold.Chemscore.Fitness>
17.7628

> <Gold.Chemscore.DG>
-19.3785

> <Gold.Chemscore.ZeroCoef>
-5.4800

> <Gold.Chemscore.Hbond>
0.9693

> <Gold.Chemscore.Metal>
0.0000

> <Gold.Chemscore.Lipo>
125.4767

> <Gold.Chemscore.Internal_Hbond>
0.0000

> <Gold.Chemscore.DEClash>
0.3012

> <Gold.Chemscore.DEInternal>
1.3145

> <Gold.Chemscore.Rot>
1.5701

> <Gold.Chemscore.Internal.Correction>
   9.000000E+99

> <Gold.Chemscore.Hbonds>
donor molecule, donor type, donor heavy atom, donor atom, acceptor molecule, acceptor atom, score
      P1  H  7997  8010       L1     8  0.95

> <Gold.Chemscore.Hbond.Weighted>
-3.2373

> <Gold.Chemscore.Metal.Weighted>
-0.0000

> <Gold.Chemscore.Lipo.Weighted>
-14.6808

> <Gold.Chemscore.Internal_Hbond.Weighted>
0.0000

> <Gold.Chemscore.DEClash.Weighted>
0.3012

> <Gold.Chemscore.DEInternal.Weighted>
1.3145

> <Gold.Chemscore.Rot.Weighted>
4.0196

> <Gold.Chemscore.Internal.Correction.Weighted>
   9.000000E+99

> <Gold.Protein.RotatedTorsions>
[ 6907 6896 6895 6894 ] final -165.67 input  -60.11 | X-H torsion
[ 7974 7965 7964 7962 ] final  118.21 input  175.53 | X-H torsion
[ 8008 7997 7996 7995 ] final  -13.77 input   59.86 | X-H torsion
[ 10167 10162 10161 10158 ] final -118.22 input  -65.29 | X-H torsion
[ 10718 10713 10712 10709 ] final  168.12 input   66.30 | X-H torsion
[ 10763 10752 10751 10750 ] final -168.56 input  -60.55 | X-H torsion
[ 11005 11000 10999 10996 ] final -145.92 input  -57.11 | X-H torsion

> <Gold.Protein.ActiveResidues>
 VAL166  LYS551  ARG553  GLY616  TRP617  ASP618  TYR619  PRO620  LYS621  CYS622 
 ASP623  PHE694  ASN695  SER759  ASP760  ASP761  ALA762  ILE779  LEU786  VAL792 
 PHE793  MET794  SER795  GLU796  ALA797  LYS798  CYS799  TRP800  GLU811  SER814 

> <Gold.Protein.RotatedAtoms>
  151.4313  133.3669  159.2768 H   0  0  0  0  0  0  0  0  0  0  0  0  # atno 6907 bound_to 6896
  150.9223  134.8642  159.7507 H   0  0  0  0  0  0  0  0  0  0  0  0  # atno 6908 bound_to 6896
  152.4988  134.4252  159.9546 H   0  0  0  0  0  0  0  0  0  0  0  0  # atno 6909 bound_to 6896
  145.1580  139.3172  143.4532 H   0  0  0  0  0  0  0  0  0  0  0  0  # atno 7974 bound_to 7965
  154.5265  140.2241  155.8881 H   0  0  0  0  0  0  0  0  0  0  0  0  # atno 8008 bound_to 7997
  156.1718  140.3120  155.8952 H   0  0  0  0  0  0  0  0  0  0  0  0  # atno 8009 bound_to 7997
  155.3541  140.0457  157.3037 H   0  0  0  0  0  0  0  0  0  0  0  0  # atno 8010 bound_to 7997
  140.0599  143.4978  152.2037 H   0  0  0  0  0  0  0  0  0  0  0  0  # atno 10167 bound_to 10162
  157.0416  131.0288  151.2711 H   0  0  0  0  0  0  0  0  0  0  0  0  # atno 10718 bound_to 10713
  154.6616  135.2926  154.9859 H   0  0  0  0  0  0  0  0  0  0  0  0  # atno 10763 bound_to 10752
  154.0917  135.6590  153.4857 H   0  0  0  0  0  0  0  0  0  0  0  0  # atno 10764 bound_to 10752
  153.0433  135.5221  154.7570 H   0  0  0  0  0  0  0  0  0  0  0  0  # atno 10765 bound_to 10752
  140.7873  134.3009  157.5025 H   0  0  0  0  0  0  0  0  0  0  0  0  # atno 11005 bound_to 11000
  146.3486  140.1679  142.8590 LP  0  0  0  0  0  0  0  0  0  0  0  0  # atno 17320 bound_to 7965
  145.0361  140.8909  143.5080 LP  0  0  0  0  0  0  0  0  0  0  0  0  # atno 17321 bound_to 7965
  139.5900  144.7546  151.3423 LP  0  0  0  0  0  0  0  0  0  0  0  0  # atno 17342 bound_to 10162
  140.7177  143.7221  150.7687 LP  0  0  0  0  0  0  0  0  0  0  0  0  # atno 17343 bound_to 10162
  157.5100  130.7932  149.7694 LP  0  0  0  0  0  0  0  0  0  0  0  0  # atno 17370 bound_to 10713
  156.0036  130.3867  150.2513 LP  0  0  0  0  0  0  0  0  0  0  0  0  # atno 17371 bound_to 10713
  139.8735  134.9354  156.3633 LP  0  0  0  0  0  0  0  0  0  0  0  0  # atno 17394 bound_to 11000
  140.9424  133.7506  156.0163 LP  0  0  0  0  0  0  0  0  0  0  0  0  # atno 17395 bound_to 11000

$$$$
