AV-unprocessed.smi:1963|AV-procd|sdf|7926|dock7
  -GOLD-   2272010 93D 1   1.00000     0.00000
 Structure written by MMmdl.
 47 48  0  0  0  0  0  0  0  0  1 V2000
  145.4888  136.1771  151.9831 C   0  0  0  0  0  0  0  0  0  0  0  0
  145.9545  135.5009  153.2676 C   0  0  0  0  0  0  0  0  0  0  0  0
  145.1581  135.2998  154.1843 O   0  0  0  0  0  0  0  0  0  0  0  0
  147.2498  135.1524  153.3198 N   0  0  0  0  0  0  0  0  0  0  0  0
  147.9094  134.5068  154.4574 C   0  0  2  0  0  0  0  0  0  0  0  0
  148.4393  135.5977  155.4089 C   0  0  0  0  0  0  0  0  0  0  0  0
  148.1835  135.5411  156.6125 O   0  0  0  0  0  0  0  0  0  0  0  0
  149.1741  136.5649  154.8297 N   0  0  0  0  0  0  0  0  0  0  0  0
  149.7630  137.7112  155.4273 C   0  0  0  0  0  0  0  0  0  0  0  0
  150.2849  138.7054  154.5761 C   0  0  0  0  0  0  0  0  0  0  0  0
  150.8452  139.8677  155.1389 C   0  0  0  0  0  0  0  0  0  0  0  0
  150.8551  140.0025  156.5460 C   0  0  0  0  0  0  0  0  0  0  0  0
  151.3927  141.1350  157.1724 N   0  0  0  0  0  0  0  0  0  0  0  0
  151.6253  140.9739  158.6023 C   0  0  0  0  0  0  0  0  0  0  0  0
  152.3374  142.2184  159.1594 C   0  0  0  0  0  0  0  0  0  0  0  0
  151.5645  143.3791  158.8654 O   0  0  0  0  0  0  0  0  0  0  0  0
  151.4017  143.5721  157.4627 C   0  0  0  0  0  0  0  0  0  0  0  0
  150.6739  142.3610  156.8529 C   0  0  0  0  0  0  0  0  0  0  0  0
  150.3522  139.0574  157.3690 N   0  0  0  0  0  0  0  0  0  0  0  0
  149.8173  137.9443  156.8231 C   0  0  0  0  0  0  0  0  0  0  0  0
  149.0887  133.6367  153.9300 C   0  0  0  0  0  0  0  0  0  0  0  0
  148.5888  132.3646  153.2171 C   0  0  0  0  0  0  0  0  0  0  0  0
  150.0856  133.2327  155.0366 C   0  0  0  0  0  0  0  0  0  0  0  0
  146.1752  136.9749  151.6974 H   0  0  0  0  0  0  0  0  0  0  0  0
  144.4972  136.6119  152.1126 H   0  0  0  0  0  0  0  0  0  0  0  0
  145.4418  135.4522  151.1703 H   0  0  0  0  0  0  0  0  0  0  0  0
  147.8297  135.3637  152.5206 H   0  0  0  0  0  0  0  0  0  0  0  0
  147.1948  133.8676  154.9808 H   0  0  0  0  0  0  0  0  0  0  0  0
  149.3787  136.4344  153.8494 H   0  0  0  0  0  0  0  0  0  0  0  0
  150.2597  138.5812  153.5032 H   0  0  0  0  0  0  0  0  0  0  0  0
  151.2566  140.6346  154.4996 H   0  0  0  0  0  0  0  0  0  0  0  0
  150.6773  140.8314  159.1224 H   0  0  0  0  0  0  0  0  0  0  0  0
  152.2296  140.0834  158.7801 H   0  0  0  0  0  0  0  0  0  0  0  0
  152.4554  142.1333  160.2397 H   0  0  0  0  0  0  0  0  0  0  0  0
  153.3380  142.3172  158.7353 H   0  0  0  0  0  0  0  0  0  0  0  0
  150.8252  144.4817  157.2938 H   0  0  0  0  0  0  0  0  0  0  0  0
  152.3748  143.7195  156.9910 H   0  0  0  0  0  0  0  0  0  0  0  0
  150.5986  142.4750  155.7707 H   0  0  0  0  0  0  0  0  0  0  0  0
  149.6569  142.3031  157.2435 H   0  0  0  0  0  0  0  0  0  0  0  0
  149.4056  137.2471  157.5358 H   0  0  0  0  0  0  0  0  0  0  0  0
  149.6448  134.2181  153.1923 H   0  0  0  0  0  0  0  0  0  0  0  0
  147.9985  131.7420  153.8900 H   0  0  0  0  0  0  0  0  0  0  0  0
  149.4234  131.7626  152.8571 H   0  0  0  0  0  0  0  0  0  0  0  0
  147.9699  132.5968  152.3504 H   0  0  0  0  0  0  0  0  0  0  0  0
  149.5855  132.6879  155.8379 H   0  0  0  0  0  0  0  0  0  0  0  0
  150.5828  134.0955  155.4796 H   0  0  0  0  0  0  0  0  0  0  0  0
  150.8710  132.5887  154.6404 H   0  0  0  0  0  0  0  0  0  0  0  0
  1  2  1  0  0  0  0
  1 24  1  0  0  0  0
  1 25  1  0  0  0  0
  1 26  1  0  0  0  0
  2  3  2  0  0  0  0
  2  4  1  0  0  0  0
  4  5  1  0  0  0  0
  4 27  1  0  0  0  0
  5  6  1  0  0  0  0
  5 21  1  0  0  0  0
  5 28  1  0  0  0  0
  6  7  2  0  0  0  0
  6  8  1  0  0  0  0
  8  9  1  0  0  0  0
  8 29  1  0  0  0  0
  9 20  1  0  0  0  0
  9 10  2  0  0  0  0
 10 11  1  0  0  0  0
 10 30  1  0  0  0  0
 11 12  2  0  0  0  0
 11 31  1  0  0  0  0
 12 13  1  0  0  0  0
 12 19  1  0  0  0  0
 13 18  1  0  0  0  0
 13 14  1  0  0  0  0
 14 15  1  0  0  0  0
 14 32  1  0  0  0  0
 14 33  1  0  0  0  0
 15 16  1  0  0  0  0
 15 34  1  0  0  0  0
 15 35  1  0  0  0  0
 16 17  1  0  0  0  0
 17 18  1  0  0  0  0
 17 36  1  0  0  0  0
 17 37  1  0  0  0  0
 18 38  1  0  0  0  0
 18 39  1  0  0  0  0
 19 20  2  0  0  0  0
 20 40  1  0  0  0  0
 21 22  1  0  0  0  0
 21 23  1  0  0  0  0
 21 41  1  0  0  0  0
 22 42  1  0  0  0  0
 22 43  1  0  0  0  0
 22 44  1  0  0  0  0
 23 45  1  0  0  0  0
 23 46  1  0  0  0  0
 23 47  1  0  0  0  0
M  END
> <s_m_source_file>
AV-unprocessed.smi

> <i_m_source_file_index>
1963

> <i_lp_mmshare_version>
43012

> <i_f3d_flags>
0

> <s_epik_input>
W0NIM11DKD1PKVtOSF1bQ0BASF0oW0NIXShbQ0gzXSlbQ0gzXSlDKD1PKVtOSF1jMVtjSF1bY0hdYyhuW2NIXTEpTjJbQ0gyXVtDSDJdT1tDSDJdW0NIMl0y

> <s_epik_cmdline>
J2VwaWtfcHl0aG9uJywgJy1waCcsICc3LjAnLCAnLXRuJywgJzgnLCAnLW1hJywgJzIwMCcsICctbWV0YWxfYmluZGluZycsICctaW1hZScsICc8aW5maWxlLm1hZT4nLCAnLW9tYWUnLCAnPG91dGZpbGUubWFlPic=

> <r_lp_tautomer_probability>
1

> <r_epik_Ionization_Penalty>
0.00051446

> <r_epik_Ionization_Penalty_Charging>
0

> <r_epik_Ionization_Penalty_Neutral>
0.00051446

> <r_epik_State_Penalty>
0.00031949

> <r_epik_Charging_Adjusted_Penalty>
0.00031949

> <i_epik_Tot_Q>
0

> <i_epik_Tot_abs_Q>
0

> <r_epik_Metal_State_Penalty>
-0

> <b_epik_Metal_Only>
0

> <s_lp_Force_Field>
OPLS_2005

> <r_lp_Energy>
27.6856

> <b_lp_Chiralities_Consistent>
1

> <s_lp_Variant>
AV-unprocessed.smi:1963-1

> <Gold.Version>
5.8.1

> <Gold.Id.Protein>
6NUR|6NUR_protein|mol2

> <Gold.PLP.Fitness>
37.0111

> <Gold.PLP.PLP>
-32.7898

> <Gold.PLP.part.hbond>
-1.7451

> <Gold.PLP.part.metal>
0.0000

> <Gold.PLP.part.buried>
-3.0087

> <Gold.PLP.part.nonpolar>
-28.3000

> <Gold.PLP.part.repulsive>
0.0981

> <Gold.PLP.ligand.clash>
0.0000

> <Gold.PLP.ligand.torsion>
0.9465

> <Gold.PLP.Chemscore.Hbond>
1.9913

> <Gold.PLP.Chemscore.CHOScore>
0.0000

> <Gold.PLP.Chemscore.Metal>
0.0000

> <Gold.Chemscore.Hbonds>
donor molecule, donor type, donor heavy atom, donor atom, acceptor molecule, acceptor atom, score
      L1  H     4    27       P1  7948  1.00
      L1  H     8    29       P1  7948  1.00

> <Gold.PLP.Chemscore.Internal.Correction>
0.1404

> <Gold.Rescore>
     Score         DG    S(hbond)    S(metal)    S(lipo)     H(rot)  DE(clash)    DE(int)     intcor
     14.76     -16.79       1.87        0.00      81.29       1.74       0.05       1.99       ----

> <Gold.Chemscore.Fitness>
14.7562

> <Gold.Chemscore.DG>
-16.7896

> <Gold.Chemscore.ZeroCoef>
-5.4800

> <Gold.Chemscore.Hbond>
1.8717

> <Gold.Chemscore.Metal>
0.0000

> <Gold.Chemscore.Lipo>
81.2908

> <Gold.Chemscore.Internal_Hbond>
0.0000

> <Gold.Chemscore.DEClash>
0.0478

> <Gold.Chemscore.DEInternal>
1.9856

> <Gold.Chemscore.Rot>
1.7394

> <Gold.Chemscore.Internal.Correction>
   9.000000E+99

> <Gold.Chemscore.Hbonds>
donor molecule, donor type, donor heavy atom, donor atom, acceptor molecule, acceptor atom, score
      L1  H     4    27       P1  7948  0.90
      L1  H     8    29       P1  7948  0.83

> <Gold.Chemscore.Hbond.Weighted>
-6.2514

> <Gold.Chemscore.Metal.Weighted>
-0.0000

> <Gold.Chemscore.Lipo.Weighted>
-9.5110

> <Gold.Chemscore.Internal_Hbond.Weighted>
0.0000

> <Gold.Chemscore.DEClash.Weighted>
0.0478

> <Gold.Chemscore.DEInternal.Weighted>
1.9856

> <Gold.Chemscore.Rot.Weighted>
4.4528

> <Gold.Chemscore.Internal.Correction.Weighted>
   9.000000E+99

> <Gold.Protein.RotatedTorsions>
[ 6907 6896 6895 6894 ] final  106.48 input  -60.11 | X-H torsion
[ 7974 7965 7964 7962 ] final   25.66 input  175.53 | X-H torsion
[ 8008 7997 7996 7995 ] final  144.21 input   59.86 | X-H torsion
[ 10167 10162 10161 10158 ] final  -53.59 input  -65.29 | X-H torsion
[ 10718 10713 10712 10709 ] final  -24.49 input   66.30 | X-H torsion
[ 10763 10752 10751 10750 ] final   77.12 input  -60.55 | X-H torsion
[ 11005 11000 10999 10996 ] final  -91.67 input  -57.11 | X-H torsion

> <Gold.Protein.ActiveResidues>
 VAL166  LYS551  ARG553  GLY616  TRP617  ASP618  TYR619  PRO620  LYS621  CYS622 
 ASP623  PHE694  ASN695  SER759  ASP760  ASP761  ALA762  ILE779  LEU786  VAL792 
 PHE793  MET794  SER795  GLU796  ALA797  LYS798  CYS799  TRP800  GLU811  SER814 

> <Gold.Protein.RotatedAtoms>
  152.5192  133.9374  159.7609 H   0  0  0  0  0  0  0  0  0  0  0  0  # atno 6907 bound_to 6896
  150.9712  133.6334  159.2744 H   0  0  0  0  0  0  0  0  0  0  0  0  # atno 6908 bound_to 6896
  151.3545  135.0897  159.9467 H   0  0  0  0  0  0  0  0  0  0  0  0  # atno 6909 bound_to 6896
  146.1877  139.7435  142.8854 H   0  0  0  0  0  0  0  0  0  0  0  0  # atno 7974 bound_to 7965
  156.2913  140.2242  156.5016 H   0  0  0  0  0  0  0  0  0  0  0  0  # atno 8008 bound_to 7997
  154.7684  140.0468  157.1053 H   0  0  0  0  0  0  0  0  0  0  0  0  # atno 8009 bound_to 7997
  154.9904  140.3089  155.4912 H   0  0  0  0  0  0  0  0  0  0  0  0  # atno 8010 bound_to 7997
  140.6476  143.2545  151.4814 H   0  0  0  0  0  0  0  0  0  0  0  0  # atno 10167 bound_to 10162
  156.4770  130.4537  149.6834 H   0  0  0  0  0  0  0  0  0  0  0  0  # atno 10718 bound_to 10713
  153.0775  135.4926  154.8435 H   0  0  0  0  0  0  0  0  0  0  0  0  # atno 10763 bound_to 10752
  154.7107  135.3019  154.9203 H   0  0  0  0  0  0  0  0  0  0  0  0  # atno 10764 bound_to 10752
  153.9898  135.6779  153.4806 H   0  0  0  0  0  0  0  0  0  0  0  0  # atno 10765 bound_to 10752
  141.1539  133.7771  156.9912 H   0  0  0  0  0  0  0  0  0  0  0  0  # atno 11005 bound_to 11000
  145.3888  141.0369  143.3136 LP  0  0  0  0  0  0  0  0  0  0  0  0  # atno 17320 bound_to 7965
  144.8428  139.5444  143.6892 LP  0  0  0  0  0  0  0  0  0  0  0  0  # atno 17321 bound_to 7965
  139.5688  144.1977  152.1806 LP  0  0  0  0  0  0  0  0  0  0  0  0  # atno 17342 bound_to 10162
  140.1267  144.5325  150.6828 LP  0  0  0  0  0  0  0  0  0  0  0  0  # atno 17343 bound_to 10162
  156.3560  130.7457  151.2423 LP  0  0  0  0  0  0  0  0  0  0  0  0  # atno 17370 bound_to 10713
  157.7486  131.0363  150.4405 LP  0  0  0  0  0  0  0  0  0  0  0  0  # atno 17371 bound_to 10713
  140.1001  134.9540  157.1911 LP  0  0  0  0  0  0  0  0  0  0  0  0  # atno 17394 bound_to 11000
  140.3329  134.2789  155.7225 LP  0  0  0  0  0  0  0  0  0  0  0  0  # atno 17395 bound_to 11000

$$$$
