AV-unprocessed.smi:53|AV-procd|sdf|527|dock2
  -GOLD-   2262016403D 1   1.00000     0.00000
 Structure written by MMmdl.
 30 31  0  0  0  0  0  0  0  0  1 V2000
  153.6601  138.8975  160.6463 N   0  0  0  0  0  0  0  0  0  0  0  0
  153.2600  138.9590  159.3685 C   0  0  0  0  0  0  0  0  0  0  0  0
  152.4683  140.0747  158.9042 C   0  0  0  0  0  0  0  0  0  0  0  0
  152.0985  140.0635  157.6045 C   0  0  0  0  0  0  0  0  0  0  0  0
  152.4362  139.0236  156.7451 N   0  0  0  0  0  0  0  0  0  0  0  0
  152.0492  139.0184  155.2748 C   0  0  2  0  0  0  0  0  0  0  0  0
  151.1793  140.0759  155.0056 O   0  0  0  0  0  0  0  0  0  0  0  0
  149.8360  139.6225  155.1103 C   0  0  1  0  0  0  0  0  0  0  0  0
  148.8969  140.5969  154.3842 C   0  0  0  0  0  0  0  0  0  0  0  0
  149.5505  141.1474  153.2605 O   0  0  0  0  0  0  0  0  0  0  0  0
  149.9190  138.2428  154.4560 C   0  0  2  0  0  0  0  0  0  0  0  0
  148.8878  137.4056  154.9403 O   0  0  0  0  0  0  0  0  0  0  0  0
  151.2873  137.7263  154.8955 C   0  0  1  0  0  0  0  0  0  0  0  0
  151.9157  137.0402  153.8318 O   0  0  0  0  0  0  0  0  0  0  0  0
  153.2452  137.9642  157.2249 C   0  0  0  0  0  0  0  0  0  0  0  0
  153.6175  137.0509  156.4886 O   0  0  0  0  0  0  0  0  0  0  0  0
  153.6066  137.9899  158.5447 N   0  0  0  0  0  0  0  0  0  0  0  0
  152.9883  139.1705  154.7386 H   0  0  0  0  0  0  0  0  0  0  0  0
  149.5564  139.5164  156.1606 H   0  0  0  0  0  0  0  0  0  0  0  0
  149.8617  138.3349  153.3698 H   0  0  0  0  0  0  0  0  0  0  0  0
  151.2017  137.0693  155.7628 H   0  0  0  0  0  0  0  0  0  0  0  0
  154.2177  138.1190  160.9665 H   0  0  0  0  0  0  0  0  0  0  0  0
  153.4025  139.6336  161.2879 H   0  0  0  0  0  0  0  0  0  0  0  0
  152.1695  140.8962  159.5395 H   0  0  0  0  0  0  0  0  0  0  0  0
  151.5206  140.9066  157.2574 H   0  0  0  0  0  0  0  0  0  0  0  0
  147.9702  140.1070  154.0845 H   0  0  0  0  0  0  0  0  0  0  0  0
  148.6293  141.4222  155.0445 H   0  0  0  0  0  0  0  0  0  0  0  0
  149.6861  140.4609  152.6255 H   0  0  0  0  0  0  0  0  0  0  0  0
  149.1683  136.5074  154.8538 H   0  0  0  0  0  0  0  0  0  0  0  0
  151.2719  136.8899  153.1556 H   0  0  0  0  0  0  0  0  0  0  0  0
  1  2  1  0  0  0  0
  1 22  1  0  0  0  0
  1 23  1  0  0  0  0
  2 17  2  0  0  0  0
  2  3  1  0  0  0  0
  3  4  2  0  0  0  0
  3 24  1  0  0  0  0
  4  5  1  0  0  0  0
  4 25  1  0  0  0  0
  5  6  1  0  0  0  0
  5 15  1  0  0  0  0
  6 18  1  0  0  0  0
  6 13  1  0  0  0  0
  6  7  1  0  0  0  0
  7  8  1  0  0  0  0
  8 19  1  0  0  0  0
  8  9  1  0  0  0  0
  8 11  1  0  0  0  0
  9 10  1  0  0  0  0
  9 26  1  0  0  0  0
  9 27  1  0  0  0  0
 10 28  1  0  0  0  0
 11 20  1  0  0  0  0
 11 12  1  0  0  0  0
 11 13  1  0  0  0  0
 12 29  1  0  0  0  0
 13 21  1  0  0  0  0
 13 14  1  0  0  0  0
 14 30  1  0  0  0  0
 15 16  2  0  0  0  0
 15 17  1  0  0  0  0
M  END
> <s_m_source_file>
AV-unprocessed.smi

> <i_m_source_file_index>
53

> <i_lp_mmshare_version>
43012

> <i_f3d_flags>
0

> <s_epik_input>
W05IMl1jMVtjSF1bY0hdbihjKD1PKW4xKVtDQEBIXTJPW0NASF0oW0NIMl1bT0hdKVtDQEBIXShbT0hdKVtDQEBIXTJbT0hd

> <s_epik_cmdline>
J2VwaWtfcHl0aG9uJywgJy1waCcsICc3LjAnLCAnLXRuJywgJzgnLCAnLW1hJywgJzIwMCcsICctbWV0YWxfYmluZGluZycsICctaW1hZScsICc8aW5maWxlLm1hZT4nLCAnLW9tYWUnLCAnPG91dGZpbGUubWFlPic=

> <r_lp_tautomer_probability>
0.99996

> <r_epik_Ionization_Penalty>
0.00069087

> <r_epik_Ionization_Penalty_Charging>
2.61959e-08

> <r_epik_Ionization_Penalty_Neutral>
0.000690844

> <r_epik_State_Penalty>
1.15523e-05

> <r_epik_Charging_Adjusted_Penalty>
1.15785e-05

> <i_epik_Tot_Q>
0

> <i_epik_Tot_abs_Q>
0

> <r_epik_Metal_State_Penalty>
-0

> <b_epik_Metal_Only>
0

> <s_epik_Chemistry_Notes>
This compound contains an acetal/aminal-like group ( X-CH(R)-Y where X, Y are N, S, or O) that may be acid/base labile, releasing an aldehyde.

> <s_lp_Force_Field>
OPLS_2005

> <r_lp_Energy>
26.1744

> <b_lp_Chiralities_Consistent>
1

> <s_lp_Variant>
AV-unprocessed.smi:53-15

> <Gold.Version>
5.8.1

> <Gold.Id.Protein>
6NUR|6NUR_protein|mol2

> <Gold.PLP.Fitness>
43.1332

> <Gold.PLP.PLP>
-28.0444

> <Gold.PLP.part.hbond>
-6.6705

> <Gold.PLP.part.metal>
0.0000

> <Gold.PLP.part.buried>
-4.1012

> <Gold.PLP.part.nonpolar>
-17.6850

> <Gold.PLP.part.repulsive>
0.0891

> <Gold.PLP.ligand.clash>
0.0000

> <Gold.PLP.ligand.torsion>
0.3073

> <Gold.PLP.Chemscore.Hbond>
5.2228

> <Gold.PLP.Chemscore.CHOScore>
0.0000

> <Gold.PLP.Chemscore.Metal>
0.0000

> <Gold.Chemscore.Hbonds>
donor molecule, donor type, donor heavy atom, donor atom, acceptor molecule, acceptor atom, score
      L1  H    10    28       P1  7957  0.90
      L1  H    14    30       P1  7949  0.75
      P1  H  7989  7998       L1     7  1.00
      P1  H  8011  8017       L1    10  0.95
      P1  H 10752 10763       L1    16  0.66
      P1  H 10752 10765       L1    14  0.98

> <Gold.PLP.Chemscore.Internal.Correction>
0.0350

> <Gold.Rescore>
     Score         DG    S(hbond)    S(metal)    S(lipo)     H(rot)  DE(clash)    DE(int)     intcor
     13.73     -15.17       4.38        0.00      38.84       3.71       0.11       1.33       ----

> <Gold.Chemscore.Fitness>
13.7251

> <Gold.Chemscore.DG>
-15.1695

> <Gold.Chemscore.ZeroCoef>
-5.4800

> <Gold.Chemscore.Hbond>
4.3836

> <Gold.Chemscore.Metal>
0.0000

> <Gold.Chemscore.Lipo>
38.8433

> <Gold.Chemscore.Internal_Hbond>
0.0000

> <Gold.Chemscore.DEClash>
0.1126

> <Gold.Chemscore.DEInternal>
1.3318

> <Gold.Chemscore.Rot>
3.7095

> <Gold.Chemscore.Internal.Correction>
   9.000000E+99

> <Gold.Chemscore.Hbonds>
donor molecule, donor type, donor heavy atom, donor atom, acceptor molecule, acceptor atom, score
      L1  H    10    28       P1  7957  0.83
      L1  H    14    30       P1  7949  0.49
      P1  H  7989  7998       L1     7  0.70
      P1  H  8011  8017       L1    10  0.21
      P1  H 10752 10763       L1    16  0.62
      P1  H 10752 10765       L1    14  0.73

> <Gold.Chemscore.Hbond.Weighted>
-14.6413

> <Gold.Chemscore.Metal.Weighted>
-0.0000

> <Gold.Chemscore.Lipo.Weighted>
-4.5447

> <Gold.Chemscore.Internal_Hbond.Weighted>
0.0000

> <Gold.Chemscore.DEClash.Weighted>
0.1126

> <Gold.Chemscore.DEInternal.Weighted>
1.3318

> <Gold.Chemscore.Rot.Weighted>
9.4964

> <Gold.Chemscore.Internal.Correction.Weighted>
   9.000000E+99

> <Gold.Protein.RotatedTorsions>
[ 6907 6896 6895 6894 ] final -143.91 input  -60.11 | X-H torsion
[ 7974 7965 7964 7962 ] final   41.88 input  175.53 | X-H torsion
[ 8008 7997 7996 7995 ] final   27.87 input   59.86 | X-H torsion
[ 10167 10162 10161 10158 ] final -115.75 input  -65.29 | X-H torsion
[ 10718 10713 10712 10709 ] final  110.61 input   66.30 | X-H torsion
[ 10763 10752 10751 10750 ] final  131.44 input  -60.55 | X-H torsion
[ 11005 11000 10999 10996 ] final  160.55 input  -57.11 | X-H torsion

> <Gold.Protein.ActiveResidues>
 VAL166  LYS551  ARG553  GLY616  TRP617  ASP618  TYR619  PRO620  LYS621  CYS622 
 ASP623  PHE694  ASN695  SER759  ASP760  ASP761  ALA762  ILE779  LEU786  VAL792 
 PHE793  MET794  SER795  GLU796  ALA797  LYS798  CYS799  TRP800  GLU811  SER814 

> <Gold.Protein.RotatedAtoms>
  151.1068  133.5202  159.2607 H   0  0  0  0  0  0  0  0  0  0  0  0  # atno 6907 bound_to 6896
  151.2012  135.0442  159.8883 H   0  0  0  0  0  0  0  0  0  0  0  0  # atno 6908 bound_to 6896
  152.5447  134.0896  159.8324 H   0  0  0  0  0  0  0  0  0  0  0  0  # atno 6909 bound_to 6896
  146.0786  139.5364  142.9551 H   0  0  0  0  0  0  0  0  0  0  0  0  # atno 7974 bound_to 7965
  155.0497  140.3178  155.4696 H   0  0  0  0  0  0  0  0  0  0  0  0  # atno 8008 bound_to 7997
  156.2837  140.2148  156.5567 H   0  0  0  0  0  0  0  0  0  0  0  0  # atno 8009 bound_to 7997
  154.7220  140.0488  157.0636 H   0  0  0  0  0  0  0  0  0  0  0  0  # atno 8010 bound_to 7997
  140.0866  143.4738  152.1894 H   0  0  0  0  0  0  0  0  0  0  0  0  # atno 10167 bound_to 10162
  157.6486  131.0936  150.6627 H   0  0  0  0  0  0  0  0  0  0  0  0  # atno 10718 bound_to 10713
  153.7744  135.3177  155.3357 H   0  0  0  0  0  0  0  0  0  0  0  0  # atno 10763 bound_to 10752
  154.8184  135.4620  154.0712 H   0  0  0  0  0  0  0  0  0  0  0  0  # atno 10764 bound_to 10752
  153.1982  135.6918  153.8350 H   0  0  0  0  0  0  0  0  0  0  0  0  # atno 10765 bound_to 10752
  140.2070  134.8295  157.3080 H   0  0  0  0  0  0  0  0  0  0  0  0  # atno 11005 bound_to 11000
  145.6259  141.0313  143.1889 LP  0  0  0  0  0  0  0  0  0  0  0  0  # atno 17320 bound_to 7965
  144.7278  139.7819  143.7358 LP  0  0  0  0  0  0  0  0  0  0  0  0  # atno 17321 bound_to 7965
  139.5748  144.7482  151.3793 LP  0  0  0  0  0  0  0  0  0  0  0  0  # atno 17342 bound_to 10162
  140.7050  143.7536  150.7467 LP  0  0  0  0  0  0  0  0  0  0  0  0  # atno 17343 bound_to 10162
  156.6941  130.4604  149.5591 LP  0  0  0  0  0  0  0  0  0  0  0  0  # atno 17370 bound_to 10713
  156.1841  130.6518  151.0986 LP  0  0  0  0  0  0  0  0  0  0  0  0  # atno 17371 bound_to 10713
  140.1992  134.4276  155.7672 LP  0  0  0  0  0  0  0  0  0  0  0  0  # atno 17394 bound_to 11000
  141.2227  133.7064  156.8155 LP  0  0  0  0  0  0  0  0  0  0  0  0  # atno 17395 bound_to 11000

$$$$
