AV-unprocessed.smi:3164|AV-procd|sdf|12084|dock3
  -GOLD-   2272017513D 1   1.00000     0.00000
 Structure written by MMmdl.
 39 40  0  0  0  0  0  0  0  0  2 V2000
  152.8798  138.8933  154.8128 C   0  0  0  0  0  0  0  0  0  0  0  0
  151.6507  139.6667  154.7192 N   0  0  0  0  0  0  0  0  0  0  0  0
  151.3652  140.3726  155.9614 C   0  0  0  0  0  0  0  0  0  0  0  0
  150.0592  141.1792  155.8685 C   0  0  0  0  0  0  0  0  0  0  0  0
  148.9897  140.3134  155.4983 O   0  0  0  0  0  0  0  0  0  0  0  0
  149.2090  139.6487  154.2562 C   0  0  2  0  0  0  0  0  0  0  0  0
  147.9793  138.7751  153.9665 C   0  0  0  0  0  0  0  0  0  0  0  0
  147.8761  138.4456  152.5310 N   0  3  0  0  0  0  0  0  0  0  0  0
  146.4994  138.4963  151.9986 C   0  0  0  0  0  0  0  0  0  0  0  0
  145.4978  137.8250  152.9517 C   0  0  0  0  0  0  0  0  0  0  0  0
  145.0007  136.4837  152.4415 C   0  0  0  0  0  0  0  0  0  0  0  0
  145.3262  136.0398  151.1416 C   0  0  0  0  0  0  0  0  0  0  0  0
  144.8344  134.7902  150.7169 C   0  0  0  0  0  0  0  0  0  0  0  0
  144.0384  134.0383  151.6023 C   0  0  0  0  0  0  0  0  0  0  0  0
  143.7694  134.5704  152.8791 C   0  0  0  0  0  0  0  0  0  0  0  0
  144.2358  135.7677  153.2957 N   0  0  0  0  0  0  0  0  0  0  0  0
  150.5138  138.8301  154.3592 C   0  0  0  0  0  0  0  0  0  0  0  0
  153.7257  139.5401  155.0482 H   0  0  0  0  0  0  0  0  0  0  0  0
  153.0965  138.3951  153.8674 H   0  0  0  0  0  0  0  0  0  0  0  0
  152.8086  138.1310  155.5901 H   0  0  0  0  0  0  0  0  0  0  0  0
  151.2887  139.6590  156.7834 H   0  0  0  0  0  0  0  0  0  0  0  0
  152.1901  141.0429  156.2056 H   0  0  0  0  0  0  0  0  0  0  0  0
  149.8290  141.6406  156.8289 H   0  0  0  0  0  0  0  0  0  0  0  0
  150.1533  141.9853  155.1393 H   0  0  0  0  0  0  0  0  0  0  0  0
  149.3041  140.4036  153.4729 H   0  0  0  0  0  0  0  0  0  0  0  0
  148.0146  137.8592  154.5581 H   0  0  0  0  0  0  0  0  0  0  0  0
  147.0761  139.3111  154.2616 H   0  0  0  0  0  0  0  0  0  0  0  0
  148.4422  139.1015  152.0111 H   0  0  0  0  0  0  0  0  0  0  0  0
  146.2165  139.5382  151.8452 H   0  0  0  0  0  0  0  0  0  0  0  0
  146.4699  138.0106  151.0221 H   0  0  0  0  0  0  0  0  0  0  0  0
  145.9505  137.6947  153.9357 H   0  0  0  0  0  0  0  0  0  0  0  0
  144.6389  138.4812  153.0998 H   0  0  0  0  0  0  0  0  0  0  0  0
  145.9395  136.6382  150.4839 H   0  0  0  0  0  0  0  0  0  0  0  0
  145.0632  134.4153  149.7301 H   0  0  0  0  0  0  0  0  0  0  0  0
  143.6447  133.0756  151.3110 H   0  0  0  0  0  0  0  0  0  0  0  0
  143.1630  134.0208  153.5838 H   0  0  0  0  0  0  0  0  0  0  0  0
  150.7129  138.3353  153.4080 H   0  0  0  0  0  0  0  0  0  0  0  0
  150.3895  138.0397  155.1015 H   0  0  0  0  0  0  0  0  0  0  0  0
  148.2430  137.5158  152.3859 H   0  0  0  0  0  0  0  0  0  0  0  0
  1  2  1  0  0  0  0
  1 18  1  0  0  0  0
  1 19  1  0  0  0  0
  1 20  1  0  0  0  0
  2 17  1  0  0  0  0
  2  3  1  0  0  0  0
  3  4  1  0  0  0  0
  3 21  1  0  0  0  0
  3 22  1  0  0  0  0
  4  5  1  0  0  0  0
  4 23  1  0  0  0  0
  4 24  1  0  0  0  0
  5  6  1  0  0  0  0
  6  7  1  0  0  0  0
  6 17  1  0  0  0  0
  6 25  1  0  0  0  0
  7  8  1  0  0  0  0
  7 26  1  0  0  0  0
  7 27  1  0  0  0  0
  8  9  1  0  0  0  0
  8 28  1  0  0  0  0
  8 39  1  0  0  0  0
  9 10  1  0  0  0  0
  9 29  1  0  0  0  0
  9 30  1  0  0  0  0
 10 11  1  0  0  0  0
 10 31  1  0  0  0  0
 10 32  1  0  0  0  0
 11 16  1  0  0  0  0
 11 12  2  0  0  0  0
 12 13  1  0  0  0  0
 12 33  1  0  0  0  0
 13 14  2  0  0  0  0
 13 34  1  0  0  0  0
 14 15  1  0  0  0  0
 14 35  1  0  0  0  0
 15 16  2  0  0  0  0
 15 36  1  0  0  0  0
 17 37  1  0  0  0  0
 17 38  1  0  0  0  0
M  CHG  1   8   1
M  END
> <s_m_source_file>
AV-unprocessed.smi

> <i_m_source_file_index>
3164

> <i_lp_mmshare_version>
43012

> <i_f3d_flags>
0

> <s_epik_input>
W0NIM11OMVtDSDJdW0NIMl1PW0NASF0oW0NIMl0xKVtDSDJdW05IXVtDSDJdW0NIMl1jMltjSF1bY0hdW2NIXVtjSF1uMg==

> <s_epik_cmdline>
J2VwaWtfcHl0aG9uJywgJy1waCcsICc3LjAnLCAnLXRuJywgJzgnLCAnLW1hJywgJzIwMCcsICctbWV0YWxfYmluZGluZycsICctaW1hZScsICc8aW5maWxlLm1hZT4nLCAnLW9tYWUnLCAnPG91dGZpbGUubWFlPic=

> <r_epik_Ionization_Penalty>
0.584284

> <r_epik_Ionization_Penalty_Charging>
0.00270218

> <r_epik_Ionization_Penalty_Neutral>
0.581582

> <r_epik_State_Penalty>
0.593163

> <r_epik_Charging_Adjusted_Penalty>
0.595865

> <i_epik_Tot_Q>
1

> <i_epik_Tot_abs_Q>
1

> <r_epik_Metal_State_Penalty>
0.593163

> <b_epik_Metal_Only>
0

> <s_lp_Force_Field>
OPLS_2005

> <r_lp_Energy>
23.4824

> <b_lp_Chiralities_Consistent>
1

> <s_lp_Variant>
AV-unprocessed.smi:3164-6

> <Gold.Version>
5.8.1

> <Gold.Id.Protein>
6NUR|6NUR_protein|mol2

> <Gold.PLP.Fitness>
47.9971

> <Gold.PLP.PLP>
-34.8864

> <Gold.PLP.part.hbond>
-2.9746

> <Gold.PLP.part.metal>
0.0000

> <Gold.PLP.part.buried>
-3.8671

> <Gold.PLP.part.nonpolar>
-29.6682

> <Gold.PLP.part.repulsive>
0.2504

> <Gold.PLP.ligand.clash>
0.0000

> <Gold.PLP.ligand.torsion>
0.9353

> <Gold.PLP.Chemscore.Hbond>
4.0000

> <Gold.PLP.Chemscore.CHOScore>
0.9838

> <Gold.PLP.Chemscore.Metal>
0.0000

> <Gold.Chemscore.Hbonds>
donor molecule, donor type, donor heavy atom, donor atom, acceptor molecule, acceptor atom, score
      L1  H     8    28       P1  7957  1.00
      L1  H     8    39       P1  7948  2.00
      P1  H  7989  7998       L1     2  1.00
      L1  C    15    36       P1 10957  0.82

> <Gold.PLP.Chemscore.Internal.Correction>
0.0299

> <Gold.Rescore>
     Score         DG    S(hbond)    S(metal)    S(lipo)     H(rot)  DE(clash)    DE(int)     intcor
     17.29     -18.42       2.25        0.00      80.71       1.57       0.01       1.13       ----

> <Gold.Chemscore.Fitness>
17.2879

> <Gold.Chemscore.DG>
-18.4245

> <Gold.Chemscore.ZeroCoef>
-5.4800

> <Gold.Chemscore.Hbond>
2.2537

> <Gold.Chemscore.Metal>
0.0000

> <Gold.Chemscore.Lipo>
80.7093

> <Gold.Chemscore.Internal_Hbond>
0.0000

> <Gold.Chemscore.DEClash>
0.0092

> <Gold.Chemscore.DEInternal>
1.1275

> <Gold.Chemscore.Rot>
1.5726

> <Gold.Chemscore.Internal.Correction>
   9.000000E+99

> <Gold.Chemscore.Hbonds>
donor molecule, donor type, donor heavy atom, donor atom, acceptor molecule, acceptor atom, score
      L1  H     8    28       P1  7957  0.99
      L1  H     8    39       P1  7948  0.94
      P1  H  7989  7998       L1     2  0.19

> <Gold.Chemscore.Hbond.Weighted>
-7.5274

> <Gold.Chemscore.Metal.Weighted>
-0.0000

> <Gold.Chemscore.Lipo.Weighted>
-9.4430

> <Gold.Chemscore.Internal_Hbond.Weighted>
0.0000

> <Gold.Chemscore.DEClash.Weighted>
0.0092

> <Gold.Chemscore.DEInternal.Weighted>
1.1275

> <Gold.Chemscore.Rot.Weighted>
4.0259

> <Gold.Chemscore.Internal.Correction.Weighted>
   9.000000E+99

> <Gold.Protein.RotatedTorsions>
[ 6907 6896 6895 6894 ] final  -40.91 input  -60.11 | X-H torsion
[ 7974 7965 7964 7962 ] final -107.56 input  175.53 | X-H torsion
[ 8008 7997 7996 7995 ] final   -1.59 input   59.86 | X-H torsion
[ 10167 10162 10161 10158 ] final  139.64 input  -65.29 | X-H torsion
[ 10718 10713 10712 10709 ] final  -30.87 input   66.30 | X-H torsion
[ 10763 10752 10751 10750 ] final  -92.01 input  -60.55 | X-H torsion
[ 11005 11000 10999 10996 ] final  -95.70 input  -57.11 | X-H torsion

> <Gold.Protein.ActiveResidues>
 VAL166  LYS551  ARG553  GLY616  TRP617  ASP618  TYR619  PRO620  LYS621  CYS622 
 ASP623  PHE694  ASN695  SER759  ASP760  ASP761  ALA762  ILE779  LEU786  VAL792 
 PHE793  MET794  SER795  GLU796  ALA797  LYS798  CYS799  TRP800  GLU811  SER814 

> <Gold.Protein.RotatedAtoms>
  150.9729  134.9098  159.7798 H   0  0  0  0  0  0  0  0  0  0  0  0  # atno 6907 bound_to 6896
  152.5196  134.3516  159.9263 H   0  0  0  0  0  0  0  0  0  0  0  0  # atno 6908 bound_to 6896
  151.3525  133.3879  159.2716 H   0  0  0  0  0  0  0  0  0  0  0  0  # atno 6909 bound_to 6896
  145.2038  140.9067  143.3354 H   0  0  0  0  0  0  0  0  0  0  0  0  # atno 7974 bound_to 7965
  154.6451  140.2555  155.7277 H   0  0  0  0  0  0  0  0  0  0  0  0  # atno 8008 bound_to 7997
  156.2548  140.2879  156.0782 H   0  0  0  0  0  0  0  0  0  0  0  0  # atno 8009 bound_to 7997
  155.1536  140.0383  157.2817 H   0  0  0  0  0  0  0  0  0  0  0  0  # atno 8010 bound_to 7997
  139.5073  144.6282  151.5883 H   0  0  0  0  0  0  0  0  0  0  0  0  # atno 10167 bound_to 10162
  156.3944  130.4379  149.7370 H   0  0  0  0  0  0  0  0  0  0  0  0  # atno 10718 bound_to 10713
  154.6818  135.5247  153.8274 H   0  0  0  0  0  0  0  0  0  0  0  0  # atno 10763 bound_to 10752
  153.0570  135.6554  154.0563 H   0  0  0  0  0  0  0  0  0  0  0  0  # atno 10764 bound_to 10752
  154.0449  135.2974  155.3329 H   0  0  0  0  0  0  0  0  0  0  0  0  # atno 10765 bound_to 10752
  141.1434  133.8044  157.0470 H   0  0  0  0  0  0  0  0  0  0  0  0  # atno 11005 bound_to 11000
  144.9922  139.3678  143.6209 LP  0  0  0  0  0  0  0  0  0  0  0  0  # atno 17320 bound_to 7965
  146.3412  139.9110  142.8780 LP  0  0  0  0  0  0  0  0  0  0  0  0  # atno 17321 bound_to 7965
  140.6006  143.9616  150.6384 LP  0  0  0  0  0  0  0  0  0  0  0  0  # atno 17342 bound_to 10162
  140.2826  143.3379  152.1137 LP  0  0  0  0  0  0  0  0  0  0  0  0  # atno 17343 bound_to 10162
  156.4410  130.7861  151.2882 LP  0  0  0  0  0  0  0  0  0  0  0  0  # atno 17370 bound_to 10713
  157.7501  131.0125  150.3386 LP  0  0  0  0  0  0  0  0  0  0  0  0  # atno 17371 bound_to 10713
  140.0656  134.9731  157.1380 LP  0  0  0  0  0  0  0  0  0  0  0  0  # atno 17394 bound_to 11000
  140.3785  134.2313  155.7172 LP  0  0  0  0  0  0  0  0  0  0  0  0  # atno 17395 bound_to 11000

$$$$
