AV-unprocessed.smi:183|AV-procd|sdf|1460|dock5
  -GOLD-   2262019273D 1   1.00000     0.00000
 Structure written by MMmdl.
 55 57  0  0  0  0  0  0  0  0  1 V2000
  138.8124  138.1962  152.5499 C   0  0  0  0  0  0  0  0  0  0  0  0
  140.0345  137.5558  153.1985 C   0  0  0  0  0  0  0  0  0  0  0  0
  139.9099  136.5386  153.8807 O   0  0  0  0  0  0  0  0  0  0  0  0
  141.2118  138.1609  152.9764 N   0  0  0  0  0  0  0  0  0  0  0  0
  142.4880  137.7038  153.5108 C   0  0  0  0  0  0  0  0  0  0  0  0
  143.3514  137.0463  152.4142 C   0  0  0  0  0  0  0  0  0  0  0  0
  144.2453  136.0005  152.9209 N   0  0  0  0  0  0  0  0  0  0  0  0
  145.0651  136.4848  153.8875 C   0  0  0  0  0  0  0  0  0  0  0  0
  144.9368  135.9499  155.1280 N   0  0  0  0  0  0  0  0  0  0  0  0
  145.6854  136.4052  156.1363 C   0  0  0  0  0  0  0  0  0  0  0  0
  146.5972  137.3790  156.1251 N   0  0  0  0  0  0  0  0  0  0  0  0
  146.7222  137.9276  154.8829 C   0  0  0  0  0  0  0  0  0  0  0  0
  146.0101  137.5375  153.7134 C   0  0  0  0  0  0  0  0  0  0  0  0
  146.4111  138.3186  152.6356 N   0  0  0  0  0  0  0  0  0  0  0  0
  147.3038  139.1252  153.1394 C   0  0  0  0  0  0  0  0  0  0  0  0
  147.5377  138.9732  154.4871 N   0  0  0  0  0  0  0  0  0  0  0  0
  148.4584  139.7489  155.3026 C   0  0  0  0  0  0  0  0  0  0  0  0
  149.9193  139.7564  154.7712 C   0  0  2  0  0  0  0  0  0  0  0  0
  149.9759  140.4563  153.5427 O   0  0  0  0  0  0  0  0  0  0  0  0
  150.5156  138.3675  154.5739 C   0  0  0  0  0  0  0  0  0  0  0  0
  150.9926  138.0087  155.9779 C   0  0  0  0  0  0  0  0  0  0  0  0
  151.3262  139.2466  156.5997 O   0  0  0  0  0  0  0  0  0  0  0  0
  150.9446  140.3367  155.7641 C   0  0  2  0  0  0  0  0  0  0  0  0
  150.4881  141.5368  156.6069 C   0  0  0  0  0  0  0  0  0  0  0  0
  144.7762  134.9789  152.0027 C   0  0  0  0  0  0  0  0  0  0  0  0
  145.5865  135.6115  150.8549 C   0  0  0  0  0  0  0  0  0  0  0  0
  143.6655  134.0961  151.3925 C   0  0  0  0  0  0  0  0  0  0  0  0
  138.8953  138.1581  151.4634 H   0  0  0  0  0  0  0  0  0  0  0  0
  138.7201  139.2390  152.8547 H   0  0  0  0  0  0  0  0  0  0  0  0
  137.9006  137.6736  152.8418 H   0  0  0  0  0  0  0  0  0  0  0  0
  141.2237  138.9914  152.4021 H   0  0  0  0  0  0  0  0  0  0  0  0
  143.0137  138.5522  153.9490 H   0  0  0  0  0  0  0  0  0  0  0  0
  142.2921  137.0127  154.3301 H   0  0  0  0  0  0  0  0  0  0  0  0
  142.7013  136.6155  151.6507 H   0  0  0  0  0  0  0  0  0  0  0  0
  143.9317  137.8049  151.8897 H   0  0  0  0  0  0  0  0  0  0  0  0
  145.5263  135.9251  157.0904 H   0  0  0  0  0  0  0  0  0  0  0  0
  147.8082  139.8702  152.5414 H   0  0  0  0  0  0  0  0  0  0  0  0
  148.0720  140.7667  155.3669 H   0  0  0  0  0  0  0  0  0  0  0  0
  148.4259  139.3481  156.3164 H   0  0  0  0  0  0  0  0  0  0  0  0
  149.9208  139.8307  152.8370 H   0  0  0  0  0  0  0  0  0  0  0  0
  149.8358  137.6304  154.1486 H   0  0  0  0  0  0  0  0  0  0  0  0
  151.3826  138.4200  153.9128 H   0  0  0  0  0  0  0  0  0  0  0  0
  150.1916  137.5360  156.5474 H   0  0  0  0  0  0  0  0  0  0  0  0
  151.8443  137.3284  155.9638 H   0  0  0  0  0  0  0  0  0  0  0  0
  151.8429  140.6237  155.2138 H   0  0  0  0  0  0  0  0  0  0  0  0
  150.1650  142.3613  155.9707 H   0  0  0  0  0  0  0  0  0  0  0  0
  151.3039  141.9002  157.2317 H   0  0  0  0  0  0  0  0  0  0  0  0
  149.6626  141.2762  157.2692 H   0  0  0  0  0  0  0  0  0  0  0  0
  145.4526  134.3352  152.5650 H   0  0  0  0  0  0  0  0  0  0  0  0
  145.9413  134.8499  150.1602 H   0  0  0  0  0  0  0  0  0  0  0  0
  146.4688  136.1372  151.2184 H   0  0  0  0  0  0  0  0  0  0  0  0
  144.9825  136.3203  150.2874 H   0  0  0  0  0  0  0  0  0  0  0  0
  144.0831  133.3766  150.6878 H   0  0  0  0  0  0  0  0  0  0  0  0
  142.9346  134.6992  150.8529 H   0  0  0  0  0  0  0  0  0  0  0  0
  143.1290  133.5179  152.1439 H   0  0  0  0  0  0  0  0  0  0  0  0
  1  2  1  0  0  0  0
  1 28  1  0  0  0  0
  1 29  1  0  0  0  0
  1 30  1  0  0  0  0
  2  3  2  0  0  0  0
  2  4  1  0  0  0  0
  4  5  1  0  0  0  0
  4 31  1  0  0  0  0
  5  6  1  0  0  0  0
  5 32  1  0  0  0  0
  5 33  1  0  0  0  0
  6  7  1  0  0  0  0
  6 34  1  0  0  0  0
  6 35  1  0  0  0  0
  7  8  1  0  0  0  0
  7 25  1  0  0  0  0
  8 13  1  0  0  0  0
  8  9  2  0  0  0  0
  9 10  1  0  0  0  0
 10 11  2  0  0  0  0
 10 36  1  0  0  0  0
 11 12  1  0  0  0  0
 12 16  1  0  0  0  0
 12 13  2  0  0  0  0
 13 14  1  0  0  0  0
 14 15  2  0  0  0  0
 15 16  1  0  0  0  0
 15 37  1  0  0  0  0
 16 17  1  0  0  0  0
 17 18  1  0  0  0  0
 17 38  1  0  0  0  0
 17 39  1  0  0  0  0
 18 23  1  0  0  0  0
 18 19  1  0  0  0  0
 18 20  1  0  0  0  0
 19 40  1  0  0  0  0
 20 21  1  0  0  0  0
 20 41  1  0  0  0  0
 20 42  1  0  0  0  0
 21 22  1  0  0  0  0
 21 43  1  0  0  0  0
 21 44  1  0  0  0  0
 22 23  1  0  0  0  0
 23 24  1  0  0  0  0
 23 45  1  0  0  0  0
 24 46  1  0  0  0  0
 24 47  1  0  0  0  0
 24 48  1  0  0  0  0
 25 26  1  0  0  0  0
 25 27  1  0  0  0  0
 25 49  1  0  0  0  0
 26 50  1  0  0  0  0
 26 51  1  0  0  0  0
 26 52  1  0  0  0  0
 27 53  1  0  0  0  0
 27 54  1  0  0  0  0
 27 55  1  0  0  0  0
M  END
> <s_m_source_file>
AV-unprocessed.smi

> <i_m_source_file_index>
183

> <i_lp_mmshare_version>
43012

> <i_f3d_flags>
0

> <s_epik_input>
W0NIM11DKD1PKVtOSF1bQ0gyXVtDSDJdTihbQ0hdKFtDSDNdKVtDSDNdKWMobltjSF1uMSljKGMxMiluW2NIXW4yW0NIMl1bQ0BAXTMoW09IXSlbQ0gyXVtDSDJdT1tDQEhdM1tDSDNd

> <s_epik_cmdline>
J2VwaWtfcHl0aG9uJywgJy1waCcsICc3LjAnLCAnLXRuJywgJzgnLCAnLW1hJywgJzIwMCcsICctbWV0YWxfYmluZGluZycsICctaW1hZScsICc8aW5maWxlLm1hZT4nLCAnLW9tYWUnLCAnPG91dGZpbGUubWFlPic=

> <r_lp_tautomer_probability>
1

> <r_epik_Ionization_Penalty>
0.00156158

> <r_epik_Ionization_Penalty_Charging>
0

> <r_epik_Ionization_Penalty_Neutral>
0.00156158

> <r_epik_State_Penalty>
0.000865808

> <r_epik_Charging_Adjusted_Penalty>
0.000865808

> <i_epik_Tot_Q>
0

> <i_epik_Tot_abs_Q>
0

> <r_epik_Metal_State_Penalty>
-0

> <b_epik_Metal_Only>
0

> <s_lp_Force_Field>
OPLS_2005

> <r_lp_Energy>
30.6117

> <b_lp_Chiralities_Consistent>
1

> <s_lp_Variant>
AV-unprocessed.smi:183-4

> <Gold.Version>
5.8.1

> <Gold.Id.Protein>
6NUR|6NUR_protein|mol2

> <Gold.PLP.Fitness>
48.5289

> <Gold.PLP.PLP>
-38.4068

> <Gold.PLP.part.hbond>
-3.5731

> <Gold.PLP.part.metal>
0.0000

> <Gold.PLP.part.buried>
-6.9425

> <Gold.PLP.part.nonpolar>
-28.4431

> <Gold.PLP.part.repulsive>
0.4879

> <Gold.PLP.ligand.clash>
0.0000

> <Gold.PLP.ligand.torsion>
1.0319

> <Gold.PLP.Chemscore.Hbond>
2.7780

> <Gold.PLP.Chemscore.CHOScore>
0.9397

> <Gold.PLP.Chemscore.Metal>
0.0000

> <Gold.Chemscore.Hbonds>
donor molecule, donor type, donor heavy atom, donor atom, acceptor molecule, acceptor atom, score
      L1  H     4    31       P1 10160  0.37
      L1  H    19    40       P1  7957  0.62
      P1  H  7989  7998       L1    19  0.53
      P1  H  8011  8017       L1    19  0.31
      L1  C    15    37       P1  7957  1.00

> <Gold.PLP.Chemscore.Internal.Correction>
1.0328

> <Gold.Rescore>
     Score         DG    S(hbond)    S(metal)    S(lipo)     H(rot)  DE(clash)    DE(int)     intcor
     10.78     -11.84       1.96        0.00      73.78       3.45       0.02       1.03       ----

> <Gold.Chemscore.Fitness>
10.7833

> <Gold.Chemscore.DG>
-11.8375

> <Gold.Chemscore.ZeroCoef>
-5.4800

> <Gold.Chemscore.Hbond>
1.9593

> <Gold.Chemscore.Metal>
0.0000

> <Gold.Chemscore.Lipo>
73.7834

> <Gold.Chemscore.Internal_Hbond>
0.0000

> <Gold.Chemscore.DEClash>
0.0228

> <Gold.Chemscore.DEInternal>
1.0314

> <Gold.Chemscore.Rot>
3.4451

> <Gold.Chemscore.Internal.Correction>
   9.000000E+99

> <Gold.Chemscore.Hbonds>
donor molecule, donor type, donor heavy atom, donor atom, acceptor molecule, acceptor atom, score
      L1  H     4    31       P1 10160  0.37
      L1  H    19    40       P1  7957  0.64
      P1  H  7989  7998       L1    19  0.06
      P1  H  8011  8017       L1    19  0.07

> <Gold.Chemscore.Hbond.Weighted>
-6.5442

> <Gold.Chemscore.Metal.Weighted>
-0.0000

> <Gold.Chemscore.Lipo.Weighted>
-8.6327

> <Gold.Chemscore.Internal_Hbond.Weighted>
0.0000

> <Gold.Chemscore.DEClash.Weighted>
0.0228

> <Gold.Chemscore.DEInternal.Weighted>
1.0314

> <Gold.Chemscore.Rot.Weighted>
8.8194

> <Gold.Chemscore.Internal.Correction.Weighted>
   9.000000E+99

> <Gold.Protein.RotatedTorsions>
[ 6907 6896 6895 6894 ] final  109.94 input  -60.11 | X-H torsion
[ 7974 7965 7964 7962 ] final  -81.98 input  175.53 | X-H torsion
[ 8008 7997 7996 7995 ] final -137.23 input   59.86 | X-H torsion
[ 10167 10162 10161 10158 ] final -132.91 input  -65.29 | X-H torsion
[ 10718 10713 10712 10709 ] final   33.54 input   66.30 | X-H torsion
[ 10763 10752 10751 10750 ] final   70.70 input  -60.55 | X-H torsion
[ 11005 11000 10999 10996 ] final   64.32 input  -57.11 | X-H torsion

> <Gold.Protein.ActiveResidues>
 VAL166  LYS551  ARG553  GLY616  TRP617  ASP618  TYR619  PRO620  LYS621  CYS622 
 ASP623  PHE694  ASN695  SER759  ASP760  ASP761  ALA762  ILE779  LEU786  VAL792 
 PHE793  MET794  SER795  GLU796  ALA797  LYS798  CYS799  TRP800  GLU811  SER814 

> <Gold.Protein.RotatedAtoms>
  152.5043  133.8872  159.7375 H   0  0  0  0  0  0  0  0  0  0  0  0  # atno 6907 bound_to 6896
  150.9319  133.6748  159.2815 H   0  0  0  0  0  0  0  0  0  0  0  0  # atno 6908 bound_to 6896
  151.4089  135.0987  159.9631 H   0  0  0  0  0  0  0  0  0  0  0  0  # atno 6909 bound_to 6896
  145.5394  140.9511  143.1559 H   0  0  0  0  0  0  0  0  0  0  0  0  # atno 7974 bound_to 7965
  155.4083  140.0510  157.3033 H   0  0  0  0  0  0  0  0  0  0  0  0  # atno 8008 bound_to 7997
  154.4958  140.2138  155.9410 H   0  0  0  0  0  0  0  0  0  0  0  0  # atno 8009 bound_to 7997
  156.1403  140.3155  155.8491 H   0  0  0  0  0  0  0  0  0  0  0  0  # atno 8010 bound_to 7997
  139.9037  143.6577  152.2590 H   0  0  0  0  0  0  0  0  0  0  0  0  # atno 10167 bound_to 10162
  157.2991  130.7341  149.6656 H   0  0  0  0  0  0  0  0  0  0  0  0  # atno 10718 bound_to 10713
  153.0356  135.5164  154.7481 H   0  0  0  0  0  0  0  0  0  0  0  0  # atno 10763 bound_to 10752
  154.6460  135.2918  155.0048 H   0  0  0  0  0  0  0  0  0  0  0  0  # atno 10764 bound_to 10752
  154.0949  135.6645  153.4911 H   0  0  0  0  0  0  0  0  0  0  0  0  # atno 10765 bound_to 10752
  139.9967  134.6507  155.9999 H   0  0  0  0  0  0  0  0  0  0  0  0  # atno 11005 bound_to 11000
  144.7584  139.7016  143.7244 LP  0  0  0  0  0  0  0  0  0  0  0  0  # atno 17320 bound_to 7965
  146.1991  139.5275  142.9755 LP  0  0  0  0  0  0  0  0  0  0  0  0  # atno 17321 bound_to 7965
  139.7003  144.7636  151.1285 LP  0  0  0  0  0  0  0  0  0  0  0  0  # atno 17342 bound_to 10162
  140.7701  143.5467  150.9250 LP  0  0  0  0  0  0  0  0  0  0  0  0  # atno 17343 bound_to 10162
  155.9670  130.4285  150.4793 LP  0  0  0  0  0  0  0  0  0  0  0  0  # atno 17370 bound_to 10713
  157.2770  131.0599  151.2222 LP  0  0  0  0  0  0  0  0  0  0  0  0  # atno 17371 bound_to 10713
  141.1610  133.6539  156.4317 LP  0  0  0  0  0  0  0  0  0  0  0  0  # atno 17394 bound_to 11000
  140.4805  134.6669  157.5169 LP  0  0  0  0  0  0  0  0  0  0  0  0  # atno 17395 bound_to 11000

$$$$
