AV-unprocessed.smi:116|AV-procd|sdf|1127|dock5
  -GOLD-   2262018253D 1   1.00000     0.00000
 Structure written by MMmdl.
 38 41  0  0  0  0  0  0  0  0  1 V2000
  147.7585  139.2503  156.2499 O   0  0  0  0  0  0  0  0  0  0  0  0
  147.7793  138.5472  157.2615 C   0  0  0  0  0  0  0  0  0  0  0  0
  146.5721  138.1054  157.9518 C   0  0  0  0  0  0  0  0  0  0  0  0
  145.3676  138.4816  157.4898 F   0  0  0  0  0  0  0  0  0  0  0  0
  146.6417  137.3147  159.0443 C   0  0  0  0  0  0  0  0  0  0  0  0
  147.8392  136.8767  159.5851 N   0  0  0  0  0  0  0  0  0  0  0  0
  147.8786  135.9647  160.7925 C   0  0  2  0  0  0  0  0  0  0  0  0
  146.4605  135.5144  161.1608 C   0  0  0  0  0  0  0  0  0  0  0  0
  146.0482  136.5794  162.1530 C   0  0  0  0  0  0  0  0  0  0  0  0
  147.3656  136.8591  162.8685 C   0  0  0  0  0  0  0  0  0  0  0  0
  148.3856  136.6706  161.8889 O   0  0  0  0  0  0  0  0  0  0  0  0
  149.0584  137.2577  158.9844 C   0  0  0  0  0  0  0  0  0  0  0  0
  150.1357  136.8629  159.4372 O   0  0  0  0  0  0  0  0  0  0  0  0
  148.9890  138.0885  157.8411 N   0  0  0  0  0  0  0  0  0  0  0  0
  150.2412  138.4279  157.1829 C   0  0  0  0  0  0  0  0  0  0  0  0
  150.8329  139.6715  157.7755 C   0  0  0  0  0  0  0  0  0  0  0  0
  150.4995  140.8981  157.3514 N   0  0  0  0  0  0  0  0  0  0  0  0
  151.2203  141.8607  158.0521 C   0  0  0  0  0  0  0  0  0  0  0  0
  151.1566  143.2631  157.8796 C   0  0  0  0  0  0  0  0  0  0  0  0
  151.9493  144.1298  158.6584 C   0  0  0  0  0  0  0  0  0  0  0  0
  152.8239  143.6086  159.6305 C   0  0  0  0  0  0  0  0  0  0  0  0
  152.9068  142.2177  159.8248 C   0  0  0  0  0  0  0  0  0  0  0  0
  152.1142  141.3572  159.0427 C   0  0  0  0  0  0  0  0  0  0  0  0
  152.0282  139.5995  159.0773 S   0  0  0  0  0  0  0  0  0  0  0  0
  145.7108  137.0146  159.5014 H   0  0  0  0  0  0  0  0  0  0  0  0
  148.5537  135.1482  160.5307 H   0  0  0  0  0  0  0  0  0  0  0  0
  145.8055  135.4367  160.2921 H   0  0  0  0  0  0  0  0  0  0  0  0
  146.5201  134.5402  161.6475 H   0  0  0  0  0  0  0  0  0  0  0  0
  145.7047  137.4715  161.6277 H   0  0  0  0  0  0  0  0  0  0  0  0
  145.2562  136.2543  162.8280 H   0  0  0  0  0  0  0  0  0  0  0  0
  147.4041  137.8602  163.2982 H   0  0  0  0  0  0  0  0  0  0  0  0
  147.5194  136.1386  163.6725 H   0  0  0  0  0  0  0  0  0  0  0  0
  150.9351  137.5905  157.2616 H   0  0  0  0  0  0  0  0  0  0  0  0
  150.0349  138.5555  156.1187 H   0  0  0  0  0  0  0  0  0  0  0  0
  150.4900  143.6764  157.1371 H   0  0  0  0  0  0  0  0  0  0  0  0
  151.8858  145.1976  158.5088 H   0  0  0  0  0  0  0  0  0  0  0  0
  153.4304  144.2754  160.2259 H   0  0  0  0  0  0  0  0  0  0  0  0
  153.5759  141.8119  160.5692 H   0  0  0  0  0  0  0  0  0  0  0  0
  1  2  2  0  0  0  0
  2 14  1  0  0  0  0
  2  3  1  0  0  0  0
  3  4  1  0  0  0  0
  3  5  2  0  0  0  0
  5  6  1  0  0  0  0
  5 25  1  0  0  0  0
  6  7  1  0  0  0  0
  6 12  1  0  0  0  0
  7 11  1  0  0  0  0
  7  8  1  0  0  0  0
  7 26  1  0  0  0  0
  8  9  1  0  0  0  0
  8 27  1  0  0  0  0
  8 28  1  0  0  0  0
  9 10  1  0  0  0  0
  9 29  1  0  0  0  0
  9 30  1  0  0  0  0
 10 11  1  0  0  0  0
 10 31  1  0  0  0  0
 10 32  1  0  0  0  0
 12 13  2  0  0  0  0
 12 14  1  0  0  0  0
 14 15  1  0  0  0  0
 15 16  1  0  0  0  0
 15 33  1  0  0  0  0
 15 34  1  0  0  0  0
 16 24  1  0  0  0  0
 16 17  2  0  0  0  0
 17 18  1  0  0  0  0
 18 23  2  0  0  0  0
 18 19  1  0  0  0  0
 19 20  2  0  0  0  0
 19 35  1  0  0  0  0
 20 21  1  0  0  0  0
 20 36  1  0  0  0  0
 21 22  2  0  0  0  0
 21 37  1  0  0  0  0
 22 23  1  0  0  0  0
 22 38  1  0  0  0  0
 23 24  1  0  0  0  0
M  END
> <s_m_source_file>
AV-unprocessed.smi

> <i_m_source_file_index>
116

> <i_lp_mmshare_version>
43012

> <i_f3d_flags>
0

> <s_epik_input>
TzFbQ0gyXVtDSDJdW0NIMl1bQ0BIXTFuKFtjSF1jKEYpYzI9TyljKD1PKW4yW0NIMl1jKG4zKXNjKGMzNClbY0hdW2NIXVtjSF1bY0hdNA==

> <s_epik_cmdline>
J2VwaWtfcHl0aG9uJywgJy1waCcsICc3LjAnLCAnLXRuJywgJzgnLCAnLW1hJywgJzIwMCcsICctbWV0YWxfYmluZGluZycsICctaW1hZScsICc8aW5maWxlLm1hZT4nLCAnLW9tYWUnLCAnPG91dGZpbGUubWFlPic=

> <r_lp_tautomer_probability>
1

> <r_epik_Ionization_Penalty>
4.2492e-05

> <r_epik_Ionization_Penalty_Charging>
2.84664e-09

> <r_epik_Ionization_Penalty_Neutral>
4.24891e-05

> <r_epik_State_Penalty>
-0

> <r_epik_Charging_Adjusted_Penalty>
2.84664e-09

> <i_epik_Tot_Q>
0

> <i_epik_Tot_abs_Q>
0

> <r_epik_Metal_State_Penalty>
-0

> <b_epik_Metal_Only>
0

> <s_epik_Chemistry_Notes>
This compound contains an acetal/aminal-like group ( X-CH(R)-Y where X, Y are N, S, or O) that may be acid/base labile, releasing an aldehyde.

> <s_lp_Force_Field>
OPLS_2005

> <r_lp_Energy>
31.0424

> <b_lp_Chiralities_Consistent>
1

> <s_lp_Variant>
AV-unprocessed.smi:116-1

> <Gold.Version>
5.8.1

> <Gold.Id.Protein>
6NUR|6NUR_protein|mol2

> <Gold.PLP.Fitness>
45.5800

> <Gold.PLP.PLP>
-41.3088

> <Gold.PLP.part.hbond>
-2.0152

> <Gold.PLP.part.metal>
0.0000

> <Gold.PLP.part.buried>
-5.5629

> <Gold.PLP.part.nonpolar>
-34.7279

> <Gold.PLP.part.repulsive>
0.0178

> <Gold.PLP.ligand.clash>
0.0000

> <Gold.PLP.ligand.torsion>
0.8718

> <Gold.PLP.Chemscore.Hbond>
2.0000

> <Gold.PLP.Chemscore.CHOScore>
0.0000

> <Gold.PLP.Chemscore.Metal>
0.0000

> <Gold.Chemscore.Hbonds>
donor molecule, donor type, donor heavy atom, donor atom, acceptor molecule, acceptor atom, score
      P1  H  6896  6907       L1    13  0.89
      P1  H  6931  6943       L1    11  0.90

> <Gold.PLP.Chemscore.Internal.Correction>
0.0148

> <Gold.Rescore>
     Score         DG    S(hbond)    S(metal)    S(lipo)     H(rot)  DE(clash)    DE(int)     intcor
     18.54     -19.61       1.87        0.00     100.54       1.52       0.00       1.07       ----

> <Gold.Chemscore.Fitness>
18.5362

> <Gold.Chemscore.DG>
-19.6052

> <Gold.Chemscore.ZeroCoef>
-5.4800

> <Gold.Chemscore.Hbond>
1.8702

> <Gold.Chemscore.Metal>
0.0000

> <Gold.Chemscore.Lipo>
100.5361

> <Gold.Chemscore.Internal_Hbond>
0.0000

> <Gold.Chemscore.DEClash>
0.0000

> <Gold.Chemscore.DEInternal>
1.0690

> <Gold.Chemscore.Rot>
1.5172

> <Gold.Chemscore.Internal.Correction>
   9.000000E+99

> <Gold.Chemscore.Hbonds>
donor molecule, donor type, donor heavy atom, donor atom, acceptor molecule, acceptor atom, score
      P1  H  6896  6907       L1    13  0.87
      P1  H  6931  6943       L1    11  0.18

> <Gold.Chemscore.Hbond.Weighted>
-6.2466

> <Gold.Chemscore.Metal.Weighted>
-0.0000

> <Gold.Chemscore.Lipo.Weighted>
-11.7627

> <Gold.Chemscore.Internal_Hbond.Weighted>
0.0000

> <Gold.Chemscore.DEClash.Weighted>
0.0000

> <Gold.Chemscore.DEInternal.Weighted>
1.0690

> <Gold.Chemscore.Rot.Weighted>
3.8841

> <Gold.Chemscore.Internal.Correction.Weighted>
   9.000000E+99

> <Gold.Protein.RotatedTorsions>
[ 6907 6896 6895 6894 ] final  -37.31 input  -60.11 | X-H torsion
[ 7974 7965 7964 7962 ] final  -76.27 input  175.53 | X-H torsion
[ 8008 7997 7996 7995 ] final  129.98 input   59.86 | X-H torsion
[ 10167 10162 10161 10158 ] final   61.21 input  -65.29 | X-H torsion
[ 10718 10713 10712 10709 ] final   11.26 input   66.30 | X-H torsion
[ 10763 10752 10751 10750 ] final   80.10 input  -60.55 | X-H torsion
[ 11005 11000 10999 10996 ] final   -6.28 input  -57.11 | X-H torsion

> <Gold.Protein.ActiveResidues>
 VAL166  LYS551  ARG553  GLY616  TRP617  ASP618  TYR619  PRO620  LYS621  CYS622 
 ASP623  PHE694  ASN695  SER759  ASP760  ASP761  ALA762  ILE779  LEU786  VAL792 
 PHE793  MET794  SER795  GLU796  ALA797  LYS798  CYS799  TRP800  GLU811  SER814 

> <Gold.Protein.RotatedAtoms>
  151.0163  134.9435  159.8034 H   0  0  0  0  0  0  0  0  0  0  0  0  # atno 6907 bound_to 6896
  152.5315  134.2962  159.9071 H   0  0  0  0  0  0  0  0  0  0  0  0  # atno 6908 bound_to 6896
  151.2968  133.4098  159.2671 H   0  0  0  0  0  0  0  0  0  0  0  0  # atno 6909 bound_to 6896
  145.6150  140.9377  143.1169 H   0  0  0  0  0  0  0  0  0  0  0  0  # atno 7974 bound_to 7965
  156.2946  140.2607  156.2687 H   0  0  0  0  0  0  0  0  0  0  0  0  # atno 8008 bound_to 7997
  154.9716  140.0391  157.2255 H   0  0  0  0  0  0  0  0  0  0  0  0  # atno 8009 bound_to 7997
  154.7853  140.2802  155.6037 H   0  0  0  0  0  0  0  0  0  0  0  0  # atno 8010 bound_to 7997
  140.1573  144.4405  150.6728 H   0  0  0  0  0  0  0  0  0  0  0  0  # atno 10167 bound_to 10162
  156.9930  130.6050  149.5688 H   0  0  0  0  0  0  0  0  0  0  0  0  # atno 10718 bound_to 10713
  153.1006  135.4815  154.8859 H   0  0  0  0  0  0  0  0  0  0  0  0  # atno 10763 bound_to 10752
  154.7374  135.3074  154.8790 H   0  0  0  0  0  0  0  0  0  0  0  0  # atno 10764 bound_to 10752
  153.9408  135.6834  153.4798 H   0  0  0  0  0  0  0  0  0  0  0  0  # atno 10765 bound_to 10752
  140.7003  133.8995  155.8678 H   0  0  0  0  0  0  0  0  0  0  0  0  # atno 11005 bound_to 11000
  144.7254  139.7893  143.7367 LP  0  0  0  0  0  0  0  0  0  0  0  0  # atno 17320 bound_to 7965
  146.1475  139.4548  143.0070 LP  0  0  0  0  0  0  0  0  0  0  0  0  # atno 17321 bound_to 7965
  140.6665  143.2270  151.5730 LP  0  0  0  0  0  0  0  0  0  0  0  0  # atno 17342 bound_to 10162
  139.5398  144.2680  152.1326 LP  0  0  0  0  0  0  0  0  0  0  0  0  # atno 17343 bound_to 10162
  156.0200  130.5294  150.8247 LP  0  0  0  0  0  0  0  0  0  0  0  0  # atno 17370 bound_to 10713
  157.5445  131.0942  150.9782 LP  0  0  0  0  0  0  0  0  0  0  0  0  # atno 17371 bound_to 10713
  141.0169  134.0943  157.4162 LP  0  0  0  0  0  0  0  0  0  0  0  0  # atno 17394 bound_to 11000
  139.8899  135.0108  156.6703 LP  0  0  0  0  0  0  0  0  0  0  0  0  # atno 17395 bound_to 11000

$$$$
