AV-unprocessed.smi:1165|AV-procd|sdf|4929|dock6
  -GOLD-   22720 3513D 1   1.00000     0.00000
 Structure written by MMmdl.
 41 42  0  0  0  0  0  0  0  0  1 V2000
  150.0538  141.9748  155.8653 C   0  0  0  0  0  0  0  0  0  0  0  0
  150.1457  140.4659  155.6136 C   0  0  1  0  0  0  0  0  0  0  0  0
  149.1525  140.0010  154.5295 C   0  0  0  0  0  0  0  0  0  0  0  0
  149.3564  138.5810  154.1981 N   0  0  0  0  0  0  0  0  0  0  0  0
  148.3531  137.3812  154.9571 S   0  0  0  0  0  0  0  0  0  0  0  0
  149.1767  136.2109  155.2973 O   0  0  0  0  0  0  0  0  0  0  0  0
  147.5148  138.0337  155.9745 O   0  0  0  0  0  0  0  0  0  0  0  0
  147.3450  136.9560  153.6284 N   0  0  0  0  0  0  0  0  0  0  0  0
  146.2430  136.0263  153.8528 C   0  0  0  0  0  0  0  0  0  0  0  0
  145.4262  135.8602  152.5655 C   0  0  0  0  0  0  0  0  0  0  0  0
  145.3075  134.4084  152.1470 C   0  0  0  0  0  0  0  0  0  0  0  0
  144.0569  133.7570  152.1474 C   0  0  0  0  0  0  0  0  0  0  0  0
  143.9949  132.4073  151.7510 C   0  0  0  0  0  0  0  0  0  0  0  0
  145.1901  131.7647  151.3708 C   0  0  0  0  0  0  0  0  0  0  0  0
  146.3934  132.3782  151.3680 N   0  0  0  0  0  0  0  0  0  0  0  0
  146.4440  133.6727  151.7495 C   0  0  0  0  0  0  0  0  0  0  0  0
  150.7615  138.2546  153.9030 C   0  0  0  0  0  0  0  0  0  0  0  0
  151.6943  138.7751  155.0148 C   0  0  1  0  0  0  0  0  0  0  0  0
  153.1726  138.5668  154.6695 C   0  0  0  0  0  0  0  0  0  0  0  0
  151.4745  140.1681  155.2015 O   0  0  0  0  0  0  0  0  0  0  0  0
  149.0553  142.2564  156.2002 H   0  0  0  0  0  0  0  0  0  0  0  0
  150.2752  142.5404  154.9596 H   0  0  0  0  0  0  0  0  0  0  0  0
  150.7623  142.2857  156.6335 H   0  0  0  0  0  0  0  0  0  0  0  0
  149.9406  139.9532  156.5539 H   0  0  0  0  0  0  0  0  0  0  0  0
  148.1240  140.1734  154.8461 H   0  0  0  0  0  0  0  0  0  0  0  0
  149.2994  140.5870  153.6214 H   0  0  0  0  0  0  0  0  0  0  0  0
  147.8851  136.7363  152.7920 H   0  0  0  0  0  0  0  0  0  0  0  0
  146.6462  135.0671  154.1795 H   0  0  0  0  0  0  0  0  0  0  0  0
  145.6134  136.4075  154.6577 H   0  0  0  0  0  0  0  0  0  0  0  0
  144.4244  136.2700  152.7023 H   0  0  0  0  0  0  0  0  0  0  0  0
  145.8835  136.4296  151.7550 H   0  0  0  0  0  0  0  0  0  0  0  0
  143.1607  134.2807  152.4462 H   0  0  0  0  0  0  0  0  0  0  0  0
  143.0544  131.8765  151.7388 H   0  0  0  0  0  0  0  0  0  0  0  0
  145.1792  130.7302  151.0610 H   0  0  0  0  0  0  0  0  0  0  0  0
  147.4208  134.1336  151.7375 H   0  0  0  0  0  0  0  0  0  0  0  0
  150.8814  137.1799  153.7673 H   0  0  0  0  0  0  0  0  0  0  0  0
  151.0276  138.7194  152.9528 H   0  0  0  0  0  0  0  0  0  0  0  0
  151.4910  138.2533  155.9503 H   0  0  0  0  0  0  0  0  0  0  0  0
  153.3974  137.5092  154.5287 H   0  0  0  0  0  0  0  0  0  0  0  0
  153.8151  138.9395  155.4676 H   0  0  0  0  0  0  0  0  0  0  0  0
  153.4423  139.0918  153.7528 H   0  0  0  0  0  0  0  0  0  0  0  0
  1  2  1  0  0  0  0
  1 21  1  0  0  0  0
  1 22  1  0  0  0  0
  1 23  1  0  0  0  0
  2 20  1  0  0  0  0
  2  3  1  0  0  0  0
  2 24  1  0  0  0  0
  3  4  1  0  0  0  0
  3 25  1  0  0  0  0
  3 26  1  0  0  0  0
  4  5  1  0  0  0  0
  4 17  1  0  0  0  0
  5  6  2  0  0  0  0
  5  7  2  0  0  0  0
  5  8  1  0  0  0  0
  8  9  1  0  0  0  0
  8 27  1  0  0  0  0
  9 10  1  0  0  0  0
  9 28  1  0  0  0  0
  9 29  1  0  0  0  0
 10 11  1  0  0  0  0
 10 30  1  0  0  0  0
 10 31  1  0  0  0  0
 11 16  1  0  0  0  0
 11 12  2  0  0  0  0
 12 13  1  0  0  0  0
 12 32  1  0  0  0  0
 13 14  2  0  0  0  0
 13 33  1  0  0  0  0
 14 15  1  0  0  0  0
 14 34  1  0  0  0  0
 15 16  2  0  0  0  0
 16 35  1  0  0  0  0
 17 18  1  0  0  0  0
 17 36  1  0  0  0  0
 17 37  1  0  0  0  0
 18 19  1  0  0  0  0
 18 20  1  0  0  0  0
 18 38  1  0  0  0  0
 19 39  1  0  0  0  0
 19 40  1  0  0  0  0
 19 41  1  0  0  0  0
M  END
> <s_m_source_file>
AV-unprocessed.smi

> <i_m_source_file_index>
1165

> <i_lp_mmshare_version>
43012

> <i_f3d_flags>
0

> <s_epik_input>
W0NIM11bQ0BASF0xW0NIMl1OKFtDSDJdW0NASF0oTzEpW0NIM10pUyg9TykoPU8pW05IXVtDSDJdW0NIMl1jMltjSF1bY0hdW2NIXW5bY0hdMg==

> <s_epik_cmdline>
J2VwaWtfcHl0aG9uJywgJy1waCcsICc3LjAnLCAnLXRuJywgJzgnLCAnLW1hJywgJzIwMCcsICctbWV0YWxfYmluZGluZycsICctaW1hZScsICc8aW5maWxlLm1hZT4nLCAnLW9tYWUnLCAnPG91dGZpbGUubWFlPic=

> <r_epik_Ionization_Penalty>
0.0861056

> <r_epik_Ionization_Penalty_Charging>
0

> <r_epik_Ionization_Penalty_Neutral>
0.0861056

> <r_epik_State_Penalty>
0.0574425

> <r_epik_Charging_Adjusted_Penalty>
0.0574425

> <i_epik_Tot_Q>
0

> <i_epik_Tot_abs_Q>
0

> <r_epik_Metal_State_Penalty>
0.317425

> <b_epik_Metal_Only>
0

> <s_lp_Force_Field>
OPLS_2005

> <r_lp_Energy>
3.52917

> <b_lp_Chiralities_Consistent>
1

> <s_lp_Variant>
AV-unprocessed.smi:1165-2

> <Gold.Version>
5.8.1

> <Gold.Id.Protein>
6NUR|6NUR_protein|mol2

> <Gold.PLP.Fitness>
42.5294

> <Gold.PLP.PLP>
-34.4306

> <Gold.PLP.part.hbond>
-1.8867

> <Gold.PLP.part.metal>
0.0000

> <Gold.PLP.part.buried>
-4.1693

> <Gold.PLP.part.nonpolar>
-29.0996

> <Gold.PLP.part.repulsive>
0.3548

> <Gold.PLP.ligand.clash>
0.0000

> <Gold.PLP.ligand.torsion>
1.4798

> <Gold.PLP.Chemscore.Hbond>
1.9840

> <Gold.PLP.Chemscore.CHOScore>
1.0000

> <Gold.PLP.Chemscore.Metal>
0.0000

> <Gold.Chemscore.Hbonds>
donor molecule, donor type, donor heavy atom, donor atom, acceptor molecule, acceptor atom, score
      L1  H     8    27       P1  7948  0.93
      P1  H  7989  7998       L1    20  1.00
      L1  C    16    35       P1  7948  0.94

> <Gold.PLP.Chemscore.Internal.Correction>
2.1065

> <Gold.Rescore>
     Score         DG    S(hbond)    S(metal)    S(lipo)     H(rot)  DE(clash)    DE(int)     intcor
     14.08     -15.84       1.43        0.00      80.84       1.52       0.13       1.63       ----

> <Gold.Chemscore.Fitness>
14.0784

> <Gold.Chemscore.DG>
-15.8401

> <Gold.Chemscore.ZeroCoef>
-5.4800

> <Gold.Chemscore.Hbond>
1.4328

> <Gold.Chemscore.Metal>
0.0000

> <Gold.Chemscore.Lipo>
80.8439

> <Gold.Chemscore.Internal_Hbond>
0.0000

> <Gold.Chemscore.DEClash>
0.1327

> <Gold.Chemscore.DEInternal>
1.6290

> <Gold.Chemscore.Rot>
1.5172

> <Gold.Chemscore.Internal.Correction>
   9.000000E+99

> <Gold.Chemscore.Hbonds>
donor molecule, donor type, donor heavy atom, donor atom, acceptor molecule, acceptor atom, score
      L1  H     8    27       P1  7948  0.88
      P1  H  7989  7998       L1    20  0.24

> <Gold.Chemscore.Hbond.Weighted>
-4.7854

> <Gold.Chemscore.Metal.Weighted>
-0.0000

> <Gold.Chemscore.Lipo.Weighted>
-9.4587

> <Gold.Chemscore.Internal_Hbond.Weighted>
0.0000

> <Gold.Chemscore.DEClash.Weighted>
0.1327

> <Gold.Chemscore.DEInternal.Weighted>
1.6290

> <Gold.Chemscore.Rot.Weighted>
3.8841

> <Gold.Chemscore.Internal.Correction.Weighted>
   9.000000E+99

> <Gold.Protein.RotatedTorsions>
[ 6907 6896 6895 6894 ] final -155.31 input  -60.11 | X-H torsion
[ 7974 7965 7964 7962 ] final -137.13 input  175.53 | X-H torsion
[ 8008 7997 7996 7995 ] final  -55.43 input   59.86 | X-H torsion
[ 10167 10162 10161 10158 ] final  176.60 input  -65.29 | X-H torsion
[ 10718 10713 10712 10709 ] final  -18.62 input   66.30 | X-H torsion
[ 10763 10752 10751 10750 ] final  138.81 input  -60.55 | X-H torsion
[ 11005 11000 10999 10996 ] final  -76.83 input  -57.11 | X-H torsion

> <Gold.Protein.ActiveResidues>
 VAL166  LYS551  ARG553  GLY616  TRP617  ASP618  TYR619  PRO620  LYS621  CYS622 
 ASP623  PHE694  ASN695  SER759  ASP760  ASP761  ALA762  ILE779  LEU786  VAL792 
 PHE793  MET794  SER795  GLU796  ALA797  LYS798  CYS799  TRP800  GLU811  SER814 

> <Gold.Protein.RotatedAtoms>
  151.2706  133.4257  159.2620 H   0  0  0  0  0  0  0  0  0  0  0  0  # atno 6907 bound_to 6896
  151.0449  134.9633  159.8191 H   0  0  0  0  0  0  0  0  0  0  0  0  # atno 6908 bound_to 6896
  152.5372  134.2662  159.9007 H   0  0  0  0  0  0  0  0  0  0  0  0  # atno 6909 bound_to 6896
  144.8867  140.6585  143.5171 H   0  0  0  0  0  0  0  0  0  0  0  0  # atno 7974 bound_to 7965
  154.4195  140.1153  156.5475 H   0  0  0  0  0  0  0  0  0  0  0  0  # atno 8008 bound_to 7997
  155.6444  140.3496  155.4707 H   0  0  0  0  0  0  0  0  0  0  0  0  # atno 8009 bound_to 7997
  155.9844  140.1167  157.0686 H   0  0  0  0  0  0  0  0  0  0  0  0  # atno 8010 bound_to 7997
  139.5220  144.2897  152.0475 H   0  0  0  0  0  0  0  0  0  0  0  0  # atno 10167 bound_to 10162
  156.5569  130.4716  149.6425 H   0  0  0  0  0  0  0  0  0  0  0  0  # atno 10718 bound_to 10713
  153.8958  135.3028  155.3448 H   0  0  0  0  0  0  0  0  0  0  0  0  # atno 10763 bound_to 10752
  154.7694  135.4893  153.9622 H   0  0  0  0  0  0  0  0  0  0  0  0  # atno 10764 bound_to 10752
  153.1272  135.6796  153.9336 H   0  0  0  0  0  0  0  0  0  0  0  0  # atno 10765 bound_to 10752
  141.1656  133.6999  156.7728 H   0  0  0  0  0  0  0  0  0  0  0  0  # atno 11005 bound_to 11000
  145.3855  139.1627  143.4257 LP  0  0  0  0  0  0  0  0  0  0  0  0  # atno 17320 bound_to 7965
  146.3029  140.3940  142.8697 LP  0  0  0  0  0  0  0  0  0  0  0  0  # atno 17321 bound_to 7965
  140.2348  144.4330  150.6284 LP  0  0  0  0  0  0  0  0  0  0  0  0  # atno 17342 bound_to 10162
  140.6330  143.2190  151.6454 LP  0  0  0  0  0  0  0  0  0  0  0  0  # atno 17343 bound_to 10162
  156.2833  130.7083  151.1913 LP  0  0  0  0  0  0  0  0  0  0  0  0  # atno 17370 bound_to 10713
  157.7376  131.0550  150.5344 LP  0  0  0  0  0  0  0  0  0  0  0  0  # atno 17371 bound_to 10713
  140.2451  134.8583  157.3612 LP  0  0  0  0  0  0  0  0  0  0  0  0  # atno 17394 bound_to 11000
  140.1757  134.4552  155.7803 LP  0  0  0  0  0  0  0  0  0  0  0  0  # atno 17395 bound_to 11000

$$$$
