AV-unprocessed.smi:2760|AV-procd|sdf|10630|dock7
  -GOLD-   2272015 83D 1   1.00000     0.00000
 Structure written by MMmdl.
 31 32  0  0  0  0  0  0  0  0  2 V2000
  150.1569  140.2439  154.3847 O   0  0  0  0  0  0  0  0  0  0  0  0
  150.4446  140.2813  155.5792 C   0  0  0  0  0  0  0  0  0  0  0  0
  150.9881  141.5124  156.1518 C   0  0  0  0  0  0  0  0  0  0  0  0
  151.3056  141.5435  157.4705 C   0  0  0  0  0  0  0  0  0  0  0  0
  151.8587  142.7731  158.1104 C   0  0  0  0  0  0  0  0  0  0  0  0
  152.3813  142.7495  159.5293 C   0  0  0  0  0  0  0  0  0  0  0  0
  151.1276  143.5240  159.2042 C   0  0  0  0  0  0  0  0  0  0  0  0
  151.1062  140.4048  158.2747 N   0  0  0  0  0  0  0  0  0  0  0  0
  150.6270  139.3385  157.7536 C   0  0  0  0  0  0  0  0  0  0  0  0
  150.3926  137.9228  158.8453 S   0  0  0  0  0  0  0  0  0  0  0  0
  148.7619  137.2641  158.3882 C   0  0  0  0  0  0  0  0  0  0  0  0
  148.6388  135.7834  158.7577 C   0  0  0  0  0  0  0  0  0  0  0  0
  148.4922  135.6653  160.1628 O   0  0  0  0  0  0  0  0  0  0  0  0
  147.1470  135.8190  160.5872 C   0  0  0  0  0  0  0  0  0  0  0  0
  147.0238  135.4265  162.0643 C   0  0  0  0  0  0  0  0  0  0  0  0
  147.4587  134.1771  162.2238 F   0  0  0  0  0  0  0  0  0  0  0  0
  147.7640  136.2359  162.8216 F   0  0  0  0  0  0  0  0  0  0  0  0
  145.7508  135.4886  162.4537 F   0  0  0  0  0  0  0  0  0  0  0  0
  150.2845  139.2205  156.4218 N   0  5  0  0  0  0  0  0  0  0  0  0
  151.1332  142.3811  155.5264 H   0  0  0  0  0  0  0  0  0  0  0  0
  152.4139  143.3899  157.4057 H   0  0  0  0  0  0  0  0  0  0  0  0
  152.2687  141.8289  160.0987 H   0  0  0  0  0  0  0  0  0  0  0  0
  153.2844  143.3185  159.7392 H   0  0  0  0  0  0  0  0  0  0  0  0
  151.1978  144.6095  159.1976 H   0  0  0  0  0  0  0  0  0  0  0  0
  150.1837  143.1243  159.5693 H   0  0  0  0  0  0  0  0  0  0  0  0
  148.6122  137.3958  157.3159 H   0  0  0  0  0  0  0  0  0  0  0  0
  147.9877  137.8372  158.8993 H   0  0  0  0  0  0  0  0  0  0  0  0
  147.7770  135.3420  158.2547 H   0  0  0  0  0  0  0  0  0  0  0  0
  149.5273  135.2432  158.4271 H   0  0  0  0  0  0  0  0  0  0  0  0
  146.8276  136.8535  160.4507 H   0  0  0  0  0  0  0  0  0  0  0  0
  146.4919  135.1921  159.9806 H   0  0  0  0  0  0  0  0  0  0  0  0
  1  2  2  0  0  0  0
  2 19  1  0  0  0  0
  2  3  1  0  0  0  0
  3 20  1  0  0  0  0
  3  4  2  0  0  0  0
  4  5  1  0  0  0  0
  4  8  1  0  0  0  0
  5  7  1  0  0  0  0
  5  6  1  0  0  0  0
  5 21  1  0  0  0  0
  6  7  1  0  0  0  0
  6 22  1  0  0  0  0
  6 23  1  0  0  0  0
  7 24  1  0  0  0  0
  7 25  1  0  0  0  0
  8  9  2  0  0  0  0
  9 10  1  0  0  0  0
  9 19  1  0  0  0  0
 10 11  1  0  0  0  0
 11 12  1  0  0  0  0
 11 26  1  0  0  0  0
 11 27  1  0  0  0  0
 12 13  1  0  0  0  0
 12 28  1  0  0  0  0
 12 29  1  0  0  0  0
 13 14  1  0  0  0  0
 14 15  1  0  0  0  0
 14 30  1  0  0  0  0
 14 31  1  0  0  0  0
 15 16  1  0  0  0  0
 15 17  1  0  0  0  0
 15 18  1  0  0  0  0
M  CHG  1  19  -1
M  END
> <s_m_source_file>
AV-unprocessed.smi

> <i_m_source_file_index>
2760

> <i_lp_mmshare_version>
43012

> <i_f3d_flags>
0

> <s_epik_input>
W09IXWMxW2NIXWMoW0NIXTJbQ0gyXVtDSDJdMiluYyhuMSlTW0NIMl1bQ0gyXU9bQ0gyXUMoRikoRilG

> <s_epik_cmdline>
J2VwaWtfcHl0aG9uJywgJy1waCcsICc3LjAnLCAnLXRuJywgJzgnLCAnLW1hJywgJzIwMCcsICctbWV0YWxfYmluZGluZycsICctaW1hZScsICc8aW5maWxlLm1hZT4nLCAnLW9tYWUnLCAnPG91dGZpbGUubWFlPic=

> <r_lp_tautomer_probability>
1

> <r_epik_Ionization_Penalty>
4.02042

> <r_epik_Ionization_Penalty_Charging>
0.00362968

> <r_epik_Ionization_Penalty_Neutral>
4.01679

> <r_epik_State_Penalty>
2.30798

> <r_epik_Charging_Adjusted_Penalty>
2.31161

> <i_epik_Tot_Q>
-1

> <i_epik_Tot_abs_Q>
1

> <r_epik_Metal_State_Penalty>
0.234281

> <b_epik_Metal_Only>
0

> <s_lp_Force_Field>
OPLS_2005

> <r_lp_Energy>
16.4735

> <b_lp_Chiralities_Consistent>
1

> <s_lp_Variant>
AV-unprocessed.smi:2760-3

> <Gold.Version>
5.8.1

> <Gold.Id.Protein>
6NUR|6NUR_protein|mol2

> <Gold.PLP.Fitness>
40.1136

> <Gold.PLP.PLP>
-38.1886

> <Gold.PLP.part.hbond>
-1.0000

> <Gold.PLP.part.metal>
0.0000

> <Gold.PLP.part.buried>
-6.8111

> <Gold.PLP.part.nonpolar>
-30.6799

> <Gold.PLP.part.repulsive>
0.1077

> <Gold.PLP.ligand.clash>
0.0000

> <Gold.PLP.ligand.torsion>
0.6447

> <Gold.PLP.Chemscore.Hbond>
1.0000

> <Gold.PLP.Chemscore.CHOScore>
0.0000

> <Gold.PLP.Chemscore.Metal>
0.0000

> <Gold.Chemscore.Hbonds>
donor molecule, donor type, donor heavy atom, donor atom, acceptor molecule, acceptor atom, score
      P1  H  7989  7998       L1     1  1.00

> <Gold.PLP.Chemscore.Internal.Correction>
0.2144

> <Gold.Rescore>
     Score         DG    S(hbond)    S(metal)    S(lipo)     H(rot)  DE(clash)    DE(int)     intcor
     10.59     -11.29       0.98        0.00      76.13       2.48       0.09       0.61       ----

> <Gold.Chemscore.Fitness>
10.5863

> <Gold.Chemscore.DG>
-11.2904

> <Gold.Chemscore.ZeroCoef>
-5.4800

> <Gold.Chemscore.Hbond>
0.9762

> <Gold.Chemscore.Metal>
0.0000

> <Gold.Chemscore.Lipo>
76.1293

> <Gold.Chemscore.Internal_Hbond>
0.0000

> <Gold.Chemscore.DEClash>
0.0934

> <Gold.Chemscore.DEInternal>
0.6107

> <Gold.Chemscore.Rot>
2.4833

> <Gold.Chemscore.Internal.Correction>
   9.000000E+99

> <Gold.Chemscore.Hbonds>
donor molecule, donor type, donor heavy atom, donor atom, acceptor molecule, acceptor atom, score
      P1  H  7989  7998       L1     1  0.57

> <Gold.Chemscore.Hbond.Weighted>
-3.2605

> <Gold.Chemscore.Metal.Weighted>
-0.0000

> <Gold.Chemscore.Lipo.Weighted>
-8.9071

> <Gold.Chemscore.Internal_Hbond.Weighted>
0.0000

> <Gold.Chemscore.DEClash.Weighted>
0.0934

> <Gold.Chemscore.DEInternal.Weighted>
0.6107

> <Gold.Chemscore.Rot.Weighted>
6.3572

> <Gold.Chemscore.Internal.Correction.Weighted>
   9.000000E+99

> <Gold.Protein.RotatedTorsions>
[ 6907 6896 6895 6894 ] final   35.43 input  -60.11 | X-H torsion
[ 7974 7965 7964 7962 ] final   58.87 input  175.53 | X-H torsion
[ 8008 7997 7996 7995 ] final   96.96 input   59.86 | X-H torsion
[ 10167 10162 10161 10158 ] final  109.81 input  -65.29 | X-H torsion
[ 10718 10713 10712 10709 ] final   86.27 input   66.30 | X-H torsion
[ 10763 10752 10751 10750 ] final   78.90 input  -60.55 | X-H torsion
[ 11005 11000 10999 10996 ] final  104.68 input  -57.11 | X-H torsion

> <Gold.Protein.ActiveResidues>
 VAL166  LYS551  ARG553  GLY616  TRP617  ASP618  TYR619  PRO620  LYS621  CYS622 
 ASP623  PHE694  ASN695  SER759  ASP760  ASP761  ALA762  ILE779  LEU786  VAL792 
 PHE793  MET794  SER795  GLU796  ALA797  LYS798  CYS799  TRP800  GLU811  SER814 

> <Gold.Protein.RotatedAtoms>
  152.1160  134.9240  160.0564 H   0  0  0  0  0  0  0  0  0  0  0  0  # atno 6907 bound_to 6896
  152.0400  133.3968  159.4341 H   0  0  0  0  0  0  0  0  0  0  0  0  # atno 6908 bound_to 6896
  150.6846  134.3347  159.4885 H   0  0  0  0  0  0  0  0  0  0  0  0  # atno 6909 bound_to 6896
  145.9134  139.3672  143.0522 H   0  0  0  0  0  0  0  0  0  0  0  0  # atno 7974 bound_to 7965
  156.0852  140.3265  155.7744 H   0  0  0  0  0  0  0  0  0  0  0  0  # atno 8008 bound_to 7997
  155.5088  140.0575  157.2944 H   0  0  0  0  0  0  0  0  0  0  0  0  # atno 8009 bound_to 7997
  154.4605  140.1964  156.0275 H   0  0  0  0  0  0  0  0  0  0  0  0  # atno 8010 bound_to 7997
  139.6737  144.7123  151.1641 H   0  0  0  0  0  0  0  0  0  0  0  0  # atno 10167 bound_to 10162
  157.6926  131.0208  150.2947 H   0  0  0  0  0  0  0  0  0  0  0  0  # atno 10718 bound_to 10713
  153.0910  135.4860  154.8690 H   0  0  0  0  0  0  0  0  0  0  0  0  # atno 10763 bound_to 10752
  154.7269  135.3051  154.8958 H   0  0  0  0  0  0  0  0  0  0  0  0  # atno 10764 bound_to 10752
  153.9605  135.6813  153.4798 H   0  0  0  0  0  0  0  0  0  0  0  0  # atno 10765 bound_to 10752
  139.8794  134.9309  156.5398 H   0  0  0  0  0  0  0  0  0  0  0  0  # atno 11005 bound_to 11000
  145.8642  140.9457  143.0684 LP  0  0  0  0  0  0  0  0  0  0  0  0  # atno 17320 bound_to 7965
  144.6745  140.0570  143.7477 LP  0  0  0  0  0  0  0  0  0  0  0  0  # atno 17321 bound_to 7965
  140.7627  143.5805  150.8900 LP  0  0  0  0  0  0  0  0  0  0  0  0  # atno 17342 bound_to 10162
  139.9472  143.6314  152.3038 LP  0  0  0  0  0  0  0  0  0  0  0  0  # atno 17343 bound_to 10162
  156.3472  130.3825  149.7359 LP  0  0  0  0  0  0  0  0  0  0  0  0  # atno 17370 bound_to 10713
  156.4848  130.8058  151.3070 LP  0  0  0  0  0  0  0  0  0  0  0  0  # atno 17371 bound_to 10713
  140.8318  133.8273  155.8992 LP  0  0  0  0  0  0  0  0  0  0  0  0  # atno 17394 bound_to 11000
  140.9321  134.2009  157.4857 LP  0  0  0  0  0  0  0  0  0  0  0  0  # atno 17395 bound_to 11000

$$$$
