AV-unprocessed.smi:3306|AV-procd|sdf|12703|dock9
  -GOLD-   2272019 33D 1   1.00000     0.00000
 Structure written by MMmdl.
 44 45  0  0  0  0  0  0  0  0  2 V2000
  153.8441  141.1833  161.2887 C   0  0  0  0  0  0  0  0  0  0  0  0
  153.2471  142.5510  160.8876 C   0  0  0  0  0  0  0  0  0  0  0  0
  152.8269  143.2880  162.1790 C   0  0  0  0  0  0  0  0  0  0  0  0
  152.1195  142.4023  159.9426 N   0  0  0  0  0  0  0  0  0  0  0  0
  152.4247  141.4107  158.8987 C   0  0  0  0  0  0  0  0  0  0  0  0
  151.2206  141.1869  157.9677 C   0  0  0  0  0  0  0  0  0  0  0  0
  150.8059  142.4894  157.2761 C   0  0  0  0  0  0  0  0  0  0  0  0
  149.6024  142.2654  156.4446 N   0  3  0  0  0  0  0  0  0  0  0  0
  149.7206  141.1876  155.4406 C   0  0  0  0  0  0  0  0  0  0  0  0
  148.8111  141.4595  154.2346 C   0  0  0  0  0  0  0  0  0  0  0  0
  147.4393  141.9570  154.6491 C   0  0  0  0  0  0  0  0  0  0  0  0
  146.7091  142.8352  153.8201 C   0  0  0  0  0  0  0  0  0  0  0  0
  145.4418  143.2694  154.2552 C   0  0  0  0  0  0  0  0  0  0  0  0
  144.9574  142.8124  155.4959 C   0  0  0  0  0  0  0  0  0  0  0  0
  145.7650  141.9383  156.2503 C   0  0  0  0  0  0  0  0  0  0  0  0
  146.9823  141.5173  155.8432 N   0  0  0  0  0  0  0  0  0  0  0  0
  150.5704  143.5469  158.3637 C   0  0  0  0  0  0  0  0  0  0  0  0
  151.7973  143.6782  159.2836 C   0  0  0  0  0  0  0  0  0  0  0  0
  154.5625  141.2932  162.1016 H   0  0  0  0  0  0  0  0  0  0  0  0
  154.3922  140.7101  160.4750 H   0  0  0  0  0  0  0  0  0  0  0  0
  153.0705  140.4939  161.6289 H   0  0  0  0  0  0  0  0  0  0  0  0
  154.0329  143.1356  160.4061 H   0  0  0  0  0  0  0  0  0  0  0  0
  153.6169  143.2450  162.9293 H   0  0  0  0  0  0  0  0  0  0  0  0
  151.9340  142.8437  162.6203 H   0  0  0  0  0  0  0  0  0  0  0  0
  152.6374  144.3477  162.0123 H   0  0  0  0  0  0  0  0  0  0  0  0
  153.2971  141.7267  158.3245 H   0  0  0  0  0  0  0  0  0  0  0  0
  152.6639  140.4441  159.3372 H   0  0  0  0  0  0  0  0  0  0  0  0
  151.4725  140.4325  157.2212 H   0  0  0  0  0  0  0  0  0  0  0  0
  150.3863  140.7846  158.5449 H   0  0  0  0  0  0  0  0  0  0  0  0
  151.6222  142.8102  156.6268 H   0  0  0  0  0  0  0  0  0  0  0  0
  148.8455  142.0176  157.0656 H   0  0  0  0  0  0  0  0  0  0  0  0
  150.7561  141.1064  155.1098 H   0  0  0  0  0  0  0  0  0  0  0  0
  149.4503  140.2350  155.8984 H   0  0  0  0  0  0  0  0  0  0  0  0
  149.2744  142.1952  153.5758 H   0  0  0  0  0  0  0  0  0  0  0  0
  148.6919  140.5505  153.6428 H   0  0  0  0  0  0  0  0  0  0  0  0
  147.1070  143.1703  152.8736 H   0  0  0  0  0  0  0  0  0  0  0  0
  144.8520  143.9407  153.6487 H   0  0  0  0  0  0  0  0  0  0  0  0
  143.9899  143.1243  155.8610 H   0  0  0  0  0  0  0  0  0  0  0  0
  145.4248  141.5684  157.2062 H   0  0  0  0  0  0  0  0  0  0  0  0
  150.3609  144.5178  157.9146 H   0  0  0  0  0  0  0  0  0  0  0  0
  149.6945  143.2852  158.9597 H   0  0  0  0  0  0  0  0  0  0  0  0
  151.5561  144.4451  160.0169 H   0  0  0  0  0  0  0  0  0  0  0  0
  152.6601  144.0355  158.7190 H   0  0  0  0  0  0  0  0  0  0  0  0
  149.3628  143.1286  155.9778 H   0  0  0  0  0  0  0  0  0  0  0  0
  1  2  1  0  0  0  0
  1 19  1  0  0  0  0
  1 20  1  0  0  0  0
  1 21  1  0  0  0  0
  2  3  1  0  0  0  0
  2  4  1  0  0  0  0
  2 22  1  0  0  0  0
  3 23  1  0  0  0  0
  3 24  1  0  0  0  0
  3 25  1  0  0  0  0
  4 18  1  0  0  0  0
  4  5  1  0  0  0  0
  5  6  1  0  0  0  0
  5 26  1  0  0  0  0
  5 27  1  0  0  0  0
  6  7  1  0  0  0  0
  6 28  1  0  0  0  0
  6 29  1  0  0  0  0
  7  8  1  0  0  0  0
  7 17  1  0  0  0  0
  7 30  1  0  0  0  0
  8  9  1  0  0  0  0
  8 31  1  0  0  0  0
  8 44  1  0  0  0  0
  9 10  1  0  0  0  0
  9 32  1  0  0  0  0
  9 33  1  0  0  0  0
 10 11  1  0  0  0  0
 10 34  1  0  0  0  0
 10 35  1  0  0  0  0
 11 16  1  0  0  0  0
 11 12  2  0  0  0  0
 12 13  1  0  0  0  0
 12 36  1  0  0  0  0
 13 14  2  0  0  0  0
 13 37  1  0  0  0  0
 14 15  1  0  0  0  0
 14 38  1  0  0  0  0
 15 16  2  0  0  0  0
 15 39  1  0  0  0  0
 17 18  1  0  0  0  0
 17 40  1  0  0  0  0
 17 41  1  0  0  0  0
 18 42  1  0  0  0  0
 18 43  1  0  0  0  0
M  CHG  1   8   1
M  END
> <s_m_source_file>
AV-unprocessed.smi

> <i_m_source_file_index>
3306

> <i_lp_mmshare_version>
43012

> <i_f3d_flags>
0

> <s_epik_input>
W0NIM11bQ0hdKFtDSDNdKU4xW0NIMl1bQ0gyXVtDSF0oW0NIMl1bQ0gyXTEpW05IXVtDSDJdW0NIMl1jMltjSF1bY0hdW2NIXVtjSF1uMg==

> <s_epik_cmdline>
J2VwaWtfcHl0aG9uJywgJy1waCcsICc3LjAnLCAnLXRuJywgJzgnLCAnLW1hJywgJzIwMCcsICctbWV0YWxfYmluZGluZycsICctaW1hZScsICc8aW5maWxlLm1hZT4nLCAnLW9tYWUnLCAnPG91dGZpbGUubWFlPic=

> <r_epik_Ionization_Penalty>
1.34673

> <r_epik_Ionization_Penalty_Charging>
0.000531593

> <r_epik_Ionization_Penalty_Neutral>
1.3462

> <r_epik_State_Penalty>
1.43277

> <r_epik_Charging_Adjusted_Penalty>
1.4333

> <i_epik_Tot_Q>
1

> <i_epik_Tot_abs_Q>
1

> <r_epik_Metal_State_Penalty>
1.43418

> <b_epik_Metal_Only>
0

> <s_lp_Force_Field>
OPLS_2005

> <r_lp_Energy>
21.3297

> <b_lp_Chiralities_Consistent>
1

> <s_lp_Variant>
AV-unprocessed.smi:3306-3

> <Gold.Version>
5.8.1

> <Gold.Id.Protein>
6NUR|6NUR_protein|mol2

> <Gold.PLP.Fitness>
47.3455

> <Gold.PLP.PLP>
-43.0272

> <Gold.PLP.part.hbond>
-1.0000

> <Gold.PLP.part.metal>
0.0000

> <Gold.PLP.part.buried>
-4.5283

> <Gold.PLP.part.nonpolar>
-36.9316

> <Gold.PLP.part.repulsive>
0.1472

> <Gold.PLP.ligand.clash>
0.0000

> <Gold.PLP.ligand.torsion>
0.8532

> <Gold.PLP.Chemscore.Hbond>
2.0000

> <Gold.PLP.Chemscore.CHOScore>
0.0000

> <Gold.PLP.Chemscore.Metal>
0.0000

> <Gold.Chemscore.Hbonds>
donor molecule, donor type, donor heavy atom, donor atom, acceptor molecule, acceptor atom, score
      L1  H     8    44       P1  8028  2.00

> <Gold.PLP.Chemscore.Internal.Correction>
0.0246

> <Gold.Rescore>
     Score         DG    S(hbond)    S(metal)    S(lipo)     H(rot)  DE(clash)    DE(int)     intcor
     18.11     -18.68       1.00        0.00     115.14       1.41       0.02       0.55       ----

> <Gold.Chemscore.Fitness>
18.1087

> <Gold.Chemscore.DG>
-18.6771

> <Gold.Chemscore.ZeroCoef>
-5.4800

> <Gold.Chemscore.Hbond>
0.9990

> <Gold.Chemscore.Metal>
0.0000

> <Gold.Chemscore.Lipo>
115.1433

> <Gold.Chemscore.Internal_Hbond>
0.0000

> <Gold.Chemscore.DEClash>
0.0176

> <Gold.Chemscore.DEInternal>
0.5509

> <Gold.Chemscore.Rot>
1.4106

> <Gold.Chemscore.Internal.Correction>
   9.000000E+99

> <Gold.Chemscore.Hbonds>
donor molecule, donor type, donor heavy atom, donor atom, acceptor molecule, acceptor atom, score
      L1  H     8    44       P1  8028  1.00

> <Gold.Chemscore.Hbond.Weighted>
-3.3366

> <Gold.Chemscore.Metal.Weighted>
-0.0000

> <Gold.Chemscore.Lipo.Weighted>
-13.4718

> <Gold.Chemscore.Internal_Hbond.Weighted>
0.0000

> <Gold.Chemscore.DEClash.Weighted>
0.0176

> <Gold.Chemscore.DEInternal.Weighted>
0.5509

> <Gold.Chemscore.Rot.Weighted>
3.6112

> <Gold.Chemscore.Internal.Correction.Weighted>
   9.000000E+99

> <Gold.Protein.RotatedTorsions>
[ 6907 6896 6895 6894 ] final   48.00 input  -60.11 | X-H torsion
[ 7974 7965 7964 7962 ] final  176.58 input  175.53 | X-H torsion
[ 8008 7997 7996 7995 ] final -165.26 input   59.86 | X-H torsion
[ 10167 10162 10161 10158 ] final  152.91 input  -65.29 | X-H torsion
[ 10718 10713 10712 10709 ] final  -12.01 input   66.30 | X-H torsion
[ 10763 10752 10751 10750 ] final -114.49 input  -60.55 | X-H torsion
[ 11005 11000 10999 10996 ] final  176.32 input  -57.11 | X-H torsion

> <Gold.Protein.ActiveResidues>
 VAL166  LYS551  ARG553  GLY616  TRP617  ASP618  TYR619  PRO620  LYS621  CYS622 
 ASP623  PHE694  ASN695  SER759  ASP760  ASP761  ALA762  ILE779  LEU786  VAL792 
 PHE793  MET794  SER795  GLU796  ALA797  LYS798  CYS799  TRP800  GLU811  SER814 

> <Gold.Protein.RotatedAtoms>
  152.2746  134.7896  160.0407 H   0  0  0  0  0  0  0  0  0  0  0  0  # atno 6907 bound_to 6896
  151.8496  133.3432  159.3677 H   0  0  0  0  0  0  0  0  0  0  0  0  # atno 6908 bound_to 6896
  150.7165  134.5239  159.5711 H   0  0  0  0  0  0  0  0  0  0  0  0  # atno 6909 bound_to 6896
  144.7182  140.0117  143.6440 H   0  0  0  0  0  0  0  0  0  0  0  0  # atno 7974 bound_to 7965
  155.8473  140.0957  157.1697 H   0  0  0  0  0  0  0  0  0  0  0  0  # atno 8008 bound_to 7997
  154.3984  140.1390  156.3863 H   0  0  0  0  0  0  0  0  0  0  0  0  # atno 8009 bound_to 7997
  155.8000  140.3453  155.5399 H   0  0  0  0  0  0  0  0  0  0  0  0  # atno 8010 bound_to 7997
  139.4830  144.5318  151.7711 H   0  0  0  0  0  0  0  0  0  0  0  0  # atno 10167 bound_to 10162
  156.6507  130.4954  149.6063 H   0  0  0  0  0  0  0  0  0  0  0  0  # atno 10718 bound_to 10713
  154.8442  135.4416  154.1514 H   0  0  0  0  0  0  0  0  0  0  0  0  # atno 10763 bound_to 10752
  153.2674  135.6942  153.7522 H   0  0  0  0  0  0  0  0  0  0  0  0  # atno 10764 bound_to 10752
  153.6775  135.3408  155.3145 H   0  0  0  0  0  0  0  0  0  0  0  0  # atno 10765 bound_to 10752
  140.3718  134.7023  157.4397 H   0  0  0  0  0  0  0  0  0  0  0  0  # atno 11005 bound_to 11000
  146.0253  139.3286  143.0788 LP  0  0  0  0  0  0  0  0  0  0  0  0  # atno 17320 bound_to 7965
  145.8519  140.9524  143.0745 LP  0  0  0  0  0  0  0  0  0  0  0  0  # atno 17321 bound_to 7965
  140.4845  144.1401  150.5938 LP  0  0  0  0  0  0  0  0  0  0  0  0  # atno 17342 bound_to 10162
  140.4241  143.2598  151.9678 LP  0  0  0  0  0  0  0  0  0  0  0  0  # atno 17343 bound_to 10162
  156.2086  130.6665  151.1245 LP  0  0  0  0  0  0  0  0  0  0  0  0  # atno 17370 bound_to 10713
  157.7142  131.0719  150.6391 LP  0  0  0  0  0  0  0  0  0  0  0  0  # atno 17371 bound_to 10713
  140.0546  134.6082  155.8821 LP  0  0  0  0  0  0  0  0  0  0  0  0  # atno 17394 bound_to 11000
  141.1952  133.6586  156.5631 LP  0  0  0  0  0  0  0  0  0  0  0  0  # atno 17395 bound_to 11000

$$$$
