AV-unprocessed.smi:2198|AV-procd|sdf|8914|dock7
  -GOLD-   2272012133D 1   1.00000     0.00000
 Structure written by MMmdl.
 43 44  0  0  0  0  0  0  0  0  1 V2000
  146.5008  138.8143  151.8733 C   0  0  0  0  0  0  0  0  0  0  0  0
  147.2375  139.2627  153.1180 C   0  0  0  0  0  0  0  0  0  0  0  0
  148.4076  138.8321  153.4578 N   0  0  0  0  0  0  0  0  0  0  0  0
  148.9891  139.3176  154.6377 C   0  0  0  0  0  0  0  0  0  0  0  0
  150.3631  138.7596  154.9676 C   0  0  0  0  0  0  0  0  0  0  0  0
  148.3503  140.2303  155.4276 C   0  0  0  0  0  0  0  0  0  0  0  0
  148.9542  140.7766  156.7198 C   0  0  0  0  0  0  0  0  0  0  0  0
  150.2848  141.5130  156.5588 C   0  0  0  0  0  0  0  0  0  0  0  0
  150.8912  141.4598  155.4891 O   0  0  0  0  0  0  0  0  0  0  0  0
  150.7275  142.1911  157.6287 N   0  0  0  0  0  0  0  0  0  0  0  0
  151.9679  142.9610  157.6957 C   0  0  1  0  0  0  0  0  0  0  0  0
  151.6825  144.4723  157.8213 C   0  0  0  0  0  0  0  0  0  0  0  0
  151.1023  144.8399  159.1975 C   0  0  0  0  0  0  0  0  0  0  0  0
  152.0118  144.3508  160.3352 C   0  0  0  0  0  0  0  0  0  0  0  0
  152.2651  142.8339  160.2448 C   0  0  2  0  0  0  0  0  0  0  0  0
  153.1765  142.3498  161.3815 C   0  0  0  0  0  0  0  0  0  0  0  0
  152.8441  142.4633  158.8629 C   0  0  0  0  0  0  0  0  0  0  0  0
  147.0159  140.7181  155.0275 C   0  0  0  0  0  0  0  0  0  0  0  0
  146.3558  141.5422  155.6584 O   0  0  0  0  0  0  0  0  0  0  0  0
  146.5327  140.1936  153.8790 N   0  0  0  0  0  0  0  0  0  0  0  0
  145.6222  140.4958  153.5638 H   0  0  0  0  0  0  0  0  0  0  0  0
  147.0837  139.0564  150.9844 H   0  0  0  0  0  0  0  0  0  0  0  0
  145.5263  139.2970  151.7854 H   0  0  0  0  0  0  0  0  0  0  0  0
  146.3452  137.7356  151.8978 H   0  0  0  0  0  0  0  0  0  0  0  0
  150.3594  138.2733  155.9429 H   0  0  0  0  0  0  0  0  0  0  0  0
  151.1082  139.5551  154.9764 H   0  0  0  0  0  0  0  0  0  0  0  0
  150.6766  138.0194  154.2305 H   0  0  0  0  0  0  0  0  0  0  0  0
  148.2544  141.4510  157.2145 H   0  0  0  0  0  0  0  0  0  0  0  0
  149.0790  139.9529  157.4234 H   0  0  0  0  0  0  0  0  0  0  0  0
  150.1614  142.1734  158.4645 H   0  0  0  0  0  0  0  0  0  0  0  0
  152.5238  142.7899  156.7720 H   0  0  0  0  0  0  0  0  0  0  0  0
  152.6120  145.0226  157.6709 H   0  0  0  0  0  0  0  0  0  0  0  0
  151.0069  144.8009  157.0306 H   0  0  0  0  0  0  0  0  0  0  0  0
  150.9719  145.9202  159.2669 H   0  0  0  0  0  0  0  0  0  0  0  0
  150.1090  144.4034  159.3085 H   0  0  0  0  0  0  0  0  0  0  0  0
  152.9612  144.8868  160.2962 H   0  0  0  0  0  0  0  0  0  0  0  0
  151.5583  144.5975  161.2959 H   0  0  0  0  0  0  0  0  0  0  0  0
  151.3065  142.3258  160.3600 H   0  0  0  0  0  0  0  0  0  0  0  0
  154.1580  142.8225  161.3322 H   0  0  0  0  0  0  0  0  0  0  0  0
  153.3239  141.2706  161.3338 H   0  0  0  0  0  0  0  0  0  0  0  0
  152.7448  142.5808  162.3558 H   0  0  0  0  0  0  0  0  0  0  0  0
  152.9801  141.3834  158.7897 H   0  0  0  0  0  0  0  0  0  0  0  0
  153.8395  142.8985  158.7648 H   0  0  0  0  0  0  0  0  0  0  0  0
  1  2  1  0  0  0  0
  1 22  1  0  0  0  0
  1 23  1  0  0  0  0
  1 24  1  0  0  0  0
  2 20  1  0  0  0  0
  2  3  2  0  0  0  0
  3  4  1  0  0  0  0
  4  5  1  0  0  0  0
  4  6  2  0  0  0  0
  5 25  1  0  0  0  0
  5 26  1  0  0  0  0
  5 27  1  0  0  0  0
  6  7  1  0  0  0  0
  6 18  1  0  0  0  0
  7  8  1  0  0  0  0
  7 28  1  0  0  0  0
  7 29  1  0  0  0  0
  8  9  2  0  0  0  0
  8 10  1  0  0  0  0
 10 11  1  0  0  0  0
 10 30  1  0  0  0  0
 11 17  1  0  0  0  0
 11 12  1  0  0  0  0
 11 31  1  0  0  0  0
 12 13  1  0  0  0  0
 12 32  1  0  0  0  0
 12 33  1  0  0  0  0
 13 14  1  0  0  0  0
 13 34  1  0  0  0  0
 13 35  1  0  0  0  0
 14 15  1  0  0  0  0
 14 36  1  0  0  0  0
 14 37  1  0  0  0  0
 15 16  1  0  0  0  0
 15 17  1  0  0  0  0
 15 38  1  0  0  0  0
 16 39  1  0  0  0  0
 16 40  1  0  0  0  0
 16 41  1  0  0  0  0
 17 42  1  0  0  0  0
 17 43  1  0  0  0  0
 18 19  2  0  0  0  0
 18 20  1  0  0  0  0
 20 21  1  0  0  0  0
M  END
> <s_m_source_file>
AV-unprocessed.smi

> <i_m_source_file_index>
2198

> <i_lp_mmshare_version>
43012

> <i_f3d_flags>
0

> <s_epik_input>
W0NIM11jMW5jKFtDSDNdKWMoYyg9TylbbkhdMSlbQ0gyXUMoPU8pW05IXVtDQEBIXTJbQ0gyXVtDSDJdW0NIMl1bQ0BASF0oW0NIM10pW0NIMl0y

> <s_epik_cmdline>
J2VwaWtfcHl0aG9uJywgJy1waCcsICc3LjAnLCAnLXRuJywgJzgnLCAnLW1hJywgJzIwMCcsICctbWV0YWxfYmluZGluZycsICctaW1hZScsICc8aW5maWxlLm1hZT4nLCAnLW9tYWUnLCAnPG91dGZpbGUubWFlPic=

> <r_lp_tautomer_probability>
0.839158

> <r_epik_Ionization_Penalty>
0.000372587

> <r_epik_Ionization_Penalty_Charging>
0.000337977

> <r_epik_Ionization_Penalty_Neutral>
3.46101e-05

> <r_epik_State_Penalty>
0.09125

> <r_epik_Charging_Adjusted_Penalty>
0.091588

> <i_epik_Tot_Q>
0

> <i_epik_Tot_abs_Q>
0

> <r_epik_Metal_State_Penalty>
0.25197

> <b_epik_Metal_Only>
0

> <s_lp_Force_Field>
OPLS_2005

> <r_lp_Energy>
10.5346

> <b_lp_Chiralities_Consistent>
1

> <s_lp_Variant>
AV-unprocessed.smi:2198-4

> <Gold.Version>
5.8.1

> <Gold.Id.Protein>
6NUR|6NUR_protein|mol2

> <Gold.PLP.Fitness>
40.0758

> <Gold.PLP.PLP>
-37.9689

> <Gold.PLP.part.hbond>
-1.5135

> <Gold.PLP.part.metal>
0.0000

> <Gold.PLP.part.buried>
-5.0437

> <Gold.PLP.part.nonpolar>
-32.9527

> <Gold.PLP.part.repulsive>
1.4190

> <Gold.PLP.ligand.clash>
0.0000

> <Gold.PLP.ligand.torsion>
0.1430

> <Gold.PLP.Chemscore.Hbond>
0.7950

> <Gold.PLP.Chemscore.CHOScore>
0.0000

> <Gold.PLP.Chemscore.Metal>
0.0000

> <Gold.Chemscore.Hbonds>
donor molecule, donor type, donor heavy atom, donor atom, acceptor molecule, acceptor atom, score
      L1  H    20    21       P1 10175  0.52
      P1  H  7989  7998       L1     9  0.29

> <Gold.PLP.Chemscore.Internal.Correction>
0.0080

> <Gold.Rescore>
     Score         DG    S(hbond)    S(metal)    S(lipo)     H(rot)  DE(clash)    DE(int)     intcor
     14.53     -17.26       1.14        0.00     100.63       1.48       0.22       2.51       ----

> <Gold.Chemscore.Fitness>
14.5339

> <Gold.Chemscore.DG>
-17.2565

> <Gold.Chemscore.ZeroCoef>
-5.4800

> <Gold.Chemscore.Hbond>
1.1353

> <Gold.Chemscore.Metal>
0.0000

> <Gold.Chemscore.Lipo>
100.6308

> <Gold.Chemscore.Internal_Hbond>
0.0000

> <Gold.Chemscore.DEClash>
0.2165

> <Gold.Chemscore.DEInternal>
2.5061

> <Gold.Chemscore.Rot>
1.4801

> <Gold.Chemscore.Internal.Correction>
   9.000000E+99

> <Gold.Chemscore.Hbonds>
donor molecule, donor type, donor heavy atom, donor atom, acceptor molecule, acceptor atom, score
      L1  H    20    21       P1 10175  0.51
      P1  H  7989  7998       L1     9  0.29

> <Gold.Chemscore.Hbond.Weighted>
-3.7918

> <Gold.Chemscore.Metal.Weighted>
-0.0000

> <Gold.Chemscore.Lipo.Weighted>
-11.7738

> <Gold.Chemscore.Internal_Hbond.Weighted>
0.0000

> <Gold.Chemscore.DEClash.Weighted>
0.2165

> <Gold.Chemscore.DEInternal.Weighted>
2.5061

> <Gold.Chemscore.Rot.Weighted>
3.7891

> <Gold.Chemscore.Internal.Correction.Weighted>
   9.000000E+99

> <Gold.Protein.RotatedTorsions>
[ 6907 6896 6895 6894 ] final  179.17 input  -60.11 | X-H torsion
[ 7974 7965 7964 7962 ] final  -66.34 input  175.53 | X-H torsion
[ 8008 7997 7996 7995 ] final   26.72 input   59.86 | X-H torsion
[ 10167 10162 10161 10158 ] final   -3.87 input  -65.29 | X-H torsion
[ 10718 10713 10712 10709 ] final -121.15 input   66.30 | X-H torsion
[ 10763 10752 10751 10750 ] final   24.84 input  -60.55 | X-H torsion
[ 11005 11000 10999 10996 ] final   77.95 input  -57.11 | X-H torsion

> <Gold.Protein.ActiveResidues>
 VAL166  LYS551  ARG553  GLY616  TRP617  ASP618  TYR619  PRO620  LYS621  CYS622 
 ASP623  PHE694  ASN695  SER759  ASP760  ASP761  ALA762  ILE779  LEU786  VAL792 
 PHE793  MET794  SER795  GLU796  ALA797  LYS798  CYS799  TRP800  GLU811  SER814 

> <Gold.Protein.RotatedAtoms>
  151.6760  133.3313  159.3207 H   0  0  0  0  0  0  0  0  0  0  0  0  # atno 6907 bound_to 6896
  150.7845  134.6822  159.6459 H   0  0  0  0  0  0  0  0  0  0  0  0  # atno 6908 bound_to 6896
  152.3911  134.6443  160.0159 H   0  0  0  0  0  0  0  0  0  0  0  0  # atno 6909 bound_to 6896
  145.7429  140.8945  143.0520 H   0  0  0  0  0  0  0  0  0  0  0  0  # atno 7974 bound_to 7965
  155.0317  140.3159  155.4756 H   0  0  0  0  0  0  0  0  0  0  0  0  # atno 8008 bound_to 7997
  156.2872  140.2179  156.5381 H   0  0  0  0  0  0  0  0  0  0  0  0  # atno 8009 bound_to 7997
  154.7365  140.0477  157.0761 H   0  0  0  0  0  0  0  0  0  0  0  0  # atno 8010 bound_to 7997
  140.6906  143.6489  150.8367 H   0  0  0  0  0  0  0  0  0  0  0  0  # atno 10167 bound_to 10162
  156.1314  130.6398  150.9627 H   0  0  0  0  0  0  0  0  0  0  0  0  # atno 10718 bound_to 10713
  153.0735  135.6596  154.0197 H   0  0  0  0  0  0  0  0  0  0  0  0  # atno 10763 bound_to 10752
  153.9836  135.2953  155.3419 H   0  0  0  0  0  0  0  0  0  0  0  0  # atno 10764 bound_to 10752
  154.7116  135.5203  153.8745 H   0  0  0  0  0  0  0  0  0  0  0  0  # atno 10765 bound_to 10752
  139.9233  134.7724  156.1588 H   0  0  0  0  0  0  0  0  0  0  0  0  # atno 11005 bound_to 11000
  144.6866  139.9486  143.7477 LP  0  0  0  0  0  0  0  0  0  0  0  0  # atno 17320 bound_to 7965
  146.0430  139.3439  143.0686 LP  0  0  0  0  0  0  0  0  0  0  0  0  # atno 17321 bound_to 7965
  140.0202  143.5550  152.2803 LP  0  0  0  0  0  0  0  0  0  0  0  0  # atno 17342 bound_to 10162
  139.6306  144.7643  151.2545 LP  0  0  0  0  0  0  0  0  0  0  0  0  # atno 17343 bound_to 10162
  157.6492  131.0899  150.8088 LP  0  0  0  0  0  0  0  0  0  0  0  0  # atno 17370 bound_to 10713
  156.8173  130.4972  149.5348 LP  0  0  0  0  0  0  0  0  0  0  0  0  # atno 17371 bound_to 10713
  141.0771  133.6771  156.2258 LP  0  0  0  0  0  0  0  0  0  0  0  0  # atno 17394 bound_to 11000
  140.6411  134.5165  157.5569 LP  0  0  0  0  0  0  0  0  0  0  0  0  # atno 17395 bound_to 11000

$$$$
