AV-unprocessed.smi:136|AV-procd|sdf|1171|dock6
  -GOLD-   2262018313D 1   1.00000     0.00000
 Structure written by MMmdl.
 54 58  0  0  0  0  0  0  0  0  1 V2000
  154.4444  135.7824  157.1246 O   0  0  0  0  0  0  0  0  0  0  0  0
  154.5998  136.9853  157.3444 C   0  0  0  0  0  0  0  0  0  0  0  0
  156.0222  137.5846  157.3588 C   0  0  0  0  0  0  0  0  0  0  0  0
  156.8944  137.0504  156.2893 N   0  0  0  0  0  0  0  0  0  0  0  0
  157.1525  137.8627  155.1570 C   0  0  0  0  0  0  0  0  0  0  0  0
  156.6808  138.9968  155.0638 O   0  0  0  0  0  0  0  0  0  0  0  0
  157.9933  137.2607  154.1284 C   0  0  0  0  0  0  0  0  0  0  0  0
  158.2917  137.9597  153.0201 F   0  0  0  0  0  0  0  0  0  0  0  0
  158.4763  136.0091  154.2695 C   0  0  0  0  0  0  0  0  0  0  0  0
  158.2127  135.2258  155.3791 N   0  0  0  0  0  0  0  0  0  0  0  0
  158.7563  133.8199  155.5186 C   0  0  2  0  0  0  0  0  0  0  0  0
  159.6625  133.7121  156.7587 C   0  0  0  0  0  0  0  0  0  0  0  0
  160.9089  133.0538  156.2027 C   0  0  0  0  0  0  0  0  0  0  0  0
  160.9151  133.5562  154.7668 C   0  0  0  0  0  0  0  0  0  0  0  0
  159.5414  133.5001  154.4048 O   0  0  0  0  0  0  0  0  0  0  0  0
  157.4032  135.7362  156.4170 C   0  0  0  0  0  0  0  0  0  0  0  0
  157.1457  135.0482  157.4074 O   0  0  0  0  0  0  0  0  0  0  0  0
  153.5540  137.8072  157.5846 N   0  0  0  0  0  0  0  0  0  0  0  0
  153.6946  139.1075  157.9471 N   0  0  0  0  0  0  0  0  0  0  0  0
  152.5451  139.6090  158.2116 C   0  0  0  0  0  0  0  0  0  0  0  0
  152.3160  141.0102  158.6286 C   0  0  0  0  0  0  0  0  0  0  0  0
  151.3124  141.7712  157.9870 C   0  0  0  0  0  0  0  0  0  0  0  0
  151.0895  143.1029  158.3890 C   0  0  0  0  0  0  0  0  0  0  0  0
  151.8631  143.6702  159.4215 C   0  0  0  0  0  0  0  0  0  0  0  0
  151.5837  145.3010  159.9105 Cl  0  0  0  0  0  0  0  0  0  0  0  0
  152.8643  142.9075  160.0560 C   0  0  0  0  0  0  0  0  0  0  0  0
  153.0959  141.5747  159.6634 C   0  0  0  0  0  0  0  0  0  0  0  0
  151.4166  138.6470  158.0505 C   0  0  0  0  0  0  0  0  0  0  0  0
  152.1463  137.3902  157.5710 C   0  0  1  0  0  0  0  0  0  0  0  0
  151.6833  136.9217  156.2226 C   0  0  0  0  0  0  0  0  0  0  0  0
  151.0000  135.8163  155.7972 C   0  0  0  0  0  0  0  0  0  0  0  0
  150.8565  135.9504  154.3886 C   0  0  0  0  0  0  0  0  0  0  0  0
  151.4572  137.1318  154.0592 C   0  0  0  0  0  0  0  0  0  0  0  0
  151.9619  137.7394  155.1664 O   0  0  0  0  0  0  0  0  0  0  0  0
  155.9504  138.6707  157.2800 H   0  0  0  0  0  0  0  0  0  0  0  0
  156.4606  137.4163  158.3436 H   0  0  0  0  0  0  0  0  0  0  0  0
  159.0890  135.6214  153.4705 H   0  0  0  0  0  0  0  0  0  0  0  0
  157.8851  133.1629  155.5422 H   0  0  0  0  0  0  0  0  0  0  0  0
  159.8974  134.7066  157.1419 H   0  0  0  0  0  0  0  0  0  0  0  0
  159.1819  133.1323  157.5471 H   0  0  0  0  0  0  0  0  0  0  0  0
  161.8134  133.3176  156.7515 H   0  0  0  0  0  0  0  0  0  0  0  0
  160.8006  131.9685  156.2189 H   0  0  0  0  0  0  0  0  0  0  0  0
  161.2761  134.5843  154.7180 H   0  0  0  0  0  0  0  0  0  0  0  0
  161.5291  132.9433  154.1069 H   0  0  0  0  0  0  0  0  0  0  0  0
  150.7076  141.3540  157.1948 H   0  0  0  0  0  0  0  0  0  0  0  0
  150.3219  143.6884  157.9046 H   0  0  0  0  0  0  0  0  0  0  0  0
  153.4563  143.3442  160.8470 H   0  0  0  0  0  0  0  0  0  0  0  0
  153.8686  141.0122  160.1657 H   0  0  0  0  0  0  0  0  0  0  0  0
  150.9039  138.4753  158.9976 H   0  0  0  0  0  0  0  0  0  0  0  0
  150.6922  139.0100  157.3198 H   0  0  0  0  0  0  0  0  0  0  0  0
  152.0110  136.5901  158.3011 H   0  0  0  0  0  0  0  0  0  0  0  0
  150.6510  135.0086  156.4233 H   0  0  0  0  0  0  0  0  0  0  0  0
  150.3746  135.2691  153.7029 H   0  0  0  0  0  0  0  0  0  0  0  0
  151.6079  137.6647  153.1321 H   0  0  0  0  0  0  0  0  0  0  0  0
  1  2  2  0  0  0  0
  2  3  1  0  0  0  0
  2 18  1  0  0  0  0
  3  4  1  0  0  0  0
  3 35  1  0  0  0  0
  3 36  1  0  0  0  0
  4 16  1  0  0  0  0
  4  5  1  0  0  0  0
  5  6  2  0  0  0  0
  5  7  1  0  0  0  0
  7  8  1  0  0  0  0
  7  9  2  0  0  0  0
  9 10  1  0  0  0  0
  9 37  1  0  0  0  0
 10 11  1  0  0  0  0
 10 16  1  0  0  0  0
 11 15  1  0  0  0  0
 11 12  1  0  0  0  0
 11 38  1  0  0  0  0
 12 13  1  0  0  0  0
 12 39  1  0  0  0  0
 12 40  1  0  0  0  0
 13 14  1  0  0  0  0
 13 41  1  0  0  0  0
 13 42  1  0  0  0  0
 14 15  1  0  0  0  0
 14 43  1  0  0  0  0
 14 44  1  0  0  0  0
 16 17  2  0  0  0  0
 18 29  1  0  0  0  0
 18 19  1  0  0  0  0
 19 20  2  0  0  0  0
 20 21  1  0  0  0  0
 20 28  1  0  0  0  0
 21 27  1  0  0  0  0
 21 22  2  0  0  0  0
 22 23  1  0  0  0  0
 22 45  1  0  0  0  0
 23 24  2  0  0  0  0
 23 46  1  0  0  0  0
 24 25  1  0  0  0  0
 24 26  1  0  0  0  0
 26 27  2  0  0  0  0
 26 47  1  0  0  0  0
 27 48  1  0  0  0  0
 28 29  1  0  0  0  0
 28 49  1  0  0  0  0
 28 50  1  0  0  0  0
 29 30  1  0  0  0  0
 29 51  1  0  0  0  0
 30 34  1  0  0  0  0
 30 31  2  0  0  0  0
 31 32  1  0  0  0  0
 31 52  1  0  0  0  0
 32 33  2  0  0  0  0
 32 53  1  0  0  0  0
 33 34  1  0  0  0  0
 33 54  1  0  0  0  0
M  END
> <s_m_source_file>
AV-unprocessed.smi

> <i_m_source_file_index>
136

> <i_lp_mmshare_version>
43012

> <i_f3d_flags>
0

> <s_epik_input>
bzFbY0hdW2NIXVtjSF1jMVtDQEBIXTJbQ0gyXUMoYzNbY0hdW2NIXWMoQ2wpW2NIXVtjSF0zKT1OTjJDKD1PKVtDSDJdbjRjKD1PKWMoRilbY0hdbihjND1PKVtDQEBIXTVbQ0gyXVtDSDJdW0NIMl1PNQ==

> <s_epik_cmdline>
J2VwaWtfcHl0aG9uJywgJy1waCcsICc3LjAnLCAnLXRuJywgJzgnLCAnLW1hJywgJzIwMCcsICctbWV0YWxfYmluZGluZycsICctaW1hZScsICc8aW5maWxlLm1hZT4nLCAnLW9tYWUnLCAnPG91dGZpbGUubWFlPic=

> <r_lp_tautomer_probability>
1

> <r_epik_Ionization_Penalty>
2.55467e-08

> <r_epik_Ionization_Penalty_Charging>
4.85705e-09

> <r_epik_Ionization_Penalty_Neutral>
2.06897e-08

> <r_epik_State_Penalty>
-0

> <r_epik_Charging_Adjusted_Penalty>
4.85705e-09

> <i_epik_Tot_Q>
0

> <i_epik_Tot_abs_Q>
0

> <r_epik_Metal_State_Penalty>
-0

> <b_epik_Metal_Only>
0

> <s_epik_Chemistry_Notes>
This compound has an imine and may undergo hydrolysis. This compound contains an acetal/aminal-like group ( X-CH(R)-Y where X, Y are N, S, or O) that may be acid/base labile, releasing an aldehyde.

> <s_lp_Force_Field>
OPLS_2005

> <r_lp_Energy>
40.8333

> <b_lp_Chiralities_Consistent>
1

> <s_lp_Variant>
AV-unprocessed.smi:136-1

> <Gold.Version>
5.8.1

> <Gold.Id.Protein>
6NUR|6NUR_protein|mol2

> <Gold.PLP.Fitness>
58.7071

> <Gold.PLP.PLP>
-50.4947

> <Gold.PLP.part.hbond>
-2.8146

> <Gold.PLP.part.metal>
0.0000

> <Gold.PLP.part.buried>
-4.0040

> <Gold.PLP.part.nonpolar>
-43.9989

> <Gold.PLP.part.repulsive>
0.0906

> <Gold.PLP.ligand.clash>
0.0000

> <Gold.PLP.ligand.torsion>
1.4712

> <Gold.PLP.Chemscore.Hbond>
2.7440

> <Gold.PLP.Chemscore.CHOScore>
0.9556

> <Gold.PLP.Chemscore.Metal>
0.0000

> <Gold.Chemscore.Hbonds>
donor molecule, donor type, donor heavy atom, donor atom, acceptor molecule, acceptor atom, score
      P1  H  7997  8008       L1     6  0.26
      P1  H  7997  8010       L1    19  0.98
      P1  H 10752 10763       L1     1  1.00
      L1  C    33    54       P1  7949  0.46

> <Gold.PLP.Chemscore.Internal.Correction>
0.0560

> <Gold.Rescore>
     Score         DG    S(hbond)    S(metal)    S(lipo)     H(rot)  DE(clash)    DE(int)     intcor
     21.50     -26.57       2.60        0.00     145.62       1.81       1.10       3.97       ----

> <Gold.Chemscore.Fitness>
21.4952

> <Gold.Chemscore.DG>
-26.5685

> <Gold.Chemscore.ZeroCoef>
-5.4800

> <Gold.Chemscore.Hbond>
2.5967

> <Gold.Chemscore.Metal>
0.0000

> <Gold.Chemscore.Lipo>
145.6231

> <Gold.Chemscore.Internal_Hbond>
0.0000

> <Gold.Chemscore.DEClash>
1.0985

> <Gold.Chemscore.DEInternal>
3.9748

> <Gold.Chemscore.Rot>
1.8056

> <Gold.Chemscore.Internal.Correction>
   9.000000E+99

> <Gold.Chemscore.Hbonds>
donor molecule, donor type, donor heavy atom, donor atom, acceptor molecule, acceptor atom, score
      P1  H  7997  8008       L1     6  0.26
      P1  H  7997  8010       L1    19  0.58
      P1  H 10752 10763       L1     1  0.94

> <Gold.Chemscore.Hbond.Weighted>
-8.6730

> <Gold.Chemscore.Metal.Weighted>
-0.0000

> <Gold.Chemscore.Lipo.Weighted>
-17.0379

> <Gold.Chemscore.Internal_Hbond.Weighted>
0.0000

> <Gold.Chemscore.DEClash.Weighted>
1.0985

> <Gold.Chemscore.DEInternal.Weighted>
3.9748

> <Gold.Chemscore.Rot.Weighted>
4.6223

> <Gold.Chemscore.Internal.Correction.Weighted>
   9.000000E+99

> <Gold.Protein.RotatedTorsions>
[ 6907 6896 6895 6894 ] final -153.79 input  -60.11 | X-H torsion
[ 7974 7965 7964 7962 ] final  115.87 input  175.53 | X-H torsion
[ 8008 7997 7996 7995 ] final   51.66 input   59.86 | X-H torsion
[ 10167 10162 10161 10158 ] final   50.01 input  -65.29 | X-H torsion
[ 10718 10713 10712 10709 ] final  -52.64 input   66.30 | X-H torsion
[ 10763 10752 10751 10750 ] final  153.62 input  -60.55 | X-H torsion
[ 11005 11000 10999 10996 ] final  -86.15 input  -57.11 | X-H torsion

> <Gold.Protein.ActiveResidues>
 VAL166  LYS551  ARG553  GLY616  TRP617  ASP618  TYR619  PRO620  LYS621  CYS622 
 ASP623  PHE694  ASN695  SER759  ASP760  ASP761  ALA762  ILE779  LEU786  VAL792 
 PHE793  MET794  SER795  GLU796  ALA797  LYS798  CYS799  TRP800  GLU811  SER814 

> <Gold.Protein.RotatedAtoms>
  151.2478  133.4366  159.2609 H   0  0  0  0  0  0  0  0  0  0  0  0  # atno 6907 bound_to 6896
  151.0645  134.9759  159.8287 H   0  0  0  0  0  0  0  0  0  0  0  0  # atno 6908 bound_to 6896
  152.5403  134.2427  159.8921 H   0  0  0  0  0  0  0  0  0  0  0  0  # atno 6909 bound_to 6896
  145.1866  139.3022  143.4390 H   0  0  0  0  0  0  0  0  0  0  0  0  # atno 7974 bound_to 7965
  155.4390  140.3453  155.4288 H   0  0  0  0  0  0  0  0  0  0  0  0  # atno 8008 bound_to 7997
  156.1290  140.1509  156.9124 H   0  0  0  0  0  0  0  0  0  0  0  0  # atno 8009 bound_to 7997
  154.4880  140.0849  156.7510 H   0  0  0  0  0  0  0  0  0  0  0  0  # atno 8010 bound_to 7997
  140.2769  144.3201  150.6274 H   0  0  0  0  0  0  0  0  0  0  0  0  # atno 10167 bound_to 10162
  156.1604  130.4150  149.9803 H   0  0  0  0  0  0  0  0  0  0  0  0  # atno 10718 bound_to 10713
  154.1392  135.2822  155.3165 H   0  0  0  0  0  0  0  0  0  0  0  0  # atno 10763 bound_to 10752
  154.6299  135.5439  153.7672 H   0  0  0  0  0  0  0  0  0  0  0  0  # atno 10764 bound_to 10752
  153.0256  135.6460  154.1540 H   0  0  0  0  0  0  0  0  0  0  0  0  # atno 10765 bound_to 10752
  141.1633  133.7438  156.9119 H   0  0  0  0  0  0  0  0  0  0  0  0  # atno 11005 bound_to 11000
  146.3444  140.2064  142.8589 LP  0  0  0  0  0  0  0  0  0  0  0  0  # atno 17320 bound_to 7965
  145.0083  140.8692  143.5240 LP  0  0  0  0  0  0  0  0  0  0  0  0  # atno 17321 bound_to 7965
  140.5844  143.2171  151.7370 LP  0  0  0  0  0  0  0  0  0  0  0  0  # atno 17342 bound_to 10162
  139.4973  144.4033  152.0158 LP  0  0  0  0  0  0  0  0  0  0  0  0  # atno 17343 bound_to 10162
  156.7634  130.9159  151.3642 LP  0  0  0  0  0  0  0  0  0  0  0  0  # atno 17370 bound_to 10713
  157.6728  130.9066  150.0079 LP  0  0  0  0  0  0  0  0  0  0  0  0  # atno 17371 bound_to 10713
  140.1511  134.9229  157.2594 LP  0  0  0  0  0  0  0  0  0  0  0  0  # atno 17394 bound_to 11000
  140.2722  134.3447  155.7370 LP  0  0  0  0  0  0  0  0  0  0  0  0  # atno 17395 bound_to 11000

$$$$
