AV-unprocessed.smi:418|AV-procd|sdf|2528|dock9
  -GOLD-   2262022483D 1   1.00000     0.00000
 Structure written by MMmdl.
 40 42  0  0  0  0  0  0  0  0  1 V2000
  153.7742  140.5886  160.0110 C   0  0  0  0  0  0  0  0  0  0  0  0
  152.8315  141.3634  159.2131 N   0  0  0  0  0  0  0  0  0  0  0  0
  152.3327  141.0400  157.9970 C   0  0  0  0  0  0  0  0  0  0  0  0
  152.5965  140.0260  157.3512 O   0  0  0  0  0  0  0  0  0  0  0  0
  151.4957  142.0322  157.6102 N   0  0  0  0  0  0  0  0  0  0  0  0
  150.7410  142.0944  156.3601 C   0  0  0  0  0  0  0  0  0  0  0  0
  150.3078  140.6927  155.8846 C   0  0  2  0  0  0  0  0  0  0  0  0
  151.2484  140.2258  154.9387 O   0  0  0  0  0  0  0  0  0  0  0  0
  148.9369  140.7154  155.1919 C   0  0  0  0  0  0  0  0  0  0  0  0
  147.9812  141.2655  156.0890 O   0  0  0  0  0  0  0  0  0  0  0  0
  146.9197  141.9716  155.5648 C   0  0  0  0  0  0  0  0  0  0  0  0
  146.7681  142.2736  154.1873 C   0  0  0  0  0  0  0  0  0  0  0  0
  145.6528  143.0064  153.7361 C   0  0  0  0  0  0  0  0  0  0  0  0
  144.6774  143.4439  154.6508 C   0  0  0  0  0  0  0  0  0  0  0  0
  144.8176  143.1462  156.0186 C   0  0  0  0  0  0  0  0  0  0  0  0
  145.9322  142.4137  156.4711 C   0  0  0  0  0  0  0  0  0  0  0  0
  146.0554  142.1346  157.7910 F   0  0  0  0  0  0  0  0  0  0  0  0
  151.4645  143.0209  158.6041 C   0  0  0  0  0  0  0  0  0  0  0  0
  150.7695  144.2409  158.6779 C   0  0  0  0  0  0  0  0  0  0  0  0
  150.9620  145.0250  159.8395 C   0  0  0  0  0  0  0  0  0  0  0  0
  151.8232  144.5865  160.8788 C   0  0  0  0  0  0  0  0  0  0  0  0
  152.5124  143.3552  160.7779 C   0  0  0  0  0  0  0  0  0  0  0  0
  152.3041  142.5977  159.6129 C   0  0  0  0  0  0  0  0  0  0  0  0
  154.0787  139.6692  159.5095 H   0  0  0  0  0  0  0  0  0  0  0  0
  153.3245  140.3185  160.9667 H   0  0  0  0  0  0  0  0  0  0  0  0
  154.6712  141.1757  160.2091 H   0  0  0  0  0  0  0  0  0  0  0  0
  149.8587  142.7105  156.5412 H   0  0  0  0  0  0  0  0  0  0  0  0
  151.3038  142.6178  155.5863 H   0  0  0  0  0  0  0  0  0  0  0  0
  150.2719  139.9898  156.7181 H   0  0  0  0  0  0  0  0  0  0  0  0
  151.7800  139.5608  155.3489 H   0  0  0  0  0  0  0  0  0  0  0  0
  148.9927  141.3024  154.2733 H   0  0  0  0  0  0  0  0  0  0  0  0
  148.6383  139.6990  154.9285 H   0  0  0  0  0  0  0  0  0  0  0  0
  147.4937  141.9539  153.4552 H   0  0  0  0  0  0  0  0  0  0  0  0
  145.5468  143.2330  152.6855 H   0  0  0  0  0  0  0  0  0  0  0  0
  143.8231  144.0063  154.3040 H   0  0  0  0  0  0  0  0  0  0  0  0
  144.0702  143.4809  156.7229 H   0  0  0  0  0  0  0  0  0  0  0  0
  150.1163  144.5717  157.8840 H   0  0  0  0  0  0  0  0  0  0  0  0
  150.4470  145.9695  159.9363 H   0  0  0  0  0  0  0  0  0  0  0  0
  151.9549  145.2007  161.7574 H   0  0  0  0  0  0  0  0  0  0  0  0
  153.1709  143.0149  161.5636 H   0  0  0  0  0  0  0  0  0  0  0  0
  1  2  1  0  0  0  0
  1 24  1  0  0  0  0
  1 25  1  0  0  0  0
  1 26  1  0  0  0  0
  2 23  1  0  0  0  0
  2  3  1  0  0  0  0
  3  4  2  0  0  0  0
  3  5  1  0  0  0  0
  5  6  1  0  0  0  0
  5 18  1  0  0  0  0
  6  7  1  0  0  0  0
  6 27  1  0  0  0  0
  6 28  1  0  0  0  0
  7  8  1  0  0  0  0
  7  9  1  0  0  0  0
  7 29  1  0  0  0  0
  8 30  1  0  0  0  0
  9 10  1  0  0  0  0
  9 31  1  0  0  0  0
  9 32  1  0  0  0  0
 10 11  1  0  0  0  0
 11 16  1  0  0  0  0
 11 12  2  0  0  0  0
 12 13  1  0  0  0  0
 12 33  1  0  0  0  0
 13 14  2  0  0  0  0
 13 34  1  0  0  0  0
 14 15  1  0  0  0  0
 14 35  1  0  0  0  0
 15 16  2  0  0  0  0
 15 36  1  0  0  0  0
 16 17  1  0  0  0  0
 18 23  2  0  0  0  0
 18 19  1  0  0  0  0
 19 20  2  0  0  0  0
 19 37  1  0  0  0  0
 20 21  1  0  0  0  0
 20 38  1  0  0  0  0
 21 22  2  0  0  0  0
 21 39  1  0  0  0  0
 22 23  1  0  0  0  0
 22 40  1  0  0  0  0
M  END
> <s_m_source_file>
AV-unprocessed.smi

> <i_m_source_file_index>
418

> <i_lp_mmshare_version>
43012

> <i_f3d_flags>
0

> <s_epik_input>
W2NIXTFbY0hdW2NIXVtjSF1jKGMxMiluKFtDSDNdKWMoPU8pbjJbQ0gyXVtDQEhdKFtPSF0pW0NIMl1PYzNbY0hdW2NIXVtjSF1bY0hdYzNG

> <s_epik_cmdline>
J2VwaWtfcHl0aG9uJywgJy1waCcsICc3LjAnLCAnLXRuJywgJzgnLCAnLW1hJywgJzIwMCcsICctbWV0YWxfYmluZGluZycsICctaW1hZScsICc8aW5maWxlLm1hZT4nLCAnLW9tYWUnLCAnPG91dGZpbGUubWFlPic=

> <r_lp_tautomer_probability>
1

> <r_epik_Ionization_Penalty>
2.40171e-06

> <r_epik_Ionization_Penalty_Charging>
2.41238e-09

> <r_epik_Ionization_Penalty_Neutral>
2.3993e-06

> <r_epik_State_Penalty>
-0

> <r_epik_Charging_Adjusted_Penalty>
2.41238e-09

> <i_epik_Tot_Q>
0

> <i_epik_Tot_abs_Q>
0

> <r_epik_Metal_State_Penalty>
-0

> <b_epik_Metal_Only>
0

> <s_lp_Force_Field>
OPLS_2005

> <r_lp_Energy>
46.4637

> <b_lp_Chiralities_Consistent>
1

> <s_lp_Variant>
AV-unprocessed.smi:418-1

> <Gold.Version>
5.8.1

> <Gold.Id.Protein>
6NUR|6NUR_protein|mol2

> <Gold.PLP.Fitness>
56.1134

> <Gold.PLP.PLP>
-52.2461

> <Gold.PLP.part.hbond>
-2.0000

> <Gold.PLP.part.metal>
0.0000

> <Gold.PLP.part.buried>
-8.2716

> <Gold.PLP.part.nonpolar>
-42.2745

> <Gold.PLP.part.repulsive>
0.1021

> <Gold.PLP.ligand.clash>
0.0000

> <Gold.PLP.ligand.torsion>
1.0756

> <Gold.PLP.Chemscore.Hbond>
2.0000

> <Gold.PLP.Chemscore.CHOScore>
0.0000

> <Gold.PLP.Chemscore.Metal>
0.0000

> <Gold.Chemscore.Hbonds>
donor molecule, donor type, donor heavy atom, donor atom, acceptor molecule, acceptor atom, score
      P1  H  7989  7998       L1     8  1.00
      P1  H  7997  8010       L1     4  1.00

> <Gold.PLP.Chemscore.Internal.Correction>
0.0184

> <Gold.Rescore>
     Score         DG    S(hbond)    S(metal)    S(lipo)     H(rot)  DE(clash)    DE(int)     intcor
     18.11     -20.51       1.88        0.00     124.51       2.27       0.15       2.25       ----

> <Gold.Chemscore.Fitness>
18.1108

> <Gold.Chemscore.DG>
-20.5076

> <Gold.Chemscore.ZeroCoef>
-5.4800

> <Gold.Chemscore.Hbond>
1.8782

> <Gold.Chemscore.Metal>
0.0000

> <Gold.Chemscore.Lipo>
124.5067

> <Gold.Chemscore.Internal_Hbond>
0.0000

> <Gold.Chemscore.DEClash>
0.1456

> <Gold.Chemscore.DEInternal>
2.2512

> <Gold.Chemscore.Rot>
2.2706

> <Gold.Chemscore.Internal.Correction>
   9.000000E+99

> <Gold.Chemscore.Hbonds>
donor molecule, donor type, donor heavy atom, donor atom, acceptor molecule, acceptor atom, score
      P1  H  7989  7998       L1     8  0.97
      P1  H  7997  8010       L1     4  0.73

> <Gold.Chemscore.Hbond.Weighted>
-6.2731

> <Gold.Chemscore.Metal.Weighted>
-0.0000

> <Gold.Chemscore.Lipo.Weighted>
-14.5673

> <Gold.Chemscore.Internal_Hbond.Weighted>
0.0000

> <Gold.Chemscore.DEClash.Weighted>
0.1456

> <Gold.Chemscore.DEInternal.Weighted>
2.2512

> <Gold.Chemscore.Rot.Weighted>
5.8128

> <Gold.Chemscore.Internal.Correction.Weighted>
   9.000000E+99

> <Gold.Protein.RotatedTorsions>
[ 6907 6896 6895 6894 ] final  107.56 input  -60.11 | X-H torsion
[ 7974 7965 7964 7962 ] final -126.12 input  175.53 | X-H torsion
[ 8008 7997 7996 7995 ] final   55.73 input   59.86 | X-H torsion
[ 10167 10162 10161 10158 ] final -105.74 input  -65.29 | X-H torsion
[ 10718 10713 10712 10709 ] final    7.51 input   66.30 | X-H torsion
[ 10763 10752 10751 10750 ] final  134.30 input  -60.55 | X-H torsion
[ 11005 11000 10999 10996 ] final  155.08 input  -57.11 | X-H torsion

> <Gold.Protein.ActiveResidues>
 VAL166  LYS551  ARG553  GLY616  TRP617  ASP618  TYR619  PRO620  LYS621  CYS622 
 ASP623  PHE694  ASN695  SER759  ASP760  ASP761  ALA762  ILE779  LEU786  VAL792 
 PHE793  MET794  SER795  GLU796  ALA797  LYS798  CYS799  TRP800  GLU811  SER814 

> <Gold.Protein.RotatedAtoms>
  152.5149  133.9217  159.7537 H   0  0  0  0  0  0  0  0  0  0  0  0  # atno 6907 bound_to 6896
  150.9587  133.6461  159.2765 H   0  0  0  0  0  0  0  0  0  0  0  0  # atno 6908 bound_to 6896
  151.3713  135.0928  159.9519 H   0  0  0  0  0  0  0  0  0  0  0  0  # atno 6909 bound_to 6896
  144.9906  140.7728  143.4556 H   0  0  0  0  0  0  0  0  0  0  0  0  # atno 7974 bound_to 7965
  155.5059  140.3476  155.4379 H   0  0  0  0  0  0  0  0  0  0  0  0  # atno 8008 bound_to 7997
  156.0882  140.1404  156.9653 H   0  0  0  0  0  0  0  0  0  0  0  0  # atno 8009 bound_to 7997
  154.4619  140.0931  156.6893 H   0  0  0  0  0  0  0  0  0  0  0  0  # atno 8010 bound_to 7997
  140.1953  143.3860  152.1173 H   0  0  0  0  0  0  0  0  0  0  0  0  # atno 10167 bound_to 10162
  156.9380  130.5851  149.5651 H   0  0  0  0  0  0  0  0  0  0  0  0  # atno 10718 bound_to 10713
  153.8213  135.3116  155.3410 H   0  0  0  0  0  0  0  0  0  0  0  0  # atno 10763 bound_to 10752
  154.8012  135.4726  154.0282 H   0  0  0  0  0  0  0  0  0  0  0  0  # atno 10764 bound_to 10752
  153.1692  135.6875  153.8722 H   0  0  0  0  0  0  0  0  0  0  0  0  # atno 10765 bound_to 10752
  140.1549  134.8650  157.2501 H   0  0  0  0  0  0  0  0  0  0  0  0  # atno 11005 bound_to 11000
  145.2291  139.2123  143.5052 LP  0  0  0  0  0  0  0  0  0  0  0  0  # atno 17320 bound_to 7965
  146.3430  140.2165  142.8591 LP  0  0  0  0  0  0  0  0  0  0  0  0  # atno 17321 bound_to 7965
  139.5239  144.7077  151.5303 LP  0  0  0  0  0  0  0  0  0  0  0  0  # atno 17342 bound_to 10162
  140.6428  143.8855  150.6708 LP  0  0  0  0  0  0  0  0  0  0  0  0  # atno 17343 bound_to 10162
  156.0417  130.5499  150.8786 LP  0  0  0  0  0  0  0  0  0  0  0  0  # atno 17370 bound_to 10713
  157.5803  131.0946  150.9281 LP  0  0  0  0  0  0  0  0  0  0  0  0  # atno 17371 bound_to 10713
  140.2560  134.3627  155.7424 LP  0  0  0  0  0  0  0  0  0  0  0  0  # atno 17394 bound_to 11000
  141.2203  133.7343  156.9008 LP  0  0  0  0  0  0  0  0  0  0  0  0  # atno 17395 bound_to 11000

$$$$
