AV-unprocessed.smi:3183|AV-procd|sdf|12158|dock3
  -GOLD-   2272017593D 1   1.00000     0.00000
 Structure written by MMmdl.
 43 44  0  0  0  0  0  0  0  0  2 V2000
  150.6475  145.4181  160.0337 C   0  0  0  0  0  0  0  0  0  0  0  0
  151.9491  144.6147  160.2045 C   0  0  1  0  0  0  0  0  0  0  0  0
  151.8574  143.7362  161.4685 C   0  0  0  0  0  0  0  0  0  0  0  0
  153.1380  142.9198  161.7016 C   0  0  0  0  0  0  0  0  0  0  0  0
  153.5025  142.0583  160.4813 C   0  0  1  0  0  0  0  0  0  0  0  0
  152.5440  140.9420  160.3160 N   0  3  0  0  0  0  0  0  0  0  0  0
  152.8840  139.9810  159.2482 C   0  0  0  0  0  0  0  0  0  0  0  0
  151.6365  139.5873  158.4437 C   0  0  0  0  0  0  0  0  0  0  0  0
  151.8994  139.3133  156.9937 C   0  0  0  0  0  0  0  0  0  0  0  0
  152.5045  138.2509  156.3786 C   0  0  0  0  0  0  0  0  0  0  0  0
  152.4512  138.5706  154.9944 C   0  0  0  0  0  0  0  0  0  0  0  0
  151.8642  139.7315  154.7659 N   0  0  0  0  0  0  0  0  0  0  0  0
  151.5244  140.1900  155.9887 N   0  0  0  0  0  0  0  0  0  0  0  0
  150.8483  141.4703  156.0806 C   0  0  0  0  0  0  0  0  0  0  0  0
  153.5714  142.9177  159.2059 C   0  0  0  0  0  0  0  0  0  0  0  0
  152.2944  143.7527  158.9609 C   0  0  2  0  0  0  0  0  0  0  0  0
  152.4608  144.5916  157.6809 C   0  0  0  0  0  0  0  0  0  0  0  0
  149.8051  144.7653  159.8026 H   0  0  0  0  0  0  0  0  0  0  0  0
  150.7285  146.1572  159.2372 H   0  0  0  0  0  0  0  0  0  0  0  0
  150.4019  145.9642  160.9450 H   0  0  0  0  0  0  0  0  0  0  0  0
  152.7583  145.3305  160.3572 H   0  0  0  0  0  0  0  0  0  0  0  0
  151.6700  144.3626  162.3416 H   0  0  0  0  0  0  0  0  0  0  0  0
  151.0018  143.0639  161.3894 H   0  0  0  0  0  0  0  0  0  0  0  0
  153.9597  143.6050  161.9141 H   0  0  0  0  0  0  0  0  0  0  0  0
  153.0290  142.2944  162.5887 H   0  0  0  0  0  0  0  0  0  0  0  0
  154.4955  141.6403  160.6552 H   0  0  0  0  0  0  0  0  0  0  0  0
  152.4895  140.4407  161.1911 H   0  0  0  0  0  0  0  0  0  0  0  0
  153.6286  140.4298  158.5891 H   0  0  0  0  0  0  0  0  0  0  0  0
  153.3348  139.0948  159.6975 H   0  0  0  0  0  0  0  0  0  0  0  0
  151.1860  138.7023  158.8953 H   0  0  0  0  0  0  0  0  0  0  0  0
  150.8950  140.3833  158.5249 H   0  0  0  0  0  0  0  0  0  0  0  0
  152.9249  137.3718  156.8440 H   0  0  0  0  0  0  0  0  0  0  0  0
  152.8185  137.9982  154.1554 H   0  0  0  0  0  0  0  0  0  0  0  0
  150.6338  141.7253  157.1177 H   0  0  0  0  0  0  0  0  0  0  0  0
  149.9089  141.4296  155.5284 H   0  0  0  0  0  0  0  0  0  0  0  0
  151.4786  142.2498  155.6514 H   0  0  0  0  0  0  0  0  0  0  0  0
  154.4257  143.5921  159.2843 H   0  0  0  0  0  0  0  0  0  0  0  0
  153.7736  142.2792  158.3447 H   0  0  0  0  0  0  0  0  0  0  0  0
  151.4688  143.0604  158.7892 H   0  0  0  0  0  0  0  0  0  0  0  0
  153.2181  145.3658  157.8088 H   0  0  0  0  0  0  0  0  0  0  0  0
  151.5296  145.0780  157.3910 H   0  0  0  0  0  0  0  0  0  0  0  0
  152.7652  143.9679  156.8402 H   0  0  0  0  0  0  0  0  0  0  0  0
  151.6347  141.3337  160.1161 H   0  0  0  0  0  0  0  0  0  0  0  0
  1  2  1  0  0  0  0
  1 18  1  0  0  0  0
  1 19  1  0  0  0  0
  1 20  1  0  0  0  0
  2 16  1  0  0  0  0
  2  3  1  0  0  0  0
  2 21  1  0  0  0  0
  3  4  1  0  0  0  0
  3 22  1  0  0  0  0
  3 23  1  0  0  0  0
  4  5  1  0  0  0  0
  4 24  1  0  0  0  0
  4 25  1  0  0  0  0
  5  6  1  0  0  0  0
  5 15  1  0  0  0  0
  5 26  1  0  0  0  0
  6  7  1  0  0  0  0
  6 27  1  0  0  0  0
  6 43  1  0  0  0  0
  7  8  1  0  0  0  0
  7 28  1  0  0  0  0
  7 29  1  0  0  0  0
  8  9  1  0  0  0  0
  8 30  1  0  0  0  0
  8 31  1  0  0  0  0
  9 13  1  0  0  0  0
  9 10  2  0  0  0  0
 10 11  1  0  0  0  0
 10 32  1  0  0  0  0
 11 12  2  0  0  0  0
 11 33  1  0  0  0  0
 12 13  1  0  0  0  0
 13 14  1  0  0  0  0
 14 34  1  0  0  0  0
 14 35  1  0  0  0  0
 14 36  1  0  0  0  0
 15 16  1  0  0  0  0
 15 37  1  0  0  0  0
 15 38  1  0  0  0  0
 16 17  1  0  0  0  0
 16 39  1  0  0  0  0
 17 40  1  0  0  0  0
 17 41  1  0  0  0  0
 17 42  1  0  0  0  0
M  CHG  1   6   1
M  END
> <s_m_source_file>
AV-unprocessed.smi

> <i_m_source_file_index>
3183

> <i_lp_mmshare_version>
43012

> <i_f3d_flags>
0

> <s_epik_input>
W0NIM11bQ0BASF0xW0NIMl1bQ0gyXVtDQEhdKFtDSDJdW0NASF0xW0NIM10pW05IXVtDSDJdW0NIMl1jMltjSF1bY0hdbm4yW0NIM10=

> <s_epik_cmdline>
J2VwaWtfcHl0aG9uJywgJy1waCcsICc3LjAnLCAnLXRuJywgJzgnLCAnLW1hJywgJzIwMCcsICctbWV0YWxfYmluZGluZycsICctaW1hZScsICc8aW5maWxlLm1hZT4nLCAnLW9tYWUnLCAnPG91dGZpbGUubWFlPic=

> <r_lp_tautomer_probability>
1

> <r_epik_Ionization_Penalty>
0.000327718

> <r_epik_Ionization_Penalty_Charging>
0.000294043

> <r_epik_Ionization_Penalty_Neutral>
3.36755e-05

> <r_epik_State_Penalty>
-0

> <r_epik_Charging_Adjusted_Penalty>
0.000294043

> <i_epik_Tot_Q>
1

> <i_epik_Tot_abs_Q>
1

> <r_epik_Metal_State_Penalty>
-0

> <b_epik_Metal_Only>
0

> <s_lp_Force_Field>
OPLS_2005

> <r_lp_Energy>
17.888

> <b_lp_Chiralities_Consistent>
1

> <s_lp_Variant>
AV-unprocessed.smi:3183-6

> <Gold.Version>
5.8.1

> <Gold.Id.Protein>
6NUR|6NUR_protein|mol2

> <Gold.PLP.Fitness>
45.7637

> <Gold.PLP.PLP>
-44.1301

> <Gold.PLP.part.hbond>
-0.7858

> <Gold.PLP.part.metal>
0.0000

> <Gold.PLP.part.buried>
-4.3491

> <Gold.PLP.part.nonpolar>
-39.2288

> <Gold.PLP.part.repulsive>
0.2090

> <Gold.PLP.ligand.clash>
0.0000

> <Gold.PLP.ligand.torsion>
0.6885

> <Gold.PLP.Chemscore.Hbond>
1.0000

> <Gold.PLP.Chemscore.CHOScore>
0.0000

> <Gold.PLP.Chemscore.Metal>
0.0000

> <Gold.Chemscore.Hbonds>
donor molecule, donor type, donor heavy atom, donor atom, acceptor molecule, acceptor atom, score
      P1  H  7989  7998       L1    12  0.98

> <Gold.PLP.Chemscore.Internal.Correction>
0.0107

> <Gold.Rescore>
     Score         DG    S(hbond)    S(metal)    S(lipo)     H(rot)  DE(clash)    DE(int)     intcor
     20.08     -20.83       0.95        0.00     134.11       1.38       0.18       0.57       ----

> <Gold.Chemscore.Fitness>
20.0801

> <Gold.Chemscore.DG>
-20.8285

> <Gold.Chemscore.ZeroCoef>
-5.4800

> <Gold.Chemscore.Hbond>
0.9528

> <Gold.Chemscore.Metal>
0.0000

> <Gold.Chemscore.Lipo>
134.1095

> <Gold.Chemscore.Internal_Hbond>
0.0000

> <Gold.Chemscore.DEClash>
0.1806

> <Gold.Chemscore.DEInternal>
0.5678

> <Gold.Chemscore.Rot>
1.3768

> <Gold.Chemscore.Internal.Correction>
   9.000000E+99

> <Gold.Chemscore.Hbonds>
donor molecule, donor type, donor heavy atom, donor atom, acceptor molecule, acceptor atom, score
      P1  H  7989  7998       L1    12  0.85

> <Gold.Chemscore.Hbond.Weighted>
-3.1824

> <Gold.Chemscore.Metal.Weighted>
-0.0000

> <Gold.Chemscore.Lipo.Weighted>
-15.6908

> <Gold.Chemscore.Internal_Hbond.Weighted>
0.0000

> <Gold.Chemscore.DEClash.Weighted>
0.1806

> <Gold.Chemscore.DEInternal.Weighted>
0.5678

> <Gold.Chemscore.Rot.Weighted>
3.5247

> <Gold.Chemscore.Internal.Correction.Weighted>
   9.000000E+99

> <Gold.Protein.RotatedTorsions>
[ 6907 6896 6895 6894 ] final  -73.00 input  -60.11 | X-H torsion
[ 7974 7965 7964 7962 ] final -166.97 input  175.53 | X-H torsion
[ 8008 7997 7996 7995 ] final   86.08 input   59.86 | X-H torsion
[ 10167 10162 10161 10158 ] final   64.43 input  -65.29 | X-H torsion
[ 10718 10713 10712 10709 ] final  170.32 input   66.30 | X-H torsion
[ 10763 10752 10751 10750 ] final  -64.66 input  -60.55 | X-H torsion
[ 11005 11000 10999 10996 ] final  131.22 input  -57.11 | X-H torsion

> <Gold.Protein.ActiveResidues>
 VAL166  LYS551  ARG553  GLY616  TRP617  ASP618  TYR619  PRO620  LYS621  CYS622 
 ASP623  PHE694  ASN695  SER759  ASP760  ASP761  ALA762  ILE779  LEU786  VAL792 
 PHE793  MET794  SER795  GLU796  ALA797  LYS798  CYS799  TRP800  GLU811  SER814 

> <Gold.Protein.RotatedAtoms>
  150.7147  134.5081  159.5593 H   0  0  0  0  0  0  0  0  0  0  0  0  # atno 6907 bound_to 6896
  152.2663  134.7977  160.0431 H   0  0  0  0  0  0  0  0  0  0  0  0  # atno 6908 bound_to 6896
  151.8673  133.3433  159.3760 H   0  0  0  0  0  0  0  0  0  0  0  0  # atno 6909 bound_to 6896
  144.7233  140.2587  143.6268 H   0  0  0  0  0  0  0  0  0  0  0  0  # atno 7974 bound_to 7965
  155.9582  140.3395  155.6467 H   0  0  0  0  0  0  0  0  0  0  0  0  # atno 8008 bound_to 7997
  155.6832  140.0740  157.2495 H   0  0  0  0  0  0  0  0  0  0  0  0  # atno 8009 bound_to 7997
  154.4137  140.1670  156.1992 H   0  0  0  0  0  0  0  0  0  0  0  0  # atno 8010 bound_to 7997
  140.1222  144.4720  150.6913 H   0  0  0  0  0  0  0  0  0  0  0  0  # atno 10167 bound_to 10162
  157.0098  131.0201  151.2806 H   0  0  0  0  0  0  0  0  0  0  0  0  # atno 10718 bound_to 10713
  154.3335  135.6172  153.5562 H   0  0  0  0  0  0  0  0  0  0  0  0  # atno 10763 bound_to 10752
  152.9809  135.5752  154.4935 H   0  0  0  0  0  0  0  0  0  0  0  0  # atno 10764 bound_to 10752
  154.4626  135.2856  155.1679 H   0  0  0  0  0  0  0  0  0  0  0  0  # atno 10765 bound_to 10752
  139.9717  134.9575  156.9406 H   0  0  0  0  0  0  0  0  0  0  0  0  # atno 11005 bound_to 11000
  145.8157  139.2022  143.1967 LP  0  0  0  0  0  0  0  0  0  0  0  0  # atno 17320 bound_to 7965
  146.0558  140.8023  142.9759 LP  0  0  0  0  0  0  0  0  0  0  0  0  # atno 17321 bound_to 7965
  140.6865  143.2353  151.5246 LP  0  0  0  0  0  0  0  0  0  0  0  0  # atno 17342 bound_to 10162
  139.5562  144.2269  152.1617 LP  0  0  0  0  0  0  0  0  0  0  0  0  # atno 17343 bound_to 10162
  157.5329  130.8070  149.7938 LP  0  0  0  0  0  0  0  0  0  0  0  0  # atno 17370 bound_to 10713
  156.0140  130.3821  150.2170 LP  0  0  0  0  0  0  0  0  0  0  0  0  # atno 17371 bound_to 10713
  140.5279  134.0842  155.7308 LP  0  0  0  0  0  0  0  0  0  0  0  0  # atno 17394 bound_to 11000
  141.1396  133.9161  157.2355 LP  0  0  0  0  0  0  0  0  0  0  0  0  # atno 17395 bound_to 11000

$$$$
