AV-unprocessed.smi:828|AV-procd|sdf|3863|dock1
  -GOLD-   22720 1313D 1   1.00000     0.00000
 Structure written by MMmdl.
 34 35  0  0  0  0  0  0  0  0  3 V2000
  148.7448  140.6648  155.1004 C   0  0  0  0  0  0  0  0  0  0  0  0
  149.6398  139.4786  154.9881 C   0  0  0  0  0  0  0  0  0  0  0  0
  150.9664  139.5836  154.8788 N   0  0  0  0  0  0  0  0  0  0  0  0
  151.5834  138.3440  154.7917 N   0  0  0  0  0  0  0  0  0  0  0  0
  150.7173  137.3216  154.8285 C   0  0  0  0  0  0  0  0  0  0  0  0
  151.1140  136.0398  154.7621 N   0  5  0  0  0  0  0  0  0  0  0  0
  150.2640  135.0505  155.1148 C   0  0  0  0  0  0  0  0  0  0  0  0
  150.1531  134.5429  156.2328 O   0  0  0  0  0  0  0  0  0  0  0  0
  149.5041  134.6119  154.1021 N   0  0  0  0  0  0  0  0  0  0  0  0
  148.5385  133.5179  154.1623 C   0  0  0  0  0  0  0  0  0  0  0  0
  147.9345  133.1851  152.7779 C   0  0  1  0  0  0  0  0  0  0  0  0
  147.1452  131.8785  152.7138 C   0  0  0  0  0  0  0  0  0  0  0  0
  146.3092  132.0176  151.4378 C   0  0  0  0  0  0  0  0  0  0  0  0
  146.3343  133.5149  151.0842 C   0  0  0  0  0  0  0  0  0  0  0  0
  147.0338  134.2077  152.1897 N   0  3  1  0  0  0  0  0  0  0  0  0
  146.0837  134.8478  153.1337 C   0  0  0  0  0  0  0  0  0  0  0  0
  149.0368  137.8297  154.9964 S   0  0  0  0  0  0  0  0  0  0  0  0
  149.0122  141.4107  154.3515 H   0  0  0  0  0  0  0  0  0  0  0  0
  148.8394  141.1100  156.0909 H   0  0  0  0  0  0  0  0  0  0  0  0
  147.7065  140.3721  154.9451 H   0  0  0  0  0  0  0  0  0  0  0  0
  149.6167  135.0728  153.2107 H   0  0  0  0  0  0  0  0  0  0  0  0
  149.0166  132.6327  154.5846 H   0  0  0  0  0  0  0  0  0  0  0  0
  147.7534  133.7981  154.8649 H   0  0  0  0  0  0  0  0  0  0  0  0
  148.7599  133.0854  152.0708 H   0  0  0  0  0  0  0  0  0  0  0  0
  147.7916  131.0004  152.6985 H   0  0  0  0  0  0  0  0  0  0  0  0
  146.4872  131.7920  153.5795 H   0  0  0  0  0  0  0  0  0  0  0  0
  146.7386  131.4310  150.6248 H   0  0  0  0  0  0  0  0  0  0  0  0
  145.2919  131.6596  151.5991 H   0  0  0  0  0  0  0  0  0  0  0  0
  146.9155  133.6631  150.1730 H   0  0  0  0  0  0  0  0  0  0  0  0
  145.3366  133.9140  150.8959 H   0  0  0  0  0  0  0  0  0  0  0  0
  145.4543  134.1070  153.6278 H   0  0  0  0  0  0  0  0  0  0  0  0
  145.4335  135.5428  152.6015 H   0  0  0  0  0  0  0  0  0  0  0  0
  146.6005  135.4258  153.8987 H   0  0  0  0  0  0  0  0  0  0  0  0
  147.6034  134.9477  151.8040 H   0  0  0  0  0  0  0  0  0  0  0  0
  1  2  1  0  0  0  0
  1 18  1  0  0  0  0
  1 19  1  0  0  0  0
  1 20  1  0  0  0  0
  2 17  1  0  0  0  0
  2  3  2  0  0  0  0
  3  4  1  0  0  0  0
  4  5  2  0  0  0  0
  5  6  1  0  0  0  0
  5 17  1  0  0  0  0
  6  7  1  0  0  0  0
  7  8  2  0  0  0  0
  7  9  1  0  0  0  0
  9 10  1  0  0  0  0
  9 21  1  0  0  0  0
 10 11  1  0  0  0  0
 10 22  1  0  0  0  0
 10 23  1  0  0  0  0
 11 15  1  0  0  0  0
 11 12  1  0  0  0  0
 11 24  1  0  0  0  0
 12 13  1  0  0  0  0
 12 25  1  0  0  0  0
 12 26  1  0  0  0  0
 13 14  1  0  0  0  0
 13 27  1  0  0  0  0
 13 28  1  0  0  0  0
 14 15  1  0  0  0  0
 14 29  1  0  0  0  0
 14 30  1  0  0  0  0
 15 16  1  0  0  0  0
 15 34  1  0  0  0  0
 16 31  1  0  0  0  0
 16 32  1  0  0  0  0
 16 33  1  0  0  0  0
M  CHG  1   6  -1
M  CHG  1  15   1
M  END
> <s_m_source_file>
AV-unprocessed.smi

> <i_m_source_file_index>
828

> <i_lp_mmshare_version>
43012

> <i_f3d_flags>
0

> <s_epik_input>
W0NIM11jMW5uYyhzMSlbTkhdQyg9TylbTkhdW0NIMl1bQ0BASF0yW0NIMl1bQ0gyXVtDSDJdTjJbQ0gzXQ==

> <s_epik_cmdline>
J2VwaWtfcHl0aG9uJywgJy1waCcsICc3LjAnLCAnLXRuJywgJzgnLCAnLW1hJywgJzIwMCcsICctbWV0YWxfYmluZGluZycsICctaW1hZScsICc8aW5maWxlLm1hZT4nLCAnLW9tYWUnLCAnPG91dGZpbGUubWFlPic=

> <r_lp_tautomer_probability>
1

> <r_epik_Ionization_Penalty>
3.94379

> <r_epik_Ionization_Penalty_Charging>
3.83377

> <r_epik_Ionization_Penalty_Neutral>
0.110023

> <r_epik_State_Penalty>
3.83036

> <r_epik_Charging_Adjusted_Penalty>
7.66413

> <i_epik_Tot_Q>
0

> <i_epik_Tot_abs_Q>
2

> <r_epik_Metal_State_Penalty>
0.575095

> <b_epik_Metal_Only>
1

> <s_lp_Force_Field>
OPLS_2005

> <r_lp_Energy>
27.8836

> <b_lp_Chiralities_Consistent>
1

> <s_lp_Variant>
AV-unprocessed.smi:828-6

> <Gold.Version>
5.8.1

> <Gold.Id.Protein>
6NUR|6NUR_protein|mol2

> <Gold.PLP.Fitness>
42.4234

> <Gold.PLP.PLP>
-28.5560

> <Gold.PLP.part.hbond>
-4.0000

> <Gold.PLP.part.metal>
0.0000

> <Gold.PLP.part.buried>
-2.3905

> <Gold.PLP.part.nonpolar>
-22.0784

> <Gold.PLP.part.repulsive>
0.4398

> <Gold.PLP.ligand.clash>
0.0000

> <Gold.PLP.ligand.torsion>
0.8718

> <Gold.PLP.Chemscore.Hbond>
5.1728

> <Gold.PLP.Chemscore.CHOScore>
0.0000

> <Gold.PLP.Chemscore.Metal>
0.0000

> <Gold.Chemscore.Hbonds>
donor molecule, donor type, donor heavy atom, donor atom, acceptor molecule, acceptor atom, score
      L1  H     9    21       P1  7948  0.25
      L1  H    15    34       P1  7948  2.00
      P1  H  7989  7998       L1     3  1.00
      P1  H 10752 10763       L1     6  2.00

> <Gold.PLP.Chemscore.Internal.Correction>
0.0925

> <Gold.Rescore>
     Score         DG    S(hbond)    S(metal)    S(lipo)     H(rot)  DE(clash)    DE(int)     intcor
     16.17     -17.11       2.81        0.00      47.96       1.31       0.03       0.91       ----

> <Gold.Chemscore.Fitness>
16.1675

> <Gold.Chemscore.DG>
-17.1104

> <Gold.Chemscore.ZeroCoef>
-5.4800

> <Gold.Chemscore.Hbond>
2.8101

> <Gold.Chemscore.Metal>
0.0000

> <Gold.Chemscore.Lipo>
47.9566

> <Gold.Chemscore.Internal_Hbond>
0.0000

> <Gold.Chemscore.DEClash>
0.0285

> <Gold.Chemscore.DEInternal>
0.9145

> <Gold.Chemscore.Rot>
1.3149

> <Gold.Chemscore.Internal.Correction>
   9.000000E+99

> <Gold.Chemscore.Hbonds>
donor molecule, donor type, donor heavy atom, donor atom, acceptor molecule, acceptor atom, score
      L1  H    15    34       P1  7948  0.69
      P1  H  7989  7998       L1     3  0.73
      P1  H 10752 10763       L1     6  0.95

> <Gold.Chemscore.Hbond.Weighted>
-9.3857

> <Gold.Chemscore.Metal.Weighted>
-0.0000

> <Gold.Chemscore.Lipo.Weighted>
-5.6109

> <Gold.Chemscore.Internal_Hbond.Weighted>
0.0000

> <Gold.Chemscore.DEClash.Weighted>
0.0285

> <Gold.Chemscore.DEInternal.Weighted>
0.9145

> <Gold.Chemscore.Rot.Weighted>
3.3662

> <Gold.Chemscore.Internal.Correction.Weighted>
   9.000000E+99

> <Gold.Protein.RotatedTorsions>
[ 6907 6896 6895 6894 ] final   -1.65 input  -60.11 | X-H torsion
[ 7974 7965 7964 7962 ] final   29.60 input  175.53 | X-H torsion
[ 8008 7997 7996 7995 ] final -115.36 input   59.86 | X-H torsion
[ 10167 10162 10161 10158 ] final  -43.08 input  -65.29 | X-H torsion
[ 10718 10713 10712 10709 ] final -113.43 input   66.30 | X-H torsion
[ 10763 10752 10751 10750 ] final   47.32 input  -60.55 | X-H torsion
[ 11005 11000 10999 10996 ] final  -56.34 input  -57.11 | X-H torsion

> <Gold.Protein.ActiveResidues>
 VAL166  LYS551  ARG553  GLY616  TRP617  ASP618  TYR619  PRO620  LYS621  CYS622 
 ASP623  PHE694  ASN695  SER759  ASP760  ASP761  ALA762  ILE779  LEU786  VAL792 
 PHE793  MET794  SER795  GLU796  ALA797  LYS798  CYS799  TRP800  GLU811  SER814 

> <Gold.Protein.RotatedAtoms>
  151.5427  135.1068  159.9929 H   0  0  0  0  0  0  0  0  0  0  0  0  # atno 6907 bound_to 6896
  152.4528  133.7659  159.6783 H   0  0  0  0  0  0  0  0  0  0  0  0  # atno 6908 bound_to 6896
  150.8462  133.7792  159.3067 H   0  0  0  0  0  0  0  0  0  0  0  0  # atno 6909 bound_to 6896
  146.1662  139.6900  142.8999 H   0  0  0  0  0  0  0  0  0  0  0  0  # atno 7974 bound_to 7965
  155.0509  140.0393  157.2543 H   0  0  0  0  0  0  0  0  0  0  0  0  # atno 8008 bound_to 7997
  154.7138  140.2698  155.6580 H   0  0  0  0  0  0  0  0  0  0  0  0  # atno 8009 bound_to 7997
  156.2797  140.2716  156.1789 H   0  0  0  0  0  0  0  0  0  0  0  0  # atno 8010 bound_to 7997
  140.6947  143.3002  151.3301 H   0  0  0  0  0  0  0  0  0  0  0  0  # atno 10167 bound_to 10162
  156.0766  130.5972  150.8641 H   0  0  0  0  0  0  0  0  0  0  0  0  # atno 10718 bound_to 10713
  152.9801  135.5980  154.3743 H   0  0  0  0  0  0  0  0  0  0  0  0  # atno 10763 bound_to 10752
  154.3413  135.2767  155.2423 H   0  0  0  0  0  0  0  0  0  0  0  0  # atno 10764 bound_to 10752
  154.4503  135.5991  153.6242 H   0  0  0  0  0  0  0  0  0  0  0  0  # atno 10765 bound_to 10752
  141.1115  133.6610  156.4604 H   0  0  0  0  0  0  0  0  0  0  0  0  # atno 11005 bound_to 11000
  145.4462  141.0425  143.2830 LP  0  0  0  0  0  0  0  0  0  0  0  0  # atno 17320 bound_to 7965
  144.8095  139.5988  143.7035 LP  0  0  0  0  0  0  0  0  0  0  0  0  # atno 17321 bound_to 7965
  139.6387  144.0580  152.2537 LP  0  0  0  0  0  0  0  0  0  0  0  0  # atno 17342 bound_to 10162
  140.0078  144.6246  150.7673 LP  0  0  0  0  0  0  0  0  0  0  0  0  # atno 17343 bound_to 10162
  157.5864  131.0945  150.9189 LP  0  0  0  0  0  0  0  0  0  0  0  0  # atno 17370 bound_to 10713
  156.9374  130.5372  149.5279 LP  0  0  0  0  0  0  0  0  0  0  0  0  # atno 17371 bound_to 10713
  140.4761  134.6708  157.5151 LP  0  0  0  0  0  0  0  0  0  0  0  0  # atno 17394 bound_to 11000
  140.0012  134.6833  155.9527 LP  0  0  0  0  0  0  0  0  0  0  0  0  # atno 17395 bound_to 11000

$$$$
