AV-unprocessed.smi:199|AV-procd|sdf|1564|dock9
  -GOLD-   2262019443D 1   1.00000     0.00000
 Structure written by MMmdl.
 51 55  0  0  0  0  0  0  0  0  1 V2000
  138.8638  139.9699  151.5944 C   0  0  0  0  0  0  0  0  0  0  0  0
  139.6210  139.7931  150.2689 C   0  0  2  0  0  0  0  0  0  0  0  0
  138.6694  139.4329  149.2709 O   0  0  0  0  0  0  0  0  0  0  0  0
  139.3084  138.6215  148.3014 C   0  0  0  0  0  0  0  0  0  0  0  0
  140.1973  137.7318  149.1566 C   0  0  0  0  0  0  0  0  0  0  0  0
  140.7157  138.6889  150.2268 C   0  0  1  0  0  0  0  0  0  0  0  0
  141.9055  139.2848  149.7355 O   0  0  0  0  0  0  0  0  0  0  0  0
  141.0489  137.9932  151.5733 C   0  0  0  0  0  0  0  0  0  0  0  0
  141.8336  136.7771  151.4179 N   0  0  0  0  0  0  0  0  0  0  0  0
  141.3919  135.5707  150.9258 C   0  0  0  0  0  0  0  0  0  0  0  0
  142.2878  134.6235  150.8911 N   0  0  0  0  0  0  0  0  0  0  0  0
  143.4429  135.2207  151.3830 C   0  0  0  0  0  0  0  0  0  0  0  0
  144.7768  134.7746  151.6182 C   0  0  0  0  0  0  0  0  0  0  0  0
  145.2158  133.5104  151.3657 N   0  0  0  0  0  0  0  0  0  0  0  0
  144.3045  132.4875  150.8731 C   0  0  2  0  0  0  0  0  0  0  0  0
  145.1680  131.2165  150.9482 C   0  0  0  0  0  0  0  0  0  0  0  0
  146.5570  131.7760  150.6070 C   0  0  0  0  0  0  0  0  0  0  0  0
  146.2311  133.2597  150.3506 C   0  0  1  0  0  0  0  0  0  0  0  0
  145.4594  133.4505  149.0185 C   0  0  1  0  0  0  0  0  0  0  0  0
  146.1167  132.8587  147.7580 C   0  0  0  0  0  0  0  0  0  0  0  0
  145.1226  132.4317  146.8512 O   0  0  0  0  0  0  0  0  0  0  0  0
  144.0881  132.8552  149.3907 C   0  0  0  0  0  0  0  0  0  0  0  0
  145.6441  135.6723  152.1586 N   0  0  0  0  0  0  0  0  0  0  0  0
  145.2542  136.9225  152.4203 C   0  0  0  0  0  0  0  0  0  0  0  0
  144.0558  137.4770  152.2369 N   0  0  0  0  0  0  0  0  0  0  0  0
  143.1702  136.5787  151.7196 C   0  0  0  0  0  0  0  0  0  0  0  0
  139.5357  140.2569  152.4032 H   0  0  0  0  0  0  0  0  0  0  0  0
  138.3470  139.0555  151.8862 H   0  0  0  0  0  0  0  0  0  0  0  0
  138.1112  140.7534  151.5039 H   0  0  0  0  0  0  0  0  0  0  0  0
  140.0444  140.7586  149.9850 H   0  0  0  0  0  0  0  0  0  0  0  0
  138.5874  138.0567  147.7103 H   0  0  0  0  0  0  0  0  0  0  0  0
  139.9007  139.2430  147.6280 H   0  0  0  0  0  0  0  0  0  0  0  0
  139.5770  136.9596  149.6127 H   0  0  0  0  0  0  0  0  0  0  0  0
  140.9844  137.2336  148.5883 H   0  0  0  0  0  0  0  0  0  0  0  0
  142.3708  139.6687  150.4629 H   0  0  0  0  0  0  0  0  0  0  0  0
  141.6013  138.6710  152.2253 H   0  0  0  0  0  0  0  0  0  0  0  0
  140.1341  137.7306  152.1050 H   0  0  0  0  0  0  0  0  0  0  0  0
  140.3749  135.4114  150.5983 H   0  0  0  0  0  0  0  0  0  0  0  0
  143.3739  132.3725  151.4255 H   0  0  0  0  0  0  0  0  0  0  0  0
  145.1609  130.7971  151.9551 H   0  0  0  0  0  0  0  0  0  0  0  0
  144.8392  130.4413  150.2552 H   0  0  0  0  0  0  0  0  0  0  0  0
  147.2226  131.6778  151.4657 H   0  0  0  0  0  0  0  0  0  0  0  0
  147.0329  131.2724  149.7669 H   0  0  0  0  0  0  0  0  0  0  0  0
  147.1149  133.8937  150.4288 H   0  0  0  0  0  0  0  0  0  0  0  0
  145.3384  134.5228  148.8541 H   0  0  0  0  0  0  0  0  0  0  0  0
  146.7352  133.6096  147.2662 H   0  0  0  0  0  0  0  0  0  0  0  0
  146.7567  132.0093  147.9963 H   0  0  0  0  0  0  0  0  0  0  0  0
  144.6786  133.1932  146.5107 H   0  0  0  0  0  0  0  0  0  0  0  0
  143.8102  131.9919  148.7849 H   0  0  0  0  0  0  0  0  0  0  0  0
  143.3041  133.6058  149.2829 H   0  0  0  0  0  0  0  0  0  0  0  0
  146.0111  137.5704  152.8374 H   0  0  0  0  0  0  0  0  0  0  0  0
  1  2  1  0  0  0  0
  1 27  1  0  0  0  0
  1 28  1  0  0  0  0
  1 29  1  0  0  0  0
  2  6  1  0  0  0  0
  2  3  1  0  0  0  0
  2 30  1  0  0  0  0
  3  4  1  0  0  0  0
  4  5  1  0  0  0  0
  4 31  1  0  0  0  0
  4 32  1  0  0  0  0
  5  6  1  0  0  0  0
  5 33  1  0  0  0  0
  5 34  1  0  0  0  0
  6  7  1  0  0  0  0
  6  8  1  0  0  0  0
  7 35  1  0  0  0  0
  8  9  1  0  0  0  0
  8 36  1  0  0  0  0
  8 37  1  0  0  0  0
  9 26  1  0  0  0  0
  9 10  1  0  0  0  0
 10 11  2  0  0  0  0
 10 38  1  0  0  0  0
 11 12  1  0  0  0  0
 12 26  2  0  0  0  0
 12 13  1  0  0  0  0
 13 14  1  0  0  0  0
 13 23  2  0  0  0  0
 14 18  1  0  0  0  0
 14 15  1  0  0  0  0
 15 22  1  0  0  0  0
 15 16  1  0  0  0  0
 15 39  1  0  0  0  0
 16 17  1  0  0  0  0
 16 40  1  0  0  0  0
 16 41  1  0  0  0  0
 17 18  1  0  0  0  0
 17 42  1  0  0  0  0
 17 43  1  0  0  0  0
 18 19  1  0  0  0  0
 18 44  1  0  0  0  0
 19 20  1  0  0  0  0
 19 22  1  0  0  0  0
 19 45  1  0  0  0  0
 20 21  1  0  0  0  0
 20 46  1  0  0  0  0
 20 47  1  0  0  0  0
 21 48  1  0  0  0  0
 22 49  1  0  0  0  0
 22 50  1  0  0  0  0
 23 24  1  0  0  0  0
 24 25  2  0  0  0  0
 24 51  1  0  0  0  0
 25 26  1  0  0  0  0
M  END
> <s_m_source_file>
AV-unprocessed.smi

> <i_m_source_file_index>
199

> <i_lp_mmshare_version>
43012

> <i_f3d_flags>
0

> <s_epik_input>
W0NIMl0xW0NIMl1PW0NAQEhdKFtDSDNdKVtDQEBdMShbT0hdKVtDSDJdbihbY0hdbjIpYyhjMjMpbltjSF1uYzNOKFtDQEBIXTQ1KVtDQEhdKFtDSDJdW0NIMl00KVtDQEhdKFtDSDJdNSlbQ0gyXVtPSF0=

> <s_epik_cmdline>
J2VwaWtfcHl0aG9uJywgJy1waCcsICc3LjAnLCAnLXRuJywgJzgnLCAnLW1hJywgJzIwMCcsICctbWV0YWxfYmluZGluZycsICctaW1hZScsICc8aW5maWxlLm1hZT4nLCAnLW9tYWUnLCAnPG91dGZpbGUubWFlPic=

> <r_lp_tautomer_probability>
1

> <r_epik_Ionization_Penalty>
0.00583903

> <r_epik_Ionization_Penalty_Charging>
0

> <r_epik_Ionization_Penalty_Neutral>
0.00583903

> <r_epik_State_Penalty>
-0

> <r_epik_Charging_Adjusted_Penalty>
0

> <i_epik_Tot_Q>
0

> <i_epik_Tot_abs_Q>
0

> <r_epik_Metal_State_Penalty>
-0

> <b_epik_Metal_Only>
0

> <s_lp_Force_Field>
OPLS_2005

> <r_lp_Energy>
84.0593

> <b_lp_Chiralities_Consistent>
1

> <s_lp_Variant>
AV-unprocessed.smi:199-5

> <Gold.Version>
5.8.1

> <Gold.Id.Protein>
6NUR|6NUR_protein|mol2

> <Gold.PLP.Fitness>
49.8502

> <Gold.PLP.PLP>
-40.2286

> <Gold.PLP.part.hbond>
-4.9720

> <Gold.PLP.part.metal>
0.0000

> <Gold.PLP.part.buried>
-6.6200

> <Gold.PLP.part.nonpolar>
-32.5793

> <Gold.PLP.part.repulsive>
3.1165

> <Gold.PLP.ligand.clash>
0.0000

> <Gold.PLP.ligand.torsion>
0.7053

> <Gold.PLP.Chemscore.Hbond>
2.7642

> <Gold.PLP.Chemscore.CHOScore>
0.9089

> <Gold.PLP.Chemscore.Metal>
0.0000

> <Gold.PLP.Chemscore.Internal.Correction>
0.0126

> <Gold.Rescore>
     Score         DG    S(hbond)    S(metal)    S(lipo)     H(rot)  DE(clash)    DE(int)     intcor
     10.41     -15.35       1.92        0.00      96.80       3.07       1.81       3.12       ----

> <Gold.Chemscore.Fitness>
10.4077

> <Gold.Chemscore.DG>
-15.3468

> <Gold.Chemscore.ZeroCoef>
-5.4800

> <Gold.Chemscore.Hbond>
1.9186

> <Gold.Chemscore.Metal>
0.0000

> <Gold.Chemscore.Lipo>
96.7970

> <Gold.Chemscore.Internal_Hbond>
0.0000

> <Gold.Chemscore.DEClash>
1.8144

> <Gold.Chemscore.DEInternal>
3.1246

> <Gold.Chemscore.Rot>
3.0729

> <Gold.Chemscore.Internal.Correction>
   9.000000E+99

> <Gold.Chemscore.Hbond.Weighted>
-6.4082

> <Gold.Chemscore.Metal.Weighted>
-0.0000

> <Gold.Chemscore.Lipo.Weighted>
-11.3253

> <Gold.Chemscore.Internal_Hbond.Weighted>
0.0000

> <Gold.Chemscore.DEClash.Weighted>
1.8144

> <Gold.Chemscore.DEInternal.Weighted>
3.1246

> <Gold.Chemscore.Rot.Weighted>
7.8667

> <Gold.Chemscore.Internal.Correction.Weighted>
   9.000000E+99

> <Gold.Protein.RotatedTorsions>
[ 6907 6896 6895 6894 ] final  162.71 input  -60.11 | X-H torsion
[ 7974 7965 7964 7962 ] final   17.51 input  175.53 | X-H torsion
[ 8008 7997 7996 7995 ] final  -25.81 input   59.86 | X-H torsion
[ 10167 10162 10161 10158 ] final  112.27 input  -65.29 | X-H torsion
[ 10718 10713 10712 10709 ] final  -37.51 input   66.30 | X-H torsion
[ 10763 10752 10751 10750 ] final  130.34 input  -60.55 | X-H torsion
[ 11005 11000 10999 10996 ] final -153.33 input  -57.11 | X-H torsion

> <Gold.Protein.ActiveResidues>
 VAL166  LYS551  ARG553  GLY616  TRP617  ASP618  TYR619  PRO620  LYS621  CYS622 
 ASP623  PHE694  ASN695  SER759  ASP760  ASP761  ALA762  ILE779  LEU786  VAL792 
 PHE793  MET794  SER795  GLU796  ALA797  LYS798  CYS799  TRP800  GLU811  SER814 

> <Gold.Protein.RotatedAtoms>
  151.9363  133.3625  159.3948 H   0  0  0  0  0  0  0  0  0  0  0  0  # atno 6907 bound_to 6896
  150.7007  134.4486  159.5335 H   0  0  0  0  0  0  0  0  0  0  0  0  # atno 6908 bound_to 6896
  152.2135  134.8480  160.0545 H   0  0  0  0  0  0  0  0  0  0  0  0  # atno 6909 bound_to 6896
  146.2216  139.8591  142.8608 H   0  0  0  0  0  0  0  0  0  0  0  0  # atno 7974 bound_to 7965
  154.4456  140.1916  156.0678 H   0  0  0  0  0  0  0  0  0  0  0  0  # atno 8008 bound_to 7997
  156.0534  140.3305  155.7351 H   0  0  0  0  0  0  0  0  0  0  0  0  # atno 8009 bound_to 7997
  155.5522  140.0596  157.2838 H   0  0  0  0  0  0  0  0  0  0  0  0  # atno 8010 bound_to 7997
  139.6548  144.7129  151.1978 H   0  0  0  0  0  0  0  0  0  0  0  0  # atno 10167 bound_to 10162
  156.3144  130.4257  149.8020 H   0  0  0  0  0  0  0  0  0  0  0  0  # atno 10718 bound_to 10713
  153.7565  135.3202  155.3330 H   0  0  0  0  0  0  0  0  0  0  0  0  # atno 10763 bound_to 10752
  154.8245  135.4580  154.0880 H   0  0  0  0  0  0  0  0  0  0  0  0  # atno 10764 bound_to 10752
  153.2098  135.6934  153.8211 H   0  0  0  0  0  0  0  0  0  0  0  0  # atno 10765 bound_to 10752
  140.7093  134.3851  157.5200 H   0  0  0  0  0  0  0  0  0  0  0  0  # atno 11005 bound_to 11000
  145.2723  141.0112  143.3765 LP  0  0  0  0  0  0  0  0  0  0  0  0  # atno 17320 bound_to 7965
  144.9214  139.4407  143.6539 LP  0  0  0  0  0  0  0  0  0  0  0  0  # atno 17321 bound_to 7965
  140.7554  143.6090  150.8624 LP  0  0  0  0  0  0  0  0  0  0  0  0  # atno 17342 bound_to 10162
  139.9742  143.6023  152.2964 LP  0  0  0  0  0  0  0  0  0  0  0  0  # atno 17343 bound_to 10162
  156.5351  130.8275  151.3250 LP  0  0  0  0  0  0  0  0  0  0  0  0  # atno 17370 bound_to 10713
  157.7398  130.9838  150.2337 LP  0  0  0  0  0  0  0  0  0  0  0  0  # atno 17371 bound_to 10713
  139.8876  134.8879  156.2521 LP  0  0  0  0  0  0  0  0  0  0  0  0  # atno 17394 bound_to 11000
  141.0098  133.7102  156.1093 LP  0  0  0  0  0  0  0  0  0  0  0  0  # atno 17395 bound_to 11000

$$$$
