AV-unprocessed.smi:2862|AV-procd|sdf|11011|dock6
  -GOLD-   2272015473D 1   1.00000     0.00000
 Structure written by MMmdl.
 52 54  0  0  0  0  0  0  0  0  1 V2000
  154.0599  140.3445  159.6237 C   0  0  0  0  0  0  0  0  0  0  0  0
  152.8653  140.9244  158.8465 C   0  0  1  0  0  0  0  0  0  0  0  0
  151.9710  139.8657  158.3789 N   0  0  0  0  0  0  0  0  0  0  0  0
  151.4010  139.7659  157.1666 C   0  0  0  0  0  0  0  0  0  0  0  0
  151.5258  140.6148  156.2828 O   0  0  0  0  0  0  0  0  0  0  0  0
  150.5510  138.5098  156.9257 C   0  0  0  0  0  0  0  0  0  0  0  0
  149.3067  138.5011  157.7142 N   0  0  0  0  0  0  0  0  0  0  0  0
  148.3188  139.4435  157.3628 C   0  0  0  0  0  0  0  0  0  0  0  0
  147.1398  139.5146  158.0005 C   0  0  0  0  0  0  0  0  0  0  0  0
  146.8774  138.5741  159.0628 C   0  0  0  0  0  0  0  0  0  0  0  0
  147.8070  137.6527  159.3912 C   0  0  0  0  0  0  0  0  0  0  0  0
  147.5586  136.6908  160.4684 C   0  0  0  0  0  0  0  0  0  0  0  0
  147.6539  137.0152  161.6526 O   0  0  0  0  0  0  0  0  0  0  0  0
  147.2136  135.4247  160.0903 N   0  0  0  0  0  0  0  0  0  0  0  0
  146.6592  135.0932  158.7662 C   0  0  0  0  0  0  0  0  0  0  0  0
  147.2223  134.2787  161.0249 C   0  0  1  0  0  0  0  0  0  0  0  0
  146.1257  134.4122  162.1008 C   0  0  0  0  0  0  0  0  0  0  0  0
  147.1786  132.9106  160.3570 C   0  0  0  0  0  0  0  0  0  0  0  0
  145.8923  132.3692  159.7798 C   0  0  0  0  0  0  0  0  0  0  0  0
  146.4912  131.7401  161.0179 C   0  0  0  0  0  0  0  0  0  0  0  0
  149.1388  137.6121  158.7426 C   0  0  0  0  0  0  0  0  0  0  0  0
  150.0495  136.8496  159.0802 O   0  0  0  0  0  0  0  0  0  0  0  0
  152.1767  142.0375  159.6226 C   0  0  0  0  0  0  0  0  0  0  0  0
  151.9957  143.4104  159.0216 C   0  0  0  0  0  0  0  0  0  0  0  0
  152.9615  143.2060  160.1684 C   0  0  0  0  0  0  0  0  0  0  0  0
  154.7913  141.1214  159.8471 H   0  0  0  0  0  0  0  0  0  0  0  0
  154.5689  139.5726  159.0458 H   0  0  0  0  0  0  0  0  0  0  0  0
  153.7522  139.9039  160.5722 H   0  0  0  0  0  0  0  0  0  0  0  0
  153.2686  141.3719  157.9371 H   0  0  0  0  0  0  0  0  0  0  0  0
  151.7942  139.1165  159.0324 H   0  0  0  0  0  0  0  0  0  0  0  0
  150.3130  138.4239  155.8635 H   0  0  0  0  0  0  0  0  0  0  0  0
  151.1668  137.6386  157.1530 H   0  0  0  0  0  0  0  0  0  0  0  0
  148.5797  140.1031  156.5480 H   0  0  0  0  0  0  0  0  0  0  0  0
  146.3993  140.2471  157.7151 H   0  0  0  0  0  0  0  0  0  0  0  0
  145.9240  138.5994  159.5712 H   0  0  0  0  0  0  0  0  0  0  0  0
  146.2125  135.9502  158.2608 H   0  0  0  0  0  0  0  0  0  0  0  0
  145.8645  134.3504  158.8424 H   0  0  0  0  0  0  0  0  0  0  0  0
  147.4361  134.6819  158.1212 H   0  0  0  0  0  0  0  0  0  0  0  0
  148.1581  134.3157  161.5855 H   0  0  0  0  0  0  0  0  0  0  0  0
  146.2567  133.6621  162.8812 H   0  0  0  0  0  0  0  0  0  0  0  0
  145.1241  134.2787  161.6926 H   0  0  0  0  0  0  0  0  0  0  0  0
  146.1637  135.3912  162.5801 H   0  0  0  0  0  0  0  0  0  0  0  0
  148.0711  132.6693  159.7839 H   0  0  0  0  0  0  0  0  0  0  0  0
  144.9889  132.9629  159.9052 H   0  0  0  0  0  0  0  0  0  0  0  0
  145.9571  131.8095  158.8489 H   0  0  0  0  0  0  0  0  0  0  0  0
  146.9566  130.7623  160.9130 H   0  0  0  0  0  0  0  0  0  0  0  0
  145.9836  131.9159  161.9642 H   0  0  0  0  0  0  0  0  0  0  0  0
  151.3641  141.6920  160.2589 H   0  0  0  0  0  0  0  0  0  0  0  0
  152.4177  143.5914  158.0348 H   0  0  0  0  0  0  0  0  0  0  0  0
  151.0630  143.9295  159.2324 H   0  0  0  0  0  0  0  0  0  0  0  0
  152.6731  143.5924  161.1439 H   0  0  0  0  0  0  0  0  0  0  0  0
  154.0253  143.2525  159.9434 H   0  0  0  0  0  0  0  0  0  0  0  0
  1  2  1  0  0  0  0
  1 26  1  0  0  0  0
  1 27  1  0  0  0  0
  1 28  1  0  0  0  0
  2  3  1  0  0  0  0
  2 23  1  0  0  0  0
  2 29  1  0  0  0  0
  3  4  1  0  0  0  0
  3 30  1  0  0  0  0
  4  5  2  0  0  0  0
  4  6  1  0  0  0  0
  6  7  1  0  0  0  0
  6 31  1  0  0  0  0
  6 32  1  0  0  0  0
  7 21  1  0  0  0  0
  7  8  1  0  0  0  0
  8  9  2  0  0  0  0
  8 33  1  0  0  0  0
  9 10  1  0  0  0  0
  9 34  1  0  0  0  0
 10 11  2  0  0  0  0
 10 35  1  0  0  0  0
 11 12  1  0  0  0  0
 11 21  1  0  0  0  0
 12 13  2  0  0  0  0
 12 14  1  0  0  0  0
 14 15  1  0  0  0  0
 14 16  1  0  0  0  0
 15 36  1  0  0  0  0
 15 37  1  0  0  0  0
 15 38  1  0  0  0  0
 16 17  1  0  0  0  0
 16 18  1  0  0  0  0
 16 39  1  0  0  0  0
 17 40  1  0  0  0  0
 17 41  1  0  0  0  0
 17 42  1  0  0  0  0
 18 20  1  0  0  0  0
 18 19  1  0  0  0  0
 18 43  1  0  0  0  0
 19 20  1  0  0  0  0
 19 44  1  0  0  0  0
 19 45  1  0  0  0  0
 20 46  1  0  0  0  0
 20 47  1  0  0  0  0
 21 22  2  0  0  0  0
 23 25  1  0  0  0  0
 23 24  1  0  0  0  0
 23 48  1  0  0  0  0
 24 25  1  0  0  0  0
 24 49  1  0  0  0  0
 24 50  1  0  0  0  0
 25 51  1  0  0  0  0
 25 52  1  0  0  0  0
M  END
> <s_m_source_file>
AV-unprocessed.smi

> <i_m_source_file_index>
2862

> <i_lp_mmshare_version>
43012

> <i_f3d_flags>
0

> <s_epik_input>
W0NIMl0xW0NIMl1bQ0hdMVtDQEhdKFtDSDNdKVtOSF1DKD1PKVtDSDJdbjJbY0hdW2NIXVtjSF1jKGMyPU8pQyg9TylOKFtDSDNdKVtDQEhdKFtDSDNdKVtDSF0zW0NIMl1bQ0gyXTM=

> <s_epik_cmdline>
J2VwaWtfcHl0aG9uJywgJy1waCcsICc3LjAnLCAnLXRuJywgJzgnLCAnLW1hJywgJzIwMCcsICctbWV0YWxfYmluZGluZycsICctaW1hZScsICc8aW5maWxlLm1hZT4nLCAnLW9tYWUnLCAnPG91dGZpbGUubWFlPic=

> <r_lp_tautomer_probability>
1

> <r_epik_Ionization_Penalty>
4.00841e-08

> <r_epik_Ionization_Penalty_Charging>
2.07773e-08

> <r_epik_Ionization_Penalty_Neutral>
1.93069e-08

> <r_epik_State_Penalty>
-0

> <r_epik_Charging_Adjusted_Penalty>
2.07773e-08

> <i_epik_Tot_Q>
0

> <i_epik_Tot_abs_Q>
0

> <r_epik_Metal_State_Penalty>
-0

> <b_epik_Metal_Only>
0

> <s_lp_Force_Field>
OPLS_2005

> <r_lp_Energy>
59.5746

> <b_lp_Chiralities_Consistent>
1

> <s_lp_Variant>
AV-unprocessed.smi:2862-4

> <Gold.Version>
5.8.1

> <Gold.Id.Protein>
6NUR|6NUR_protein|mol2

> <Gold.PLP.Fitness>
46.6786

> <Gold.PLP.PLP>
-38.1506

> <Gold.PLP.part.hbond>
-4.0000

> <Gold.PLP.part.metal>
0.0000

> <Gold.PLP.part.buried>
-4.4708

> <Gold.PLP.part.nonpolar>
-29.6184

> <Gold.PLP.part.repulsive>
0.1049

> <Gold.PLP.ligand.clash>
0.0000

> <Gold.PLP.ligand.torsion>
3.6974

> <Gold.PLP.Chemscore.Hbond>
3.8240

> <Gold.PLP.Chemscore.CHOScore>
0.0000

> <Gold.PLP.Chemscore.Metal>
0.0000

> <Gold.Chemscore.Hbonds>
donor molecule, donor type, donor heavy atom, donor atom, acceptor molecule, acceptor atom, score
      P1  H  6896  6907       L1    22  0.49
      P1  H  6931  6943       L1    13  1.00
      P1  H  6934  6947       L1    13  0.12

> <Gold.PLP.Chemscore.Internal.Correction>
4.4507

> <Gold.Rescore>
     Score         DG    S(hbond)    S(metal)    S(lipo)     H(rot)  DE(clash)    DE(int)     intcor
     20.05     -23.70       3.60        0.00      90.92       1.73       0.00       3.65       ----

> <Gold.Chemscore.Fitness>
20.0468

> <Gold.Chemscore.DG>
-23.6978

> <Gold.Chemscore.ZeroCoef>
-5.4800

> <Gold.Chemscore.Hbond>
3.5993

> <Gold.Chemscore.Metal>
0.0000

> <Gold.Chemscore.Lipo>
90.9181

> <Gold.Chemscore.Internal_Hbond>
0.0000

> <Gold.Chemscore.DEClash>
0.0030

> <Gold.Chemscore.DEInternal>
3.6479

> <Gold.Chemscore.Rot>
1.7348

> <Gold.Chemscore.Internal.Correction>
   9.000000E+99

> <Gold.Chemscore.Hbonds>
donor molecule, donor type, donor heavy atom, donor atom, acceptor molecule, acceptor atom, score
      P1  H  6896  6907       L1    22  0.49
      P1  H  6931  6943       L1    13  0.80

> <Gold.Chemscore.Hbond.Weighted>
-12.0215

> <Gold.Chemscore.Metal.Weighted>
-0.0000

> <Gold.Chemscore.Lipo.Weighted>
-10.6374

> <Gold.Chemscore.Internal_Hbond.Weighted>
0.0000

> <Gold.Chemscore.DEClash.Weighted>
0.0030

> <Gold.Chemscore.DEInternal.Weighted>
3.6479

> <Gold.Chemscore.Rot.Weighted>
4.4412

> <Gold.Chemscore.Internal.Correction.Weighted>
   9.000000E+99

> <Gold.Protein.RotatedTorsions>
[ 6907 6896 6895 6894 ] final  -20.79 input  -60.11 | X-H torsion
[ 7974 7965 7964 7962 ] final -119.66 input  175.53 | X-H torsion
[ 8008 7997 7996 7995 ] final -172.02 input   59.86 | X-H torsion
[ 10167 10162 10161 10158 ] final -149.10 input  -65.29 | X-H torsion
[ 10718 10713 10712 10709 ] final -151.95 input   66.30 | X-H torsion
[ 10763 10752 10751 10750 ] final   85.01 input  -60.55 | X-H torsion
[ 11005 11000 10999 10996 ] final  136.40 input  -57.11 | X-H torsion

> <Gold.Protein.ActiveResidues>
 VAL166  LYS551  ARG553  GLY616  TRP617  ASP618  TYR619  PRO620  LYS621  CYS622 
 ASP623  PHE694  ASN695  SER759  ASP760  ASP761  ALA762  ILE779  LEU786  VAL792 
 PHE793  MET794  SER795  GLU796  ALA797  LYS798  CYS799  TRP800  GLU811  SER814 

> <Gold.Protein.RotatedAtoms>
  151.2429  135.0595  159.9031 H   0  0  0  0  0  0  0  0  0  0  0  0  # atno 6907 bound_to 6896
  152.5390  134.0414  159.8079 H   0  0  0  0  0  0  0  0  0  0  0  0  # atno 6908 bound_to 6896
  151.0611  133.5494  159.2665 H   0  0  0  0  0  0  0  0  0  0  0  0  # atno 6909 bound_to 6896
  145.0601  140.8283  143.4158 H   0  0  0  0  0  0  0  0  0  0  0  0  # atno 7974 bound_to 7965
  155.9392  140.1105  157.1069 H   0  0  0  0  0  0  0  0  0  0  0  0  # atno 8008 bound_to 7997
  154.4086  140.1222  156.4970 H   0  0  0  0  0  0  0  0  0  0  0  0  # atno 8009 bound_to 7997
  155.6983  140.3472  155.4924 H   0  0  0  0  0  0  0  0  0  0  0  0  # atno 8010 bound_to 7997
  139.7473  143.8572  152.2578 H   0  0  0  0  0  0  0  0  0  0  0  0  # atno 10167 bound_to 10162
  156.4661  130.8236  151.2466 H   0  0  0  0  0  0  0  0  0  0  0  0  # atno 10718 bound_to 10713
  153.1434  135.4633  154.9530 H   0  0  0  0  0  0  0  0  0  0  0  0  # atno 10763 bound_to 10752
  154.7766  135.3175  154.8081 H   0  0  0  0  0  0  0  0  0  0  0  0  # atno 10764 bound_to 10752
  153.8599  135.6913  153.4838 H   0  0  0  0  0  0  0  0  0  0  0  0  # atno 10765 bound_to 10752
  140.0043  134.9465  157.0141 H   0  0  0  0  0  0  0  0  0  0  0  0  # atno 11005 bound_to 11000
  145.1420  139.2566  143.5485 LP  0  0  0  0  0  0  0  0  0  0  0  0  # atno 17320 bound_to 7965
  146.3524  140.1099  142.8604 LP  0  0  0  0  0  0  0  0  0  0  0  0  # atno 17321 bound_to 7965
  139.8540  144.7150  150.9180 LP  0  0  0  0  0  0  0  0  0  0  0  0  # atno 17342 bound_to 10162
  140.7793  143.3875  151.1368 LP  0  0  0  0  0  0  0  0  0  0  0  0  # atno 17343 bound_to 10162
  157.7494  131.0091  150.3256 LP  0  0  0  0  0  0  0  0  0  0  0  0  # atno 17370 bound_to 10713
  156.3666  130.3856  149.7208 LP  0  0  0  0  0  0  0  0  0  0  0  0  # atno 17371 bound_to 10713
  140.4670  134.1426  155.7198 LP  0  0  0  0  0  0  0  0  0  0  0  0  # atno 17394 bound_to 11000
  141.1665  133.8692  157.1698 LP  0  0  0  0  0  0  0  0  0  0  0  0  # atno 17395 bound_to 11000

$$$$
