AV-unprocessed.smi:3150|AV-procd|sdf|12012|dock5
  -GOLD-   2272017423D 1   1.00000     0.00000
 Structure written by MMmdl.
 32 33  0  0  0  0  0  0  0  0  2 V2000
  149.0538  139.3624  158.2594 C   0  0  0  0  0  0  0  0  0  0  0  0
  148.8536  137.8895  157.8779 C   0  0  1  0  0  0  0  0  0  0  0  0
  149.5246  137.6642  156.6404 O   0  0  0  0  0  0  0  0  0  0  0  0
  150.8947  138.0459  156.6216 C   0  0  0  0  0  0  0  0  0  0  0  0
  151.4760  137.7054  155.2665 C   0  0  0  0  0  0  0  0  0  0  0  0
  152.3412  138.7042  154.5319 C   0  0  0  0  0  0  0  0  0  0  0  0
  150.9610  138.3834  154.0174 C   0  0  0  0  0  0  0  0  0  0  0  0
  149.4142  136.9643  158.9714 C   0  0  0  0  0  0  0  0  0  0  0  0
  150.3602  136.2233  158.6895 O   0  0  0  0  0  0  0  0  0  0  0  0
  148.7312  137.1105  160.1760 N   0  0  0  0  0  0  0  0  0  0  0  0
  148.0903  136.1376  160.7649 C   0  0  0  0  0  0  0  0  0  0  0  0
  148.0171  134.8338  160.2444 N   0  0  0  0  0  0  0  0  0  0  0  0
  147.3351  133.8113  160.8692 C   0  0  0  0  0  0  0  0  0  0  0  0
  146.6957  134.0028  162.0242 C   0  0  0  0  0  0  0  0  0  0  0  0
  146.7237  135.3183  162.6296 C   0  0  0  0  0  0  0  0  0  0  0  0
  147.3986  136.3944  162.0412 C   0  0  0  0  0  0  0  0  0  0  0  0
  147.3950  137.5157  162.6002 O   0  5  0  0  0  0  0  0  0  0  0  0
  148.5520  139.5995  159.1983 H   0  0  0  0  0  0  0  0  0  0  0  0
  148.6434  140.0196  157.4922 H   0  0  0  0  0  0  0  0  0  0  0  0
  150.1108  139.6061  158.3725 H   0  0  0  0  0  0  0  0  0  0  0  0
  147.7848  137.7117  157.7404 H   0  0  0  0  0  0  0  0  0  0  0  0
  151.0184  139.1129  156.8116 H   0  0  0  0  0  0  0  0  0  0  0  0
  151.4480  137.5039  157.3896 H   0  0  0  0  0  0  0  0  0  0  0  0
  151.7635  136.6610  155.1613 H   0  0  0  0  0  0  0  0  0  0  0  0
  152.4915  139.6798  154.9902 H   0  0  0  0  0  0  0  0  0  0  0  0
  153.1898  138.3165  153.9720 H   0  0  0  0  0  0  0  0  0  0  0  0
  150.8870  137.7809  153.1143 H   0  0  0  0  0  0  0  0  0  0  0  0
  150.1901  139.1424  154.1357 H   0  0  0  0  0  0  0  0  0  0  0  0
  147.3636  132.8642  160.3513 H   0  0  0  0  0  0  0  0  0  0  0  0
  146.1656  133.1912  162.5002 H   0  0  0  0  0  0  0  0  0  0  0  0
  146.2026  135.4615  163.5654 H   0  0  0  0  0  0  0  0  0  0  0  0
  148.4719  134.6003  159.3742 H   0  0  0  0  0  0  0  0  0  0  0  0
  1  2  1  0  0  0  0
  1 18  1  0  0  0  0
  1 19  1  0  0  0  0
  1 20  1  0  0  0  0
  2  3  1  0  0  0  0
  2  8  1  0  0  0  0
  2 21  1  0  0  0  0
  3  4  1  0  0  0  0
  4  5  1  0  0  0  0
  4 22  1  0  0  0  0
  4 23  1  0  0  0  0
  5  7  1  0  0  0  0
  5  6  1  0  0  0  0
  5 24  1  0  0  0  0
  6  7  1  0  0  0  0
  6 25  1  0  0  0  0
  6 26  1  0  0  0  0
  7 27  1  0  0  0  0
  7 28  1  0  0  0  0
  8  9  2  0  0  0  0
  8 10  1  0  0  0  0
 10 11  2  0  0  0  0
 11 16  1  0  0  0  0
 11 12  1  0  0  0  0
 12 32  1  0  0  0  0
 12 13  1  0  0  0  0
 13 29  1  0  0  0  0
 13 14  2  0  0  0  0
 14 30  1  0  0  0  0
 14 15  1  0  0  0  0
 15 16  2  0  0  0  0
 15 31  1  0  0  0  0
 16 17  1  0  0  0  0
M  CHG  1  17  -1
M  END
> <s_m_source_file>
AV-unprocessed.smi

> <i_m_source_file_index>
3150

> <i_lp_mmshare_version>
43012

> <i_f3d_flags>
0

> <s_epik_input>
W0NIMl0xW0NIMl1bQ0hdMVtDSDJdT1tDQEBIXShbQ0gzXSlDKD1PKVtOSF1jMm5bY0hdW2NIXVtjSF1jMltPSF0=

> <s_epik_cmdline>
J2VwaWtfcHl0aG9uJywgJy1waCcsICc3LjAnLCAnLXRuJywgJzgnLCAnLW1hJywgJzIwMCcsICctbWV0YWxfYmluZGluZycsICctaW1hZScsICc8aW5maWxlLm1hZT4nLCAnLW9tYWUnLCAnPG91dGZpbGUubWFlPic=

> <r_epik_Ionization_Penalty>
0.784632

> <r_epik_Ionization_Penalty_Charging>
0.784632

> <r_epik_Ionization_Penalty_Neutral>
7.02258e-13

> <r_epik_State_Penalty>
1.43154

> <r_epik_Charging_Adjusted_Penalty>
2.21617

> <i_epik_Tot_Q>
-1

> <i_epik_Tot_abs_Q>
1

> <r_epik_Metal_State_Penalty>
1.39244

> <b_epik_Metal_Only>
0

> <s_lp_Force_Field>
OPLS_2005

> <r_lp_Energy>
45.381

> <b_lp_Chiralities_Consistent>
1

> <s_lp_Variant>
AV-unprocessed.smi:3150-6

> <Gold.Version>
5.8.1

> <Gold.Id.Protein>
6NUR|6NUR_protein|mol2

> <Gold.PLP.Fitness>
39.3646

> <Gold.PLP.PLP>
-32.0454

> <Gold.PLP.part.hbond>
-4.4011

> <Gold.PLP.part.metal>
0.0000

> <Gold.PLP.part.buried>
-3.4670

> <Gold.PLP.part.nonpolar>
-23.4677

> <Gold.PLP.part.repulsive>
0.0994

> <Gold.PLP.ligand.clash>
0.0000

> <Gold.PLP.ligand.torsion>
0.9397

> <Gold.PLP.Chemscore.Hbond>
2.8785

> <Gold.PLP.Chemscore.CHOScore>
0.0000

> <Gold.PLP.Chemscore.Metal>
0.0000

> <Gold.Chemscore.Hbonds>
donor molecule, donor type, donor heavy atom, donor atom, acceptor molecule, acceptor atom, score
      P1  H  6896  6907       L1     9  0.96
      P1  H  6931  6943       L1    17  1.25
      P1  H  6934  6947       L1    17  0.41

> <Gold.PLP.Chemscore.Internal.Correction>
0.5631

> <Gold.Rescore>
     Score         DG    S(hbond)    S(metal)    S(lipo)     H(rot)  DE(clash)    DE(int)     intcor
     12.21     -14.61       1.82        0.00      61.86       1.64       0.02       2.38       ----

> <Gold.Chemscore.Fitness>
12.2087

> <Gold.Chemscore.DG>
-14.6056

> <Gold.Chemscore.ZeroCoef>
-5.4800

> <Gold.Chemscore.Hbond>
1.8214

> <Gold.Chemscore.Metal>
0.0000

> <Gold.Chemscore.Lipo>
61.8563

> <Gold.Chemscore.Internal_Hbond>
0.0000

> <Gold.Chemscore.DEClash>
0.0178

> <Gold.Chemscore.DEInternal>
2.3791

> <Gold.Chemscore.Rot>
1.6387

> <Gold.Chemscore.Internal.Correction>
   9.000000E+99

> <Gold.Chemscore.Hbonds>
donor molecule, donor type, donor heavy atom, donor atom, acceptor molecule, acceptor atom, score
      P1  H  6896  6907       L1     9  0.92
      P1  H  6931  6943       L1    17  0.21
      P1  H  6934  6947       L1    17  0.13

> <Gold.Chemscore.Hbond.Weighted>
-6.0835

> <Gold.Chemscore.Metal.Weighted>
-0.0000

> <Gold.Chemscore.Lipo.Weighted>
-7.2372

> <Gold.Chemscore.Internal_Hbond.Weighted>
0.0000

> <Gold.Chemscore.DEClash.Weighted>
0.0178

> <Gold.Chemscore.DEInternal.Weighted>
2.3791

> <Gold.Chemscore.Rot.Weighted>
4.1950

> <Gold.Chemscore.Internal.Correction.Weighted>
   9.000000E+99

> <Gold.Protein.RotatedTorsions>
[ 6907 6896 6895 6894 ] final  -31.60 input  -60.11 | X-H torsion
[ 7974 7965 7964 7962 ] final  147.82 input  175.53 | X-H torsion
[ 8008 7997 7996 7995 ] final  171.06 input   59.86 | X-H torsion
[ 10167 10162 10161 10158 ] final   79.26 input  -65.29 | X-H torsion
[ 10718 10713 10712 10709 ] final  110.10 input   66.30 | X-H torsion
[ 10763 10752 10751 10750 ] final  167.38 input  -60.55 | X-H torsion
[ 11005 11000 10999 10996 ] final  -79.61 input  -57.11 | X-H torsion

> <Gold.Protein.ActiveResidues>
 VAL166  LYS551  ARG553  GLY616  TRP617  ASP618  TYR619  PRO620  LYS621  CYS622 
 ASP623  PHE694  ASN695  SER759  ASP760  ASP761  ALA762  ILE779  LEU786  VAL792 
 PHE793  MET794  SER795  GLU796  ALA797  LYS798  CYS799  TRP800  GLU811  SER814 

> <Gold.Protein.RotatedAtoms>
  151.0899  134.9909  159.8397 H   0  0  0  0  0  0  0  0  0  0  0  0  # atno 6907 bound_to 6896
  152.5428  134.2079  159.8748 H   0  0  0  0  0  0  0  0  0  0  0  0  # atno 6908 bound_to 6896
  151.2114  133.4510  159.2631 H   0  0  0  0  0  0  0  0  0  0  0  0  # atno 6909 bound_to 6896
  144.8562  139.6076  143.5951 H   0  0  0  0  0  0  0  0  0  0  0  0  # atno 7974 bound_to 7965
  156.1307  140.1521  156.9070 H   0  0  0  0  0  0  0  0  0  0  0  0  # atno 8008 bound_to 7997
  154.4907  140.0852  156.7627 H   0  0  0  0  0  0  0  0  0  0  0  0  # atno 8009 bound_to 7997
  155.4261  140.3425  155.4278 H   0  0  0  0  0  0  0  0  0  0  0  0  # atno 8010 bound_to 7997
  139.9622  144.5953  150.8061 H   0  0  0  0  0  0  0  0  0  0  0  0  # atno 10167 bound_to 10162
  157.6510  131.0926  150.6552 H   0  0  0  0  0  0  0  0  0  0  0  0  # atno 10718 bound_to 10713
  154.3531  135.2753  155.2361 H   0  0  0  0  0  0  0  0  0  0  0  0  # atno 10763 bound_to 10752
  154.4582  135.5914  153.6241 H   0  0  0  0  0  0  0  0  0  0  0  0  # atno 10764 bound_to 10752
  152.9848  135.6058  154.3743 H   0  0  0  0  0  0  0  0  0  0  0  0  # atno 10765 bound_to 10752
  141.1667  133.7113  156.8149 H   0  0  0  0  0  0  0  0  0  0  0  0  # atno 11005 bound_to 11000
  146.2824  139.6914  142.9219 LP  0  0  0  0  0  0  0  0  0  0  0  0  # atno 17320 bound_to 7965
  145.4402  141.0422  143.2862 LP  0  0  0  0  0  0  0  0  0  0  0  0  # atno 17321 bound_to 7965
  140.7549  143.3036  151.3017 LP  0  0  0  0  0  0  0  0  0  0  0  0  # atno 17342 bound_to 10162
  139.6545  144.0302  152.2650 LP  0  0  0  0  0  0  0  0  0  0  0  0  # atno 17343 bound_to 10162
  156.6863  130.4582  149.5613 LP  0  0  0  0  0  0  0  0  0  0  0  0  # atno 17370 bound_to 10713
  156.1893  130.6549  151.1043 LP  0  0  0  0  0  0  0  0  0  0  0  0  # atno 17371 bound_to 10713
  140.2161  134.8791  157.3327 LP  0  0  0  0  0  0  0  0  0  0  0  0  # atno 17394 bound_to 11000
  140.2036  134.4224  155.7649 LP  0  0  0  0  0  0  0  0  0  0  0  0  # atno 17395 bound_to 11000

$$$$
