AV-unprocessed.smi:1803|AV-procd|sdf|7294|dock7
  -GOLD-   22720 8553D 1   1.00000     0.00000
 Structure written by MMmdl.
 35 37  0  0  0  0  0  0  0  0  3 V2000
  147.1156  132.1452  154.0866 O   0  0  0  0  0  0  0  0  0  0  0  0
  147.9565  132.9938  153.7934 C   0  0  0  0  0  0  0  0  0  0  0  0
  149.2211  132.9967  154.2899 N   0  5  0  0  0  0  0  0  0  0  0  0
  149.8616  131.8692  154.6506 C   0  0  0  0  0  0  0  0  0  0  0  0
  150.9046  131.8712  155.4963 N   0  0  0  0  0  0  0  0  0  0  0  0
  151.4233  130.6043  155.7258 N   0  0  0  0  0  0  0  0  0  0  0  0
  150.7449  129.6727  155.0564 C   0  0  0  0  0  0  0  0  0  0  0  0
  149.4186  130.2597  154.0755 S   0  0  0  0  0  0  0  0  0  0  0  0
  147.6170  133.9762  152.9380 N   0  0  0  0  0  0  0  0  0  0  0  0
  146.3192  134.1369  152.2938 C   0  0  1  0  0  0  0  0  0  0  0  0
  145.8588  135.5980  152.1698 C   0  0  0  0  0  0  0  0  0  0  0  0
  145.1970  135.7005  150.7816 C   0  0  0  0  0  0  0  0  0  0  0  0
  145.1942  134.3345  150.2093 N   0  3  2  0  0  0  0  0  0  0  0  0
  143.8910  133.6442  150.4136 C   0  0  0  0  0  0  0  0  0  0  0  0
  143.9592  132.1579  150.0392 C   0  0  0  0  0  0  0  0  0  0  0  0
  145.0439  131.4553  150.8596 C   0  0  0  0  0  0  0  0  0  0  0  0
  146.3944  132.1354  150.6104 C   0  0  0  0  0  0  0  0  0  0  0  0
  146.3562  133.6631  150.8390 C   0  0  2  0  0  0  0  0  0  0  0  0
  151.0283  128.6341  155.1395 H   0  0  0  0  0  0  0  0  0  0  0  0
  148.3231  134.6643  152.7208 H   0  0  0  0  0  0  0  0  0  0  0  0
  145.5672  133.5673  152.8425 H   0  0  0  0  0  0  0  0  0  0  0  0
  145.1635  135.8546  152.9697 H   0  0  0  0  0  0  0  0  0  0  0  0
  146.6996  136.2904  152.2326 H   0  0  0  0  0  0  0  0  0  0  0  0
  144.1990  136.1390  150.8258 H   0  0  0  0  0  0  0  0  0  0  0  0
  145.8012  136.3393  150.1365 H   0  0  0  0  0  0  0  0  0  0  0  0
  143.5789  133.7401  151.4548 H   0  0  0  0  0  0  0  0  0  0  0  0
  143.1288  134.1425  149.8137 H   0  0  0  0  0  0  0  0  0  0  0  0
  142.9932  131.6849  150.2181 H   0  0  0  0  0  0  0  0  0  0  0  0
  144.1667  132.0499  148.9737 H   0  0  0  0  0  0  0  0  0  0  0  0
  144.7934  131.4895  151.9204 H   0  0  0  0  0  0  0  0  0  0  0  0
  145.0997  130.4010  150.5870 H   0  0  0  0  0  0  0  0  0  0  0  0
  147.1655  131.6802  151.2330 H   0  0  0  0  0  0  0  0  0  0  0  0
  146.6917  131.9444  149.5785 H   0  0  0  0  0  0  0  0  0  0  0  0
  147.2491  134.0865  150.3738 H   0  0  0  0  0  0  0  0  0  0  0  0
  145.3526  134.3882  149.2134 H   0  0  0  0  0  0  0  0  0  0  0  0
  1  2  2  0  0  0  0
  2  3  1  0  0  0  0
  2  9  1  0  0  0  0
  3  4  1  0  0  0  0
  4  8  1  0  0  0  0
  4  5  2  0  0  0  0
  5  6  1  0  0  0  0
  6  7  2  0  0  0  0
  7  8  1  0  0  0  0
  7 19  1  0  0  0  0
  9 10  1  0  0  0  0
  9 20  1  0  0  0  0
 10 18  1  0  0  0  0
 10 11  1  0  0  0  0
 10 21  1  0  0  0  0
 11 12  1  0  0  0  0
 11 22  1  0  0  0  0
 11 23  1  0  0  0  0
 12 13  1  0  0  0  0
 12 24  1  0  0  0  0
 12 25  1  0  0  0  0
 13 18  1  0  0  0  0
 13 14  1  0  0  0  0
 13 35  1  0  0  0  0
 14 15  1  0  0  0  0
 14 26  1  0  0  0  0
 14 27  1  0  0  0  0
 15 16  1  0  0  0  0
 15 28  1  0  0  0  0
 15 29  1  0  0  0  0
 16 17  1  0  0  0  0
 16 30  1  0  0  0  0
 16 31  1  0  0  0  0
 17 18  1  0  0  0  0
 17 32  1  0  0  0  0
 17 33  1  0  0  0  0
 18 34  1  0  0  0  0
M  CHG  1   3  -1
M  CHG  1  13   1
M  END
> <s_m_source_file>
AV-unprocessed.smi

> <i_m_source_file_index>
1803

> <i_lp_mmshare_version>
43012

> <i_f3d_flags>
0

> <s_epik_input>
czFbY0hdbm5jMVtOSF1DKD1PKVtOSF1bQ0BIXShbQ0gyXVtDSDJdMilbQ0BASF0oTjIzKVtDSDJdW0NIMl1bQ0gyXVtDSDJdMw==

> <s_epik_cmdline>
J2VwaWtfcHl0aG9uJywgJy1waCcsICc3LjAnLCAnLXRuJywgJzgnLCAnLW1hJywgJzIwMCcsICctbWV0YWxfYmluZGluZycsICctaW1hZScsICc8aW5maWxlLm1hZT4nLCAnLW9tYWUnLCAnPG91dGZpbGUubWFlPic=

> <r_lp_tautomer_probability>
1

> <r_epik_Ionization_Penalty>
3.78828

> <r_epik_Ionization_Penalty_Charging>
3.7591

> <r_epik_Ionization_Penalty_Neutral>
0.0291838

> <r_epik_State_Penalty>
3.757

> <r_epik_Charging_Adjusted_Penalty>
7.51609

> <i_epik_Tot_Q>
0

> <i_epik_Tot_abs_Q>
2

> <r_epik_Metal_State_Penalty>
0.558016

> <b_epik_Metal_Only>
1

> <s_lp_Force_Field>
OPLS_2005

> <r_lp_Energy>
31.4395

> <b_lp_Chiralities_Consistent>
1

> <s_lp_Variant>
AV-unprocessed.smi:1803-16

> <Gold.Version>
5.8.1

> <Gold.Id.Protein>
6NUR|6NUR_protein|mol2

> <Gold.PLP.Fitness>
35.1512

> <Gold.PLP.PLP>
-30.2411

> <Gold.PLP.part.hbond>
-2.0000

> <Gold.PLP.part.metal>
0.0000

> <Gold.PLP.part.buried>
-1.8798

> <Gold.PLP.part.nonpolar>
-26.9431

> <Gold.PLP.part.repulsive>
0.2391

> <Gold.PLP.ligand.clash>
0.0000

> <Gold.PLP.ligand.torsion>
0.5497

> <Gold.PLP.Chemscore.Hbond>
2.0000

> <Gold.PLP.Chemscore.CHOScore>
0.0000

> <Gold.PLP.Chemscore.Metal>
0.0000

> <Gold.Chemscore.Hbonds>
donor molecule, donor type, donor heavy atom, donor atom, acceptor molecule, acceptor atom, score
      L1  H     9    20       P1  7948  1.00
      L1  H    13    35       P1  7921  1.00

> <Gold.PLP.Chemscore.Internal.Correction>
0.0095

> <Gold.Rescore>
     Score         DG    S(hbond)    S(metal)    S(lipo)     H(rot)  DE(clash)    DE(int)     intcor
     15.59     -17.75       1.96        0.00      70.82       1.00       0.79       1.37       ----

> <Gold.Chemscore.Fitness>
15.5886

> <Gold.Chemscore.DG>
-17.7470

> <Gold.Chemscore.ZeroCoef>
-5.4800

> <Gold.Chemscore.Hbond>
1.9584

> <Gold.Chemscore.Metal>
0.0000

> <Gold.Chemscore.Lipo>
70.8217

> <Gold.Chemscore.Internal_Hbond>
0.0000

> <Gold.Chemscore.DEClash>
0.7883

> <Gold.Chemscore.DEInternal>
1.3701

> <Gold.Chemscore.Rot>
1.0000

> <Gold.Chemscore.Internal.Correction>
   9.000000E+99

> <Gold.Chemscore.Hbonds>
donor molecule, donor type, donor heavy atom, donor atom, acceptor molecule, acceptor atom, score
      L1  H     9    20       P1  7948  0.39
      L1  H    13    35       P1  7921  0.97

> <Gold.Chemscore.Hbond.Weighted>
-6.5409

> <Gold.Chemscore.Metal.Weighted>
-0.0000

> <Gold.Chemscore.Lipo.Weighted>
-8.2861

> <Gold.Chemscore.Internal_Hbond.Weighted>
0.0000

> <Gold.Chemscore.DEClash.Weighted>
0.7883

> <Gold.Chemscore.DEInternal.Weighted>
1.3701

> <Gold.Chemscore.Rot.Weighted>
2.5600

> <Gold.Chemscore.Internal.Correction.Weighted>
   9.000000E+99

> <Gold.Protein.RotatedTorsions>
[ 6907 6896 6895 6894 ] final  -91.56 input  -60.11 | X-H torsion
[ 7974 7965 7964 7962 ] final -121.15 input  175.53 | X-H torsion
[ 8008 7997 7996 7995 ] final -122.90 input   59.86 | X-H torsion
[ 10167 10162 10161 10158 ] final  -73.80 input  -65.29 | X-H torsion
[ 10718 10713 10712 10709 ] final  -39.68 input   66.30 | X-H torsion
[ 10763 10752 10751 10750 ] final  -40.85 input  -60.55 | X-H torsion
[ 11005 11000 10999 10996 ] final  111.36 input  -57.11 | X-H torsion

> <Gold.Protein.ActiveResidues>
 VAL166  LYS551  ARG553  GLY616  TRP617  ASP618  TYR619  PRO620  LYS621  CYS622 
 ASP623  PHE694  ASN695  SER759  ASP760  ASP761  ALA762  ILE779  LEU786  VAL792 
 PHE793  MET794  SER795  GLU796  ALA797  LYS798  CYS799  TRP800  GLU811  SER814 

> <Gold.Protein.RotatedAtoms>
  150.6894  134.2259  159.4414 H   0  0  0  0  0  0  0  0  0  0  0  0  # atno 6907 bound_to 6896
  152.0212  134.9819  160.0580 H   0  0  0  0  0  0  0  0  0  0  0  0  # atno 6908 bound_to 6896
  152.1395  133.4421  159.4797 H   0  0  0  0  0  0  0  0  0  0  0  0  # atno 6909 bound_to 6896
  145.0435  140.8163  143.4252 H   0  0  0  0  0  0  0  0  0  0  0  0  # atno 7974 bound_to 7965
  155.1718  140.0408  157.2864 H   0  0  0  0  0  0  0  0  0  0  0  0  # atno 8008 bound_to 7997
  154.6264  140.2513  155.7459 H   0  0  0  0  0  0  0  0  0  0  0  0  # atno 8009 bound_to 7997
  156.2461  140.2884  156.0596 H   0  0  0  0  0  0  0  0  0  0  0  0  # atno 8010 bound_to 7997
  140.5080  143.2349  151.7641 H   0  0  0  0  0  0  0  0  0  0  0  0  # atno 10167 bound_to 10162
  156.2898  130.4227  149.8250 H   0  0  0  0  0  0  0  0  0  0  0  0  # atno 10718 bound_to 10713
  153.9527  135.6748  153.4744 H   0  0  0  0  0  0  0  0  0  0  0  0  # atno 10763 bound_to 10752
  153.0876  135.4891  154.8624 H   0  0  0  0  0  0  0  0  0  0  0  0  # atno 10764 bound_to 10752
  154.7316  135.3139  154.8841 H   0  0  0  0  0  0  0  0  0  0  0  0  # atno 10765 bound_to 10752
  139.8902  134.9506  156.6421 H   0  0  0  0  0  0  0  0  0  0  0  0  # atno 11005 bound_to 11000
  145.1617  139.2454  143.5388 LP  0  0  0  0  0  0  0  0  0  0  0  0  # atno 17320 bound_to 7965
  146.3511  140.1346  142.8596 LP  0  0  0  0  0  0  0  0  0  0  0  0  # atno 17321 bound_to 7965
  139.4888  144.4430  151.9742 LP  0  0  0  0  0  0  0  0  0  0  0  0  # atno 17342 bound_to 10162
  140.3521  144.3076  150.5947 LP  0  0  0  0  0  0  0  0  0  0  0  0  # atno 17343 bound_to 10162
  156.5667  130.8407  151.3345 LP  0  0  0  0  0  0  0  0  0  0  0  0  # atno 17370 bound_to 10713
  157.7339  130.9738  150.2001 LP  0  0  0  0  0  0  0  0  0  0  0  0  # atno 17371 bound_to 10713
  140.7586  133.8837  155.8400 LP  0  0  0  0  0  0  0  0  0  0  0  0  # atno 17394 bound_to 11000
  140.9941  134.1239  157.4380 LP  0  0  0  0  0  0  0  0  0  0  0  0  # atno 17395 bound_to 11000

$$$$
