AV-unprocessed.smi:193|AV-procd|sdf|1512|dock7
  -GOLD-   2262019343D 1   1.00000     0.00000
 Structure written by MMmdl.
 61 65  0  0  0  0  0  0  0  0  1 V2000
  152.3921  138.6297  154.7088 C   0  0  0  0  0  0  0  0  0  0  0  0
  151.2154  139.2023  155.5148 C   0  0  2  0  0  0  0  0  0  0  0  0
  149.9019  138.9809  154.7338 C   0  0  0  0  0  0  0  0  0  0  0  0
  148.6880  139.0781  155.5479 N   0  0  0  0  0  0  0  0  0  0  0  0
  147.7031  138.1676  155.3211 C   0  0  0  0  0  0  0  0  0  0  0  0
  147.2970  137.3640  156.3406 N   0  0  0  0  0  0  0  0  0  0  0  0
  146.3415  136.4508  156.1474 C   0  0  0  0  0  0  0  0  0  0  0  0
  145.6639  136.1770  155.0320 N   0  0  0  0  0  0  0  0  0  0  0  0
  146.0555  136.9833  154.0049 C   0  0  0  0  0  0  0  0  0  0  0  0
  147.0583  137.9937  154.0605 C   0  0  0  0  0  0  0  0  0  0  0  0
  147.1710  138.6084  152.8180 N   0  0  0  0  0  0  0  0  0  0  0  0
  146.2989  137.9892  152.0713 C   0  0  0  0  0  0  0  0  0  0  0  0
  145.5750  137.0061  152.7068 N   0  0  0  0  0  0  0  0  0  0  0  0
  144.5424  136.1665  152.1165 C   0  0  0  0  0  0  0  0  0  0  0  0
  145.0528  135.2262  150.9903 C   0  0  0  0  0  0  0  0  0  0  0  0
  145.4543  136.0385  149.9026 O   0  0  0  0  0  0  0  0  0  0  0  0
  146.2878  134.4188  151.4371 C   0  0  0  0  0  0  0  0  0  0  0  0
  145.9040  133.2769  152.3956 C   0  0  0  0  0  0  0  0  0  0  0  0
  144.9325  132.4338  151.7860 O   0  0  0  0  0  0  0  0  0  0  0  0
  143.7194  133.1121  151.4787 C   0  0  0  0  0  0  0  0  0  0  0  0
  143.9903  134.2372  150.4642 C   0  0  0  0  0  0  0  0  0  0  0  0
  148.6616  139.8536  156.7883 C   0  0  0  0  0  0  0  0  0  0  0  0
  149.2796  141.2499  156.6331 C   0  0  0  0  0  0  0  0  0  0  0  0
  150.7073  141.2180  156.9359 N   0  0  0  0  0  0  0  0  0  0  0  0
  151.1522  142.5805  157.1869 C   0  0  2  0  0  0  0  0  0  0  0  0
  152.1598  142.7928  158.2942 C   0  0  0  0  0  0  0  0  0  0  0  0
  150.7266  143.2286  158.4875 C   0  0  1  0  0  0  0  0  0  0  0  0
  150.3708  144.6984  158.5374 C   0  0  0  0  0  0  0  0  0  0  0  0
  151.4739  140.6975  155.8050 C   0  0  0  0  0  0  0  0  0  0  0  0
  152.4911  139.1277  153.7438 H   0  0  0  0  0  0  0  0  0  0  0  0
  152.2609  137.5636  154.5217 H   0  0  0  0  0  0  0  0  0  0  0  0
  153.3341  138.7508  155.2444 H   0  0  0  0  0  0  0  0  0  0  0  0
  151.1829  138.6461  156.4530 H   0  0  0  0  0  0  0  0  0  0  0  0
  149.8321  139.6825  153.9020 H   0  0  0  0  0  0  0  0  0  0  0  0
  149.9435  137.9848  154.2913 H   0  0  0  0  0  0  0  0  0  0  0  0
  146.0842  135.8538  157.0100 H   0  0  0  0  0  0  0  0  0  0  0  0
  146.1542  138.2388  151.0300 H   0  0  0  0  0  0  0  0  0  0  0  0
  144.0930  135.5780  152.9176 H   0  0  0  0  0  0  0  0  0  0  0  0
  143.7499  136.8176  151.7486 H   0  0  0  0  0  0  0  0  0  0  0  0
  144.9687  136.8483  149.9390 H   0  0  0  0  0  0  0  0  0  0  0  0
  146.7750  133.9811  150.5642 H   0  0  0  0  0  0  0  0  0  0  0  0
  147.0274  135.0709  151.9034 H   0  0  0  0  0  0  0  0  0  0  0  0
  146.7844  132.6790  152.6313 H   0  0  0  0  0  0  0  0  0  0  0  0
  145.5253  133.6620  153.3430 H   0  0  0  0  0  0  0  0  0  0  0  0
  143.0144  132.3948  151.0583 H   0  0  0  0  0  0  0  0  0  0  0  0
  143.2666  133.4979  152.3920 H   0  0  0  0  0  0  0  0  0  0  0  0
  143.0630  134.7477  150.2046 H   0  0  0  0  0  0  0  0  0  0  0  0
  144.3461  133.7792  149.5398 H   0  0  0  0  0  0  0  0  0  0  0  0
  147.6221  139.9992  157.0850 H   0  0  0  0  0  0  0  0  0  0  0  0
  149.1348  139.2949  157.5970 H   0  0  0  0  0  0  0  0  0  0  0  0
  149.0738  141.6893  155.6555 H   0  0  0  0  0  0  0  0  0  0  0  0
  148.7974  141.8954  157.3686 H   0  0  0  0  0  0  0  0  0  0  0  0
  151.2501  143.2564  156.3387 H   0  0  0  0  0  0  0  0  0  0  0  0
  152.4970  141.9215  158.8525 H   0  0  0  0  0  0  0  0  0  0  0  0
  152.9106  143.5658  158.1431 H   0  0  0  0  0  0  0  0  0  0  0  0
  150.1316  142.6145  159.1614 H   0  0  0  0  0  0  0  0  0  0  0  0
  150.9929  145.2718  157.8496 H   0  0  0  0  0  0  0  0  0  0  0  0
  150.5188  145.0852  159.5456 H   0  0  0  0  0  0  0  0  0  0  0  0
  149.3259  144.8389  158.2603 H   0  0  0  0  0  0  0  0  0  0  0  0
  152.5302  140.8192  156.0493 H   0  0  0  0  0  0  0  0  0  0  0  0
  151.2972  141.2988  154.9117 H   0  0  0  0  0  0  0  0  0  0  0  0
  1  2  1  0  0  0  0
  1 30  1  0  0  0  0
  1 31  1  0  0  0  0
  1 32  1  0  0  0  0
  2 29  1  0  0  0  0
  2  3  1  0  0  0  0
  2 33  1  0  0  0  0
  3  4  1  0  0  0  0
  3 34  1  0  0  0  0
  3 35  1  0  0  0  0
  4  5  1  0  0  0  0
  4 22  1  0  0  0  0
  5 10  1  0  0  0  0
  5  6  2  0  0  0  0
  6  7  1  0  0  0  0
  7  8  2  0  0  0  0
  7 36  1  0  0  0  0
  8  9  1  0  0  0  0
  9 13  1  0  0  0  0
  9 10  2  0  0  0  0
 10 11  1  0  0  0  0
 11 12  2  0  0  0  0
 12 13  1  0  0  0  0
 12 37  1  0  0  0  0
 13 14  1  0  0  0  0
 14 15  1  0  0  0  0
 14 38  1  0  0  0  0
 14 39  1  0  0  0  0
 15 21  1  0  0  0  0
 15 16  1  0  0  0  0
 15 17  1  0  0  0  0
 16 40  1  0  0  0  0
 17 18  1  0  0  0  0
 17 41  1  0  0  0  0
 17 42  1  0  0  0  0
 18 19  1  0  0  0  0
 18 43  1  0  0  0  0
 18 44  1  0  0  0  0
 19 20  1  0  0  0  0
 20 21  1  0  0  0  0
 20 45  1  0  0  0  0
 20 46  1  0  0  0  0
 21 47  1  0  0  0  0
 21 48  1  0  0  0  0
 22 23  1  0  0  0  0
 22 49  1  0  0  0  0
 22 50  1  0  0  0  0
 23 24  1  0  0  0  0
 23 51  1  0  0  0  0
 23 52  1  0  0  0  0
 24 25  1  0  0  0  0
 24 29  1  0  0  0  0
 25 27  1  0  0  0  0
 25 26  1  0  0  0  0
 25 53  1  0  0  0  0
 26 27  1  0  0  0  0
 26 54  1  0  0  0  0
 26 55  1  0  0  0  0
 27 28  1  0  0  0  0
 27 56  1  0  0  0  0
 28 57  1  0  0  0  0
 28 58  1  0  0  0  0
 28 59  1  0  0  0  0
 29 60  1  0  0  0  0
 29 61  1  0  0  0  0
M  END
> <s_m_source_file>
AV-unprocessed.smi

> <i_m_source_file_index>
193

> <i_lp_mmshare_version>
43012

> <i_f3d_flags>
0

> <s_epik_input>
W0NIM11bQ0BASF0xW0NIMl1bQ0BIXTFOKFtDSDJdMilbQ0gyXVtDSDJdTihbQ0gyXVtDQEhdMltDSDNdKWMobltjSF1uMyljKGMzNCluW2NIXW40W0NIMl1DNShbT0hdKVtDSDJdW0NIMl1PW0NIMl1bQ0gyXTU=

> <s_epik_cmdline>
J2VwaWtfcHl0aG9uJywgJy1waCcsICc3LjAnLCAnLXRuJywgJzgnLCAnLW1hJywgJzIwMCcsICctbWV0YWxfYmluZGluZycsICctaW1hZScsICc8aW5maWxlLm1hZT4nLCAnLW9tYWUnLCAnPG91dGZpbGUubWFlPic=

> <r_lp_tautomer_probability>
1

> <r_epik_Ionization_Penalty>
1.45227

> <r_epik_Ionization_Penalty_Charging>
0

> <r_epik_Ionization_Penalty_Neutral>
1.45227

> <r_epik_State_Penalty>
2.02377

> <r_epik_Charging_Adjusted_Penalty>
2.02377

> <i_epik_Tot_Q>
0

> <i_epik_Tot_abs_Q>
0

> <r_epik_Metal_State_Penalty>
2.01937

> <b_epik_Metal_Only>
0

> <s_lp_Force_Field>
OPLS_2005

> <r_lp_Energy>
48.8748

> <b_lp_Chiralities_Consistent>
1

> <s_lp_Variant>
AV-unprocessed.smi:193-17

> <Gold.Version>
5.8.1

> <Gold.Id.Protein>
6NUR|6NUR_protein|mol2

> <Gold.PLP.Fitness>
45.7154

> <Gold.PLP.PLP>
-41.6120

> <Gold.PLP.part.hbond>
-2.0000

> <Gold.PLP.part.metal>
0.0000

> <Gold.PLP.part.buried>
-6.3456

> <Gold.PLP.part.nonpolar>
-35.2978

> <Gold.PLP.part.repulsive>
0.4462

> <Gold.PLP.ligand.clash>
0.0000

> <Gold.PLP.ligand.torsion>
1.5733

> <Gold.PLP.Chemscore.Hbond>
1.0000

> <Gold.PLP.Chemscore.CHOScore>
0.9971

> <Gold.PLP.Chemscore.Metal>
0.0000

> <Gold.Chemscore.Hbonds>
donor molecule, donor type, donor heavy atom, donor atom, acceptor molecule, acceptor atom, score
      L1  H    16    40       P1 10171  0.98
      L1  C    12    37       P1 10171  0.79

> <Gold.PLP.Chemscore.Internal.Correction>
1.2587

> <Gold.Rescore>
     Score         DG    S(hbond)    S(metal)    S(lipo)     H(rot)  DE(clash)    DE(int)     intcor
     14.91     -16.74       1.00        0.00     109.37       1.91       0.23       1.60       ----

> <Gold.Chemscore.Fitness>
14.9123

> <Gold.Chemscore.DG>
-16.7353

> <Gold.Chemscore.ZeroCoef>
-5.4800

> <Gold.Chemscore.Hbond>
1.0000

> <Gold.Chemscore.Metal>
0.0000

> <Gold.Chemscore.Lipo>
109.3732

> <Gold.Chemscore.Internal_Hbond>
0.0000

> <Gold.Chemscore.DEClash>
0.2271

> <Gold.Chemscore.DEInternal>
1.5958

> <Gold.Chemscore.Rot>
1.9068

> <Gold.Chemscore.Internal.Correction>
   9.000000E+99

> <Gold.Chemscore.Hbonds>
donor molecule, donor type, donor heavy atom, donor atom, acceptor molecule, acceptor atom, score
      L1  H    16    40       P1 10171  0.91

> <Gold.Chemscore.Hbond.Weighted>
-3.3400

> <Gold.Chemscore.Metal.Weighted>
-0.0000

> <Gold.Chemscore.Lipo.Weighted>
-12.7967

> <Gold.Chemscore.Internal_Hbond.Weighted>
0.0000

> <Gold.Chemscore.DEClash.Weighted>
0.2271

> <Gold.Chemscore.DEInternal.Weighted>
1.5958

> <Gold.Chemscore.Rot.Weighted>
4.8814

> <Gold.Chemscore.Internal.Correction.Weighted>
   9.000000E+99

> <Gold.Protein.RotatedTorsions>
[ 6907 6896 6895 6894 ] final   59.65 input  -60.11 | X-H torsion
[ 7974 7965 7964 7962 ] final   66.37 input  175.53 | X-H torsion
[ 8008 7997 7996 7995 ] final  151.89 input   59.86 | X-H torsion
[ 10167 10162 10161 10158 ] final  -31.44 input  -65.29 | X-H torsion
[ 10718 10713 10712 10709 ] final  -33.00 input   66.30 | X-H torsion
[ 10763 10752 10751 10750 ] final   35.36 input  -60.55 | X-H torsion
[ 11005 11000 10999 10996 ] final   35.96 input  -57.11 | X-H torsion

> <Gold.Protein.ActiveResidues>
 VAL166  LYS551  ARG553  GLY616  TRP617  ASP618  TYR619  PRO620  LYS621  CYS622 
 ASP623  PHE694  ASN695  SER759  ASP760  ASP761  ALA762  ILE779  LEU786  VAL792 
 PHE793  MET794  SER795  GLU796  ALA797  LYS798  CYS799  TRP800  GLU811  SER814 

> <Gold.Protein.RotatedAtoms>
  152.3933  134.6406  160.0098 H   0  0  0  0  0  0  0  0  0  0  0  0  # atno 6907 bound_to 6896
  151.6633  133.3310  159.3187 H   0  0  0  0  0  0  0  0  0  0  0  0  # atno 6908 bound_to 6896
  150.7845  134.6862  159.6516 H   0  0  0  0  0  0  0  0  0  0  0  0  # atno 6909 bound_to 6896
  145.8274  139.3119  143.1008 H   0  0  0  0  0  0  0  0  0  0  0  0  # atno 7974 bound_to 7965
  156.2654  140.2035  156.6246 H   0  0  0  0  0  0  0  0  0  0  0  0  # atno 8008 bound_to 7997
  154.6730  140.0548  157.0210 H   0  0  0  0  0  0  0  0  0  0  0  0  # atno 8009 bound_to 7997
  155.1110  140.3215  155.4524 H   0  0  0  0  0  0  0  0  0  0  0  0  # atno 8010 bound_to 7997
  140.7236  143.3771  151.1670 H   0  0  0  0  0  0  0  0  0  0  0  0  # atno 10167 bound_to 10162
  156.3680  130.4335  149.7569 H   0  0  0  0  0  0  0  0  0  0  0  0  # atno 10718 bound_to 10713
  153.0123  135.6335  154.1814 H   0  0  0  0  0  0  0  0  0  0  0  0  # atno 10763 bound_to 10752
  154.1555  135.2826  155.3125 H   0  0  0  0  0  0  0  0  0  0  0  0  # atno 10764 bound_to 10752
  154.6021  135.5584  153.7446 H   0  0  0  0  0  0  0  0  0  0  0  0  # atno 10765 bound_to 10752
  140.2374  134.3455  155.7939 H   0  0  0  0  0  0  0  0  0  0  0  0  # atno 11005 bound_to 11000
  145.9609  140.8836  143.0211 LP  0  0  0  0  0  0  0  0  0  0  0  0  # atno 17320 bound_to 7965
  144.6742  140.1811  143.7405 LP  0  0  0  0  0  0  0  0  0  0  0  0  # atno 17321 bound_to 7965
  139.7353  143.9009  152.3033 LP  0  0  0  0  0  0  0  0  0  0  0  0  # atno 17342 bound_to 10162
  139.8812  144.7017  150.8876 LP  0  0  0  0  0  0  0  0  0  0  0  0  # atno 17343 bound_to 10162
  156.4707  130.7995  151.3013 LP  0  0  0  0  0  0  0  0  0  0  0  0  # atno 17370 bound_to 10713
  157.7481  131.0037  150.3046 LP  0  0  0  0  0  0  0  0  0  0  0  0  # atno 17371 bound_to 10713
  141.2213  133.7279  156.8830 LP  0  0  0  0  0  0  0  0  0  0  0  0  # atno 17394 bound_to 11000
  140.1688  134.9114  157.2807 LP  0  0  0  0  0  0  0  0  0  0  0  0  # atno 17395 bound_to 11000

$$$$
