AV-unprocessed.smi:1800|AV-procd|sdf|7266|dock4
  -GOLD-   22720 8523D 1   1.00000     0.00000
 Structure written by MMmdl.
 35 36  0  0  0  0  0  0  0  0  2 V2000
  151.0660  138.7144  157.1686 C   0  0  0  0  0  0  0  0  0  0  0  0
  151.7988  139.9618  156.6560 C   0  0  1  0  0  0  0  0  0  0  0  0
  150.8507  141.1833  156.5460 C   0  0  0  0  0  0  0  0  0  0  0  0
  149.8885  141.1040  155.4498 N   0  0  0  0  0  0  0  0  0  0  0  0
  148.7949  141.9110  155.1970 C   0  0  0  0  0  0  0  0  0  0  0  0
  148.2036  141.4548  154.0542 C   0  0  0  0  0  0  0  0  0  0  0  0
  149.0222  140.3588  153.6651 C   0  0  0  0  0  0  0  0  0  0  0  0
  150.0369  140.1610  154.4899 N   0  0  0  0  0  0  0  0  0  0  0  0
  152.9035  140.2640  157.5559 N   0  5  0  0  0  0  0  0  0  0  0  0
  152.6308  140.3925  159.1498 S   0  0  0  0  0  0  0  0  0  0  0  0
  151.2242  140.7103  159.4447 O   0  0  0  0  0  0  0  0  0  0  0  0
  153.2382  139.2946  159.9206 O   0  0  0  0  0  0  0  0  0  0  0  0
  153.6131  141.9227  159.5339 C   0  0  0  0  0  0  0  0  0  0  0  0
  153.5458  142.2750  161.0259 C   0  0  0  0  0  0  0  0  0  0  0  0
  152.3249  143.1909  161.2022 C   0  0  0  0  0  0  0  0  0  0  0  0
  151.8918  143.6157  159.7912 C   0  0  0  0  0  0  0  0  0  0  0  0
  153.0152  143.1606  158.8574 C   0  0  0  0  0  0  0  0  0  0  0  0
  150.2393  138.4497  156.5093 H   0  0  0  0  0  0  0  0  0  0  0  0
  150.6560  138.8735  158.1669 H   0  0  0  0  0  0  0  0  0  0  0  0
  151.7359  137.8547  157.2149 H   0  0  0  0  0  0  0  0  0  0  0  0
  152.1538  139.7285  155.6510 H   0  0  0  0  0  0  0  0  0  0  0  0
  150.2812  141.2858  157.4704 H   0  0  0  0  0  0  0  0  0  0  0  0
  151.4291  142.1035  156.4442 H   0  0  0  0  0  0  0  0  0  0  0  0
  148.5275  142.7269  155.8521 H   0  0  0  0  0  0  0  0  0  0  0  0
  147.3194  141.8431  153.5721 H   0  0  0  0  0  0  0  0  0  0  0  0
  148.9138  139.7085  152.8098 H   0  0  0  0  0  0  0  0  0  0  0  0
  154.6354  141.7515  159.1959 H   0  0  0  0  0  0  0  0  0  0  0  0
  153.4999  141.3921  161.6639 H   0  0  0  0  0  0  0  0  0  0  0  0
  154.4466  142.8228  161.3043 H   0  0  0  0  0  0  0  0  0  0  0  0
  151.5123  142.6665  161.7065 H   0  0  0  0  0  0  0  0  0  0  0  0
  152.5818  144.0558  161.8143 H   0  0  0  0  0  0  0  0  0  0  0  0
  150.9651  143.1063  159.5240 H   0  0  0  0  0  0  0  0  0  0  0  0
  151.7067  144.6875  159.7188 H   0  0  0  0  0  0  0  0  0  0  0  0
  153.7754  143.9408  158.8033 H   0  0  0  0  0  0  0  0  0  0  0  0
  152.6680  142.9794  157.8404 H   0  0  0  0  0  0  0  0  0  0  0  0
  1  2  1  0  0  0  0
  1 18  1  0  0  0  0
  1 19  1  0  0  0  0
  1 20  1  0  0  0  0
  2  3  1  0  0  0  0
  2  9  1  0  0  0  0
  2 21  1  0  0  0  0
  3  4  1  0  0  0  0
  3 22  1  0  0  0  0
  3 23  1  0  0  0  0
  4  8  1  0  0  0  0
  4  5  1  0  0  0  0
  5  6  2  0  0  0  0
  5 24  1  0  0  0  0
  6  7  1  0  0  0  0
  6 25  1  0  0  0  0
  7  8  2  0  0  0  0
  7 26  1  0  0  0  0
  9 10  1  0  0  0  0
 10 11  2  0  0  0  0
 10 12  2  0  0  0  0
 10 13  1  0  0  0  0
 13 17  1  0  0  0  0
 13 14  1  0  0  0  0
 13 27  1  0  0  0  0
 14 15  1  0  0  0  0
 14 28  1  0  0  0  0
 14 29  1  0  0  0  0
 15 16  1  0  0  0  0
 15 30  1  0  0  0  0
 15 31  1  0  0  0  0
 16 17  1  0  0  0  0
 16 32  1  0  0  0  0
 16 33  1  0  0  0  0
 17 34  1  0  0  0  0
 17 35  1  0  0  0  0
M  CHG  1   9  -1
M  END
> <s_m_source_file>
AV-unprocessed.smi

> <i_m_source_file_index>
1800

> <i_lp_mmshare_version>
43012

> <i_f3d_flags>
0

> <s_epik_input>
bjFbY0hdW2NIXVtjSF1uMVtDSDJdW0NAQEhdKFtDSDNdKVtOSF1TKD1PKSg9TylbQ0hdMltDSDJdW0NIMl1bQ0gyXVtDSDJdMg==

> <s_epik_cmdline>
J2VwaWtfcHl0aG9uJywgJy1waCcsICc3LjAnLCAnLXRuJywgJzgnLCAnLW1hJywgJzIwMCcsICctbWV0YWxfYmluZGluZycsICctaW1hZScsICc8aW5maWxlLm1hZT4nLCAnLW9tYWUnLCAnPG91dGZpbGUubWFlPic=

> <r_lp_tautomer_probability>
1

> <r_epik_Ionization_Penalty>
6.58538

> <r_epik_Ionization_Penalty_Charging>
6.58536

> <r_epik_Ionization_Penalty_Neutral>
2.3841e-05

> <r_epik_State_Penalty>
6.58535

> <r_epik_Charging_Adjusted_Penalty>
13.1707

> <i_epik_Tot_Q>
-1

> <i_epik_Tot_abs_Q>
1

> <r_epik_Metal_State_Penalty>
2.50999

> <b_epik_Metal_Only>
1

> <s_lp_Force_Field>
OPLS_2005

> <r_lp_Energy>
15.5507

> <b_lp_Chiralities_Consistent>
1

> <s_lp_Variant>
AV-unprocessed.smi:1800-4

> <Gold.Version>
5.8.1

> <Gold.Id.Protein>
6NUR|6NUR_protein|mol2

> <Gold.PLP.Fitness>
44.4470

> <Gold.PLP.PLP>
-31.9174

> <Gold.PLP.part.hbond>
-2.6627

> <Gold.PLP.part.metal>
0.0000

> <Gold.PLP.part.buried>
3.7641

> <Gold.PLP.part.nonpolar>
-33.5094

> <Gold.PLP.part.repulsive>
0.0942

> <Gold.PLP.ligand.clash>
0.0000

> <Gold.PLP.ligand.torsion>
0.9274

> <Gold.PLP.Chemscore.Hbond>
2.9270

> <Gold.PLP.Chemscore.CHOScore>
1.5019

> <Gold.PLP.Chemscore.Metal>
0.0000

> <Gold.Chemscore.Hbonds>
donor molecule, donor type, donor heavy atom, donor atom, acceptor molecule, acceptor atom, score
      P1  H  7989  7998       L1     8  1.00
      P1  H  7997  8010       L1     9  1.92
      L1  C     5    24       P1  8028  0.99
      L1  C     7    26       P1  7957  0.43

> <Gold.PLP.Chemscore.Internal.Correction>
1.0976

> <Gold.Rescore>
     Score         DG    S(hbond)    S(metal)    S(lipo)     H(rot)  DE(clash)    DE(int)     intcor
     12.64     -17.69       1.50        0.00      94.82       1.51       1.57       3.48       ----

> <Gold.Chemscore.Fitness>
12.6439

> <Gold.Chemscore.DG>
-17.6919

> <Gold.Chemscore.ZeroCoef>
-5.4800

> <Gold.Chemscore.Hbond>
1.4958

> <Gold.Chemscore.Metal>
0.0000

> <Gold.Chemscore.Lipo>
94.8151

> <Gold.Chemscore.Internal_Hbond>
0.0000

> <Gold.Chemscore.DEClash>
1.5665

> <Gold.Chemscore.DEInternal>
3.4815

> <Gold.Chemscore.Rot>
1.5146

> <Gold.Chemscore.Internal.Correction>
   9.000000E+99

> <Gold.Chemscore.Hbonds>
donor molecule, donor type, donor heavy atom, donor atom, acceptor molecule, acceptor atom, score
      P1  H  7989  7998       L1     8  0.12
      P1  H  7997  8010       L1     9  0.76

> <Gold.Chemscore.Hbond.Weighted>
-4.9959

> <Gold.Chemscore.Metal.Weighted>
-0.0000

> <Gold.Chemscore.Lipo.Weighted>
-11.0934

> <Gold.Chemscore.Internal_Hbond.Weighted>
0.0000

> <Gold.Chemscore.DEClash.Weighted>
1.5665

> <Gold.Chemscore.DEInternal.Weighted>
3.4815

> <Gold.Chemscore.Rot.Weighted>
3.8773

> <Gold.Chemscore.Internal.Correction.Weighted>
   9.000000E+99

> <Gold.Protein.RotatedTorsions>
[ 6907 6896 6895 6894 ] final  -29.39 input  -60.11 | X-H torsion
[ 7974 7965 7964 7962 ] final -123.87 input  175.53 | X-H torsion
[ 8008 7997 7996 7995 ] final   51.50 input   59.86 | X-H torsion
[ 10167 10162 10161 10158 ] final -108.69 input  -65.29 | X-H torsion
[ 10718 10713 10712 10709 ] final  -53.73 input   66.30 | X-H torsion
[ 10763 10752 10751 10750 ] final  140.76 input  -60.55 | X-H torsion
[ 11005 11000 10999 10996 ] final -170.42 input  -57.11 | X-H torsion

> <Gold.Protein.ActiveResidues>
 VAL166  LYS551  ARG553  GLY616  TRP617  ASP618  TYR619  PRO620  LYS621  CYS622 
 ASP623  PHE694  ASN695  SER759  ASP760  ASP761  ALA762  ILE779  LEU786  VAL792 
 PHE793  MET794  SER795  GLU796  ALA797  LYS798  CYS799  TRP800  GLU811  SER814 

> <Gold.Protein.RotatedAtoms>
  151.1198  135.0073  159.8533 H   0  0  0  0  0  0  0  0  0  0  0  0  # atno 6907 bound_to 6896
  152.5447  134.1736  159.8617 H   0  0  0  0  0  0  0  0  0  0  0  0  # atno 6908 bound_to 6896
  151.1793  133.4690  159.2627 H   0  0  0  0  0  0  0  0  0  0  0  0  # atno 6909 bound_to 6896
  145.0140  140.7931  143.4421 H   0  0  0  0  0  0  0  0  0  0  0  0  # atno 7974 bound_to 7965
  155.4362  140.3452  155.4285 H   0  0  0  0  0  0  0  0  0  0  0  0  # atno 8008 bound_to 7997
  156.1306  140.1513  156.9101 H   0  0  0  0  0  0  0  0  0  0  0  0  # atno 8009 bound_to 7997
  154.4892  140.0846  156.7535 H   0  0  0  0  0  0  0  0  0  0  0  0  # atno 8010 bound_to 7997
  140.1634  143.4102  152.1409 H   0  0  0  0  0  0  0  0  0  0  0  0  # atno 10167 bound_to 10162
  156.1510  130.4151  149.9944 H   0  0  0  0  0  0  0  0  0  0  0  0  # atno 10718 bound_to 10713
  153.9279  135.2993  155.3446 H   0  0  0  0  0  0  0  0  0  0  0  0  # atno 10763 bound_to 10752
  154.7542  135.4966  153.9346 H   0  0  0  0  0  0  0  0  0  0  0  0  # atno 10764 bound_to 10752
  153.1107  135.6758  153.9610 H   0  0  0  0  0  0  0  0  0  0  0  0  # atno 10765 bound_to 10752
  140.5197  134.5721  157.5044 H   0  0  0  0  0  0  0  0  0  0  0  0  # atno 11005 bound_to 11000
  145.1984  139.2264  143.5206 LP  0  0  0  0  0  0  0  0  0  0  0  0  # atno 17320 bound_to 7965
  146.3475  140.1796  142.8589 LP  0  0  0  0  0  0  0  0  0  0  0  0  # atno 17321 bound_to 7965
  139.5371  144.7220  151.4858 LP  0  0  0  0  0  0  0  0  0  0  0  0  # atno 17342 bound_to 10162
  140.6628  143.8461  150.6908 LP  0  0  0  0  0  0  0  0  0  0  0  0  # atno 17343 bound_to 10162
  156.7802  130.9218  151.3646 LP  0  0  0  0  0  0  0  0  0  0  0  0  # atno 17370 bound_to 10713
  157.6657  130.9005  149.9927 LP  0  0  0  0  0  0  0  0  0  0  0  0  # atno 17371 bound_to 10713
  139.9612  134.7448  156.0232 LP  0  0  0  0  0  0  0  0  0  0  0  0  # atno 17394 bound_to 11000
  141.1341  133.6579  156.3544 LP  0  0  0  0  0  0  0  0  0  0  0  0  # atno 17395 bound_to 11000

$$$$
