AV-unprocessed.smi:2224|AV-procd|sdf|8993|dock2
  -GOLD-   2272012203D 1   1.00000     0.00000
 Structure written by MMmdl.
 44 46  0  0  0  0  0  0  0  0  1 V2000
  152.8017  144.3645  162.0092 C   0  0  0  0  0  0  0  0  0  0  0  0
  153.0272  143.0158  161.3586 C   0  0  0  0  0  0  0  0  0  0  0  0
  153.9716  142.1103  161.8788 C   0  0  0  0  0  0  0  0  0  0  0  0
  154.1330  140.8715  161.2276 C   0  0  0  0  0  0  0  0  0  0  0  0
  155.1303  139.8503  161.7329 C   0  0  0  0  0  0  0  0  0  0  0  0
  153.4247  140.5155  160.1346 N   0  0  0  0  0  0  0  0  0  0  0  0
  152.5121  141.3797  159.6253 C   0  0  0  0  0  0  0  0  0  0  0  0
  151.7202  141.1048  158.4792 N   0  0  0  0  0  0  0  0  0  0  0  0
  151.9207  140.1700  157.5340 C   0  0  0  0  0  0  0  0  0  0  0  0
  152.8470  139.3590  157.5166 O   0  0  0  0  0  0  0  0  0  0  0  0
  150.9631  140.2183  156.5986 N   0  0  0  0  0  0  0  0  0  0  0  0
  150.8616  139.3110  155.4541 C   0  0  2  0  0  0  0  0  0  0  0  0
  149.7414  139.7111  154.4677 C   0  0  2  0  0  0  0  0  0  0  0  0
  149.0201  141.0350  154.5389 C   0  0  0  0  0  0  0  0  0  0  0  0
  147.7467  140.6860  155.3148 C   0  0  0  0  0  0  0  0  0  0  0  0
  148.0602  139.4793  156.0074 O   0  0  0  0  0  0  0  0  0  0  0  0
  148.8595  138.6740  155.1435 C   0  0  2  0  0  0  0  0  0  0  0  0
  150.0946  138.0008  155.7788 C   0  0  0  0  0  0  0  0  0  0  0  0
  150.6022  136.7744  155.0146 C   0  0  0  0  0  0  0  0  0  0  0  0
  149.9547  137.5663  157.2443 C   0  0  0  0  0  0  0  0  0  0  0  0
  152.2898  142.6436  160.2167 C   0  0  0  0  0  0  0  0  0  0  0  0
  153.5136  144.5401  162.8163 H   0  0  0  0  0  0  0  0  0  0  0  0
  151.7948  144.4191  162.4237 H   0  0  0  0  0  0  0  0  0  0  0  0
  152.9157  145.1627  161.2754 H   0  0  0  0  0  0  0  0  0  0  0  0
  154.5562  142.3576  162.7530 H   0  0  0  0  0  0  0  0  0  0  0  0
  155.7591  140.2678  162.5197 H   0  0  0  0  0  0  0  0  0  0  0  0
  155.7790  139.5161  160.9227 H   0  0  0  0  0  0  0  0  0  0  0  0
  154.6088  138.9824  162.1369 H   0  0  0  0  0  0  0  0  0  0  0  0
  150.9028  141.6857  158.3676 H   0  0  0  0  0  0  0  0  0  0  0  0
  150.2345  140.9102  156.6938 H   0  0  0  0  0  0  0  0  0  0  0  0
  151.8111  139.1379  154.9439 H   0  0  0  0  0  0  0  0  0  0  0  0
  149.9943  139.4048  153.4515 H   0  0  0  0  0  0  0  0  0  0  0  0
  149.6050  141.7952  155.0561 H   0  0  0  0  0  0  0  0  0  0  0  0
  148.7809  141.4279  153.5504 H   0  0  0  0  0  0  0  0  0  0  0  0
  147.4439  141.4757  156.0027 H   0  0  0  0  0  0  0  0  0  0  0  0
  146.9207  140.4953  154.6280 H   0  0  0  0  0  0  0  0  0  0  0  0
  148.2778  138.0631  154.4515 H   0  0  0  0  0  0  0  0  0  0  0  0
  149.9077  135.9372  155.0914 H   0  0  0  0  0  0  0  0  0  0  0  0
  151.5677  136.4388  155.3943 H   0  0  0  0  0  0  0  0  0  0  0  0
  150.7315  136.9868  153.9531 H   0  0  0  0  0  0  0  0  0  0  0  0
  149.3133  136.6900  157.3430 H   0  0  0  0  0  0  0  0  0  0  0  0
  149.5153  138.3468  157.8658 H   0  0  0  0  0  0  0  0  0  0  0  0
  150.9228  137.3158  157.6787 H   0  0  0  0  0  0  0  0  0  0  0  0
  151.5593  143.3231  159.8017 H   0  0  0  0  0  0  0  0  0  0  0  0
  1  2  1  0  0  0  0
  1 22  1  0  0  0  0
  1 23  1  0  0  0  0
  1 24  1  0  0  0  0
  2 21  1  0  0  0  0
  2  3  2  0  0  0  0
  3  4  1  0  0  0  0
  3 25  1  0  0  0  0
  4  5  1  0  0  0  0
  4  6  2  0  0  0  0
  5 26  1  0  0  0  0
  5 27  1  0  0  0  0
  5 28  1  0  0  0  0
  6  7  1  0  0  0  0
  7  8  1  0  0  0  0
  7 21  2  0  0  0  0
  8  9  1  0  0  0  0
  8 29  1  0  0  0  0
  9 10  2  0  0  0  0
  9 11  1  0  0  0  0
 11 12  1  0  0  0  0
 11 30  1  0  0  0  0
 12 18  1  0  0  0  0
 12 13  1  0  0  0  0
 12 31  1  0  0  0  0
 13 17  1  0  0  0  0
 13 14  1  0  0  0  0
 13 32  1  0  0  0  0
 14 15  1  0  0  0  0
 14 33  1  0  0  0  0
 14 34  1  0  0  0  0
 15 16  1  0  0  0  0
 15 35  1  0  0  0  0
 15 36  1  0  0  0  0
 16 17  1  0  0  0  0
 17 18  1  0  0  0  0
 17 37  1  0  0  0  0
 18 19  1  0  0  0  0
 18 20  1  0  0  0  0
 19 38  1  0  0  0  0
 19 39  1  0  0  0  0
 19 40  1  0  0  0  0
 20 41  1  0  0  0  0
 20 42  1  0  0  0  0
 20 43  1  0  0  0  0
 21 44  1  0  0  0  0
M  END
> <s_m_source_file>
AV-unprocessed.smi

> <i_m_source_file_index>
2224

> <i_lp_mmshare_version>
43012

> <i_f3d_flags>
0

> <s_epik_input>
W0NIM11jMVtjSF1jKFtDSDNdKW5jKFtjSF0xKVtOSF1DKD1PKVtOSF1bQ0BIXTJDKFtDSDNdKShbQ0gzXSlbQ0BIXShbQ0BASF0yMylPW0NIMl1bQ0gyXTM=

> <s_epik_cmdline>
J2VwaWtfcHl0aG9uJywgJy1waCcsICc3LjAnLCAnLXRuJywgJzgnLCAnLW1hJywgJzIwMCcsICctbWV0YWxfYmluZGluZycsICctaW1hZScsICc8aW5maWxlLm1hZT4nLCAnLW9tYWUnLCAnPG91dGZpbGUubWFlPic=

> <r_lp_tautomer_probability>
1

> <r_epik_Ionization_Penalty>
0.000276544

> <r_epik_Ionization_Penalty_Charging>
0

> <r_epik_Ionization_Penalty_Neutral>
0.000276544

> <r_epik_State_Penalty>
-0

> <r_epik_Charging_Adjusted_Penalty>
0

> <i_epik_Tot_Q>
0

> <i_epik_Tot_abs_Q>
0

> <r_epik_Metal_State_Penalty>
-0

> <b_epik_Metal_Only>
0

> <s_lp_Force_Field>
OPLS_2005

> <r_lp_Energy>
39.8946

> <b_lp_Chiralities_Consistent>
1

> <s_lp_Variant>
AV-unprocessed.smi:2224-3

> <Gold.Version>
5.8.1

> <Gold.Id.Protein>
6NUR|6NUR_protein|mol2

> <Gold.PLP.Fitness>
39.2827

> <Gold.PLP.PLP>
-36.6304

> <Gold.PLP.part.hbond>
-1.0000

> <Gold.PLP.part.metal>
0.0000

> <Gold.PLP.part.buried>
-0.6249

> <Gold.PLP.part.nonpolar>
-34.4756

> <Gold.PLP.part.repulsive>
0.2105

> <Gold.PLP.ligand.clash>
0.0000

> <Gold.PLP.ligand.torsion>
0.2678

> <Gold.PLP.Chemscore.Hbond>
1.0000

> <Gold.PLP.Chemscore.CHOScore>
0.0000

> <Gold.PLP.Chemscore.Metal>
0.0000

> <Gold.Chemscore.Hbonds>
donor molecule, donor type, donor heavy atom, donor atom, acceptor molecule, acceptor atom, score
      P1  H  7997  8010       L1    10  1.00

> <Gold.PLP.Chemscore.Internal.Correction>
0.1880

> <Gold.Rescore>
     Score         DG    S(hbond)    S(metal)    S(lipo)     H(rot)  DE(clash)    DE(int)     intcor
     16.96     -18.92       1.00        0.00     108.22       1.00       0.52       1.43       ----

> <Gold.Chemscore.Fitness>
16.9606

> <Gold.Chemscore.DG>
-18.9190

> <Gold.Chemscore.ZeroCoef>
-5.4800

> <Gold.Chemscore.Hbond>
0.9991

> <Gold.Chemscore.Metal>
0.0000

> <Gold.Chemscore.Lipo>
108.2235

> <Gold.Chemscore.Internal_Hbond>
0.0000

> <Gold.Chemscore.DEClash>
0.5249

> <Gold.Chemscore.DEInternal>
1.4335

> <Gold.Chemscore.Rot>
1.0000

> <Gold.Chemscore.Internal.Correction>
   9.000000E+99

> <Gold.Chemscore.Hbonds>
donor molecule, donor type, donor heavy atom, donor atom, acceptor molecule, acceptor atom, score
      P1  H  7997  8010       L1    10  0.85

> <Gold.Chemscore.Hbond.Weighted>
-3.3369

> <Gold.Chemscore.Metal.Weighted>
-0.0000

> <Gold.Chemscore.Lipo.Weighted>
-12.6621

> <Gold.Chemscore.Internal_Hbond.Weighted>
0.0000

> <Gold.Chemscore.DEClash.Weighted>
0.5249

> <Gold.Chemscore.DEInternal.Weighted>
1.4335

> <Gold.Chemscore.Rot.Weighted>
2.5600

> <Gold.Chemscore.Internal.Correction.Weighted>
   9.000000E+99

> <Gold.Protein.RotatedTorsions>
[ 6907 6896 6895 6894 ] final  -19.09 input  -60.11 | X-H torsion
[ 7974 7965 7964 7962 ] final  122.61 input  175.53 | X-H torsion
[ 8008 7997 7996 7995 ] final   53.20 input   59.86 | X-H torsion
[ 10167 10162 10161 10158 ] final -121.41 input  -65.29 | X-H torsion
[ 10718 10713 10712 10709 ] final -149.83 input   66.30 | X-H torsion
[ 10763 10752 10751 10750 ] final  -40.62 input  -60.55 | X-H torsion
[ 11005 11000 10999 10996 ] final  -73.36 input  -57.11 | X-H torsion

> <Gold.Protein.ActiveResidues>
 VAL166  LYS551  ARG553  GLY616  TRP617  ASP618  TYR619  PRO620  LYS621  CYS622 
 ASP623  PHE694  ASN695  SER759  ASP760  ASP761  ALA762  ILE779  LEU786  VAL792 
 PHE793  MET794  SER795  GLU796  ALA797  LYS798  CYS799  TRP800  GLU811  SER814 

> <Gold.Protein.RotatedAtoms>
  151.2684  135.0676  159.9124 H   0  0  0  0  0  0  0  0  0  0  0  0  # atno 6907 bound_to 6896
  152.5355  134.0157  159.7969 H   0  0  0  0  0  0  0  0  0  0  0  0  # atno 6908 bound_to 6896
  151.0391  133.5672  159.2684 H   0  0  0  0  0  0  0  0  0  0  0  0  # atno 6909 bound_to 6896
  145.1056  139.3488  143.4789 H   0  0  0  0  0  0  0  0  0  0  0  0  # atno 7974 bound_to 7965
  155.4643  140.3463  155.4317 H   0  0  0  0  0  0  0  0  0  0  0  0  # atno 8008 bound_to 7997
  156.1141  140.1469  156.9327 H   0  0  0  0  0  0  0  0  0  0  0  0  # atno 8009 bound_to 7997
  154.4776  140.0880  156.7280 H   0  0  0  0  0  0  0  0  0  0  0  0  # atno 8010 bound_to 7997
  140.0254  143.5302  152.2201 H   0  0  0  0  0  0  0  0  0  0  0  0  # atno 10167 bound_to 10162
  156.4383  130.8109  151.2338 H   0  0  0  0  0  0  0  0  0  0  0  0  # atno 10718 bound_to 10713
  153.9489  135.6753  153.4744 H   0  0  0  0  0  0  0  0  0  0  0  0  # atno 10763 bound_to 10752
  153.0894  135.4882  154.8657 H   0  0  0  0  0  0  0  0  0  0  0  0  # atno 10764 bound_to 10752
  154.7336  135.3144  154.8808 H   0  0  0  0  0  0  0  0  0  0  0  0  # atno 10765 bound_to 10752
  141.1621  133.6876  156.7199 H   0  0  0  0  0  0  0  0  0  0  0  0  # atno 11005 bound_to 11000
  146.3528  140.0952  142.8610 LP  0  0  0  0  0  0  0  0  0  0  0  0  # atno 17320 bound_to 7965
  145.0906  140.9281  143.4771 LP  0  0  0  0  0  0  0  0  0  0  0  0  # atno 17321 bound_to 7965
  139.6112  144.7609  151.2948 LP  0  0  0  0  0  0  0  0  0  0  0  0  # atno 17342 bound_to 10162
  140.7325  143.6822  150.7992 LP  0  0  0  0  0  0  0  0  0  0  0  0  # atno 17343 bound_to 10162
  157.7507  131.0176  150.3593 LP  0  0  0  0  0  0  0  0  0  0  0  0  # atno 17370 bound_to 10713
  156.3945  130.3904  149.7005 LP  0  0  0  0  0  0  0  0  0  0  0  0  # atno 17371 bound_to 10713
  140.2823  134.8306  157.3944 LP  0  0  0  0  0  0  0  0  0  0  0  0  # atno 17394 bound_to 11000
  140.1422  134.4958  155.8023 LP  0  0  0  0  0  0  0  0  0  0  0  0  # atno 17395 bound_to 11000

$$$$
