AV-unprocessed.smi:2212|AV-procd|sdf|8953|dock3
  -GOLD-   2272012173D 1   1.00000     0.00000
 Structure written by MMmdl.
 31 32  0  0  0  0  0  0  0  0  1 V2000
  146.6074  132.3446  152.3654 C   0  0  0  0  0  0  0  0  0  0  0  0
  146.5085  131.0365  151.8176 O   0  0  0  0  0  0  0  0  0  0  0  0
  145.8086  130.9282  150.5774 C   0  0  0  0  0  0  0  0  0  0  0  0
  145.7914  129.4861  150.0509 C   0  0  0  0  0  0  0  0  0  0  0  0
  147.1480  128.9812  149.8827 N   0  0  0  0  0  0  0  0  0  0  0  0
  147.4773  127.6862  149.7840 C   0  0  0  0  0  0  0  0  0  0  0  0
  146.6252  126.7947  149.8531 O   0  0  0  0  0  0  0  0  0  0  0  0
  148.8482  127.5489  149.6322 N   0  0  0  0  0  0  0  0  0  0  0  0
  149.3090  127.0201  148.5413 C   0  0  0  0  0  0  0  0  0  0  0  0
  150.6346  126.8217  148.1901 N   0  0  0  0  0  0  0  0  0  0  0  0
  150.6638  126.2235  146.9607 C   0  0  0  0  0  0  0  0  0  0  0  0
  149.4093  126.0505  146.5545 C   0  0  0  0  0  0  0  0  0  0  0  0
  148.5542  126.5278  147.5013 O   0  0  0  0  0  0  0  0  0  0  0  0
  144.4564  131.6502  150.7295 C   0  0  0  0  0  0  0  0  0  0  0  0
  144.7118  132.3315  149.3837 C   0  0  0  0  0  0  0  0  0  0  0  0
  146.2004  132.0649  149.6123 C   0  0  0  0  0  0  0  0  0  0  0  0
  147.0640  132.2844  153.3530 H   0  0  0  0  0  0  0  0  0  0  0  0
  145.6300  132.8134  152.4810 H   0  0  0  0  0  0  0  0  0  0  0  0
  147.2381  132.9919  151.7564 H   0  0  0  0  0  0  0  0  0  0  0  0
  145.2586  128.8380  150.7485 H   0  0  0  0  0  0  0  0  0  0  0  0
  145.2542  129.4156  149.1048 H   0  0  0  0  0  0  0  0  0  0  0  0
  147.8864  129.6679  149.8264 H   0  0  0  0  0  0  0  0  0  0  0  0
  151.4631  127.0596  148.7163 H   0  0  0  0  0  0  0  0  0  0  0  0
  151.6068  125.9784  146.4945 H   0  0  0  0  0  0  0  0  0  0  0  0
  148.9792  125.6233  145.6605 H   0  0  0  0  0  0  0  0  0  0  0  0
  143.5842  130.9960  150.7444 H   0  0  0  0  0  0  0  0  0  0  0  0
  144.4363  132.3595  151.5591 H   0  0  0  0  0  0  0  0  0  0  0  0
  144.3045  131.7722  148.5397 H   0  0  0  0  0  0  0  0  0  0  0  0
  144.4361  133.3856  149.3450 H   0  0  0  0  0  0  0  0  0  0  0  0
  146.6994  132.9005  150.1064 H   0  0  0  0  0  0  0  0  0  0  0  0
  146.7434  131.7435  148.7231 H   0  0  0  0  0  0  0  0  0  0  0  0
  1  2  1  0  0  0  0
  1 17  1  0  0  0  0
  1 18  1  0  0  0  0
  1 19  1  0  0  0  0
  2  3  1  0  0  0  0
  3 16  1  0  0  0  0
  3  4  1  0  0  0  0
  3 14  1  0  0  0  0
  4  5  1  0  0  0  0
  4 20  1  0  0  0  0
  4 21  1  0  0  0  0
  5 22  1  0  0  0  0
  5  6  1  0  0  0  0
  6  8  1  0  0  0  0
  6  7  2  0  0  0  0
  8  9  2  0  0  0  0
  9 13  1  0  0  0  0
  9 10  1  0  0  0  0
 10 23  1  0  0  0  0
 10 11  1  0  0  0  0
 11 24  1  0  0  0  0
 11 12  2  0  0  0  0
 12 25  1  0  0  0  0
 12 13  1  0  0  0  0
 14 15  1  0  0  0  0
 14 26  1  0  0  0  0
 14 27  1  0  0  0  0
 15 16  1  0  0  0  0
 15 28  1  0  0  0  0
 15 29  1  0  0  0  0
 16 30  1  0  0  0  0
 16 31  1  0  0  0  0
M  END
> <s_m_source_file>
AV-unprocessed.smi

> <i_m_source_file_index>
2212

> <i_lp_mmshare_version>
43012

> <i_f3d_flags>
0

> <s_epik_input>
W0NIMl0xW0NIMl1bQ0gyXUMxKE9bQ0gzXSlbQ0gyXVtOSF1DKD1PKVtOSF1jMm5bY0hdW2NIXW8y

> <s_epik_cmdline>
J2VwaWtfcHl0aG9uJywgJy1waCcsICc3LjAnLCAnLXRuJywgJzgnLCAnLW1hJywgJzIwMCcsICctbWV0YWxfYmluZGluZycsICctaW1hZScsICc8aW5maWxlLm1hZT4nLCAnLW9tYWUnLCAnPG91dGZpbGUubWFlPic=

> <r_lp_tautomer_probability>
0.107061

> <r_epik_Ionization_Penalty>
1.29244

> <r_epik_Ionization_Penalty_Charging>
1.29208

> <r_epik_Ionization_Penalty_Neutral>
0.000357989

> <r_epik_State_Penalty>
2.59896

> <r_epik_Charging_Adjusted_Penalty>
3.89105

> <i_epik_Tot_Q>
0

> <i_epik_Tot_abs_Q>
0

> <r_epik_Metal_State_Penalty>
3.62496

> <b_epik_Metal_Only>
0

> <s_lp_Force_Field>
OPLS_2005

> <r_lp_Energy>
40.2308

> <b_lp_Chiralities_Consistent>
1

> <s_lp_Variant>
AV-unprocessed.smi:2212-3

> <Gold.Version>
5.8.1

> <Gold.Id.Protein>
6NUR|6NUR_protein|mol2

> <Gold.PLP.Fitness>
38.3029

> <Gold.PLP.PLP>
-33.7769

> <Gold.PLP.part.hbond>
-2.0000

> <Gold.PLP.part.metal>
0.0000

> <Gold.PLP.part.buried>
-6.4628

> <Gold.PLP.part.nonpolar>
-26.2211

> <Gold.PLP.part.repulsive>
1.4232

> <Gold.PLP.ligand.clash>
0.0000

> <Gold.PLP.ligand.torsion>
0.8751

> <Gold.PLP.Chemscore.Hbond>
2.0000

> <Gold.PLP.Chemscore.CHOScore>
0.0000

> <Gold.PLP.Chemscore.Metal>
0.0000

> <Gold.Chemscore.Hbonds>
donor molecule, donor type, donor heavy atom, donor atom, acceptor molecule, acceptor atom, score
      L1  H     5    22       P1 10747  1.00
      L1  H    10    23       P1 10722  0.32
      L1  C    11    24       P1 10722  0.34

> <Gold.PLP.Chemscore.Internal.Correction>
0.2762

> <Gold.Rescore>
     Score         DG    S(hbond)    S(metal)    S(lipo)     H(rot)  DE(clash)    DE(int)     intcor
     14.77     -16.45       2.00        0.00      72.69       1.64       0.15       1.53       ----

> <Gold.Chemscore.Fitness>
14.7701

> <Gold.Chemscore.DG>
-16.4514

> <Gold.Chemscore.ZeroCoef>
-5.4800

> <Gold.Chemscore.Hbond>
1.9963

> <Gold.Chemscore.Metal>
0.0000

> <Gold.Chemscore.Lipo>
72.6917

> <Gold.Chemscore.Internal_Hbond>
0.0000

> <Gold.Chemscore.DEClash>
0.1491

> <Gold.Chemscore.DEInternal>
1.5323

> <Gold.Chemscore.Rot>
1.6411

> <Gold.Chemscore.Internal.Correction>
   9.000000E+99

> <Gold.Chemscore.Hbonds>
donor molecule, donor type, donor heavy atom, donor atom, acceptor molecule, acceptor atom, score
      L1  H     5    22       P1 10747  0.64
      L1  H    10    23       P1 10722  0.32

> <Gold.Chemscore.Hbond.Weighted>
-6.6676

> <Gold.Chemscore.Metal.Weighted>
-0.0000

> <Gold.Chemscore.Lipo.Weighted>
-8.5049

> <Gold.Chemscore.Internal_Hbond.Weighted>
0.0000

> <Gold.Chemscore.DEClash.Weighted>
0.1491

> <Gold.Chemscore.DEInternal.Weighted>
1.5323

> <Gold.Chemscore.Rot.Weighted>
4.2011

> <Gold.Chemscore.Internal.Correction.Weighted>
   9.000000E+99

> <Gold.Protein.RotatedTorsions>
[ 6907 6896 6895 6894 ] final   90.30 input  -60.11 | X-H torsion
[ 7974 7965 7964 7962 ] final   13.98 input  175.53 | X-H torsion
[ 8008 7997 7996 7995 ] final   64.17 input   59.86 | X-H torsion
[ 10167 10162 10161 10158 ] final   57.74 input  -65.29 | X-H torsion
[ 10718 10713 10712 10709 ] final  106.92 input   66.30 | X-H torsion
[ 10763 10752 10751 10750 ] final -144.19 input  -60.55 | X-H torsion
[ 11005 11000 10999 10996 ] final -104.22 input  -57.11 | X-H torsion

> <Gold.Protein.ActiveResidues>
 VAL166  LYS551  ARG553  GLY616  TRP617  ASP618  TYR619  PRO620  LYS621  CYS622 
 ASP623  PHE694  ASN695  SER759  ASP760  ASP761  ALA762  ILE779  LEU786  VAL792 
 PHE793  MET794  SER795  GLU796  ALA797  LYS798  CYS799  TRP800  GLU811  SER814 

> <Gold.Protein.RotatedAtoms>
  152.5443  134.1833  159.8643 H   0  0  0  0  0  0  0  0  0  0  0  0  # atno 6907 bound_to 6896
  151.1834  133.4704  159.2602 H   0  0  0  0  0  0  0  0  0  0  0  0  # atno 6908 bound_to 6896
  151.1156  135.0062  159.8570 H   0  0  0  0  0  0  0  0  0  0  0  0  # atno 6909 bound_to 6896
  146.2316  139.9109  142.8524 H   0  0  0  0  0  0  0  0  0  0  0  0  # atno 7974 bound_to 7965
  155.6418  140.3497  155.4717 H   0  0  0  0  0  0  0  0  0  0  0  0  # atno 8008 bound_to 7997
  155.9920  140.1195  157.0653 H   0  0  0  0  0  0  0  0  0  0  0  0  # atno 8009 bound_to 7997
  154.4222  140.1117  156.5564 H   0  0  0  0  0  0  0  0  0  0  0  0  # atno 8010 bound_to 7997
  140.1947  144.4049  150.6555 H   0  0  0  0  0  0  0  0  0  0  0  0  # atno 10167 bound_to 10162
  157.6649  131.0861  150.6080 H   0  0  0  0  0  0  0  0  0  0  0  0  # atno 10718 bound_to 10713
  154.8439  135.3447  154.6306 H   0  0  0  0  0  0  0  0  0  0  0  0  # atno 10763 bound_to 10752
  153.6916  135.6974  153.5093 H   0  0  0  0  0  0  0  0  0  0  0  0  # atno 10764 bound_to 10752
  153.2591  135.4329  155.0831 H   0  0  0  0  0  0  0  0  0  0  0  0  # atno 10765 bound_to 10752
  141.1110  133.8705  157.1583 H   0  0  0  0  0  0  0  0  0  0  0  0  # atno 11005 bound_to 11000
  145.2230  140.9943  143.4034 LP  0  0  0  0  0  0  0  0  0  0  0  0  # atno 17320 bound_to 7965
  144.9594  139.3996  143.6363 LP  0  0  0  0  0  0  0  0  0  0  0  0  # atno 17321 bound_to 7965
  140.6431  143.2208  151.6245 LP  0  0  0  0  0  0  0  0  0  0  0  0  # atno 17342 bound_to 10162
  139.5241  144.3113  152.0990 LP  0  0  0  0  0  0  0  0  0  0  0  0  # atno 17343 bound_to 10162
  156.6381  130.4450  149.5762 LP  0  0  0  0  0  0  0  0  0  0  0  0  # atno 17370 bound_to 10713
  156.2230  130.6749  151.1388 LP  0  0  0  0  0  0  0  0  0  0  0  0  # atno 17371 bound_to 10713
  140.0005  135.0030  157.0178 LP  0  0  0  0  0  0  0  0  0  0  0  0  # atno 17394 bound_to 11000
  140.4774  134.1324  155.7212 LP  0  0  0  0  0  0  0  0  0  0  0  0  # atno 17395 bound_to 11000

$$$$
