AV-unprocessed.smi:1842|AV-procd|sdf|7499|dock4
  -GOLD-   22720 9203D 1   1.00000     0.00000
 Structure written by MMmdl.
 38 39  0  0  0  0  0  0  0  0  1 V2000
  150.5482  140.4205  155.0106 O   0  0  0  0  0  0  0  0  0  0  0  0
  150.1582  141.4902  155.4781 C   0  0  0  0  0  0  0  0  0  0  0  0
  151.0685  142.3057  156.3980 C   0  0  0  0  0  0  0  0  0  0  0  0
  151.4991  141.5047  157.6400 C   0  0  0  0  0  0  0  0  0  0  0  0
  152.4278  142.2953  158.5782 C   0  0  0  0  0  0  0  0  0  0  0  0
  152.9103  141.5141  159.8043 C   0  0  0  0  0  0  0  0  0  0  0  0
  153.3696  142.5852  160.7989 C   0  0  0  0  0  0  0  0  0  0  0  0
  152.6135  143.8696  160.4262 C   0  0  0  0  0  0  0  0  0  0  0  0
  151.7623  143.5268  159.1979 C   0  0  0  0  0  0  0  0  0  0  0  0
  148.9493  142.0117  155.2208 N   0  0  0  0  0  0  0  0  0  0  0  0
  147.9520  141.4325  154.3257 C   0  0  0  0  0  0  0  0  0  0  0  0
  147.2684  140.1887  154.9267 C   0  0  0  0  0  0  0  0  0  0  0  0
  146.7146  139.3167  153.9077 N   0  0  0  0  0  0  0  0  0  0  0  0
  146.8495  139.4425  152.5315 C   0  0  0  0  0  0  0  0  0  0  0  0
  146.1636  138.3881  151.9719 C   0  0  0  0  0  0  0  0  0  0  0  0
  145.6021  137.6061  152.9789 N   0  0  0  0  0  0  0  0  0  0  0  0
  145.9690  138.2190  154.0968 C   0  0  0  0  0  0  0  0  0  0  0  0
  151.9468  142.6377  155.8424 H   0  0  0  0  0  0  0  0  0  0  0  0
  150.5335  143.2059  156.7020 H   0  0  0  0  0  0  0  0  0  0  0  0
  150.6122  141.2047  158.2004 H   0  0  0  0  0  0  0  0  0  0  0  0
  151.9899  140.5800  157.3312 H   0  0  0  0  0  0  0  0  0  0  0  0
  153.3008  142.6310  158.0161 H   0  0  0  0  0  0  0  0  0  0  0  0
  152.0819  140.9498  160.2355 H   0  0  0  0  0  0  0  0  0  0  0  0
  153.7040  140.8054  159.5667 H   0  0  0  0  0  0  0  0  0  0  0  0
  153.1802  142.2814  161.8290 H   0  0  0  0  0  0  0  0  0  0  0  0
  154.4432  142.7499  160.6997 H   0  0  0  0  0  0  0  0  0  0  0  0
  151.9940  144.2301  161.2481 H   0  0  0  0  0  0  0  0  0  0  0  0
  153.3253  144.6599  160.1843 H   0  0  0  0  0  0  0  0  0  0  0  0
  151.6896  144.3586  158.4966 H   0  0  0  0  0  0  0  0  0  0  0  0
  150.7495  143.2787  159.5191 H   0  0  0  0  0  0  0  0  0  0  0  0
  148.7135  142.8933  155.6534 H   0  0  0  0  0  0  0  0  0  0  0  0
  147.2045  142.1863  154.0745 H   0  0  0  0  0  0  0  0  0  0  0  0
  148.4476  141.1677  153.3913 H   0  0  0  0  0  0  0  0  0  0  0  0
  147.9680  139.6170  155.5381 H   0  0  0  0  0  0  0  0  0  0  0  0
  146.4588  140.4954  155.5897 H   0  0  0  0  0  0  0  0  0  0  0  0
  147.4080  140.2477  152.0773 H   0  0  0  0  0  0  0  0  0  0  0  0
  146.0326  138.1333  150.9305 H   0  0  0  0  0  0  0  0  0  0  0  0
  145.6935  137.8581  155.0774 H   0  0  0  0  0  0  0  0  0  0  0  0
  1  2  2  0  0  0  0
  2  3  1  0  0  0  0
  2 10  1  0  0  0  0
  3  4  1  0  0  0  0
  3 18  1  0  0  0  0
  3 19  1  0  0  0  0
  4  5  1  0  0  0  0
  4 20  1  0  0  0  0
  4 21  1  0  0  0  0
  5  9  1  0  0  0  0
  5  6  1  0  0  0  0
  5 22  1  0  0  0  0
  6  7  1  0  0  0  0
  6 23  1  0  0  0  0
  6 24  1  0  0  0  0
  7  8  1  0  0  0  0
  7 25  1  0  0  0  0
  7 26  1  0  0  0  0
  8  9  1  0  0  0  0
  8 27  1  0  0  0  0
  8 28  1  0  0  0  0
  9 29  1  0  0  0  0
  9 30  1  0  0  0  0
 10 11  1  0  0  0  0
 10 31  1  0  0  0  0
 11 12  1  0  0  0  0
 11 32  1  0  0  0  0
 11 33  1  0  0  0  0
 12 13  1  0  0  0  0
 12 34  1  0  0  0  0
 12 35  1  0  0  0  0
 13 17  1  0  0  0  0
 13 14  1  0  0  0  0
 14 15  2  0  0  0  0
 14 36  1  0  0  0  0
 15 16  1  0  0  0  0
 15 37  1  0  0  0  0
 16 17  2  0  0  0  0
 17 38  1  0  0  0  0
M  END
> <s_m_source_file>
AV-unprocessed.smi

> <i_m_source_file_index>
1842

> <i_lp_mmshare_version>
43012

> <i_f3d_flags>
0

> <s_epik_input>
W0NIMl0xW0NIMl1bQ0gyXVtDSDJdW0NIXTFbQ0gyXVtDSDJdQyg9TylbTkhdW0NIMl1bQ0gyXW4yW2NIXVtjSF1uW2NIXTI=

> <s_epik_cmdline>
J2VwaWtfcHl0aG9uJywgJy1waCcsICc3LjAnLCAnLXRuJywgJzgnLCAnLW1hJywgJzIwMCcsICctbWV0YWxfYmluZGluZycsICctaW1hZScsICc8aW5maWxlLm1hZT4nLCAnLW9tYWUnLCAnPG91dGZpbGUubWFlPic=

> <r_lp_tautomer_probability>
1

> <r_epik_Ionization_Penalty>
0.595716

> <r_epik_Ionization_Penalty_Charging>
0.595716

> <r_epik_Ionization_Penalty_Neutral>
2.42503e-08

> <r_epik_State_Penalty>
0.60967

> <r_epik_Charging_Adjusted_Penalty>
1.20539

> <i_epik_Tot_Q>
0

> <i_epik_Tot_abs_Q>
0

> <r_epik_Metal_State_Penalty>
0.299956

> <b_epik_Metal_Only>
0

> <s_lp_Force_Field>
OPLS_2005

> <r_lp_Energy>
23.0444

> <b_lp_Chiralities_Consistent>
1

> <s_lp_Variant>
AV-unprocessed.smi:1842-2

> <Gold.Version>
5.8.1

> <Gold.Id.Protein>
6NUR|6NUR_protein|mol2

> <Gold.PLP.Fitness>
46.3963

> <Gold.PLP.PLP>
-36.1186

> <Gold.PLP.part.hbond>
-2.0000

> <Gold.PLP.part.metal>
0.0000

> <Gold.PLP.part.buried>
-3.2922

> <Gold.PLP.part.nonpolar>
-32.3380

> <Gold.PLP.part.repulsive>
0.4624

> <Gold.PLP.ligand.clash>
0.0000

> <Gold.PLP.ligand.torsion>
0.2474

> <Gold.PLP.Chemscore.Hbond>
1.9920

> <Gold.PLP.Chemscore.CHOScore>
1.5838

> <Gold.PLP.Chemscore.Metal>
0.0000

> <Gold.Chemscore.Hbonds>
donor molecule, donor type, donor heavy atom, donor atom, acceptor molecule, acceptor atom, score
      L1  H    10    31       P1  8028  0.96
      P1  H  7989  7998       L1     1  1.00
      L1  C    14    36       P1  7957  0.91
      L1  C    15    37       P1 10171  0.81

> <Gold.PLP.Chemscore.Internal.Correction>
0.0453

> <Gold.Rescore>
     Score         DG    S(hbond)    S(metal)    S(lipo)     H(rot)  DE(clash)    DE(int)     intcor
     16.68     -17.13       1.65        0.00      99.42       2.15       0.09       0.36       ----

> <Gold.Chemscore.Fitness>
16.6803

> <Gold.Chemscore.DG>
-17.1273

> <Gold.Chemscore.ZeroCoef>
-5.4800

> <Gold.Chemscore.Hbond>
1.6513

> <Gold.Chemscore.Metal>
0.0000

> <Gold.Chemscore.Lipo>
99.4177

> <Gold.Chemscore.Internal_Hbond>
0.0000

> <Gold.Chemscore.DEClash>
0.0861

> <Gold.Chemscore.DEInternal>
0.3610

> <Gold.Chemscore.Rot>
2.1484

> <Gold.Chemscore.Internal.Correction>
   9.000000E+99

> <Gold.Chemscore.Hbonds>
donor molecule, donor type, donor heavy atom, donor atom, acceptor molecule, acceptor atom, score
      L1  H    10    31       P1  8028  0.92
      P1  H  7989  7998       L1     1  0.48

> <Gold.Chemscore.Hbond.Weighted>
-5.5155

> <Gold.Chemscore.Metal.Weighted>
-0.0000

> <Gold.Chemscore.Lipo.Weighted>
-11.6319

> <Gold.Chemscore.Internal_Hbond.Weighted>
0.0000

> <Gold.Chemscore.DEClash.Weighted>
0.0861

> <Gold.Chemscore.DEInternal.Weighted>
0.3610

> <Gold.Chemscore.Rot.Weighted>
5.5000

> <Gold.Chemscore.Internal.Correction.Weighted>
   9.000000E+99

> <Gold.Protein.RotatedTorsions>
[ 6907 6896 6895 6894 ] final  -23.62 input  -60.11 | X-H torsion
[ 7974 7965 7964 7962 ] final  159.97 input  175.53 | X-H torsion
[ 8008 7997 7996 7995 ] final  -35.37 input   59.86 | X-H torsion
[ 10167 10162 10161 10158 ] final   18.96 input  -65.29 | X-H torsion
[ 10718 10713 10712 10709 ] final -150.86 input   66.30 | X-H torsion
[ 10763 10752 10751 10750 ] final  -58.55 input  -60.55 | X-H torsion
[ 11005 11000 10999 10996 ] final  -86.04 input  -57.11 | X-H torsion

> <Gold.Protein.ActiveResidues>
 VAL166  LYS551  ARG553  GLY616  TRP617  ASP618  TYR619  PRO620  LYS621  CYS622 
 ASP623  PHE694  ASN695  SER759  ASP760  ASP761  ALA762  ILE779  LEU786  VAL792 
 PHE793  MET794  SER795  GLU796  ALA797  LYS798  CYS799  TRP800  GLU811  SER814 

> <Gold.Protein.RotatedAtoms>
  151.2014  135.0444  159.8873 H   0  0  0  0  0  0  0  0  0  0  0  0  # atno 6907 bound_to 6896
  152.5432  134.0846  159.8260 H   0  0  0  0  0  0  0  0  0  0  0  0  # atno 6908 bound_to 6896
  151.0987  133.5212  159.2643 H   0  0  0  0  0  0  0  0  0  0  0  0  # atno 6909 bound_to 6896
  144.7762  139.7691  143.6278 H   0  0  0  0  0  0  0  0  0  0  0  0  # atno 7974 bound_to 7965
  154.4097  140.1659  156.2200 H   0  0  0  0  0  0  0  0  0  0  0  0  # atno 8008 bound_to 7997
  155.9372  140.3410  155.6274 H   0  0  0  0  0  0  0  0  0  0  0  0  # atno 8009 bound_to 7997
  155.7034  140.0748  157.2391 H   0  0  0  0  0  0  0  0  0  0  0  0  # atno 8010 bound_to 7997
  140.5614  143.9329  150.6645 H   0  0  0  0  0  0  0  0  0  0  0  0  # atno 10167 bound_to 10162
  156.4517  130.8171  151.2402 H   0  0  0  0  0  0  0  0  0  0  0  0  # atno 10718 bound_to 10713
  154.2399  135.6345  153.5203 H   0  0  0  0  0  0  0  0  0  0  0  0  # atno 10763 bound_to 10752
  152.9932  135.5539  154.5922 H   0  0  0  0  0  0  0  0  0  0  0  0  # atno 10764 bound_to 10752
  154.5425  135.2895  155.1057 H   0  0  0  0  0  0  0  0  0  0  0  0  # atno 10765 bound_to 10752
  141.1634  133.7432  156.9103 H   0  0  0  0  0  0  0  0  0  0  0  0  # atno 11005 bound_to 11000
  146.1942  139.5200  142.9785 LP  0  0  0  0  0  0  0  0  0  0  0  0  # atno 17320 bound_to 7965
  145.6180  141.0328  143.1930 LP  0  0  0  0  0  0  0  0  0  0  0  0  # atno 17321 bound_to 7965
  140.2781  143.3408  152.1176 LP  0  0  0  0  0  0  0  0  0  0  0  0  # atno 17342 bound_to 10162
  139.5072  144.6828  151.5965 LP  0  0  0  0  0  0  0  0  0  0  0  0  # atno 17343 bound_to 10162
  157.7502  131.0135  150.3429 LP  0  0  0  0  0  0  0  0  0  0  0  0  # atno 17370 bound_to 10713
  156.3809  130.3880  149.7102 LP  0  0  0  0  0  0  0  0  0  0  0  0  # atno 17371 bound_to 10713
  140.1521  134.9223  157.2606 LP  0  0  0  0  0  0  0  0  0  0  0  0  # atno 17394 bound_to 11000
  140.2710  134.3460  155.7373 LP  0  0  0  0  0  0  0  0  0  0  0  0  # atno 17395 bound_to 11000

$$$$
