AV-unprocessed.smi:1843|AV-procd|sdf|7507|dock7
  -GOLD-   22720 9213D 1   1.00000     0.00000
 Structure written by MMmdl.
 36 38  0  0  0  0  0  0  0  0  2 V2000
  151.5045  138.1328  158.9465 O   0  0  0  0  0  0  0  0  0  0  0  0
  152.4035  137.8301  158.1586 C   0  0  0  0  0  0  0  0  0  0  0  0
  153.6674  137.4746  158.4825 N   0  5  0  0  0  0  0  0  0  0  0  0
  153.9544  137.0809  159.7343 C   0  0  0  0  0  0  0  0  0  0  0  0
  153.9628  135.7912  160.0993 N   0  0  0  0  0  0  0  0  0  0  0  0
  154.2902  135.6060  161.4350 N   0  0  0  0  0  0  0  0  0  0  0  0
  154.5308  136.7611  162.0595 C   0  0  0  0  0  0  0  0  0  0  0  0
  154.9004  136.8288  163.5035 C   0  0  0  0  0  0  0  0  0  0  0  0
  154.9477  135.5770  164.3493 C   0  0  0  0  0  0  0  0  0  0  0  0
  153.8746  136.6069  164.5936 C   0  0  0  0  0  0  0  0  0  0  0  0
  154.3803  138.1842  161.0418 S   0  0  0  0  0  0  0  0  0  0  0  0
  152.1709  137.8432  156.8385 N   0  0  0  0  0  0  0  0  0  0  0  0
  150.9106  138.1969  156.1875 C   0  0  1  0  0  0  0  0  0  0  0  0
  150.4836  139.6053  156.6602 C   0  0  0  0  0  0  0  0  0  0  0  0
  149.2623  140.1347  155.8953 C   0  0  0  0  0  0  0  0  0  0  0  0
  149.5201  140.1329  154.3832 C   0  0  0  0  0  0  0  0  0  0  0  0
  149.8833  138.7227  153.9004 C   0  0  0  0  0  0  0  0  0  0  0  0
  151.1027  138.1569  154.6533 C   0  0  2  0  0  0  0  0  0  0  0  0
  151.2751  136.8180  154.2333 O   0  0  0  0  0  0  0  0  0  0  0  0
  155.6632  137.5867  163.6698 H   0  0  0  0  0  0  0  0  0  0  0  0
  154.6474  134.6404  163.8833 H   0  0  0  0  0  0  0  0  0  0  0  0
  155.7468  135.4978  165.0833 H   0  0  0  0  0  0  0  0  0  0  0  0
  153.9573  137.2162  165.4911 H   0  0  0  0  0  0  0  0  0  0  0  0
  152.8599  136.3454  164.3005 H   0  0  0  0  0  0  0  0  0  0  0  0
  152.9388  137.5912  156.2338 H   0  0  0  0  0  0  0  0  0  0  0  0
  150.1327  137.4816  156.4627 H   0  0  0  0  0  0  0  0  0  0  0  0
  150.2649  139.5920  157.7287 H   0  0  0  0  0  0  0  0  0  0  0  0
  151.3122  140.3024  156.5275 H   0  0  0  0  0  0  0  0  0  0  0  0
  148.3918  139.5178  156.1223 H   0  0  0  0  0  0  0  0  0  0  0  0
  149.0234  141.1440  156.2311 H   0  0  0  0  0  0  0  0  0  0  0  0
  148.6370  140.4916  153.8542 H   0  0  0  0  0  0  0  0  0  0  0  0
  150.3287  140.8249  154.1446 H   0  0  0  0  0  0  0  0  0  0  0  0
  149.0237  138.0658  154.0442 H   0  0  0  0  0  0  0  0  0  0  0  0
  150.0809  138.7401  152.8278 H   0  0  0  0  0  0  0  0  0  0  0  0
  151.9905  138.7276  154.3763 H   0  0  0  0  0  0  0  0  0  0  0  0
  151.1337  136.7794  153.2992 H   0  0  0  0  0  0  0  0  0  0  0  0
  1  2  2  0  0  0  0
  2  3  1  0  0  0  0
  2 12  1  0  0  0  0
  3  4  1  0  0  0  0
  4 11  1  0  0  0  0
  4  5  2  0  0  0  0
  5  6  1  0  0  0  0
  6  7  2  0  0  0  0
  7  8  1  0  0  0  0
  7 11  1  0  0  0  0
  8 10  1  0  0  0  0
  8  9  1  0  0  0  0
  8 20  1  0  0  0  0
  9 10  1  0  0  0  0
  9 21  1  0  0  0  0
  9 22  1  0  0  0  0
 10 23  1  0  0  0  0
 10 24  1  0  0  0  0
 12 13  1  0  0  0  0
 12 25  1  0  0  0  0
 13 18  1  0  0  0  0
 13 14  1  0  0  0  0
 13 26  1  0  0  0  0
 14 15  1  0  0  0  0
 14 27  1  0  0  0  0
 14 28  1  0  0  0  0
 15 16  1  0  0  0  0
 15 29  1  0  0  0  0
 15 30  1  0  0  0  0
 16 17  1  0  0  0  0
 16 31  1  0  0  0  0
 16 32  1  0  0  0  0
 17 18  1  0  0  0  0
 17 33  1  0  0  0  0
 17 34  1  0  0  0  0
 18 19  1  0  0  0  0
 18 35  1  0  0  0  0
 19 36  1  0  0  0  0
M  CHG  1   3  -1
M  END
> <s_m_source_file>
AV-unprocessed.smi

> <i_m_source_file_index>
1843

> <i_lp_mmshare_version>
43012

> <i_f3d_flags>
0

> <s_epik_input>
W09IXVtDQEBIXTFbQ0gyXVtDSDJdW0NIMl1bQ0gyXVtDQEhdMVtOSF1DKD1PKVtOSF1jMm5uYyhzMilbQ0hdM1tDSDJdW0NIMl0z

> <s_epik_cmdline>
J2VwaWtfcHl0aG9uJywgJy1waCcsICc3LjAnLCAnLXRuJywgJzgnLCAnLW1hJywgJzIwMCcsICctbWV0YWxfYmluZGluZycsICctaW1hZScsICc8aW5maWxlLm1hZT4nLCAnLW9tYWUnLCAnPG91dGZpbGUubWFlPic=

> <r_lp_tautomer_probability>
1

> <r_epik_Ionization_Penalty>
4.7996

> <r_epik_Ionization_Penalty_Charging>
4.64516

> <r_epik_Ionization_Penalty_Neutral>
0.154442

> <r_epik_State_Penalty>
4.64493

> <r_epik_Charging_Adjusted_Penalty>
9.29009

> <i_epik_Tot_Q>
-1

> <i_epik_Tot_abs_Q>
1

> <r_epik_Metal_State_Penalty>
0.896144

> <b_epik_Metal_Only>
1

> <s_lp_Force_Field>
OPLS_2005

> <r_lp_Energy>
6.73246

> <b_lp_Chiralities_Consistent>
1

> <s_lp_Variant>
AV-unprocessed.smi:1843-8

> <Gold.Version>
5.8.1

> <Gold.Id.Protein>
6NUR|6NUR_protein|mol2

> <Gold.PLP.Fitness>
34.1686

> <Gold.PLP.PLP>
-27.3877

> <Gold.PLP.part.hbond>
-3.0000

> <Gold.PLP.part.metal>
0.0000

> <Gold.PLP.part.buried>
-1.8168

> <Gold.PLP.part.nonpolar>
-23.0051

> <Gold.PLP.part.repulsive>
0.1022

> <Gold.PLP.ligand.clash>
0.0000

> <Gold.PLP.ligand.torsion>
1.0195

> <Gold.PLP.Chemscore.Hbond>
2.8953

> <Gold.PLP.Chemscore.CHOScore>
0.0000

> <Gold.PLP.Chemscore.Metal>
0.0000

> <Gold.Chemscore.Hbonds>
donor molecule, donor type, donor heavy atom, donor atom, acceptor molecule, acceptor atom, score
      L1  H    19    36       P1  7949  1.00
      P1  H  6896  6909       L1     5  0.90
      P1  H 10752 10764       L1    19  0.99

> <Gold.PLP.Chemscore.Internal.Correction>
0.1342

> <Gold.Rescore>
     Score         DG    S(hbond)    S(metal)    S(lipo)     H(rot)  DE(clash)    DE(int)     intcor
     11.51     -14.50       1.26        0.00      78.56       1.72       0.70       2.28       ----

> <Gold.Chemscore.Fitness>
11.5129

> <Gold.Chemscore.DG>
-14.4966

> <Gold.Chemscore.ZeroCoef>
-5.4800

> <Gold.Chemscore.Hbond>
1.2630

> <Gold.Chemscore.Metal>
0.0000

> <Gold.Chemscore.Lipo>
78.5562

> <Gold.Chemscore.Internal_Hbond>
0.0000

> <Gold.Chemscore.DEClash>
0.7030

> <Gold.Chemscore.DEInternal>
2.2807

> <Gold.Chemscore.Rot>
1.7160

> <Gold.Chemscore.Internal.Correction>
   9.000000E+99

> <Gold.Chemscore.Hbonds>
donor molecule, donor type, donor heavy atom, donor atom, acceptor molecule, acceptor atom, score
      L1  H    19    36       P1  7949  0.43
      P1  H  6896  6909       L1     5  0.18
      P1  H 10752 10764       L1    19  0.24

> <Gold.Chemscore.Hbond.Weighted>
-4.2185

> <Gold.Chemscore.Metal.Weighted>
-0.0000

> <Gold.Chemscore.Lipo.Weighted>
-9.1911

> <Gold.Chemscore.Internal_Hbond.Weighted>
0.0000

> <Gold.Chemscore.DEClash.Weighted>
0.7030

> <Gold.Chemscore.DEInternal.Weighted>
2.2807

> <Gold.Chemscore.Rot.Weighted>
4.3930

> <Gold.Chemscore.Internal.Correction.Weighted>
   9.000000E+99

> <Gold.Protein.RotatedTorsions>
[ 6907 6896 6895 6894 ] final  151.57 input  -60.11 | X-H torsion
[ 7974 7965 7964 7962 ] final   38.11 input  175.53 | X-H torsion
[ 8008 7997 7996 7995 ] final -133.84 input   59.86 | X-H torsion
[ 10167 10162 10161 10158 ] final  -93.33 input  -65.29 | X-H torsion
[ 10718 10713 10712 10709 ] final -166.32 input   66.30 | X-H torsion
[ 10763 10752 10751 10750 ] final  -70.56 input  -60.55 | X-H torsion
[ 11005 11000 10999 10996 ] final -112.64 input  -57.11 | X-H torsion

> <Gold.Protein.ActiveResidues>
 VAL166  LYS551  ARG553  GLY616  TRP617  ASP618  TYR619  PRO620  LYS621  CYS622 
 ASP623  PHE694  ASN695  SER759  ASP760  ASP761  ALA762  ILE779  LEU786  VAL792 
 PHE793  MET794  SER795  GLU796  ALA797  LYS798  CYS799  TRP800  GLU811  SER814 

> <Gold.Protein.RotatedAtoms>
  152.0989  133.4239  159.4577 H   0  0  0  0  0  0  0  0  0  0  0  0  # atno 6907 bound_to 6896
  150.6863  134.2784  159.4626 H   0  0  0  0  0  0  0  0  0  0  0  0  # atno 6908 bound_to 6896
  152.0643  134.9574  160.0625 H   0  0  0  0  0  0  0  0  0  0  0  0  # atno 6909 bound_to 6896
  146.1087  139.5812  142.9367 H   0  0  0  0  0  0  0  0  0  0  0  0  # atno 7974 bound_to 7965
  155.3521  140.0478  157.3046 H   0  0  0  0  0  0  0  0  0  0  0  0  # atno 8008 bound_to 7997
  154.5221  140.2228  155.8920 H   0  0  0  0  0  0  0  0  0  0  0  0  # atno 8009 bound_to 7997
  156.1701  140.3097  155.8964 H   0  0  0  0  0  0  0  0  0  0  0  0  # atno 8010 bound_to 7997
  140.3257  143.3023  151.9997 H   0  0  0  0  0  0  0  0  0  0  0  0  # atno 10167 bound_to 10162
  156.6661  130.9065  151.3036 H   0  0  0  0  0  0  0  0  0  0  0  0  # atno 10718 bound_to 10713
  154.4194  135.5990  153.6001 H   0  0  0  0  0  0  0  0  0  0  0  0  # atno 10763 bound_to 10752
  152.9793  135.5948  154.3973 H   0  0  0  0  0  0  0  0  0  0  0  0  # atno 10764 bound_to 10752
  154.3797  135.2841  155.2197 H   0  0  0  0  0  0  0  0  0  0  0  0  # atno 10765 bound_to 10752
  141.0663  133.9454  157.2573 H   0  0  0  0  0  0  0  0  0  0  0  0  # atno 11005 bound_to 11000
  145.5709  141.0394  143.2175 LP  0  0  0  0  0  0  0  0  0  0  0  0  # atno 17320 bound_to 7965
  144.7492  139.7237  143.7280 LP  0  0  0  0  0  0  0  0  0  0  0  0  # atno 17321 bound_to 7965
  139.4866  144.6275  151.7135 LP  0  0  0  0  0  0  0  0  0  0  0  0  # atno 17342 bound_to 10162
  140.5443  144.0529  150.6101 LP  0  0  0  0  0  0  0  0  0  0  0  0  # atno 17343 bound_to 10162
  157.7093  130.9421  150.1035 LP  0  0  0  0  0  0  0  0  0  0  0  0  # atno 17370 bound_to 10713
  156.1974  130.3658  149.8832 LP  0  0  0  0  0  0  0  0  0  0  0  0  # atno 17371 bound_to 10713
  139.9479  135.0181  156.8908 LP  0  0  0  0  0  0  0  0  0  0  0  0  # atno 17394 bound_to 11000
  140.5767  134.0391  155.7449 LP  0  0  0  0  0  0  0  0  0  0  0  0  # atno 17395 bound_to 11000

$$$$
