AV-unprocessed.smi:304|AV-procd|sdf|2276|dock6
  -GOLD-   2262022173D 1   1.00000     0.00000
 Structure written by MMmdl.
 36 38  0  0  0  0  0  0  0  0  1 V2000
  149.4630  141.1871  153.3664 O   0  0  0  0  0  0  0  0  0  0  0  0
  149.4321  140.8535  154.7405 C   0  0  2  0  0  0  0  0  0  0  0  0
  147.9649  140.6885  155.1661 C   0  0  0  0  0  0  0  0  0  0  0  0
  147.4362  141.9604  155.5014 O   0  0  0  0  0  0  0  0  0  0  0  0
  146.0198  142.0004  155.4344 C   0  0  0  0  0  0  0  0  0  0  0  0
  145.6375  143.1668  154.5807 C   0  0  0  0  0  0  0  0  0  0  0  0
  146.0558  143.4241  153.2999 C   0  0  0  0  0  0  0  0  0  0  0  0
  145.4952  144.6153  152.7522 C   0  0  0  0  0  0  0  0  0  0  0  0
  144.6463  145.2499  153.6191 C   0  0  0  0  0  0  0  0  0  0  0  0
  144.5180  144.3926  155.1303 S   0  0  0  0  0  0  0  0  0  0  0  0
  150.1418  141.9604  155.5443 C   0  0  0  0  0  0  0  0  0  0  0  0
  151.0315  141.4289  156.5619 N   0  0  0  0  0  0  0  0  0  0  0  0
  151.6622  140.2392  156.5435 C   0  0  0  0  0  0  0  0  0  0  0  0
  152.4356  139.9432  157.5842 N   0  0  0  0  0  0  0  0  0  0  0  0
  152.2914  141.0739  158.3699 C   0  0  0  0  0  0  0  0  0  0  0  0
  152.8577  141.3973  159.6236 C   0  0  0  0  0  0  0  0  0  0  0  0
  152.5630  142.6288  160.2448 C   0  0  0  0  0  0  0  0  0  0  0  0
  153.1140  142.9227  161.4465 F   0  0  0  0  0  0  0  0  0  0  0  0
  151.6994  143.5545  159.6224 C   0  0  0  0  0  0  0  0  0  0  0  0
  151.4231  144.7352  160.2250 F   0  0  0  0  0  0  0  0  0  0  0  0
  151.1230  143.2541  158.3734 C   0  0  0  0  0  0  0  0  0  0  0  0
  151.4187  142.0237  157.7580 C   0  0  0  0  0  0  0  0  0  0  0  0
  149.4406  140.3860  152.8651 H   0  0  0  0  0  0  0  0  0  0  0  0
  149.9641  139.9124  154.8882 H   0  0  0  0  0  0  0  0  0  0  0  0
  147.3844  140.2874  154.3337 H   0  0  0  0  0  0  0  0  0  0  0  0
  147.8698  139.9845  155.9948 H   0  0  0  0  0  0  0  0  0  0  0  0
  145.6319  141.0749  155.0059 H   0  0  0  0  0  0  0  0  0  0  0  0
  145.5948  142.1131  156.4327 H   0  0  0  0  0  0  0  0  0  0  0  0
  146.7419  142.8041  152.7421 H   0  0  0  0  0  0  0  0  0  0  0  0
  145.7292  144.9586  151.7552 H   0  0  0  0  0  0  0  0  0  0  0  0
  144.0896  146.1620  153.4630 H   0  0  0  0  0  0  0  0  0  0  0  0
  150.7155  142.6081  154.8802 H   0  0  0  0  0  0  0  0  0  0  0  0
  149.4060  142.5967  156.0380 H   0  0  0  0  0  0  0  0  0  0  0  0
  151.5466  139.5516  155.7183 H   0  0  0  0  0  0  0  0  0  0  0  0
  153.5208  140.6968  160.1089 H   0  0  0  0  0  0  0  0  0  0  0  0
  150.4641  143.9621  157.8932 H   0  0  0  0  0  0  0  0  0  0  0  0
  1  2  1  0  0  0  0
  1 23  1  0  0  0  0
  2  3  1  0  0  0  0
  2 11  1  0  0  0  0
  2 24  1  0  0  0  0
  3  4  1  0  0  0  0
  3 25  1  0  0  0  0
  3 26  1  0  0  0  0
  4  5  1  0  0  0  0
  5  6  1  0  0  0  0
  5 27  1  0  0  0  0
  5 28  1  0  0  0  0
  6 10  1  0  0  0  0
  6  7  2  0  0  0  0
  7  8  1  0  0  0  0
  7 29  1  0  0  0  0
  8  9  2  0  0  0  0
  8 30  1  0  0  0  0
  9 10  1  0  0  0  0
  9 31  1  0  0  0  0
 11 12  1  0  0  0  0
 11 32  1  0  0  0  0
 11 33  1  0  0  0  0
 12 22  1  0  0  0  0
 12 13  1  0  0  0  0
 13 14  2  0  0  0  0
 13 34  1  0  0  0  0
 14 15  1  0  0  0  0
 15 22  2  0  0  0  0
 15 16  1  0  0  0  0
 16 17  2  0  0  0  0
 16 35  1  0  0  0  0
 17 18  1  0  0  0  0
 17 19  1  0  0  0  0
 19 20  1  0  0  0  0
 19 21  2  0  0  0  0
 21 22  1  0  0  0  0
 21 36  1  0  0  0  0
M  END
> <s_m_source_file>
AV-unprocessed.smi

> <i_m_source_file_index>
304

> <i_lp_mmshare_version>
43012

> <i_f3d_flags>
0

> <s_epik_input>
W2NIXTFjKEYpYyhGKVtjSF1jKGMxMiluKFtjSF1uMilbQ0gyXVtDQEhdKFtPSF0pW0NIMl1PW0NIMl1jM1tjSF1bY0hdW2NIXXMz

> <s_epik_cmdline>
J2VwaWtfcHl0aG9uJywgJy1waCcsICc3LjAnLCAnLXRuJywgJzgnLCAnLW1hJywgJzIwMCcsICctbWV0YWxfYmluZGluZycsICctaW1hZScsICc8aW5maWxlLm1hZT4nLCAnLW9tYWUnLCAnPG91dGZpbGUubWFlPic=

> <r_epik_Ionization_Penalty>
0.0152118

> <r_epik_Ionization_Penalty_Charging>
0

> <r_epik_Ionization_Penalty_Neutral>
0.0152118

> <r_epik_State_Penalty>
0.0119413

> <r_epik_Charging_Adjusted_Penalty>
0.0119413

> <i_epik_Tot_Q>
0

> <i_epik_Tot_abs_Q>
0

> <r_epik_Metal_State_Penalty>
1.20623e-05

> <b_epik_Metal_Only>
0

> <s_lp_Force_Field>
OPLS_2005

> <r_lp_Energy>
8.33782

> <b_lp_Chiralities_Consistent>
1

> <s_lp_Variant>
AV-unprocessed.smi:304-1

> <Gold.Version>
5.8.1

> <Gold.Id.Protein>
6NUR|6NUR_protein|mol2

> <Gold.PLP.Fitness>
56.7084

> <Gold.PLP.PLP>
-51.9179

> <Gold.PLP.part.hbond>
-3.8640

> <Gold.PLP.part.metal>
0.0000

> <Gold.PLP.part.buried>
-5.2826

> <Gold.PLP.part.nonpolar>
-41.8896

> <Gold.PLP.part.repulsive>
0.1198

> <Gold.PLP.ligand.clash>
0.0000

> <Gold.PLP.ligand.torsion>
1.7714

> <Gold.PLP.Chemscore.Hbond>
2.7558

> <Gold.PLP.Chemscore.CHOScore>
0.0000

> <Gold.PLP.Chemscore.Metal>
0.0000

> <Gold.Chemscore.Hbonds>
donor molecule, donor type, donor heavy atom, donor atom, acceptor molecule, acceptor atom, score
      L1  H     1    23       P1  7957  0.66
      P1  H  7989  7998       L1     1  0.01
      P1  H  7997  8010       L1    14  0.70
      P1  H  8011  8017       L1     1  1.00

> <Gold.PLP.Chemscore.Internal.Correction>
0.0658

> <Gold.Rescore>
     Score         DG    S(hbond)    S(metal)    S(lipo)     H(rot)  DE(clash)    DE(int)     intcor
     16.94     -18.80       2.19        0.00     109.06       2.64       0.13       1.72       ----

> <Gold.Chemscore.Fitness>
16.9409

> <Gold.Chemscore.DG>
-18.7950

> <Gold.Chemscore.ZeroCoef>
-5.4800

> <Gold.Chemscore.Hbond>
2.1898

> <Gold.Chemscore.Metal>
0.0000

> <Gold.Chemscore.Lipo>
109.0616

> <Gold.Chemscore.Internal_Hbond>
0.0000

> <Gold.Chemscore.DEClash>
0.1349

> <Gold.Chemscore.DEInternal>
1.7192

> <Gold.Chemscore.Rot>
2.6403

> <Gold.Chemscore.Internal.Correction>
   9.000000E+99

> <Gold.Chemscore.Hbonds>
donor molecule, donor type, donor heavy atom, donor atom, acceptor molecule, acceptor atom, score
      L1  H     1    23       P1  7957  0.66
      P1  H  7997  8010       L1    14  0.14
      P1  H  8011  8017       L1     1  0.63

> <Gold.Chemscore.Hbond.Weighted>
-7.3140

> <Gold.Chemscore.Metal.Weighted>
-0.0000

> <Gold.Chemscore.Lipo.Weighted>
-12.7602

> <Gold.Chemscore.Internal_Hbond.Weighted>
0.0000

> <Gold.Chemscore.DEClash.Weighted>
0.1349

> <Gold.Chemscore.DEInternal.Weighted>
1.7192

> <Gold.Chemscore.Rot.Weighted>
6.7592

> <Gold.Chemscore.Internal.Correction.Weighted>
   9.000000E+99

> <Gold.Protein.RotatedTorsions>
[ 6907 6896 6895 6894 ] final  124.12 input  -60.11 | X-H torsion
[ 7974 7965 7964 7962 ] final  176.52 input  175.53 | X-H torsion
[ 8008 7997 7996 7995 ] final   51.35 input   59.86 | X-H torsion
[ 10167 10162 10161 10158 ] final -154.10 input  -65.29 | X-H torsion
[ 10718 10713 10712 10709 ] final   78.79 input   66.30 | X-H torsion
[ 10763 10752 10751 10750 ] final -100.10 input  -60.55 | X-H torsion
[ 11005 11000 10999 10996 ] final  -23.00 input  -57.11 | X-H torsion

> <Gold.Protein.ActiveResidues>
 VAL166  LYS551  ARG553  GLY616  TRP617  ASP618  TYR619  PRO620  LYS621  CYS622 
 ASP623  PHE694  ASN695  SER759  ASP760  ASP761  ALA762  ILE779  LEU786  VAL792 
 PHE793  MET794  SER795  GLU796  ALA797  LYS798  CYS799  TRP800  GLU811  SER814 

> <Gold.Protein.RotatedAtoms>
  152.4105  133.6956  159.6393 H   0  0  0  0  0  0  0  0  0  0  0  0  # atno 6907 bound_to 6896
  150.7986  133.8633  159.3246 H   0  0  0  0  0  0  0  0  0  0  0  0  # atno 6908 bound_to 6896
  151.6376  135.1018  160.0186 H   0  0  0  0  0  0  0  0  0  0  0  0  # atno 6909 bound_to 6896
  144.7183  140.0110  143.6440 H   0  0  0  0  0  0  0  0  0  0  0  0  # atno 7974 bound_to 7965
  155.4339  140.3451  155.4283 H   0  0  0  0  0  0  0  0  0  0  0  0  # atno 8008 bound_to 7997
  156.1320  140.1517  156.9082 H   0  0  0  0  0  0  0  0  0  0  0  0  # atno 8009 bound_to 7997
  154.4902  140.0843  156.7557 H   0  0  0  0  0  0  0  0  0  0  0  0  # atno 8010 bound_to 7997
  139.7042  143.9214  152.2441 H   0  0  0  0  0  0  0  0  0  0  0  0  # atno 10167 bound_to 10162
  157.6756  130.9884  150.1838 H   0  0  0  0  0  0  0  0  0  0  0  0  # atno 10718 bound_to 10713
  154.7552  135.4947  153.9361 H   0  0  0  0  0  0  0  0  0  0  0  0  # atno 10763 bound_to 10752
  153.1187  135.6727  153.9380 H   0  0  0  0  0  0  0  0  0  0  0  0  # atno 10764 bound_to 10752
  153.9118  135.3098  155.3427 H   0  0  0  0  0  0  0  0  0  0  0  0  # atno 10765 bound_to 10752
  140.8710  133.7720  156.0187 H   0  0  0  0  0  0  0  0  0  0  0  0  # atno 11005 bound_to 11000
  146.0259  139.3291  143.0785 LP  0  0  0  0  0  0  0  0  0  0  0  0  # atno 17320 bound_to 7965
  145.8512  140.9527  143.0748 LP  0  0  0  0  0  0  0  0  0  0  0  0  # atno 17321 bound_to 7965
  139.9065  144.6882  150.8609 LP  0  0  0  0  0  0  0  0  0  0  0  0  # atno 17342 bound_to 10162
  140.7717  143.3475  151.2081 LP  0  0  0  0  0  0  0  0  0  0  0  0  # atno 17343 bound_to 10162
  156.2565  130.3706  149.8176 LP  0  0  0  0  0  0  0  0  0  0  0  0  # atno 17370 bound_to 10713
  156.5934  130.8516  151.3414 LP  0  0  0  0  0  0  0  0  0  0  0  0  # atno 17371 bound_to 10713
  140.8573  134.2883  157.5250 LP  0  0  0  0  0  0  0  0  0  0  0  0  # atno 17394 bound_to 11000
  139.8712  134.9499  156.4041 LP  0  0  0  0  0  0  0  0  0  0  0  0  # atno 17395 bound_to 11000

$$$$
