AV-unprocessed.smi:1111|AV-procd|sdf|4794|dock7
  -GOLD-   22720 3343D 1   1.00000     0.00000
 Structure written by MMmdl.
 33 34  0  0  0  0  0  0  0  0  2 V2000
  149.0939  130.5482  153.8885 C   0  0  0  0  0  0  0  0  0  0  0  0
  148.8368  131.9522  154.4759 C   0  0  1  0  0  0  0  0  0  0  0  0
  148.2565  132.8391  153.4580 N   0  0  0  0  0  0  0  0  0  0  0  0
  147.1838  132.6222  152.6765 C   0  0  0  0  0  0  0  0  0  0  0  0
  146.4926  131.6056  152.7203 O   0  0  0  0  0  0  0  0  0  0  0  0
  146.8308  133.7337  151.6886 C   0  0  0  0  0  0  0  0  0  0  0  0
  145.7100  133.3427  150.8290 N   0  0  0  0  0  0  0  0  0  0  0  0
  145.6684  132.2999  149.9387 C   0  0  0  0  0  0  0  0  0  0  0  0
  144.4237  132.3260  149.3641 C   0  0  0  0  0  0  0  0  0  0  0  0
  143.7594  133.3838  149.9254 N   0  3  0  0  0  0  0  0  0  0  0  0
  144.5433  134.0013  150.8152 C   0  0  0  0  0  0  0  0  0  0  0  0
  147.8170  131.8587  155.6364 C   0  0  0  0  0  0  0  0  0  0  0  0
  147.8523  133.1502  156.4635 C   0  0  0  0  0  0  0  0  0  0  0  0
  149.5790  133.7490  156.3747 S   0  0  0  0  0  0  0  0  0  0  0  0
  149.5803  135.1116  155.8208 O   0  0  0  0  0  0  0  0  0  0  0  0
  150.2757  133.4405  157.6324 O   0  0  0  0  0  0  0  0  0  0  0  0
  150.1200  132.5661  155.0825 C   0  0  0  0  0  0  0  0  0  0  0  0
  149.4329  129.8542  154.6584 H   0  0  0  0  0  0  0  0  0  0  0  0
  149.8617  130.5619  153.1152 H   0  0  0  0  0  0  0  0  0  0  0  0
  148.1872  130.1309  153.4496 H   0  0  0  0  0  0  0  0  0  0  0  0
  148.7413  133.7146  153.3239 H   0  0  0  0  0  0  0  0  0  0  0  0
  146.5592  134.6496  152.2160 H   0  0  0  0  0  0  0  0  0  0  0  0
  147.6901  133.9643  151.0568 H   0  0  0  0  0  0  0  0  0  0  0  0
  146.5052  131.6339  149.7847 H   0  0  0  0  0  0  0  0  0  0  0  0
  143.9730  131.6884  148.6175 H   0  0  0  0  0  0  0  0  0  0  0  0
  144.2858  134.8634  151.4048 H   0  0  0  0  0  0  0  0  0  0  0  0
  146.8083  131.6393  155.2837 H   0  0  0  0  0  0  0  0  0  0  0  0
  148.0991  131.0333  156.2919 H   0  0  0  0  0  0  0  0  0  0  0  0
  147.2071  133.9127  156.0270 H   0  0  0  0  0  0  0  0  0  0  0  0
  147.5586  132.9984  157.5022 H   0  0  0  0  0  0  0  0  0  0  0  0
  150.7116  131.7977  155.5812 H   0  0  0  0  0  0  0  0  0  0  0  0
  150.7711  133.0669  154.3665 H   0  0  0  0  0  0  0  0  0  0  0  0
  142.8119  133.6611  149.7011 H   0  0  0  0  0  0  0  0  0  0  0  0
  1  2  1  0  0  0  0
  1 18  1  0  0  0  0
  1 19  1  0  0  0  0
  1 20  1  0  0  0  0
  2 17  1  0  0  0  0
  2  3  1  0  0  0  0
  2 12  1  0  0  0  0
  3  4  1  0  0  0  0
  3 21  1  0  0  0  0
  4  5  2  0  0  0  0
  4  6  1  0  0  0  0
  6  7  1  0  0  0  0
  6 22  1  0  0  0  0
  6 23  1  0  0  0  0
  7 11  1  0  0  0  0
  7  8  1  0  0  0  0
  8  9  2  0  0  0  0
  8 24  1  0  0  0  0
  9 10  1  0  0  0  0
  9 25  1  0  0  0  0
 10 11  2  0  0  0  0
 10 33  1  0  0  0  0
 11 26  1  0  0  0  0
 12 13  1  0  0  0  0
 12 27  1  0  0  0  0
 12 28  1  0  0  0  0
 13 14  1  0  0  0  0
 13 29  1  0  0  0  0
 13 30  1  0  0  0  0
 14 15  2  0  0  0  0
 14 16  2  0  0  0  0
 14 17  1  0  0  0  0
 17 31  1  0  0  0  0
 17 32  1  0  0  0  0
M  CHG  1  10   1
M  END
> <s_m_source_file>
AV-unprocessed.smi

> <i_m_source_file_index>
1111

> <i_lp_mmshare_version>
43012

> <i_f3d_flags>
0

> <s_epik_input>
Tz1TKD1PKShbQ0gyXTEpW0NIMl1bQ0gyXVtDQEBdMShbQ0gzXSlbTkhdQyg9TylbQ0gyXW4yW2NIXVtjSF1uW2NIXTI=

> <s_epik_cmdline>
J2VwaWtfcHl0aG9uJywgJy1waCcsICc3LjAnLCAnLXRuJywgJzgnLCAnLW1hJywgJzIwMCcsICctbWV0YWxfYmluZGluZycsICctaW1hZScsICc8aW5maWxlLm1hZT4nLCAnLW9tYWUnLCAnPG91dGZpbGUubWFlPic=

> <r_lp_tautomer_probability>
1

> <r_epik_Ionization_Penalty>
0.638881

> <r_epik_Ionization_Penalty_Charging>
0

> <r_epik_Ionization_Penalty_Neutral>
0.638881

> <r_epik_State_Penalty>
0.656385

> <r_epik_Charging_Adjusted_Penalty>
0.656385

> <i_epik_Tot_Q>
1

> <i_epik_Tot_abs_Q>
1

> <r_epik_Metal_State_Penalty>
0.832701

> <b_epik_Metal_Only>
0

> <s_lp_Force_Field>
OPLS_2005

> <r_lp_Energy>
7.94824

> <b_lp_Chiralities_Consistent>
1

> <s_lp_Variant>
AV-unprocessed.smi:1111-3

> <Gold.Version>
5.8.1

> <Gold.Id.Protein>
6NUR|6NUR_protein|mol2

> <Gold.PLP.Fitness>
38.1519

> <Gold.PLP.PLP>
-26.4546

> <Gold.PLP.part.hbond>
-2.0000

> <Gold.PLP.part.metal>
0.0000

> <Gold.PLP.part.buried>
-4.7889

> <Gold.PLP.part.nonpolar>
-20.7210

> <Gold.PLP.part.repulsive>
0.2674

> <Gold.PLP.ligand.clash>
0.0000

> <Gold.PLP.ligand.torsion>
0.0881

> <Gold.PLP.Chemscore.Hbond>
3.0000

> <Gold.PLP.Chemscore.CHOScore>
0.9522

> <Gold.PLP.Chemscore.Metal>
0.0000

> <Gold.Chemscore.Hbonds>
donor molecule, donor type, donor heavy atom, donor atom, acceptor molecule, acceptor atom, score
      L1  H    10    33       P1 10186  2.00
      P1  H  6896  6909       L1    16  1.00
      L1  C     8    24       P1 10747  0.77

> <Gold.PLP.Chemscore.Internal.Correction>
0.0169

> <Gold.Rescore>
     Score         DG    S(hbond)    S(metal)    S(lipo)     H(rot)  DE(clash)    DE(int)     intcor
     13.26     -13.42       1.98        0.00      50.33       1.78       0.02       0.14       ----

> <Gold.Chemscore.Fitness>
13.2614

> <Gold.Chemscore.DG>
-13.4240

> <Gold.Chemscore.ZeroCoef>
-5.4800

> <Gold.Chemscore.Hbond>
1.9789

> <Gold.Chemscore.Metal>
0.0000

> <Gold.Chemscore.Lipo>
50.3254

> <Gold.Chemscore.Internal_Hbond>
0.0000

> <Gold.Chemscore.DEClash>
0.0197

> <Gold.Chemscore.DEInternal>
0.1430

> <Gold.Chemscore.Rot>
1.7787

> <Gold.Chemscore.Internal.Correction>
   9.000000E+99

> <Gold.Chemscore.Hbonds>
donor molecule, donor type, donor heavy atom, donor atom, acceptor molecule, acceptor atom, score
      L1  H    10    33       P1 10186  0.98
      P1  H  6896  6909       L1    16  0.97

> <Gold.Chemscore.Hbond.Weighted>
-6.6095

> <Gold.Chemscore.Metal.Weighted>
-0.0000

> <Gold.Chemscore.Lipo.Weighted>
-5.8881

> <Gold.Chemscore.Internal_Hbond.Weighted>
0.0000

> <Gold.Chemscore.DEClash.Weighted>
0.0197

> <Gold.Chemscore.DEInternal.Weighted>
0.1430

> <Gold.Chemscore.Rot.Weighted>
4.5536

> <Gold.Chemscore.Internal.Correction.Weighted>
   9.000000E+99

> <Gold.Protein.RotatedTorsions>
[ 6907 6896 6895 6894 ] final  -14.51 input  -60.11 | X-H torsion
[ 7974 7965 7964 7962 ] final  -77.20 input  175.53 | X-H torsion
[ 8008 7997 7996 7995 ] final -140.78 input   59.86 | X-H torsion
[ 10167 10162 10161 10158 ] final   68.15 input  -65.29 | X-H torsion
[ 10718 10713 10712 10709 ] final  -82.44 input   66.30 | X-H torsion
[ 10763 10752 10751 10750 ] final  -17.21 input  -60.55 | X-H torsion
[ 11005 11000 10999 10996 ] final  171.92 input  -57.11 | X-H torsion

> <Gold.Protein.ActiveResidues>
 VAL166  LYS551  ARG553  GLY616  TRP617  ASP618  TYR619  PRO620  LYS621  CYS622 
 ASP623  PHE694  ASN695  SER759  ASP760  ASP761  ALA762  ILE779  LEU786  VAL792 
 PHE793  MET794  SER795  GLU796  ALA797  LYS798  CYS799  TRP800  GLU811  SER814 

> <Gold.Protein.RotatedAtoms>
  151.3383  135.0857  159.9361 H   0  0  0  0  0  0  0  0  0  0  0  0  # atno 6907 bound_to 6896
  152.5218  133.9473  159.7665 H   0  0  0  0  0  0  0  0  0  0  0  0  # atno 6908 bound_to 6896
  150.9825  133.6178  159.2750 H   0  0  0  0  0  0  0  0  0  0  0  0  # atno 6909 bound_to 6896
  145.6029  140.9404  143.1231 H   0  0  0  0  0  0  0  0  0  0  0  0  # atno 7974 bound_to 7965
  155.4669  140.0550  157.2984 H   0  0  0  0  0  0  0  0  0  0  0  0  # atno 8008 bound_to 7997
  154.4714  140.2042  155.9940 H   0  0  0  0  0  0  0  0  0  0  0  0  # atno 8009 bound_to 7997
  156.1062  140.3211  155.8013 H   0  0  0  0  0  0  0  0  0  0  0  0  # atno 8010 bound_to 7997
  140.0818  144.5064  150.7157 H   0  0  0  0  0  0  0  0  0  0  0  0  # atno 10167 bound_to 10162
  156.0033  130.4634  150.4106 H   0  0  0  0  0  0  0  0  0  0  0  0  # atno 10718 bound_to 10713
  153.5704  135.7007  153.5507 H   0  0  0  0  0  0  0  0  0  0  0  0  # atno 10763 bound_to 10752
  153.3350  135.4037  155.1525 H   0  0  0  0  0  0  0  0  0  0  0  0  # atno 10764 bound_to 10752
  154.8634  135.3728  154.5226 H   0  0  0  0  0  0  0  0  0  0  0  0  # atno 10765 bound_to 10752
  140.3242  134.7412  157.4086 H   0  0  0  0  0  0  0  0  0  0  0  0  # atno 11005 bound_to 11000
  144.7302  139.7749  143.7350 LP  0  0  0  0  0  0  0  0  0  0  0  0  # atno 17320 bound_to 7965
  146.1563  139.4662  143.0017 LP  0  0  0  0  0  0  0  0  0  0  0  0  # atno 17321 bound_to 7965
  140.7074  143.2478  151.4686 LP  0  0  0  0  0  0  0  0  0  0  0  0  # atno 17342 bound_to 10162
  139.5775  144.1785  152.1923 LP  0  0  0  0  0  0  0  0  0  0  0  0  # atno 17343 bound_to 10162
  157.2168  131.0473  151.2568 LP  0  0  0  0  0  0  0  0  0  0  0  0  # atno 17370 bound_to 10713
  157.3837  130.7245  149.6648 LP  0  0  0  0  0  0  0  0  0  0  0  0  # atno 17371 bound_to 10713
  140.0916  134.5594  155.8439 LP  0  0  0  0  0  0  0  0  0  0  0  0  # atno 17394 bound_to 11000
  141.2079  133.6669  156.6337 LP  0  0  0  0  0  0  0  0  0  0  0  0  # atno 17395 bound_to 11000

$$$$
