AV-unprocessed.smi:3166|AV-procd|sdf|12094|dock3
  -GOLD-   2272017523D 1   1.00000     0.00000
 Structure written by MMmdl.
 41 42  0  0  0  0  0  0  0  0  2 V2000
  151.6798  144.0440  157.3596 C   0  0  0  0  0  0  0  0  0  0  0  0
  151.4295  142.5288  157.2797 C   0  0  1  0  0  0  0  0  0  0  0  0
  150.8943  141.9965  158.6248 C   0  0  0  0  0  0  0  0  0  0  0  0
  151.8856  142.0363  159.6869 N   0  0  0  0  0  0  0  0  0  0  0  0
  153.1110  141.4052  159.7386 C   0  0  0  0  0  0  0  0  0  0  0  0
  153.6800  141.7191  160.9395 C   0  0  0  0  0  0  0  0  0  0  0  0
  152.7105  142.5504  161.5664 C   0  0  0  0  0  0  0  0  0  0  0  0
  151.6363  142.7348  160.8159 N   0  0  0  0  0  0  0  0  0  0  0  0
  150.4817  142.1995  156.1907 N   0  3  0  0  0  0  0  0  0  0  0  0
  149.8473  140.8659  156.2785 C   0  0  0  0  0  0  0  0  0  0  0  0
  149.1671  140.4560  154.9536 C   0  0  0  0  0  0  0  0  0  0  0  0
  150.1808  140.3942  153.9657 O   0  0  0  0  0  0  0  0  0  0  0  0
  148.4679  139.0775  155.0612 C   0  0  0  0  0  0  0  0  0  0  0  0
  147.6733  138.7097  153.7952 C   0  0  0  0  0  0  0  0  0  0  0  0
  146.6592  139.8032  153.4332 C   0  0  0  0  0  0  0  0  0  0  0  0
  147.3530  141.1621  153.2672 C   0  0  0  0  0  0  0  0  0  0  0  0
  148.1504  141.5420  154.5279 C   0  0  0  0  0  0  0  0  0  0  0  0
  152.3515  144.2842  158.1842 H   0  0  0  0  0  0  0  0  0  0  0  0
  150.7508  144.5922  157.5198 H   0  0  0  0  0  0  0  0  0  0  0  0
  152.1426  144.4279  156.4509 H   0  0  0  0  0  0  0  0  0  0  0  0
  152.3799  142.0357  157.0695 H   0  0  0  0  0  0  0  0  0  0  0  0
  150.0351  142.5856  158.9481 H   0  0  0  0  0  0  0  0  0  0  0  0
  150.5436  140.9692  158.5135 H   0  0  0  0  0  0  0  0  0  0  0  0
  153.4735  140.7917  158.9268 H   0  0  0  0  0  0  0  0  0  0  0  0
  154.6404  141.3993  161.3159 H   0  0  0  0  0  0  0  0  0  0  0  0
  152.7543  143.0196  162.5382 H   0  0  0  0  0  0  0  0  0  0  0  0
  149.7336  142.8782  156.2255 H   0  0  0  0  0  0  0  0  0  0  0  0
  150.5996  140.1246  156.5483 H   0  0  0  0  0  0  0  0  0  0  0  0
  149.1116  140.8764  157.0843 H   0  0  0  0  0  0  0  0  0  0  0  0
  149.7745  140.2149  153.1308 H   0  0  0  0  0  0  0  0  0  0  0  0
  149.1948  138.2912  155.2672 H   0  0  0  0  0  0  0  0  0  0  0  0
  147.7843  139.0869  155.9115 H   0  0  0  0  0  0  0  0  0  0  0  0
  148.3580  138.5543  152.9605 H   0  0  0  0  0  0  0  0  0  0  0  0
  147.1560  137.7618  153.9462 H   0  0  0  0  0  0  0  0  0  0  0  0
  146.1370  139.5368  152.5137 H   0  0  0  0  0  0  0  0  0  0  0  0
  145.8990  139.8714  154.2126 H   0  0  0  0  0  0  0  0  0  0  0  0
  148.0170  141.1322  152.4026 H   0  0  0  0  0  0  0  0  0  0  0  0
  146.6103  141.9317  153.0551 H   0  0  0  0  0  0  0  0  0  0  0  0
  147.4460  141.7131  155.3434 H   0  0  0  0  0  0  0  0  0  0  0  0
  148.6574  142.4942  154.3659 H   0  0  0  0  0  0  0  0  0  0  0  0
  150.9517  142.2884  155.3015 H   0  0  0  0  0  0  0  0  0  0  0  0
  1  2  1  0  0  0  0
  1 18  1  0  0  0  0
  1 19  1  0  0  0  0
  1 20  1  0  0  0  0
  2  3  1  0  0  0  0
  2  9  1  0  0  0  0
  2 21  1  0  0  0  0
  3  4  1  0  0  0  0
  3 22  1  0  0  0  0
  3 23  1  0  0  0  0
  4  8  1  0  0  0  0
  4  5  1  0  0  0  0
  5  6  2  0  0  0  0
  5 24  1  0  0  0  0
  6  7  1  0  0  0  0
  6 25  1  0  0  0  0
  7  8  2  0  0  0  0
  7 26  1  0  0  0  0
  9 10  1  0  0  0  0
  9 27  1  0  0  0  0
  9 41  1  0  0  0  0
 10 11  1  0  0  0  0
 10 28  1  0  0  0  0
 10 29  1  0  0  0  0
 11 17  1  0  0  0  0
 11 12  1  0  0  0  0
 11 13  1  0  0  0  0
 12 30  1  0  0  0  0
 13 14  1  0  0  0  0
 13 31  1  0  0  0  0
 13 32  1  0  0  0  0
 14 15  1  0  0  0  0
 14 33  1  0  0  0  0
 14 34  1  0  0  0  0
 15 16  1  0  0  0  0
 15 35  1  0  0  0  0
 15 36  1  0  0  0  0
 16 17  1  0  0  0  0
 16 37  1  0  0  0  0
 16 38  1  0  0  0  0
 17 39  1  0  0  0  0
 17 40  1  0  0  0  0
M  CHG  1   9   1
M  END
> <s_m_source_file>
AV-unprocessed.smi

> <i_m_source_file_index>
3166

> <i_lp_mmshare_version>
43012

> <i_f3d_flags>
0

> <s_epik_input>
bjFbY0hdW2NIXVtjSF1uMVtDSDJdW0NAQEhdKFtDSDNdKVtOSF1bQ0gyXUMyKFtPSF0pW0NIMl1bQ0gyXVtDSDJdW0NIMl1bQ0gyXTI=

> <s_epik_cmdline>
J2VwaWtfcHl0aG9uJywgJy1waCcsICc3LjAnLCAnLXRuJywgJzgnLCAnLW1hJywgJzIwMCcsICctbWV0YWxfYmluZGluZycsICctaW1hZScsICc8aW5maWxlLm1hZT4nLCAnLW9tYWUnLCAnPG91dGZpbGUubWFlPic=

> <r_lp_tautomer_probability>
1

> <r_epik_Ionization_Penalty>
0.0111521

> <r_epik_Ionization_Penalty_Charging>
0.0111472

> <r_epik_Ionization_Penalty_Neutral>
4.96355e-06

> <r_epik_State_Penalty>
0.00856328

> <r_epik_Charging_Adjusted_Penalty>
0.0197104

> <i_epik_Tot_Q>
1

> <i_epik_Tot_abs_Q>
1

> <r_epik_Metal_State_Penalty>
0.00856387

> <b_epik_Metal_Only>
0

> <s_lp_Force_Field>
OPLS_2005

> <r_lp_Energy>
16.9358

> <b_lp_Chiralities_Consistent>
1

> <s_lp_Variant>
AV-unprocessed.smi:3166-2

> <Gold.Version>
5.8.1

> <Gold.Id.Protein>
6NUR|6NUR_protein|mol2

> <Gold.PLP.Fitness>
47.7403

> <Gold.PLP.PLP>
-37.0811

> <Gold.PLP.part.hbond>
-3.5212

> <Gold.PLP.part.metal>
0.0000

> <Gold.PLP.part.buried>
-4.3801

> <Gold.PLP.part.nonpolar>
-29.6669

> <Gold.PLP.part.repulsive>
0.1886

> <Gold.PLP.ligand.clash>
0.0000

> <Gold.PLP.ligand.torsion>
0.2972

> <Gold.PLP.Chemscore.Hbond>
3.7288

> <Gold.PLP.Chemscore.CHOScore>
0.0000

> <Gold.PLP.Chemscore.Metal>
0.0000

> <Gold.Chemscore.Hbonds>
donor molecule, donor type, donor heavy atom, donor atom, acceptor molecule, acceptor atom, score
      L1  H     9    27       P1  8028  1.62
      L1  H    12    30       P1  7957  1.00
      P1  H  6933  6945       L1     8  0.07
      P1  H  7989  7998       L1    12  0.80

> <Gold.PLP.Chemscore.Internal.Correction>
0.0672

> <Gold.Rescore>
     Score         DG    S(hbond)    S(metal)    S(lipo)     H(rot)  DE(clash)    DE(int)     intcor
     19.16     -19.57       2.24        0.00     104.46       2.20       0.19       0.21       ----

> <Gold.Chemscore.Fitness>
19.1609

> <Gold.Chemscore.DG>
-19.5669

> <Gold.Chemscore.ZeroCoef>
-5.4800

> <Gold.Chemscore.Hbond>
2.2440

> <Gold.Chemscore.Metal>
0.0000

> <Gold.Chemscore.Lipo>
104.4586

> <Gold.Chemscore.Internal_Hbond>
0.0000

> <Gold.Chemscore.DEClash>
0.1945

> <Gold.Chemscore.DEInternal>
0.2115

> <Gold.Chemscore.Rot>
2.1991

> <Gold.Chemscore.Internal.Correction>
   9.000000E+99

> <Gold.Chemscore.Hbonds>
donor molecule, donor type, donor heavy atom, donor atom, acceptor molecule, acceptor atom, score
      L1  H     9    27       P1  8028  0.77
      L1  H    12    30       P1  7957  0.97
      P1  H  6933  6945       L1     8  0.01
      P1  H  7989  7998       L1    12  0.20

> <Gold.Chemscore.Hbond.Weighted>
-7.4951

> <Gold.Chemscore.Metal.Weighted>
-0.0000

> <Gold.Chemscore.Lipo.Weighted>
-12.2217

> <Gold.Chemscore.Internal_Hbond.Weighted>
0.0000

> <Gold.Chemscore.DEClash.Weighted>
0.1945

> <Gold.Chemscore.DEInternal.Weighted>
0.2115

> <Gold.Chemscore.Rot.Weighted>
5.6298

> <Gold.Chemscore.Internal.Correction.Weighted>
   9.000000E+99

> <Gold.Protein.RotatedTorsions>
[ 6907 6896 6895 6894 ] final    2.57 input  -60.11 | X-H torsion
[ 7974 7965 7964 7962 ] final -172.55 input  175.53 | X-H torsion
[ 8008 7997 7996 7995 ] final   -9.51 input   59.86 | X-H torsion
[ 10167 10162 10161 10158 ] final  173.70 input  -65.29 | X-H torsion
[ 10718 10713 10712 10709 ] final   50.55 input   66.30 | X-H torsion
[ 10763 10752 10751 10750 ] final  -77.98 input  -60.55 | X-H torsion
[ 11005 11000 10999 10996 ] final -110.01 input  -57.11 | X-H torsion

> <Gold.Protein.ActiveResidues>
 VAL166  LYS551  ARG553  GLY616  TRP617  ASP618  TYR619  PRO620  LYS621  CYS622 
 ASP623  PHE694  ASN695  SER759  ASP760  ASP761  ALA762  ILE779  LEU786  VAL792 
 PHE793  MET794  SER795  GLU796  ALA797  LYS798  CYS799  TRP800  GLU811  SER814 

> <Gold.Protein.RotatedAtoms>
  151.6110  135.1040  160.0080 H   0  0  0  0  0  0  0  0  0  0  0  0  # atno 6907 bound_to 6896
  152.4208  133.7109  159.6489 H   0  0  0  0  0  0  0  0  0  0  0  0  # atno 6908 bound_to 6896
  150.8096  133.8374  159.3210 H   0  0  0  0  0  0  0  0  0  0  0  0  # atno 6909 bound_to 6896
  144.7145  140.1756  143.6363 H   0  0  0  0  0  0  0  0  0  0  0  0  # atno 7974 bound_to 7965
  154.5640  140.2353  155.8292 H   0  0  0  0  0  0  0  0  0  0  0  0  # atno 8008 bound_to 7997
  156.2053  140.3041  155.9572 H   0  0  0  0  0  0  0  0  0  0  0  0  # atno 8009 bound_to 7997
  155.2836  140.0423  157.3008 H   0  0  0  0  0  0  0  0  0  0  0  0  # atno 8010 bound_to 7997
  139.5117  144.3231  152.0183 H   0  0  0  0  0  0  0  0  0  0  0  0  # atno 10167 bound_to 10162
  157.4896  130.8367  149.8187 H   0  0  0  0  0  0  0  0  0  0  0  0  # atno 10718 bound_to 10713
  154.5200  135.5745  153.6673 H   0  0  0  0  0  0  0  0  0  0  0  0  # atno 10763 bound_to 10752
  152.9915  135.6179  154.2767 H   0  0  0  0  0  0  0  0  0  0  0  0  # atno 10764 bound_to 10752
  154.2687  135.2854  155.2727 H   0  0  0  0  0  0  0  0  0  0  0  0  # atno 10765 bound_to 10752
  141.0816  133.9210  157.2276 H   0  0  0  0  0  0  0  0  0  0  0  0  # atno 11005 bound_to 11000
  145.8904  139.2372  143.1553 LP  0  0  0  0  0  0  0  0  0  0  0  0  # atno 17320 bound_to 7965
  145.9909  140.8603  143.0067 LP  0  0  0  0  0  0  0  0  0  0  0  0  # atno 17321 bound_to 7965
  140.2672  144.4003  150.6164 LP  0  0  0  0  0  0  0  0  0  0  0  0  # atno 17342 bound_to 10162
  140.6114  143.2170  151.6878 LP  0  0  0  0  0  0  0  0  0  0  0  0  # atno 17343 bound_to 10162
  156.0166  130.3811  150.2093 LP  0  0  0  0  0  0  0  0  0  0  0  0  # atno 17370 bound_to 10713
  157.0281  130.9999  151.3320 LP  0  0  0  0  0  0  0  0  0  0  0  0  # atno 17371 bound_to 10713
  139.9630  135.0149  156.9312 LP  0  0  0  0  0  0  0  0  0  0  0  0  # atno 17394 bound_to 11000
  140.5456  134.0677  155.7354 LP  0  0  0  0  0  0  0  0  0  0  0  0  # atno 17395 bound_to 11000

$$$$
