AV-unprocessed.smi:2317|AV-procd|sdf|9271|dock2
  -GOLD-   2272012493D 1   1.00000     0.00000
 Structure written by MMmdl.
 37 38  0  0  0  0  0  0  0  0  1 V2000
  144.6723  136.8337  151.8840 O   0  0  0  0  0  0  0  0  0  0  0  0
  145.8896  136.6501  151.8605 C   0  0  0  0  0  0  0  0  0  0  0  0
  146.7910  137.6237  152.0504 N   0  0  0  0  0  0  0  0  0  0  0  0
  146.4687  139.0260  152.2976 C   0  0  0  0  0  0  0  0  0  0  0  0
  147.1984  139.6013  153.5360 C   0  0  2  0  0  0  0  0  0  0  0  0
  147.1803  141.1482  153.5354 C   0  0  0  0  0  0  0  0  0  0  0  0
  147.9270  141.7368  154.7419 C   0  0  0  0  0  0  0  0  0  0  0  0
  149.3728  141.2268  154.7982 C   0  0  0  0  0  0  0  0  0  0  0  0
  149.4072  139.6929  154.8294 C   0  0  0  0  0  0  0  0  0  0  0  0
  148.6567  139.0870  153.6288 C   0  0  1  0  0  0  0  0  0  0  0  0
  148.6744  137.6809  153.7736 O   0  0  0  0  0  0  0  0  0  0  0  0
  146.4846  135.4619  151.6648 N   0  0  0  0  0  0  0  0  0  0  0  0
  145.8431  134.2112  151.4748 C   0  0  0  0  0  0  0  0  0  0  0  0
  144.5276  134.2062  150.9669 C   0  0  0  0  0  0  0  0  0  0  0  0
  143.8751  132.9697  150.7908 C   0  0  0  0  0  0  0  0  0  0  0  0
  144.4392  131.7825  151.0983 N   0  0  0  0  0  0  0  0  0  0  0  0
  145.6887  131.7922  151.6100 C   0  0  0  0  0  0  0  0  0  0  0  0
  146.4300  132.9712  151.8280 C   0  0  0  0  0  0  0  0  0  0  0  0
  147.6599  132.8983  152.3916 F   0  0  0  0  0  0  0  0  0  0  0  0
  147.7704  137.3806  152.0220 H   0  0  0  0  0  0  0  0  0  0  0  0
  146.7036  139.6059  151.4037 H   0  0  0  0  0  0  0  0  0  0  0  0
  145.3897  139.1036  152.4341 H   0  0  0  0  0  0  0  0  0  0  0  0
  146.6700  139.2653  154.4299 H   0  0  0  0  0  0  0  0  0  0  0  0
  147.6337  141.5193  152.6152 H   0  0  0  0  0  0  0  0  0  0  0  0
  146.1548  141.5182  153.5430 H   0  0  0  0  0  0  0  0  0  0  0  0
  147.9189  142.8257  154.6885 H   0  0  0  0  0  0  0  0  0  0  0  0
  147.4065  141.4681  155.6621 H   0  0  0  0  0  0  0  0  0  0  0  0
  149.9250  141.5903  153.9308 H   0  0  0  0  0  0  0  0  0  0  0  0
  149.8762  141.6286  155.6780 H   0  0  0  0  0  0  0  0  0  0  0  0
  150.4425  139.3496  154.8358 H   0  0  0  0  0  0  0  0  0  0  0  0
  148.9600  139.3435  155.7613 H   0  0  0  0  0  0  0  0  0  0  0  0
  149.1895  139.3378  152.7105 H   0  0  0  0  0  0  0  0  0  0  0  0
  148.7349  137.2911  152.9147 H   0  0  0  0  0  0  0  0  0  0  0  0
  147.4855  135.4314  151.7910 H   0  0  0  0  0  0  0  0  0  0  0  0
  144.0287  135.1281  150.7055 H   0  0  0  0  0  0  0  0  0  0  0  0
  142.8712  132.9345  150.3939 H   0  0  0  0  0  0  0  0  0  0  0  0
  146.1064  130.8300  151.8667 H   0  0  0  0  0  0  0  0  0  0  0  0
  1  2  2  0  0  0  0
  2  3  1  0  0  0  0
  2 12  1  0  0  0  0
  3  4  1  0  0  0  0
  3 20  1  0  0  0  0
  4  5  1  0  0  0  0
  4 21  1  0  0  0  0
  4 22  1  0  0  0  0
  5 10  1  0  0  0  0
  5  6  1  0  0  0  0
  5 23  1  0  0  0  0
  6  7  1  0  0  0  0
  6 24  1  0  0  0  0
  6 25  1  0  0  0  0
  7  8  1  0  0  0  0
  7 26  1  0  0  0  0
  7 27  1  0  0  0  0
  8  9  1  0  0  0  0
  8 28  1  0  0  0  0
  8 29  1  0  0  0  0
  9 10  1  0  0  0  0
  9 30  1  0  0  0  0
  9 31  1  0  0  0  0
 10 11  1  0  0  0  0
 10 32  1  0  0  0  0
 11 33  1  0  0  0  0
 12 13  1  0  0  0  0
 12 34  1  0  0  0  0
 13 18  1  0  0  0  0
 13 14  2  0  0  0  0
 14 15  1  0  0  0  0
 14 35  1  0  0  0  0
 15 16  2  0  0  0  0
 15 36  1  0  0  0  0
 16 17  1  0  0  0  0
 17 18  2  0  0  0  0
 17 37  1  0  0  0  0
 18 19  1  0  0  0  0
M  END
> <s_m_source_file>
AV-unprocessed.smi

> <i_m_source_file_index>
2317

> <i_lp_mmshare_version>
43012

> <i_f3d_flags>
0

> <s_epik_input>
RmMxW2NIXW5bY0hdW2NIXWMxW05IXUMoPU8pW05IXVtDSDJdW0NAQEhdMltDSDJdW0NIMl1bQ0gyXVtDSDJdW0NASF0yW09IXQ==

> <s_epik_cmdline>
J2VwaWtfcHl0aG9uJywgJy1waCcsICc3LjAnLCAnLXRuJywgJzgnLCAnLW1hJywgJzIwMCcsICctbWV0YWxfYmluZGluZycsICctaW1hZScsICc8aW5maWxlLm1hZT4nLCAnLW9tYWUnLCAnPG91dGZpbGUubWFlPic=

> <r_epik_Ionization_Penalty>
0.00317647

> <r_epik_Ionization_Penalty_Charging>
0

> <r_epik_Ionization_Penalty_Neutral>
0.00317647

> <r_epik_State_Penalty>
0.0022093

> <r_epik_Charging_Adjusted_Penalty>
0.0022093

> <i_epik_Tot_Q>
0

> <i_epik_Tot_abs_Q>
0

> <r_epik_Metal_State_Penalty>
-0

> <b_epik_Metal_Only>
0

> <s_lp_Force_Field>
OPLS_2005

> <r_lp_Energy>
18.7745

> <b_lp_Chiralities_Consistent>
1

> <s_lp_Variant>
AV-unprocessed.smi:2317-1

> <Gold.Version>
5.8.1

> <Gold.Id.Protein>
6NUR|6NUR_protein|mol2

> <Gold.PLP.Fitness>
44.8604

> <Gold.PLP.PLP>
-33.4578

> <Gold.PLP.part.hbond>
-2.7550

> <Gold.PLP.part.metal>
0.0000

> <Gold.PLP.part.buried>
-2.0422

> <Gold.PLP.part.nonpolar>
-32.1325

> <Gold.PLP.part.repulsive>
2.5564

> <Gold.PLP.ligand.clash>
0.0000

> <Gold.PLP.ligand.torsion>
0.3524

> <Gold.PLP.Chemscore.Hbond>
2.9920

> <Gold.PLP.Chemscore.CHOScore>
0.9995

> <Gold.PLP.Chemscore.Metal>
0.0000

> <Gold.Chemscore.Hbonds>
donor molecule, donor type, donor heavy atom, donor atom, acceptor molecule, acceptor atom, score
      L1  H     3    20       P1  7948  0.99
      L1  H    11    33       P1  7948  0.91
      L1  H    12    34       P1  7948  1.00
      L1  C    15    36       P1 10186  1.00

> <Gold.PLP.Chemscore.Internal.Correction>
0.1326

> <Gold.Rescore>
     Score         DG    S(hbond)    S(metal)    S(lipo)     H(rot)  DE(clash)    DE(int)     intcor
     15.53     -19.71       2.94        0.00      76.91       1.79       0.58       3.60       ----

> <Gold.Chemscore.Fitness>
15.5322

> <Gold.Chemscore.DG>
-19.7116

> <Gold.Chemscore.ZeroCoef>
-5.4800

> <Gold.Chemscore.Hbond>
2.9352

> <Gold.Chemscore.Metal>
0.0000

> <Gold.Chemscore.Lipo>
76.9105

> <Gold.Chemscore.Internal_Hbond>
0.0000

> <Gold.Chemscore.DEClash>
0.5828

> <Gold.Chemscore.DEInternal>
3.5967

> <Gold.Chemscore.Rot>
1.7853

> <Gold.Chemscore.Internal.Correction>
   9.000000E+99

> <Gold.Chemscore.Hbonds>
donor molecule, donor type, donor heavy atom, donor atom, acceptor molecule, acceptor atom, score
      L1  H     3    20       P1  7948  0.94
      L1  H    11    33       P1  7948  0.87
      L1  H    12    34       P1  7948  0.92

> <Gold.Chemscore.Hbond.Weighted>
-9.8035

> <Gold.Chemscore.Metal.Weighted>
-0.0000

> <Gold.Chemscore.Lipo.Weighted>
-8.9985

> <Gold.Chemscore.Internal_Hbond.Weighted>
0.0000

> <Gold.Chemscore.DEClash.Weighted>
0.5828

> <Gold.Chemscore.DEInternal.Weighted>
3.5967

> <Gold.Chemscore.Rot.Weighted>
4.5704

> <Gold.Chemscore.Internal.Correction.Weighted>
   9.000000E+99

> <Gold.Protein.RotatedTorsions>
[ 6907 6896 6895 6894 ] final   27.61 input  -60.11 | X-H torsion
[ 7974 7965 7964 7962 ] final  116.60 input  175.53 | X-H torsion
[ 8008 7997 7996 7995 ] final  -38.78 input   59.86 | X-H torsion
[ 10167 10162 10161 10158 ] final   -7.25 input  -65.29 | X-H torsion
[ 10718 10713 10712 10709 ] final -112.60 input   66.30 | X-H torsion
[ 10763 10752 10751 10750 ] final  179.07 input  -60.55 | X-H torsion
[ 11005 11000 10999 10996 ] final   55.44 input  -57.11 | X-H torsion

> <Gold.Protein.ActiveResidues>
 VAL166  LYS551  ARG553  GLY616  TRP617  ASP618  TYR619  PRO620  LYS621  CYS622 
 ASP623  PHE694  ASN695  SER759  ASP760  ASP761  ALA762  ILE779  LEU786  VAL792 
 PHE793  MET794  SER795  GLU796  ALA797  LYS798  CYS799  TRP800  GLU811  SER814 

> <Gold.Protein.RotatedAtoms>
  152.0047  134.9909  160.0566 H   0  0  0  0  0  0  0  0  0  0  0  0  # atno 6907 bound_to 6896
  152.1485  133.4503  159.4810 H   0  0  0  0  0  0  0  0  0  0  0  0  # atno 6908 bound_to 6896
  150.6873  134.2136  159.4412 H   0  0  0  0  0  0  0  0  0  0  0  0  # atno 6909 bound_to 6896
  145.1776  139.3067  143.4435 H   0  0  0  0  0  0  0  0  0  0  0  0  # atno 7974 bound_to 7965
  154.4032  140.1569  156.2755 H   0  0  0  0  0  0  0  0  0  0  0  0  # atno 8008 bound_to 7997
  155.8915  140.3438  155.5938 H   0  0  0  0  0  0  0  0  0  0  0  0  # atno 8009 bound_to 7997
  155.7552  140.0810  157.2172 H   0  0  0  0  0  0  0  0  0  0  0  0  # atno 8010 bound_to 7997
  140.7023  143.6102  150.8711 H   0  0  0  0  0  0  0  0  0  0  0  0  # atno 10167 bound_to 10162
  156.0715  130.5928  150.8530 H   0  0  0  0  0  0  0  0  0  0  0  0  # atno 10718 bound_to 10713
  154.5159  135.2791  155.1304 H   0  0  0  0  0  0  0  0  0  0  0  0  # atno 10763 bound_to 10752
  154.2881  135.6272  153.5377 H   0  0  0  0  0  0  0  0  0  0  0  0  # atno 10764 bound_to 10752
  152.9927  135.5667  154.5635 H   0  0  0  0  0  0  0  0  0  0  0  0  # atno 10765 bound_to 10752
  140.0607  134.5607  155.9156 H   0  0  0  0  0  0  0  0  0  0  0  0  # atno 11005 bound_to 11000
  146.3458  140.1944  142.8589 LP  0  0  0  0  0  0  0  0  0  0  0  0  # atno 17320 bound_to 7965
  145.0169  140.8761  143.5190 LP  0  0  0  0  0  0  0  0  0  0  0  0  # atno 17321 bound_to 7965
  139.9825  143.5935  152.2938 LP  0  0  0  0  0  0  0  0  0  0  0  0  # atno 17342 bound_to 10162
  139.6561  144.7662  151.2053 LP  0  0  0  0  0  0  0  0  0  0  0  0  # atno 17343 bound_to 10162
  157.5789  131.0946  150.9302 LP  0  0  0  0  0  0  0  0  0  0  0  0  # atno 17370 bound_to 10713
  156.9502  130.5417  149.5282 LP  0  0  0  0  0  0  0  0  0  0  0  0  # atno 17371 bound_to 10713
  141.1971  133.6595  156.5727 LP  0  0  0  0  0  0  0  0  0  0  0  0  # atno 17394 bound_to 11000
  140.3775  134.7552  157.4639 LP  0  0  0  0  0  0  0  0  0  0  0  0  # atno 17395 bound_to 11000

$$$$
