AV-unprocessed.smi:787|AV-procd|sdf|3730|dock3
  -GOLD-   22720 1163D 1   1.00000     0.00000
 Structure written by MMmdl.
 46 48  0  0  0  0  0  0  0  0  1 V2000
  147.1898  138.7690  153.1696 C   0  0  0  0  0  0  0  0  0  0  0  0
  148.5905  138.5268  153.4760 N   0  0  0  0  0  0  0  0  0  0  0  0
  149.3321  139.4574  154.2172 C   0  0  0  0  0  0  0  0  0  0  0  0
  148.9074  140.7391  154.3073 N   0  0  0  0  0  0  0  0  0  0  0  0
  149.6443  141.5943  155.0281 C   0  0  0  0  0  0  0  0  0  0  0  0
  150.7823  141.3696  155.7027 N   0  0  0  0  0  0  0  0  0  0  0  0
  151.2112  140.1027  155.6202 C   0  0  0  0  0  0  0  0  0  0  0  0
  152.3511  139.5917  156.2169 N   0  0  0  0  0  0  0  0  0  0  0  0
  152.3117  138.3196  155.8289 C   0  0  0  0  0  0  0  0  0  0  0  0
  151.2823  137.9384  155.0478 N   0  0  0  0  0  0  0  0  0  0  0  0
  151.0549  136.6034  154.5203 C   0  0  0  0  0  0  0  0  0  0  0  0
  150.0131  135.8111  155.3376 C   0  0  1  0  0  0  0  0  0  0  0  0
  148.7394  135.9241  154.7341 O   0  0  0  0  0  0  0  0  0  0  0  0
  150.3527  134.3096  155.4382 C   0  0  0  0  0  0  0  0  0  0  0  0
  149.2929  133.3885  155.0227 N   0  0  0  0  0  0  0  0  0  0  0  0
  149.3781  132.1504  155.7918 C   0  0  0  0  0  0  0  0  0  0  0  0
  149.3218  133.1165  153.5827 C   0  0  0  0  0  0  0  0  0  0  0  0
  148.0608  132.4480  153.0623 C   0  0  0  0  0  0  0  0  0  0  0  0
  147.2435  133.1139  152.1242 C   0  0  0  0  0  0  0  0  0  0  0  0
  146.0743  132.4958  151.6395 C   0  0  0  0  0  0  0  0  0  0  0  0
  145.7198  131.2092  152.0885 C   0  0  0  0  0  0  0  0  0  0  0  0
  146.5347  130.5404  153.0228 C   0  0  0  0  0  0  0  0  0  0  0  0
  147.7036  131.1582  153.5088 C   0  0  0  0  0  0  0  0  0  0  0  0
  150.5208  139.0943  154.8821 C   0  0  0  0  0  0  0  0  0  0  0  0
  146.7804  137.9270  152.6119 H   0  0  0  0  0  0  0  0  0  0  0  0
  147.0770  139.6680  152.5629 H   0  0  0  0  0  0  0  0  0  0  0  0
  146.6086  138.8874  154.0846 H   0  0  0  0  0  0  0  0  0  0  0  0
  149.0249  137.6733  153.1564 H   0  0  0  0  0  0  0  0  0  0  0  0
  149.2704  142.6065  155.0718 H   0  0  0  0  0  0  0  0  0  0  0  0
  153.0778  137.6205  156.1316 H   0  0  0  0  0  0  0  0  0  0  0  0
  150.7571  136.6751  153.4750 H   0  0  0  0  0  0  0  0  0  0  0  0
  152.0104  136.0770  154.5240 H   0  0  0  0  0  0  0  0  0  0  0  0
  149.9216  136.2486  156.3311 H   0  0  0  0  0  0  0  0  0  0  0  0
  148.8547  136.0449  153.8039 H   0  0  0  0  0  0  0  0  0  0  0  0
  151.2561  134.1037  154.8616 H   0  0  0  0  0  0  0  0  0  0  0  0
  150.6112  134.1010  156.4777 H   0  0  0  0  0  0  0  0  0  0  0  0
  148.5515  131.4796  155.5564 H   0  0  0  0  0  0  0  0  0  0  0  0
  149.3310  132.3545  156.8621 H   0  0  0  0  0  0  0  0  0  0  0  0
  150.3117  131.6239  155.5883 H   0  0  0  0  0  0  0  0  0  0  0  0
  149.4213  134.0441  153.0213 H   0  0  0  0  0  0  0  0  0  0  0  0
  150.1941  132.5110  153.3317 H   0  0  0  0  0  0  0  0  0  0  0  0
  147.5116  134.1009  151.7765 H   0  0  0  0  0  0  0  0  0  0  0  0
  145.4494  133.0086  150.9230 H   0  0  0  0  0  0  0  0  0  0  0  0
  144.8235  130.7352  151.7162 H   0  0  0  0  0  0  0  0  0  0  0  0
  146.2632  129.5533  153.3667 H   0  0  0  0  0  0  0  0  0  0  0  0
  148.3228  130.6397  154.2262 H   0  0  0  0  0  0  0  0  0  0  0  0
  1  2  1  0  0  0  0
  1 25  1  0  0  0  0
  1 26  1  0  0  0  0
  1 27  1  0  0  0  0
  2  3  1  0  0  0  0
  2 28  1  0  0  0  0
  3 24  1  0  0  0  0
  3  4  2  0  0  0  0
  4  5  1  0  0  0  0
  5  6  2  0  0  0  0
  5 29  1  0  0  0  0
  6  7  1  0  0  0  0
  7 24  2  0  0  0  0
  7  8  1  0  0  0  0
  8  9  2  0  0  0  0
  9 10  1  0  0  0  0
  9 30  1  0  0  0  0
 10 11  1  0  0  0  0
 10 24  1  0  0  0  0
 11 12  1  0  0  0  0
 11 31  1  0  0  0  0
 11 32  1  0  0  0  0
 12 13  1  0  0  0  0
 12 14  1  0  0  0  0
 12 33  1  0  0  0  0
 13 34  1  0  0  0  0
 14 15  1  0  0  0  0
 14 35  1  0  0  0  0
 14 36  1  0  0  0  0
 15 16  1  0  0  0  0
 15 17  1  0  0  0  0
 16 37  1  0  0  0  0
 16 38  1  0  0  0  0
 16 39  1  0  0  0  0
 17 18  1  0  0  0  0
 17 40  1  0  0  0  0
 17 41  1  0  0  0  0
 18 23  1  0  0  0  0
 18 19  2  0  0  0  0
 19 20  1  0  0  0  0
 19 42  1  0  0  0  0
 20 21  2  0  0  0  0
 20 43  1  0  0  0  0
 21 22  1  0  0  0  0
 21 44  1  0  0  0  0
 22 23  2  0  0  0  0
 22 45  1  0  0  0  0
 23 46  1  0  0  0  0
M  END
> <s_m_source_file>
AV-unprocessed.smi

> <i_m_source_file_index>
787

> <i_lp_mmshare_version>
43012

> <i_f3d_flags>
0

> <s_epik_input>
bjFbY0hdbmMoW05IXVtDSDNdKWMoYzEyKW4oW2NIXW4yKVtDSDJdW0NASF0oW09IXSlbQ0gyXU4oW0NIM10pW0NIMl1jM1tjSF1bY0hdW2NIXVtjSF1bY0hdMw==

> <s_epik_cmdline>
J2VwaWtfcHl0aG9uJywgJy1waCcsICc3LjAnLCAnLXRuJywgJzgnLCAnLW1hJywgJzIwMCcsICctbWV0YWxfYmluZGluZycsICctaW1hZScsICc8aW5maWxlLm1hZT4nLCAnLW9tYWUnLCAnPG91dGZpbGUubWFlPic=

> <r_lp_tautomer_probability>
0.999987

> <r_epik_Ionization_Penalty>
1.52367

> <r_epik_Ionization_Penalty_Charging>
0

> <r_epik_Ionization_Penalty_Neutral>
1.52367

> <r_epik_State_Penalty>
1.60995

> <r_epik_Charging_Adjusted_Penalty>
1.60995

> <i_epik_Tot_Q>
0

> <i_epik_Tot_abs_Q>
0

> <r_epik_Metal_State_Penalty>
1.60969

> <b_epik_Metal_Only>
0

> <s_lp_Force_Field>
OPLS_2005

> <r_lp_Energy>
19.785

> <b_lp_Chiralities_Consistent>
1

> <s_lp_Variant>
AV-unprocessed.smi:787-6

> <Gold.Version>
5.8.1

> <Gold.Id.Protein>
6NUR|6NUR_protein|mol2

> <Gold.PLP.Fitness>
51.9809

> <Gold.PLP.PLP>
-43.4269

> <Gold.PLP.part.hbond>
-4.7750

> <Gold.PLP.part.metal>
0.0000

> <Gold.PLP.part.buried>
0.1339

> <Gold.PLP.part.nonpolar>
-38.1725

> <Gold.PLP.part.repulsive>
0.3201

> <Gold.PLP.ligand.clash>
0.0000

> <Gold.PLP.ligand.torsion>
2.0409

> <Gold.PLP.Chemscore.Hbond>
2.9920

> <Gold.PLP.Chemscore.CHOScore>
1.0000

> <Gold.PLP.Chemscore.Metal>
0.0000

> <Gold.Chemscore.Hbonds>
donor molecule, donor type, donor heavy atom, donor atom, acceptor molecule, acceptor atom, score
      L1  H     2    28       P1  7948  0.93
      L1  H    13    34       P1  7948  1.00
      P1  H  7997  8008       L1     8  0.93
      L1  C     5    29       P1  8028  1.00

> <Gold.PLP.Chemscore.Internal.Correction>
0.6599

> <Gold.Rescore>
     Score         DG    S(hbond)    S(metal)    S(lipo)     H(rot)  DE(clash)    DE(int)     intcor
     11.74     -16.46       2.92        0.00      78.56       3.11       1.01       3.70       ----

> <Gold.Chemscore.Fitness>
11.7403

> <Gold.Chemscore.DG>
-16.4560

> <Gold.Chemscore.ZeroCoef>
-5.4800

> <Gold.Chemscore.Hbond>
2.9161

> <Gold.Chemscore.Metal>
0.0000

> <Gold.Chemscore.Lipo>
78.5577

> <Gold.Chemscore.Internal_Hbond>
0.0000

> <Gold.Chemscore.DEClash>
1.0116

> <Gold.Chemscore.DEInternal>
3.7041

> <Gold.Chemscore.Rot>
3.1075

> <Gold.Chemscore.Internal.Correction>
   9.000000E+99

> <Gold.Chemscore.Hbonds>
donor molecule, donor type, donor heavy atom, donor atom, acceptor molecule, acceptor atom, score
      L1  H     2    28       P1  7948  0.89
      L1  H    13    34       P1  7948  0.99
      P1  H  7997  8008       L1     8  0.53

> <Gold.Chemscore.Hbond.Weighted>
-9.7398

> <Gold.Chemscore.Metal.Weighted>
-0.0000

> <Gold.Chemscore.Lipo.Weighted>
-9.1913

> <Gold.Chemscore.Internal_Hbond.Weighted>
0.0000

> <Gold.Chemscore.DEClash.Weighted>
1.0116

> <Gold.Chemscore.DEInternal.Weighted>
3.7041

> <Gold.Chemscore.Rot.Weighted>
7.9551

> <Gold.Chemscore.Internal.Correction.Weighted>
   9.000000E+99

> <Gold.Protein.RotatedTorsions>
[ 6907 6896 6895 6894 ] final -104.96 input  -60.11 | X-H torsion
[ 7974 7965 7964 7962 ] final  -37.30 input  175.53 | X-H torsion
[ 8008 7997 7996 7995 ] final  -47.38 input   59.86 | X-H torsion
[ 10167 10162 10161 10158 ] final   40.84 input  -65.29 | X-H torsion
[ 10718 10713 10712 10709 ] final  -93.79 input   66.30 | X-H torsion
[ 10763 10752 10751 10750 ] final -175.43 input  -60.55 | X-H torsion
[ 11005 11000 10999 10996 ] final -146.75 input  -57.11 | X-H torsion

> <Gold.Protein.ActiveResidues>
 VAL166  LYS551  ARG553  GLY616  TRP617  ASP618  TYR619  PRO620  LYS621  CYS622 
 ASP623  PHE694  ASN695  SER759  ASP760  ASP761  ALA762  ILE779  LEU786  VAL792 
 PHE793  MET794  SER795  GLU796  ALA797  LYS798  CYS799  TRP800  GLU811  SER814 

> <Gold.Protein.RotatedAtoms>
  150.7313  134.0199  159.3697 H   0  0  0  0  0  0  0  0  0  0  0  0  # atno 6907 bound_to 6896
  151.8163  135.0663  160.0429 H   0  0  0  0  0  0  0  0  0  0  0  0  # atno 6908 bound_to 6896
  152.3036  133.5644  159.5671 H   0  0  0  0  0  0  0  0  0  0  0  0  # atno 6909 bound_to 6896
  146.0586  140.6380  142.9008 H   0  0  0  0  0  0  0  0  0  0  0  0  # atno 7974 bound_to 7965
  154.4016  140.1348  156.4166 H   0  0  0  0  0  0  0  0  0  0  0  0  # atno 8008 bound_to 7997
  155.7683  140.3484  155.5213 H   0  0  0  0  0  0  0  0  0  0  0  0  # atno 8009 bound_to 7997
  155.8792  140.0984  157.1487 H   0  0  0  0  0  0  0  0  0  0  0  0  # atno 8010 bound_to 7997
  140.3702  144.2115  150.6133 H   0  0  0  0  0  0  0  0  0  0  0  0  # atno 10167 bound_to 10162
  156.0018  130.5041  150.5829 H   0  0  0  0  0  0  0  0  0  0  0  0  # atno 10718 bound_to 10713
  154.5845  135.2839  155.0699 H   0  0  0  0  0  0  0  0  0  0  0  0  # atno 10763 bound_to 10752
  154.2023  135.6422  153.5094 H   0  0  0  0  0  0  0  0  0  0  0  0  # atno 10764 bound_to 10752
  153.0099  135.5472  154.6510 H   0  0  0  0  0  0  0  0  0  0  0  0  # atno 10765 bound_to 10752
  140.7787  134.3104  157.5052 H   0  0  0  0  0  0  0  0  0  0  0  0  # atno 11005 bound_to 11000
  144.7162  140.4217  143.7042 LP  0  0  0  0  0  0  0  0  0  0  0  0  # atno 17320 bound_to 7965
  145.6599  139.1579  143.2814 LP  0  0  0  0  0  0  0  0  0  0  0  0  # atno 17321 bound_to 7965
  140.5041  143.2309  151.8635 LP  0  0  0  0  0  0  0  0  0  0  0  0  # atno 17342 bound_to 10162
  139.4804  144.5026  151.9040 LP  0  0  0  0  0  0  0  0  0  0  0  0  # atno 17343 bound_to 10162
  157.3706  131.0765  151.1560 LP  0  0  0  0  0  0  0  0  0  0  0  0  # atno 17370 bound_to 10713
  157.2315  130.6527  149.5852 LP  0  0  0  0  0  0  0  0  0  0  0  0  # atno 17371 bound_to 10713
  139.8745  134.9305  156.3505 LP  0  0  0  0  0  0  0  0  0  0  0  0  # atno 17394 bound_to 11000
  140.9503  133.7455  156.0263 LP  0  0  0  0  0  0  0  0  0  0  0  0  # atno 17395 bound_to 11000

$$$$
