AV-unprocessed.smi:2473|AV-procd|sdf|9743|dock8
  -GOLD-   2272013383D 1   1.00000     0.00000
 Structure written by MMmdl.
 48 49  0  0  0  0  0  0  0  0  2 V2000
  146.0951  143.2191  154.2211 C   0  0  0  0  0  0  0  0  0  0  0  0
  146.8860  142.0104  154.7422 C   0  0  2  0  0  0  0  0  0  0  0  0
  147.5577  141.2454  153.5831 C   0  0  0  0  0  0  0  0  0  0  0  0
  148.3480  140.0010  154.0488 C   0  0  1  0  0  0  0  0  0  0  0  0
  149.7252  140.3204  154.6625 C   0  0  0  0  0  0  0  0  0  0  0  0
  150.7117  139.6274  154.4123 O   0  0  0  0  0  0  0  0  0  0  0  0
  149.7744  141.3729  155.4925 N   0  0  0  0  0  0  0  0  0  0  0  0
  150.9874  141.8586  156.1341 C   0  0  0  0  0  0  0  0  0  0  0  0
  150.8462  141.8089  157.6607 C   0  0  0  0  0  0  0  0  0  0  0  0
  151.2433  143.0931  158.3195 C   0  0  0  0  0  0  0  0  0  0  0  0
  150.7004  144.2921  158.0768 N   0  3  0  0  0  0  0  0  0  0  0  0
  151.2850  145.2481  158.8624 C   0  0  0  0  0  0  0  0  0  0  0  0
  152.2234  144.6025  159.6243 C   0  0  0  0  0  0  0  0  0  0  0  0
  152.1736  143.2782  159.2711 N   0  0  0  0  0  0  0  0  0  0  0  0
  152.9930  142.1965  159.8225 C   0  0  0  0  0  0  0  0  0  0  0  0
  147.4619  139.0986  154.9462 C   0  0  0  0  0  0  0  0  0  0  0  0
  146.7158  139.8141  156.1060 C   0  0  0  0  0  0  0  0  0  0  0  0
  145.6657  138.8394  156.6770 C   0  0  0  0  0  0  0  0  0  0  0  0
  147.6634  140.1898  157.2674 C   0  0  0  0  0  0  0  0  0  0  0  0
  145.9831  141.0642  155.5597 C   0  0  0  0  0  0  0  0  0  0  0  0
  145.2916  142.9105  153.5519 H   0  0  0  0  0  0  0  0  0  0  0  0
  146.7421  143.9035  153.6716 H   0  0  0  0  0  0  0  0  0  0  0  0
  145.6476  143.7794  155.0426 H   0  0  0  0  0  0  0  0  0  0  0  0
  147.6591  142.4055  155.3997 H   0  0  0  0  0  0  0  0  0  0  0  0
  146.7903  140.9248  152.8774 H   0  0  0  0  0  0  0  0  0  0  0  0
  148.2081  141.9169  153.0203 H   0  0  0  0  0  0  0  0  0  0  0  0
  148.5799  139.4274  153.1501 H   0  0  0  0  0  0  0  0  0  0  0  0
  148.9212  141.8850  155.6641 H   0  0  0  0  0  0  0  0  0  0  0  0
  151.8334  141.2504  155.8107 H   0  0  0  0  0  0  0  0  0  0  0  0
  151.1847  142.8825  155.8127 H   0  0  0  0  0  0  0  0  0  0  0  0
  149.8192  141.5915  157.9558 H   0  0  0  0  0  0  0  0  0  0  0  0
  151.4760  141.0248  158.0830 H   0  0  0  0  0  0  0  0  0  0  0  0
  150.9954  146.2883  158.8229 H   0  0  0  0  0  0  0  0  0  0  0  0
  152.9046  144.9785  160.3740 H   0  0  0  0  0  0  0  0  0  0  0  0
  153.6653  142.5978  160.5811 H   0  0  0  0  0  0  0  0  0  0  0  0
  153.5817  141.7445  159.0239 H   0  0  0  0  0  0  0  0  0  0  0  0
  152.3467  141.4457  160.2770 H   0  0  0  0  0  0  0  0  0  0  0  0
  146.7190  138.6380  154.2929 H   0  0  0  0  0  0  0  0  0  0  0  0
  148.0402  138.2619  155.3405 H   0  0  0  0  0  0  0  0  0  0  0  0
  145.0981  139.2954  157.4892 H   0  0  0  0  0  0  0  0  0  0  0  0
  146.1345  137.9368  157.0711 H   0  0  0  0  0  0  0  0  0  0  0  0
  144.9489  138.5286  155.9161 H   0  0  0  0  0  0  0  0  0  0  0  0
  147.1054  140.5879  158.1155 H   0  0  0  0  0  0  0  0  0  0  0  0
  148.3920  140.9492  156.9935 H   0  0  0  0  0  0  0  0  0  0  0  0
  148.2177  139.3203  157.6225 H   0  0  0  0  0  0  0  0  0  0  0  0
  145.5271  141.6135  156.3847 H   0  0  0  0  0  0  0  0  0  0  0  0
  145.1562  140.7448  154.9234 H   0  0  0  0  0  0  0  0  0  0  0  0
  149.9615  144.4648  157.4067 H   0  0  0  0  0  0  0  0  0  0  0  0
  1  2  1  0  0  0  0
  1 21  1  0  0  0  0
  1 22  1  0  0  0  0
  1 23  1  0  0  0  0
  2 20  1  0  0  0  0
  2  3  1  0  0  0  0
  2 24  1  0  0  0  0
  3  4  1  0  0  0  0
  3 25  1  0  0  0  0
  3 26  1  0  0  0  0
  4  5  1  0  0  0  0
  4 16  1  0  0  0  0
  4 27  1  0  0  0  0
  5  6  2  0  0  0  0
  5  7  1  0  0  0  0
  7  8  1  0  0  0  0
  7 28  1  0  0  0  0
  8  9  1  0  0  0  0
  8 29  1  0  0  0  0
  8 30  1  0  0  0  0
  9 10  1  0  0  0  0
  9 31  1  0  0  0  0
  9 32  1  0  0  0  0
 10 14  1  0  0  0  0
 10 11  2  0  0  0  0
 11 12  1  0  0  0  0
 11 48  1  0  0  0  0
 12 13  2  0  0  0  0
 12 33  1  0  0  0  0
 13 14  1  0  0  0  0
 13 34  1  0  0  0  0
 14 15  1  0  0  0  0
 15 35  1  0  0  0  0
 15 36  1  0  0  0  0
 15 37  1  0  0  0  0
 16 17  1  0  0  0  0
 16 38  1  0  0  0  0
 16 39  1  0  0  0  0
 17 18  1  0  0  0  0
 17 19  1  0  0  0  0
 17 20  1  0  0  0  0
 18 40  1  0  0  0  0
 18 41  1  0  0  0  0
 18 42  1  0  0  0  0
 19 43  1  0  0  0  0
 19 44  1  0  0  0  0
 19 45  1  0  0  0  0
 20 46  1  0  0  0  0
 20 47  1  0  0  0  0
M  CHG  1  11   1
M  END
> <s_m_source_file>
AV-unprocessed.smi

> <i_m_source_file_index>
2473

> <i_lp_mmshare_version>
43012

> <i_f3d_flags>
0

> <s_epik_input>
W0NIM11bQ0BASF0oW0NIMl0xKVtDSDJdW0NASF0oW0NIMl1DMShbQ0gzXSlbQ0gzXSlDKD1PKVtOSF1bQ0gyXVtDSDJdYzJuW2NIXVtjSF1uMltDSDNd

> <s_epik_cmdline>
J2VwaWtfcHl0aG9uJywgJy1waCcsICc3LjAnLCAnLXRuJywgJzgnLCAnLW1hJywgJzIwMCcsICctbWV0YWxfYmluZGluZycsICctaW1hZScsICc8aW5maWxlLm1hZT4nLCAnLW9tYWUnLCAnPG91dGZpbGUubWFlPic=

> <r_lp_tautomer_probability>
1

> <r_epik_Ionization_Penalty>
0.0796112

> <r_epik_Ionization_Penalty_Charging>
0

> <r_epik_Ionization_Penalty_Neutral>
0.0796112

> <r_epik_State_Penalty>
0.0704541

> <r_epik_Charging_Adjusted_Penalty>
0.0704541

> <i_epik_Tot_Q>
1

> <i_epik_Tot_abs_Q>
1

> <r_epik_Metal_State_Penalty>
0.409899

> <b_epik_Metal_Only>
0

> <s_lp_Force_Field>
OPLS_2005

> <r_lp_Energy>
17.1237

> <b_lp_Chiralities_Consistent>
1

> <s_lp_Variant>
AV-unprocessed.smi:2473-1

> <Gold.Version>
5.8.1

> <Gold.Id.Protein>
6NUR|6NUR_protein|mol2

> <Gold.PLP.Fitness>
48.5712

> <Gold.PLP.PLP>
-41.7413

> <Gold.PLP.part.hbond>
-2.1489

> <Gold.PLP.part.metal>
0.0000

> <Gold.PLP.part.buried>
-5.6512

> <Gold.PLP.part.nonpolar>
-32.7127

> <Gold.PLP.part.repulsive>
0.3316

> <Gold.PLP.ligand.clash>
0.0000

> <Gold.PLP.ligand.torsion>
0.9703

> <Gold.PLP.Chemscore.Hbond>
2.9000

> <Gold.PLP.Chemscore.CHOScore>
0.0000

> <Gold.PLP.Chemscore.Metal>
0.0000

> <Gold.Chemscore.Hbonds>
donor molecule, donor type, donor heavy atom, donor atom, acceptor molecule, acceptor atom, score
      L1  H    11    48       P1  8028  1.98
      P1  H  7989  7998       L1     6  0.85

> <Gold.PLP.Chemscore.Internal.Correction>
0.0704

> <Gold.Rescore>
     Score         DG    S(hbond)    S(metal)    S(lipo)     H(rot)  DE(clash)    DE(int)     intcor
     10.99     -13.92       0.87        0.00      81.96       1.58       0.05       2.88       ----

> <Gold.Chemscore.Fitness>
10.9876

> <Gold.Chemscore.DG>
-13.9170

> <Gold.Chemscore.ZeroCoef>
-5.4800

> <Gold.Chemscore.Hbond>
0.8674

> <Gold.Chemscore.Metal>
0.0000

> <Gold.Chemscore.Lipo>
81.9591

> <Gold.Chemscore.Internal_Hbond>
0.0000

> <Gold.Chemscore.DEClash>
0.0477

> <Gold.Chemscore.DEInternal>
2.8817

> <Gold.Chemscore.Rot>
1.5818

> <Gold.Chemscore.Internal.Correction>
   9.000000E+99

> <Gold.Chemscore.Hbonds>
donor molecule, donor type, donor heavy atom, donor atom, acceptor molecule, acceptor atom, score
      L1  H    11    48       P1  8028  0.24
      P1  H  7989  7998       L1     6  0.15

> <Gold.Chemscore.Hbond.Weighted>
-2.8973

> <Gold.Chemscore.Metal.Weighted>
-0.0000

> <Gold.Chemscore.Lipo.Weighted>
-9.5892

> <Gold.Chemscore.Internal_Hbond.Weighted>
0.0000

> <Gold.Chemscore.DEClash.Weighted>
0.0477

> <Gold.Chemscore.DEInternal.Weighted>
2.8817

> <Gold.Chemscore.Rot.Weighted>
4.0495

> <Gold.Chemscore.Internal.Correction.Weighted>
   9.000000E+99

> <Gold.Protein.RotatedTorsions>
[ 6907 6896 6895 6894 ] final -154.99 input  -60.11 | X-H torsion
[ 7974 7965 7964 7962 ] final -177.11 input  175.53 | X-H torsion
[ 8008 7997 7996 7995 ] final  -60.12 input   59.86 | X-H torsion
[ 10167 10162 10161 10158 ] final -127.40 input  -65.29 | X-H torsion
[ 10718 10713 10712 10709 ] final -166.03 input   66.30 | X-H torsion
[ 10763 10752 10751 10750 ] final   64.90 input  -60.55 | X-H torsion
[ 11005 11000 10999 10996 ] final  -46.24 input  -57.11 | X-H torsion

> <Gold.Protein.ActiveResidues>
 VAL166  LYS551  ARG553  GLY616  TRP617  ASP618  TYR619  PRO620  LYS621  CYS622 
 ASP623  PHE694  ASN695  SER759  ASP760  ASP761  ALA762  ILE779  LEU786  VAL792 
 PHE793  MET794  SER795  GLU796  ALA797  LYS798  CYS799  TRP800  GLU811  SER814 

> <Gold.Protein.RotatedAtoms>
  151.2657  133.4280  159.2618 H   0  0  0  0  0  0  0  0  0  0  0  0  # atno 6907 bound_to 6896
  151.0490  134.9660  159.8212 H   0  0  0  0  0  0  0  0  0  0  0  0  # atno 6908 bound_to 6896
  152.5379  134.2612  159.8988 H   0  0  0  0  0  0  0  0  0  0  0  0  # atno 6909 bound_to 6896
  144.7127  140.1068  143.6413 H   0  0  0  0  0  0  0  0  0  0  0  0  # atno 7974 bound_to 7965
  154.4384  140.1046  156.6224 H   0  0  0  0  0  0  0  0  0  0  0  0  # atno 8008 bound_to 7997
  155.5693  140.3489  155.4492 H   0  0  0  0  0  0  0  0  0  0  0  0  # atno 8009 bound_to 7997
  156.0401  140.1280  157.0154 H   0  0  0  0  0  0  0  0  0  0  0  0  # atno 8010 bound_to 7997
  139.9613  143.5947  152.2444 H   0  0  0  0  0  0  0  0  0  0  0  0  # atno 10167 bound_to 10162
  156.6619  130.9049  151.3030 H   0  0  0  0  0  0  0  0  0  0  0  0  # atno 10718 bound_to 10713
  153.0074  135.5376  154.6583 H   0  0  0  0  0  0  0  0  0  0  0  0  # atno 10763 bound_to 10752
  154.5798  135.2849  155.0746 H   0  0  0  0  0  0  0  0  0  0  0  0  # atno 10764 bound_to 10752
  154.1880  135.6505  153.5104 H   0  0  0  0  0  0  0  0  0  0  0  0  # atno 10765 bound_to 10752
  141.0567  133.6723  156.3127 H   0  0  0  0  0  0  0  0  0  0  0  0  # atno 11005 bound_to 11000
  145.9489  139.2720  143.1224 LP  0  0  0  0  0  0  0  0  0  0  0  0  # atno 17320 bound_to 7965
  145.9344  140.9025  143.0340 LP  0  0  0  0  0  0  0  0  0  0  0  0  # atno 17321 bound_to 7965
  139.6552  144.7662  151.2070 LP  0  0  0  0  0  0  0  0  0  0  0  0  # atno 17342 bound_to 10162
  140.7552  143.6097  150.8617 LP  0  0  0  0  0  0  0  0  0  0  0  0  # atno 17343 bound_to 10162
  157.7106  130.9436  150.1078 LP  0  0  0  0  0  0  0  0  0  0  0  0  # atno 17370 bound_to 10713
  156.2004  130.3660  149.8795 LP  0  0  0  0  0  0  0  0  0  0  0  0  # atno 17371 bound_to 10713
  140.5950  134.5612  157.5507 LP  0  0  0  0  0  0  0  0  0  0  0  0  # atno 17394 bound_to 11000
  139.9396  134.7811  156.0713 LP  0  0  0  0  0  0  0  0  0  0  0  0  # atno 17395 bound_to 11000

$$$$
