AV-unprocessed.smi:1048|AV-procd|sdf|4604|dock9
  -GOLD-   22720 3103D 1   1.00000     0.00000
 Structure written by MMmdl.
 46 47  0  0  0  0  0  0  0  0  2 V2000
  151.1854  141.3352  158.4220 C   0  0  0  0  0  0  0  0  0  0  0  0
  150.1695  141.0128  157.3172 C   0  0  2  0  0  0  0  0  0  0  0  0
  150.6685  141.4642  155.9340 C   0  0  0  0  0  0  0  0  0  0  0  0
  149.6298  141.1650  154.8399 C   0  0  0  0  0  0  0  0  0  0  0  0
  148.3221  141.7993  155.1540 N   0  3  1  0  0  0  0  0  0  0  0  0
  147.3216  141.6520  154.0656 C   0  0  0  0  0  0  0  0  0  0  0  0
  147.5066  140.3438  153.2697 C   0  0  2  0  0  0  0  0  0  0  0  0
  146.6845  140.4419  152.1232 O   0  0  0  0  0  0  0  0  0  0  0  0
  147.0600  139.1148  154.0881 C   0  0  0  0  0  0  0  0  0  0  0  0
  147.0730  137.8922  153.2914 N   0  0  0  0  0  0  0  0  0  0  0  0
  146.0002  137.1331  153.0284 C   0  0  0  0  0  0  0  0  0  0  0  0
  144.8660  137.4059  153.4199 O   0  0  0  0  0  0  0  0  0  0  0  0
  146.3278  136.0715  152.2726 N   0  0  0  0  0  0  0  0  0  0  0  0
  145.4876  135.0199  151.8164 C   0  0  0  0  0  0  0  0  0  0  0  0
  146.0728  133.9884  151.0535 C   0  0  0  0  0  0  0  0  0  0  0  0
  145.2678  132.9231  150.6074 C   0  0  0  0  0  0  0  0  0  0  0  0
  143.9024  132.9259  150.9521 C   0  0  0  0  0  0  0  0  0  0  0  0
  143.3286  133.8967  151.6936 N   0  0  0  0  0  0  0  0  0  0  0  0
  144.1062  134.9170  152.1161 C   0  0  0  0  0  0  0  0  0  0  0  0
  147.8000  141.3495  156.4696 C   0  0  0  0  0  0  0  0  0  0  0  0
  148.8007  141.6558  157.5965 C   0  0  0  0  0  0  0  0  0  0  0  0
  151.3620  142.4085  158.4996 H   0  0  0  0  0  0  0  0  0  0  0  0
  152.1439  140.8536  158.2261 H   0  0  0  0  0  0  0  0  0  0  0  0
  150.8335  140.9852  159.3929 H   0  0  0  0  0  0  0  0  0  0  0  0
  150.0378  139.9299  157.2945 H   0  0  0  0  0  0  0  0  0  0  0  0
  150.8846  142.5335  155.9479 H   0  0  0  0  0  0  0  0  0  0  0  0
  151.6071  140.9629  155.6945 H   0  0  0  0  0  0  0  0  0  0  0  0
  150.0074  141.5278  153.8845 H   0  0  0  0  0  0  0  0  0  0  0  0
  149.4969  140.0869  154.7364 H   0  0  0  0  0  0  0  0  0  0  0  0
  146.3188  141.7075  154.4917 H   0  0  0  0  0  0  0  0  0  0  0  0
  147.3996  142.4909  153.3716 H   0  0  0  0  0  0  0  0  0  0  0  0
  148.5462  140.2243  152.9641 H   0  0  0  0  0  0  0  0  0  0  0  0
  145.7861  140.2986  152.3842 H   0  0  0  0  0  0  0  0  0  0  0  0
  147.7656  138.9454  154.9020 H   0  0  0  0  0  0  0  0  0  0  0  0
  146.0893  139.2753  154.5617 H   0  0  0  0  0  0  0  0  0  0  0  0
  147.9664  137.5949  152.9267 H   0  0  0  0  0  0  0  0  0  0  0  0
  147.2842  136.0307  151.9520 H   0  0  0  0  0  0  0  0  0  0  0  0
  147.1244  134.0121  150.8078 H   0  0  0  0  0  0  0  0  0  0  0  0
  145.6870  132.1222  150.0166 H   0  0  0  0  0  0  0  0  0  0  0  0
  143.2557  132.1236  150.6292 H   0  0  0  0  0  0  0  0  0  0  0  0
  143.5974  135.6465  152.7264 H   0  0  0  0  0  0  0  0  0  0  0  0
  146.8576  141.8549  156.6846 H   0  0  0  0  0  0  0  0  0  0  0  0
  147.5866  140.2801  156.4323 H   0  0  0  0  0  0  0  0  0  0  0  0
  148.4047  141.2947  158.5462 H   0  0  0  0  0  0  0  0  0  0  0  0
  148.9122  142.7364  157.6999 H   0  0  0  0  0  0  0  0  0  0  0  0
  148.4877  142.7919  155.2460 H   0  0  0  0  0  0  0  0  0  0  0  0
  1  2  1  0  0  0  0
  1 22  1  0  0  0  0
  1 23  1  0  0  0  0
  1 24  1  0  0  0  0
  2 21  1  0  0  0  0
  2  3  1  0  0  0  0
  2 25  1  0  0  0  0
  3  4  1  0  0  0  0
  3 26  1  0  0  0  0
  3 27  1  0  0  0  0
  4  5  1  0  0  0  0
  4 28  1  0  0  0  0
  4 29  1  0  0  0  0
  5  6  1  0  0  0  0
  5 20  1  0  0  0  0
  5 46  1  0  0  0  0
  6  7  1  0  0  0  0
  6 30  1  0  0  0  0
  6 31  1  0  0  0  0
  7  8  1  0  0  0  0
  7  9  1  0  0  0  0
  7 32  1  0  0  0  0
  8 33  1  0  0  0  0
  9 10  1  0  0  0  0
  9 34  1  0  0  0  0
  9 35  1  0  0  0  0
 10 11  1  0  0  0  0
 10 36  1  0  0  0  0
 11 12  2  0  0  0  0
 11 13  1  0  0  0  0
 13 14  1  0  0  0  0
 13 37  1  0  0  0  0
 14 19  1  0  0  0  0
 14 15  2  0  0  0  0
 15 16  1  0  0  0  0
 15 38  1  0  0  0  0
 16 17  2  0  0  0  0
 16 39  1  0  0  0  0
 17 18  1  0  0  0  0
 17 40  1  0  0  0  0
 18 19  2  0  0  0  0
 19 41  1  0  0  0  0
 20 21  1  0  0  0  0
 20 42  1  0  0  0  0
 20 43  1  0  0  0  0
 21 44  1  0  0  0  0
 21 45  1  0  0  0  0
M  CHG  1   5   1
M  END
> <s_m_source_file>
AV-unprocessed.smi

> <i_m_source_file_index>
1048

> <i_lp_mmshare_version>
43012

> <i_f3d_flags>
0

> <s_epik_input>
W0NIM11bQ0hdMVtDSDJdW0NIMl1OKFtDSDJdW0NIMl0xKVtDSDJdW0NASF0oW09IXSlbQ0gyXVtOSF1DKD1PKVtOSF1jMltjSF1bY0hdW2NIXW5bY0hdMg==

> <s_epik_cmdline>
J2VwaWtfcHl0aG9uJywgJy1waCcsICc3LjAnLCAnLXRuJywgJzgnLCAnLW1hJywgJzIwMCcsICctbWV0YWxfYmluZGluZycsICctaW1hZScsICc8aW5maWxlLm1hZT4nLCAnLW9tYWUnLCAnPG91dGZpbGUubWFlPic=

> <r_lp_tautomer_probability>
1

> <r_epik_Ionization_Penalty>
0.00581049

> <r_epik_Ionization_Penalty_Charging>
0.00147689

> <r_epik_Ionization_Penalty_Neutral>
0.0043336

> <r_epik_State_Penalty>
-0

> <r_epik_Charging_Adjusted_Penalty>
0.00147689

> <i_epik_Tot_Q>
1

> <i_epik_Tot_abs_Q>
1

> <r_epik_Metal_State_Penalty>
-0

> <b_epik_Metal_Only>
0

> <s_lp_Force_Field>
OPLS_2005

> <r_lp_Energy>
22.5683

> <b_lp_Chiralities_Consistent>
1

> <s_lp_Variant>
AV-unprocessed.smi:1048-1

> <Gold.Version>
5.8.1

> <Gold.Id.Protein>
6NUR|6NUR_protein|mol2

> <Gold.PLP.Fitness>
48.3386

> <Gold.PLP.PLP>
-34.3917

> <Gold.PLP.part.hbond>
-4.5559

> <Gold.PLP.part.metal>
0.0000

> <Gold.PLP.part.buried>
-5.4237

> <Gold.PLP.part.nonpolar>
-25.9345

> <Gold.PLP.part.repulsive>
0.5551

> <Gold.PLP.ligand.clash>
0.0000

> <Gold.PLP.ligand.torsion>
0.5169

> <Gold.PLP.Chemscore.Hbond>
4.9760

> <Gold.PLP.Chemscore.CHOScore>
0.0000

> <Gold.PLP.Chemscore.Metal>
0.0000

> <Gold.Chemscore.Hbonds>
donor molecule, donor type, donor heavy atom, donor atom, acceptor molecule, acceptor atom, score
      L1  H     5    46       P1  8028  2.00
      L1  H     8    33       P1 10175  0.83
      L1  H    10    36       P1  7948  0.94
      L1  H    13    37       P1  7948  1.00

> <Gold.PLP.Chemscore.Internal.Correction>
0.0528

> <Gold.Rescore>
     Score         DG    S(hbond)    S(metal)    S(lipo)     H(rot)  DE(clash)    DE(int)     intcor
     19.01     -20.97       3.58        0.00      80.34       2.29       0.16       1.80       ----

> <Gold.Chemscore.Fitness>
19.0093

> <Gold.Chemscore.DG>
-20.9682

> <Gold.Chemscore.ZeroCoef>
-5.4800

> <Gold.Chemscore.Hbond>
3.5756

> <Gold.Chemscore.Metal>
0.0000

> <Gold.Chemscore.Lipo>
80.3362

> <Gold.Chemscore.Internal_Hbond>
0.0000

> <Gold.Chemscore.DEClash>
0.1572

> <Gold.Chemscore.DEInternal>
1.8017

> <Gold.Chemscore.Rot>
2.2865

> <Gold.Chemscore.Internal.Correction>
   9.000000E+99

> <Gold.Chemscore.Hbonds>
donor molecule, donor type, donor heavy atom, donor atom, acceptor molecule, acceptor atom, score
      L1  H     5    46       P1  8028  0.97
      L1  H     8    33       P1 10175  0.48
      L1  H    10    36       P1  7948  0.89
      L1  H    13    37       P1  7948  1.00

> <Gold.Chemscore.Hbond.Weighted>
-11.9425

> <Gold.Chemscore.Metal.Weighted>
-0.0000

> <Gold.Chemscore.Lipo.Weighted>
-9.3993

> <Gold.Chemscore.Internal_Hbond.Weighted>
0.0000

> <Gold.Chemscore.DEClash.Weighted>
0.1572

> <Gold.Chemscore.DEInternal.Weighted>
1.8017

> <Gold.Chemscore.Rot.Weighted>
5.8536

> <Gold.Chemscore.Internal.Correction.Weighted>
   9.000000E+99

> <Gold.Protein.RotatedTorsions>
[ 6907 6896 6895 6894 ] final   22.20 input  -60.11 | X-H torsion
[ 7974 7965 7964 7962 ] final  -20.33 input  175.53 | X-H torsion
[ 8008 7997 7996 7995 ] final   66.04 input   59.86 | X-H torsion
[ 10167 10162 10161 10158 ] final  -73.96 input  -65.29 | X-H torsion
[ 10718 10713 10712 10709 ] final  174.50 input   66.30 | X-H torsion
[ 10763 10752 10751 10750 ] final   14.63 input  -60.55 | X-H torsion
[ 11005 11000 10999 10996 ] final   76.66 input  -57.11 | X-H torsion

> <Gold.Protein.ActiveResidues>
 VAL166  LYS551  ARG553  GLY616  TRP617  ASP618  TYR619  PRO620  LYS621  CYS622 
 ASP623  PHE694  ASN695  SER759  ASP760  ASP761  ALA762  ILE779  LEU786  VAL792 
 PHE793  MET794  SER795  GLU796  ALA797  LYS798  CYS799  TRP800  GLU811  SER814 

> <Gold.Protein.RotatedAtoms>
  151.9235  135.0288  160.0523 H   0  0  0  0  0  0  0  0  0  0  0  0  # atno 6907 bound_to 6896
  152.2179  133.4956  159.5154 H   0  0  0  0  0  0  0  0  0  0  0  0  # atno 6908 bound_to 6896
  150.6992  134.1298  159.4108 H   0  0  0  0  0  0  0  0  0  0  0  0  # atno 6909 bound_to 6896
  146.1794  140.4186  142.8500 H   0  0  0  0  0  0  0  0  0  0  0  0  # atno 7974 bound_to 7965
  155.6711  140.3497  155.4819 H   0  0  0  0  0  0  0  0  0  0  0  0  # atno 8008 bound_to 7997
  155.9687  140.1151  157.0854 H   0  0  0  0  0  0  0  0  0  0  0  0  # atno 8009 bound_to 7997
  154.4161  140.1161  156.5263 H   0  0  0  0  0  0  0  0  0  0  0  0  # atno 8010 bound_to 7997
  140.5067  143.2351  151.7662 H   0  0  0  0  0  0  0  0  0  0  0  0  # atno 10167 bound_to 10162
  156.9487  131.0024  151.2953 H   0  0  0  0  0  0  0  0  0  0  0  0  # atno 10718 bound_to 10713
  153.1603  135.6794  153.8752 H   0  0  0  0  0  0  0  0  0  0  0  0  # atno 10763 bound_to 10752
  153.8150  135.3138  155.3406 H   0  0  0  0  0  0  0  0  0  0  0  0  # atno 10764 bound_to 10752
  154.7927  135.4825  154.0179 H   0  0  0  0  0  0  0  0  0  0  0  0  # atno 10765 bound_to 10752
  139.9288  134.7619  156.1423 H   0  0  0  0  0  0  0  0  0  0  0  0  # atno 11005 bound_to 11000
  144.8290  140.6675  143.6303 LP  0  0  0  0  0  0  0  0  0  0  0  0  # atno 17320 bound_to 7965
  145.4119  139.1578  143.4121 LP  0  0  0  0  0  0  0  0  0  0  0  0  # atno 17321 bound_to 7965
  139.4885  144.4448  151.9723 LP  0  0  0  0  0  0  0  0  0  0  0  0  # atno 17342 bound_to 10162
  140.3538  144.3056  150.5944 LP  0  0  0  0  0  0  0  0  0  0  0  0  # atno 17343 bound_to 10162
  157.5736  130.8328  149.8425 LP  0  0  0  0  0  0  0  0  0  0  0  0  # atno 17370 bound_to 10713
  156.0372  130.3748  150.1529 LP  0  0  0  0  0  0  0  0  0  0  0  0  # atno 17371 bound_to 10713
  141.0864  133.6732  156.2446 LP  0  0  0  0  0  0  0  0  0  0  0  0  # atno 17394 bound_to 11000
  140.6259  134.5314  157.5553 LP  0  0  0  0  0  0  0  0  0  0  0  0  # atno 17395 bound_to 11000

$$$$
