AV-unprocessed.smi:740|AV-procd|sdf|3552|dock10
  -GOLD-   22720 0553D 1   1.00000     0.00000
 Structure written by MMmdl.
 45 47  0  0  0  0  0  0  0  0  2 V2000
  152.6283  142.8593  161.3993 C   0  0  0  0  0  0  0  0  0  0  0  0
  152.0997  142.4337  160.0401 C   0  0  0  0  0  0  0  0  0  0  0  0
  152.4819  141.1714  159.5333 C   0  0  0  0  0  0  0  0  0  0  0  0
  151.9840  140.8111  158.2870 C   0  0  0  0  0  0  0  0  0  0  0  0
  152.1752  139.6554  157.5272 N   0  3  0  0  0  0  0  0  0  0  0  0
  151.4804  139.7587  156.3608 C   0  0  0  0  0  0  0  0  0  0  0  0
  150.8456  140.9621  156.3655 N   0  0  0  0  0  0  0  0  0  0  0  0
  149.9702  141.5591  155.3468 C   0  0  0  0  0  0  0  0  0  0  0  0
  149.1637  140.5056  154.5625 C   0  0  2  0  0  0  0  0  0  0  0  0
  150.0254  139.8614  153.6446 O   0  0  0  0  0  0  0  0  0  0  0  0
  147.9968  141.1488  153.7843 C   0  0  0  0  0  0  0  0  0  0  0  0
  147.0260  141.7923  154.6768 N   0  0  0  0  0  0  0  0  0  0  0  0
  146.6963  141.3260  155.8890 C   0  0  0  0  0  0  0  0  0  0  0  0
  147.1496  140.3172  156.4289 O   0  0  0  0  0  0  0  0  0  0  0  0
  145.6506  142.2134  156.5495 C   0  0  0  0  0  0  0  0  0  0  0  0
  145.3974  143.3044  155.4981 C   0  0  2  0  0  0  0  0  0  0  0  0
  143.9358  143.3831  155.0272 C   0  0  0  0  0  0  0  0  0  0  0  0
  146.3376  142.8994  154.3642 C   0  0  0  0  0  0  0  0  0  0  0  0
  146.4210  143.5319  153.3113 O   0  0  0  0  0  0  0  0  0  0  0  0
  151.1313  141.6548  157.5485 C   0  0  0  0  0  0  0  0  0  0  0  0
  150.7443  142.9018  158.0346 C   0  0  0  0  0  0  0  0  0  0  0  0
  151.2432  143.2886  159.2992 C   0  0  0  0  0  0  0  0  0  0  0  0
  150.8417  144.6459  159.8515 C   0  0  0  0  0  0  0  0  0  0  0  0
  153.2339  142.0754  161.8550 H   0  0  0  0  0  0  0  0  0  0  0  0
  151.8060  143.0817  162.0797 H   0  0  0  0  0  0  0  0  0  0  0  0
  153.2509  143.7494  161.3047 H   0  0  0  0  0  0  0  0  0  0  0  0
  153.1352  140.5158  160.0903 H   0  0  0  0  0  0  0  0  0  0  0  0
  151.4400  139.0195  155.5739 H   0  0  0  0  0  0  0  0  0  0  0  0
  149.2879  142.2274  155.8737 H   0  0  0  0  0  0  0  0  0  0  0  0
  150.5605  142.1898  154.6816 H   0  0  0  0  0  0  0  0  0  0  0  0
  148.7840  139.7617  155.2642 H   0  0  0  0  0  0  0  0  0  0  0  0
  149.6693  139.9633  152.7752 H   0  0  0  0  0  0  0  0  0  0  0  0
  148.3875  141.9120  153.1089 H   0  0  0  0  0  0  0  0  0  0  0  0
  147.5157  140.4153  153.1346 H   0  0  0  0  0  0  0  0  0  0  0  0
  144.7548  141.6333  156.7749 H   0  0  0  0  0  0  0  0  0  0  0  0
  146.0376  142.6300  157.4801 H   0  0  0  0  0  0  0  0  0  0  0  0
  145.7127  144.2741  155.8856 H   0  0  0  0  0  0  0  0  0  0  0  0
  143.7959  144.1927  154.3102 H   0  0  0  0  0  0  0  0  0  0  0  0
  143.2668  143.5706  155.8674 H   0  0  0  0  0  0  0  0  0  0  0  0
  143.6163  142.4556  154.5501 H   0  0  0  0  0  0  0  0  0  0  0  0
  150.0951  143.5550  157.4712 H   0  0  0  0  0  0  0  0  0  0  0  0
  150.2276  145.2006  159.1414 H   0  0  0  0  0  0  0  0  0  0  0  0
  151.7235  145.2491  160.0685 H   0  0  0  0  0  0  0  0  0  0  0  0
  150.2664  144.5289  160.7702 H   0  0  0  0  0  0  0  0  0  0  0  0
  152.7381  138.8541  157.7830 H   0  0  0  0  0  0  0  0  0  0  0  0
  1  2  1  0  0  0  0
  1 24  1  0  0  0  0
  1 25  1  0  0  0  0
  1 26  1  0  0  0  0
  2 22  1  0  0  0  0
  2  3  2  0  0  0  0
  3  4  1  0  0  0  0
  3 27  1  0  0  0  0
  4 20  2  0  0  0  0
  4  5  1  0  0  0  0
  5  6  2  0  0  0  0
  5 45  1  0  0  0  0
  6  7  1  0  0  0  0
  6 28  1  0  0  0  0
  7  8  1  0  0  0  0
  7 20  1  0  0  0  0
  8  9  1  0  0  0  0
  8 29  1  0  0  0  0
  8 30  1  0  0  0  0
  9 10  1  0  0  0  0
  9 11  1  0  0  0  0
  9 31  1  0  0  0  0
 10 32  1  0  0  0  0
 11 12  1  0  0  0  0
 11 33  1  0  0  0  0
 11 34  1  0  0  0  0
 12 18  1  0  0  0  0
 12 13  1  0  0  0  0
 13 14  2  0  0  0  0
 13 15  1  0  0  0  0
 15 16  1  0  0  0  0
 15 35  1  0  0  0  0
 15 36  1  0  0  0  0
 16 17  1  0  0  0  0
 16 18  1  0  0  0  0
 16 37  1  0  0  0  0
 17 38  1  0  0  0  0
 17 39  1  0  0  0  0
 17 40  1  0  0  0  0
 18 19  2  0  0  0  0
 20 21  1  0  0  0  0
 21 22  2  0  0  0  0
 21 41  1  0  0  0  0
 22 23  1  0  0  0  0
 23 42  1  0  0  0  0
 23 43  1  0  0  0  0
 23 44  1  0  0  0  0
M  CHG  1   5   1
M  END
> <s_m_source_file>
AV-unprocessed.smi

> <i_m_source_file_index>
740

> <i_lp_mmshare_version>
43012

> <i_f3d_flags>
0

> <s_epik_input>
W0NIM11jKFtjSF0xKWMoW0NIM10pW2NIXWMoYzEyKW4oW2NIXW4yKVtDSDJdW0NASF0oW09IXSlbQ0gyXU4zQyg9TylbQ0gyXVtDQEBIXShbQ0gzXSlDMz1P

> <s_epik_cmdline>
J2VwaWtfcHl0aG9uJywgJy1waCcsICc3LjAnLCAnLXRuJywgJzgnLCAnLW1hJywgJzIwMCcsICctbWV0YWxfYmluZGluZycsICctaW1hZScsICc8aW5maWxlLm1hZT4nLCAnLW9tYWUnLCAnPG91dGZpbGUubWFlPic=

> <r_lp_tautomer_probability>
1

> <r_epik_Ionization_Penalty>
1.08202

> <r_epik_Ionization_Penalty_Charging>
1.08202

> <r_epik_Ionization_Penalty_Neutral>
1.16605e-06

> <r_epik_State_Penalty>
1.13754

> <r_epik_Charging_Adjusted_Penalty>
2.21956

> <i_epik_Tot_Q>
1

> <i_epik_Tot_abs_Q>
1

> <r_epik_Metal_State_Penalty>
5.13645

> <b_epik_Metal_Only>
0

> <s_lp_Force_Field>
OPLS_2005

> <r_lp_Energy>
22.2654

> <b_lp_Chiralities_Consistent>
1

> <s_lp_Variant>
AV-unprocessed.smi:740-7

> <Gold.Version>
5.8.1

> <Gold.Id.Protein>
6NUR|6NUR_protein|mol2

> <Gold.PLP.Fitness>
50.4217

> <Gold.PLP.PLP>
-46.7408

> <Gold.PLP.part.hbond>
-2.9013

> <Gold.PLP.part.metal>
0.0000

> <Gold.PLP.part.buried>
-3.6511

> <Gold.PLP.part.nonpolar>
-40.3203

> <Gold.PLP.part.repulsive>
0.3321

> <Gold.PLP.ligand.clash>
0.0000

> <Gold.PLP.ligand.torsion>
0.8419

> <Gold.PLP.Chemscore.Hbond>
1.7840

> <Gold.PLP.Chemscore.CHOScore>
0.0000

> <Gold.PLP.Chemscore.Metal>
0.0000

> <Gold.Chemscore.Hbonds>
donor molecule, donor type, donor heavy atom, donor atom, acceptor molecule, acceptor atom, score
      L1  H    10    32       P1  7957  1.00
      P1  H  7989  7998       L1    10  0.78

> <Gold.PLP.Chemscore.Internal.Correction>
0.0128

> <Gold.Rescore>
     Score         DG    S(hbond)    S(metal)    S(lipo)     H(rot)  DE(clash)    DE(int)     intcor
     13.32     -15.25       1.04        0.00     105.85       2.37       0.15       1.78       ----

> <Gold.Chemscore.Fitness>
13.3175

> <Gold.Chemscore.DG>
-15.2500

> <Gold.Chemscore.ZeroCoef>
-5.4800

> <Gold.Chemscore.Hbond>
1.0357

> <Gold.Chemscore.Metal>
0.0000

> <Gold.Chemscore.Lipo>
105.8466

> <Gold.Chemscore.Internal_Hbond>
0.0000

> <Gold.Chemscore.DEClash>
0.1484

> <Gold.Chemscore.DEInternal>
1.7841

> <Gold.Chemscore.Rot>
2.3724

> <Gold.Chemscore.Internal.Correction>
   9.000000E+99

> <Gold.Chemscore.Hbonds>
donor molecule, donor type, donor heavy atom, donor atom, acceptor molecule, acceptor atom, score
      L1  H    10    32       P1  7957  0.99
      P1  H  7989  7998       L1    10  0.15

> <Gold.Chemscore.Hbond.Weighted>
-3.4593

> <Gold.Chemscore.Metal.Weighted>
-0.0000

> <Gold.Chemscore.Lipo.Weighted>
-12.3840

> <Gold.Chemscore.Internal_Hbond.Weighted>
0.0000

> <Gold.Chemscore.DEClash.Weighted>
0.1484

> <Gold.Chemscore.DEInternal.Weighted>
1.7841

> <Gold.Chemscore.Rot.Weighted>
6.0734

> <Gold.Chemscore.Internal.Correction.Weighted>
   9.000000E+99

> <Gold.Protein.RotatedTorsions>
[ 6907 6896 6895 6894 ] final  170.23 input  -60.11 | X-H torsion
[ 7974 7965 7964 7962 ] final -164.66 input  175.53 | X-H torsion
[ 8008 7997 7996 7995 ] final   -9.21 input   59.86 | X-H torsion
[ 10167 10162 10161 10158 ] final   61.42 input  -65.29 | X-H torsion
[ 10718 10713 10712 10709 ] final  153.12 input   66.30 | X-H torsion
[ 10763 10752 10751 10750 ] final -118.50 input  -60.55 | X-H torsion
[ 11005 11000 10999 10996 ] final -177.77 input  -57.11 | X-H torsion

> <Gold.Protein.ActiveResidues>
 VAL166  LYS551  ARG553  GLY616  TRP617  ASP618  TYR619  PRO620  LYS621  CYS622 
 ASP623  PHE694  ASN695  SER759  ASP760  ASP761  ALA762  ILE779  LEU786  VAL792 
 PHE793  MET794  SER795  GLU796  ALA797  LYS798  CYS799  TRP800  GLU811  SER814 

> <Gold.Protein.RotatedAtoms>
  151.8194  133.3392  159.3579 H   0  0  0  0  0  0  0  0  0  0  0  0  # atno 6907 bound_to 6896
  150.7299  134.5588  159.5841 H   0  0  0  0  0  0  0  0  0  0  0  0  # atno 6908 bound_to 6896
  152.3017  134.7604  160.0407 H   0  0  0  0  0  0  0  0  0  0  0  0  # atno 6909 bound_to 6896
  144.7291  140.2929  143.6217 H   0  0  0  0  0  0  0  0  0  0  0  0  # atno 7974 bound_to 7965
  154.5668  140.2361  155.8251 H   0  0  0  0  0  0  0  0  0  0  0  0  # atno 8008 bound_to 7997
  156.2075  140.3035  155.9617 H   0  0  0  0  0  0  0  0  0  0  0  0  # atno 8009 bound_to 7997
  155.2786  140.0421  157.3004 H   0  0  0  0  0  0  0  0  0  0  0  0  # atno 8010 bound_to 7997
  140.1550  144.4426  150.6739 H   0  0  0  0  0  0  0  0  0  0  0  0  # atno 10167 bound_to 10162
  157.2489  131.0775  151.1743 H   0  0  0  0  0  0  0  0  0  0  0  0  # atno 10718 bound_to 10713
  154.8589  135.4271  154.2149 H   0  0  0  0  0  0  0  0  0  0  0  0  # atno 10763 bound_to 10752
  153.3167  135.6979  153.7073 H   0  0  0  0  0  0  0  0  0  0  0  0  # atno 10764 bound_to 10752
  153.6144  135.3513  155.2963 H   0  0  0  0  0  0  0  0  0  0  0  0  # atno 10765 bound_to 10752
  140.4372  134.6465  157.4740 H   0  0  0  0  0  0  0  0  0  0  0  0  # atno 11005 bound_to 11000
  145.7837  139.1901  143.2142 LP  0  0  0  0  0  0  0  0  0  0  0  0  # atno 17320 bound_to 7965
  146.0812  140.7761  142.9640 LP  0  0  0  0  0  0  0  0  0  0  0  0  # atno 17321 bound_to 7965
  140.6679  143.2274  151.5698 LP  0  0  0  0  0  0  0  0  0  0  0  0  # atno 17342 bound_to 10162
  139.5408  144.2654  152.1346 LP  0  0  0  0  0  0  0  0  0  0  0  0  # atno 17343 bound_to 10162
  157.3299  130.6979  149.6318 LP  0  0  0  0  0  0  0  0  0  0  0  0  # atno 17370 bound_to 10713
  155.9667  130.4310  150.4903 LP  0  0  0  0  0  0  0  0  0  0  0  0  # atno 17371 bound_to 10713
  140.0094  134.6713  155.9404 LP  0  0  0  0  0  0  0  0  0  0  0  0  # atno 17394 bound_to 11000
  141.1721  133.6538  156.4690 LP  0  0  0  0  0  0  0  0  0  0  0  0  # atno 17395 bound_to 11000

$$$$
