AV-unprocessed.smi:3329|AV-procd|sdf|12798|dock9
  -GOLD-   2272019153D 1   1.00000     0.00000
 Structure written by MMmdl.
 41 42  0  0  0  0  0  0  0  0  1 V2000
  144.8553  132.3342  148.9182 C   0  0  0  0  0  0  0  0  0  0  0  0
  145.2268  133.1645  150.1129 C   0  0  0  0  0  0  0  0  0  0  0  0
  146.4682  133.1883  150.8106 C   0  0  0  0  0  0  0  0  0  0  0  0
  146.4720  134.0371  151.8255 N   0  0  0  0  0  0  0  0  0  0  0  0
  145.2374  134.5826  151.8129 N   0  0  0  0  0  0  0  0  0  0  0  0
  144.8789  135.5832  152.8022 C   0  0  0  0  0  0  0  0  0  0  0  0
  144.1542  136.7911  152.1836 C   0  0  0  0  0  0  0  0  0  0  0  0
  144.7414  138.0317  152.6690 N   0  0  0  0  0  0  0  0  0  0  0  0
  146.2002  138.0089  152.5254 C   0  0  0  0  0  0  0  0  0  0  0  0
  146.8832  138.8528  153.6003 C   0  0  0  0  0  0  0  0  0  0  0  0
  146.2058  139.5645  154.3400 O   0  0  0  0  0  0  0  0  0  0  0  0
  148.2230  138.7619  153.6676 N   0  0  0  0  0  0  0  0  0  0  0  0
  149.1290  139.4241  154.6093 C   0  0  2  0  0  0  0  0  0  0  0  0
  148.7132  139.0884  156.0555 C   0  0  0  0  0  0  0  0  0  0  0  0
  148.9618  140.8780  154.4265 C   0  0  0  0  0  0  0  0  0  0  0  0
  148.8278  142.0186  154.2820 N   0  0  0  0  0  0  0  0  0  0  0  0
  150.6000  139.0498  154.3957 C   0  0  0  0  0  0  0  0  0  0  0  0
  151.2206  137.8114  155.0034 C   0  0  0  0  0  0  0  0  0  0  0  0
  151.6415  139.1833  155.4838 C   0  0  0  0  0  0  0  0  0  0  0  0
  144.4640  134.0718  150.7919 C   0  0  0  0  0  0  0  0  0  0  0  0
  145.7354  131.9477  148.4037 H   0  0  0  0  0  0  0  0  0  0  0  0
  144.2850  132.9098  148.1888 H   0  0  0  0  0  0  0  0  0  0  0  0
  144.2448  131.4762  149.2002 H   0  0  0  0  0  0  0  0  0  0  0  0
  147.3625  132.6170  150.6097 H   0  0  0  0  0  0  0  0  0  0  0  0
  144.2586  135.1151  153.5680 H   0  0  0  0  0  0  0  0  0  0  0  0
  145.7910  135.9139  153.3008 H   0  0  0  0  0  0  0  0  0  0  0  0
  144.2390  136.7481  151.0970 H   0  0  0  0  0  0  0  0  0  0  0  0
  143.0908  136.7583  152.4265 H   0  0  0  0  0  0  0  0  0  0  0  0
  144.3374  138.8024  152.1557 H   0  0  0  0  0  0  0  0  0  0  0  0
  146.5663  136.9837  152.5988 H   0  0  0  0  0  0  0  0  0  0  0  0
  146.4797  138.3841  151.5396 H   0  0  0  0  0  0  0  0  0  0  0  0
  148.6644  138.1435  153.0021 H   0  0  0  0  0  0  0  0  0  0  0  0
  149.3131  139.6498  156.7729 H   0  0  0  0  0  0  0  0  0  0  0  0
  148.8437  138.0312  156.2866 H   0  0  0  0  0  0  0  0  0  0  0  0
  147.6677  139.3413  156.2361 H   0  0  0  0  0  0  0  0  0  0  0  0
  150.9547  139.2718  153.3913 H   0  0  0  0  0  0  0  0  0  0  0  0
  150.6174  137.2056  155.6762 H   0  0  0  0  0  0  0  0  0  0  0  0
  151.9276  137.2557  154.3907 H   0  0  0  0  0  0  0  0  0  0  0  0
  152.6269  139.5388  155.1896 H   0  0  0  0  0  0  0  0  0  0  0  0
  151.3163  139.4912  156.4752 H   0  0  0  0  0  0  0  0  0  0  0  0
  143.4464  134.3972  150.6325 H   0  0  0  0  0  0  0  0  0  0  0  0
  1  2  1  0  0  0  0
  1 21  1  0  0  0  0
  1 22  1  0  0  0  0
  1 23  1  0  0  0  0
  2 20  2  0  0  0  0
  2  3  1  0  0  0  0
  3  4  2  0  0  0  0
  3 24  1  0  0  0  0
  4  5  1  0  0  0  0
  5  6  1  0  0  0  0
  5 20  1  0  0  0  0
  6  7  1  0  0  0  0
  6 25  1  0  0  0  0
  6 26  1  0  0  0  0
  7  8  1  0  0  0  0
  7 27  1  0  0  0  0
  7 28  1  0  0  0  0
  8  9  1  0  0  0  0
  8 29  1  0  0  0  0
  9 10  1  0  0  0  0
  9 30  1  0  0  0  0
  9 31  1  0  0  0  0
 10 11  2  0  0  0  0
 10 12  1  0  0  0  0
 12 13  1  0  0  0  0
 12 32  1  0  0  0  0
 13 14  1  0  0  0  0
 13 15  1  0  0  0  0
 13 17  1  0  0  0  0
 14 33  1  0  0  0  0
 14 34  1  0  0  0  0
 14 35  1  0  0  0  0
 15 16  3  0  0  0  0
 17 19  1  0  0  0  0
 17 18  1  0  0  0  0
 17 36  1  0  0  0  0
 18 19  1  0  0  0  0
 18 37  1  0  0  0  0
 18 38  1  0  0  0  0
 19 39  1  0  0  0  0
 19 40  1  0  0  0  0
 20 41  1  0  0  0  0
M  END
> <s_m_source_file>
AV-unprocessed.smi

> <i_m_source_file_index>
3329

> <i_lp_mmshare_version>
43012

> <i_f3d_flags>
0

> <s_epik_input>
W0NIM11jMVtjSF1ubihbY0hdMSlbQ0gyXVtDSDJdW05IXVtDSDJdQyg9TylbTkhdW0NAQF0oW0NIM10pKEMjTilbQ0hdMltDSDJdW0NIMl0y

> <s_epik_cmdline>
J2VwaWtfcHl0aG9uJywgJy1waCcsICc3LjAnLCAnLXRuJywgJzgnLCAnLW1hJywgJzIwMCcsICctbWV0YWxfYmluZGluZycsICctaW1hZScsICc8aW5maWxlLm1hZT4nLCAnLW9tYWUnLCAnPG91dGZpbGUubWFlPic=

> <r_lp_tautomer_probability>
1

> <r_epik_Ionization_Penalty>
0.481866

> <r_epik_Ionization_Penalty_Charging>
0

> <r_epik_Ionization_Penalty_Neutral>
0.481866

> <r_epik_State_Penalty>
0.48398

> <r_epik_Charging_Adjusted_Penalty>
0.48398

> <i_epik_Tot_Q>
0

> <i_epik_Tot_abs_Q>
0

> <r_epik_Metal_State_Penalty>
0.5042

> <b_epik_Metal_Only>
0

> <s_lp_Force_Field>
OPLS_2005

> <r_lp_Energy>
14.7625

> <b_lp_Chiralities_Consistent>
1

> <s_lp_Variant>
AV-unprocessed.smi:3329-4

> <Gold.Version>
5.8.1

> <Gold.Id.Protein>
6NUR|6NUR_protein|mol2

> <Gold.PLP.Fitness>
48.1553

> <Gold.PLP.PLP>
-36.4945

> <Gold.PLP.part.hbond>
-5.2152

> <Gold.PLP.part.metal>
0.0000

> <Gold.PLP.part.buried>
-3.0963

> <Gold.PLP.part.nonpolar>
-29.3406

> <Gold.PLP.part.repulsive>
0.5036

> <Gold.PLP.ligand.clash>
0.0000

> <Gold.PLP.ligand.torsion>
1.5641

> <Gold.PLP.Chemscore.Hbond>
2.3920

> <Gold.PLP.Chemscore.CHOScore>
1.9979

> <Gold.PLP.Chemscore.Metal>
0.0000

> <Gold.Chemscore.Hbonds>
donor molecule, donor type, donor heavy atom, donor atom, acceptor molecule, acceptor atom, score
      L1  H     8    29       P1 10175  0.80
      L1  H    12    32       P1  7948  0.52
      P1  H  8011  8017       L1    16  0.21
      L1  C     3    24       P1 10747  1.00
      L1  C    20    41       P1 10186  0.67

> <Gold.PLP.Chemscore.Internal.Correction>
1.6191

> <Gold.Rescore>
     Score         DG    S(hbond)    S(metal)    S(lipo)     H(rot)  DE(clash)    DE(int)     intcor
     14.50     -17.22       2.39        0.00      82.86       2.31       0.33       2.39       ----

> <Gold.Chemscore.Fitness>
14.4955

> <Gold.Chemscore.DG>
-17.2196

> <Gold.Chemscore.ZeroCoef>
-5.4800

> <Gold.Chemscore.Hbond>
2.3852

> <Gold.Chemscore.Metal>
0.0000

> <Gold.Chemscore.Lipo>
82.8555

> <Gold.Chemscore.Internal_Hbond>
0.0000

> <Gold.Chemscore.DEClash>
0.3340

> <Gold.Chemscore.DEInternal>
2.3901

> <Gold.Chemscore.Rot>
2.3129

> <Gold.Chemscore.Internal.Correction>
   9.000000E+99

> <Gold.Chemscore.Hbonds>
donor molecule, donor type, donor heavy atom, donor atom, acceptor molecule, acceptor atom, score
      L1  H     8    29       P1 10175  0.80
      L1  H    12    32       P1  7948  0.51
      P1  H  8011  8017       L1    16  0.11

> <Gold.Chemscore.Hbond.Weighted>
-7.9667

> <Gold.Chemscore.Metal.Weighted>
-0.0000

> <Gold.Chemscore.Lipo.Weighted>
-9.6941

> <Gold.Chemscore.Internal_Hbond.Weighted>
0.0000

> <Gold.Chemscore.DEClash.Weighted>
0.3340

> <Gold.Chemscore.DEInternal.Weighted>
2.3901

> <Gold.Chemscore.Rot.Weighted>
5.9211

> <Gold.Chemscore.Internal.Correction.Weighted>
   9.000000E+99

> <Gold.Protein.RotatedTorsions>
[ 6907 6896 6895 6894 ] final -124.06 input  -60.11 | X-H torsion
[ 7974 7965 7964 7962 ] final  115.36 input  175.53 | X-H torsion
[ 8008 7997 7996 7995 ] final  -92.07 input   59.86 | X-H torsion
[ 10167 10162 10161 10158 ] final   48.75 input  -65.29 | X-H torsion
[ 10718 10713 10712 10709 ] final  138.24 input   66.30 | X-H torsion
[ 10763 10752 10751 10750 ] final -104.75 input  -60.55 | X-H torsion
[ 11005 11000 10999 10996 ] final   17.62 input  -57.11 | X-H torsion

> <Gold.Protein.ActiveResidues>
 VAL166  LYS551  ARG553  GLY616  TRP617  ASP618  TYR619  PRO620  LYS621  CYS622 
 ASP623  PHE694  ASN695  SER759  ASP760  ASP761  ALA762  ILE779  LEU786  VAL792 
 PHE793  MET794  SER795  GLU796  ALA797  LYS798  CYS799  TRP800  GLU811  SER814 

> <Gold.Protein.RotatedAtoms>
  150.8731  133.7476  159.2954 H   0  0  0  0  0  0  0  0  0  0  0  0  # atno 6907 bound_to 6896
  151.5082  135.1062  159.9856 H   0  0  0  0  0  0  0  0  0  0  0  0  # atno 6908 bound_to 6896
  152.4709  133.7983  159.6994 H   0  0  0  0  0  0  0  0  0  0  0  0  # atno 6909 bound_to 6896
  145.1930  139.2990  143.4358 H   0  0  0  0  0  0  0  0  0  0  0  0  # atno 7974 bound_to 7965
  154.7185  140.0513  157.0617 H   0  0  0  0  0  0  0  0  0  0  0  0  # atno 8008 bound_to 7997
  155.0459  140.3174  155.4689 H   0  0  0  0  0  0  0  0  0  0  0  0  # atno 8009 bound_to 7997
  156.2810  140.2124  156.5583 H   0  0  0  0  0  0  0  0  0  0  0  0  # atno 8010 bound_to 7997
  140.2900  144.3057  150.6243 H   0  0  0  0  0  0  0  0  0  0  0  0  # atno 10167 bound_to 10162
  157.4274  131.1045  151.0287 H   0  0  0  0  0  0  0  0  0  0  0  0  # atno 10718 bound_to 10713
  154.7900  135.4774  154.0031 H   0  0  0  0  0  0  0  0  0  0  0  0  # atno 10763 bound_to 10752
  153.1617  135.6809  153.8741 H   0  0  0  0  0  0  0  0  0  0  0  0  # atno 10764 bound_to 10752
  153.8352  135.3186  155.3400 H   0  0  0  0  0  0  0  0  0  0  0  0  # atno 10765 bound_to 10752
  140.4339  134.1391  155.7683 H   0  0  0  0  0  0  0  0  0  0  0  0  # atno 11005 bound_to 11000
  146.3432  140.2149  142.8590 LP  0  0  0  0  0  0  0  0  0  0  0  0  # atno 17320 bound_to 7965
  145.0022  140.8642  143.5274 LP  0  0  0  0  0  0  0  0  0  0  0  0  # atno 17321 bound_to 7965
  140.5740  143.2178  151.7548 LP  0  0  0  0  0  0  0  0  0  0  0  0  # atno 17342 bound_to 10162
  139.4940  144.4176  152.0013 LP  0  0  0  0  0  0  0  0  0  0  0  0  # atno 17343 bound_to 10162
  157.1196  130.6056  149.5501 LP  0  0  0  0  0  0  0  0  0  0  0  0  # atno 17370 bound_to 10713
  155.9901  130.4951  150.7244 LP  0  0  0  0  0  0  0  0  0  0  0  0  # atno 17371 bound_to 10713
  141.1734  133.8563  157.1499 LP  0  0  0  0  0  0  0  0  0  0  0  0  # atno 17394 bound_to 11000
  140.0115  134.9986  157.0406 LP  0  0  0  0  0  0  0  0  0  0  0  0  # atno 17395 bound_to 11000

$$$$
