AV-unprocessed.smi:232|AV-procd|sdf|1775|dock5
  -GOLD-   2262020313D 1   1.00000     0.00000
 Structure written by MMmdl.
 52 55  0  0  0  0  0  0  0  0  1 V2000
  153.7333  136.9174  164.1821 C   0  0  0  0  0  0  0  0  0  0  0  0
  154.2010  135.4560  164.1581 C   0  0  0  0  0  0  0  0  0  0  0  0
  154.4155  134.8987  162.7386 C   0  0  2  0  0  0  0  0  0  0  0  0
  155.1421  133.5439  162.7282 C   0  0  0  0  0  0  0  0  0  0  0  0
  155.9645  133.5868  161.4452 C   0  0  0  0  0  0  0  0  0  0  0  0
  156.3804  135.0541  161.4020 C   0  0  1  0  0  0  0  0  0  0  0  0
  156.9707  135.5095  160.0516 C   0  0  0  0  0  0  0  0  0  0  0  0
  155.2186  135.7968  161.8997 N   0  0  0  0  0  0  0  0  0  0  0  0
  154.5477  136.5909  161.0307 C   0  0  0  0  0  0  0  0  0  0  0  0
  154.0090  136.0726  159.8952 N   0  0  0  0  0  0  0  0  0  0  0  0
  153.3666  136.8707  159.0365 C   0  0  0  0  0  0  0  0  0  0  0  0
  153.1569  138.1870  159.1156 N   0  0  0  0  0  0  0  0  0  0  0  0
  153.7045  138.7075  160.2513 C   0  0  0  0  0  0  0  0  0  0  0  0
  154.4115  137.9863  161.2524 C   0  0  0  0  0  0  0  0  0  0  0  0
  154.8254  138.8476  162.2605 N   0  0  0  0  0  0  0  0  0  0  0  0
  154.3877  140.0158  161.8761 C   0  0  0  0  0  0  0  0  0  0  0  0
  153.7058  140.0223  160.6798 N   0  0  0  0  0  0  0  0  0  0  0  0
  153.1180  141.1713  160.0148 C   0  0  0  0  0  0  0  0  0  0  0  0
  152.9871  142.3869  160.9537 C   0  0  2  0  0  0  0  0  0  0  0  0
  151.9260  142.1579  161.8618 O   0  0  0  0  0  0  0  0  0  0  0  0
  152.7143  143.6944  160.1871 C   0  0  1  0  0  0  0  0  0  0  0  0
  151.9879  143.5018  158.8533 C   0  0  0  0  0  0  0  0  0  0  0  0
  151.3024  144.8366  158.6770 C   0  0  0  0  0  0  0  0  0  0  0  0
  150.8746  145.1485  160.1064 C   0  0  0  0  0  0  0  0  0  0  0  0
  151.8580  144.5485  160.9451 O   0  0  0  0  0  0  0  0  0  0  0  0
  153.5281  137.2406  165.2028 H   0  0  0  0  0  0  0  0  0  0  0  0
  152.8197  137.0481  163.6016 H   0  0  0  0  0  0  0  0  0  0  0  0
  154.4904  137.5863  163.7734 H   0  0  0  0  0  0  0  0  0  0  0  0
  155.1173  135.3546  164.7410 H   0  0  0  0  0  0  0  0  0  0  0  0
  153.4497  134.8489  164.6642 H   0  0  0  0  0  0  0  0  0  0  0  0
  153.4348  134.7380  162.2898 H   0  0  0  0  0  0  0  0  0  0  0  0
  155.8144  133.4645  163.5841 H   0  0  0  0  0  0  0  0  0  0  0  0
  154.4563  132.6971  162.7636 H   0  0  0  0  0  0  0  0  0  0  0  0
  156.8141  132.9035  161.4609 H   0  0  0  0  0  0  0  0  0  0  0  0
  155.3379  133.3394  160.5870 H   0  0  0  0  0  0  0  0  0  0  0  0
  157.1587  135.2015  162.1523 H   0  0  0  0  0  0  0  0  0  0  0  0
  157.8571  134.9250  159.8043 H   0  0  0  0  0  0  0  0  0  0  0  0
  157.2708  136.5573  160.0818 H   0  0  0  0  0  0  0  0  0  0  0  0
  156.2610  135.3830  159.2336 H   0  0  0  0  0  0  0  0  0  0  0  0
  152.9659  136.3860  158.1585 H   0  0  0  0  0  0  0  0  0  0  0  0
  154.5559  140.9115  162.4561 H   0  0  0  0  0  0  0  0  0  0  0  0
  153.7439  141.4187  159.1567 H   0  0  0  0  0  0  0  0  0  0  0  0
  152.1430  140.8861  159.6170 H   0  0  0  0  0  0  0  0  0  0  0  0
  153.9065  142.4962  161.5304 H   0  0  0  0  0  0  0  0  0  0  0  0
  152.2940  141.9634  162.7100 H   0  0  0  0  0  0  0  0  0  0  0  0
  153.6467  144.2342  160.0132 H   0  0  0  0  0  0  0  0  0  0  0  0
  152.6625  143.2565  158.0326 H   0  0  0  0  0  0  0  0  0  0  0  0
  151.2423  142.7090  158.9307 H   0  0  0  0  0  0  0  0  0  0  0  0
  152.0165  145.5822  158.3246 H   0  0  0  0  0  0  0  0  0  0  0  0
  150.4662  144.8030  157.9782 H   0  0  0  0  0  0  0  0  0  0  0  0
  150.7893  146.2193  160.2920 H   0  0  0  0  0  0  0  0  0  0  0  0
  149.9098  144.6886  160.3237 H   0  0  0  0  0  0  0  0  0  0  0  0
  1  2  1  0  0  0  0
  1 26  1  0  0  0  0
  1 27  1  0  0  0  0
  1 28  1  0  0  0  0
  2  3  1  0  0  0  0
  2 29  1  0  0  0  0
  2 30  1  0  0  0  0
  3  8  1  0  0  0  0
  3  4  1  0  0  0  0
  3 31  1  0  0  0  0
  4  5  1  0  0  0  0
  4 32  1  0  0  0  0
  4 33  1  0  0  0  0
  5  6  1  0  0  0  0
  5 34  1  0  0  0  0
  5 35  1  0  0  0  0
  6  7  1  0  0  0  0
  6  8  1  0  0  0  0
  6 36  1  0  0  0  0
  7 37  1  0  0  0  0
  7 38  1  0  0  0  0
  7 39  1  0  0  0  0
  8  9  1  0  0  0  0
  9 14  1  0  0  0  0
  9 10  2  0  0  0  0
 10 11  1  0  0  0  0
 11 12  2  0  0  0  0
 11 40  1  0  0  0  0
 12 13  1  0  0  0  0
 13 17  1  0  0  0  0
 13 14  2  0  0  0  0
 14 15  1  0  0  0  0
 15 16  2  0  0  0  0
 16 17  1  0  0  0  0
 16 41  1  0  0  0  0
 17 18  1  0  0  0  0
 18 19  1  0  0  0  0
 18 42  1  0  0  0  0
 18 43  1  0  0  0  0
 19 20  1  0  0  0  0
 19 21  1  0  0  0  0
 19 44  1  0  0  0  0
 20 45  1  0  0  0  0
 21 25  1  0  0  0  0
 21 22  1  0  0  0  0
 21 46  1  0  0  0  0
 22 23  1  0  0  0  0
 22 47  1  0  0  0  0
 22 48  1  0  0  0  0
 23 24  1  0  0  0  0
 23 49  1  0  0  0  0
 23 50  1  0  0  0  0
 24 25  1  0  0  0  0
 24 51  1  0  0  0  0
 24 52  1  0  0  0  0
M  END
> <s_m_source_file>
AV-unprocessed.smi

> <i_m_source_file_index>
232

> <i_lp_mmshare_version>
43012

> <i_f3d_flags>
0

> <s_epik_input>
W0NIM11bQ0gyXVtDQEBIXTFbQ0gyXVtDSDJdW0NAQEhdKFtDSDNdKU4xYyhuW2NIXW4yKWMoYzIzKW5bY0hdbjNbQ0gyXVtDQEhdKFtPSF0pW0NAQEhdNFtDSDJdW0NIMl1bQ0gyXU80

> <s_epik_cmdline>
J2VwaWtfcHl0aG9uJywgJy1waCcsICc3LjAnLCAnLXRuJywgJzgnLCAnLW1hJywgJzIwMCcsICctbWV0YWxfYmluZGluZycsICctaW1hZScsICc8aW5maWxlLm1hZT4nLCAnLW9tYWUnLCAnPG91dGZpbGUubWFlPic=

> <r_lp_tautomer_probability>
1

> <r_epik_Ionization_Penalty>
0.00258048

> <r_epik_Ionization_Penalty_Charging>
0

> <r_epik_Ionization_Penalty_Neutral>
0.00258048

> <r_epik_State_Penalty>
0.00168551

> <r_epik_Charging_Adjusted_Penalty>
0.00168551

> <i_epik_Tot_Q>
0

> <i_epik_Tot_abs_Q>
0

> <r_epik_Metal_State_Penalty>
-0

> <b_epik_Metal_Only>
0

> <s_lp_Force_Field>
OPLS_2005

> <r_lp_Energy>
56.7631

> <b_lp_Chiralities_Consistent>
1

> <s_lp_Variant>
AV-unprocessed.smi:232-9

> <Gold.Version>
5.8.1

> <Gold.Id.Protein>
6NUR|6NUR_protein|mol2

> <Gold.PLP.Fitness>
46.5112

> <Gold.PLP.PLP>
-44.3852

> <Gold.PLP.part.hbond>
-2.0146

> <Gold.PLP.part.metal>
0.0000

> <Gold.PLP.part.buried>
-6.7635

> <Gold.PLP.part.nonpolar>
-38.0199

> <Gold.PLP.part.repulsive>
0.1722

> <Gold.PLP.ligand.clash>
0.0000

> <Gold.PLP.ligand.torsion>
1.4324

> <Gold.PLP.Chemscore.Hbond>
1.5869

> <Gold.PLP.Chemscore.CHOScore>
0.0000

> <Gold.PLP.Chemscore.Metal>
0.0000

> <Gold.Chemscore.Hbonds>
donor molecule, donor type, donor heavy atom, donor atom, acceptor molecule, acceptor atom, score
      P1  H  6896  6907       L1    10  0.61
      P1  H  6933  6945       L1    20  0.79

> <Gold.PLP.Chemscore.Internal.Correction>
0.2302

> <Gold.Rescore>
     Score         DG    S(hbond)    S(metal)    S(lipo)     H(rot)  DE(clash)    DE(int)     intcor
     12.76     -14.22       0.77        0.00     105.97       2.43       0.20       1.26       ----

> <Gold.Chemscore.Fitness>
12.7617

> <Gold.Chemscore.DG>
-14.2229

> <Gold.Chemscore.ZeroCoef>
-5.4800

> <Gold.Chemscore.Hbond>
0.7651

> <Gold.Chemscore.Metal>
0.0000

> <Gold.Chemscore.Lipo>
105.9668

> <Gold.Chemscore.Internal_Hbond>
0.0000

> <Gold.Chemscore.DEClash>
0.2025

> <Gold.Chemscore.DEInternal>
1.2588

> <Gold.Chemscore.Rot>
2.4260

> <Gold.Chemscore.Internal.Correction>
   9.000000E+99

> <Gold.Chemscore.Hbonds>
donor molecule, donor type, donor heavy atom, donor atom, acceptor molecule, acceptor atom, score
      P1  H  6896  6907       L1    10  0.07
      P1  H  6933  6945       L1    20  0.18

> <Gold.Chemscore.Hbond.Weighted>
-2.5555

> <Gold.Chemscore.Metal.Weighted>
-0.0000

> <Gold.Chemscore.Lipo.Weighted>
-12.3981

> <Gold.Chemscore.Internal_Hbond.Weighted>
0.0000

> <Gold.Chemscore.DEClash.Weighted>
0.2025

> <Gold.Chemscore.DEInternal.Weighted>
1.2588

> <Gold.Chemscore.Rot.Weighted>
6.2107

> <Gold.Chemscore.Internal.Correction.Weighted>
   9.000000E+99

> <Gold.Protein.RotatedTorsions>
[ 6907 6896 6895 6894 ] final   63.77 input  -60.11 | X-H torsion
[ 7974 7965 7964 7962 ] final -172.79 input  175.53 | X-H torsion
[ 8008 7997 7996 7995 ] final  158.34 input   59.86 | X-H torsion
[ 10167 10162 10161 10158 ] final   90.54 input  -65.29 | X-H torsion
[ 10718 10713 10712 10709 ] final -113.66 input   66.30 | X-H torsion
[ 10763 10752 10751 10750 ] final  149.96 input  -60.55 | X-H torsion
[ 11005 11000 10999 10996 ] final  113.93 input  -57.11 | X-H torsion

> <Gold.Protein.ActiveResidues>
 VAL166  LYS551  ARG553  GLY616  TRP617  ASP618  TYR619  PRO620  LYS621  CYS622 
 ASP623  PHE694  ASN695  SER759  ASP760  ASP761  ALA762  ILE779  LEU786  VAL792 
 PHE793  MET794  SER795  GLU796  ALA797  LYS798  CYS799  TRP800  GLU811  SER814 

> <Gold.Protein.RotatedAtoms>
  152.4279  134.5833  159.9953 H   0  0  0  0  0  0  0  0  0  0  0  0  # atno 6907 bound_to 6896
  151.5965  133.3355  159.3046 H   0  0  0  0  0  0  0  0  0  0  0  0  # atno 6908 bound_to 6896
  150.8170  134.7393  159.6803 H   0  0  0  0  0  0  0  0  0  0  0  0  # atno 6909 bound_to 6896
  144.7143  140.1720  143.6366 H   0  0  0  0  0  0  0  0  0  0  0  0  # atno 7974 bound_to 7965
  156.2309  140.1861  156.7245 H   0  0  0  0  0  0  0  0  0  0  0  0  # atno 8008 bound_to 7997
  154.6020  140.0634  156.9409 H   0  0  0  0  0  0  0  0  0  0  0  0  # atno 8009 bound_to 7997
  155.2158  140.3303  155.4325 H   0  0  0  0  0  0  0  0  0  0  0  0  # atno 8010 bound_to 7997
  139.8463  144.6616  150.9223 H   0  0  0  0  0  0  0  0  0  0  0  0  # atno 10167 bound_to 10162
  156.0780  130.5985  150.8672 H   0  0  0  0  0  0  0  0  0  0  0  0  # atno 10718 bound_to 10713
  154.0797  135.2860  155.3293 H   0  0  0  0  0  0  0  0  0  0  0  0  # atno 10763 bound_to 10752
  154.6692  135.5306  153.8120 H   0  0  0  0  0  0  0  0  0  0  0  0  # atno 10764 bound_to 10752
  153.0453  135.6553  154.0973 H   0  0  0  0  0  0  0  0  0  0  0  0  # atno 10765 bound_to 10752
  139.8966  134.9559  156.6814 H   0  0  0  0  0  0  0  0  0  0  0  0  # atno 11005 bound_to 11000
  145.8935  139.2389  143.1535 LP  0  0  0  0  0  0  0  0  0  0  0  0  # atno 17320 bound_to 7965
  145.9880  140.8626  143.0081 LP  0  0  0  0  0  0  0  0  0  0  0  0  # atno 17321 bound_to 7965
  140.7792  143.3867  151.1381 LP  0  0  0  0  0  0  0  0  0  0  0  0  # atno 17342 bound_to 10162
  139.7509  143.8780  152.3076 LP  0  0  0  0  0  0  0  0  0  0  0  0  # atno 17343 bound_to 10162
  157.5885  131.0945  150.9157 LP  0  0  0  0  0  0  0  0  0  0  0  0  # atno 17370 bound_to 10713
  156.9338  130.5359  149.5279 LP  0  0  0  0  0  0  0  0  0  0  0  0  # atno 17371 bound_to 10713
  140.7296  133.9070  155.8202 LP  0  0  0  0  0  0  0  0  0  0  0  0  # atno 17394 bound_to 11000
  141.0163  134.0951  157.4168 LP  0  0  0  0  0  0  0  0  0  0  0  0  # atno 17395 bound_to 11000

$$$$
