AV-unprocessed.smi:287|AV-procd|sdf|2202|dock1
  -GOLD-   2262022 23D 1   1.00000     0.00000
 Structure written by MMmdl.
 55 58  0  0  0  0  0  0  0  0  1 V2000
  145.8642  132.2370  150.8475 C   0  0  0  0  0  0  0  0  0  0  0  0
  146.5902  132.7556  152.0415 C   0  0  0  0  0  0  0  0  0  0  0  0
  146.6450  133.9712  152.6586 C   0  0  0  0  0  0  0  0  0  0  0  0
  147.5259  133.8441  153.7741 C   0  0  0  0  0  0  0  0  0  0  0  0
  147.8966  134.9508  154.7520 C   0  0  2  0  0  0  0  0  0  0  0  0
  147.2606  134.6669  156.1227 C   0  0  0  0  0  0  0  0  0  0  0  0
  147.4020  136.2178  154.3632 O   0  0  0  0  0  0  0  0  0  0  0  0
  149.4256  135.1193  154.9012 C   0  0  0  0  0  0  0  0  0  0  0  0
  149.7977  135.9574  156.0338 N   0  0  0  0  0  0  0  0  0  0  0  0
  150.2596  137.2119  155.8489 C   0  0  0  0  0  0  0  0  0  0  0  0
  150.3512  137.6132  154.5588 N   0  0  0  0  0  0  0  0  0  0  0  0
  150.7992  138.8367  154.2663 C   0  0  0  0  0  0  0  0  0  0  0  0
  151.2014  139.7975  155.0988 N   0  0  0  0  0  0  0  0  0  0  0  0
  151.1131  139.4039  156.4024 C   0  0  0  0  0  0  0  0  0  0  0  0
  150.6536  138.1359  156.8629 C   0  0  0  0  0  0  0  0  0  0  0  0
  150.7046  138.1090  158.2530 N   0  0  0  0  0  0  0  0  0  0  0  0
  151.1654  139.2835  158.5853 C   0  0  0  0  0  0  0  0  0  0  0  0
  151.4444  140.1244  157.5328 N   0  0  0  0  0  0  0  0  0  0  0  0
  151.9886  141.5177  157.6002 C   0  0  2  0  0  0  0  0  0  0  0  0
  152.3357  141.7906  158.9207 O   0  0  0  0  0  0  0  0  0  0  0  0
  152.0688  143.1594  159.1991 C   0  0  2  0  0  0  0  0  0  0  0  0
  151.9931  143.4088  160.7158 C   0  0  0  0  0  0  0  0  0  0  0  0
  151.6561  144.7561  160.9685 O   0  0  0  0  0  0  0  0  0  0  0  0
  150.7765  143.4304  158.4145 C   0  0  2  0  0  0  0  0  0  0  0  0
  149.6350  143.0454  159.1619 O   0  0  0  0  0  0  0  0  0  0  0  0
  150.9710  142.5894  157.1533 C   0  0  2  0  0  0  0  0  0  0  0  0
  149.7604  142.0979  156.6000 O   0  0  0  0  0  0  0  0  0  0  0  0
  147.9530  132.5381  153.7364 C   0  0  0  0  0  0  0  0  0  0  0  0
  148.8838  131.7261  154.5756 C   0  0  0  0  0  0  0  0  0  0  0  0
  147.3870  131.8709  152.6919 O   0  0  0  0  0  0  0  0  0  0  0  0
  152.8803  141.4965  156.9721 H   0  0  0  0  0  0  0  0  0  0  0  0
  152.8652  143.7627  158.7584 H   0  0  0  0  0  0  0  0  0  0  0  0
  150.6725  144.4893  158.1753 H   0  0  0  0  0  0  0  0  0  0  0  0
  151.4668  143.1972  156.3953 H   0  0  0  0  0  0  0  0  0  0  0  0
  145.0646  132.9169  150.5524 H   0  0  0  0  0  0  0  0  0  0  0  0
  145.4195  131.2637  151.0554 H   0  0  0  0  0  0  0  0  0  0  0  0
  146.5428  132.1262  150.0016 H   0  0  0  0  0  0  0  0  0  0  0  0
  146.1094  134.8557  152.3466 H   0  0  0  0  0  0  0  0  0  0  0  0
  147.6113  133.7186  156.5318 H   0  0  0  0  0  0  0  0  0  0  0  0
  146.1734  134.6109  156.0516 H   0  0  0  0  0  0  0  0  0  0  0  0
  147.5049  135.4452  156.8468 H   0  0  0  0  0  0  0  0  0  0  0  0
  147.8477  136.4839  153.5735 H   0  0  0  0  0  0  0  0  0  0  0  0
  149.9162  134.1475  154.9713 H   0  0  0  0  0  0  0  0  0  0  0  0
  149.8082  135.6051  154.0027 H   0  0  0  0  0  0  0  0  0  0  0  0
  149.6794  135.5383  156.9452 H   0  0  0  0  0  0  0  0  0  0  0  0
  150.8424  139.0808  153.2150 H   0  0  0  0  0  0  0  0  0  0  0  0
  151.3210  139.5681  159.6157 H   0  0  0  0  0  0  0  0  0  0  0  0
  151.2139  142.7892  161.1606 H   0  0  0  0  0  0  0  0  0  0  0  0
  152.9330  143.1556  161.2079 H   0  0  0  0  0  0  0  0  0  0  0  0
  151.6509  145.2230  160.1469 H   0  0  0  0  0  0  0  0  0  0  0  0
  149.8149  142.2109  159.5698 H   0  0  0  0  0  0  0  0  0  0  0  0
  149.3029  142.8164  156.1911 H   0  0  0  0  0  0  0  0  0  0  0  0
  149.8439  132.2304  154.6866 H   0  0  0  0  0  0  0  0  0  0  0  0
  149.0700  130.7494  154.1282 H   0  0  0  0  0  0  0  0  0  0  0  0
  148.4666  131.5665  155.5701 H   0  0  0  0  0  0  0  0  0  0  0  0
  1  2  1  0  0  0  0
  1 35  1  0  0  0  0
  1 36  1  0  0  0  0
  1 37  1  0  0  0  0
  2 30  1  0  0  0  0
  2  3  2  0  0  0  0
  3  4  1  0  0  0  0
  3 38  1  0  0  0  0
  4  5  1  0  0  0  0
  4 28  2  0  0  0  0
  5  6  1  0  0  0  0
  5  7  1  0  0  0  0
  5  8  1  0  0  0  0
  6 39  1  0  0  0  0
  6 40  1  0  0  0  0
  6 41  1  0  0  0  0
  7 42  1  0  0  0  0
  8  9  1  0  0  0  0
  8 43  1  0  0  0  0
  8 44  1  0  0  0  0
  9 10  1  0  0  0  0
  9 45  1  0  0  0  0
 10 15  1  0  0  0  0
 10 11  2  0  0  0  0
 11 12  1  0  0  0  0
 12 13  2  0  0  0  0
 12 46  1  0  0  0  0
 13 14  1  0  0  0  0
 14 18  1  0  0  0  0
 14 15  2  0  0  0  0
 15 16  1  0  0  0  0
 16 17  2  0  0  0  0
 17 18  1  0  0  0  0
 17 47  1  0  0  0  0
 18 19  1  0  0  0  0
 19 31  1  0  0  0  0
 19 26  1  0  0  0  0
 19 20  1  0  0  0  0
 20 21  1  0  0  0  0
 21 32  1  0  0  0  0
 21 22  1  0  0  0  0
 21 24  1  0  0  0  0
 22 23  1  0  0  0  0
 22 48  1  0  0  0  0
 22 49  1  0  0  0  0
 23 50  1  0  0  0  0
 24 33  1  0  0  0  0
 24 25  1  0  0  0  0
 24 26  1  0  0  0  0
 25 51  1  0  0  0  0
 26 34  1  0  0  0  0
 26 27  1  0  0  0  0
 27 52  1  0  0  0  0
 28 29  1  0  0  0  0
 28 30  1  0  0  0  0
 29 53  1  0  0  0  0
 29 54  1  0  0  0  0
 29 55  1  0  0  0  0
M  END
> <s_m_source_file>
AV-unprocessed.smi

> <i_m_source_file_index>
287

> <i_lp_mmshare_version>
43012

> <i_f3d_flags>
0

> <s_epik_input>
W0NIM11jMVtjSF1jKGMobzEpW0NIM10pW0NAQF0oW0NIM10pKFtPSF0pW0NIMl1bTkhdYyhuW2NIXW4yKWMoYzIzKW5bY0hdbjNbQ0BASF00T1tDQEhdKFtDSDJdW09IXSlbQ0BASF0oW09IXSlbQ0BIXTRbT0hd

> <s_epik_cmdline>
J2VwaWtfcHl0aG9uJywgJy1waCcsICc3LjAnLCAnLXRuJywgJzgnLCAnLW1hJywgJzIwMCcsICctbWV0YWxfYmluZGluZycsICctaW1hZScsICc8aW5maWxlLm1hZT4nLCAnLW9tYWUnLCAnPG91dGZpbGUubWFlPic=

> <r_lp_tautomer_probability>
1

> <r_epik_Ionization_Penalty>
0.000992612

> <r_epik_Ionization_Penalty_Charging>
0

> <r_epik_Ionization_Penalty_Neutral>
0.000992612

> <r_epik_State_Penalty>
-0

> <r_epik_Charging_Adjusted_Penalty>
0

> <i_epik_Tot_Q>
0

> <i_epik_Tot_abs_Q>
0

> <r_epik_Metal_State_Penalty>
-0

> <b_epik_Metal_Only>
0

> <s_epik_Chemistry_Notes>
This compound contains an acetal/aminal-like group ( X-CH(R)-Y where X, Y are N, S, or O) that may be acid/base labile, releasing an aldehyde.

> <s_lp_Force_Field>
OPLS_2005

> <r_lp_Energy>
48.118

> <b_lp_Chiralities_Consistent>
1

> <s_lp_Variant>
AV-unprocessed.smi:287-26

> <Gold.Version>
5.8.1

> <Gold.Id.Protein>
6NUR|6NUR_protein|mol2

> <Gold.PLP.Fitness>
49.8046

> <Gold.PLP.PLP>
-40.5705

> <Gold.PLP.part.hbond>
-4.7382

> <Gold.PLP.part.metal>
0.0000

> <Gold.PLP.part.buried>
-7.2098

> <Gold.PLP.part.nonpolar>
-29.7250

> <Gold.PLP.part.repulsive>
1.3400

> <Gold.PLP.ligand.clash>
0.0000

> <Gold.PLP.ligand.torsion>
0.5292

> <Gold.PLP.Chemscore.Hbond>
2.3500

> <Gold.PLP.Chemscore.CHOScore>
1.0000

> <Gold.PLP.Chemscore.Metal>
0.0000

> <Gold.Chemscore.Hbonds>
donor molecule, donor type, donor heavy atom, donor atom, acceptor molecule, acceptor atom, score
      L1  H     7    42       P1  7948  0.94
      L1  H    27    52       P1  8028  1.00
      P1  H  7989  7998       L1    13  0.35
      L1  C    12    46       P1  7957  0.93

> <Gold.PLP.Chemscore.Internal.Correction>
0.2426

> <Gold.Rescore>
     Score         DG    S(hbond)    S(metal)    S(lipo)     H(rot)  DE(clash)    DE(int)     intcor
      7.38      -8.58       1.90        0.00      87.50       5.27       0.62       0.57       ----

> <Gold.Chemscore.Fitness>
7.3837

> <Gold.Chemscore.DG>
-8.5810

> <Gold.Chemscore.ZeroCoef>
-5.4800

> <Gold.Chemscore.Hbond>
1.9005

> <Gold.Chemscore.Metal>
0.0000

> <Gold.Chemscore.Lipo>
87.4994

> <Gold.Chemscore.Internal_Hbond>
0.0000

> <Gold.Chemscore.DEClash>
0.6226

> <Gold.Chemscore.DEInternal>
0.5748

> <Gold.Chemscore.Rot>
5.2672

> <Gold.Chemscore.Internal.Correction>
   9.000000E+99

> <Gold.Chemscore.Hbonds>
donor molecule, donor type, donor heavy atom, donor atom, acceptor molecule, acceptor atom, score
      L1  H     7    42       P1  7948  0.89
      L1  H    27    52       P1  8028  0.94
      P1  H  7989  7998       L1    13  0.01

> <Gold.Chemscore.Hbond.Weighted>
-6.3475

> <Gold.Chemscore.Metal.Weighted>
-0.0000

> <Gold.Chemscore.Lipo.Weighted>
-10.2374

> <Gold.Chemscore.Internal_Hbond.Weighted>
0.0000

> <Gold.Chemscore.DEClash.Weighted>
0.6226

> <Gold.Chemscore.DEInternal.Weighted>
0.5748

> <Gold.Chemscore.Rot.Weighted>
13.4839

> <Gold.Chemscore.Internal.Correction.Weighted>
   9.000000E+99

> <Gold.Protein.RotatedTorsions>
[ 6907 6896 6895 6894 ] final  -73.47 input  -60.11 | X-H torsion
[ 7974 7965 7964 7962 ] final  151.93 input  175.53 | X-H torsion
[ 8008 7997 7996 7995 ] final  -91.48 input   59.86 | X-H torsion
[ 10167 10162 10161 10158 ] final   26.27 input  -65.29 | X-H torsion
[ 10718 10713 10712 10709 ] final  -30.46 input   66.30 | X-H torsion
[ 10763 10752 10751 10750 ] final -165.39 input  -60.55 | X-H torsion
[ 11005 11000 10999 10996 ] final   38.88 input  -57.11 | X-H torsion

> <Gold.Protein.ActiveResidues>
 VAL166  LYS551  ARG553  GLY616  TRP617  ASP618  TYR619  PRO620  LYS621  CYS622 
 ASP623  PHE694  ASN695  SER759  ASP760  ASP761  ALA762  ILE779  LEU786  VAL792 
 PHE793  MET794  SER795  GLU796  ALA797  LYS798  CYS799  TRP800  GLU811  SER814 

> <Gold.Protein.RotatedAtoms>
  150.7129  134.5011  159.5561 H   0  0  0  0  0  0  0  0  0  0  0  0  # atno 6907 bound_to 6896
  152.2608  134.8033  160.0440 H   0  0  0  0  0  0  0  0  0  0  0  0  # atno 6908 bound_to 6896
  151.8747  133.3447  159.3783 H   0  0  0  0  0  0  0  0  0  0  0  0  # atno 6909 bound_to 6896
  144.8258  139.6602  143.6080 H   0  0  0  0  0  0  0  0  0  0  0  0  # atno 7974 bound_to 7965
  154.7113  140.0519  157.0552 H   0  0  0  0  0  0  0  0  0  0  0  0  # atno 8008 bound_to 7997
  155.0551  140.3183  155.4660 H   0  0  0  0  0  0  0  0  0  0  0  0  # atno 8009 bound_to 7997
  156.2790  140.2109  156.5678 H   0  0  0  0  0  0  0  0  0  0  0  0  # atno 8010 bound_to 7997
  140.5037  144.0273  150.6343 H   0  0  0  0  0  0  0  0  0  0  0  0  # atno 10167 bound_to 10162
  156.3995  130.4387  149.7333 H   0  0  0  0  0  0  0  0  0  0  0  0  # atno 10718 bound_to 10713
  154.6936  135.2975  154.9444 H   0  0  0  0  0  0  0  0  0  0  0  0  # atno 10763 bound_to 10752
  154.0399  135.6659  153.4793 H   0  0  0  0  0  0  0  0  0  0  0  0  # atno 10764 bound_to 10752
  153.0630  135.5105  154.8042 H   0  0  0  0  0  0  0  0  0  0  0  0  # atno 10765 bound_to 10752
  140.2082  134.3787  155.8062 H   0  0  0  0  0  0  0  0  0  0  0  0  # atno 11005 bound_to 11000
  146.2563  139.6309  142.9393 LP  0  0  0  0  0  0  0  0  0  0  0  0  # atno 17320 bound_to 7965
  145.5004  141.0437  143.2543 LP  0  0  0  0  0  0  0  0  0  0  0  0  # atno 17321 bound_to 7965
  140.3577  143.2926  152.0418 LP  0  0  0  0  0  0  0  0  0  0  0  0  # atno 17342 bound_to 10162
  139.4878  144.6327  151.7038 LP  0  0  0  0  0  0  0  0  0  0  0  0  # atno 17343 bound_to 10162
  156.4355  130.7836  151.2856 LP  0  0  0  0  0  0  0  0  0  0  0  0  # atno 17370 bound_to 10713
  157.7503  131.0141  150.3449 LP  0  0  0  0  0  0  0  0  0  0  0  0  # atno 17371 bound_to 10713
  141.2226  133.7129  156.8373 LP  0  0  0  0  0  0  0  0  0  0  0  0  # atno 17394 bound_to 11000
  140.1979  134.8918  157.3136 LP  0  0  0  0  0  0  0  0  0  0  0  0  # atno 17395 bound_to 11000

$$$$
