AV-unprocessed.smi:565|AV-procd|sdf|2954|dock7
  -GOLD-   2262023453D 1   1.00000     0.00000
 Structure written by MMmdl.
 50 51  0  0  0  0  0  0  0  0  2 V2000
  153.1938  137.9552  155.5528 C   0  0  0  0  0  0  0  0  0  0  0  0
  152.0787  138.9548  155.6698 C   0  0  0  0  0  0  0  0  0  0  0  0
  152.2630  140.0500  156.3880 N   0  0  0  0  0  0  0  0  0  0  0  0
  151.0989  140.7230  156.2957 N   0  0  0  0  0  0  0  0  0  0  0  0
  150.9558  141.9920  156.9826 C   0  0  0  0  0  0  0  0  0  0  0  0
  150.1779  140.0539  155.5134 C   0  0  0  0  0  0  0  0  0  0  0  0
  148.8071  140.5940  155.2602 C   0  0  0  0  0  0  0  0  0  0  0  0
  150.7766  138.8961  155.0914 C   0  0  0  0  0  0  0  0  0  0  0  0
  150.2097  137.7980  154.2270 C   0  0  0  0  0  0  0  0  0  0  0  0
  149.4061  136.8321  155.0972 C   0  0  0  0  0  0  0  0  0  0  0  0
  149.4597  136.9147  156.3241 O   0  0  0  0  0  0  0  0  0  0  0  0
  148.6483  135.9325  154.4506 N   0  0  0  0  0  0  0  0  0  0  0  0
  147.7538  134.9794  155.0943 C   0  0  0  0  0  0  0  0  0  0  0  0
  147.6094  133.6971  154.2522 C   0  0  0  0  0  0  0  0  0  0  0  0
  146.9352  133.9440  152.9532 N   0  3  2  0  0  0  0  0  0  0  0  0
  145.7072  134.7657  153.1069 C   0  0  0  0  0  0  0  0  0  0  0  0
  145.1060  135.1242  151.7389 C   0  0  0  0  0  0  0  0  0  0  0  0
  144.8147  133.8607  150.9199 C   0  0  0  0  0  0  0  0  0  0  0  0
  146.0851  133.0028  150.7932 C   0  0  2  0  0  0  0  0  0  0  0  0
  145.8148  131.7157  150.0013 C   0  0  0  0  0  0  0  0  0  0  0  0
  146.6638  132.6960  152.1894 C   0  0  0  0  0  0  0  0  0  0  0  0
  152.8146  136.9353  155.6174 H   0  0  0  0  0  0  0  0  0  0  0  0
  153.9332  138.0810  156.3447 H   0  0  0  0  0  0  0  0  0  0  0  0
  153.7086  138.0580  154.5976 H   0  0  0  0  0  0  0  0  0  0  0  0
  150.0308  141.9965  157.5596 H   0  0  0  0  0  0  0  0  0  0  0  0
  150.9248  142.8009  156.2523 H   0  0  0  0  0  0  0  0  0  0  0  0
  151.7932  142.1590  157.6616 H   0  0  0  0  0  0  0  0  0  0  0  0
  148.3076  140.0485  154.4600 H   0  0  0  0  0  0  0  0  0  0  0  0
  148.8480  141.6441  154.9697 H   0  0  0  0  0  0  0  0  0  0  0  0
  148.1910  140.5140  156.1558 H   0  0  0  0  0  0  0  0  0  0  0  0
  149.5684  138.1932  153.4390 H   0  0  0  0  0  0  0  0  0  0  0  0
  151.0012  137.2452  153.7197 H   0  0  0  0  0  0  0  0  0  0  0  0
  148.6704  135.9331  153.4409 H   0  0  0  0  0  0  0  0  0  0  0  0
  148.1665  134.7363  156.0737 H   0  0  0  0  0  0  0  0  0  0  0  0
  146.7898  135.4562  155.2728 H   0  0  0  0  0  0  0  0  0  0  0  0
  148.5788  133.2285  154.0758 H   0  0  0  0  0  0  0  0  0  0  0  0
  147.0259  132.9806  154.8323 H   0  0  0  0  0  0  0  0  0  0  0  0
  144.9775  134.2231  153.7102 H   0  0  0  0  0  0  0  0  0  0  0  0
  145.9419  135.6858  153.6439 H   0  0  0  0  0  0  0  0  0  0  0  0
  144.1900  135.7003  151.8737 H   0  0  0  0  0  0  0  0  0  0  0  0
  145.7973  135.7659  151.1906 H   0  0  0  0  0  0  0  0  0  0  0  0
  144.0226  133.2859  151.4022 H   0  0  0  0  0  0  0  0  0  0  0  0
  144.4429  134.1363  149.9324 H   0  0  0  0  0  0  0  0  0  0  0  0
  146.8286  133.5785  150.2392 H   0  0  0  0  0  0  0  0  0  0  0  0
  145.0766  131.0888  150.5026 H   0  0  0  0  0  0  0  0  0  0  0  0
  146.7255  131.1279  149.8826 H   0  0  0  0  0  0  0  0  0  0  0  0
  145.4371  131.9407  149.0034 H   0  0  0  0  0  0  0  0  0  0  0  0
  147.5823  132.1219  152.0725 H   0  0  0  0  0  0  0  0  0  0  0  0
  145.9724  132.0682  152.7544 H   0  0  0  0  0  0  0  0  0  0  0  0
  147.5742  134.4966  152.3997 H   0  0  0  0  0  0  0  0  0  0  0  0
  1  2  1  0  0  0  0
  1 22  1  0  0  0  0
  1 23  1  0  0  0  0
  1 24  1  0  0  0  0
  2  8  1  0  0  0  0
  2  3  2  0  0  0  0
  3  4  1  0  0  0  0
  4  5  1  0  0  0  0
  4  6  1  0  0  0  0
  5 25  1  0  0  0  0
  5 26  1  0  0  0  0
  5 27  1  0  0  0  0
  6  7  1  0  0  0  0
  6  8  2  0  0  0  0
  7 28  1  0  0  0  0
  7 29  1  0  0  0  0
  7 30  1  0  0  0  0
  8  9  1  0  0  0  0
  9 10  1  0  0  0  0
  9 31  1  0  0  0  0
  9 32  1  0  0  0  0
 10 11  2  0  0  0  0
 10 12  1  0  0  0  0
 12 13  1  0  0  0  0
 12 33  1  0  0  0  0
 13 14  1  0  0  0  0
 13 34  1  0  0  0  0
 13 35  1  0  0  0  0
 14 15  1  0  0  0  0
 14 36  1  0  0  0  0
 14 37  1  0  0  0  0
 15 21  1  0  0  0  0
 15 16  1  0  0  0  0
 15 50  1  0  0  0  0
 16 17  1  0  0  0  0
 16 38  1  0  0  0  0
 16 39  1  0  0  0  0
 17 18  1  0  0  0  0
 17 40  1  0  0  0  0
 17 41  1  0  0  0  0
 18 19  1  0  0  0  0
 18 42  1  0  0  0  0
 18 43  1  0  0  0  0
 19 20  1  0  0  0  0
 19 21  1  0  0  0  0
 19 44  1  0  0  0  0
 20 45  1  0  0  0  0
 20 46  1  0  0  0  0
 20 47  1  0  0  0  0
 21 48  1  0  0  0  0
 21 49  1  0  0  0  0
M  CHG  1  15   1
M  END
> <s_m_source_file>
AV-unprocessed.smi

> <i_m_source_file_index>
565

> <i_lp_mmshare_version>
43012

> <i_f3d_flags>
0

> <s_epik_input>
W0NIM11jMW5uKFtDSDNdKWMoW0NIM10pYzFbQ0gyXUMoPU8pW05IXVtDSDJdW0NIMl1OMltDSDJdW0NIMl1bQ0gyXVtDQEBIXShbQ0gzXSlbQ0gyXTI=

> <s_epik_cmdline>
J2VwaWtfcHl0aG9uJywgJy1waCcsICc3LjAnLCAnLXRuJywgJzgnLCAnLW1hJywgJzIwMCcsICctbWV0YWxfYmluZGluZycsICctaW1hZScsICc8aW5maWxlLm1hZT4nLCAnLW9tYWUnLCAnPG91dGZpbGUubWFlPic=

> <r_lp_tautomer_probability>
1

> <r_epik_Ionization_Penalty>
0.00411138

> <r_epik_Ionization_Penalty_Charging>
0.0019503

> <r_epik_Ionization_Penalty_Neutral>
0.00216107

> <r_epik_State_Penalty>
-0

> <r_epik_Charging_Adjusted_Penalty>
0.0019503

> <i_epik_Tot_Q>
1

> <i_epik_Tot_abs_Q>
1

> <r_epik_Metal_State_Penalty>
-0

> <b_epik_Metal_Only>
0

> <s_lp_Force_Field>
OPLS_2005

> <r_lp_Energy>
10.1844

> <b_lp_Chiralities_Consistent>
1

> <s_lp_Variant>
AV-unprocessed.smi:565-4

> <Gold.Version>
5.8.1

> <Gold.Id.Protein>
6NUR|6NUR_protein|mol2

> <Gold.PLP.Fitness>
47.0544

> <Gold.PLP.PLP>
-37.0760

> <Gold.PLP.part.hbond>
-2.9895

> <Gold.PLP.part.metal>
0.0000

> <Gold.PLP.part.buried>
-1.3124

> <Gold.PLP.part.nonpolar>
-33.2217

> <Gold.PLP.part.repulsive>
0.0212

> <Gold.PLP.ligand.clash>
0.0000

> <Gold.PLP.ligand.torsion>
0.6890

> <Gold.PLP.Chemscore.Hbond>
3.7750

> <Gold.PLP.Chemscore.CHOScore>
0.0000

> <Gold.PLP.Chemscore.Metal>
0.0000

> <Gold.Chemscore.Hbonds>
donor molecule, donor type, donor heavy atom, donor atom, acceptor molecule, acceptor atom, score
      L1  H    12    33       P1  7948  1.00
      L1  H    15    50       P1  7948  0.98
      P1  H  7997  8008       L1     3  0.86

> <Gold.PLP.Chemscore.Internal.Correction>
0.0313

> <Gold.Rescore>
     Score         DG    S(hbond)    S(metal)    S(lipo)     H(rot)  DE(clash)    DE(int)     intcor
     19.65     -20.98       2.71        0.00      90.41       1.61       0.91       0.41       ----

> <Gold.Chemscore.Fitness>
19.6496

> <Gold.Chemscore.DG>
-20.9750

> <Gold.Chemscore.ZeroCoef>
-5.4800

> <Gold.Chemscore.Hbond>
2.7096

> <Gold.Chemscore.Metal>
0.0000

> <Gold.Chemscore.Lipo>
90.4054

> <Gold.Chemscore.Internal_Hbond>
0.0000

> <Gold.Chemscore.DEClash>
0.9119

> <Gold.Chemscore.DEInternal>
0.4136

> <Gold.Chemscore.Rot>
1.6142

> <Gold.Chemscore.Internal.Correction>
   9.000000E+99

> <Gold.Chemscore.Hbonds>
donor molecule, donor type, donor heavy atom, donor atom, acceptor molecule, acceptor atom, score
      L1  H    12    33       P1  7948  0.99
      L1  H    15    50       P1  7948  0.35
      P1  H  7997  8008       L1     3  0.25

> <Gold.Chemscore.Hbond.Weighted>
-9.0500

> <Gold.Chemscore.Metal.Weighted>
-0.0000

> <Gold.Chemscore.Lipo.Weighted>
-10.5774

> <Gold.Chemscore.Internal_Hbond.Weighted>
0.0000

> <Gold.Chemscore.DEClash.Weighted>
0.9119

> <Gold.Chemscore.DEInternal.Weighted>
0.4136

> <Gold.Chemscore.Rot.Weighted>
4.1324

> <Gold.Chemscore.Internal.Correction.Weighted>
   9.000000E+99

> <Gold.Protein.RotatedTorsions>
[ 6907 6896 6895 6894 ] final -144.11 input  -60.11 | X-H torsion
[ 7974 7965 7964 7962 ] final  130.82 input  175.53 | X-H torsion
[ 8008 7997 7996 7995 ] final  -53.21 input   59.86 | X-H torsion
[ 10167 10162 10161 10158 ] final   13.62 input  -65.29 | X-H torsion
[ 10718 10713 10712 10709 ] final  -54.10 input   66.30 | X-H torsion
[ 10763 10752 10751 10750 ] final   15.64 input  -60.55 | X-H torsion
[ 11005 11000 10999 10996 ] final  -80.17 input  -57.11 | X-H torsion

> <Gold.Protein.ActiveResidues>
 VAL166  LYS551  ARG553  GLY616  TRP617  ASP618  TYR619  PRO620  LYS621  CYS622 
 ASP623  PHE694  ASN695  SER759  ASP760  ASP761  ALA762  ILE779  LEU786  VAL792 
 PHE793  MET794  SER795  GLU796  ALA797  LYS798  CYS799  TRP800  GLU811  SER814 

> <Gold.Protein.RotatedAtoms>
  151.1096  133.5183  159.2606 H   0  0  0  0  0  0  0  0  0  0  0  0  # atno 6907 bound_to 6896
  151.1982  135.0431  159.8871 H   0  0  0  0  0  0  0  0  0  0  0  0  # atno 6908 bound_to 6896
  152.5449  134.0927  159.8337 H   0  0  0  0  0  0  0  0  0  0  0  0  # atno 6909 bound_to 6896
  145.0138  139.4195  143.5231 H   0  0  0  0  0  0  0  0  0  0  0  0  # atno 7974 bound_to 7965
  154.4127  140.1205  156.5117 H   0  0  0  0  0  0  0  0  0  0  0  0  # atno 8008 bound_to 7997
  155.6792  140.3496  155.4829 H   0  0  0  0  0  0  0  0  0  0  0  0  # atno 8009 bound_to 7997
  155.9566  140.1115  157.0921 H   0  0  0  0  0  0  0  0  0  0  0  0  # atno 8010 bound_to 7997
  140.5990  143.8642  150.6946 H   0  0  0  0  0  0  0  0  0  0  0  0  # atno 10167 bound_to 10162
  156.1479  130.4152  149.9994 H   0  0  0  0  0  0  0  0  0  0  0  0  # atno 10718 bound_to 10713
  153.1506  135.6778  153.8888 H   0  0  0  0  0  0  0  0  0  0  0  0  # atno 10763 bound_to 10752
  153.8315  135.3117  155.3420 H   0  0  0  0  0  0  0  0  0  0  0  0  # atno 10764 bound_to 10752
  154.7859  135.4862  154.0032 H   0  0  0  0  0  0  0  0  0  0  0  0  # atno 10765 bound_to 10752
  141.1668  133.7138  156.8232 H   0  0  0  0  0  0  0  0  0  0  0  0  # atno 11005 bound_to 11000
  146.3474  139.9597  142.8719 LP  0  0  0  0  0  0  0  0  0  0  0  0  # atno 17320 bound_to 7965
  145.1987  140.9845  143.4168 LP  0  0  0  0  0  0  0  0  0  0  0  0  # atno 17321 bound_to 7965
  140.2184  143.3828  152.1663 LP  0  0  0  0  0  0  0  0  0  0  0  0  # atno 17342 bound_to 10162
  139.5278  144.7123  151.5165 LP  0  0  0  0  0  0  0  0  0  0  0  0  # atno 17343 bound_to 10162
  156.7860  130.9239  151.3646 LP  0  0  0  0  0  0  0  0  0  0  0  0  # atno 17370 bound_to 10713
  157.6632  130.8984  149.9875 LP  0  0  0  0  0  0  0  0  0  0  0  0  # atno 17371 bound_to 10713
  140.2104  134.8832  157.3268 LP  0  0  0  0  0  0  0  0  0  0  0  0  # atno 17394 bound_to 11000
  140.2093  134.4158  155.7621 LP  0  0  0  0  0  0  0  0  0  0  0  0  # atno 17395 bound_to 11000

$$$$
