AV-unprocessed.smi:884|AV-procd|sdf|4042|dock5
  -GOLD-   22720 1533D 1   1.00000     0.00000
 Structure written by MMmdl.
 47 49  0  0  0  0  0  0  0  0  1 V2000
  150.2069  140.2351  154.3914 O   0  0  0  0  0  0  0  0  0  0  0  0
  149.4445  141.1583  154.6810 C   0  0  0  0  0  0  0  0  0  0  0  0
  149.8027  142.1482  155.5177 N   0  0  0  0  0  0  0  0  0  0  0  0
  151.0707  142.2425  156.2374 C   0  0  0  0  0  0  0  0  0  0  0  0
  150.9091  141.9677  157.7447 C   0  0  0  0  0  0  0  0  0  0  0  0
  151.3505  143.1182  158.6354 C   0  0  0  0  0  0  0  0  0  0  0  0
  151.6563  144.3785  158.0797 C   0  0  0  0  0  0  0  0  0  0  0  0
  152.0776  145.4083  158.9432 C   0  0  0  0  0  0  0  0  0  0  0  0
  152.1736  145.1406  160.3223 C   0  0  0  0  0  0  0  0  0  0  0  0
  151.8469  143.8482  160.7784 C   0  0  0  0  0  0  0  0  0  0  0  0
  151.4493  142.8517  159.9581 N   0  0  0  0  0  0  0  0  0  0  0  0
  148.1781  141.2504  154.1987 N   0  0  0  0  0  0  0  0  0  0  0  0
  147.0946  142.0737  154.7571 C   0  0  0  0  0  0  0  0  0  0  0  0
  146.1571  141.1738  155.5726 C   0  0  0  0  0  0  0  0  0  0  0  0
  145.3769  139.9179  154.5121 S   0  0  0  0  0  0  0  0  0  0  0  0
  146.8255  139.2210  153.6288 C   0  0  0  0  0  0  0  0  0  0  0  0
  147.6401  138.2883  154.5649 C   0  0  0  0  0  0  0  0  0  0  0  0
  146.8906  137.0031  154.9566 C   0  0  0  0  0  0  0  0  0  0  0  0
  146.4335  136.2260  153.7156 C   0  0  0  0  0  0  0  0  0  0  0  0
  145.5818  137.1131  152.7981 C   0  0  0  0  0  0  0  0  0  0  0  0
  146.3330  138.4002  152.4104 C   0  0  0  0  0  0  0  0  0  0  0  0
  147.6970  140.3948  153.1034 C   0  0  0  0  0  0  0  0  0  0  0  0
  149.1221  142.8698  155.7052 H   0  0  0  0  0  0  0  0  0  0  0  0
  151.8089  141.5546  155.8221 H   0  0  0  0  0  0  0  0  0  0  0  0
  151.4763  143.2434  156.0894 H   0  0  0  0  0  0  0  0  0  0  0  0
  149.8669  141.7329  157.9637 H   0  0  0  0  0  0  0  0  0  0  0  0
  151.4784  141.0760  158.0123 H   0  0  0  0  0  0  0  0  0  0  0  0
  151.5765  144.5511  157.0163 H   0  0  0  0  0  0  0  0  0  0  0  0
  152.3230  146.3857  158.5543 H   0  0  0  0  0  0  0  0  0  0  0  0
  152.4942  145.9056  161.0139 H   0  0  0  0  0  0  0  0  0  0  0  0
  151.9170  143.6051  161.8283 H   0  0  0  0  0  0  0  0  0  0  0  0
  147.4513  142.8963  155.3772 H   0  0  0  0  0  0  0  0  0  0  0  0
  146.5397  142.5542  153.9502 H   0  0  0  0  0  0  0  0  0  0  0  0
  146.7016  140.6807  156.3775 H   0  0  0  0  0  0  0  0  0  0  0  0
  145.3723  141.7692  156.0393 H   0  0  0  0  0  0  0  0  0  0  0  0
  148.5717  138.0084  154.0709 H   0  0  0  0  0  0  0  0  0  0  0  0
  147.9325  138.8145  155.4712 H   0  0  0  0  0  0  0  0  0  0  0  0
  147.5366  136.3731  155.5681 H   0  0  0  0  0  0  0  0  0  0  0  0
  146.0283  137.2480  155.5774 H   0  0  0  0  0  0  0  0  0  0  0  0
  147.3049  135.8639  153.1688 H   0  0  0  0  0  0  0  0  0  0  0  0
  145.8662  135.3443  154.0150 H   0  0  0  0  0  0  0  0  0  0  0  0
  145.3122  136.5594  151.8983 H   0  0  0  0  0  0  0  0  0  0  0  0
  144.6430  137.3612  153.2943 H   0  0  0  0  0  0  0  0  0  0  0  0
  145.6933  139.0172  151.7779 H   0  0  0  0  0  0  0  0  0  0  0  0
  147.1882  138.1239  151.7917 H   0  0  0  0  0  0  0  0  0  0  0  0
  147.1189  141.0014  152.4045 H   0  0  0  0  0  0  0  0  0  0  0  0
  148.5261  140.0072  152.5091 H   0  0  0  0  0  0  0  0  0  0  0  0
  1  2  2  0  0  0  0
  2  3  1  0  0  0  0
  2 12  1  0  0  0  0
  3  4  1  0  0  0  0
  3 23  1  0  0  0  0
  4  5  1  0  0  0  0
  4 24  1  0  0  0  0
  4 25  1  0  0  0  0
  5  6  1  0  0  0  0
  5 26  1  0  0  0  0
  5 27  1  0  0  0  0
  6 11  1  0  0  0  0
  6  7  2  0  0  0  0
  7  8  1  0  0  0  0
  7 28  1  0  0  0  0
  8  9  2  0  0  0  0
  8 29  1  0  0  0  0
  9 10  1  0  0  0  0
  9 30  1  0  0  0  0
 10 11  2  0  0  0  0
 10 31  1  0  0  0  0
 12 22  1  0  0  0  0
 12 13  1  0  0  0  0
 13 14  1  0  0  0  0
 13 32  1  0  0  0  0
 13 33  1  0  0  0  0
 14 15  1  0  0  0  0
 14 34  1  0  0  0  0
 14 35  1  0  0  0  0
 15 16  1  0  0  0  0
 16 21  1  0  0  0  0
 16 17  1  0  0  0  0
 16 22  1  0  0  0  0
 17 18  1  0  0  0  0
 17 36  1  0  0  0  0
 17 37  1  0  0  0  0
 18 19  1  0  0  0  0
 18 38  1  0  0  0  0
 18 39  1  0  0  0  0
 19 20  1  0  0  0  0
 19 40  1  0  0  0  0
 19 41  1  0  0  0  0
 20 21  1  0  0  0  0
 20 42  1  0  0  0  0
 20 43  1  0  0  0  0
 21 44  1  0  0  0  0
 21 45  1  0  0  0  0
 22 46  1  0  0  0  0
 22 47  1  0  0  0  0
M  END
> <s_m_source_file>
AV-unprocessed.smi

> <i_m_source_file_index>
884

> <i_lp_mmshare_version>
43012

> <i_f3d_flags>
0

> <s_epik_input>
bjFbY0hdW2NIXVtjSF1bY0hdYzFbQ0gyXVtDSDJdW05IXUMoPU8pTihbQ0gyXTIpW0NIMl1bQ0gyXVNDMjNbQ0gyXVtDSDJdW0NIMl1bQ0gyXVtDSDJdMw==

> <s_epik_cmdline>
J2VwaWtfcHl0aG9uJywgJy1waCcsICc3LjAnLCAnLXRuJywgJzgnLCAnLW1hJywgJzIwMCcsICctbWV0YWxfYmluZGluZycsICctaW1hZScsICc8aW5maWxlLm1hZT4nLCAnLW9tYWUnLCAnPG91dGZpbGUubWFlPic=

> <r_epik_Ionization_Penalty>
0.0449137

> <r_epik_Ionization_Penalty_Charging>
0

> <r_epik_Ionization_Penalty_Neutral>
0.0449137

> <r_epik_State_Penalty>
0.0380475

> <r_epik_Charging_Adjusted_Penalty>
0.0380475

> <i_epik_Tot_Q>
0

> <i_epik_Tot_abs_Q>
0

> <r_epik_Metal_State_Penalty>
0.0353559

> <b_epik_Metal_Only>
0

> <s_lp_Force_Field>
OPLS_2005

> <r_lp_Energy>
30.1612

> <b_lp_Chiralities_Consistent>
1

> <s_lp_Variant>
AV-unprocessed.smi:884-1

> <Gold.Version>
5.8.1

> <Gold.Id.Protein>
6NUR|6NUR_protein|mol2

> <Gold.PLP.Fitness>
44.0453

> <Gold.PLP.PLP>
-39.7624

> <Gold.PLP.part.hbond>
-2.7160

> <Gold.PLP.part.metal>
0.0000

> <Gold.PLP.part.buried>
0.5128

> <Gold.PLP.part.nonpolar>
-37.1669

> <Gold.PLP.part.repulsive>
0.2950

> <Gold.PLP.ligand.clash>
0.0000

> <Gold.PLP.ligand.torsion>
0.6410

> <Gold.PLP.Chemscore.Hbond>
1.8480

> <Gold.PLP.Chemscore.CHOScore>
0.0000

> <Gold.PLP.Chemscore.Metal>
0.0000

> <Gold.Chemscore.Hbonds>
donor molecule, donor type, donor heavy atom, donor atom, acceptor molecule, acceptor atom, score
      L1  H     3    23       P1  8028  0.85
      P1  H  7989  7998       L1     1  1.00

> <Gold.PLP.Chemscore.Internal.Correction>
0.0208

> <Gold.Rescore>
     Score         DG    S(hbond)    S(metal)    S(lipo)     H(rot)  DE(clash)    DE(int)     intcor
     18.97     -20.21       1.52        0.00     109.52       1.23       0.57       0.67       ----

> <Gold.Chemscore.Fitness>
18.9651

> <Gold.Chemscore.DG>
-20.2133

> <Gold.Chemscore.ZeroCoef>
-5.4800

> <Gold.Chemscore.Hbond>
1.5156

> <Gold.Chemscore.Metal>
0.0000

> <Gold.Chemscore.Lipo>
109.5198

> <Gold.Chemscore.Internal_Hbond>
0.0000

> <Gold.Chemscore.DEClash>
0.5732

> <Gold.Chemscore.DEInternal>
0.6750

> <Gold.Chemscore.Rot>
1.2276

> <Gold.Chemscore.Internal.Correction>
   9.000000E+99

> <Gold.Chemscore.Hbonds>
donor molecule, donor type, donor heavy atom, donor atom, acceptor molecule, acceptor atom, score
      L1  H     3    23       P1  8028  0.83
      P1  H  7989  7998       L1     1  0.71

> <Gold.Chemscore.Hbond.Weighted>
-5.0622

> <Gold.Chemscore.Metal.Weighted>
-0.0000

> <Gold.Chemscore.Lipo.Weighted>
-12.8138

> <Gold.Chemscore.Internal_Hbond.Weighted>
0.0000

> <Gold.Chemscore.DEClash.Weighted>
0.5732

> <Gold.Chemscore.DEInternal.Weighted>
0.6750

> <Gold.Chemscore.Rot.Weighted>
3.1427

> <Gold.Chemscore.Internal.Correction.Weighted>
   9.000000E+99

> <Gold.Protein.RotatedTorsions>
[ 6907 6896 6895 6894 ] final  -17.08 input  -60.11 | X-H torsion
[ 7974 7965 7964 7962 ] final   -9.29 input  175.53 | X-H torsion
[ 8008 7997 7996 7995 ] final  117.50 input   59.86 | X-H torsion
[ 10167 10162 10161 10158 ] final   35.79 input  -65.29 | X-H torsion
[ 10718 10713 10712 10709 ] final  112.32 input   66.30 | X-H torsion
[ 10763 10752 10751 10750 ] final   -6.61 input  -60.55 | X-H torsion
[ 11005 11000 10999 10996 ] final  169.65 input  -57.11 | X-H torsion

> <Gold.Protein.ActiveResidues>
 VAL166  LYS551  ARG553  GLY616  TRP617  ASP618  TYR619  PRO620  LYS621  CYS622 
 ASP623  PHE694  ASN695  SER759  ASP760  ASP761  ALA762  ILE779  LEU786  VAL792 
 PHE793  MET794  SER795  GLU796  ALA797  LYS798  CYS799  TRP800  GLU811  SER814 

> <Gold.Protein.RotatedAtoms>
  151.2988  135.0762  159.9230 H   0  0  0  0  0  0  0  0  0  0  0  0  # atno 6907 bound_to 6896
  152.5302  133.9855  159.7837 H   0  0  0  0  0  0  0  0  0  0  0  0  # atno 6908 bound_to 6896
  151.0138  133.5889  159.2710 H   0  0  0  0  0  0  0  0  0  0  0  0  # atno 6909 bound_to 6896
  146.2256  140.2595  142.8351 H   0  0  0  0  0  0  0  0  0  0  0  0  # atno 7974 bound_to 7965
  156.2497  140.2895  156.0688 H   0  0  0  0  0  0  0  0  0  0  0  0  # atno 8008 bound_to 7997
  155.1694  140.0401  157.2877 H   0  0  0  0  0  0  0  0  0  0  0  0  # atno 8009 bound_to 7997
  154.6336  140.2505  155.7411 H   0  0  0  0  0  0  0  0  0  0  0  0  # atno 8010 bound_to 7997
  140.4188  144.1488  150.6146 H   0  0  0  0  0  0  0  0  0  0  0  0  # atno 10167 bound_to 10162
  157.6399  131.0965  150.6878 H   0  0  0  0  0  0  0  0  0  0  0  0  # atno 10718 bound_to 10713
  153.4148  135.7008  153.6334 H   0  0  0  0  0  0  0  0  0  0  0  0  # atno 10763 bound_to 10752
  153.4813  135.3693  155.2444 H   0  0  0  0  0  0  0  0  0  0  0  0  # atno 10764 bound_to 10752
  154.8719  135.4067  154.3506 H   0  0  0  0  0  0  0  0  0  0  0  0  # atno 10765 bound_to 10752
  140.3000  134.7603  157.3908 H   0  0  0  0  0  0  0  0  0  0  0  0  # atno 11005 bound_to 11000
  144.9350  140.8017  143.5665 LP  0  0  0  0  0  0  0  0  0  0  0  0  # atno 17320 bound_to 7965
  145.2542  139.2019  143.4926 LP  0  0  0  0  0  0  0  0  0  0  0  0  # atno 17321 bound_to 7965
  140.4556  143.2469  151.9289 LP  0  0  0  0  0  0  0  0  0  0  0  0  # atno 17342 bound_to 10162
  139.4782  144.5518  151.8373 LP  0  0  0  0  0  0  0  0  0  0  0  0  # atno 17343 bound_to 10162
  156.7203  130.4678  149.5524 LP  0  0  0  0  0  0  0  0  0  0  0  0  # atno 17370 bound_to 10713
  156.1670  130.6412  151.0790 LP  0  0  0  0  0  0  0  0  0  0  0  0  # atno 17371 bound_to 10713
  140.1118  134.5336  155.8260 LP  0  0  0  0  0  0  0  0  0  0  0  0  # atno 17394 bound_to 11000
  141.2130  133.6727  156.6703 LP  0  0  0  0  0  0  0  0  0  0  0  0  # atno 17395 bound_to 11000

$$$$
