AV-unprocessed.smi:2902|AV-procd|sdf|11154|dock2
  -GOLD-   2272016 33D 1   1.00000     0.00000
 Structure written by MMmdl.
 47 48  0  0  0  0  0  0  0  0  1 V2000
  146.8459  139.1053  152.5381 C   0  0  0  0  0  0  0  0  0  0  0  0
  147.5732  139.1246  153.8884 C   0  0  0  0  0  0  0  0  0  0  0  0
  147.7430  140.5464  154.4548 C   0  0  1  0  0  0  0  0  0  0  0  0
  146.4558  141.0090  154.8642 O   0  0  0  0  0  0  0  0  0  0  0  0
  146.2491  142.4188  154.8543 C   0  0  0  0  0  0  0  0  0  0  0  0
  144.9075  142.8011  155.4959 C   0  0  0  0  0  0  0  0  0  0  0  0
  144.3698  143.9974  154.6949 C   0  0  0  0  0  0  0  0  0  0  0  0
  145.3775  144.2481  153.5676 C   0  0  0  0  0  0  0  0  0  0  0  0
  146.1361  142.9309  153.4202 C   0  0  0  0  0  0  0  0  0  0  0  0
  148.7299  140.5612  155.6340 C   0  0  0  0  0  0  0  0  0  0  0  0
  148.4460  140.0003  156.6926 O   0  0  0  0  0  0  0  0  0  0  0  0
  149.8761  141.2296  155.4355 N   0  0  0  0  0  0  0  0  0  0  0  0
  150.9321  141.4355  156.4256 C   0  0  1  0  0  0  0  0  0  0  0  0
  150.4231  142.4098  157.5049 C   0  0  0  0  0  0  0  0  0  0  0  0
  151.3762  140.0662  157.0041 C   0  0  2  0  0  0  0  0  0  0  0  0
  152.3895  140.1900  158.1574 C   0  0  0  0  0  0  0  0  0  0  0  0
  151.9246  139.2076  155.9601 N   0  0  0  0  0  0  0  0  0  0  0  0
  151.4816  138.0539  155.4540 C   0  0  0  0  0  0  0  0  0  0  0  0
  152.2653  137.5435  154.5149 N   0  0  0  0  0  0  0  0  0  0  0  0
  153.2496  138.4901  154.4997 C   0  0  0  0  0  0  0  0  0  0  0  0
  153.0962  139.5061  155.3489 N   0  0  0  0  0  0  0  0  0  0  0  0
  146.7570  138.0866  152.1602 H   0  0  0  0  0  0  0  0  0  0  0  0
  147.3839  139.6908  151.7924 H   0  0  0  0  0  0  0  0  0  0  0  0
  145.8397  139.5157  152.6251 H   0  0  0  0  0  0  0  0  0  0  0  0
  147.0265  138.5034  154.5994 H   0  0  0  0  0  0  0  0  0  0  0  0
  148.5516  138.6583  153.7632 H   0  0  0  0  0  0  0  0  0  0  0  0
  148.1178  141.1973  153.6620 H   0  0  0  0  0  0  0  0  0  0  0  0
  147.0648  142.9568  155.3414 H   0  0  0  0  0  0  0  0  0  0  0  0
  144.2053  141.9699  155.4181 H   0  0  0  0  0  0  0  0  0  0  0  0
  145.0186  143.0305  156.5557 H   0  0  0  0  0  0  0  0  0  0  0  0
  143.3918  143.7523  154.2788 H   0  0  0  0  0  0  0  0  0  0  0  0
  144.2433  144.8829  155.3178 H   0  0  0  0  0  0  0  0  0  0  0  0
  144.8988  144.5623  152.6399 H   0  0  0  0  0  0  0  0  0  0  0  0
  146.0706  145.0358  153.8660 H   0  0  0  0  0  0  0  0  0  0  0  0
  147.1074  143.0529  152.9400 H   0  0  0  0  0  0  0  0  0  0  0  0
  145.5493  142.2349  152.8188 H   0  0  0  0  0  0  0  0  0  0  0  0
  150.0140  141.6629  154.5337 H   0  0  0  0  0  0  0  0  0  0  0  0
  151.7924  141.8917  155.9318 H   0  0  0  0  0  0  0  0  0  0  0  0
  151.2133  142.6854  158.2026 H   0  0  0  0  0  0  0  0  0  0  0  0
  149.6048  141.9738  158.0788 H   0  0  0  0  0  0  0  0  0  0  0  0
  150.0582  143.3366  157.0610 H   0  0  0  0  0  0  0  0  0  0  0  0
  150.4931  139.5658  157.4064 H   0  0  0  0  0  0  0  0  0  0  0  0
  151.9519  140.6806  159.0263 H   0  0  0  0  0  0  0  0  0  0  0  0
  153.2685  140.7615  157.8583 H   0  0  0  0  0  0  0  0  0  0  0  0
  152.7279  139.2067  158.4861 H   0  0  0  0  0  0  0  0  0  0  0  0
  150.5691  137.5768  155.7799 H   0  0  0  0  0  0  0  0  0  0  0  0
  154.1075  138.4263  153.8467 H   0  0  0  0  0  0  0  0  0  0  0  0
  1  2  1  0  0  0  0
  1 22  1  0  0  0  0
  1 23  1  0  0  0  0
  1 24  1  0  0  0  0
  2  3  1  0  0  0  0
  2 25  1  0  0  0  0
  2 26  1  0  0  0  0
  3  4  1  0  0  0  0
  3 10  1  0  0  0  0
  3 27  1  0  0  0  0
  4  5  1  0  0  0  0
  5  9  1  0  0  0  0
  5  6  1  0  0  0  0
  5 28  1  0  0  0  0
  6  7  1  0  0  0  0
  6 29  1  0  0  0  0
  6 30  1  0  0  0  0
  7  8  1  0  0  0  0
  7 31  1  0  0  0  0
  7 32  1  0  0  0  0
  8  9  1  0  0  0  0
  8 33  1  0  0  0  0
  8 34  1  0  0  0  0
  9 35  1  0  0  0  0
  9 36  1  0  0  0  0
 10 11  2  0  0  0  0
 10 12  1  0  0  0  0
 12 13  1  0  0  0  0
 12 37  1  0  0  0  0
 13 14  1  0  0  0  0
 13 15  1  0  0  0  0
 13 38  1  0  0  0  0
 14 39  1  0  0  0  0
 14 40  1  0  0  0  0
 14 41  1  0  0  0  0
 15 16  1  0  0  0  0
 15 17  1  0  0  0  0
 15 42  1  0  0  0  0
 16 43  1  0  0  0  0
 16 44  1  0  0  0  0
 16 45  1  0  0  0  0
 17 21  1  0  0  0  0
 17 18  1  0  0  0  0
 18 19  2  0  0  0  0
 18 46  1  0  0  0  0
 19 20  1  0  0  0  0
 20 21  2  0  0  0  0
 20 47  1  0  0  0  0
M  END
> <s_m_source_file>
AV-unprocessed.smi

> <i_m_source_file_index>
2902

> <i_lp_mmshare_version>
43012

> <i_f3d_flags>
0

> <s_epik_input>
W0NIMl0xW0NIMl1bQ0gyXVtDSDJdW0NIXTFPW0NAQEhdKFtDSDJdW0NIM10pQyg9TylbTkhdW0NASF0oW0NIM10pW0NASF0oW0NIM10pbjJbY0hdbltjSF1uMg==

> <s_epik_cmdline>
J2VwaWtfcHl0aG9uJywgJy1waCcsICc3LjAnLCAnLXRuJywgJzgnLCAnLW1hJywgJzIwMCcsICctbWV0YWxfYmluZGluZycsICctaW1hZScsICc8aW5maWxlLm1hZT4nLCAnLW9tYWUnLCAnPG91dGZpbGUubWFlPic=

> <r_lp_tautomer_probability>
1

> <r_epik_Ionization_Penalty>
6.95617e-05

> <r_epik_Ionization_Penalty_Charging>
0

> <r_epik_Ionization_Penalty_Neutral>
6.95617e-05

> <r_epik_State_Penalty>
-0

> <r_epik_Charging_Adjusted_Penalty>
0

> <i_epik_Tot_Q>
0

> <i_epik_Tot_abs_Q>
0

> <r_epik_Metal_State_Penalty>
-0

> <b_epik_Metal_Only>
0

> <s_lp_Force_Field>
OPLS_2005

> <r_lp_Energy>
29.0587

> <b_lp_Chiralities_Consistent>
1

> <s_lp_Variant>
AV-unprocessed.smi:2902-4

> <Gold.Version>
5.8.1

> <Gold.Id.Protein>
6NUR|6NUR_protein|mol2

> <Gold.PLP.Fitness>
40.5649

> <Gold.PLP.PLP>
-36.3428

> <Gold.PLP.part.hbond>
-2.2009

> <Gold.PLP.part.metal>
0.0000

> <Gold.PLP.part.buried>
-7.7396

> <Gold.PLP.part.nonpolar>
-27.7605

> <Gold.PLP.part.repulsive>
0.3613

> <Gold.PLP.ligand.clash>
0.0000

> <Gold.PLP.ligand.torsion>
0.6406

> <Gold.PLP.Chemscore.Hbond>
1.7296

> <Gold.PLP.Chemscore.CHOScore>
0.0000

> <Gold.PLP.Chemscore.Metal>
0.0000

> <Gold.Chemscore.Hbonds>
donor molecule, donor type, donor heavy atom, donor atom, acceptor molecule, acceptor atom, score
      P1  H  7997  8009       L1    21  1.00
      P1  H 10752 10764       L1    19  0.70

> <Gold.PLP.Chemscore.Internal.Correction>
0.3145

> <Gold.Rescore>
     Score         DG    S(hbond)    S(metal)    S(lipo)     H(rot)  DE(clash)    DE(int)     intcor
     10.55     -12.66       1.64        0.00      73.51       2.69       0.32       1.79       ----

> <Gold.Chemscore.Fitness>
10.5509

> <Gold.Chemscore.DG>
-12.6618

> <Gold.Chemscore.ZeroCoef>
-5.4800

> <Gold.Chemscore.Hbond>
1.6397

> <Gold.Chemscore.Metal>
0.0000

> <Gold.Chemscore.Lipo>
73.5083

> <Gold.Chemscore.Internal_Hbond>
0.0000

> <Gold.Chemscore.DEClash>
0.3160

> <Gold.Chemscore.DEInternal>
1.7949

> <Gold.Chemscore.Rot>
2.6935

> <Gold.Chemscore.Internal.Correction>
   9.000000E+99

> <Gold.Chemscore.Hbonds>
donor molecule, donor type, donor heavy atom, donor atom, acceptor molecule, acceptor atom, score
      P1  H  7997  8009       L1    21  0.95
      P1  H 10752 10764       L1    19  0.56

> <Gold.Chemscore.Hbond.Weighted>
-5.4767

> <Gold.Chemscore.Metal.Weighted>
-0.0000

> <Gold.Chemscore.Lipo.Weighted>
-8.6005

> <Gold.Chemscore.Internal_Hbond.Weighted>
0.0000

> <Gold.Chemscore.DEClash.Weighted>
0.3160

> <Gold.Chemscore.DEInternal.Weighted>
1.7949

> <Gold.Chemscore.Rot.Weighted>
6.8954

> <Gold.Chemscore.Internal.Correction.Weighted>
   9.000000E+99

> <Gold.Protein.RotatedTorsions>
[ 6907 6896 6895 6894 ] final   24.18 input  -60.11 | X-H torsion
[ 7974 7965 7964 7962 ] final   -6.81 input  175.53 | X-H torsion
[ 8008 7997 7996 7995 ] final -143.59 input   59.86 | X-H torsion
[ 10167 10162 10161 10158 ] final -119.84 input  -65.29 | X-H torsion
[ 10718 10713 10712 10709 ] final  100.81 input   66.30 | X-H torsion
[ 10763 10752 10751 10750 ] final  -84.86 input  -60.55 | X-H torsion
[ 11005 11000 10999 10996 ] final -119.03 input  -57.11 | X-H torsion

> <Gold.Protein.ActiveResidues>
 VAL166  LYS551  ARG553  GLY616  TRP617  ASP618  TYR619  PRO620  LYS621  CYS622 
 ASP623  PHE694  ASN695  SER759  ASP760  ASP761  ALA762  ILE779  LEU786  VAL792 
 PHE793  MET794  SER795  GLU796  ALA797  LYS798  CYS799  TRP800  GLU811  SER814 

> <Gold.Protein.RotatedAtoms>
  151.9535  135.0157  160.0543 H   0  0  0  0  0  0  0  0  0  0  0  0  # atno 6907 bound_to 6896
  152.1932  133.4783  159.5027 H   0  0  0  0  0  0  0  0  0  0  0  0  # atno 6908 bound_to 6896
  150.6939  134.1603  159.4216 H   0  0  0  0  0  0  0  0  0  0  0  0  # atno 6909 bound_to 6896
  146.2322  140.2226  142.8338 H   0  0  0  0  0  0  0  0  0  0  0  0  # atno 7974 bound_to 7965
  155.5131  140.0585  157.2920 H   0  0  0  0  0  0  0  0  0  0  0  0  # atno 8008 bound_to 7997
  154.4545  140.1965  156.0369 H   0  0  0  0  0  0  0  0  0  0  0  0  # atno 8009 bound_to 7997
  156.0771  140.3252  155.7651 H   0  0  0  0  0  0  0  0  0  0  0  0  # atno 8010 bound_to 7997
  140.0423  143.5141  152.2124 H   0  0  0  0  0  0  0  0  0  0  0  0  # atno 10167 bound_to 10162
  157.6845  131.0708  150.5156 H   0  0  0  0  0  0  0  0  0  0  0  0  # atno 10718 bound_to 10713
  154.6044  135.5505  153.7408 H   0  0  0  0  0  0  0  0  0  0  0  0  # atno 10763 bound_to 10752
  153.0168  135.6374  154.1668 H   0  0  0  0  0  0  0  0  0  0  0  0  # atno 10764 bound_to 10752
  154.1607  135.2897  155.3089 H   0  0  0  0  0  0  0  0  0  0  0  0  # atno 10765 bound_to 10752
  141.0244  134.0075  157.3235 H   0  0  0  0  0  0  0  0  0  0  0  0  # atno 11005 bound_to 11000
  144.9620  140.8285  143.5507 LP  0  0  0  0  0  0  0  0  0  0  0  0  # atno 17320 bound_to 7965
  145.2197  139.2165  143.5099 LP  0  0  0  0  0  0  0  0  0  0  0  0  # atno 17321 bound_to 7965
  139.6006  144.7581  151.3181 LP  0  0  0  0  0  0  0  0  0  0  0  0  # atno 17342 bound_to 10162
  140.7254  143.7017  150.7839 LP  0  0  0  0  0  0  0  0  0  0  0  0  # atno 17343 bound_to 10162
  156.5472  130.4222  149.6125 LP  0  0  0  0  0  0  0  0  0  0  0  0  # atno 17370 bound_to 10713
  156.2934  130.7137  151.1991 LP  0  0  0  0  0  0  0  0  0  0  0  0  # atno 17371 bound_to 10713
  139.9167  135.0197  156.7907 LP  0  0  0  0  0  0  0  0  0  0  0  0  # atno 17394 bound_to 11000
  140.6516  133.9726  155.7758 LP  0  0  0  0  0  0  0  0  0  0  0  0  # atno 17395 bound_to 11000

$$$$
