AV-unprocessed.smi:2775|AV-procd|sdf|10699|dock2
  -GOLD-   2272015133D 1   1.00000     0.00000
 Structure written by MMmdl.
 43 46  0  0  0  0  0  0  0  0  2 V2000
  144.4329  132.5015  150.3039 C   0  0  0  0  0  0  0  0  0  0  0  0
  144.4015  133.7387  151.1804 C   0  0  0  0  0  0  0  0  0  0  0  0
  143.1988  134.3029  151.4284 N   0  3  0  0  0  0  0  0  0  0  0  0
  143.0457  135.4002  152.1989 C   0  0  0  0  0  0  0  0  0  0  0  0
  144.1724  136.0123  152.7814 C   0  0  0  0  0  0  0  0  0  0  0  0
  145.4601  135.4716  152.5397 C   0  0  0  0  0  0  0  0  0  0  0  0
  146.6462  136.0162  153.1019 N   0  0  0  0  0  0  0  0  0  0  0  0
  146.7957  136.6803  154.2640 C   0  0  0  0  0  0  0  0  0  0  0  0
  145.8991  136.8685  155.0833 O   0  0  0  0  0  0  0  0  0  0  0  0
  148.0313  137.1750  154.4514 N   0  0  0  0  0  0  0  0  0  0  0  0
  148.5172  137.9407  155.6021 C   0  0  1  0  0  0  0  0  0  0  0  0
  150.0201  137.7410  155.9136 C   0  0  1  0  0  0  0  0  0  0  0  0
  150.9725  137.0480  154.9727 C   0  0  0  0  0  0  0  0  0  0  0  0
  151.3083  138.1402  153.9628 C   0  0  0  0  0  0  0  0  0  0  0  0
  151.2186  139.3567  154.7039 O   0  0  0  0  0  0  0  0  0  0  0  0
  150.2310  139.2425  155.7322 C   0  0  1  0  0  0  0  0  0  0  0  0
  148.7715  139.4218  155.2753 C   0  0  0  0  0  0  0  0  0  0  0  0
  148.4226  140.0734  153.9206 C   0  0  0  0  0  0  0  0  0  0  0  0
  148.1255  141.3686  154.6794 C   0  0  0  0  0  0  0  0  0  0  0  0
  147.9126  140.5145  155.9313 C   0  0  0  0  0  0  0  0  0  0  0  0
  145.5705  134.3094  151.7371 C   0  0  0  0  0  0  0  0  0  0  0  0
  147.1195  133.5978  151.4295 Cl  0  0  0  0  0  0  0  0  0  0  0  0
  145.0472  132.6773  149.4206 H   0  0  0  0  0  0  0  0  0  0  0  0
  143.4326  132.2231  149.9702 H   0  0  0  0  0  0  0  0  0  0  0  0
  144.8524  131.6585  150.8531 H   0  0  0  0  0  0  0  0  0  0  0  0
  142.0320  135.7497  152.3309 H   0  0  0  0  0  0  0  0  0  0  0  0
  144.0284  136.8768  153.4117 H   0  0  0  0  0  0  0  0  0  0  0  0
  147.4539  136.0108  152.4956 H   0  0  0  0  0  0  0  0  0  0  0  0
  148.6920  137.0469  153.6981 H   0  0  0  0  0  0  0  0  0  0  0  0
  147.8985  137.8374  156.4955 H   0  0  0  0  0  0  0  0  0  0  0  0
  150.1523  137.4354  156.9522 H   0  0  0  0  0  0  0  0  0  0  0  0
  151.8747  136.7507  155.5084 H   0  0  0  0  0  0  0  0  0  0  0  0
  150.5634  136.1542  154.5028 H   0  0  0  0  0  0  0  0  0  0  0  0
  152.2951  138.0136  153.5171 H   0  0  0  0  0  0  0  0  0  0  0  0
  150.5734  138.1515  153.1571 H   0  0  0  0  0  0  0  0  0  0  0  0
  150.4841  139.7733  156.6506 H   0  0  0  0  0  0  0  0  0  0  0  0
  149.2406  140.1512  153.2049 H   0  0  0  0  0  0  0  0  0  0  0  0
  147.5264  139.6580  153.4575 H   0  0  0  0  0  0  0  0  0  0  0  0
  148.9967  142.0212  154.7568 H   0  0  0  0  0  0  0  0  0  0  0  0
  147.2422  141.9084  154.3371 H   0  0  0  0  0  0  0  0  0  0  0  0
  146.8720  140.2122  156.0596 H   0  0  0  0  0  0  0  0  0  0  0  0
  148.3227  140.9389  156.8479 H   0  0  0  0  0  0  0  0  0  0  0  0
  142.3675  133.8767  151.0182 H   0  0  0  0  0  0  0  0  0  0  0  0
  1  2  1  0  0  0  0
  1 23  1  0  0  0  0
  1 24  1  0  0  0  0
  1 25  1  0  0  0  0
  2 21  1  0  0  0  0
  2  3  2  0  0  0  0
  3  4  1  0  0  0  0
  3 43  1  0  0  0  0
  4  5  2  0  0  0  0
  4 26  1  0  0  0  0
  5  6  1  0  0  0  0
  5 27  1  0  0  0  0
  6  7  1  0  0  0  0
  6 21  2  0  0  0  0
  7  8  1  0  0  0  0
  7 28  1  0  0  0  0
  8  9  2  0  0  0  0
  8 10  1  0  0  0  0
 10 11  1  0  0  0  0
 10 29  1  0  0  0  0
 11 17  1  0  0  0  0
 11 12  1  0  0  0  0
 11 30  1  0  0  0  0
 12 16  1  0  0  0  0
 12 13  1  0  0  0  0
 12 31  1  0  0  0  0
 13 14  1  0  0  0  0
 13 32  1  0  0  0  0
 13 33  1  0  0  0  0
 14 15  1  0  0  0  0
 14 34  1  0  0  0  0
 14 35  1  0  0  0  0
 15 16  1  0  0  0  0
 16 17  1  0  0  0  0
 16 36  1  0  0  0  0
 17 20  1  0  0  0  0
 17 18  1  0  0  0  0
 18 19  1  0  0  0  0
 18 37  1  0  0  0  0
 18 38  1  0  0  0  0
 19 20  1  0  0  0  0
 19 39  1  0  0  0  0
 19 40  1  0  0  0  0
 20 41  1  0  0  0  0
 20 42  1  0  0  0  0
 21 22  1  0  0  0  0
M  CHG  1   3   1
M  END
> <s_m_source_file>
AV-unprocessed.smi

> <i_m_source_file_index>
2775

> <i_lp_mmshare_version>
43012

> <i_f3d_flags>
0

> <s_epik_input>
W0NIM11jMW5bY0hdW2NIXWMoYzFDbClbTkhdQyg9TylbTkhdW0NAQEhdMltDQEhdKFtDSDJdW0NIMl1PMylbQ0BASF0zQzI0W0NIMl1bQ0gyXVtDSDJdNA==

> <s_epik_cmdline>
J2VwaWtfcHl0aG9uJywgJy1waCcsICc3LjAnLCAnLXRuJywgJzgnLCAnLW1hJywgJzIwMCcsICctbWV0YWxfYmluZGluZycsICctaW1hZScsICc8aW5maWxlLm1hZT4nLCAnLW9tYWUnLCAnPG91dGZpbGUubWFlPic=

> <r_epik_Ionization_Penalty>
2.4104

> <r_epik_Ionization_Penalty_Charging>
2.41038

> <r_epik_Ionization_Penalty_Neutral>
1.9872e-05

> <r_epik_State_Penalty>
2.56896

> <r_epik_Charging_Adjusted_Penalty>
4.97934

> <i_epik_Tot_Q>
1

> <i_epik_Tot_abs_Q>
1

> <r_epik_Metal_State_Penalty>
2.57906

> <b_epik_Metal_Only>
0

> <s_lp_Force_Field>
OPLS_2005

> <r_lp_Energy>
62.8505

> <b_lp_Chiralities_Consistent>
1

> <s_lp_Variant>
AV-unprocessed.smi:2775-12

> <Gold.Version>
5.8.1

> <Gold.Id.Protein>
6NUR|6NUR_protein|mol2

> <Gold.PLP.Fitness>
39.9586

> <Gold.PLP.PLP>
-27.5932

> <Gold.PLP.part.hbond>
-4.0000

> <Gold.PLP.part.metal>
0.0000

> <Gold.PLP.part.buried>
-3.9404

> <Gold.PLP.part.nonpolar>
-19.4017

> <Gold.PLP.part.repulsive>
0.1071

> <Gold.PLP.ligand.clash>
0.0000

> <Gold.PLP.ligand.torsion>
0.4315

> <Gold.PLP.Chemscore.Hbond>
4.3554

> <Gold.PLP.Chemscore.CHOScore>
0.0000

> <Gold.PLP.Chemscore.Metal>
0.0000

> <Gold.Chemscore.Hbonds>
donor molecule, donor type, donor heavy atom, donor atom, acceptor molecule, acceptor atom, score
      L1  H     3    43       P1 10186  1.30
      L1  H     7    28       P1  7948  1.00
      L1  H    10    29       P1  7948  0.91
      P1  H  7989  7998       L1    15  1.00

> <Gold.PLP.Chemscore.Internal.Correction>
0.1621

> <Gold.Rescore>
     Score         DG    S(hbond)    S(metal)    S(lipo)     H(rot)  DE(clash)    DE(int)     intcor
     20.22     -23.40       3.19        0.00      84.10       1.00       1.74       1.44       ----

> <Gold.Chemscore.Fitness>
20.2242

> <Gold.Chemscore.DG>
-23.3999

> <Gold.Chemscore.ZeroCoef>
-5.4800

> <Gold.Chemscore.Hbond>
3.1855

> <Gold.Chemscore.Metal>
0.0000

> <Gold.Chemscore.Lipo>
84.1050

> <Gold.Chemscore.Internal_Hbond>
0.0000

> <Gold.Chemscore.DEClash>
1.7356

> <Gold.Chemscore.DEInternal>
1.4401

> <Gold.Chemscore.Rot>
1.0000

> <Gold.Chemscore.Internal.Correction>
   9.000000E+99

> <Gold.Chemscore.Hbonds>
donor molecule, donor type, donor heavy atom, donor atom, acceptor molecule, acceptor atom, score
      L1  H     3    43       P1 10186  0.28
      L1  H     7    28       P1  7948  0.99
      L1  H    10    29       P1  7948  0.83
      P1  H  7989  7998       L1    15  0.64

> <Gold.Chemscore.Hbond.Weighted>
-10.6396

> <Gold.Chemscore.Metal.Weighted>
-0.0000

> <Gold.Chemscore.Lipo.Weighted>
-9.8403

> <Gold.Chemscore.Internal_Hbond.Weighted>
0.0000

> <Gold.Chemscore.DEClash.Weighted>
1.7356

> <Gold.Chemscore.DEInternal.Weighted>
1.4401

> <Gold.Chemscore.Rot.Weighted>
2.5600

> <Gold.Chemscore.Internal.Correction.Weighted>
   9.000000E+99

> <Gold.Protein.RotatedTorsions>
[ 6907 6896 6895 6894 ] final   98.22 input  -60.11 | X-H torsion
[ 7974 7965 7964 7962 ] final  -89.92 input  175.53 | X-H torsion
[ 8008 7997 7996 7995 ] final -168.60 input   59.86 | X-H torsion
[ 10167 10162 10161 10158 ] final  122.43 input  -65.29 | X-H torsion
[ 10718 10713 10712 10709 ] final -165.37 input   66.30 | X-H torsion
[ 10763 10752 10751 10750 ] final -164.47 input  -60.55 | X-H torsion
[ 11005 11000 10999 10996 ] final   41.54 input  -57.11 | X-H torsion

> <Gold.Protein.ActiveResidues>
 VAL166  LYS551  ARG553  GLY616  TRP617  ASP618  TYR619  PRO620  LYS621  CYS622 
 ASP623  PHE694  ASN695  SER759  ASP760  ASP761  ALA762  ILE779  LEU786  VAL792 
 PHE793  MET794  SER795  GLU796  ALA797  LYS798  CYS799  TRP800  GLU811  SER814 

> <Gold.Protein.RotatedAtoms>
  152.5412  134.0614  159.8153 H   0  0  0  0  0  0  0  0  0  0  0  0  # atno 6907 bound_to 6896
  151.0741  133.5435  159.2632 H   0  0  0  0  0  0  0  0  0  0  0  0  # atno 6908 bound_to 6896
  151.2287  135.0554  159.9033 H   0  0  0  0  0  0  0  0  0  0  0  0  # atno 6909 bound_to 6896
  145.4334  140.9556  143.2115 H   0  0  0  0  0  0  0  0  0  0  0  0  # atno 7974 bound_to 7965
  155.8936  140.1029  157.1401 H   0  0  0  0  0  0  0  0  0  0  0  0  # atno 8008 bound_to 7997
  154.4018  140.1306  156.4411 H   0  0  0  0  0  0  0  0  0  0  0  0  # atno 8009 bound_to 7997
  155.7505  140.3465  155.5150 H   0  0  0  0  0  0  0  0  0  0  0  0  # atno 8010 bound_to 7997
  139.5859  144.7006  151.3410 H   0  0  0  0  0  0  0  0  0  0  0  0  # atno 10167 bound_to 10162
  156.6524  130.9013  151.3015 H   0  0  0  0  0  0  0  0  0  0  0  0  # atno 10718 bound_to 10713
  154.7025  135.2990  154.9319 H   0  0  0  0  0  0  0  0  0  0  0  0  # atno 10763 bound_to 10752
  154.0247  135.6678  153.4779 H   0  0  0  0  0  0  0  0  0  0  0  0  # atno 10764 bound_to 10752
  153.0692  135.5070  154.8177 H   0  0  0  0  0  0  0  0  0  0  0  0  # atno 10765 bound_to 10752
  140.1825  134.4086  155.8192 H   0  0  0  0  0  0  0  0  0  0  0  0  # atno 11005 bound_to 11000
  144.8168  139.5862  143.7005 LP  0  0  0  0  0  0  0  0  0  0  0  0  # atno 17320 bound_to 7965
  146.2595  139.6378  142.9372 LP  0  0  0  0  0  0  0  0  0  0  0  0  # atno 17321 bound_to 7965
  140.7131  143.7339  150.7603 LP  0  0  0  0  0  0  0  0  0  0  0  0  # atno 17342 bound_to 10162
  140.0883  143.4902  152.2493 LP  0  0  0  0  0  0  0  0  0  0  0  0  # atno 17343 bound_to 10162
  157.7136  130.9470  150.1177 LP  0  0  0  0  0  0  0  0  0  0  0  0  # atno 17370 bound_to 10713
  156.2074  130.3664  149.8713 LP  0  0  0  0  0  0  0  0  0  0  0  0  # atno 17371 bound_to 10713
  141.2223  133.7007  156.7955 LP  0  0  0  0  0  0  0  0  0  0  0  0  # atno 17394 bound_to 11000
  140.2251  134.8728  157.3418 LP  0  0  0  0  0  0  0  0  0  0  0  0  # atno 17395 bound_to 11000

$$$$
