AV-unprocessed.smi:1824|AV-procd|sdf|7409|dock1
  -GOLD-   22720 9 83D 1   1.00000     0.00000
 Structure written by MMmdl.
 45 47  0  0  0  0  0  0  0  0  2 V2000
  146.9012  136.4388  154.6361 C   0  0  0  0  0  0  0  0  0  0  0  0
  147.9062  136.5662  155.7937 C   0  0  2  0  0  0  0  0  0  0  0  0
  148.7985  137.8193  155.6936 C   0  0  0  0  0  0  0  0  0  0  0  0
  149.8156  137.7101  154.6529 N   0  0  0  0  0  0  0  0  0  0  0  0
  150.6337  138.9230  154.5979 C   0  0  0  0  0  0  0  0  0  0  0  0
  151.9265  138.8910  155.4371 C   0  0  1  0  0  0  0  0  0  0  0  0
  152.8732  139.7461  154.8273 O   0  0  0  0  0  0  0  0  0  0  0  0
  151.6701  139.3550  156.8842 C   0  0  0  0  0  0  0  0  0  0  0  0
  151.3131  140.7785  156.9741 N   0  0  0  0  0  0  0  0  0  0  0  0
  150.6175  141.5549  156.0997 C   0  0  0  0  0  0  0  0  0  0  0  0
  150.5480  142.8084  156.6273 N   0  3  0  0  0  0  0  0  0  0  0  0
  151.2073  142.8335  157.8584 C   0  0  0  0  0  0  0  0  0  0  0  0
  151.4035  143.8696  158.7658 C   0  0  0  0  0  0  0  0  0  0  0  0
  152.1218  143.5590  159.9392 C   0  0  0  0  0  0  0  0  0  0  0  0
  152.3404  144.5304  160.8568 F   0  0  0  0  0  0  0  0  0  0  0  0
  152.6150  142.2583  160.1750 C   0  0  0  0  0  0  0  0  0  0  0  0
  153.2979  142.0022  161.3159 F   0  0  0  0  0  0  0  0  0  0  0  0
  152.4112  141.2165  159.2463 C   0  0  0  0  0  0  0  0  0  0  0  0
  151.7007  141.5321  158.0887 C   0  0  0  0  0  0  0  0  0  0  0  0
  150.6049  136.5044  154.8910 C   0  0  0  0  0  0  0  0  0  0  0  0
  149.7270  135.2401  154.9352 C   0  0  1  0  0  0  0  0  0  0  0  0
  150.5392  133.9867  155.2782 C   0  0  0  0  0  0  0  0  0  0  0  0
  148.7144  135.3962  155.9275 O   0  0  0  0  0  0  0  0  0  0  0  0
  146.2235  137.2925  154.6165 H   0  0  0  0  0  0  0  0  0  0  0  0
  146.2954  135.5390  154.7443 H   0  0  0  0  0  0  0  0  0  0  0  0
  147.3954  136.3945  153.6659 H   0  0  0  0  0  0  0  0  0  0  0  0
  147.3240  136.6428  156.7124 H   0  0  0  0  0  0  0  0  0  0  0  0
  148.1741  138.6958  155.5159 H   0  0  0  0  0  0  0  0  0  0  0  0
  149.2845  137.9809  156.6573 H   0  0  0  0  0  0  0  0  0  0  0  0
  150.9128  139.1223  153.5619 H   0  0  0  0  0  0  0  0  0  0  0  0
  150.0257  139.7747  154.9065 H   0  0  0  0  0  0  0  0  0  0  0  0
  152.3435  137.8854  155.4710 H   0  0  0  0  0  0  0  0  0  0  0  0
  152.4902  140.6077  154.7548 H   0  0  0  0  0  0  0  0  0  0  0  0
  150.8940  138.7570  157.3626 H   0  0  0  0  0  0  0  0  0  0  0  0
  152.5722  139.2153  157.4812 H   0  0  0  0  0  0  0  0  0  0  0  0
  150.1968  141.2345  155.1570 H   0  0  0  0  0  0  0  0  0  0  0  0
  151.0266  144.8664  158.5902 H   0  0  0  0  0  0  0  0  0  0  0  0
  152.7878  140.2236  159.4414 H   0  0  0  0  0  0  0  0  0  0  0  0
  151.3501  136.3755  154.1076 H   0  0  0  0  0  0  0  0  0  0  0  0
  151.1525  136.6017  155.8299 H   0  0  0  0  0  0  0  0  0  0  0  0
  149.2593  135.0885  153.9618 H   0  0  0  0  0  0  0  0  0  0  0  0
  151.3241  133.8133  154.5417 H   0  0  0  0  0  0  0  0  0  0  0  0
  149.9014  133.1027  155.2976 H   0  0  0  0  0  0  0  0  0  0  0  0
  151.0118  134.0782  156.2567 H   0  0  0  0  0  0  0  0  0  0  0  0
  150.0829  143.5872  156.1781 H   0  0  0  0  0  0  0  0  0  0  0  0
  1  2  1  0  0  0  0
  1 24  1  0  0  0  0
  1 25  1  0  0  0  0
  1 26  1  0  0  0  0
  2 23  1  0  0  0  0
  2  3  1  0  0  0  0
  2 27  1  0  0  0  0
  3  4  1  0  0  0  0
  3 28  1  0  0  0  0
  3 29  1  0  0  0  0
  4  5  1  0  0  0  0
  4 20  1  0  0  0  0
  5  6  1  0  0  0  0
  5 30  1  0  0  0  0
  5 31  1  0  0  0  0
  6  7  1  0  0  0  0
  6  8  1  0  0  0  0
  6 32  1  0  0  0  0
  7 33  1  0  0  0  0
  8  9  1  0  0  0  0
  8 34  1  0  0  0  0
  8 35  1  0  0  0  0
  9 19  1  0  0  0  0
  9 10  1  0  0  0  0
 10 11  2  0  0  0  0
 10 36  1  0  0  0  0
 11 12  1  0  0  0  0
 11 45  1  0  0  0  0
 12 19  2  0  0  0  0
 12 13  1  0  0  0  0
 13 14  2  0  0  0  0
 13 37  1  0  0  0  0
 14 15  1  0  0  0  0
 14 16  1  0  0  0  0
 16 17  1  0  0  0  0
 16 18  2  0  0  0  0
 18 19  1  0  0  0  0
 18 38  1  0  0  0  0
 20 21  1  0  0  0  0
 20 39  1  0  0  0  0
 20 40  1  0  0  0  0
 21 22  1  0  0  0  0
 21 23  1  0  0  0  0
 21 41  1  0  0  0  0
 22 42  1  0  0  0  0
 22 43  1  0  0  0  0
 22 44  1  0  0  0  0
M  CHG  1  11   1
M  END
> <s_m_source_file>
AV-unprocessed.smi

> <i_m_source_file_index>
1824

> <i_lp_mmshare_version>
43012

> <i_f3d_flags>
0

> <s_epik_input>
W0NIM11bQ0BASF0xW0NIMl1OKFtDSDJdW0NASF0oTzEpW0NIM10pW0NIMl1bQ0BIXShbT0hdKVtDSDJdbihbY0hdbjIpYyhjMjMpW2NIXWMoRiljKEYpW2NIXTM=

> <s_epik_cmdline>
J2VwaWtfcHl0aG9uJywgJy1waCcsICc3LjAnLCAnLXRuJywgJzgnLCAnLW1hJywgJzIwMCcsICctbWV0YWxfYmluZGluZycsICctaW1hZScsICc8aW5maWxlLm1hZT4nLCAnLW9tYWUnLCAnPG91dGZpbGUubWFlPic=

> <r_epik_Ionization_Penalty>
2.58709

> <r_epik_Ionization_Penalty_Charging>
2.37273

> <r_epik_Ionization_Penalty_Neutral>
0.214359

> <r_epik_State_Penalty>
2.71799

> <r_epik_Charging_Adjusted_Penalty>
5.09071

> <i_epik_Tot_Q>
1

> <i_epik_Tot_abs_Q>
1

> <r_epik_Metal_State_Penalty>
6.80217

> <b_epik_Metal_Only>
0

> <s_lp_Force_Field>
OPLS_2005

> <r_lp_Energy>
35.2621

> <b_lp_Chiralities_Consistent>
1

> <s_lp_Variant>
AV-unprocessed.smi:1824-17

> <Gold.Version>
5.8.1

> <Gold.Id.Protein>
6NUR|6NUR_protein|mol2

> <Gold.PLP.Fitness>
53.9205

> <Gold.PLP.PLP>
-46.9719

> <Gold.PLP.part.hbond>
-3.0000

> <Gold.PLP.part.metal>
0.0000

> <Gold.PLP.part.buried>
-6.9911

> <Gold.PLP.part.nonpolar>
-38.1047

> <Gold.PLP.part.repulsive>
0.3261

> <Gold.PLP.ligand.clash>
0.0000

> <Gold.PLP.ligand.torsion>
1.1415

> <Gold.PLP.Chemscore.Hbond>
3.0000

> <Gold.PLP.Chemscore.CHOScore>
0.0000

> <Gold.PLP.Chemscore.Metal>
0.0000

> <Gold.Chemscore.Hbonds>
donor molecule, donor type, donor heavy atom, donor atom, acceptor molecule, acceptor atom, score
      L1  H    11    45       P1  8028  2.00
      P1  H  7997  8008       L1     7  0.95

> <Gold.PLP.Chemscore.Internal.Correction>
0.2316

> <Gold.Rescore>
     Score         DG    S(hbond)    S(metal)    S(lipo)     H(rot)  DE(clash)    DE(int)     intcor
     15.01     -16.10       1.58        0.00      96.58       2.32       0.01       1.08       ----

> <Gold.Chemscore.Fitness>
15.0057

> <Gold.Chemscore.DG>
-16.1004

> <Gold.Chemscore.ZeroCoef>
-5.4800

> <Gold.Chemscore.Hbond>
1.5756

> <Gold.Chemscore.Metal>
0.0000

> <Gold.Chemscore.Lipo>
96.5771

> <Gold.Chemscore.Internal_Hbond>
0.0000

> <Gold.Chemscore.DEClash>
0.0126

> <Gold.Chemscore.DEInternal>
1.0821

> <Gold.Chemscore.Rot>
2.3210

> <Gold.Chemscore.Internal.Correction>
   9.000000E+99

> <Gold.Chemscore.Hbonds>
donor molecule, donor type, donor heavy atom, donor atom, acceptor molecule, acceptor atom, score
      L1  H    11    45       P1  8028  1.00
      P1  H  7997  8008       L1     7  0.17

> <Gold.Chemscore.Hbond.Weighted>
-5.2625

> <Gold.Chemscore.Metal.Weighted>
-0.0000

> <Gold.Chemscore.Lipo.Weighted>
-11.2995

> <Gold.Chemscore.Internal_Hbond.Weighted>
0.0000

> <Gold.Chemscore.DEClash.Weighted>
0.0126

> <Gold.Chemscore.DEInternal.Weighted>
1.0821

> <Gold.Chemscore.Rot.Weighted>
5.9416

> <Gold.Chemscore.Internal.Correction.Weighted>
   9.000000E+99

> <Gold.Protein.RotatedTorsions>
[ 6907 6896 6895 6894 ] final   31.12 input  -60.11 | X-H torsion
[ 7974 7965 7964 7962 ] final  -90.53 input  175.53 | X-H torsion
[ 8008 7997 7996 7995 ] final  -27.11 input   59.86 | X-H torsion
[ 10167 10162 10161 10158 ] final  158.74 input  -65.29 | X-H torsion
[ 10718 10713 10712 10709 ] final   24.92 input   66.30 | X-H torsion
[ 10763 10752 10751 10750 ] final -179.54 input  -60.55 | X-H torsion
[ 11005 11000 10999 10996 ] final   10.27 input  -57.11 | X-H torsion

> <Gold.Protein.ActiveResidues>
 VAL166  LYS551  ARG553  GLY616  TRP617  ASP618  TYR619  PRO620  LYS621  CYS622 
 ASP623  PHE694  ASN695  SER759  ASP760  ASP761  ALA762  ILE779  LEU786  VAL792 
 PHE793  MET794  SER795  GLU796  ALA797  LYS798  CYS799  TRP800  GLU811  SER814 

> <Gold.Protein.RotatedAtoms>
  152.0557  134.9625  160.0574 H   0  0  0  0  0  0  0  0  0  0  0  0  # atno 6907 bound_to 6896
  152.1009  133.4244  159.4594 H   0  0  0  0  0  0  0  0  0  0  0  0  # atno 6908 bound_to 6896
  150.6839  134.2681  159.4620 H   0  0  0  0  0  0  0  0  0  0  0  0  # atno 6909 bound_to 6896
  145.4252  140.9553  143.2159 H   0  0  0  0  0  0  0  0  0  0  0  0  # atno 7974 bound_to 7965
  154.4393  140.1881  156.0880 H   0  0  0  0  0  0  0  0  0  0  0  0  # atno 8008 bound_to 7997
  156.0387  140.3322  155.7194 H   0  0  0  0  0  0  0  0  0  0  0  0  # atno 8009 bound_to 7997
  155.5731  140.0614  157.2792 H   0  0  0  0  0  0  0  0  0  0  0  0  # atno 8010 bound_to 7997
  139.4828  144.4796  151.8462 H   0  0  0  0  0  0  0  0  0  0  0  0  # atno 10167 bound_to 10162
  157.1864  130.6826  149.6133 H   0  0  0  0  0  0  0  0  0  0  0  0  # atno 10718 bound_to 10713
  154.5338  135.2801  155.1157 H   0  0  0  0  0  0  0  0  0  0  0  0  # atno 10763 bound_to 10752
  154.2666  135.6311  153.5298 H   0  0  0  0  0  0  0  0  0  0  0  0  # atno 10764 bound_to 10752
  152.9963  135.5618  154.5858 H   0  0  0  0  0  0  0  0  0  0  0  0  # atno 10765 bound_to 10752
  140.5164  134.0602  155.7832 H   0  0  0  0  0  0  0  0  0  0  0  0  # atno 11005 bound_to 11000
  144.8219  139.5777  143.6983 LP  0  0  0  0  0  0  0  0  0  0  0  0  # atno 17320 bound_to 7965
  146.2636  139.6467  142.9345 LP  0  0  0  0  0  0  0  0  0  0  0  0  # atno 17321 bound_to 7965
  140.4271  144.2165  150.5887 LP  0  0  0  0  0  0  0  0  0  0  0  0  # atno 17342 bound_to 10162
  140.4816  143.2377  151.8947 LP  0  0  0  0  0  0  0  0  0  0  0  0  # atno 17343 bound_to 10162
  155.9717  130.4629  150.6164 LP  0  0  0  0  0  0  0  0  0  0  0  0  # atno 17370 bound_to 10713
  157.3903  131.0794  151.1399 LP  0  0  0  0  0  0  0  0  0  0  0  0  # atno 17371 bound_to 10713
  141.1358  133.9224  157.2437 LP  0  0  0  0  0  0  0  0  0  0  0  0  # atno 17394 bound_to 11000
  139.9630  135.0149  156.9312 LP  0  0  0  0  0  0  0  0  0  0  0  0  # atno 17395 bound_to 11000

$$$$
