AV-unprocessed.smi:2010|AV-procd|sdf|8150|dock8
  -GOLD-   2272010393D 1   1.00000     0.00000
 Structure written by MMmdl.
 41 42  0  0  0  0  0  0  0  0  1 V2000
  151.7789  145.1791  159.8990 C   0  0  0  0  0  0  0  0  0  0  0  0
  151.3711  143.8234  159.3056 C   0  0  0  0  0  0  0  0  0  0  0  0
  152.3638  142.7149  159.6817 C   0  0  0  0  0  0  0  0  0  0  0  0
  151.9480  141.3576  159.0904 C   0  0  0  0  0  0  0  0  0  0  0  0
  151.7498  141.4387  157.6294 N   0  0  0  0  0  0  0  0  0  0  0  0
  151.7196  139.9558  156.7324 S   0  0  0  0  0  0  0  0  0  0  0  0
  151.2635  140.2335  155.3617 O   0  0  0  0  0  0  0  0  0  0  0  0
  152.9622  139.2097  156.9825 O   0  0  0  0  0  0  0  0  0  0  0  0
  150.4399  139.1682  157.5735 N   0  0  0  0  0  0  0  0  0  0  0  0
  149.1694  138.9181  156.8900 C   0  0  1  0  0  0  0  0  0  0  0  0
  148.4186  137.7835  157.6034 C   0  0  0  0  0  0  0  0  0  0  0  0
  148.3723  140.2342  156.7706 C   0  0  0  0  0  0  0  0  0  0  0  0
  147.9307  140.5258  155.4162 N   0  0  0  0  0  0  0  0  0  0  0  0
  148.3026  141.5767  154.6040 C   0  0  0  0  0  0  0  0  0  0  0  0
  147.6288  141.4383  153.4247 C   0  0  0  0  0  0  0  0  0  0  0  0
  146.8633  140.2534  153.6106 C   0  0  0  0  0  0  0  0  0  0  0  0
  147.0471  139.7084  154.8024 N   0  0  0  0  0  0  0  0  0  0  0  0
  150.8490  142.5226  157.1886 C   0  0  0  0  0  0  0  0  0  0  0  0
  151.2666  143.8804  157.7757 C   0  0  0  0  0  0  0  0  0  0  0  0
  152.7553  145.4957  159.5305 H   0  0  0  0  0  0  0  0  0  0  0  0
  151.8325  145.1306  160.9868 H   0  0  0  0  0  0  0  0  0  0  0  0
  151.0574  145.9539  159.6388 H   0  0  0  0  0  0  0  0  0  0  0  0
  150.3920  143.5617  159.7092 H   0  0  0  0  0  0  0  0  0  0  0  0
  153.3614  142.9753  159.3249 H   0  0  0  0  0  0  0  0  0  0  0  0
  152.4378  142.6313  160.7663 H   0  0  0  0  0  0  0  0  0  0  0  0
  152.7142  140.6164  159.3172 H   0  0  0  0  0  0  0  0  0  0  0  0
  151.0243  141.0103  159.5547 H   0  0  0  0  0  0  0  0  0  0  0  0
  150.7626  138.3741  158.1256 H   0  0  0  0  0  0  0  0  0  0  0  0
  149.3909  138.5815  155.8764 H   0  0  0  0  0  0  0  0  0  0  0  0
  147.4647  137.5812  157.1158 H   0  0  0  0  0  0  0  0  0  0  0  0
  148.2146  138.0256  158.6467 H   0  0  0  0  0  0  0  0  0  0  0  0
  148.9995  136.8610  157.5863 H   0  0  0  0  0  0  0  0  0  0  0  0
  147.4951  140.2031  157.4184 H   0  0  0  0  0  0  0  0  0  0  0  0
  148.9814  141.0674  157.1244 H   0  0  0  0  0  0  0  0  0  0  0  0
  149.0051  142.3285  154.9322 H   0  0  0  0  0  0  0  0  0  0  0  0
  147.6765  142.0840  152.5605 H   0  0  0  0  0  0  0  0  0  0  0  0
  146.1845  139.7756  152.9196 H   0  0  0  0  0  0  0  0  0  0  0  0
  150.8516  142.5844  156.1004 H   0  0  0  0  0  0  0  0  0  0  0  0
  149.8289  142.2794  157.4885 H   0  0  0  0  0  0  0  0  0  0  0  0
  150.5456  144.6423  157.4776 H   0  0  0  0  0  0  0  0  0  0  0  0
  152.2252  144.1806  157.3496 H   0  0  0  0  0  0  0  0  0  0  0  0
  1  2  1  0  0  0  0
  1 20  1  0  0  0  0
  1 21  1  0  0  0  0
  1 22  1  0  0  0  0
  2 19  1  0  0  0  0
  2  3  1  0  0  0  0
  2 23  1  0  0  0  0
  3  4  1  0  0  0  0
  3 24  1  0  0  0  0
  3 25  1  0  0  0  0
  4  5  1  0  0  0  0
  4 26  1  0  0  0  0
  4 27  1  0  0  0  0
  5  6  1  0  0  0  0
  5 18  1  0  0  0  0
  6  7  2  0  0  0  0
  6  8  2  0  0  0  0
  6  9  1  0  0  0  0
  9 10  1  0  0  0  0
  9 28  1  0  0  0  0
 10 11  1  0  0  0  0
 10 12  1  0  0  0  0
 10 29  1  0  0  0  0
 11 30  1  0  0  0  0
 11 31  1  0  0  0  0
 11 32  1  0  0  0  0
 12 13  1  0  0  0  0
 12 33  1  0  0  0  0
 12 34  1  0  0  0  0
 13 17  1  0  0  0  0
 13 14  1  0  0  0  0
 14 15  2  0  0  0  0
 14 35  1  0  0  0  0
 15 16  1  0  0  0  0
 15 36  1  0  0  0  0
 16 17  2  0  0  0  0
 16 37  1  0  0  0  0
 18 19  1  0  0  0  0
 18 38  1  0  0  0  0
 18 39  1  0  0  0  0
 19 40  1  0  0  0  0
 19 41  1  0  0  0  0
M  END
> <s_m_source_file>
AV-unprocessed.smi

> <i_m_source_file_index>
2010

> <i_lp_mmshare_version>
43012

> <i_f3d_flags>
0

> <s_epik_input>
W0NIM11bQ0hdMVtDSDJdW0NIMl1OKFtDSDJdW0NIMl0xKVMoPU8pKD1PKVtOSF1bQ0BIXShbQ0gzXSlbQ0gyXW4yW2NIXVtjSF1bY0hdbjI=

> <s_epik_cmdline>
J2VwaWtfcHl0aG9uJywgJy1waCcsICc3LjAnLCAnLXRuJywgJzgnLCAnLW1hJywgJzIwMCcsICctbWV0YWxfYmluZGluZycsICctaW1hZScsICc8aW5maWxlLm1hZT4nLCAnLW9tYWUnLCAnPG91dGZpbGUubWFlPic=

> <r_lp_tautomer_probability>
1

> <r_epik_Ionization_Penalty>
0.0313937

> <r_epik_Ionization_Penalty_Charging>
0

> <r_epik_Ionization_Penalty_Neutral>
0.0313937

> <r_epik_State_Penalty>
0.0259441

> <r_epik_Charging_Adjusted_Penalty>
0.0259441

> <i_epik_Tot_Q>
0

> <i_epik_Tot_abs_Q>
0

> <r_epik_Metal_State_Penalty>
0.365037

> <b_epik_Metal_Only>
0

> <s_lp_Force_Field>
OPLS_2005

> <r_lp_Energy>
7.16397

> <b_lp_Chiralities_Consistent>
1

> <s_lp_Variant>
AV-unprocessed.smi:2010-2

> <Gold.Version>
5.8.1

> <Gold.Id.Protein>
6NUR|6NUR_protein|mol2

> <Gold.PLP.Fitness>
45.2674

> <Gold.PLP.PLP>
-35.1834

> <Gold.PLP.part.hbond>
-2.0000

> <Gold.PLP.part.metal>
0.0000

> <Gold.PLP.part.buried>
-5.3607

> <Gold.PLP.part.nonpolar>
-26.9600

> <Gold.PLP.part.repulsive>
0.0829

> <Gold.PLP.ligand.clash>
0.0000

> <Gold.PLP.ligand.torsion>
2.0164

> <Gold.PLP.Chemscore.Hbond>
2.0000

> <Gold.PLP.Chemscore.CHOScore>
2.0000

> <Gold.PLP.Chemscore.Metal>
0.0000

> <Gold.Chemscore.Hbonds>
donor molecule, donor type, donor heavy atom, donor atom, acceptor molecule, acceptor atom, score
      P1  H  7989  7998       L1     7  1.00
      P1  H  7997  8010       L1     8  1.00
      L1  C    14    35       P1  8028  1.00
      L1  C    16    37       P1 10175  0.69

> <Gold.PLP.Chemscore.Internal.Correction>
2.1168

> <Gold.Rescore>
     Score         DG    S(hbond)    S(metal)    S(lipo)     H(rot)  DE(clash)    DE(int)     intcor
     16.35     -18.31       1.93        0.00      89.45       1.59       0.12       1.85       ----

> <Gold.Chemscore.Fitness>
16.3455

> <Gold.Chemscore.DG>
-18.3122

> <Gold.Chemscore.ZeroCoef>
-5.4800

> <Gold.Chemscore.Hbond>
1.9273

> <Gold.Chemscore.Metal>
0.0000

> <Gold.Chemscore.Lipo>
89.4495

> <Gold.Chemscore.Internal_Hbond>
0.0000

> <Gold.Chemscore.DEClash>
0.1179

> <Gold.Chemscore.DEInternal>
1.8489

> <Gold.Chemscore.Rot>
1.5901

> <Gold.Chemscore.Internal.Correction>
   9.000000E+99

> <Gold.Chemscore.Hbonds>
donor molecule, donor type, donor heavy atom, donor atom, acceptor molecule, acceptor atom, score
      P1  H  7989  7998       L1     7  0.92
      P1  H  7997  8010       L1     8  0.94

> <Gold.Chemscore.Hbond.Weighted>
-6.4373

> <Gold.Chemscore.Metal.Weighted>
-0.0000

> <Gold.Chemscore.Lipo.Weighted>
-10.4656

> <Gold.Chemscore.Internal_Hbond.Weighted>
0.0000

> <Gold.Chemscore.DEClash.Weighted>
0.1179

> <Gold.Chemscore.DEInternal.Weighted>
1.8489

> <Gold.Chemscore.Rot.Weighted>
4.0707

> <Gold.Chemscore.Internal.Correction.Weighted>
   9.000000E+99

> <Gold.Protein.RotatedTorsions>
[ 6907 6896 6895 6894 ] final  -95.28 input  -60.11 | X-H torsion
[ 7974 7965 7964 7962 ] final  156.03 input  175.53 | X-H torsion
[ 8008 7997 7996 7995 ] final   53.22 input   59.86 | X-H torsion
[ 10167 10162 10161 10158 ] final  -52.34 input  -65.29 | X-H torsion
[ 10718 10713 10712 10709 ] final -130.31 input   66.30 | X-H torsion
[ 10763 10752 10751 10750 ] final   56.31 input  -60.55 | X-H torsion
[ 11005 11000 10999 10996 ] final  152.04 input  -57.11 | X-H torsion

> <Gold.Protein.ActiveResidues>
 VAL166  LYS551  ARG553  GLY616  TRP617  ASP618  TYR619  PRO620  LYS621  CYS622 
 ASP623  PHE694  ASN695  SER759  ASP760  ASP761  ALA762  ILE779  LEU786  VAL792 
 PHE793  MET794  SER795  GLU796  ALA797  LYS798  CYS799  TRP800  GLU811  SER814 

> <Gold.Protein.RotatedAtoms>
  150.6960  134.1682  159.4201 H   0  0  0  0  0  0  0  0  0  0  0  0  # atno 6907 bound_to 6896
  151.9661  135.0097  160.0559 H   0  0  0  0  0  0  0  0  0  0  0  0  # atno 6908 bound_to 6896
  152.1884  133.4720  159.5031 H   0  0  0  0  0  0  0  0  0  0  0  0  # atno 6909 bound_to 6896
  144.7988  139.7149  143.6190 H   0  0  0  0  0  0  0  0  0  0  0  0  # atno 7974 bound_to 7965
  155.4647  140.3463  155.4317 H   0  0  0  0  0  0  0  0  0  0  0  0  # atno 8008 bound_to 7997
  156.1139  140.1468  156.9330 H   0  0  0  0  0  0  0  0  0  0  0  0  # atno 8009 bound_to 7997
  154.4775  140.0880  156.7277 H   0  0  0  0  0  0  0  0  0  0  0  0  # atno 8010 bound_to 7997
  140.6542  143.2587  151.4634 H   0  0  0  0  0  0  0  0  0  0  0  0  # atno 10167 bound_to 10162
  156.2132  130.6932  151.0673 H   0  0  0  0  0  0  0  0  0  0  0  0  # atno 10718 bound_to 10713
  152.9830  135.5681  154.5208 H   0  0  0  0  0  0  0  0  0  0  0  0  # atno 10763 bound_to 10752
  154.4696  135.2784  155.1654 H   0  0  0  0  0  0  0  0  0  0  0  0  # atno 10764 bound_to 10752
  154.3208  135.6269  153.5560 H   0  0  0  0  0  0  0  0  0  0  0  0  # atno 10765 bound_to 10752
  140.1272  134.8825  157.2154 H   0  0  0  0  0  0  0  0  0  0  0  0  # atno 11005 bound_to 11000
  146.2264  139.5730  142.9584 LP  0  0  0  0  0  0  0  0  0  0  0  0  # atno 17320 bound_to 7965
  145.5606  141.0405  143.2228 LP  0  0  0  0  0  0  0  0  0  0  0  0  # atno 17321 bound_to 7965
  139.5762  144.1814  152.1906 LP  0  0  0  0  0  0  0  0  0  0  0  0  # atno 17342 bound_to 10162
  140.1125  144.5444  150.6915 LP  0  0  0  0  0  0  0  0  0  0  0  0  # atno 17343 bound_to 10162
  157.7049  131.0760  150.6698 LP  0  0  0  0  0  0  0  0  0  0  0  0  # atno 17370 bound_to 10713
  156.6758  130.4553  149.5643 LP  0  0  0  0  0  0  0  0  0  0  0  0  # atno 17371 bound_to 10713
  140.2888  134.3264  155.7321 LP  0  0  0  0  0  0  0  0  0  0  0  0  # atno 17394 bound_to 11000
  141.2163  133.7522  156.9473 LP  0  0  0  0  0  0  0  0  0  0  0  0  # atno 17395 bound_to 11000

$$$$
