AV-unprocessed.smi:2871|AV-procd|sdf|11032|dock4
  -GOLD-   2272015493D 1   1.00000     0.00000
 Structure written by MMmdl.
 38 40  0  0  0  0  0  0  0  0  1 V2000
  152.1883  143.8390  161.5494 C   0  0  0  0  0  0  0  0  0  0  0  0
  152.4053  143.2981  160.2140 N   0  0  0  0  0  0  0  0  0  0  0  0
  152.2262  144.1471  159.0410 C   0  0  0  0  0  0  0  0  0  0  0  0
  152.8074  141.9543  160.0501 C   0  0  0  0  0  0  0  0  0  0  0  0
  153.8115  141.3650  160.8567 C   0  0  0  0  0  0  0  0  0  0  0  0
  154.1326  140.0136  160.5965 C   0  0  0  0  0  0  0  0  0  0  0  0
  155.1944  139.2675  161.3903 C   0  0  0  0  0  0  0  0  0  0  0  0
  155.7258  140.0344  162.3433 F   0  0  0  0  0  0  0  0  0  0  0  0
  154.6533  138.1932  161.9650 F   0  0  0  0  0  0  0  0  0  0  0  0
  156.1715  138.8725  160.5736 F   0  0  0  0  0  0  0  0  0  0  0  0
  153.5081  139.3137  159.6227 N   0  0  0  0  0  0  0  0  0  0  0  0
  152.5776  139.9553  158.9172 C   0  0  0  0  0  0  0  0  0  0  0  0
  151.9647  139.2127  157.9250 N   0  0  0  0  0  0  0  0  0  0  0  0
  151.2107  139.7811  156.8130 C   0  0  2  0  0  0  0  0  0  0  0  0
  150.1294  138.8416  156.2743 C   0  0  0  0  0  0  0  0  0  0  0  0
  150.4662  138.8009  154.7768 C   0  0  2  0  0  0  0  0  0  0  0  0
  151.7060  137.9407  154.5010 C   0  0  0  0  0  0  0  0  0  0  0  0
  152.8258  138.8285  155.0402 C   0  0  0  0  0  0  0  0  0  0  0  0
  152.0454  140.0538  155.5458 C   0  0  1  0  0  0  0  0  0  0  0  0
  151.0054  140.0981  154.5835 O   0  0  0  0  0  0  0  0  0  0  0  0
  152.2000  141.2264  159.0826 N   0  0  0  0  0  0  0  0  0  0  0  0
  151.3987  143.2877  162.0609 H   0  0  0  0  0  0  0  0  0  0  0  0
  151.8899  144.8867  161.5093 H   0  0  0  0  0  0  0  0  0  0  0  0
  153.1001  143.7756  162.1437 H   0  0  0  0  0  0  0  0  0  0  0  0
  151.4679  143.7311  158.3772 H   0  0  0  0  0  0  0  0  0  0  0  0
  153.1611  144.2333  158.4865 H   0  0  0  0  0  0  0  0  0  0  0  0
  151.9094  145.1518  159.3207 H   0  0  0  0  0  0  0  0  0  0  0  0
  154.3183  141.9116  161.6373 H   0  0  0  0  0  0  0  0  0  0  0  0
  152.1372  138.2180  157.9232 H   0  0  0  0  0  0  0  0  0  0  0  0
  150.7387  140.7079  157.1422 H   0  0  0  0  0  0  0  0  0  0  0  0
  150.1459  137.8472  156.7230 H   0  0  0  0  0  0  0  0  0  0  0  0
  149.1406  139.2708  156.4402 H   0  0  0  0  0  0  0  0  0  0  0  0
  149.6146  138.5664  154.1375 H   0  0  0  0  0  0  0  0  0  0  0  0
  151.6581  136.9701  154.9956 H   0  0  0  0  0  0  0  0  0  0  0  0
  151.8330  137.7739  153.4308 H   0  0  0  0  0  0  0  0  0  0  0  0
  153.4155  138.3451  155.8193 H   0  0  0  0  0  0  0  0  0  0  0  0
  153.5040  139.1128  154.2350 H   0  0  0  0  0  0  0  0  0  0  0  0
  152.6414  140.9655  155.5950 H   0  0  0  0  0  0  0  0  0  0  0  0
  1  2  1  0  0  0  0
  1 22  1  0  0  0  0
  1 23  1  0  0  0  0
  1 24  1  0  0  0  0
  2  3  1  0  0  0  0
  2  4  1  0  0  0  0
  3 25  1  0  0  0  0
  3 26  1  0  0  0  0
  3 27  1  0  0  0  0
  4 21  1  0  0  0  0
  4  5  2  0  0  0  0
  5  6  1  0  0  0  0
  5 28  1  0  0  0  0
  6  7  1  0  0  0  0
  6 11  2  0  0  0  0
  7  8  1  0  0  0  0
  7  9  1  0  0  0  0
  7 10  1  0  0  0  0
 11 12  1  0  0  0  0
 12 13  1  0  0  0  0
 12 21  2  0  0  0  0
 13 14  1  0  0  0  0
 13 29  1  0  0  0  0
 14 19  1  0  0  0  0
 14 15  1  0  0  0  0
 14 30  1  0  0  0  0
 15 16  1  0  0  0  0
 15 31  1  0  0  0  0
 15 32  1  0  0  0  0
 16 20  1  0  0  0  0
 16 17  1  0  0  0  0
 16 33  1  0  0  0  0
 17 18  1  0  0  0  0
 17 34  1  0  0  0  0
 17 35  1  0  0  0  0
 18 19  1  0  0  0  0
 18 36  1  0  0  0  0
 18 37  1  0  0  0  0
 19 20  1  0  0  0  0
 19 38  1  0  0  0  0
M  END
> <s_m_source_file>
AV-unprocessed.smi

> <i_m_source_file_index>
2871

> <i_lp_mmshare_version>
43012

> <i_f3d_flags>
0

> <s_epik_input>
W0NIM11OKFtDSDNdKWMxW2NIXWMoQyhGKShGKUYpbmMobjEpW05IXVtDQEhdKFtDSDJdW0NAQEhdMjMpW0NAQEhdKE8zKVtDSDJdW0NIMl0y

> <s_epik_cmdline>
J2VwaWtfcHl0aG9uJywgJy1waCcsICc3LjAnLCAnLXRuJywgJzgnLCAnLW1hJywgJzIwMCcsICctbWV0YWxfYmluZGluZycsICctaW1hZScsICc8aW5maWxlLm1hZT4nLCAnLW9tYWUnLCAnPG91dGZpbGUubWFlPic=

> <r_lp_tautomer_probability>
1

> <r_epik_Ionization_Penalty>
0.00695968

> <r_epik_Ionization_Penalty_Charging>
0

> <r_epik_Ionization_Penalty_Neutral>
0.00695968

> <r_epik_State_Penalty>
0.0050343

> <r_epik_Charging_Adjusted_Penalty>
0.0050343

> <i_epik_Tot_Q>
0

> <i_epik_Tot_abs_Q>
0

> <r_epik_Metal_State_Penalty>
-0

> <b_epik_Metal_Only>
0

> <s_lp_Force_Field>
OPLS_2005

> <r_lp_Energy>
33.2945

> <b_lp_Chiralities_Consistent>
1

> <s_lp_Variant>
AV-unprocessed.smi:2871-3

> <Gold.Version>
5.8.1

> <Gold.Id.Protein>
6NUR|6NUR_protein|mol2

> <Gold.PLP.Fitness>
45.6048

> <Gold.PLP.PLP>
-44.9195

> <Gold.PLP.part.hbond>
-1.0000

> <Gold.PLP.part.metal>
0.0000

> <Gold.PLP.part.buried>
-5.2727

> <Gold.PLP.part.nonpolar>
-39.2217

> <Gold.PLP.part.repulsive>
0.1543

> <Gold.PLP.ligand.clash>
0.0000

> <Gold.PLP.ligand.torsion>
1.1736

> <Gold.PLP.Chemscore.Hbond>
1.0000

> <Gold.PLP.Chemscore.CHOScore>
0.0000

> <Gold.PLP.Chemscore.Metal>
0.0000

> <Gold.Chemscore.Hbonds>
donor molecule, donor type, donor heavy atom, donor atom, acceptor molecule, acceptor atom, score
      P1  H  7989  7998       L1    20  0.84

> <Gold.PLP.Chemscore.Internal.Correction>
0.0325

> <Gold.Rescore>
     Score         DG    S(hbond)    S(metal)    S(lipo)     H(rot)  DE(clash)    DE(int)     intcor
     15.03     -16.25       0.98        0.00      85.97       1.00       0.00       1.21       ----

> <Gold.Chemscore.Fitness>
15.0315

> <Gold.Chemscore.DG>
-16.2468

> <Gold.Chemscore.ZeroCoef>
-5.4800

> <Gold.Chemscore.Hbond>
0.9785

> <Gold.Chemscore.Metal>
0.0000

> <Gold.Chemscore.Lipo>
85.9704

> <Gold.Chemscore.Internal_Hbond>
0.0000

> <Gold.Chemscore.DEClash>
0.0048

> <Gold.Chemscore.DEInternal>
1.2104

> <Gold.Chemscore.Rot>
1.0000

> <Gold.Chemscore.Internal.Correction>
   9.000000E+99

> <Gold.Chemscore.Hbonds>
donor molecule, donor type, donor heavy atom, donor atom, acceptor molecule, acceptor atom, score
      P1  H  7989  7998       L1    20  0.29

> <Gold.Chemscore.Hbond.Weighted>
-3.2682

> <Gold.Chemscore.Metal.Weighted>
-0.0000

> <Gold.Chemscore.Lipo.Weighted>
-10.0585

> <Gold.Chemscore.Internal_Hbond.Weighted>
0.0000

> <Gold.Chemscore.DEClash.Weighted>
0.0048

> <Gold.Chemscore.DEInternal.Weighted>
1.2104

> <Gold.Chemscore.Rot.Weighted>
2.5600

> <Gold.Chemscore.Internal.Correction.Weighted>
   9.000000E+99

> <Gold.Protein.RotatedTorsions>
[ 6907 6896 6895 6894 ] final -165.83 input  -60.11 | X-H torsion
[ 7974 7965 7964 7962 ] final   75.12 input  175.53 | X-H torsion
[ 8008 7997 7996 7995 ] final  -51.47 input   59.86 | X-H torsion
[ 10167 10162 10161 10158 ] final -159.22 input  -65.29 | X-H torsion
[ 10718 10713 10712 10709 ] final    2.09 input   66.30 | X-H torsion
[ 10763 10752 10751 10750 ] final  -45.45 input  -60.55 | X-H torsion
[ 11005 11000 10999 10996 ] final   38.21 input  -57.11 | X-H torsion

> <Gold.Protein.ActiveResidues>
 VAL166  LYS551  ARG553  GLY616  TRP617  ASP618  TYR619  PRO620  LYS621  CYS622 
 ASP623  PHE694  ASN695  SER759  ASP760  ASP761  ALA762  ILE779  LEU786  VAL792 
 PHE793  MET794  SER795  GLU796  ALA797  LYS798  CYS799  TRP800  GLU811  SER814 

> <Gold.Protein.RotatedAtoms>
  151.4339  133.3662  159.2772 H   0  0  0  0  0  0  0  0  0  0  0  0  # atno 6907 bound_to 6896
  150.9205  134.8624  159.7497 H   0  0  0  0  0  0  0  0  0  0  0  0  # atno 6908 bound_to 6896
  152.4979  134.4276  159.9553 H   0  0  0  0  0  0  0  0  0  0  0  0  # atno 6909 bound_to 6896
  145.7196  139.2644  143.1603 H   0  0  0  0  0  0  0  0  0  0  0  0  # atno 7974 bound_to 7965
  154.4084  140.1247  156.4834 H   0  0  0  0  0  0  0  0  0  0  0  0  # atno 8008 bound_to 7997
  155.7062  140.3494  155.4934 H   0  0  0  0  0  0  0  0  0  0  0  0  # atno 8009 bound_to 7997
  155.9341  140.1075  157.1098 H   0  0  0  0  0  0  0  0  0  0  0  0  # atno 8010 bound_to 7997
  139.6632  143.9875  152.2238 H   0  0  0  0  0  0  0  0  0  0  0  0  # atno 10167 bound_to 10162
  156.8578  130.5576  149.5665 H   0  0  0  0  0  0  0  0  0  0  0  0  # atno 10718 bound_to 10713
  154.0287  135.6659  153.4779 H   0  0  0  0  0  0  0  0  0  0  0  0  # atno 10763 bound_to 10752
  153.0549  135.5062  154.7954 H   0  0  0  0  0  0  0  0  0  0  0  0  # atno 10764 bound_to 10752
  154.6892  135.3058  154.9469 H   0  0  0  0  0  0  0  0  0  0  0  0  # atno 10765 bound_to 10752
  140.2149  134.3710  155.8031 H   0  0  0  0  0  0  0  0  0  0  0  0  # atno 11005 bound_to 11000
  146.0637  140.7943  142.9722 LP  0  0  0  0  0  0  0  0  0  0  0  0  # atno 17320 bound_to 7965
  144.6920  140.3236  143.7228 LP  0  0  0  0  0  0  0  0  0  0  0  0  # atno 17321 bound_to 7965
  139.9620  144.6551  150.8070 LP  0  0  0  0  0  0  0  0  0  0  0  0  # atno 17342 bound_to 10162
  140.7588  143.3116  151.2831 LP  0  0  0  0  0  0  0  0  0  0  0  0  # atno 17343 bound_to 10162
  156.0793  130.5807  150.9533 LP  0  0  0  0  0  0  0  0  0  0  0  0  # atno 17370 bound_to 10713
  157.6267  131.0925  150.8520 LP  0  0  0  0  0  0  0  0  0  0  0  0  # atno 17371 bound_to 10713
  141.2225  133.7162  156.8479 LP  0  0  0  0  0  0  0  0  0  0  0  0  # atno 17394 bound_to 11000
  140.1911  134.8965  157.3061 LP  0  0  0  0  0  0  0  0  0  0  0  0  # atno 17395 bound_to 11000

$$$$
