AV-unprocessed.smi:1645|AV-procd|sdf|6621|dock7
  -GOLD-   22720 7323D 1   1.00000     0.00000
 Structure written by MMmdl.
 55 58  0  0  0  0  0  0  0  0  4 V2000
  146.7708  140.3328  153.7313 O   0  0  0  0  0  0  0  0  0  0  0  0
  147.5361  139.5192  153.2013 C   0  0  0  0  0  0  0  0  0  0  0  0
  148.8400  139.4992  153.5301 N   0  0  0  0  0  0  0  0  0  0  0  0
  149.5283  140.2662  154.5081 C   0  0  0  0  0  0  0  0  0  0  0  0
  150.5504  139.6335  155.2437 C   0  0  0  0  0  0  0  0  0  0  0  0
  151.2440  140.3502  156.2403 C   0  0  0  0  0  0  0  0  0  0  0  0
  150.9010  141.6998  156.5081 C   0  0  0  0  0  0  0  0  0  0  0  0
  151.5418  142.4983  157.4825 N   0  0  0  0  0  0  0  0  0  0  0  0
  151.4440  142.0791  158.8820 C   0  0  0  0  0  0  0  0  0  0  0  0
  152.4986  142.7798  159.7561 C   0  0  0  0  0  0  0  0  0  0  0  0
  152.4394  144.3034  159.5847 C   0  0  0  0  0  0  0  0  0  0  0  0
  152.5860  144.6656  158.1004 C   0  0  0  0  0  0  0  0  0  0  0  0
  151.5284  143.9457  157.2464 C   0  0  0  0  0  0  0  0  0  0  0  0
  149.9006  142.2576  155.7837 N   0  3  0  0  0  0  0  0  0  0  0  0
  149.2126  141.6091  154.8196 C   0  0  0  0  0  0  0  0  0  0  0  0
  147.2335  138.5941  152.2513 N   0  5  0  0  0  0  0  0  0  0  0  0
  146.0187  137.7758  152.2401 C   0  0  1  0  0  0  0  0  0  0  0  0
  145.9792  136.8392  151.0303 C   0  0  0  0  0  0  0  0  0  0  0  0
  145.0762  135.7003  151.5028 C   0  0  0  0  0  0  0  0  0  0  0  0
  145.3890  135.5354  152.9381 N   0  3  2  0  0  0  0  0  0  0  0  0
  144.2933  134.9514  153.7520 C   0  0  0  0  0  0  0  0  0  0  0  0
  144.6917  134.9105  155.2374 C   0  0  0  0  0  0  0  0  0  0  0  0
  145.0771  136.2991  155.7892 C   0  0  0  0  0  0  0  0  0  0  0  0
  145.2082  137.3632  154.6843 C   0  0  0  0  0  0  0  0  0  0  0  0
  145.9668  136.8125  153.4486 C   0  0  2  0  0  0  0  0  0  0  0  0
  149.4155  138.8827  152.9753 H   0  0  0  0  0  0  0  0  0  0  0  0
  150.8075  138.6031  155.0445 H   0  0  0  0  0  0  0  0  0  0  0  0
  152.0213  139.8411  156.7897 H   0  0  0  0  0  0  0  0  0  0  0  0
  150.4419  142.3013  159.2514 H   0  0  0  0  0  0  0  0  0  0  0  0
  151.5920  141.0021  158.9651 H   0  0  0  0  0  0  0  0  0  0  0  0
  152.3504  142.5151  160.8033 H   0  0  0  0  0  0  0  0  0  0  0  0
  153.4927  142.4219  159.4847 H   0  0  0  0  0  0  0  0  0  0  0  0
  151.4908  144.6823  159.9672 H   0  0  0  0  0  0  0  0  0  0  0  0
  153.2268  144.7798  160.1696 H   0  0  0  0  0  0  0  0  0  0  0  0
  152.4991  145.7443  157.9682 H   0  0  0  0  0  0  0  0  0  0  0  0
  153.5836  144.3909  157.7543 H   0  0  0  0  0  0  0  0  0  0  0  0
  151.7108  144.1860  156.1991 H   0  0  0  0  0  0  0  0  0  0  0  0
  150.5352  144.3268  157.4873 H   0  0  0  0  0  0  0  0  0  0  0  0
  148.4318  142.1876  154.3490 H   0  0  0  0  0  0  0  0  0  0  0  0
  145.1049  138.3725  152.2340 H   0  0  0  0  0  0  0  0  0  0  0  0
  145.6048  137.3275  150.1300 H   0  0  0  0  0  0  0  0  0  0  0  0
  146.9742  136.4478  150.8111 H   0  0  0  0  0  0  0  0  0  0  0  0
  144.0235  135.9624  151.3676 H   0  0  0  0  0  0  0  0  0  0  0  0
  145.2555  134.7757  150.9530 H   0  0  0  0  0  0  0  0  0  0  0  0
  143.3806  135.5359  153.6254 H   0  0  0  0  0  0  0  0  0  0  0  0
  144.0760  133.9456  153.3916 H   0  0  0  0  0  0  0  0  0  0  0  0
  143.8810  134.4859  155.8304 H   0  0  0  0  0  0  0  0  0  0  0  0
  145.5377  134.2323  155.3559 H   0  0  0  0  0  0  0  0  0  0  0  0
  144.3385  136.6302  156.5198 H   0  0  0  0  0  0  0  0  0  0  0  0
  146.0197  136.2174  156.3315 H   0  0  0  0  0  0  0  0  0  0  0  0
  144.2046  137.6923  154.4055 H   0  0  0  0  0  0  0  0  0  0  0  0
  145.7112  138.2434  155.0889 H   0  0  0  0  0  0  0  0  0  0  0  0
  146.9831  136.5607  153.7577 H   0  0  0  0  0  0  0  0  0  0  0  0
  146.1543  134.8779  152.9785 H   0  0  0  0  0  0  0  0  0  0  0  0
  149.6497  143.2270  155.9772 H   0  0  0  0  0  0  0  0  0  0  0  0
  1  2  2  0  0  0  0
  2  3  1  0  0  0  0
  2 16  1  0  0  0  0
  3  4  1  0  0  0  0
  3 26  1  0  0  0  0
  4 15  1  0  0  0  0
  4  5  2  0  0  0  0
  5  6  1  0  0  0  0
  5 27  1  0  0  0  0
  6  7  2  0  0  0  0
  6 28  1  0  0  0  0
  7  8  1  0  0  0  0
  7 14  1  0  0  0  0
  8 13  1  0  0  0  0
  8  9  1  0  0  0  0
  9 10  1  0  0  0  0
  9 29  1  0  0  0  0
  9 30  1  0  0  0  0
 10 11  1  0  0  0  0
 10 31  1  0  0  0  0
 10 32  1  0  0  0  0
 11 12  1  0  0  0  0
 11 33  1  0  0  0  0
 11 34  1  0  0  0  0
 12 13  1  0  0  0  0
 12 35  1  0  0  0  0
 12 36  1  0  0  0  0
 13 37  1  0  0  0  0
 13 38  1  0  0  0  0
 14 15  2  0  0  0  0
 14 55  1  0  0  0  0
 15 39  1  0  0  0  0
 16 17  1  0  0  0  0
 17 25  1  0  0  0  0
 17 18  1  0  0  0  0
 17 40  1  0  0  0  0
 18 19  1  0  0  0  0
 18 41  1  0  0  0  0
 18 42  1  0  0  0  0
 19 20  1  0  0  0  0
 19 43  1  0  0  0  0
 19 44  1  0  0  0  0
 20 25  1  0  0  0  0
 20 21  1  0  0  0  0
 20 54  1  0  0  0  0
 21 22  1  0  0  0  0
 21 45  1  0  0  0  0
 21 46  1  0  0  0  0
 22 23  1  0  0  0  0
 22 47  1  0  0  0  0
 22 48  1  0  0  0  0
 23 24  1  0  0  0  0
 23 49  1  0  0  0  0
 23 50  1  0  0  0  0
 24 25  1  0  0  0  0
 24 51  1  0  0  0  0
 24 52  1  0  0  0  0
 25 53  1  0  0  0  0
M  CHG  1  14   1
M  CHG  1  16  -1
M  CHG  1  20   1
M  END
> <s_m_source_file>
AV-unprocessed.smi

> <i_m_source_file_index>
1645

> <i_lp_mmshare_version>
43012

> <i_f3d_flags>
0

> <s_epik_input>
W0NIMl0xW0NIMl1bQ0gyXVtDSDJdW0NASF0oTjEyKVtDQEBIXShbQ0gyXVtDSDJdMilbTkhdQyg9TylbTkhdYzNbY0hdW2NIXWMobltjSF0zKU40W0NIMl1bQ0gyXVtDSDJdW0NIMl1bQ0gyXTQ=

> <s_epik_cmdline>
J2VwaWtfcHl0aG9uJywgJy1waCcsICc3LjAnLCAnLXRuJywgJzgnLCAnLW1hJywgJzIwMCcsICctbWV0YWxfYmluZGluZycsICctaW1hZScsICc8aW5maWxlLm1hZT4nLCAnLW9tYWUnLCAnPG91dGZpbGUubWFlPic=

> <r_lp_tautomer_probability>
0.999994

> <r_epik_Ionization_Penalty>
8.55589

> <r_epik_Ionization_Penalty_Charging>
8.55589

> <r_epik_Ionization_Penalty_Neutral>
3.8092e-06

> <r_epik_State_Penalty>
8.15703

> <r_epik_Charging_Adjusted_Penalty>
16.7129

> <i_epik_Tot_Q>
1

> <i_epik_Tot_abs_Q>
3

> <r_epik_Metal_State_Penalty>
4.13781

> <b_epik_Metal_Only>
1

> <s_lp_Force_Field>
OPLS_2005

> <r_lp_Energy>
56.4964

> <b_lp_Chiralities_Consistent>
1

> <s_lp_Variant>
AV-unprocessed.smi:1645-22

> <Gold.Version>
5.8.1

> <Gold.Id.Protein>
6NUR|6NUR_protein|mol2

> <Gold.PLP.Fitness>
49.2440

> <Gold.PLP.PLP>
-44.0199

> <Gold.PLP.part.hbond>
-1.9328

> <Gold.PLP.part.metal>
0.0000

> <Gold.PLP.part.buried>
0.9189

> <Gold.PLP.part.nonpolar>
-44.7999

> <Gold.PLP.part.repulsive>
1.8372

> <Gold.PLP.ligand.clash>
0.0000

> <Gold.PLP.ligand.torsion>
0.9682

> <Gold.PLP.Chemscore.Hbond>
2.2080

> <Gold.PLP.Chemscore.CHOScore>
0.0000

> <Gold.PLP.Chemscore.Metal>
0.0000

> <Gold.Chemscore.Hbonds>
donor molecule, donor type, donor heavy atom, donor atom, acceptor molecule, acceptor atom, score
      L1  H     3    26       P1  7957  0.02
      L1  H    14    55       P1  8028  2.00

> <Gold.PLP.Chemscore.Internal.Correction>
0.5366

> <Gold.Rescore>
     Score         DG    S(hbond)    S(metal)    S(lipo)     H(rot)  DE(clash)    DE(int)     intcor
     16.95     -19.67       1.16        0.00     113.90       1.17       0.54       2.19       ----

> <Gold.Chemscore.Fitness>
16.9459

> <Gold.Chemscore.DG>
-19.6729

> <Gold.Chemscore.ZeroCoef>
-5.4800

> <Gold.Chemscore.Hbond>
1.1587

> <Gold.Chemscore.Metal>
0.0000

> <Gold.Chemscore.Lipo>
113.8977

> <Gold.Chemscore.Internal_Hbond>
0.0000

> <Gold.Chemscore.DEClash>
0.5410

> <Gold.Chemscore.DEInternal>
2.1860

> <Gold.Chemscore.Rot>
1.1731

> <Gold.Chemscore.Internal.Correction>
   9.000000E+99

> <Gold.Chemscore.Hbonds>
donor molecule, donor type, donor heavy atom, donor atom, acceptor molecule, acceptor atom, score
      L1  H     3    26       P1  7957  0.05
      L1  H    14    55       P1  8028  0.98

> <Gold.Chemscore.Hbond.Weighted>
-3.8701

> <Gold.Chemscore.Metal.Weighted>
-0.0000

> <Gold.Chemscore.Lipo.Weighted>
-13.3260

> <Gold.Chemscore.Internal_Hbond.Weighted>
0.0000

> <Gold.Chemscore.DEClash.Weighted>
0.5410

> <Gold.Chemscore.DEInternal.Weighted>
2.1860

> <Gold.Chemscore.Rot.Weighted>
3.0032

> <Gold.Chemscore.Internal.Correction.Weighted>
   9.000000E+99

> <Gold.Protein.RotatedTorsions>
[ 6907 6896 6895 6894 ] final  169.89 input  -60.11 | X-H torsion
[ 7974 7965 7964 7962 ] final  -86.54 input  175.53 | X-H torsion
[ 8008 7997 7996 7995 ] final  -56.67 input   59.86 | X-H torsion
[ 10167 10162 10161 10158 ] final   60.97 input  -65.29 | X-H torsion
[ 10718 10713 10712 10709 ] final  -80.74 input   66.30 | X-H torsion
[ 10763 10752 10751 10750 ] final -167.60 input  -60.55 | X-H torsion
[ 11005 11000 10999 10996 ] final  -31.72 input  -57.11 | X-H torsion

> <Gold.Protein.ActiveResidues>
 VAL166  LYS551  ARG553  GLY616  TRP617  ASP618  TYR619  PRO620  LYS621  CYS622 
 ASP623  PHE694  ASN695  SER759  ASP760  ASP761  ALA762  ILE779  LEU786  VAL792 
 PHE793  MET794  SER795  GLU796  ALA797  LYS798  CYS799  TRP800  GLU811  SER814 

> <Gold.Protein.RotatedAtoms>
  151.8248  133.3400  159.3594 H   0  0  0  0  0  0  0  0  0  0  0  0  # atno 6907 bound_to 6896
  150.7283  134.5539  159.5818 H   0  0  0  0  0  0  0  0  0  0  0  0  # atno 6908 bound_to 6896
  152.2979  134.7646  160.0415 H   0  0  0  0  0  0  0  0  0  0  0  0  # atno 6909 bound_to 6896
  145.4785  140.9557  143.1877 H   0  0  0  0  0  0  0  0  0  0  0  0  # atno 7974 bound_to 7965
  154.4239  140.1124  156.5675 H   0  0  0  0  0  0  0  0  0  0  0  0  # atno 8008 bound_to 7997
  155.6247  140.3495  155.4644 H   0  0  0  0  0  0  0  0  0  0  0  0  # atno 8009 bound_to 7997
  155.9996  140.1196  157.0550 H   0  0  0  0  0  0  0  0  0  0  0  0  # atno 8010 bound_to 7997
  140.1598  144.4382  150.6715 H   0  0  0  0  0  0  0  0  0  0  0  0  # atno 10167 bound_to 10162
  156.0064  130.4583  150.3846 H   0  0  0  0  0  0  0  0  0  0  0  0  # atno 10718 bound_to 10713
  154.6715  135.2940  154.9735 H   0  0  0  0  0  0  0  0  0  0  0  0  # atno 10763 bound_to 10752
  154.0761  135.6611  153.4835 H   0  0  0  0  0  0  0  0  0  0  0  0  # atno 10764 bound_to 10752
  153.0490  135.5186  154.7713 H   0  0  0  0  0  0  0  0  0  0  0  0  # atno 10765 bound_to 10752
  140.9492  133.7231  156.1194 H   0  0  0  0  0  0  0  0  0  0  0  0  # atno 11005 bound_to 11000
  144.7903  139.6343  143.7116 LP  0  0  0  0  0  0  0  0  0  0  0  0  # atno 17320 bound_to 7965
  146.2355  139.5896  142.9527 LP  0  0  0  0  0  0  0  0  0  0  0  0  # atno 17321 bound_to 7965
  140.6650  143.2265  151.5764 LP  0  0  0  0  0  0  0  0  0  0  0  0  # atno 17342 bound_to 10162
  139.5386  144.2709  152.1305 LP  0  0  0  0  0  0  0  0  0  0  0  0  # atno 17343 bound_to 10162
  157.1924  131.0418  151.2693 LP  0  0  0  0  0  0  0  0  0  0  0  0  # atno 17370 bound_to 10713
  157.4049  130.7353  149.6795 LP  0  0  0  0  0  0  0  0  0  0  0  0  # atno 17371 bound_to 10713
  140.7626  134.3922  157.5523 LP  0  0  0  0  0  0  0  0  0  0  0  0  # atno 17394 bound_to 11000
  139.8842  134.8971  156.2716 LP  0  0  0  0  0  0  0  0  0  0  0  0  # atno 17395 bound_to 11000

$$$$
