AV-unprocessed.smi:1868|AV-procd|sdf|7584|dock10
  -GOLD-   22720 9293D 1   1.00000     0.00000
 Structure written by MMmdl.
 47 49  0  0  0  0  0  0  0  0  2 V2000
  155.6051  138.2903  159.7925 C   0  0  0  0  0  0  0  0  0  0  0  0
  154.8573  139.5447  160.1159 C   0  0  0  0  0  0  0  0  0  0  0  0
  154.3881  140.3552  159.1676 N   0  0  0  0  0  0  0  0  0  0  0  0
  153.7748  141.3544  159.8980 C   0  0  0  0  0  0  0  0  0  0  0  0
  153.0880  142.5138  159.4727 C   0  0  0  0  0  0  0  0  0  0  0  0
  152.5393  143.4054  160.4176 C   0  0  0  0  0  0  0  0  0  0  0  0
  152.6688  143.1511  161.7982 C   0  0  0  0  0  0  0  0  0  0  0  0
  153.3488  142.0015  162.2438 C   0  0  0  0  0  0  0  0  0  0  0  0
  153.8954  141.1148  161.2964 C   0  0  0  0  0  0  0  0  0  0  0  0
  154.6157  139.9273  161.3941 N   0  0  0  0  0  0  0  0  0  0  0  0
  155.0125  139.2522  162.6221 C   0  0  0  0  0  0  0  0  0  0  0  0
  155.8838  140.1339  163.5405 C   0  0  2  0  0  0  0  0  0  0  0  0
  157.2345  139.9139  163.1887 O   0  0  0  0  0  0  0  0  0  0  0  0
  155.7101  139.8251  165.0442 C   0  0  0  0  0  0  0  0  0  0  0  0
  155.8090  141.0400  165.8921 N   0  3  2  0  0  0  0  0  0  0  0  0
  155.4177  140.7756  167.3004 C   0  0  0  0  0  0  0  0  0  0  0  0
  155.6645  142.0080  168.1867 C   0  0  0  0  0  0  0  0  0  0  0  0
  154.9205  143.2416  167.6487 C   0  0  1  0  0  0  0  0  0  0  0  0
  155.1873  144.4852  168.5082 C   0  0  0  0  0  0  0  0  0  0  0  0
  155.3142  143.4690  166.1794 C   0  0  0  0  0  0  0  0  0  0  0  0
  155.0752  142.2069  165.3338 C   0  0  0  0  0  0  0  0  0  0  0  0
  155.6539  138.1434  158.7129 H   0  0  0  0  0  0  0  0  0  0  0  0
  155.1055  137.4264  160.2310 H   0  0  0  0  0  0  0  0  0  0  0  0
  156.6237  138.3450  160.1752 H   0  0  0  0  0  0  0  0  0  0  0  0
  152.9832  142.7177  158.4173 H   0  0  0  0  0  0  0  0  0  0  0  0
  152.0160  144.2886  160.0811 H   0  0  0  0  0  0  0  0  0  0  0  0
  152.2447  143.8392  162.5149 H   0  0  0  0  0  0  0  0  0  0  0  0
  153.4488  141.8063  163.3010 H   0  0  0  0  0  0  0  0  0  0  0  0
  154.1094  138.9400  163.1482 H   0  0  0  0  0  0  0  0  0  0  0  0
  155.5399  138.3337  162.3626 H   0  0  0  0  0  0  0  0  0  0  0  0
  155.6544  141.1789  163.3392 H   0  0  0  0  0  0  0  0  0  0  0  0
  157.4776  139.0395  163.4545 H   0  0  0  0  0  0  0  0  0  0  0  0
  154.7518  139.3441  165.2421 H   0  0  0  0  0  0  0  0  0  0  0  0
  156.4765  139.1048  165.3354 H   0  0  0  0  0  0  0  0  0  0  0  0
  154.3663  140.4858  167.3394 H   0  0  0  0  0  0  0  0  0  0  0  0
  155.9936  139.9361  167.6917 H   0  0  0  0  0  0  0  0  0  0  0  0
  155.3455  141.7946  169.2075 H   0  0  0  0  0  0  0  0  0  0  0  0
  156.7350  142.2125  168.2348 H   0  0  0  0  0  0  0  0  0  0  0  0
  153.8495  143.0358  167.6863 H   0  0  0  0  0  0  0  0  0  0  0  0
  156.2468  144.7440  168.5147 H   0  0  0  0  0  0  0  0  0  0  0  0
  154.8784  144.3221  169.5411 H   0  0  0  0  0  0  0  0  0  0  0  0
  154.6366  145.3479  168.1321 H   0  0  0  0  0  0  0  0  0  0  0  0
  154.7429  144.3005  165.7649 H   0  0  0  0  0  0  0  0  0  0  0  0
  156.3653  143.7552  166.1163 H   0  0  0  0  0  0  0  0  0  0  0  0
  155.3933  142.4036  164.3107 H   0  0  0  0  0  0  0  0  0  0  0  0
  154.0082  141.9815  165.2924 H   0  0  0  0  0  0  0  0  0  0  0  0
  156.7884  141.2871  165.9148 H   0  0  0  0  0  0  0  0  0  0  0  0
  1  2  1  0  0  0  0
  1 22  1  0  0  0  0
  1 23  1  0  0  0  0
  1 24  1  0  0  0  0
  2 10  1  0  0  0  0
  2  3  2  0  0  0  0
  3  4  1  0  0  0  0
  4  9  2  0  0  0  0
  4  5  1  0  0  0  0
  5  6  2  0  0  0  0
  5 25  1  0  0  0  0
  6  7  1  0  0  0  0
  6 26  1  0  0  0  0
  7  8  2  0  0  0  0
  7 27  1  0  0  0  0
  8  9  1  0  0  0  0
  8 28  1  0  0  0  0
  9 10  1  0  0  0  0
 10 11  1  0  0  0  0
 11 12  1  0  0  0  0
 11 29  1  0  0  0  0
 11 30  1  0  0  0  0
 12 13  1  0  0  0  0
 12 14  1  0  0  0  0
 12 31  1  0  0  0  0
 13 32  1  0  0  0  0
 14 15  1  0  0  0  0
 14 33  1  0  0  0  0
 14 34  1  0  0  0  0
 15 21  1  0  0  0  0
 15 16  1  0  0  0  0
 15 47  1  0  0  0  0
 16 17  1  0  0  0  0
 16 35  1  0  0  0  0
 16 36  1  0  0  0  0
 17 18  1  0  0  0  0
 17 37  1  0  0  0  0
 17 38  1  0  0  0  0
 18 19  1  0  0  0  0
 18 20  1  0  0  0  0
 18 39  1  0  0  0  0
 19 40  1  0  0  0  0
 19 41  1  0  0  0  0
 19 42  1  0  0  0  0
 20 21  1  0  0  0  0
 20 43  1  0  0  0  0
 20 44  1  0  0  0  0
 21 45  1  0  0  0  0
 21 46  1  0  0  0  0
M  CHG  1  15   1
M  END
> <s_m_source_file>
AV-unprocessed.smi

> <i_m_source_file_index>
1868

> <i_lp_mmshare_version>
43012

> <i_f3d_flags>
0

> <s_epik_input>
W2NIXTFbY0hdW2NIXVtjSF1jKGMxMiluKGMobjIpW0NIM10pW0NIMl1bQ0BIXShbT0hdKVtDSDJdTjNbQ0gyXVtDSDJdW0NIXShbQ0gzXSlbQ0gyXVtDSDJdMw==

> <s_epik_cmdline>
J2VwaWtfcHl0aG9uJywgJy1waCcsICc3LjAnLCAnLXRuJywgJzgnLCAnLW1hJywgJzIwMCcsICctbWV0YWxfYmluZGluZycsICctaW1hZScsICc8aW5maWxlLm1hZT4nLCAnLW9tYWUnLCAnPG91dGZpbGUubWFlPic=

> <r_epik_Ionization_Penalty>
0.101157

> <r_epik_Ionization_Penalty_Charging>
0.00181365

> <r_epik_Ionization_Penalty_Neutral>
0.0993436

> <r_epik_State_Penalty>
0.0871902

> <r_epik_Charging_Adjusted_Penalty>
0.0890039

> <i_epik_Tot_Q>
1

> <i_epik_Tot_abs_Q>
1

> <r_epik_Metal_State_Penalty>
9.24346e-05

> <b_epik_Metal_Only>
0

> <s_lp_Force_Field>
OPLS_2005

> <r_lp_Energy>
22.6133

> <b_lp_Chiralities_Consistent>
1

> <s_lp_Variant>
AV-unprocessed.smi:1868-1

> <Gold.Version>
5.8.1

> <Gold.Id.Protein>
6NUR|6NUR_protein|mol2

> <Gold.PLP.Fitness>
49.0406

> <Gold.PLP.PLP>
-48.7628

> <Gold.PLP.part.hbond>
-1.3955

> <Gold.PLP.part.metal>
0.0000

> <Gold.PLP.part.buried>
-4.5936

> <Gold.PLP.part.nonpolar>
-42.3375

> <Gold.PLP.part.repulsive>
0.0454

> <Gold.PLP.ligand.clash>
0.0000

> <Gold.PLP.ligand.torsion>
0.9534

> <Gold.PLP.Chemscore.Hbond>
0.7200

> <Gold.PLP.Chemscore.CHOScore>
0.0000

> <Gold.PLP.Chemscore.Metal>
0.0000

> <Gold.Chemscore.Hbonds>
donor molecule, donor type, donor heavy atom, donor atom, acceptor molecule, acceptor atom, score
      P1  H  7997  8009       L1     3  0.71

> <Gold.PLP.Chemscore.Internal.Correction>
0.0247

> <Gold.Rescore>
     Score         DG    S(hbond)    S(metal)    S(lipo)     H(rot)  DE(clash)    DE(int)     intcor
     17.67     -18.62       0.87        0.00     129.51       1.92       0.01       0.94       ----

> <Gold.Chemscore.Fitness>
17.6699

> <Gold.Chemscore.DG>
-18.6158

> <Gold.Chemscore.ZeroCoef>
-5.4800

> <Gold.Chemscore.Hbond>
0.8677

> <Gold.Chemscore.Metal>
0.0000

> <Gold.Chemscore.Lipo>
129.5073

> <Gold.Chemscore.Internal_Hbond>
0.0000

> <Gold.Chemscore.DEClash>
0.0073

> <Gold.Chemscore.DEInternal>
0.9386

> <Gold.Chemscore.Rot>
1.9198

> <Gold.Chemscore.Internal.Correction>
   9.000000E+99

> <Gold.Chemscore.Hbonds>
donor molecule, donor type, donor heavy atom, donor atom, acceptor molecule, acceptor atom, score
      P1  H  7997  8009       L1     3  0.57

> <Gold.Chemscore.Hbond.Weighted>
-2.8981

> <Gold.Chemscore.Metal.Weighted>
-0.0000

> <Gold.Chemscore.Lipo.Weighted>
-15.1524

> <Gold.Chemscore.Internal_Hbond.Weighted>
0.0000

> <Gold.Chemscore.DEClash.Weighted>
0.0073

> <Gold.Chemscore.DEInternal.Weighted>
0.9386

> <Gold.Chemscore.Rot.Weighted>
4.9147

> <Gold.Chemscore.Internal.Correction.Weighted>
   9.000000E+99

> <Gold.Protein.RotatedTorsions>
[ 6907 6896 6895 6894 ] final  -74.93 input  -60.11 | X-H torsion
[ 7974 7965 7964 7962 ] final   76.47 input  175.53 | X-H torsion
[ 8008 7997 7996 7995 ] final  108.50 input   59.86 | X-H torsion
[ 10167 10162 10161 10158 ] final   83.97 input  -65.29 | X-H torsion
[ 10718 10713 10712 10709 ] final   -3.99 input   66.30 | X-H torsion
[ 10763 10752 10751 10750 ] final  118.61 input  -60.55 | X-H torsion
[ 11005 11000 10999 10996 ] final  -97.99 input  -57.11 | X-H torsion

> <Gold.Protein.ActiveResidues>
 VAL166  LYS551  ARG553  GLY616  TRP617  ASP618  TYR619  PRO620  LYS621  CYS622 
 ASP623  PHE694  ASN695  SER759  ASP760  ASP761  ALA762  ILE779  LEU786  VAL792 
 PHE793  MET794  SER795  GLU796  ALA797  LYS798  CYS799  TRP800  GLU811  SER814 

> <Gold.Protein.RotatedAtoms>
  150.7076  134.4797  159.5464 H   0  0  0  0  0  0  0  0  0  0  0  0  # atno 6907 bound_to 6896
  152.2436  134.8200  160.0465 H   0  0  0  0  0  0  0  0  0  0  0  0  # atno 6908 bound_to 6896
  151.8973  133.3494  159.3855 H   0  0  0  0  0  0  0  0  0  0  0  0  # atno 6909 bound_to 6896
  145.7024  139.2587  143.1697 H   0  0  0  0  0  0  0  0  0  0  0  0  # atno 7974 bound_to 7965
  156.1908  140.3075  155.9328 H   0  0  0  0  0  0  0  0  0  0  0  0  # atno 8008 bound_to 7997
  155.3178  140.0454  157.3055 H   0  0  0  0  0  0  0  0  0  0  0  0  # atno 8009 bound_to 7997
  154.5449  140.2273  155.8588 H   0  0  0  0  0  0  0  0  0  0  0  0  # atno 8010 bound_to 7997
  139.9129  144.6260  150.8519 H   0  0  0  0  0  0  0  0  0  0  0  0  # atno 10167 bound_to 10162
  156.7679  130.5290  149.5773 H   0  0  0  0  0  0  0  0  0  0  0  0  # atno 10718 bound_to 10713
  153.5703  135.3503  155.2835 H   0  0  0  0  0  0  0  0  0  0  0  0  # atno 10763 bound_to 10752
  154.8683  135.4157  154.2733 H   0  0  0  0  0  0  0  0  0  0  0  0  # atno 10764 bound_to 10752
  153.3497  135.7054  153.6868 H   0  0  0  0  0  0  0  0  0  0  0  0  # atno 10765 bound_to 10752
  141.1360  133.8212  157.0779 H   0  0  0  0  0  0  0  0  0  0  0  0  # atno 11005 bound_to 11000
  146.0785  140.7790  142.9653 LP  0  0  0  0  0  0  0  0  0  0  0  0  # atno 17320 bound_to 7965
  144.6964  140.3453  143.7192 LP  0  0  0  0  0  0  0  0  0  0  0  0  # atno 17321 bound_to 7965
  140.7681  143.3352  151.2323 LP  0  0  0  0  0  0  0  0  0  0  0  0  # atno 17342 bound_to 10162
  139.6927  143.9665  152.2867 LP  0  0  0  0  0  0  0  0  0  0  0  0  # atno 17343 bound_to 10162
  156.1296  130.6169  151.0315 LP  0  0  0  0  0  0  0  0  0  0  0  0  # atno 17370 bound_to 10713
  157.6704  131.0862  150.7625 LP  0  0  0  0  0  0  0  0  0  0  0  0  # atno 17371 bound_to 10713
  140.0470  134.9825  157.1066 LP  0  0  0  0  0  0  0  0  0  0  0  0  # atno 17394 bound_to 11000
  140.4048  134.2044  155.7163 LP  0  0  0  0  0  0  0  0  0  0  0  0  # atno 17395 bound_to 11000

$$$$
