AV-unprocessed.smi:888|AV-procd|sdf|4055|dock6
  -GOLD-   22720 1543D 1   1.00000     0.00000
 Structure written by MMmdl.
 45 46  0  0  0  0  0  0  0  0  1 V2000
  150.0904  141.9839  156.6147 C   0  0  0  0  0  0  0  0  0  0  0  0
  149.4821  141.7117  155.2349 C   0  0  0  0  0  0  0  0  0  0  0  0
  149.7918  140.3366  154.7293 C   0  0  0  0  0  0  0  0  0  0  0  0
  151.0336  139.8426  154.6534 N   0  0  0  0  0  0  0  0  0  0  0  0
  150.8953  138.5602  154.1606 N   0  0  0  0  0  0  0  0  0  0  0  0
  149.5825  138.4046  153.9962 C   0  0  0  0  0  0  0  0  0  0  0  0
  148.8371  139.4675  154.3352 N   0  0  0  0  0  0  0  0  0  0  0  0
  147.3939  139.6088  154.2779 C   0  0  0  0  0  0  0  0  0  0  0  0
  146.8554  139.3194  152.8707 C   0  0  0  0  0  0  0  0  0  0  0  0
  146.9501  137.8936  152.5717 N   0  0  0  0  0  0  0  0  0  0  0  0
  146.0004  136.9610  152.7562 C   0  0  0  0  0  0  0  0  0  0  0  0
  144.9001  137.2399  153.2284 O   0  0  0  0  0  0  0  0  0  0  0  0
  146.3628  135.7190  152.3907 N   0  0  0  0  0  0  0  0  0  0  0  0
  145.5298  134.5185  152.4817 C   0  0  1  0  0  0  0  0  0  0  0  0
  144.3586  134.6449  151.4899 C   0  0  0  0  0  0  0  0  0  0  0  0
  144.7060  133.7725  150.2757 C   0  0  0  0  0  0  0  0  0  0  0  0
  146.1027  133.2037  150.5431 C   0  0  0  0  0  0  0  0  0  0  0  0
  146.2838  133.2266  152.0694 C   0  0  0  0  0  0  0  0  0  0  0  0
  147.7773  133.1981  152.4610 C   0  0  0  0  0  0  0  0  0  0  0  0
  145.5954  131.9959  152.6988 C   0  0  0  0  0  0  0  0  0  0  0  0
  149.8516  142.9928  156.9515 H   0  0  0  0  0  0  0  0  0  0  0  0
  151.1764  141.8881  156.5914 H   0  0  0  0  0  0  0  0  0  0  0  0
  149.7082  141.2850  157.3589 H   0  0  0  0  0  0  0  0  0  0  0  0
  148.4028  141.8595  155.2652 H   0  0  0  0  0  0  0  0  0  0  0  0
  149.8660  142.4380  154.5178 H   0  0  0  0  0  0  0  0  0  0  0  0
  149.1521  137.4880  153.6198 H   0  0  0  0  0  0  0  0  0  0  0  0
  146.9517  138.9221  155.0012 H   0  0  0  0  0  0  0  0  0  0  0  0
  147.1240  140.6160  154.5971 H   0  0  0  0  0  0  0  0  0  0  0  0
  145.8146  139.6387  152.7950 H   0  0  0  0  0  0  0  0  0  0  0  0
  147.4241  139.8854  152.1311 H   0  0  0  0  0  0  0  0  0  0  0  0
  147.8290  137.5773  152.1875 H   0  0  0  0  0  0  0  0  0  0  0  0
  147.2923  135.5932  152.0178 H   0  0  0  0  0  0  0  0  0  0  0  0
  145.1380  134.4296  153.4969 H   0  0  0  0  0  0  0  0  0  0  0  0
  143.4408  134.2762  151.9497 H   0  0  0  0  0  0  0  0  0  0  0  0
  144.1686  135.6797  151.2004 H   0  0  0  0  0  0  0  0  0  0  0  0
  143.9817  132.9624  150.1836 H   0  0  0  0  0  0  0  0  0  0  0  0
  144.6790  134.3395  149.3447 H   0  0  0  0  0  0  0  0  0  0  0  0
  146.2352  132.2101  150.1135 H   0  0  0  0  0  0  0  0  0  0  0  0
  146.8416  133.8553  150.0741 H   0  0  0  0  0  0  0  0  0  0  0  0
  148.2413  132.2560  152.1671 H   0  0  0  0  0  0  0  0  0  0  0  0
  147.9034  133.3043  153.5389 H   0  0  0  0  0  0  0  0  0  0  0  0
  148.3459  133.9947  151.9806 H   0  0  0  0  0  0  0  0  0  0  0  0
  146.0501  131.0671  152.3527 H   0  0  0  0  0  0  0  0  0  0  0  0
  144.5338  131.9482  152.4548 H   0  0  0  0  0  0  0  0  0  0  0  0
  145.6775  132.0138  153.7861 H   0  0  0  0  0  0  0  0  0  0  0  0
  1  2  1  0  0  0  0
  1 21  1  0  0  0  0
  1 22  1  0  0  0  0
  1 23  1  0  0  0  0
  2  3  1  0  0  0  0
  2 24  1  0  0  0  0
  2 25  1  0  0  0  0
  3  7  1  0  0  0  0
  3  4  2  0  0  0  0
  4  5  1  0  0  0  0
  5  6  2  0  0  0  0
  6  7  1  0  0  0  0
  6 26  1  0  0  0  0
  7  8  1  0  0  0  0
  8  9  1  0  0  0  0
  8 27  1  0  0  0  0
  8 28  1  0  0  0  0
  9 10  1  0  0  0  0
  9 29  1  0  0  0  0
  9 30  1  0  0  0  0
 10 11  1  0  0  0  0
 10 31  1  0  0  0  0
 11 12  2  0  0  0  0
 11 13  1  0  0  0  0
 13 14  1  0  0  0  0
 13 32  1  0  0  0  0
 14 18  1  0  0  0  0
 14 15  1  0  0  0  0
 14 33  1  0  0  0  0
 15 16  1  0  0  0  0
 15 34  1  0  0  0  0
 15 35  1  0  0  0  0
 16 17  1  0  0  0  0
 16 36  1  0  0  0  0
 16 37  1  0  0  0  0
 17 18  1  0  0  0  0
 17 38  1  0  0  0  0
 17 39  1  0  0  0  0
 18 19  1  0  0  0  0
 18 20  1  0  0  0  0
 19 40  1  0  0  0  0
 19 41  1  0  0  0  0
 19 42  1  0  0  0  0
 20 43  1  0  0  0  0
 20 44  1  0  0  0  0
 20 45  1  0  0  0  0
M  END
> <s_m_source_file>
AV-unprocessed.smi

> <i_m_source_file_index>
888

> <i_lp_mmshare_version>
43012

> <i_f3d_flags>
0

> <s_epik_input>
W0NIM11bQ0gyXWMxbm5bY0hdbjFbQ0gyXVtDSDJdW05IXUMoPU8pW05IXVtDQEBIXShDMihbQ0gzXSlbQ0gzXSlbQ0gyXVtDSDJdW0NIMl0y

> <s_epik_cmdline>
J2VwaWtfcHl0aG9uJywgJy1waCcsICc3LjAnLCAnLXRuJywgJzgnLCAnLW1hJywgJzIwMCcsICctbWV0YWxfYmluZGluZycsICctaW1hZScsICc8aW5maWxlLm1hZT4nLCAnLW9tYWUnLCAnPG91dGZpbGUubWFlPic=

> <r_lp_tautomer_probability>
1

> <r_epik_Ionization_Penalty>
0.000379534

> <r_epik_Ionization_Penalty_Charging>
0

> <r_epik_Ionization_Penalty_Neutral>
0.000379534

> <r_epik_State_Penalty>
-0

> <r_epik_Charging_Adjusted_Penalty>
0

> <i_epik_Tot_Q>
0

> <i_epik_Tot_abs_Q>
0

> <r_epik_Metal_State_Penalty>
-0

> <b_epik_Metal_Only>
0

> <s_lp_Force_Field>
OPLS_2005

> <r_lp_Energy>
32.1677

> <b_lp_Chiralities_Consistent>
1

> <s_lp_Variant>
AV-unprocessed.smi:888-2

> <Gold.Version>
5.8.1

> <Gold.Id.Protein>
6NUR|6NUR_protein|mol2

> <Gold.PLP.Fitness>
42.4371

> <Gold.PLP.PLP>
-31.1983

> <Gold.PLP.part.hbond>
-3.0000

> <Gold.PLP.part.metal>
0.0000

> <Gold.PLP.part.buried>
0.3842

> <Gold.PLP.part.nonpolar>
-28.3947

> <Gold.PLP.part.repulsive>
0.5252

> <Gold.PLP.ligand.clash>
0.0000

> <Gold.PLP.ligand.torsion>
0.3057

> <Gold.PLP.Chemscore.Hbond>
2.9420

> <Gold.PLP.Chemscore.CHOScore>
1.0000

> <Gold.PLP.Chemscore.Metal>
0.0000

> <Gold.Chemscore.Hbonds>
donor molecule, donor type, donor heavy atom, donor atom, acceptor molecule, acceptor atom, score
      L1  H    10    31       P1  7948  0.99
      L1  H    13    32       P1  7948  0.98
      P1  H  7989  7998       L1     4  0.95
      L1  C     6    26       P1  7948  1.00

> <Gold.PLP.Chemscore.Internal.Correction>
0.0242

> <Gold.Rescore>
     Score         DG    S(hbond)    S(metal)    S(lipo)     H(rot)  DE(clash)    DE(int)     intcor
     14.52     -15.60       2.31        0.00      65.02       2.03       0.27       0.81       ----

> <Gold.Chemscore.Fitness>
14.5223

> <Gold.Chemscore.DG>
-15.6040

> <Gold.Chemscore.ZeroCoef>
-5.4800

> <Gold.Chemscore.Hbond>
2.3089

> <Gold.Chemscore.Metal>
0.0000

> <Gold.Chemscore.Lipo>
65.0198

> <Gold.Chemscore.Internal_Hbond>
0.0000

> <Gold.Chemscore.DEClash>
0.2748

> <Gold.Chemscore.DEInternal>
0.8069

> <Gold.Chemscore.Rot>
2.0293

> <Gold.Chemscore.Internal.Correction>
   9.000000E+99

> <Gold.Chemscore.Hbonds>
donor molecule, donor type, donor heavy atom, donor atom, acceptor molecule, acceptor atom, score
      L1  H    10    31       P1  7948  0.94
      L1  H    13    32       P1  7948  0.93
      P1  H  7989  7998       L1     4  0.17

> <Gold.Chemscore.Hbond.Weighted>
-7.7118

> <Gold.Chemscore.Metal.Weighted>
-0.0000

> <Gold.Chemscore.Lipo.Weighted>
-7.6073

> <Gold.Chemscore.Internal_Hbond.Weighted>
0.0000

> <Gold.Chemscore.DEClash.Weighted>
0.2748

> <Gold.Chemscore.DEInternal.Weighted>
0.8069

> <Gold.Chemscore.Rot.Weighted>
5.1950

> <Gold.Chemscore.Internal.Correction.Weighted>
   9.000000E+99

> <Gold.Protein.RotatedTorsions>
[ 6907 6896 6895 6894 ] final  123.97 input  -60.11 | X-H torsion
[ 7974 7965 7964 7962 ] final  173.68 input  175.53 | X-H torsion
[ 8008 7997 7996 7995 ] final   59.29 input   59.86 | X-H torsion
[ 10167 10162 10161 10158 ] final -125.32 input  -65.29 | X-H torsion
[ 10718 10713 10712 10709 ] final   38.67 input   66.30 | X-H torsion
[ 10763 10752 10751 10750 ] final  -11.07 input  -60.55 | X-H torsion
[ 11005 11000 10999 10996 ] final -118.68 input  -57.11 | X-H torsion

> <Gold.Protein.ActiveResidues>
 VAL166  LYS551  ARG553  GLY616  TRP617  ASP618  TYR619  PRO620  LYS621  CYS622 
 ASP623  PHE694  ASN695  SER759  ASP760  ASP761  ALA762  ILE779  LEU786  VAL792 
 PHE793  MET794  SER795  GLU796  ALA797  LYS798  CYS799  TRP800  GLU811  SER814 

> <Gold.Protein.RotatedAtoms>
  152.4117  133.6974  159.6403 H   0  0  0  0  0  0  0  0  0  0  0  0  # atno 6907 bound_to 6896
  150.7997  133.8612  159.3241 H   0  0  0  0  0  0  0  0  0  0  0  0  # atno 6908 bound_to 6896
  151.6353  135.1020  160.0181 H   0  0  0  0  0  0  0  0  0  0  0  0  # atno 6909 bound_to 6896
  144.7238  139.9684  143.6436 H   0  0  0  0  0  0  0  0  0  0  0  0  # atno 7974 bound_to 7965
  155.5638  140.3488  155.4498 H   0  0  0  0  0  0  0  0  0  0  0  0  # atno 8008 bound_to 7997
  156.0494  140.1314  157.0092 H   0  0  0  0  0  0  0  0  0  0  0  0  # atno 8009 bound_to 7997
  154.4427  140.1008  156.6339 H   0  0  0  0  0  0  0  0  0  0  0  0  # atno 8010 bound_to 7997
  139.9833  143.5719  152.2370 H   0  0  0  0  0  0  0  0  0  0  0  0  # atno 10167 bound_to 10162
  157.3616  130.7652  149.7052 H   0  0  0  0  0  0  0  0  0  0  0  0  # atno 10718 bound_to 10713
  153.4783  135.7017  153.5953 H   0  0  0  0  0  0  0  0  0  0  0  0  # atno 10763 bound_to 10752
  153.4177  135.3833  155.2091 H   0  0  0  0  0  0  0  0  0  0  0  0  # atno 10764 bound_to 10752
  154.8722  135.3920  154.4230 H   0  0  0  0  0  0  0  0  0  0  0  0  # atno 10765 bound_to 10752
  141.0269  134.0040  157.3201 H   0  0  0  0  0  0  0  0  0  0  0  0  # atno 11005 bound_to 11000
  146.0582  139.3578  143.0597 LP  0  0  0  0  0  0  0  0  0  0  0  0  # atno 17320 bound_to 7965
  145.8127  140.9718  143.0940 LP  0  0  0  0  0  0  0  0  0  0  0  0  # atno 17321 bound_to 7965
  139.6393  144.7653  151.2371 LP  0  0  0  0  0  0  0  0  0  0  0  0  # atno 17342 bound_to 10162
  140.7481  143.6344  150.8393 LP  0  0  0  0  0  0  0  0  0  0  0  0  # atno 17343 bound_to 10162
  155.9738  130.4112  150.3970 LP  0  0  0  0  0  0  0  0  0  0  0  0  # atno 17370 bound_to 10713
  157.2048  131.0446  151.2631 LP  0  0  0  0  0  0  0  0  0  0  0  0  # atno 17371 bound_to 10713
  139.9182  135.0198  156.7962 LP  0  0  0  0  0  0  0  0  0  0  0  0  # atno 17394 bound_to 11000
  140.6476  133.9761  155.7738 LP  0  0  0  0  0  0  0  0  0  0  0  0  # atno 17395 bound_to 11000

$$$$
