AV-unprocessed.smi:1607|AV-procd|sdf|6465|dock3
  -GOLD-   22720 7123D 1   1.00000     0.00000
 Structure written by MMmdl.
 39 40  0  0  0  0  0  0  0  0  2 V2000
  146.4651  134.9373  153.3735 C   0  0  0  0  0  0  0  0  0  0  0  0
  145.2516  135.5575  152.6585 C   0  0  2  0  0  0  0  0  0  0  0  0
  144.9475  134.8864  151.3061 C   0  0  0  0  0  0  0  0  0  0  0  0
  145.9689  135.2992  150.2368 C   0  0  0  0  0  0  0  0  0  0  0  0
  146.0761  136.8290  150.1361 C   0  0  0  0  0  0  0  0  0  0  0  0
  146.4113  137.4292  151.4532 N   0  3  1  0  0  0  0  0  0  0  0  0
  146.6729  138.8874  151.3597 C   0  0  0  0  0  0  0  0  0  0  0  0
  147.3132  139.4485  152.6444 C   0  0  0  0  0  0  0  0  0  0  0  0
  148.3827  138.5861  153.1330 N   0  0  0  0  0  0  0  0  0  0  0  0
  149.1382  138.8407  154.2129 C   0  0  0  0  0  0  0  0  0  0  0  0
  149.0109  139.8542  154.9001 O   0  0  0  0  0  0  0  0  0  0  0  0
  150.1950  137.7944  154.5737 C   0  0  0  0  0  0  0  0  0  0  0  0
  151.5185  138.3863  154.6409 N   0  0  0  0  0  0  0  0  0  0  0  0
  151.9668  139.4613  155.2930 C   0  0  0  0  0  0  0  0  0  0  0  0
  153.2589  139.6585  155.0806 N   0  0  0  0  0  0  0  0  0  0  0  0
  153.6018  138.6157  154.2364 N   0  0  0  0  0  0  0  0  0  0  0  0
  152.5735  137.8571  153.9725 N   0  0  0  0  0  0  0  0  0  0  0  0
  145.3950  137.0836  152.4847 C   0  0  0  0  0  0  0  0  0  0  0  0
  147.3883  135.0833  152.8130 H   0  0  0  0  0  0  0  0  0  0  0  0
  146.3296  133.8649  153.5157 H   0  0  0  0  0  0  0  0  0  0  0  0
  146.6059  135.3816  154.3593 H   0  0  0  0  0  0  0  0  0  0  0  0
  144.3923  135.3822  153.3072 H   0  0  0  0  0  0  0  0  0  0  0  0
  144.9258  133.8013  151.4123 H   0  0  0  0  0  0  0  0  0  0  0  0
  143.9499  135.1800  150.9763 H   0  0  0  0  0  0  0  0  0  0  0  0
  146.9462  134.8762  150.4715 H   0  0  0  0  0  0  0  0  0  0  0  0
  145.6812  134.8829  149.2709 H   0  0  0  0  0  0  0  0  0  0  0  0
  146.8460  137.0828  149.4062 H   0  0  0  0  0  0  0  0  0  0  0  0
  145.1391  137.2513  149.7693 H   0  0  0  0  0  0  0  0  0  0  0  0
  147.3576  139.0809  150.5326 H   0  0  0  0  0  0  0  0  0  0  0  0
  145.7456  139.4091  151.1177 H   0  0  0  0  0  0  0  0  0  0  0  0
  147.7083  140.4531  152.4912 H   0  0  0  0  0  0  0  0  0  0  0  0
  146.5596  139.5302  153.4282 H   0  0  0  0  0  0  0  0  0  0  0  0
  148.5523  137.7304  152.6238 H   0  0  0  0  0  0  0  0  0  0  0  0
  149.9728  137.3324  155.5368 H   0  0  0  0  0  0  0  0  0  0  0  0
  150.1895  136.9998  153.8259 H   0  0  0  0  0  0  0  0  0  0  0  0
  151.3514  140.0947  155.9147 H   0  0  0  0  0  0  0  0  0  0  0  0
  144.4346  137.5118  152.1928 H   0  0  0  0  0  0  0  0  0  0  0  0
  145.6514  137.5317  153.4440 H   0  0  0  0  0  0  0  0  0  0  0  0
  147.2801  137.0019  151.7409 H   0  0  0  0  0  0  0  0  0  0  0  0
  1  2  1  0  0  0  0
  1 19  1  0  0  0  0
  1 20  1  0  0  0  0
  1 21  1  0  0  0  0
  2 18  1  0  0  0  0
  2  3  1  0  0  0  0
  2 22  1  0  0  0  0
  3  4  1  0  0  0  0
  3 23  1  0  0  0  0
  3 24  1  0  0  0  0
  4  5  1  0  0  0  0
  4 25  1  0  0  0  0
  4 26  1  0  0  0  0
  5  6  1  0  0  0  0
  5 27  1  0  0  0  0
  5 28  1  0  0  0  0
  6  7  1  0  0  0  0
  6 18  1  0  0  0  0
  6 39  1  0  0  0  0
  7  8  1  0  0  0  0
  7 29  1  0  0  0  0
  7 30  1  0  0  0  0
  8  9  1  0  0  0  0
  8 31  1  0  0  0  0
  8 32  1  0  0  0  0
  9 10  1  0  0  0  0
  9 33  1  0  0  0  0
 10 11  2  0  0  0  0
 10 12  1  0  0  0  0
 12 13  1  0  0  0  0
 12 34  1  0  0  0  0
 12 35  1  0  0  0  0
 13 17  1  0  0  0  0
 13 14  1  0  0  0  0
 14 15  2  0  0  0  0
 14 36  1  0  0  0  0
 15 16  1  0  0  0  0
 16 17  2  0  0  0  0
 18 37  1  0  0  0  0
 18 38  1  0  0  0  0
M  CHG  1   6   1
M  END
> <s_m_source_file>
AV-unprocessed.smi

> <i_m_source_file_index>
1607

> <i_lp_mmshare_version>
43012

> <i_f3d_flags>
0

> <s_epik_input>
W0NIM11bQ0BASF0xW0NIMl1bQ0gyXVtDSDJdTihbQ0gyXTEpW0NIMl1bQ0gyXVtOSF1DKD1PKVtDSDJdbjJbY0hdbm5uMg==

> <s_epik_cmdline>
J2VwaWtfcHl0aG9uJywgJy1waCcsICc3LjAnLCAnLXRuJywgJzgnLCAnLW1hJywgJzIwMCcsICctbWV0YWxfYmluZGluZycsICctaW1hZScsICc8aW5maWxlLm1hZT4nLCAnLW9tYWUnLCAnPG91dGZpbGUubWFlPic=

> <r_lp_tautomer_probability>
1

> <r_epik_Ionization_Penalty>
0.00268321

> <r_epik_Ionization_Penalty_Charging>
0.00267875

> <r_epik_Ionization_Penalty_Neutral>
4.46125e-06

> <r_epik_State_Penalty>
0.00186642

> <r_epik_Charging_Adjusted_Penalty>
0.00454517

> <i_epik_Tot_Q>
1

> <i_epik_Tot_abs_Q>
1

> <r_epik_Metal_State_Penalty>
-0

> <b_epik_Metal_Only>
0

> <s_lp_Force_Field>
OPLS_2005

> <r_lp_Energy>
22.0016

> <b_lp_Chiralities_Consistent>
1

> <s_lp_Variant>
AV-unprocessed.smi:1607-3

> <Gold.Version>
5.8.1

> <Gold.Id.Protein>
6NUR|6NUR_protein|mol2

> <Gold.PLP.Fitness>
45.8363

> <Gold.PLP.PLP>
-32.1461

> <Gold.PLP.part.hbond>
-6.2861

> <Gold.PLP.part.metal>
0.0000

> <Gold.PLP.part.buried>
2.7305

> <Gold.PLP.part.nonpolar>
-28.2405

> <Gold.PLP.part.repulsive>
0.3701

> <Gold.PLP.ligand.clash>
0.0000

> <Gold.PLP.ligand.torsion>
0.1961

> <Gold.PLP.Chemscore.Hbond>
4.6880

> <Gold.PLP.Chemscore.CHOScore>
0.0000

> <Gold.PLP.Chemscore.Metal>
0.0000

> <Gold.Chemscore.Hbonds>
donor molecule, donor type, donor heavy atom, donor atom, acceptor molecule, acceptor atom, score
      L1  H     6    39       P1  7948  2.00
      L1  H     9    33       P1  7948  1.00
      P1  H  7997  8008       L1    15  1.00
      P1  H 10752 10765       L1    17  0.39

> <Gold.PLP.Chemscore.Internal.Correction>
0.0184

> <Gold.Rescore>
     Score         DG    S(hbond)    S(metal)    S(lipo)     H(rot)  DE(clash)    DE(int)     intcor
     13.83     -16.11       3.40        0.00      52.76       2.69       1.82       0.46       ----

> <Gold.Chemscore.Fitness>
13.8266

> <Gold.Chemscore.DG>
-16.1098

> <Gold.Chemscore.ZeroCoef>
-5.4800

> <Gold.Chemscore.Hbond>
3.3985

> <Gold.Chemscore.Metal>
0.0000

> <Gold.Chemscore.Lipo>
52.7623

> <Gold.Chemscore.Internal_Hbond>
0.0000

> <Gold.Chemscore.DEClash>
1.8237

> <Gold.Chemscore.DEInternal>
0.4595

> <Gold.Chemscore.Rot>
2.6932

> <Gold.Chemscore.Internal.Correction>
   9.000000E+99

> <Gold.Chemscore.Hbonds>
donor molecule, donor type, donor heavy atom, donor atom, acceptor molecule, acceptor atom, score
      L1  H     6    39       P1  7948  1.00
      L1  H     9    33       P1  7948  1.00
      P1  H  7997  8008       L1    15  0.89
      P1  H 10752 10765       L1    17  0.32

> <Gold.Chemscore.Hbond.Weighted>
-11.3511

> <Gold.Chemscore.Metal.Weighted>
-0.0000

> <Gold.Chemscore.Lipo.Weighted>
-6.1732

> <Gold.Chemscore.Internal_Hbond.Weighted>
0.0000

> <Gold.Chemscore.DEClash.Weighted>
1.8237

> <Gold.Chemscore.DEInternal.Weighted>
0.4595

> <Gold.Chemscore.Rot.Weighted>
6.8945

> <Gold.Chemscore.Internal.Correction.Weighted>
   9.000000E+99

> <Gold.Protein.RotatedTorsions>
[ 6907 6896 6895 6894 ] final   95.66 input  -60.11 | X-H torsion
[ 7974 7965 7964 7962 ] final -152.75 input  175.53 | X-H torsion
[ 8008 7997 7996 7995 ] final  -25.48 input   59.86 | X-H torsion
[ 10167 10162 10161 10158 ] final -122.04 input  -65.29 | X-H torsion
[ 10718 10713 10712 10709 ] final  -88.14 input   66.30 | X-H torsion
[ 10763 10752 10751 10750 ] final  150.15 input  -60.55 | X-H torsion
[ 11005 11000 10999 10996 ] final -138.93 input  -57.11 | X-H torsion

> <Gold.Protein.ActiveResidues>
 VAL166  LYS551  ARG553  GLY616  TRP617  ASP618  TYR619  PRO620  LYS621  CYS622 
 ASP623  PHE694  ASN695  SER759  ASP760  ASP761  ALA762  ILE779  LEU786  VAL792 
 PHE793  MET794  SER795  GLU796  ALA797  LYS798  CYS799  TRP800  GLU811  SER814 

> <Gold.Protein.RotatedAtoms>
  152.5442  134.1006  159.8315 H   0  0  0  0  0  0  0  0  0  0  0  0  # atno 6907 bound_to 6896
  151.1084  133.5184  159.2614 H   0  0  0  0  0  0  0  0  0  0  0  0  # atno 6908 bound_to 6896
  151.1912  135.0412  159.8888 H   0  0  0  0  0  0  0  0  0  0  0  0  # atno 6909 bound_to 6896
  144.7777  140.4620  143.5861 H   0  0  0  0  0  0  0  0  0  0  0  0  # atno 7974 bound_to 7965
  154.4474  140.1925  156.0625 H   0  0  0  0  0  0  0  0  0  0  0  0  # atno 8008 bound_to 7997
  156.0572  140.3301  155.7392 H   0  0  0  0  0  0  0  0  0  0  0  0  # atno 8009 bound_to 7997
  155.5467  140.0591  157.2849 H   0  0  0  0  0  0  0  0  0  0  0  0  # atno 8010 bound_to 7997
  140.0185  143.5368  152.2231 H   0  0  0  0  0  0  0  0  0  0  0  0  # atno 10167 bound_to 10162
  155.9984  130.4825  150.4973 H   0  0  0  0  0  0  0  0  0  0  0  0  # atno 10718 bound_to 10713
  154.0829  135.2858  155.3287 H   0  0  0  0  0  0  0  0  0  0  0  0  # atno 10763 bound_to 10752
  154.6672  135.5313  153.8095 H   0  0  0  0  0  0  0  0  0  0  0  0  # atno 10764 bound_to 10752
  153.0442  135.6548  154.1002 H   0  0  0  0  0  0  0  0  0  0  0  0  # atno 10765 bound_to 10752
  140.8569  134.2217  157.4729 H   0  0  0  0  0  0  0  0  0  0  0  0  # atno 11005 bound_to 11000
  145.6138  139.1516  143.3061 LP  0  0  0  0  0  0  0  0  0  0  0  0  # atno 17320 bound_to 7965
  146.1967  140.6252  142.9121 LP  0  0  0  0  0  0  0  0  0  0  0  0  # atno 17321 bound_to 7965
  139.6156  144.7618  151.2854 LP  0  0  0  0  0  0  0  0  0  0  0  0  # atno 17342 bound_to 10162
  140.7352  143.6743  150.8055 LP  0  0  0  0  0  0  0  0  0  0  0  0  # atno 17343 bound_to 10162
  157.2962  131.0636  151.2100 LP  0  0  0  0  0  0  0  0  0  0  0  0  # atno 17370 bound_to 10713
  157.3095  130.6883  149.6208 LP  0  0  0  0  0  0  0  0  0  0  0  0  # atno 17371 bound_to 10713
  139.8705  134.9710  156.4723 LP  0  0  0  0  0  0  0  0  0  0  0  0  # atno 17394 bound_to 11000
  140.8727  133.7976  155.9382 LP  0  0  0  0  0  0  0  0  0  0  0  0  # atno 17395 bound_to 11000

$$$$
