AV-unprocessed.smi:438|AV-procd|sdf|2570|dock4
  -GOLD-   2262022543D 1   1.00000     0.00000
 Structure written by MMmdl.
 48 49  0  0  0  0  0  0  0  0  1 V2000
  147.7248  133.4531  158.3842 C   0  0  0  0  0  0  0  0  0  0  0  0
  148.2429  134.7262  159.0303 C   0  0  0  0  0  0  0  0  0  0  0  0
  149.2360  135.3675  158.3120 N   0  0  0  0  0  0  0  0  0  0  0  0
  149.7842  136.5357  158.8182 C   0  0  0  0  0  0  0  0  0  0  0  0
  151.0741  137.1537  157.6982 S   0  0  0  0  0  0  0  0  0  0  0  0
  150.4092  138.7831  157.2406 C   0  0  0  0  0  0  0  0  0  0  0  0
  151.3820  139.9362  157.4893 C   0  0  0  0  0  0  0  0  0  0  0  0
  152.5554  139.8601  157.1240 O   0  0  0  0  0  0  0  0  0  0  0  0
  150.8729  141.0094  158.1136 N   0  0  0  0  0  0  0  0  0  0  0  0
  151.6194  142.2111  158.4805 C   0  0  1  0  0  0  0  0  0  0  0  0
  150.6789  143.4349  158.4819 C   0  0  0  0  0  0  0  0  0  0  0  0
  151.4117  144.7124  158.9166 C   0  0  0  0  0  0  0  0  0  0  0  0
  152.0724  144.5292  160.2898 C   0  0  0  0  0  0  0  0  0  0  0  0
  153.0189  143.3195  160.2887 C   0  0  0  0  0  0  0  0  0  0  0  0
  152.2970  142.0254  159.8614 C   0  0  2  0  0  0  0  0  0  0  0  0
  153.2676  140.8310  159.8889 C   0  0  0  0  0  0  0  0  0  0  0  0
  149.4083  137.0813  159.9371 N   0  0  0  0  0  0  0  0  0  0  0  0
  148.3995  136.4827  160.7068 C   0  0  0  0  0  0  0  0  0  0  0  0
  148.0310  136.9989  161.7609 O   0  0  0  0  0  0  0  0  0  0  0  0
  147.8032  135.2229  160.2125 C   0  0  0  0  0  0  0  0  0  0  0  0
  146.7067  134.5609  161.0472 C   0  0  0  0  0  0  0  0  0  0  0  0
  147.1375  134.2665  162.4947 C   0  0  0  0  0  0  0  0  0  0  0  0
  146.0713  133.7051  163.2312 O   0  0  0  0  0  0  0  0  0  0  0  0
  147.8455  132.6057  159.0593 H   0  0  0  0  0  0  0  0  0  0  0  0
  148.2601  133.2234  157.4618 H   0  0  0  0  0  0  0  0  0  0  0  0
  146.6670  133.5537  158.1404 H   0  0  0  0  0  0  0  0  0  0  0  0
  149.4937  138.9577  157.8078 H   0  0  0  0  0  0  0  0  0  0  0  0
  150.1397  138.7733  156.1842 H   0  0  0  0  0  0  0  0  0  0  0  0
  149.8963  140.9870  158.3694 H   0  0  0  0  0  0  0  0  0  0  0  0
  152.4047  142.3768  157.7401 H   0  0  0  0  0  0  0  0  0  0  0  0
  150.2514  143.5837  157.4894 H   0  0  0  0  0  0  0  0  0  0  0  0
  149.8391  143.2541  159.1544 H   0  0  0  0  0  0  0  0  0  0  0  0
  152.1703  144.9686  158.1758 H   0  0  0  0  0  0  0  0  0  0  0  0
  150.7139  145.5496  158.9478 H   0  0  0  0  0  0  0  0  0  0  0  0
  152.6223  145.4308  160.5609 H   0  0  0  0  0  0  0  0  0  0  0  0
  151.3044  144.3935  161.0524 H   0  0  0  0  0  0  0  0  0  0  0  0
  153.8543  143.5140  159.6147 H   0  0  0  0  0  0  0  0  0  0  0  0
  153.4494  143.1959  161.2830 H   0  0  0  0  0  0  0  0  0  0  0  0
  151.5159  141.8269  160.5972 H   0  0  0  0  0  0  0  0  0  0  0  0
  154.0615  140.9503  159.1512 H   0  0  0  0  0  0  0  0  0  0  0  0
  152.7574  139.8906  159.6801 H   0  0  0  0  0  0  0  0  0  0  0  0
  153.7368  140.7314  160.8681 H   0  0  0  0  0  0  0  0  0  0  0  0
  149.5338  134.9551  157.4396 H   0  0  0  0  0  0  0  0  0  0  0  0
  146.3680  133.6384  160.5769 H   0  0  0  0  0  0  0  0  0  0  0  0
  145.8317  135.2123  161.0545 H   0  0  0  0  0  0  0  0  0  0  0  0
  147.9901  133.5878  162.5224 H   0  0  0  0  0  0  0  0  0  0  0  0
  147.4494  135.1884  162.9857 H   0  0  0  0  0  0  0  0  0  0  0  0
  146.2184  133.8738  164.1494 H   0  0  0  0  0  0  0  0  0  0  0  0
  1 24  1  0  0  0  0
  1 25  1  0  0  0  0
  1 26  1  0  0  0  0
  1  2  1  0  0  0  0
  2 20  2  0  0  0  0
  2  3  1  0  0  0  0
  3  4  1  0  0  0  0
  3 43  1  0  0  0  0
  4  5  1  0  0  0  0
  4 17  2  0  0  0  0
  5  6  1  0  0  0  0
  6  7  1  0  0  0  0
  6 27  1  0  0  0  0
  6 28  1  0  0  0  0
  7  8  2  0  0  0  0
  7  9  1  0  0  0  0
  9 10  1  0  0  0  0
  9 29  1  0  0  0  0
 10 15  1  0  0  0  0
 10 11  1  0  0  0  0
 10 30  1  0  0  0  0
 11 12  1  0  0  0  0
 11 31  1  0  0  0  0
 11 32  1  0  0  0  0
 12 13  1  0  0  0  0
 12 33  1  0  0  0  0
 12 34  1  0  0  0  0
 13 14  1  0  0  0  0
 13 35  1  0  0  0  0
 13 36  1  0  0  0  0
 14 15  1  0  0  0  0
 14 37  1  0  0  0  0
 14 38  1  0  0  0  0
 15 16  1  0  0  0  0
 15 39  1  0  0  0  0
 16 40  1  0  0  0  0
 16 41  1  0  0  0  0
 16 42  1  0  0  0  0
 17 18  1  0  0  0  0
 18 19  2  0  0  0  0
 18 20  1  0  0  0  0
 20 21  1  0  0  0  0
 21 22  1  0  0  0  0
 21 44  1  0  0  0  0
 21 45  1  0  0  0  0
 22 23  1  0  0  0  0
 22 46  1  0  0  0  0
 22 47  1  0  0  0  0
 23 48  1  0  0  0  0
M  END
> <s_m_source_file>
AV-unprocessed.smi

> <i_m_source_file_index>
438

> <i_lp_mmshare_version>
43012

> <i_f3d_flags>
0

> <s_epik_input>
W09IXVtDSDJdW0NIMl1jMWMoW09IXSluYyhuYzFbQ0gzXSlTW0NIMl1DKD1PKVtOSF1bQ0BASF0yW0NIMl1bQ0gyXVtDSDJdW0NIMl1bQ0BIXTJbQ0gzXQ==

> <s_epik_cmdline>
J2VwaWtfcHl0aG9uJywgJy1waCcsICc3LjAnLCAnLXRuJywgJzgnLCAnLW1hJywgJzIwMCcsICctbWV0YWxfYmluZGluZycsICctaW1hZScsICc8aW5maWxlLm1hZT4nLCAnLW9tYWUnLCAnPG91dGZpbGUubWFlPic=

> <r_lp_tautomer_probability>
0.273662

> <r_epik_Ionization_Penalty>
0.0875285

> <r_epik_Ionization_Penalty_Charging>
0.0875254

> <r_epik_Ionization_Penalty_Neutral>
3.01536e-06

> <r_epik_State_Penalty>
0.985796

> <r_epik_Charging_Adjusted_Penalty>
1.07332

> <i_epik_Tot_Q>
0

> <i_epik_Tot_abs_Q>
0

> <r_epik_Metal_State_Penalty>
1.58101

> <b_epik_Metal_Only>
0

> <s_lp_Force_Field>
OPLS_2005

> <r_lp_Energy>
20.5505

> <b_lp_Chiralities_Consistent>
1

> <s_lp_Variant>
AV-unprocessed.smi:438-8

> <Gold.Version>
5.8.1

> <Gold.Id.Protein>
6NUR|6NUR_protein|mol2

> <Gold.PLP.Fitness>
47.5313

> <Gold.PLP.PLP>
-41.0882

> <Gold.PLP.part.hbond>
-5.0000

> <Gold.PLP.part.metal>
0.0000

> <Gold.PLP.part.buried>
-4.8128

> <Gold.PLP.part.nonpolar>
-31.7846

> <Gold.PLP.part.repulsive>
0.1976

> <Gold.PLP.ligand.clash>
0.0000

> <Gold.PLP.ligand.torsion>
0.9045

> <Gold.PLP.Chemscore.Hbond>
2.7200

> <Gold.PLP.Chemscore.CHOScore>
0.0000

> <Gold.PLP.Chemscore.Metal>
0.0000

> <Gold.Chemscore.Hbonds>
donor molecule, donor type, donor heavy atom, donor atom, acceptor molecule, acceptor atom, score
      P1  H  6931  6943       L1    19  1.00
      P1  H  6934  6947       L1    19  0.15
      P1  H  7997  8010       L1     8  1.00

> <Gold.PLP.Chemscore.Internal.Correction>
0.0921

> <Gold.Rescore>
     Score         DG    S(hbond)    S(metal)    S(lipo)     H(rot)  DE(clash)    DE(int)     intcor
     16.71     -18.75       2.60        0.00     101.72       2.86       0.02       2.02       ----

> <Gold.Chemscore.Fitness>
16.7070

> <Gold.Chemscore.DG>
-18.7453

> <Gold.Chemscore.ZeroCoef>
-5.4800

> <Gold.Chemscore.Hbond>
2.6041

> <Gold.Chemscore.Metal>
0.0000

> <Gold.Chemscore.Lipo>
101.7166

> <Gold.Chemscore.Internal_Hbond>
0.0000

> <Gold.Chemscore.DEClash>
0.0169

> <Gold.Chemscore.DEInternal>
2.0214

> <Gold.Chemscore.Rot>
2.8645

> <Gold.Chemscore.Internal.Correction>
   9.000000E+99

> <Gold.Chemscore.Hbonds>
donor molecule, donor type, donor heavy atom, donor atom, acceptor molecule, acceptor atom, score
      P1  H  6931  6943       L1    19  0.39
      P1  H  6934  6947       L1    19  0.04
      P1  H  7997  8010       L1     8  1.00

> <Gold.Chemscore.Hbond.Weighted>
-8.6976

> <Gold.Chemscore.Metal.Weighted>
-0.0000

> <Gold.Chemscore.Lipo.Weighted>
-11.9008

> <Gold.Chemscore.Internal_Hbond.Weighted>
0.0000

> <Gold.Chemscore.DEClash.Weighted>
0.0169

> <Gold.Chemscore.DEInternal.Weighted>
2.0214

> <Gold.Chemscore.Rot.Weighted>
7.3331

> <Gold.Chemscore.Internal.Correction.Weighted>
   9.000000E+99

> <Gold.Protein.RotatedTorsions>
[ 6907 6896 6895 6894 ] final    9.08 input  -60.11 | X-H torsion
[ 7974 7965 7964 7962 ] final   44.52 input  175.53 | X-H torsion
[ 8008 7997 7996 7995 ] final   65.65 input   59.86 | X-H torsion
[ 10167 10162 10161 10158 ] final -143.87 input  -65.29 | X-H torsion
[ 10718 10713 10712 10709 ] final  -93.70 input   66.30 | X-H torsion
[ 10763 10752 10751 10750 ] final  -46.32 input  -60.55 | X-H torsion
[ 11005 11000 10999 10996 ] final -130.13 input  -57.11 | X-H torsion

> <Gold.Protein.ActiveResidues>
 VAL166  LYS551  ARG553  GLY616  TRP617  ASP618  TYR619  PRO620  LYS621  CYS622 
 ASP623  PHE694  ASN695  SER759  ASP760  ASP761  ALA762  ILE779  LEU786  VAL792 
 PHE793  MET794  SER795  GLU796  ALA797  LYS798  CYS799  TRP800  GLU811  SER814 

> <Gold.Protein.RotatedAtoms>
  151.7163  135.0903  160.0276 H   0  0  0  0  0  0  0  0  0  0  0  0  # atno 6907 bound_to 6896
  152.3630  133.6316  159.6037 H   0  0  0  0  0  0  0  0  0  0  0  0  # atno 6908 bound_to 6896
  150.7618  133.9310  159.3468 H   0  0  0  0  0  0  0  0  0  0  0  0  # atno 6909 bound_to 6896
  146.0561  139.5065  142.9687 H   0  0  0  0  0  0  0  0  0  0  0  0  # atno 7974 bound_to 7965
  155.6651  140.3497  155.4797 H   0  0  0  0  0  0  0  0  0  0  0  0  # atno 8008 bound_to 7997
  155.9736  140.1160  157.0813 H   0  0  0  0  0  0  0  0  0  0  0  0  # atno 8009 bound_to 7997
  154.4173  140.1152  156.5326 H   0  0  0  0  0  0  0  0  0  0  0  0  # atno 8010 bound_to 7997
  139.7952  143.7910  152.2653 H   0  0  0  0  0  0  0  0  0  0  0  0  # atno 10167 bound_to 10162
  156.0017  130.5037  150.5816 H   0  0  0  0  0  0  0  0  0  0  0  0  # atno 10718 bound_to 10713
  154.0430  135.6641  153.4792 H   0  0  0  0  0  0  0  0  0  0  0  0  # atno 10763 bound_to 10752
  153.0494  135.5094  154.7824 H   0  0  0  0  0  0  0  0  0  0  0  0  # atno 10764 bound_to 10752
  154.6806  135.3044  154.9584 H   0  0  0  0  0  0  0  0  0  0  0  0  # atno 10765 bound_to 10752
  140.9372  134.1241  157.4183 H   0  0  0  0  0  0  0  0  0  0  0  0  # atno 11005 bound_to 11000
  145.6641  141.0233  143.1693 LP  0  0  0  0  0  0  0  0  0  0  0  0  # atno 17320 bound_to 7965
  144.7149  139.8234  143.7402 LP  0  0  0  0  0  0  0  0  0  0  0  0  # atno 17321 bound_to 7965
  139.8013  144.7373  150.9820 LP  0  0  0  0  0  0  0  0  0  0  0  0  # atno 17342 bound_to 10162
  140.7820  143.4342  151.0649 LP  0  0  0  0  0  0  0  0  0  0  0  0  # atno 17343 bound_to 10162
  157.3695  131.0763  151.1570 LP  0  0  0  0  0  0  0  0  0  0  0  0  # atno 17370 bound_to 10713
  157.2328  130.6533  149.5857 LP  0  0  0  0  0  0  0  0  0  0  0  0  # atno 17371 bound_to 10713
  139.8811  135.0025  156.6129 LP  0  0  0  0  0  0  0  0  0  0  0  0  # atno 17394 bound_to 11000
  140.7783  133.8681  155.8547 LP  0  0  0  0  0  0  0  0  0  0  0  0  # atno 17395 bound_to 11000

$$$$
