AV-unprocessed.smi:99|AV-procd|sdf|880|dock3
  -GOLD-   2262017353D 1   1.00000     0.00000
 Structure written by MMmdl.
 53 56  0  0  0  0  0  0  0  0  1 V2000
  147.4408  133.2558  159.0006 O   0  0  0  0  0  0  0  0  0  0  0  0
  146.8427  134.2847  159.3203 C   0  0  0  0  0  0  0  0  0  0  0  0
  145.9307  134.8927  158.5378 O   0  0  0  0  0  0  0  0  0  0  0  0
  145.6198  134.3743  157.2547 C   0  0  0  0  0  0  0  0  0  0  0  0
  146.6119  134.9470  156.2348 C   0  0  1  0  0  0  0  0  0  0  0  0
  147.7713  135.4324  156.9053 O   0  0  0  0  0  0  0  0  0  0  0  0
  148.8760  135.3993  156.0441 C   0  0  2  0  0  0  0  0  0  0  0  0
  149.3398  136.8154  155.7647 N   0  0  0  0  0  0  0  0  0  0  0  0
  148.6115  137.9278  156.1689 C   0  0  0  0  0  0  0  0  0  0  0  0
  149.0103  139.1986  155.9246 C   0  0  0  0  0  0  0  0  0  0  0  0
  150.2527  139.4607  155.2051 C   0  0  0  0  0  0  0  0  0  0  0  0
  150.6970  140.5756  154.9408 O   0  0  0  0  0  0  0  0  0  0  0  0
  150.9466  138.3138  154.8088 N   0  0  0  0  0  0  0  0  0  0  0  0
  150.5437  136.9997  155.0511 C   0  0  0  0  0  0  0  0  0  0  0  0
  151.2236  136.0593  154.6420 O   0  0  0  0  0  0  0  0  0  0  0  0
  148.4474  134.6393  154.7669 C   0  0  2  0  0  0  0  0  0  0  0  0
  148.1457  135.5096  153.6857 O   0  0  0  0  0  0  0  0  0  0  0  0
  147.2052  133.9210  155.2702 C   0  0  2  0  0  0  0  0  0  0  0  0
  146.3431  133.5295  154.2047 O   0  0  0  0  0  0  0  0  0  0  0  0
  146.8144  132.8622  153.1285 C   0  0  0  0  0  0  0  0  0  0  0  0
  147.9402  132.3646  153.0677 O   0  0  0  0  0  0  0  0  0  0  0  0
  145.8101  132.7526  152.0326 C   0  0  0  0  0  0  0  0  0  0  0  0
  144.5009  133.2458  152.2410 C   0  0  0  0  0  0  0  0  0  0  0  0
  143.5386  133.1811  151.2149 C   0  0  0  0  0  0  0  0  0  0  0  0
  143.8727  132.6182  149.9695 C   0  0  0  0  0  0  0  0  0  0  0  0
  145.1702  132.1199  149.7512 C   0  0  0  0  0  0  0  0  0  0  0  0
  146.1349  132.1865  150.7753 C   0  0  0  0  0  0  0  0  0  0  0  0
  147.0290  134.9752  160.6291 C   0  0  0  0  0  0  0  0  0  0  0  0
  147.2513  134.2053  161.7945 C   0  0  0  0  0  0  0  0  0  0  0  0
  147.4032  134.8292  163.0481 C   0  0  0  0  0  0  0  0  0  0  0  0
  147.3361  136.2310  163.1515 C   0  0  0  0  0  0  0  0  0  0  0  0
  147.1216  137.0087  161.9987 C   0  0  0  0  0  0  0  0  0  0  0  0
  146.9715  136.3865  160.7444 C   0  0  0  0  0  0  0  0  0  0  0  0
  151.8096  138.4481  154.3017 H   0  0  0  0  0  0  0  0  0  0  0  0
  145.6951  133.2869  157.2870 H   0  0  0  0  0  0  0  0  0  0  0  0
  144.5993  134.6257  156.9619 H   0  0  0  0  0  0  0  0  0  0  0  0
  146.1577  135.7721  155.6835 H   0  0  0  0  0  0  0  0  0  0  0  0
  149.6888  134.9111  156.5854 H   0  0  0  0  0  0  0  0  0  0  0  0
  147.6800  137.7981  156.6986 H   0  0  0  0  0  0  0  0  0  0  0  0
  148.4052  140.0276  156.2624 H   0  0  0  0  0  0  0  0  0  0  0  0
  149.2312  133.9458  154.4608 H   0  0  0  0  0  0  0  0  0  0  0  0
  148.7048  135.2845  152.9577 H   0  0  0  0  0  0  0  0  0  0  0  0
  147.5397  133.0563  155.8455 H   0  0  0  0  0  0  0  0  0  0  0  0
  144.2236  133.6894  153.1865 H   0  0  0  0  0  0  0  0  0  0  0  0
  142.5443  133.5673  151.3831 H   0  0  0  0  0  0  0  0  0  0  0  0
  143.1349  132.5697  149.1821 H   0  0  0  0  0  0  0  0  0  0  0  0
  145.4278  131.6872  148.7957 H   0  0  0  0  0  0  0  0  0  0  0  0
  147.1227  131.7984  150.5739 H   0  0  0  0  0  0  0  0  0  0  0  0
  147.2991  133.1269  161.7409 H   0  0  0  0  0  0  0  0  0  0  0  0
  147.5681  134.2304  163.9318 H   0  0  0  0  0  0  0  0  0  0  0  0
  147.4482  136.7090  164.1134 H   0  0  0  0  0  0  0  0  0  0  0  0
  147.0658  138.0845  162.0761 H   0  0  0  0  0  0  0  0  0  0  0  0
  146.8005  137.0137  159.8815 H   0  0  0  0  0  0  0  0  0  0  0  0
  1  2  2  0  0  0  0
  2  3  1  0  0  0  0
  2 28  1  0  0  0  0
  3  4  1  0  0  0  0
  4  5  1  0  0  0  0
  4 35  1  0  0  0  0
  4 36  1  0  0  0  0
  5 18  1  0  0  0  0
  5  6  1  0  0  0  0
  5 37  1  0  0  0  0
  6  7  1  0  0  0  0
  7  8  1  0  0  0  0
  7 16  1  0  0  0  0
  7 38  1  0  0  0  0
  8 14  1  0  0  0  0
  8  9  1  0  0  0  0
  9 10  2  0  0  0  0
  9 39  1  0  0  0  0
 10 11  1  0  0  0  0
 10 40  1  0  0  0  0
 11 12  2  0  0  0  0
 11 13  1  0  0  0  0
 13 34  1  0  0  0  0
 13 14  1  0  0  0  0
 14 15  2  0  0  0  0
 16 17  1  0  0  0  0
 16 18  1  0  0  0  0
 16 41  1  0  0  0  0
 17 42  1  0  0  0  0
 18 19  1  0  0  0  0
 18 43  1  0  0  0  0
 19 20  1  0  0  0  0
 20 21  2  0  0  0  0
 20 22  1  0  0  0  0
 22 27  1  0  0  0  0
 22 23  2  0  0  0  0
 23 24  1  0  0  0  0
 23 44  1  0  0  0  0
 24 25  2  0  0  0  0
 24 45  1  0  0  0  0
 25 26  1  0  0  0  0
 25 46  1  0  0  0  0
 26 27  2  0  0  0  0
 26 47  1  0  0  0  0
 27 48  1  0  0  0  0
 28 33  1  0  0  0  0
 28 29  2  0  0  0  0
 29 30  1  0  0  0  0
 29 49  1  0  0  0  0
 30 31  2  0  0  0  0
 30 50  1  0  0  0  0
 31 32  1  0  0  0  0
 31 51  1  0  0  0  0
 32 33  2  0  0  0  0
 32 52  1  0  0  0  0
 33 53  1  0  0  0  0
M  END
> <s_m_source_file>
AV-unprocessed.smi

> <i_m_source_file_index>
99

> <i_lp_mmshare_version>
43012

> <i_f3d_flags>
0

> <s_epik_input>
W2NIXTFbY0hdW2NIXVtjSF1bY0hdYzFDKD1PKU9bQ0gyXVtDQEBIXTJPW0NAQEhdKG4zW2NIXVtjSF1jKD1PKVtuSF1jMz1PKVtDQEBIXShbT0hdKVtDQEhdMk9DKD1PKWM0W2NIXVtjSF1bY0hdW2NIXVtjSF00

> <s_epik_cmdline>
J2VwaWtfcHl0aG9uJywgJy1waCcsICc3LjAnLCAnLXRuJywgJzgnLCAnLW1hJywgJzIwMCcsICctbWV0YWxfYmluZGluZycsICctaW1hZScsICc8aW5maWxlLm1hZT4nLCAnLW9tYWUnLCAnPG91dGZpbGUubWFlPic=

> <r_lp_tautomer_probability>
1

> <r_epik_Ionization_Penalty>
0.00454555

> <r_epik_Ionization_Penalty_Charging>
0.0045191

> <r_epik_Ionization_Penalty_Neutral>
2.64449e-05

> <r_epik_State_Penalty>
-0

> <r_epik_Charging_Adjusted_Penalty>
0.0045191

> <i_epik_Tot_Q>
0

> <i_epik_Tot_abs_Q>
0

> <r_epik_Metal_State_Penalty>
1.27877

> <b_epik_Metal_Only>
0

> <s_epik_Chemistry_Notes>
This compound has an ester and may undergo hydrolysis at high or low pH. This compound contains an acetal/aminal-like group ( X-CH(R)-Y where X, Y are N, S, or O) that may be acid/base labile, releasing an aldehyde.

> <s_lp_Force_Field>
OPLS_2005

> <r_lp_Energy>
44.2289

> <b_lp_Chiralities_Consistent>
1

> <s_lp_Variant>
AV-unprocessed.smi:99-16

> <Gold.Version>
5.8.1

> <Gold.Id.Protein>
6NUR|6NUR_protein|mol2

> <Gold.PLP.Fitness>
45.7448

> <Gold.PLP.PLP>
-41.2011

> <Gold.PLP.part.hbond>
-1.3816

> <Gold.PLP.part.metal>
0.0000

> <Gold.PLP.part.buried>
-5.0240

> <Gold.PLP.part.nonpolar>
-35.6608

> <Gold.PLP.part.repulsive>
0.5330

> <Gold.PLP.ligand.clash>
0.0000

> <Gold.PLP.ligand.torsion>
1.6196

> <Gold.PLP.Chemscore.Hbond>
2.4298

> <Gold.PLP.Chemscore.CHOScore>
0.0000

> <Gold.PLP.Chemscore.Metal>
0.0000

> <Gold.Chemscore.Hbonds>
donor molecule, donor type, donor heavy atom, donor atom, acceptor molecule, acceptor atom, score
      L1  H    17    42       P1  7948  0.37
      P1  H  7989  7998       L1    12  0.99
      P1  H 10752 10764       L1    15  1.00

> <Gold.PLP.Chemscore.Internal.Correction>
0.4935

> <Gold.Rescore>
     Score         DG    S(hbond)    S(metal)    S(lipo)     H(rot)  DE(clash)    DE(int)     intcor
     14.76     -17.63       2.31        0.00     107.78       3.19       0.04       2.83       ----

> <Gold.Chemscore.Fitness>
14.7629

> <Gold.Chemscore.DG>
-17.6255

> <Gold.Chemscore.ZeroCoef>
-5.4800

> <Gold.Chemscore.Hbond>
2.3059

> <Gold.Chemscore.Metal>
0.0000

> <Gold.Chemscore.Lipo>
107.7849

> <Gold.Chemscore.Internal_Hbond>
0.0000

> <Gold.Chemscore.DEClash>
0.0358

> <Gold.Chemscore.DEInternal>
2.8269

> <Gold.Chemscore.Rot>
3.1903

> <Gold.Chemscore.Internal.Correction>
   9.000000E+99

> <Gold.Chemscore.Hbonds>
donor molecule, donor type, donor heavy atom, donor atom, acceptor molecule, acceptor atom, score
      L1  H    17    42       P1  7948  0.26
      P1  H  7989  7998       L1    12  0.92
      P1  H 10752 10764       L1    15  0.96

> <Gold.Chemscore.Hbond.Weighted>
-7.7018

> <Gold.Chemscore.Metal.Weighted>
-0.0000

> <Gold.Chemscore.Lipo.Weighted>
-12.6108

> <Gold.Chemscore.Internal_Hbond.Weighted>
0.0000

> <Gold.Chemscore.DEClash.Weighted>
0.0358

> <Gold.Chemscore.DEInternal.Weighted>
2.8269

> <Gold.Chemscore.Rot.Weighted>
8.1671

> <Gold.Chemscore.Internal.Correction.Weighted>
   9.000000E+99

> <Gold.Protein.RotatedTorsions>
[ 6907 6896 6895 6894 ] final   60.54 input  -60.11 | X-H torsion
[ 7974 7965 7964 7962 ] final    7.82 input  175.53 | X-H torsion
[ 8008 7997 7996 7995 ] final  172.08 input   59.86 | X-H torsion
[ 10167 10162 10161 10158 ] final   44.88 input  -65.29 | X-H torsion
[ 10718 10713 10712 10709 ] final -171.32 input   66.30 | X-H torsion
[ 10763 10752 10751 10750 ] final  -47.78 input  -60.55 | X-H torsion
[ 11005 11000 10999 10996 ] final   77.93 input  -57.11 | X-H torsion

> <Gold.Protein.ActiveResidues>
 VAL166  LYS551  ARG553  GLY616  TRP617  ASP618  TYR619  PRO620  LYS621  CYS622 
 ASP623  PHE694  ASN695  SER759  ASP760  ASP761  ALA762  ILE779  LEU786  VAL792 
 PHE793  MET794  SER795  GLU796  ALA797  LYS798  CYS799  TRP800  GLU811  SER814 

> <Gold.Protein.RotatedAtoms>
  152.4012  134.6283  160.0068 H   0  0  0  0  0  0  0  0  0  0  0  0  # atno 6907 bound_to 6896
  151.6487  133.3316  159.3155 H   0  0  0  0  0  0  0  0  0  0  0  0  # atno 6908 bound_to 6896
  150.7912  134.6980  159.6579 H   0  0  0  0  0  0  0  0  0  0  0  0  # atno 6909 bound_to 6896
  146.2423  140.0025  142.8414 H   0  0  0  0  0  0  0  0  0  0  0  0  # atno 7974 bound_to 7965
  156.1209  140.1495  156.9206 H   0  0  0  0  0  0  0  0  0  0  0  0  # atno 8008 bound_to 7997
  154.4835  140.0872  156.7474 H   0  0  0  0  0  0  0  0  0  0  0  0  # atno 8009 bound_to 7997
  155.4431  140.3432  155.4294 H   0  0  0  0  0  0  0  0  0  0  0  0  # atno 8010 bound_to 7997
  140.3298  144.2603  150.6170 H   0  0  0  0  0  0  0  0  0  0  0  0  # atno 10167 bound_to 10162
  156.7391  130.9335  151.3109 H   0  0  0  0  0  0  0  0  0  0  0  0  # atno 10718 bound_to 10713
  154.0670  135.6610  153.4819 H   0  0  0  0  0  0  0  0  0  0  0  0  # atno 10763 bound_to 10752
  153.0405  135.5148  154.7604 H   0  0  0  0  0  0  0  0  0  0  0  0  # atno 10764 bound_to 10752
  154.6658  135.3022  154.9775 H   0  0  0  0  0  0  0  0  0  0  0  0  # atno 10765 bound_to 10752
  139.9234  134.7722  156.1584 H   0  0  0  0  0  0  0  0  0  0  0  0  # atno 11005 bound_to 11000
  145.1402  140.9567  143.4493 LP  0  0  0  0  0  0  0  0  0  0  0  0  # atno 17320 bound_to 7965
  145.0303  139.3347  143.6028 LP  0  0  0  0  0  0  0  0  0  0  0  0  # atno 17321 bound_to 7965
  140.5408  143.2224  151.8088 LP  0  0  0  0  0  0  0  0  0  0  0  0  # atno 17342 bound_to 10162
  139.4858  144.4603  151.9549 LP  0  0  0  0  0  0  0  0  0  0  0  0  # atno 17343 bound_to 10162
  157.6826  130.9154  150.0305 LP  0  0  0  0  0  0  0  0  0  0  0  0  # atno 17370 bound_to 10713
  156.1476  130.3642  149.9486 LP  0  0  0  0  0  0  0  0  0  0  0  0  # atno 17371 bound_to 10713
  141.0772  133.6770  156.2262 LP  0  0  0  0  0  0  0  0  0  0  0  0  # atno 17394 bound_to 11000
  140.6408  134.5168  157.5569 LP  0  0  0  0  0  0  0  0  0  0  0  0  # atno 17395 bound_to 11000

$$$$
