AV-unprocessed.smi:1289|AV-procd|sdf|5387|dock9
  -GOLD-   22720 4533D 1   1.00000     0.00000
 Structure written by MMmdl.
 38 40  0  0  0  0  0  0  0  0  2 V2000
  147.6602  131.5297  155.8567 N   0  0  0  0  0  0  0  0  0  0  0  0
  148.3468  132.4493  155.7092 C   0  0  0  0  0  0  0  0  0  0  0  0
  149.2091  133.6043  155.5238 C   0  0  0  0  0  0  0  0  0  0  0  0
  150.6092  133.4593  155.5821 C   0  0  0  0  0  0  0  0  0  0  0  0
  151.4416  134.5804  155.3994 C   0  0  0  0  0  0  0  0  0  0  0  0
  150.8931  135.8564  155.1568 C   0  0  0  0  0  0  0  0  0  0  0  0
  151.7818  136.8961  154.9889 O   0  0  0  0  0  0  0  0  0  0  0  0
  151.3000  138.1141  154.4341 C   0  0  0  0  0  0  0  0  0  0  0  0
  151.9628  139.3096  155.1381 C   0  0  2  0  0  0  0  0  0  0  0  0
  153.3612  139.1086  155.1803 O   0  0  0  0  0  0  0  0  0  0  0  0
  151.3839  139.6004  156.5376 C   0  0  0  0  0  0  0  0  0  0  0  0
  150.8678  140.9704  156.6664 N   0  0  0  0  0  0  0  0  0  0  0  0
  149.9723  141.6367  155.8883 C   0  0  0  0  0  0  0  0  0  0  0  0
  149.8115  142.8808  156.4184 N   0  3  0  0  0  0  0  0  0  0  0  0
  150.6145  143.0115  157.5534 C   0  0  0  0  0  0  0  0  0  0  0  0
  150.7915  144.0814  158.4254 C   0  0  0  0  0  0  0  0  0  0  0  0
  151.6929  143.8860  159.4923 C   0  0  0  0  0  0  0  0  0  0  0  0
  152.3784  142.6652  159.6606 C   0  0  0  0  0  0  0  0  0  0  0  0
  152.1912  141.5872  158.7705 C   0  0  0  0  0  0  0  0  0  0  0  0
  151.2968  141.7874  157.7192 C   0  0  0  0  0  0  0  0  0  0  0  0
  149.4830  135.9947  155.1015 C   0  0  0  0  0  0  0  0  0  0  0  0
  148.6485  134.8745  155.2841 C   0  0  0  0  0  0  0  0  0  0  0  0
  151.0520  132.4909  155.7662 H   0  0  0  0  0  0  0  0  0  0  0  0
  152.5141  134.4595  155.4451 H   0  0  0  0  0  0  0  0  0  0  0  0
  151.4839  138.1570  153.3590 H   0  0  0  0  0  0  0  0  0  0  0  0
  150.2213  138.1718  154.5886 H   0  0  0  0  0  0  0  0  0  0  0  0
  151.8057  140.1887  154.5118 H   0  0  0  0  0  0  0  0  0  0  0  0
  153.5376  138.1945  155.0185 H   0  0  0  0  0  0  0  0  0  0  0  0
  150.5521  138.9246  156.7399 H   0  0  0  0  0  0  0  0  0  0  0  0
  152.1189  139.4214  157.3225 H   0  0  0  0  0  0  0  0  0  0  0  0
  149.4771  141.2483  155.0098 H   0  0  0  0  0  0  0  0  0  0  0  0
  150.2682  145.0177  158.2983 H   0  0  0  0  0  0  0  0  0  0  0  0
  151.8626  144.6888  160.1953 H   0  0  0  0  0  0  0  0  0  0  0  0
  153.0627  142.5531  160.4890 H   0  0  0  0  0  0  0  0  0  0  0  0
  152.7254  140.6582  158.9066 H   0  0  0  0  0  0  0  0  0  0  0  0
  149.0150  136.9501  154.9199 H   0  0  0  0  0  0  0  0  0  0  0  0
  147.5760  134.9980  155.2382 H   0  0  0  0  0  0  0  0  0  0  0  0
  149.1969  143.5863  156.0324 H   0  0  0  0  0  0  0  0  0  0  0  0
  1  2  3  0  0  0  0
  2  3  1  0  0  0  0
  3 22  1  0  0  0  0
  3  4  2  0  0  0  0
  4  5  1  0  0  0  0
  4 23  1  0  0  0  0
  5  6  2  0  0  0  0
  5 24  1  0  0  0  0
  6  7  1  0  0  0  0
  6 21  1  0  0  0  0
  7  8  1  0  0  0  0
  8  9  1  0  0  0  0
  8 25  1  0  0  0  0
  8 26  1  0  0  0  0
  9 10  1  0  0  0  0
  9 11  1  0  0  0  0
  9 27  1  0  0  0  0
 10 28  1  0  0  0  0
 11 12  1  0  0  0  0
 11 29  1  0  0  0  0
 11 30  1  0  0  0  0
 12 20  1  0  0  0  0
 12 13  1  0  0  0  0
 13 14  2  0  0  0  0
 13 31  1  0  0  0  0
 14 15  1  0  0  0  0
 14 38  1  0  0  0  0
 15 20  2  0  0  0  0
 15 16  1  0  0  0  0
 16 17  2  0  0  0  0
 16 32  1  0  0  0  0
 17 18  1  0  0  0  0
 17 33  1  0  0  0  0
 18 19  2  0  0  0  0
 18 34  1  0  0  0  0
 19 20  1  0  0  0  0
 19 35  1  0  0  0  0
 21 22  2  0  0  0  0
 21 36  1  0  0  0  0
 22 37  1  0  0  0  0
M  CHG  1  14   1
M  END
> <s_m_source_file>
AV-unprocessed.smi

> <i_m_source_file_index>
1289

> <i_lp_mmshare_version>
43012

> <i_f3d_flags>
0

> <s_epik_input>
TiNDYzFbY0hdW2NIXWMoW2NIXVtjSF0xKU9bQ0gyXVtDQEhdKFtPSF0pW0NIMl1uKFtjSF1uMiljKGMyMylbY0hdW2NIXVtjSF1bY0hdMw==

> <s_epik_cmdline>
J2VwaWtfcHl0aG9uJywgJy1waCcsICc3LjAnLCAnLXRuJywgJzgnLCAnLW1hJywgJzIwMCcsICctbWV0YWxfYmluZGluZycsICctaW1hZScsICc8aW5maWxlLm1hZT4nLCAnLW9tYWUnLCAnPG91dGZpbGUubWFlPic=

> <r_epik_Ionization_Penalty>
1.39523

> <r_epik_Ionization_Penalty_Charging>
1.39523

> <r_epik_Ionization_Penalty_Neutral>
2.3993e-06

> <r_epik_State_Penalty>
1.47691

> <r_epik_Charging_Adjusted_Penalty>
2.87215

> <i_epik_Tot_Q>
1

> <i_epik_Tot_abs_Q>
1

> <r_epik_Metal_State_Penalty>
5.51858

> <b_epik_Metal_Only>
0

> <s_lp_Force_Field>
OPLS_2005

> <r_lp_Energy>
21.3748

> <b_lp_Chiralities_Consistent>
1

> <s_lp_Variant>
AV-unprocessed.smi:1289-3

> <Gold.Version>
5.8.1

> <Gold.Id.Protein>
6NUR|6NUR_protein|mol2

> <Gold.PLP.Fitness>
51.4313

> <Gold.PLP.PLP>
-42.3475

> <Gold.PLP.part.hbond>
-3.0000

> <Gold.PLP.part.metal>
0.0000

> <Gold.PLP.part.buried>
-6.0159

> <Gold.PLP.part.nonpolar>
-33.4441

> <Gold.PLP.part.repulsive>
0.2652

> <Gold.PLP.ligand.clash>
0.0000

> <Gold.PLP.ligand.torsion>
1.3310

> <Gold.PLP.Chemscore.Hbond>
3.9028

> <Gold.PLP.Chemscore.CHOScore>
0.0000

> <Gold.PLP.Chemscore.Metal>
0.0000

> <Gold.Chemscore.Hbonds>
donor molecule, donor type, donor heavy atom, donor atom, acceptor molecule, acceptor atom, score
      L1  H    14    38       P1  8028  0.52
      P1  H  7997  8010       L1    10  1.00
      P1  H 10752 10763       L1     7  0.32

> <Gold.PLP.Chemscore.Internal.Correction>
0.0374

> <Gold.Rescore>
     Score         DG    S(hbond)    S(metal)    S(lipo)     H(rot)  DE(clash)    DE(int)     intcor
     16.29     -17.86       1.94        0.00     106.72       2.58       0.06       1.51       ----

> <Gold.Chemscore.Fitness>
16.2880

> <Gold.Chemscore.DG>
-17.8560

> <Gold.Chemscore.ZeroCoef>
-5.4800

> <Gold.Chemscore.Hbond>
1.9442

> <Gold.Chemscore.Metal>
0.0000

> <Gold.Chemscore.Lipo>
106.7226

> <Gold.Chemscore.Internal_Hbond>
0.0000

> <Gold.Chemscore.DEClash>
0.0605

> <Gold.Chemscore.DEInternal>
1.5075

> <Gold.Chemscore.Rot>
2.5798

> <Gold.Chemscore.Internal.Correction>
   9.000000E+99

> <Gold.Chemscore.Hbonds>
donor molecule, donor type, donor heavy atom, donor atom, acceptor molecule, acceptor atom, score
      L1  H    14    38       P1  8028  0.27
      P1  H  7997  8010       L1    10  0.98
      P1  H 10752 10763       L1     7  0.01

> <Gold.Chemscore.Hbond.Weighted>
-6.4937

> <Gold.Chemscore.Metal.Weighted>
-0.0000

> <Gold.Chemscore.Lipo.Weighted>
-12.4865

> <Gold.Chemscore.Internal_Hbond.Weighted>
0.0000

> <Gold.Chemscore.DEClash.Weighted>
0.0605

> <Gold.Chemscore.DEInternal.Weighted>
1.5075

> <Gold.Chemscore.Rot.Weighted>
6.6043

> <Gold.Chemscore.Internal.Correction.Weighted>
   9.000000E+99

> <Gold.Protein.RotatedTorsions>
[ 6907 6896 6895 6894 ] final -179.65 input  -60.11 | X-H torsion
[ 7974 7965 7964 7962 ] final   21.50 input  175.53 | X-H torsion
[ 8008 7997 7996 7995 ] final  101.98 input   59.86 | X-H torsion
[ 10167 10162 10161 10158 ] final  -58.97 input  -65.29 | X-H torsion
[ 10718 10713 10712 10709 ] final -114.07 input   66.30 | X-H torsion
[ 10763 10752 10751 10750 ] final   39.58 input  -60.55 | X-H torsion
[ 11005 11000 10999 10996 ] final   -3.87 input  -57.11 | X-H torsion

> <Gold.Protein.ActiveResidues>
 VAL166  LYS551  ARG553  GLY616  TRP617  ASP618  TYR619  PRO620  LYS621  CYS622 
 ASP623  PHE694  ASN695  SER759  ASP760  ASP761  ALA762  ILE779  LEU786  VAL792 
 PHE793  MET794  SER795  GLU796  ALA797  LYS798  CYS799  TRP800  GLU811  SER814 

> <Gold.Protein.RotatedAtoms>
  151.6569  133.3318  159.3164 H   0  0  0  0  0  0  0  0  0  0  0  0  # atno 6907 bound_to 6896
  150.7932  134.6976  159.6541 H   0  0  0  0  0  0  0  0  0  0  0  0  # atno 6908 bound_to 6896
  152.4015  134.6282  160.0120 H   0  0  0  0  0  0  0  0  0  0  0  0  # atno 6909 bound_to 6896
  146.2068  139.8018  142.8719 H   0  0  0  0  0  0  0  0  0  0  0  0  # atno 7974 bound_to 7965
  156.1350  140.3188  155.8407 H   0  0  0  0  0  0  0  0  0  0  0  0  # atno 8008 bound_to 7997
  155.4261  140.0515  157.3039 H   0  0  0  0  0  0  0  0  0  0  0  0  # atno 8009 bound_to 7997
  154.4930  140.2099  155.9521 H   0  0  0  0  0  0  0  0  0  0  0  0  # atno 8010 bound_to 7997
  140.6164  143.2404  151.5586 H   0  0  0  0  0  0  0  0  0  0  0  0  # atno 10167 bound_to 10162
  156.0806  130.6007  150.8726 H   0  0  0  0  0  0  0  0  0  0  0  0  # atno 10718 bound_to 10713
  152.9962  135.6216  154.2489 H   0  0  0  0  0  0  0  0  0  0  0  0  # atno 10763 bound_to 10752
  154.2228  135.2795  155.2920 H   0  0  0  0  0  0  0  0  0  0  0  0  # atno 10764 bound_to 10752
  154.5514  135.5732  153.6984 H   0  0  0  0  0  0  0  0  0  0  0  0  # atno 10765 bound_to 10752
  140.6740  133.9211  155.8513 H   0  0  0  0  0  0  0  0  0  0  0  0  # atno 11005 bound_to 11000
  145.3288  141.0261  143.3458 LP  0  0  0  0  0  0  0  0  0  0  0  0  # atno 17320 bound_to 7965
  144.8813  139.4900  143.6721 LP  0  0  0  0  0  0  0  0  0  0  0  0  # atno 17321 bound_to 7965
  139.5402  144.2668  152.1336 LP  0  0  0  0  0  0  0  0  0  0  0  0  # atno 17342 bound_to 10162
  140.1878  144.4781  150.6494 LP  0  0  0  0  0  0  0  0  0  0  0  0  # atno 17343 bound_to 10162
  157.5921  131.0944  150.9101 LP  0  0  0  0  0  0  0  0  0  0  0  0  # atno 17370 bound_to 10713
  156.9275  130.5337  149.5279 LP  0  0  0  0  0  0  0  0  0  0  0  0  # atno 17371 bound_to 10713
  141.0370  134.0676  157.3948 LP  0  0  0  0  0  0  0  0  0  0  0  0  # atno 17394 bound_to 11000
  139.8972  135.0149  156.7091 LP  0  0  0  0  0  0  0  0  0  0  0  0  # atno 17395 bound_to 11000

$$$$
