AV-unprocessed.smi:929|AV-procd|sdf|4195|dock6
  -GOLD-   22720 2103D 1   1.00000     0.00000
 Structure written by MMmdl.
 34 35  0  0  0  0  0  0  0  0  1 V2000
  143.6749  132.6787  149.6413 C   0  0  0  0  0  0  0  0  0  0  0  0
  144.6975  132.6364  150.7339 C   0  0  0  0  0  0  0  0  0  0  0  0
  145.5713  133.7177  151.0733 C   0  0  0  0  0  0  0  0  0  0  0  0
  146.4079  133.4083  152.1167 C   0  0  0  0  0  0  0  0  0  0  0  0
  147.3689  134.1258  152.7505 N   0  0  0  0  0  0  0  0  0  0  0  0
  147.6563  134.1431  154.0630 C   0  0  0  0  0  0  0  0  0  0  0  0
  147.0551  133.5114  154.9324 O   0  0  0  0  0  0  0  0  0  0  0  0
  148.6993  134.9464  154.3203 N   0  0  0  0  0  0  0  0  0  0  0  0
  149.2898  135.1642  155.6396 C   0  0  0  0  0  0  0  0  0  0  0  0
  150.6768  135.8325  155.5856 C   0  0  0  0  0  0  0  0  0  0  0  0
  151.6657  135.2339  156.0133 O   0  0  0  0  0  0  0  0  0  0  0  0
  150.7659  137.0681  155.0518 N   0  0  0  0  0  0  0  0  0  0  0  0
  149.6565  137.8388  154.4908 C   0  0  0  0  0  0  0  0  0  0  0  0
  150.2990  139.0383  153.7930 C   0  0  0  0  0  0  0  0  0  0  0  0
  151.6204  139.2303  154.5240 C   0  0  0  0  0  0  0  0  0  0  0  0
  152.0168  137.8178  154.9540 C   0  0  0  0  0  0  0  0  0  0  0  0
  146.0419  131.7837  152.5966 S   0  0  0  0  0  0  0  0  0  0  0  0
  144.8352  131.5442  151.4553 N   0  0  0  0  0  0  0  0  0  0  0  0
  143.5088  133.6974  149.2901 H   0  0  0  0  0  0  0  0  0  0  0  0
  142.7147  132.2899  149.9811 H   0  0  0  0  0  0  0  0  0  0  0  0
  143.9905  132.0825  148.7850 H   0  0  0  0  0  0  0  0  0  0  0  0
  145.5420  134.6579  150.5438 H   0  0  0  0  0  0  0  0  0  0  0  0
  147.9426  134.7053  152.1556 H   0  0  0  0  0  0  0  0  0  0  0  0
  149.1363  135.4219  153.5445 H   0  0  0  0  0  0  0  0  0  0  0  0
  148.6140  135.8040  156.2073 H   0  0  0  0  0  0  0  0  0  0  0  0
  149.3508  134.2151  156.1746 H   0  0  0  0  0  0  0  0  0  0  0  0
  149.0567  137.2549  153.7915 H   0  0  0  0  0  0  0  0  0  0  0  0
  149.0081  138.1738  155.3015 H   0  0  0  0  0  0  0  0  0  0  0  0
  150.4940  138.7918  152.7483 H   0  0  0  0  0  0  0  0  0  0  0  0
  149.6690  139.9279  153.8146 H   0  0  0  0  0  0  0  0  0  0  0  0
  152.3793  139.7145  153.9088 H   0  0  0  0  0  0  0  0  0  0  0  0
  151.4609  139.8501  155.4074 H   0  0  0  0  0  0  0  0  0  0  0  0
  152.5640  137.8300  155.8981 H   0  0  0  0  0  0  0  0  0  0  0  0
  152.6516  137.3506  154.1996 H   0  0  0  0  0  0  0  0  0  0  0  0
  1  2  1  0  0  0  0
  1 19  1  0  0  0  0
  1 20  1  0  0  0  0
  1 21  1  0  0  0  0
  2 18  2  0  0  0  0
  2  3  1  0  0  0  0
  3  4  2  0  0  0  0
  3 22  1  0  0  0  0
  4  5  1  0  0  0  0
  4 17  1  0  0  0  0
  5  6  1  0  0  0  0
  5 23  1  0  0  0  0
  6  7  2  0  0  0  0
  6  8  1  0  0  0  0
  8  9  1  0  0  0  0
  8 24  1  0  0  0  0
  9 10  1  0  0  0  0
  9 25  1  0  0  0  0
  9 26  1  0  0  0  0
 10 11  2  0  0  0  0
 10 12  1  0  0  0  0
 12 16  1  0  0  0  0
 12 13  1  0  0  0  0
 13 14  1  0  0  0  0
 13 27  1  0  0  0  0
 13 28  1  0  0  0  0
 14 15  1  0  0  0  0
 14 29  1  0  0  0  0
 14 30  1  0  0  0  0
 15 16  1  0  0  0  0
 15 31  1  0  0  0  0
 15 32  1  0  0  0  0
 16 33  1  0  0  0  0
 16 34  1  0  0  0  0
 17 18  1  0  0  0  0
M  END
> <s_m_source_file>
AV-unprocessed.smi

> <i_m_source_file_index>
929

> <i_lp_mmshare_version>
43012

> <i_f3d_flags>
0

> <s_epik_input>
W0NIM11jMVtjSF1jKHNuMSlbTkhdQyg9TylbTkhdW0NIMl1DKD1PKU4yW0NIMl1bQ0gyXVtDSDJdW0NIMl0y

> <s_epik_cmdline>
J2VwaWtfcHl0aG9uJywgJy1waCcsICc3LjAnLCAnLXRuJywgJzgnLCAnLW1hJywgJzIwMCcsICctbWV0YWxfYmluZGluZycsICctaW1hZScsICc8aW5maWxlLm1hZT4nLCAnLW9tYWUnLCAnPG91dGZpbGUubWFlPic=

> <r_lp_tautomer_probability>
1

> <r_epik_Ionization_Penalty>
3.14678e-05

> <r_epik_Ionization_Penalty_Charging>
0

> <r_epik_Ionization_Penalty_Neutral>
3.14678e-05

> <r_epik_State_Penalty>
-0

> <r_epik_Charging_Adjusted_Penalty>
0

> <i_epik_Tot_Q>
0

> <i_epik_Tot_abs_Q>
0

> <r_epik_Metal_State_Penalty>
-0

> <b_epik_Metal_Only>
0

> <s_lp_Force_Field>
OPLS_2005

> <r_lp_Energy>
23.5851

> <b_lp_Chiralities_Consistent>
1

> <s_lp_Variant>
AV-unprocessed.smi:929-1

> <Gold.Version>
5.8.1

> <Gold.Id.Protein>
6NUR|6NUR_protein|mol2

> <Gold.PLP.Fitness>
38.3952

> <Gold.PLP.PLP>
-30.1654

> <Gold.PLP.part.hbond>
-3.0000

> <Gold.PLP.part.metal>
0.0000

> <Gold.PLP.part.buried>
-3.3306

> <Gold.PLP.part.nonpolar>
-24.4663

> <Gold.PLP.part.repulsive>
0.1660

> <Gold.PLP.ligand.clash>
0.0000

> <Gold.PLP.ligand.torsion>
0.3870

> <Gold.PLP.Chemscore.Hbond>
3.0000

> <Gold.PLP.Chemscore.CHOScore>
0.0000

> <Gold.PLP.Chemscore.Metal>
0.0000

> <Gold.Chemscore.Hbonds>
donor molecule, donor type, donor heavy atom, donor atom, acceptor molecule, acceptor atom, score
      L1  H     5    23       P1  7948  1.00
      L1  H     8    24       P1  7948  0.99
      P1  H 10752 10763       L1    11  1.00

> <Gold.PLP.Chemscore.Internal.Correction>
0.0038

> <Gold.Rescore>
     Score         DG    S(hbond)    S(metal)    S(lipo)     H(rot)  DE(clash)    DE(int)     intcor
     18.32     -18.84       2.83        0.00      61.83       1.29       0.06       0.47       ----

> <Gold.Chemscore.Fitness>
18.3171

> <Gold.Chemscore.DG>
-18.8432

> <Gold.Chemscore.ZeroCoef>
-5.4800

> <Gold.Chemscore.Hbond>
2.8261

> <Gold.Chemscore.Metal>
0.0000

> <Gold.Chemscore.Lipo>
61.8337

> <Gold.Chemscore.Internal_Hbond>
0.0000

> <Gold.Chemscore.DEClash>
0.0580

> <Gold.Chemscore.DEInternal>
0.4682

> <Gold.Chemscore.Rot>
1.2931

> <Gold.Chemscore.Internal.Correction>
   9.000000E+99

> <Gold.Chemscore.Hbonds>
donor molecule, donor type, donor heavy atom, donor atom, acceptor molecule, acceptor atom, score
      L1  H     5    23       P1  7948  0.43
      L1  H     8    24       P1  7948  0.47
      P1  H 10752 10763       L1    11  0.91

> <Gold.Chemscore.Hbond.Weighted>
-9.4392

> <Gold.Chemscore.Metal.Weighted>
-0.0000

> <Gold.Chemscore.Lipo.Weighted>
-7.2345

> <Gold.Chemscore.Internal_Hbond.Weighted>
0.0000

> <Gold.Chemscore.DEClash.Weighted>
0.0580

> <Gold.Chemscore.DEInternal.Weighted>
0.4682

> <Gold.Chemscore.Rot.Weighted>
3.3105

> <Gold.Chemscore.Internal.Correction.Weighted>
   9.000000E+99

> <Gold.Protein.RotatedTorsions>
[ 6907 6896 6895 6894 ] final -150.97 input  -60.11 | X-H torsion
[ 7974 7965 7964 7962 ] final -103.32 input  175.53 | X-H torsion
[ 8008 7997 7996 7995 ] final  -15.02 input   59.86 | X-H torsion
[ 10167 10162 10161 10158 ] final   93.85 input  -65.29 | X-H torsion
[ 10718 10713 10712 10709 ] final -120.26 input   66.30 | X-H torsion
[ 10763 10752 10751 10750 ] final   97.63 input  -60.55 | X-H torsion
[ 11005 11000 10999 10996 ] final  173.82 input  -57.11 | X-H torsion

> <Gold.Protein.ActiveResidues>
 VAL166  LYS551  ARG553  GLY616  TRP617  ASP618  TYR619  PRO620  LYS621  CYS622 
 ASP623  PHE694  ASN695  SER759  ASP760  ASP761  ALA762  ILE779  LEU786  VAL792 
 PHE793  MET794  SER795  GLU796  ALA797  LYS798  CYS799  TRP800  GLU811  SER814 

> <Gold.Protein.RotatedAtoms>
  151.2063  133.4582  159.2597 H   0  0  0  0  0  0  0  0  0  0  0  0  # atno 6907 bound_to 6896
  151.1020  134.9978  159.8463 H   0  0  0  0  0  0  0  0  0  0  0  0  # atno 6908 bound_to 6896
  152.5444  134.1988  159.8757 H   0  0  0  0  0  0  0  0  0  0  0  0  # atno 6909 bound_to 6896
  145.2575  140.9258  143.3060 H   0  0  0  0  0  0  0  0  0  0  0  0  # atno 7974 bound_to 7965
  154.5163  140.2207  155.9059 H   0  0  0  0  0  0  0  0  0  0  0  0  # atno 8008 bound_to 7997
  156.1611  140.3142  155.8775 H   0  0  0  0  0  0  0  0  0  0  0  0  # atno 8009 bound_to 7997
  155.3748  140.0469  157.3035 H   0  0  0  0  0  0  0  0  0  0  0  0  # atno 8010 bound_to 7997
  139.8140  144.6761  150.9604 H   0  0  0  0  0  0  0  0  0  0  0  0  # atno 10167 bound_to 10162
  156.1244  130.6348  150.9518 H   0  0  0  0  0  0  0  0  0  0  0  0  # atno 10718 bound_to 10713
  153.2792  135.4176  155.1062 H   0  0  0  0  0  0  0  0  0  0  0  0  # atno 10763 bound_to 10752
  154.8483  135.3491  154.6136 H   0  0  0  0  0  0  0  0  0  0  0  0  # atno 10764 bound_to 10752
  153.6556  135.7050  153.5252 H   0  0  0  0  0  0  0  0  0  0  0  0  # atno 10765 bound_to 10752
  140.3446  134.7247  157.4226 H   0  0  0  0  0  0  0  0  0  0  0  0  # atno 11005 bound_to 11000
  144.9448  139.4148  143.6431 LP  0  0  0  0  0  0  0  0  0  0  0  0  # atno 17320 bound_to 7965
  146.3285  139.8426  142.8887 LP  0  0  0  0  0  0  0  0  0  0  0  0  # atno 17321 bound_to 7965
  140.7816  143.4157  151.0922 LP  0  0  0  0  0  0  0  0  0  0  0  0  # atno 17342 bound_to 10162
  139.7821  143.8340  152.3139 LP  0  0  0  0  0  0  0  0  0  0  0  0  # atno 17343 bound_to 10162
  157.6426  131.0908  150.8219 LP  0  0  0  0  0  0  0  0  0  0  0  0  # atno 17370 bound_to 10713
  156.8311  130.5016  149.5331 LP  0  0  0  0  0  0  0  0  0  0  0  0  # atno 17371 bound_to 10713
  140.0752  134.5806  155.8598 LP  0  0  0  0  0  0  0  0  0  0  0  0  # atno 17394 bound_to 11000
  141.2029  133.6628  156.6032 LP  0  0  0  0  0  0  0  0  0  0  0  0  # atno 17395 bound_to 11000

$$$$
