AV-unprocessed.smi:884|AV-procd|sdf|4043|dock5
  -GOLD-   22720 1533D 1   1.00000     0.00000
 Structure written by MMmdl.
 48 50  0  0  0  0  0  0  0  0  2 V2000
  150.5970  136.9087  158.7335 O   0  0  0  0  0  0  0  0  0  0  0  0
  149.5418  137.4262  158.3650 C   0  0  0  0  0  0  0  0  0  0  0  0
  149.4613  138.7271  158.0325 N   0  0  0  0  0  0  0  0  0  0  0  0
  150.5574  139.6919  158.0911 C   0  0  0  0  0  0  0  0  0  0  0  0
  150.1579  141.0772  157.5468 C   0  0  0  0  0  0  0  0  0  0  0  0
  151.1247  142.1904  157.9139 C   0  0  0  0  0  0  0  0  0  0  0  0
  152.1967  141.9857  158.8090 C   0  0  0  0  0  0  0  0  0  0  0  0
  153.0465  143.0661  159.1254 C   0  0  0  0  0  0  0  0  0  0  0  0
  152.8098  144.3258  158.5371 C   0  0  0  0  0  0  0  0  0  0  0  0
  151.7236  144.4752  157.6511 C   0  0  0  0  0  0  0  0  0  0  0  0
  150.9267  143.4182  157.3804 N   0  3  0  0  0  0  0  0  0  0  0  0
  148.3756  136.7382  158.2623 N   0  0  0  0  0  0  0  0  0  0  0  0
  147.1080  137.2605  157.7298 C   0  0  0  0  0  0  0  0  0  0  0  0
  146.2019  137.6482  158.9051 C   0  0  0  0  0  0  0  0  0  0  0  0
  145.7857  136.1902  159.9098 S   0  0  0  0  0  0  0  0  0  0  0  0
  147.4367  135.4442  160.1961 C   0  0  0  0  0  0  0  0  0  0  0  0
  148.2205  136.2498  161.2659 C   0  0  0  0  0  0  0  0  0  0  0  0
  147.6077  136.1604  162.6747 C   0  0  0  0  0  0  0  0  0  0  0  0
  147.4607  134.7018  163.1257 C   0  0  0  0  0  0  0  0  0  0  0  0
  146.6448  133.8944  162.1079 C   0  0  0  0  0  0  0  0  0  0  0  0
  147.2579  133.9894  160.6983 C   0  0  0  0  0  0  0  0  0  0  0  0
  148.2057  135.3990  158.8463 C   0  0  0  0  0  0  0  0  0  0  0  0
  148.5666  139.0755  157.7197 H   0  0  0  0  0  0  0  0  0  0  0  0
  150.9278  139.7933  159.1122 H   0  0  0  0  0  0  0  0  0  0  0  0
  151.3912  139.2979  157.5098 H   0  0  0  0  0  0  0  0  0  0  0  0
  150.0705  141.0325  156.4606 H   0  0  0  0  0  0  0  0  0  0  0  0
  149.1653  141.3383  157.9169 H   0  0  0  0  0  0  0  0  0  0  0  0
  152.3617  141.0153  159.2542 H   0  0  0  0  0  0  0  0  0  0  0  0
  153.8699  142.9300  159.8113 H   0  0  0  0  0  0  0  0  0  0  0  0
  153.4488  145.1660  158.7669 H   0  0  0  0  0  0  0  0  0  0  0  0
  151.4644  145.4031  157.1624 H   0  0  0  0  0  0  0  0  0  0  0  0
  147.2353  138.1136  157.0634 H   0  0  0  0  0  0  0  0  0  0  0  0
  146.6194  136.5004  157.1184 H   0  0  0  0  0  0  0  0  0  0  0  0
  146.6859  138.3960  159.5339 H   0  0  0  0  0  0  0  0  0  0  0  0
  145.2760  138.0922  158.5393 H   0  0  0  0  0  0  0  0  0  0  0  0
  149.2465  135.8824  161.3111 H   0  0  0  0  0  0  0  0  0  0  0  0
  148.2921  137.2962  160.9782 H   0  0  0  0  0  0  0  0  0  0  0  0
  148.2340  136.7024  163.3837 H   0  0  0  0  0  0  0  0  0  0  0  0
  146.6340  136.6512  162.6916 H   0  0  0  0  0  0  0  0  0  0  0  0
  148.4478  134.2529  163.2421 H   0  0  0  0  0  0  0  0  0  0  0  0
  146.9827  134.6595  164.1048 H   0  0  0  0  0  0  0  0  0  0  0  0
  146.5987  132.8505  162.4189 H   0  0  0  0  0  0  0  0  0  0  0  0
  145.6150  134.2525  162.0952 H   0  0  0  0  0  0  0  0  0  0  0  0
  146.6427  133.4244  159.9968 H   0  0  0  0  0  0  0  0  0  0  0  0
  148.2279  133.4903  160.7130 H   0  0  0  0  0  0  0  0  0  0  0  0
  147.6698  134.7674  158.1359 H   0  0  0  0  0  0  0  0  0  0  0  0
  149.1681  134.9028  158.9814 H   0  0  0  0  0  0  0  0  0  0  0  0
  150.1433  143.5505  156.7404 H   0  0  0  0  0  0  0  0  0  0  0  0
  1  2  2  0  0  0  0
  2  3  1  0  0  0  0
  2 12  1  0  0  0  0
  3  4  1  0  0  0  0
  3 23  1  0  0  0  0
  4  5  1  0  0  0  0
  4 24  1  0  0  0  0
  4 25  1  0  0  0  0
  5  6  1  0  0  0  0
  5 26  1  0  0  0  0
  5 27  1  0  0  0  0
  6 11  1  0  0  0  0
  6  7  2  0  0  0  0
  7  8  1  0  0  0  0
  7 28  1  0  0  0  0
  8  9  2  0  0  0  0
  8 29  1  0  0  0  0
  9 10  1  0  0  0  0
  9 30  1  0  0  0  0
 10 11  2  0  0  0  0
 10 31  1  0  0  0  0
 11 48  1  0  0  0  0
 12 22  1  0  0  0  0
 12 13  1  0  0  0  0
 13 14  1  0  0  0  0
 13 32  1  0  0  0  0
 13 33  1  0  0  0  0
 14 15  1  0  0  0  0
 14 34  1  0  0  0  0
 14 35  1  0  0  0  0
 15 16  1  0  0  0  0
 16 21  1  0  0  0  0
 16 17  1  0  0  0  0
 16 22  1  0  0  0  0
 17 18  1  0  0  0  0
 17 36  1  0  0  0  0
 17 37  1  0  0  0  0
 18 19  1  0  0  0  0
 18 38  1  0  0  0  0
 18 39  1  0  0  0  0
 19 20  1  0  0  0  0
 19 40  1  0  0  0  0
 19 41  1  0  0  0  0
 20 21  1  0  0  0  0
 20 42  1  0  0  0  0
 20 43  1  0  0  0  0
 21 44  1  0  0  0  0
 21 45  1  0  0  0  0
 22 46  1  0  0  0  0
 22 47  1  0  0  0  0
M  CHG  1  11   1
M  END
> <s_m_source_file>
AV-unprocessed.smi

> <i_m_source_file_index>
884

> <i_lp_mmshare_version>
43012

> <i_f3d_flags>
0

> <s_epik_input>
bjFbY0hdW2NIXVtjSF1bY0hdYzFbQ0gyXVtDSDJdW05IXUMoPU8pTihbQ0gyXTIpW0NIMl1bQ0gyXVNDMjNbQ0gyXVtDSDJdW0NIMl1bQ0gyXVtDSDJdMw==

> <s_epik_cmdline>
J2VwaWtfcHl0aG9uJywgJy1waCcsICc3LjAnLCAnLXRuJywgJzgnLCAnLW1hJywgJzIwMCcsICctbWV0YWxfYmluZGluZycsICctaW1hZScsICc8aW5maWxlLm1hZT4nLCAnLW9tYWUnLCAnPG91dGZpbGUubWFlPic=

> <r_epik_Ionization_Penalty>
1.55139

> <r_epik_Ionization_Penalty_Charging>
1.55135

> <r_epik_Ionization_Penalty_Neutral>
4.66963e-05

> <r_epik_State_Penalty>
1.64559

> <r_epik_Charging_Adjusted_Penalty>
3.19693

> <i_epik_Tot_Q>
1

> <i_epik_Tot_abs_Q>
1

> <r_epik_Metal_State_Penalty>
1.68773

> <b_epik_Metal_Only>
0

> <s_lp_Force_Field>
OPLS_2005

> <r_lp_Energy>
36.5944

> <b_lp_Chiralities_Consistent>
1

> <s_lp_Variant>
AV-unprocessed.smi:884-2

> <Gold.Version>
5.8.1

> <Gold.Id.Protein>
6NUR|6NUR_protein|mol2

> <Gold.PLP.Fitness>
50.5123

> <Gold.PLP.PLP>
-42.8961

> <Gold.PLP.part.hbond>
-1.6795

> <Gold.PLP.part.metal>
0.0000

> <Gold.PLP.part.buried>
-5.4986

> <Gold.PLP.part.nonpolar>
-36.8978

> <Gold.PLP.part.repulsive>
0.1359

> <Gold.PLP.ligand.clash>
0.0000

> <Gold.PLP.ligand.torsion>
0.1548

> <Gold.PLP.Chemscore.Hbond>
2.6338

> <Gold.PLP.Chemscore.CHOScore>
0.0000

> <Gold.PLP.Chemscore.Metal>
0.0000

> <Gold.Chemscore.Hbonds>
donor molecule, donor type, donor heavy atom, donor atom, acceptor molecule, acceptor atom, score
      L1  H    11    48       P1  8028  2.00
      P1  H  6896  6907       L1     1  0.59

> <Gold.PLP.Chemscore.Internal.Correction>
0.0244

> <Gold.Rescore>
     Score         DG    S(hbond)    S(metal)    S(lipo)     H(rot)  DE(clash)    DE(int)     intcor
     21.41     -21.52       1.64        0.00     118.72       1.30       0.02       0.10       ----

> <Gold.Chemscore.Fitness>
21.4062

> <Gold.Chemscore.DG>
-21.5248

> <Gold.Chemscore.ZeroCoef>
-5.4800

> <Gold.Chemscore.Hbond>
1.6379

> <Gold.Chemscore.Metal>
0.0000

> <Gold.Chemscore.Lipo>
118.7192

> <Gold.Chemscore.Internal_Hbond>
0.0000

> <Gold.Chemscore.DEClash>
0.0227

> <Gold.Chemscore.DEInternal>
0.0960

> <Gold.Chemscore.Rot>
1.2953

> <Gold.Chemscore.Internal.Correction>
   9.000000E+99

> <Gold.Chemscore.Hbonds>
donor molecule, donor type, donor heavy atom, donor atom, acceptor molecule, acceptor atom, score
      L1  H    11    48       P1  8028  0.90
      P1  H  6896  6907       L1     1  0.57

> <Gold.Chemscore.Hbond.Weighted>
-5.4706

> <Gold.Chemscore.Metal.Weighted>
-0.0000

> <Gold.Chemscore.Lipo.Weighted>
-13.8901

> <Gold.Chemscore.Internal_Hbond.Weighted>
0.0000

> <Gold.Chemscore.DEClash.Weighted>
0.0227

> <Gold.Chemscore.DEInternal.Weighted>
0.0960

> <Gold.Chemscore.Rot.Weighted>
3.3159

> <Gold.Chemscore.Internal.Correction.Weighted>
   9.000000E+99

> <Gold.Protein.RotatedTorsions>
[ 6907 6896 6895 6894 ] final  -32.17 input  -60.11 | X-H torsion
[ 7974 7965 7964 7962 ] final -138.51 input  175.53 | X-H torsion
[ 8008 7997 7996 7995 ] final  -98.75 input   59.86 | X-H torsion
[ 10167 10162 10161 10158 ] final  -20.11 input  -65.29 | X-H torsion
[ 10718 10713 10712 10709 ] final -129.24 input   66.30 | X-H torsion
[ 10763 10752 10751 10750 ] final -133.00 input  -60.55 | X-H torsion
[ 11005 11000 10999 10996 ] final    2.20 input  -57.11 | X-H torsion

> <Gold.Protein.ActiveResidues>
 VAL166  LYS551  ARG553  GLY616  TRP617  ASP618  TYR619  PRO620  LYS621  CYS622 
 ASP623  PHE694  ASN695  SER759  ASP760  ASP761  ALA762  ILE779  LEU786  VAL792 
 PHE793  MET794  SER795  GLU796  ALA797  LYS798  CYS799  TRP800  GLU811  SER814 

> <Gold.Protein.RotatedAtoms>
  151.0823  134.9865  159.8361 H   0  0  0  0  0  0  0  0  0  0  0  0  # atno 6907 bound_to 6896
  152.5421  134.2167  159.8781 H   0  0  0  0  0  0  0  0  0  0  0  0  # atno 6908 bound_to 6896
  151.2198  133.4465  159.2634 H   0  0  0  0  0  0  0  0  0  0  0  0  # atno 6909 bound_to 6896
  144.8752  140.6427  143.5241 H   0  0  0  0  0  0  0  0  0  0  0  0  # atno 7974 bound_to 7965
  154.8054  140.0453  157.1303 H   0  0  0  0  0  0  0  0  0  0  0  0  # atno 8008 bound_to 7997
  154.9430  140.3055  155.5091 H   0  0  0  0  0  0  0  0  0  0  0  0  # atno 8009 bound_to 7997
  156.2966  140.2302  156.4501 H   0  0  0  0  0  0  0  0  0  0  0  0  # atno 8010 bound_to 7997
  140.7273  143.4754  151.0189 H   0  0  0  0  0  0  0  0  0  0  0  0  # atno 10167 bound_to 10162
  156.2027  130.6868  151.0558 H   0  0  0  0  0  0  0  0  0  0  0  0  # atno 10718 bound_to 10713
  154.8737  135.3780  154.4502 H   0  0  0  0  0  0  0  0  0  0  0  0  # atno 10763 bound_to 10752
  153.5179  135.7029  153.5752 H   0  0  0  0  0  0  0  0  0  0  0  0  # atno 10764 bound_to 10752
  153.4012  135.3948  155.1954 H   0  0  0  0  0  0  0  0  0  0  0  0  # atno 10765 bound_to 10752
  140.6070  133.9783  155.8159 H   0  0  0  0  0  0  0  0  0  0  0  0  # atno 11005 bound_to 11000
  145.4055  139.1589  143.4154 LP  0  0  0  0  0  0  0  0  0  0  0  0  # atno 17320 bound_to 7965
  146.2958  140.4155  142.8722 LP  0  0  0  0  0  0  0  0  0  0  0  0  # atno 17321 bound_to 7965
  139.8449  143.7515  152.3179 LP  0  0  0  0  0  0  0  0  0  0  0  0  # atno 17342 bound_to 10162
  139.7676  144.7487  151.0271 LP  0  0  0  0  0  0  0  0  0  0  0  0  # atno 17343 bound_to 10162
  157.6995  131.0781  150.6865 LP  0  0  0  0  0  0  0  0  0  0  0  0  # atno 17370 bound_to 10713
  156.6923  130.4599  149.5596 LP  0  0  0  0  0  0  0  0  0  0  0  0  # atno 17371 bound_to 10713
  141.0834  134.0028  157.3351 LP  0  0  0  0  0  0  0  0  0  0  0  0  # atno 17394 bound_to 11000
  139.9208  135.0200  156.8057 LP  0  0  0  0  0  0  0  0  0  0  0  0  # atno 17395 bound_to 11000

$$$$
