AV-unprocessed.smi:1893|AV-procd|sdf|7676|dock10
  -GOLD-   22720 9413D 1   1.00000     0.00000
 Structure written by MMmdl.
 43 44  0  0  0  0  0  0  0  0  2 V2000
  146.3359  134.6245  151.9506 C   0  0  0  0  0  0  0  0  0  0  0  0
  145.5542  135.6666  151.1211 C   0  0  1  0  0  0  0  0  0  0  0  0
  144.1530  135.1627  150.7158 C   0  0  0  0  0  0  0  0  0  0  0  0
  143.1826  135.1376  151.9059 C   0  0  0  0  0  0  0  0  0  0  0  0
  143.1356  136.5166  152.5748 C   0  0  0  0  0  0  0  0  0  0  0  0
  144.5438  136.9955  152.9648 C   0  0  0  0  0  0  0  0  0  0  0  0
  145.4541  137.0006  151.7865 N   0  3  1  0  0  0  0  0  0  0  0  0
  146.7717  137.6354  152.0489 C   0  0  0  0  0  0  0  0  0  0  0  0
  146.6661  139.1656  152.1897 C   0  0  0  0  0  0  0  0  0  0  0  0
  147.8825  139.7353  152.7563 N   0  0  0  0  0  0  0  0  0  0  0  0
  148.2866  139.5749  154.0273 C   0  0  0  0  0  0  0  0  0  0  0  0
  147.6321  138.9439  154.8583 O   0  0  0  0  0  0  0  0  0  0  0  0
  149.6230  140.2358  154.4107 C   0  0  1  0  0  0  0  0  0  0  0  0
  149.4840  141.2598  155.5555 C   0  0  0  0  0  0  0  0  0  0  0  0
  150.6312  139.2268  154.7143 N   0  0  0  0  0  0  0  0  0  0  0  0
  150.9320  138.0930  154.0774 C   0  0  0  0  0  0  0  0  0  0  0  0
  151.8942  137.3888  154.6567 N   0  0  0  0  0  0  0  0  0  0  0  0
  152.1596  138.1996  155.7238 C   0  0  0  0  0  0  0  0  0  0  0  0
  151.4266  139.3094  155.8100 N   0  0  0  0  0  0  0  0  0  0  0  0
  146.3983  133.6766  151.4158 H   0  0  0  0  0  0  0  0  0  0  0  0
  145.8669  134.4208  152.9127 H   0  0  0  0  0  0  0  0  0  0  0  0
  147.3594  134.9457  152.1431 H   0  0  0  0  0  0  0  0  0  0  0  0
  146.1104  135.8140  150.1942 H   0  0  0  0  0  0  0  0  0  0  0  0
  143.7477  135.8164  149.9420 H   0  0  0  0  0  0  0  0  0  0  0  0
  144.2212  134.1713  150.2666 H   0  0  0  0  0  0  0  0  0  0  0  0
  142.1859  134.8492  151.5709 H   0  0  0  0  0  0  0  0  0  0  0  0
  143.4942  134.3839  152.6295 H   0  0  0  0  0  0  0  0  0  0  0  0
  142.6806  137.2373  151.8938 H   0  0  0  0  0  0  0  0  0  0  0  0
  142.4961  136.4804  153.4572 H   0  0  0  0  0  0  0  0  0  0  0  0
  144.4636  137.9979  153.3832 H   0  0  0  0  0  0  0  0  0  0  0  0
  144.9542  136.3656  153.7547 H   0  0  0  0  0  0  0  0  0  0  0  0
  147.2253  137.1983  152.9396 H   0  0  0  0  0  0  0  0  0  0  0  0
  147.4433  137.4130  151.2185 H   0  0  0  0  0  0  0  0  0  0  0  0
  146.4541  139.6255  151.2230 H   0  0  0  0  0  0  0  0  0  0  0  0
  145.8445  139.4409  152.8498 H   0  0  0  0  0  0  0  0  0  0  0  0
  148.4736  140.2670  152.1335 H   0  0  0  0  0  0  0  0  0  0  0  0
  149.9678  140.7793  153.5297 H   0  0  0  0  0  0  0  0  0  0  0  0
  148.7819  142.0524  155.2941 H   0  0  0  0  0  0  0  0  0  0  0  0
  150.4422  141.7334  155.7712 H   0  0  0  0  0  0  0  0  0  0  0  0
  149.1313  140.7951  156.4772 H   0  0  0  0  0  0  0  0  0  0  0  0
  150.4343  137.7738  153.1735 H   0  0  0  0  0  0  0  0  0  0  0  0
  152.9114  137.9622  156.4619 H   0  0  0  0  0  0  0  0  0  0  0  0
  145.0082  137.5941  151.1015 H   0  0  0  0  0  0  0  0  0  0  0  0
  1  2  1  0  0  0  0
  1 20  1  0  0  0  0
  1 21  1  0  0  0  0
  1 22  1  0  0  0  0
  2  7  1  0  0  0  0
  2  3  1  0  0  0  0
  2 23  1  0  0  0  0
  3  4  1  0  0  0  0
  3 24  1  0  0  0  0
  3 25  1  0  0  0  0
  4  5  1  0  0  0  0
  4 26  1  0  0  0  0
  4 27  1  0  0  0  0
  5  6  1  0  0  0  0
  5 28  1  0  0  0  0
  5 29  1  0  0  0  0
  6  7  1  0  0  0  0
  6 30  1  0  0  0  0
  6 31  1  0  0  0  0
  7  8  1  0  0  0  0
  7 43  1  0  0  0  0
  8  9  1  0  0  0  0
  8 32  1  0  0  0  0
  8 33  1  0  0  0  0
  9 10  1  0  0  0  0
  9 34  1  0  0  0  0
  9 35  1  0  0  0  0
 10 11  1  0  0  0  0
 10 36  1  0  0  0  0
 11 12  2  0  0  0  0
 11 13  1  0  0  0  0
 13 14  1  0  0  0  0
 13 15  1  0  0  0  0
 13 37  1  0  0  0  0
 14 38  1  0  0  0  0
 14 39  1  0  0  0  0
 14 40  1  0  0  0  0
 15 19  1  0  0  0  0
 15 16  1  0  0  0  0
 16 17  2  0  0  0  0
 16 41  1  0  0  0  0
 17 18  1  0  0  0  0
 18 19  2  0  0  0  0
 18 42  1  0  0  0  0
M  CHG  1   7   1
M  END
> <s_m_source_file>
AV-unprocessed.smi

> <i_m_source_file_index>
1893

> <i_lp_mmshare_version>
43012

> <i_f3d_flags>
0

> <s_epik_input>
W0NIM11bQ0BASF0xW0NIMl1bQ0gyXVtDSDJdW0NIMl1OMVtDSDJdW0NIMl1bTkhdQyg9TylbQ0BIXShbQ0gzXSluMltjSF1uW2NIXW4y

> <s_epik_cmdline>
J2VwaWtfcHl0aG9uJywgJy1waCcsICc3LjAnLCAnLXRuJywgJzgnLCAnLW1hJywgJzIwMCcsICctbWV0YWxfYmluZGluZycsICctaW1hZScsICc8aW5maWxlLm1hZT4nLCAnLW9tYWUnLCAnPG91dGZpbGUubWFlPic=

> <r_lp_tautomer_probability>
1

> <r_epik_Ionization_Penalty>
0.00266409

> <r_epik_Ionization_Penalty_Charging>
0.00265606

> <r_epik_Ionization_Penalty_Neutral>
8.02794e-06

> <r_epik_State_Penalty>
0.00184955

> <r_epik_Charging_Adjusted_Penalty>
0.00450561

> <i_epik_Tot_Q>
1

> <i_epik_Tot_abs_Q>
1

> <r_epik_Metal_State_Penalty>
-0

> <b_epik_Metal_Only>
0

> <s_lp_Force_Field>
OPLS_2005

> <r_lp_Energy>
24.9679

> <b_lp_Chiralities_Consistent>
1

> <s_lp_Variant>
AV-unprocessed.smi:1893-6

> <Gold.Version>
5.8.1

> <Gold.Id.Protein>
6NUR|6NUR_protein|mol2

> <Gold.PLP.Fitness>
42.1783

> <Gold.PLP.PLP>
-31.7975

> <Gold.PLP.part.hbond>
-2.4515

> <Gold.PLP.part.metal>
0.0000

> <Gold.PLP.part.buried>
1.2311

> <Gold.PLP.part.nonpolar>
-31.2821

> <Gold.PLP.part.repulsive>
0.3186

> <Gold.PLP.ligand.clash>
0.0000

> <Gold.PLP.ligand.torsion>
0.5480

> <Gold.PLP.Chemscore.Hbond>
2.6802

> <Gold.PLP.Chemscore.CHOScore>
1.0957

> <Gold.PLP.Chemscore.Metal>
0.0000

> <Gold.Chemscore.Hbonds>
donor molecule, donor type, donor heavy atom, donor atom, acceptor molecule, acceptor atom, score
      L1  H     7    43       P1 10171  1.00
      L1  H    10    36       P1  7957  0.74
      P1  H 10752 10763       L1    17  0.89
      L1  C    16    41       P1  7948  0.68
      L1  C    16    41       P1  7949  0.41

> <Gold.PLP.Chemscore.Internal.Correction>
0.1489

> <Gold.Rescore>
     Score         DG    S(hbond)    S(metal)    S(lipo)     H(rot)  DE(clash)    DE(int)     intcor
     13.29     -15.30       2.81        0.00      59.17       2.54       1.67       0.34       ----

> <Gold.Chemscore.Fitness>
13.2930

> <Gold.Chemscore.DG>
-15.2964

> <Gold.Chemscore.ZeroCoef>
-5.4800

> <Gold.Chemscore.Hbond>
2.8114

> <Gold.Chemscore.Metal>
0.0000

> <Gold.Chemscore.Lipo>
59.1689

> <Gold.Chemscore.Internal_Hbond>
0.0000

> <Gold.Chemscore.DEClash>
1.6679

> <Gold.Chemscore.DEInternal>
0.3354

> <Gold.Chemscore.Rot>
2.5377

> <Gold.Chemscore.Internal.Correction>
   9.000000E+99

> <Gold.Chemscore.Hbonds>
donor molecule, donor type, donor heavy atom, donor atom, acceptor molecule, acceptor atom, score
      L1  H     7    43       P1 10171  0.97
      L1  H    10    36       P1  7957  0.70
      P1  H 10752 10763       L1    17  0.80

> <Gold.Chemscore.Hbond.Weighted>
-9.3902

> <Gold.Chemscore.Metal.Weighted>
-0.0000

> <Gold.Chemscore.Lipo.Weighted>
-6.9228

> <Gold.Chemscore.Internal_Hbond.Weighted>
0.0000

> <Gold.Chemscore.DEClash.Weighted>
1.6679

> <Gold.Chemscore.DEInternal.Weighted>
0.3354

> <Gold.Chemscore.Rot.Weighted>
6.4966

> <Gold.Chemscore.Internal.Correction.Weighted>
   9.000000E+99

> <Gold.Protein.RotatedTorsions>
[ 6907 6896 6895 6894 ] final -139.22 input  -60.11 | X-H torsion
[ 7974 7965 7964 7962 ] final   70.42 input  175.53 | X-H torsion
[ 8008 7997 7996 7995 ] final   97.05 input   59.86 | X-H torsion
[ 10167 10162 10161 10158 ] final   70.58 input  -65.29 | X-H torsion
[ 10718 10713 10712 10709 ] final -107.08 input   66.30 | X-H torsion
[ 10763 10752 10751 10750 ] final   47.21 input  -60.55 | X-H torsion
[ 11005 11000 10999 10996 ] final   33.15 input  -57.11 | X-H torsion

> <Gold.Protein.ActiveResidues>
 VAL166  LYS551  ARG553  GLY616  TRP617  ASP618  TYR619  PRO620  LYS621  CYS622 
 ASP623  PHE694  ASN695  SER759  ASP760  ASP761  ALA762  ILE779  LEU786  VAL792 
 PHE793  MET794  SER795  GLU796  ALA797  LYS798  CYS799  TRP800  GLU811  SER814 

> <Gold.Protein.RotatedAtoms>
  151.0450  133.5673  159.2647 H   0  0  0  0  0  0  0  0  0  0  0  0  # atno 6907 bound_to 6896
  151.2705  135.0682  159.9142 H   0  0  0  0  0  0  0  0  0  0  0  0  # atno 6908 bound_to 6896
  152.5371  134.0181  159.8023 H   0  0  0  0  0  0  0  0  0  0  0  0  # atno 6909 bound_to 6896
  145.7784  139.2876  143.1280 H   0  0  0  0  0  0  0  0  0  0  0  0  # atno 7974 bound_to 7965
  156.0861  140.3264  155.7755 H   0  0  0  0  0  0  0  0  0  0  0  0  # atno 8008 bound_to 7997
  155.5073  140.0574  157.2946 H   0  0  0  0  0  0  0  0  0  0  0  0  # atno 8009 bound_to 7997
  154.4610  140.1966  156.0262 H   0  0  0  0  0  0  0  0  0  0  0  0  # atno 8010 bound_to 7997
  140.0554  144.5277  150.7333 H   0  0  0  0  0  0  0  0  0  0  0  0  # atno 10167 bound_to 10162
  156.0420  130.5645  150.7771 H   0  0  0  0  0  0  0  0  0  0  0  0  # atno 10718 bound_to 10713
  152.9802  135.5983  154.3725 H   0  0  0  0  0  0  0  0  0  0  0  0  # atno 10763 bound_to 10752
  154.3397  135.2768  155.2431 H   0  0  0  0  0  0  0  0  0  0  0  0  # atno 10764 bound_to 10752
  154.4518  135.5988  153.6252 H   0  0  0  0  0  0  0  0  0  0  0  0  # atno 10765 bound_to 10752
  140.2661  134.3136  155.7842 H   0  0  0  0  0  0  0  0  0  0  0  0  # atno 11005 bound_to 11000
  146.0099  140.8444  142.9976 LP  0  0  0  0  0  0  0  0  0  0  0  0  # atno 17320 bound_to 7965
  144.6800  140.2475  143.7336 LP  0  0  0  0  0  0  0  0  0  0  0  0  # atno 17321 bound_to 7965
  140.7197  143.2577  151.4319 LP  0  0  0  0  0  0  0  0  0  0  0  0  # atno 17342 bound_to 10162
  139.5927  144.1464  152.2107 LP  0  0  0  0  0  0  0  0  0  0  0  0  # atno 17343 bound_to 10162
  157.5249  131.0933  151.0031 LP  0  0  0  0  0  0  0  0  0  0  0  0  # atno 17370 bound_to 10713
  157.0352  130.5727  149.5348 LP  0  0  0  0  0  0  0  0  0  0  0  0  # atno 17371 bound_to 10713
  141.2184  133.7438  156.9261 LP  0  0  0  0  0  0  0  0  0  0  0  0  # atno 17394 bound_to 11000
  140.1418  134.9288  157.2477 LP  0  0  0  0  0  0  0  0  0  0  0  0  # atno 17395 bound_to 11000

$$$$
