AV-unprocessed.smi:3193|AV-procd|sdf|12204|dock7
  -GOLD-   2272018 43D 1   1.00000     0.00000
 Structure written by MMmdl.
 40 41  0  0  0  0  0  0  0  0  2 V2000
  153.3498  141.3626  160.4430 C   0  0  0  0  0  0  0  0  0  0  0  0
  152.2858  142.3872  160.0059 C   0  0  1  0  0  0  0  0  0  0  0  0
  152.8265  143.8157  160.2285 C   0  0  0  0  0  0  0  0  0  0  0  0
  151.7897  144.8878  159.8681 C   0  0  0  0  0  0  0  0  0  0  0  0
  151.3118  144.7178  158.4222 C   0  0  0  0  0  0  0  0  0  0  0  0
  150.7615  143.3036  158.1917 C   0  0  0  0  0  0  0  0  0  0  0  0
  151.7960  142.2089  158.5368 C   0  0  2  0  0  0  0  0  0  0  0  0
  151.1832  140.8195  158.2499 C   0  0  0  0  0  0  0  0  0  0  0  0
  150.3103  140.8379  157.0601 N   0  3  0  0  0  0  0  0  0  0  0  0
  151.0282  140.7542  155.7730 C   0  0  0  0  0  0  0  0  0  0  0  0
  150.3219  139.7935  154.8040 C   0  0  0  0  0  0  0  0  0  0  0  0
  149.0357  140.3114  154.3750 N   0  0  0  0  0  0  0  0  0  0  0  0
  148.0618  139.6387  153.6486 C   0  0  0  0  0  0  0  0  0  0  0  0
  147.0276  140.5277  153.4601 C   0  0  0  0  0  0  0  0  0  0  0  0
  147.3409  141.7443  154.0614 N   0  0  0  0  0  0  0  0  0  0  0  0
  148.5401  141.5383  154.5890 C   0  0  0  0  0  0  0  0  0  0  0  0
  154.1975  141.3494  159.7572 H   0  0  0  0  0  0  0  0  0  0  0  0
  152.9418  140.3541  160.5017 H   0  0  0  0  0  0  0  0  0  0  0  0
  153.7345  141.5970  161.4360 H   0  0  0  0  0  0  0  0  0  0  0  0
  151.4265  142.2582  160.6660 H   0  0  0  0  0  0  0  0  0  0  0  0
  153.1252  143.9447  161.2695 H   0  0  0  0  0  0  0  0  0  0  0  0
  153.7267  143.9665  159.6309 H   0  0  0  0  0  0  0  0  0  0  0  0
  150.9392  144.8203  160.5474 H   0  0  0  0  0  0  0  0  0  0  0  0
  152.2179  145.8813  160.0044 H   0  0  0  0  0  0  0  0  0  0  0  0
  150.5439  145.4579  158.1949 H   0  0  0  0  0  0  0  0  0  0  0  0
  152.1383  144.9076  157.7361 H   0  0  0  0  0  0  0  0  0  0  0  0
  149.8614  143.1628  158.7923 H   0  0  0  0  0  0  0  0  0  0  0  0
  150.4515  143.2109  157.1502 H   0  0  0  0  0  0  0  0  0  0  0  0
  152.6468  142.3510  157.8679 H   0  0  0  0  0  0  0  0  0  0  0  0
  151.9743  140.0784  158.1277 H   0  0  0  0  0  0  0  0  0  0  0  0
  150.5728  140.4915  159.0924 H   0  0  0  0  0  0  0  0  0  0  0  0
  149.6515  140.0749  157.1223 H   0  0  0  0  0  0  0  0  0  0  0  0
  151.0928  141.7467  155.3246 H   0  0  0  0  0  0  0  0  0  0  0  0
  152.0499  140.4196  155.9558 H   0  0  0  0  0  0  0  0  0  0  0  0
  150.9379  139.6340  153.9183 H   0  0  0  0  0  0  0  0  0  0  0  0
  150.1765  138.8166  155.2674 H   0  0  0  0  0  0  0  0  0  0  0  0
  148.1820  138.6134  153.3307 H   0  0  0  0  0  0  0  0  0  0  0  0
  146.0904  140.3866  152.9418 H   0  0  0  0  0  0  0  0  0  0  0  0
  149.0752  142.3028  155.1334 H   0  0  0  0  0  0  0  0  0  0  0  0
  149.7971  141.7080  157.0710 H   0  0  0  0  0  0  0  0  0  0  0  0
  1  2  1  0  0  0  0
  1 17  1  0  0  0  0
  1 18  1  0  0  0  0
  1 19  1  0  0  0  0
  2  7  1  0  0  0  0
  2  3  1  0  0  0  0
  2 20  1  0  0  0  0
  3  4  1  0  0  0  0
  3 21  1  0  0  0  0
  3 22  1  0  0  0  0
  4  5  1  0  0  0  0
  4 23  1  0  0  0  0
  4 24  1  0  0  0  0
  5  6  1  0  0  0  0
  5 25  1  0  0  0  0
  5 26  1  0  0  0  0
  6  7  1  0  0  0  0
  6 27  1  0  0  0  0
  6 28  1  0  0  0  0
  7  8  1  0  0  0  0
  7 29  1  0  0  0  0
  8  9  1  0  0  0  0
  8 30  1  0  0  0  0
  8 31  1  0  0  0  0
  9 10  1  0  0  0  0
  9 32  1  0  0  0  0
  9 40  1  0  0  0  0
 10 11  1  0  0  0  0
 10 33  1  0  0  0  0
 10 34  1  0  0  0  0
 11 12  1  0  0  0  0
 11 35  1  0  0  0  0
 11 36  1  0  0  0  0
 12 16  1  0  0  0  0
 12 13  1  0  0  0  0
 13 14  2  0  0  0  0
 13 37  1  0  0  0  0
 14 15  1  0  0  0  0
 14 38  1  0  0  0  0
 15 16  2  0  0  0  0
 16 39  1  0  0  0  0
M  CHG  1   9   1
M  END
> <s_m_source_file>
AV-unprocessed.smi

> <i_m_source_file_index>
3193

> <i_lp_mmshare_version>
43012

> <i_f3d_flags>
0

> <s_epik_input>
W0NIM11bQ0BASF0xW0NIMl1bQ0gyXVtDSDJdW0NIMl1bQ0BIXTFbQ0gyXVtOSF1bQ0gyXVtDSDJdbjJbY0hdW2NIXW5bY0hdMg==

> <s_epik_cmdline>
J2VwaWtfcHl0aG9uJywgJy1waCcsICc3LjAnLCAnLXRuJywgJzgnLCAnLW1hJywgJzIwMCcsICctbWV0YWxfYmluZGluZycsICctaW1hZScsICc8aW5maWxlLm1hZT4nLCAnLW9tYWUnLCAnPG91dGZpbGUubWFlPic=

> <r_lp_tautomer_probability>
1

> <r_epik_Ionization_Penalty>
0.0503046

> <r_epik_Ionization_Penalty_Charging>
0.0503046

> <r_epik_Ionization_Penalty_Neutral>
0

> <r_epik_State_Penalty>
0.0981804

> <r_epik_Charging_Adjusted_Penalty>
0.148485

> <i_epik_Tot_Q>
1

> <i_epik_Tot_abs_Q>
1

> <r_epik_Metal_State_Penalty>
0.000105854

> <b_epik_Metal_Only>
0

> <s_lp_Force_Field>
OPLS_2005

> <r_lp_Energy>
18.894

> <b_lp_Chiralities_Consistent>
1

> <s_lp_Variant>
AV-unprocessed.smi:3193-4

> <Gold.Version>
5.8.1

> <Gold.Id.Protein>
6NUR|6NUR_protein|mol2

> <Gold.PLP.Fitness>
44.2789

> <Gold.PLP.PLP>
-38.7182

> <Gold.PLP.part.hbond>
0.0000

> <Gold.PLP.part.metal>
0.0000

> <Gold.PLP.part.buried>
-1.5831

> <Gold.PLP.part.nonpolar>
-36.7183

> <Gold.PLP.part.repulsive>
0.1845

> <Gold.PLP.ligand.clash>
0.0000

> <Gold.PLP.ligand.torsion>
0.7290

> <Gold.PLP.Chemscore.Hbond>
0.0000

> <Gold.PLP.Chemscore.CHOScore>
2.3350

> <Gold.PLP.Chemscore.Metal>
0.0000

> <Gold.Chemscore.Hbonds>
donor molecule, donor type, donor heavy atom, donor atom, acceptor molecule, acceptor atom, score
      L1  C    13    37       P1  7948  0.12
      L1  C    14    38       P1 10175  1.00
      L1  C    16    39       P1  8028  1.00

> <Gold.PLP.Chemscore.Internal.Correction>
0.0136

> <Gold.Rescore>
     Score         DG    S(hbond)    S(metal)    S(lipo)     H(rot)  DE(clash)    DE(int)     intcor
     12.77     -13.59       0.00        0.00     110.67       1.89       0.04       0.78       ----

> <Gold.Chemscore.Fitness>
12.7746

> <Gold.Chemscore.DG>
-13.5912

> <Gold.Chemscore.ZeroCoef>
-5.4800

> <Gold.Chemscore.Hbond>
0.0000

> <Gold.Chemscore.Metal>
0.0000

> <Gold.Chemscore.Lipo>
110.6691

> <Gold.Chemscore.Internal_Hbond>
0.0000

> <Gold.Chemscore.DEClash>
0.0387

> <Gold.Chemscore.DEInternal>
0.7780

> <Gold.Chemscore.Rot>
1.8895

> <Gold.Chemscore.Internal.Correction>
   9.000000E+99

> <Gold.Chemscore.Hbond.Weighted>
-0.0000

> <Gold.Chemscore.Metal.Weighted>
-0.0000

> <Gold.Chemscore.Lipo.Weighted>
-12.9483

> <Gold.Chemscore.Internal_Hbond.Weighted>
0.0000

> <Gold.Chemscore.DEClash.Weighted>
0.0387

> <Gold.Chemscore.DEInternal.Weighted>
0.7780

> <Gold.Chemscore.Rot.Weighted>
4.8371

> <Gold.Chemscore.Internal.Correction.Weighted>
   9.000000E+99

> <Gold.Protein.RotatedTorsions>
[ 6907 6896 6895 6894 ] final  -56.81 input  -60.11 | X-H torsion
[ 7974 7965 7964 7962 ] final  -94.44 input  175.53 | X-H torsion
[ 8008 7997 7996 7995 ] final  -85.17 input   59.86 | X-H torsion
[ 10167 10162 10161 10158 ] final  106.27 input  -65.29 | X-H torsion
[ 10718 10713 10712 10709 ] final -109.33 input   66.30 | X-H torsion
[ 10763 10752 10751 10750 ] final  124.36 input  -60.55 | X-H torsion
[ 11005 11000 10999 10996 ] final  -15.07 input  -57.11 | X-H torsion

> <Gold.Protein.ActiveResidues>
 VAL166  LYS551  ARG553  GLY616  TRP617  ASP618  TYR619  PRO620  LYS621  CYS622 
 ASP623  PHE694  ASN695  SER759  ASP760  ASP761  ALA762  ILE779  LEU786  VAL792 
 PHE793  MET794  SER795  GLU796  ALA797  LYS798  CYS799  TRP800  GLU811  SER814 

> <Gold.Protein.RotatedAtoms>
  150.8137  134.7307  159.6710 H   0  0  0  0  0  0  0  0  0  0  0  0  # atno 6907 bound_to 6896
  152.4257  134.5870  159.9973 H   0  0  0  0  0  0  0  0  0  0  0  0  # atno 6908 bound_to 6896
  151.6073  133.3313  159.3096 H   0  0  0  0  0  0  0  0  0  0  0  0  # atno 6909 bound_to 6896
  145.3733  140.9508  143.2435 H   0  0  0  0  0  0  0  0  0  0  0  0  # atno 7974 bound_to 7965
  154.6378  140.0595  156.9810 H   0  0  0  0  0  0  0  0  0  0  0  0  # atno 8008 bound_to 7997
  155.1564  140.3278  155.4402 H   0  0  0  0  0  0  0  0  0  0  0  0  # atno 8009 bound_to 7997
  156.2516  140.1938  156.6673 H   0  0  0  0  0  0  0  0  0  0  0  0  # atno 8010 bound_to 7997
  139.7023  144.7092  151.1164 H   0  0  0  0  0  0  0  0  0  0  0  0  # atno 10167 bound_to 10162
  156.0532  130.5758  150.8085 H   0  0  0  0  0  0  0  0  0  0  0  0  # atno 10718 bound_to 10713
  153.6601  135.3348  155.3125 H   0  0  0  0  0  0  0  0  0  0  0  0  # atno 10763 bound_to 10752
  154.8517  135.4361  154.1813 H   0  0  0  0  0  0  0  0  0  0  0  0  # atno 10764 bound_to 10752
  153.2778  135.7006  153.7491 H   0  0  0  0  0  0  0  0  0  0  0  0  # atno 10765 bound_to 10752
  140.7929  133.8273  155.9397 H   0  0  0  0  0  0  0  0  0  0  0  0  # atno 11005 bound_to 11000
  144.8560  139.5248  143.6834 LP  0  0  0  0  0  0  0  0  0  0  0  0  # atno 17320 bound_to 7965
  146.2875  139.7046  142.9185 LP  0  0  0  0  0  0  0  0  0  0  0  0  # atno 17321 bound_to 7965
  140.7713  143.5406  150.9316 LP  0  0  0  0  0  0  0  0  0  0  0  0  # atno 17342 bound_to 10162
  139.9089  143.6745  152.3119 LP  0  0  0  0  0  0  0  0  0  0  0  0  # atno 17343 bound_to 10162
  157.5477  131.0943  150.9739 LP  0  0  0  0  0  0  0  0  0  0  0  0  # atno 17370 bound_to 10713
  157.0006  130.5598  149.5311 LP  0  0  0  0  0  0  0  0  0  0  0  0  # atno 17371 bound_to 10713
  140.9371  134.1948  157.4823 LP  0  0  0  0  0  0  0  0  0  0  0  0  # atno 17394 bound_to 11000
  139.8729  134.9857  156.5292 LP  0  0  0  0  0  0  0  0  0  0  0  0  # atno 17395 bound_to 11000

$$$$
