AV-unprocessed.smi:2342|AV-procd|sdf|9354|dock1
  -GOLD-   2272012573D 1   1.00000     0.00000
 Structure written by MMmdl.
 38 38  0  0  0  0  0  0  0  0  2 V2000
  151.4689  137.6734  155.6747 C   0  0  0  0  0  0  0  0  0  0  0  0
  151.6426  137.9529  157.1765 C   0  0  2  0  0  0  0  0  0  0  0  0
  152.2549  139.3539  157.4311 C   0  0  0  0  0  0  0  0  0  0  0  0
  152.6686  139.5493  158.8175 N   0  0  0  0  0  0  0  0  0  0  0  0
  153.9341  139.7164  159.2304 C   0  0  0  0  0  0  0  0  0  0  0  0
  154.9142  139.5698  158.5003 O   0  0  0  0  0  0  0  0  0  0  0  0
  154.1180  140.1499  160.6850 C   0  0  0  0  0  0  0  0  0  0  0  0
  153.4372  141.4708  160.9017 C   0  0  0  0  0  0  0  0  0  0  0  0
  153.4187  142.2078  162.0588 C   0  0  0  0  0  0  0  0  0  0  0  0
  152.5636  143.7101  161.8561 S   0  0  0  0  0  0  0  0  0  0  0  0
  152.2380  143.2760  160.1742 C   0  0  0  0  0  0  0  0  0  0  0  0
  151.4808  144.1343  159.1896 C   0  0  0  0  0  0  0  0  0  0  0  0
  150.3821  143.2992  158.5040 C   0  0  0  0  0  0  0  0  0  0  0  0
  152.4129  144.6750  158.0838 C   0  0  0  0  0  0  0  0  0  0  0  0
  150.8692  145.3478  159.9164 C   0  0  0  0  0  0  0  0  0  0  0  0
  152.7503  142.0836  159.8490 N   0  0  0  0  0  0  0  0  0  0  0  0
  152.4712  136.8294  157.8256 C   0  0  0  0  0  0  0  0  0  0  0  0
  152.5565  136.8230  159.0738 O   0  0  0  0  0  0  0  0  0  0  0  0
  153.0002  135.9932  157.0605 O   0  5  0  0  0  0  0  0  0  0  0  0
  151.0388  136.6862  155.5008 H   0  0  0  0  0  0  0  0  0  0  0  0
  152.4216  137.7202  155.1457 H   0  0  0  0  0  0  0  0  0  0  0  0
  150.8019  138.4054  155.2191 H   0  0  0  0  0  0  0  0  0  0  0  0
  150.6525  137.9328  157.6352 H   0  0  0  0  0  0  0  0  0  0  0  0
  153.1347  139.4942  156.8023 H   0  0  0  0  0  0  0  0  0  0  0  0
  151.5486  140.1323  157.1380 H   0  0  0  0  0  0  0  0  0  0  0  0
  151.9303  139.6948  159.4914 H   0  0  0  0  0  0  0  0  0  0  0  0
  153.7104  139.3834  161.3455 H   0  0  0  0  0  0  0  0  0  0  0  0
  155.1822  140.2240  160.9121 H   0  0  0  0  0  0  0  0  0  0  0  0
  153.8738  141.9681  163.0082 H   0  0  0  0  0  0  0  0  0  0  0  0
  149.8182  143.8950  157.7856 H   0  0  0  0  0  0  0  0  0  0  0  0
  149.6692  142.9017  159.2272 H   0  0  0  0  0  0  0  0  0  0  0  0
  150.8081  142.4520  157.9652 H   0  0  0  0  0  0  0  0  0  0  0  0
  152.8717  143.8659  157.5139 H   0  0  0  0  0  0  0  0  0  0  0  0
  153.2145  145.2884  158.4972 H   0  0  0  0  0  0  0  0  0  0  0  0
  151.8659  145.2962  157.3740 H   0  0  0  0  0  0  0  0  0  0  0  0
  150.3290  145.9954  159.2252 H   0  0  0  0  0  0  0  0  0  0  0  0
  151.6398  145.9501  160.3991 H   0  0  0  0  0  0  0  0  0  0  0  0
  150.1633  145.0374  160.6877 H   0  0  0  0  0  0  0  0  0  0  0  0
  1  2  1  0  0  0  0
  1 20  1  0  0  0  0
  1 21  1  0  0  0  0
  1 22  1  0  0  0  0
  2  3  1  0  0  0  0
  2 17  1  0  0  0  0
  2 23  1  0  0  0  0
  3  4  1  0  0  0  0
  3 24  1  0  0  0  0
  3 25  1  0  0  0  0
  4  5  1  0  0  0  0
  4 26  1  0  0  0  0
  5  6  2  0  0  0  0
  5  7  1  0  0  0  0
  7  8  1  0  0  0  0
  7 27  1  0  0  0  0
  7 28  1  0  0  0  0
  8 16  1  0  0  0  0
  8  9  2  0  0  0  0
  9 10  1  0  0  0  0
  9 29  1  0  0  0  0
 10 11  1  0  0  0  0
 11 12  1  0  0  0  0
 11 16  2  0  0  0  0
 12 13  1  0  0  0  0
 12 14  1  0  0  0  0
 12 15  1  0  0  0  0
 13 30  1  0  0  0  0
 13 31  1  0  0  0  0
 13 32  1  0  0  0  0
 14 33  1  0  0  0  0
 14 34  1  0  0  0  0
 14 35  1  0  0  0  0
 15 36  1  0  0  0  0
 15 37  1  0  0  0  0
 15 38  1  0  0  0  0
 17 18  2  0  0  0  0
 17 19  1  0  0  0  0
M  CHG  1  19  -1
M  END
> <s_m_source_file>
AV-unprocessed.smi

> <i_m_source_file_index>
2342

> <i_lp_mmshare_version>
43012

> <i_f3d_flags>
0

> <s_epik_input>
Tz1DKFtPSF0pW0NASF0oW0NIM10pW0NIMl1bTkhdQyg9TylbQ0gyXWMxW2NIXXNjKG4xKUMoW0NIM10pKFtDSDNdKVtDSDNd

> <s_epik_cmdline>
J2VwaWtfcHl0aG9uJywgJy1waCcsICc3LjAnLCAnLXRuJywgJzgnLCAnLW1hJywgJzIwMCcsICctbWV0YWxfYmluZGluZycsICctaW1hZScsICc8aW5maWxlLm1hZT4nLCAnLW9tYWUnLCAnPG91dGZpbGUubWFlPic=

> <r_epik_Ionization_Penalty>
0.00120065

> <r_epik_Ionization_Penalty_Charging>
0.00115909

> <r_epik_Ionization_Penalty_Neutral>
4.15663e-05

> <r_epik_State_Penalty>
0.00076313

> <r_epik_Charging_Adjusted_Penalty>
0.00192222

> <i_epik_Tot_Q>
-1

> <i_epik_Tot_abs_Q>
1

> <r_epik_Metal_State_Penalty>
-0

> <b_epik_Metal_Only>
0

> <s_lp_Force_Field>
OPLS_2005

> <r_lp_Energy>
-10.4991

> <b_lp_Chiralities_Consistent>
1

> <s_lp_Variant>
AV-unprocessed.smi:2342-1

> <Gold.Version>
5.8.1

> <Gold.Id.Protein>
6NUR|6NUR_protein|mol2

> <Gold.PLP.Fitness>
56.1822

> <Gold.PLP.PLP>
-41.8678

> <Gold.PLP.part.hbond>
-3.0000

> <Gold.PLP.part.metal>
0.0000

> <Gold.PLP.part.buried>
-5.3235

> <Gold.PLP.part.nonpolar>
-34.0271

> <Gold.PLP.part.repulsive>
0.0964

> <Gold.PLP.ligand.clash>
0.0000

> <Gold.PLP.ligand.torsion>
0.4051

> <Gold.PLP.Chemscore.Hbond>
4.9840

> <Gold.PLP.Chemscore.CHOScore>
0.0000

> <Gold.PLP.Chemscore.Metal>
0.0000

> <Gold.Chemscore.Hbonds>
donor molecule, donor type, donor heavy atom, donor atom, acceptor molecule, acceptor atom, score
      P1  H  6896  6909       L1    18  1.75
      P1  H  7997  8008       L1     6  0.47
      P1  H 10752 10763       L1    19  2.00

> <Gold.PLP.Chemscore.Internal.Correction>
0.1726

> <Gold.Rescore>
     Score         DG    S(hbond)    S(metal)    S(lipo)     H(rot)  DE(clash)    DE(int)     intcor
     17.89     -21.99       2.84        0.00     112.28       2.38       0.02       4.09       ----

> <Gold.Chemscore.Fitness>
17.8853

> <Gold.Chemscore.DG>
-21.9905

> <Gold.Chemscore.ZeroCoef>
-5.4800

> <Gold.Chemscore.Hbond>
2.8352

> <Gold.Chemscore.Metal>
0.0000

> <Gold.Chemscore.Lipo>
112.2812

> <Gold.Chemscore.Internal_Hbond>
0.0000

> <Gold.Chemscore.DEClash>
0.0158

> <Gold.Chemscore.DEInternal>
4.0894

> <Gold.Chemscore.Rot>
2.3812

> <Gold.Chemscore.Internal.Correction>
   9.000000E+99

> <Gold.Chemscore.Hbonds>
donor molecule, donor type, donor heavy atom, donor atom, acceptor molecule, acceptor atom, score
      P1  H  6896  6909       L1    18  0.74
      P1  H  7997  8008       L1     6  0.44
      P1  H 10752 10763       L1    19  1.00

> <Gold.Chemscore.Hbond.Weighted>
-9.4695

> <Gold.Chemscore.Metal.Weighted>
-0.0000

> <Gold.Chemscore.Lipo.Weighted>
-13.1369

> <Gold.Chemscore.Internal_Hbond.Weighted>
0.0000

> <Gold.Chemscore.DEClash.Weighted>
0.0158

> <Gold.Chemscore.DEInternal.Weighted>
4.0894

> <Gold.Chemscore.Rot.Weighted>
6.0959

> <Gold.Chemscore.Internal.Correction.Weighted>
   9.000000E+99

> <Gold.Protein.RotatedTorsions>
[ 6907 6896 6895 6894 ] final  136.96 input  -60.11 | X-H torsion
[ 7974 7965 7964 7962 ] final  129.68 input  175.53 | X-H torsion
[ 8008 7997 7996 7995 ] final -137.82 input   59.86 | X-H torsion
[ 10167 10162 10161 10158 ] final -119.58 input  -65.29 | X-H torsion
[ 10718 10713 10712 10709 ] final  -10.55 input   66.30 | X-H torsion
[ 10763 10752 10751 10750 ] final  112.26 input  -60.55 | X-H torsion
[ 11005 11000 10999 10996 ] final  169.37 input  -57.11 | X-H torsion

> <Gold.Protein.ActiveResidues>
 VAL166  LYS551  ARG553  GLY616  TRP617  ASP618  TYR619  PRO620  LYS621  CYS622 
 ASP623  PHE694  ASN695  SER759  ASP760  ASP761  ALA762  ILE779  LEU786  VAL792 
 PHE793  MET794  SER795  GLU796  ALA797  LYS798  CYS799  TRP800  GLU811  SER814 

> <Gold.Protein.RotatedAtoms>
  152.2835  133.5492  159.5512 H   0  0  0  0  0  0  0  0  0  0  0  0  # atno 6907 bound_to 6896
  150.7205  134.0531  159.3814 H   0  0  0  0  0  0  0  0  0  0  0  0  # atno 6908 bound_to 6896
  151.8440  135.0580  160.0502 H   0  0  0  0  0  0  0  0  0  0  0  0  # atno 6909 bound_to 6896
  145.0261  139.4088  143.5173 H   0  0  0  0  0  0  0  0  0  0  0  0  # atno 7974 bound_to 7965
  155.4181  140.0516  157.3027 H   0  0  0  0  0  0  0  0  0  0  0  0  # atno 8008 bound_to 7997
  154.4915  140.2122  155.9497 H   0  0  0  0  0  0  0  0  0  0  0  0  # atno 8009 bound_to 7997
  156.1349  140.3165  155.8410 H   0  0  0  0  0  0  0  0  0  0  0  0  # atno 8010 bound_to 7997
  140.0451  143.5115  152.2110 H   0  0  0  0  0  0  0  0  0  0  0  0  # atno 10167 bound_to 10162
  156.6719  130.5012  149.5997 H   0  0  0  0  0  0  0  0  0  0  0  0  # atno 10718 bound_to 10713
  153.4753  135.3691  155.2413 H   0  0  0  0  0  0  0  0  0  0  0  0  # atno 10763 bound_to 10752
  154.8756  135.3941  154.3764 H   0  0  0  0  0  0  0  0  0  0  0  0  # atno 10764 bound_to 10752
  153.4358  135.7083  153.6265 H   0  0  0  0  0  0  0  0  0  0  0  0  # atno 10765 bound_to 10752
  140.2970  134.7626  157.3885 H   0  0  0  0  0  0  0  0  0  0  0  0  # atno 11005 bound_to 11000
  146.3492  139.9785  142.8698 LP  0  0  0  0  0  0  0  0  0  0  0  0  # atno 17320 bound_to 7965
  145.1832  140.9777  143.4254 LP  0  0  0  0  0  0  0  0  0  0  0  0  # atno 17321 bound_to 7965
  139.5989  144.7576  151.3220 LP  0  0  0  0  0  0  0  0  0  0  0  0  # atno 17342 bound_to 10162
  140.7242  143.7050  150.7815 LP  0  0  0  0  0  0  0  0  0  0  0  0  # atno 17343 bound_to 10162
  156.1932  130.6573  151.1085 LP  0  0  0  0  0  0  0  0  0  0  0  0  # atno 17370 bound_to 10713
  157.7074  131.0750  150.6619 LP  0  0  0  0  0  0  0  0  0  0  0  0  # atno 17371 bound_to 10713
  140.1143  134.5304  155.8238 LP  0  0  0  0  0  0  0  0  0  0  0  0  # atno 17394 bound_to 11000
  141.2135  133.6735  156.6748 LP  0  0  0  0  0  0  0  0  0  0  0  0  # atno 17395 bound_to 11000

$$$$
