AV-unprocessed.smi:26|AV-procd|sdf|185|dock10
  -GOLD-   2262015453D 1   1.00000     0.00000
 Structure written by MMmdl.
 58 61  0  0  0  0  0  0  0  0  1 V2000
  145.9660  138.6433  154.0534 C   0  0  0  0  0  0  0  0  0  0  0  0
  147.1735  137.9355  154.5834 C   0  0  0  0  0  0  0  0  0  0  0  0
  148.4549  138.3957  154.6414 C   0  0  0  0  0  0  0  0  0  0  0  0
  149.2752  137.3953  155.2281 C   0  0  0  0  0  0  0  0  0  0  0  0
  150.7414  137.4422  155.4631 C   0  0  0  0  0  0  0  0  0  0  0  0
  151.3961  136.4748  155.8535 O   0  0  0  0  0  0  0  0  0  0  0  0
  151.4219  138.7925  155.1692 C   0  0  0  0  0  0  0  0  0  0  0  0
  151.5472  139.6382  156.3501 N   0  0  0  0  0  0  0  0  0  0  0  0
  152.3509  139.1658  157.4176 C   0  0  0  0  0  0  0  0  0  0  0  0
  152.9354  138.0821  157.3675 O   0  0  0  0  0  0  0  0  0  0  0  0
  152.4325  140.0690  158.5602 C   0  0  0  0  0  0  0  0  0  0  0  0
  153.1575  139.7159  159.6352 F   0  0  0  0  0  0  0  0  0  0  0  0
  151.7895  141.2568  158.5591 C   0  0  0  0  0  0  0  0  0  0  0  0
  151.0235  141.7008  157.4932 N   0  0  0  0  0  0  0  0  0  0  0  0
  150.3170  143.0396  157.5132 C   0  0  2  0  0  0  0  0  0  0  0  0
  151.3325  144.1906  157.3900 C   0  0  0  0  0  0  0  0  0  0  0  0
  150.9449  145.1004  158.5384 C   0  0  0  0  0  0  0  0  0  0  0  0
  150.3847  144.1104  159.5483 C   0  0  0  0  0  0  0  0  0  0  0  0
  149.6498  143.2077  158.7319 O   0  0  0  0  0  0  0  0  0  0  0  0
  150.8843  140.8891  156.3464 C   0  0  0  0  0  0  0  0  0  0  0  0
  150.2180  141.2713  155.3813 O   0  0  0  0  0  0  0  0  0  0  0  0
  148.4588  136.3326  155.5441 C   0  0  0  0  0  0  0  0  0  0  0  0
  148.7582  135.0260  156.2278 C   0  0  0  0  0  0  0  0  0  0  0  0
  147.1650  136.6405  155.1061 N   0  0  0  0  0  0  0  0  0  0  0  0
  145.9980  135.7516  155.2270 C   0  0  1  0  0  0  0  0  0  0  0  0
  144.8535  136.4444  155.9913 C   0  0  0  0  0  0  0  0  0  0  0  0
  145.6130  135.1025  153.8951 C   0  0  0  0  0  0  0  0  0  0  0  0
  145.1238  135.9237  152.8547 C   0  0  0  0  0  0  0  0  0  0  0  0
  144.7573  135.3684  151.6141 C   0  0  0  0  0  0  0  0  0  0  0  0
  144.8819  133.9834  151.3989 C   0  0  0  0  0  0  0  0  0  0  0  0
  145.3741  133.1564  152.4255 C   0  0  0  0  0  0  0  0  0  0  0  0
  145.7401  133.7115  153.6670 C   0  0  0  0  0  0  0  0  0  0  0  0
  146.1633  139.7100  153.9450 H   0  0  0  0  0  0  0  0  0  0  0  0
  145.1107  138.5395  154.7185 H   0  0  0  0  0  0  0  0  0  0  0  0
  145.6895  138.2626  153.0703 H   0  0  0  0  0  0  0  0  0  0  0  0
  148.7719  139.3656  154.2870 H   0  0  0  0  0  0  0  0  0  0  0  0
  152.4175  138.6435  154.7489 H   0  0  0  0  0  0  0  0  0  0  0  0
  150.8702  139.3532  154.4127 H   0  0  0  0  0  0  0  0  0  0  0  0
  151.8919  141.8726  159.4392 H   0  0  0  0  0  0  0  0  0  0  0  0
  149.5842  143.0013  156.7053 H   0  0  0  0  0  0  0  0  0  0  0  0
  152.3478  143.8152  157.5282 H   0  0  0  0  0  0  0  0  0  0  0  0
  151.2625  144.6732  156.4149 H   0  0  0  0  0  0  0  0  0  0  0  0
  151.7825  145.6796  158.9270 H   0  0  0  0  0  0  0  0  0  0  0  0
  150.1642  145.7934  158.2221 H   0  0  0  0  0  0  0  0  0  0  0  0
  151.1898  143.5840  160.0627 H   0  0  0  0  0  0  0  0  0  0  0  0
  149.7487  144.5841  160.2965 H   0  0  0  0  0  0  0  0  0  0  0  0
  149.6577  135.0773  156.8380 H   0  0  0  0  0  0  0  0  0  0  0  0
  148.8894  134.2274  155.4978 H   0  0  0  0  0  0  0  0  0  0  0  0
  147.9596  134.7387  156.9110 H   0  0  0  0  0  0  0  0  0  0  0  0
  146.2883  134.8938  155.8311 H   0  0  0  0  0  0  0  0  0  0  0  0
  144.0345  135.7515  156.1854 H   0  0  0  0  0  0  0  0  0  0  0  0
  144.4498  137.2981  155.4489 H   0  0  0  0  0  0  0  0  0  0  0  0
  145.2010  136.8108  156.9576 H   0  0  0  0  0  0  0  0  0  0  0  0
  145.0237  136.9881  153.0102 H   0  0  0  0  0  0  0  0  0  0  0  0
  144.3806  136.0056  150.8277 H   0  0  0  0  0  0  0  0  0  0  0  0
  144.6014  133.5562  150.4475 H   0  0  0  0  0  0  0  0  0  0  0  0
  145.4712  132.0935  152.2608 H   0  0  0  0  0  0  0  0  0  0  0  0
  146.1104  133.0506  154.4354 H   0  0  0  0  0  0  0  0  0  0  0  0
  1  2  1  0  0  0  0
  1 33  1  0  0  0  0
  1 34  1  0  0  0  0
  1 35  1  0  0  0  0
  2 24  1  0  0  0  0
  2  3  2  0  0  0  0
  3  4  1  0  0  0  0
  3 36  1  0  0  0  0
  4  5  1  0  0  0  0
  4 22  2  0  0  0  0
  5  6  2  0  0  0  0
  5  7  1  0  0  0  0
  7  8  1  0  0  0  0
  7 37  1  0  0  0  0
  7 38  1  0  0  0  0
  8 20  1  0  0  0  0
  8  9  1  0  0  0  0
  9 10  2  0  0  0  0
  9 11  1  0  0  0  0
 11 12  1  0  0  0  0
 11 13  2  0  0  0  0
 13 14  1  0  0  0  0
 13 39  1  0  0  0  0
 14 15  1  0  0  0  0
 14 20  1  0  0  0  0
 15 19  1  0  0  0  0
 15 16  1  0  0  0  0
 15 40  1  0  0  0  0
 16 17  1  0  0  0  0
 16 41  1  0  0  0  0
 16 42  1  0  0  0  0
 17 18  1  0  0  0  0
 17 43  1  0  0  0  0
 17 44  1  0  0  0  0
 18 19  1  0  0  0  0
 18 45  1  0  0  0  0
 18 46  1  0  0  0  0
 20 21  2  0  0  0  0
 22 23  1  0  0  0  0
 22 24  1  0  0  0  0
 23 47  1  0  0  0  0
 23 48  1  0  0  0  0
 23 49  1  0  0  0  0
 24 25  1  0  0  0  0
 25 26  1  0  0  0  0
 25 27  1  0  0  0  0
 25 50  1  0  0  0  0
 26 51  1  0  0  0  0
 26 52  1  0  0  0  0
 26 53  1  0  0  0  0
 27 32  1  0  0  0  0
 27 28  2  0  0  0  0
 28 29  1  0  0  0  0
 28 54  1  0  0  0  0
 29 30  2  0  0  0  0
 29 55  1  0  0  0  0
 30 31  1  0  0  0  0
 30 56  1  0  0  0  0
 31 32  2  0  0  0  0
 31 57  1  0  0  0  0
 32 58  1  0  0  0  0
M  END
> <s_m_source_file>
AV-unprocessed.smi

> <i_m_source_file_index>
26

> <i_lp_mmshare_version>
43012

> <i_f3d_flags>
0

> <s_epik_input>
W2NIXTFbY0hdW2NIXVtjSF1bY0hdYzFbQ0BASF0oW0NIM10pbjJjKFtDSDNdKWMoW2NIXWMyW0NIM10pQyg9TylbQ0gyXW4zYyg9TyljKEYpW2NIXW4oYzM9TylbQ0BASF00W0NIMl1bQ0gyXVtDSDJdTzQ=

> <s_epik_cmdline>
J2VwaWtfcHl0aG9uJywgJy1waCcsICc3LjAnLCAnLXRuJywgJzgnLCAnLW1hJywgJzIwMCcsICctbWV0YWxfYmluZGluZycsICctaW1hZScsICc8aW5maWxlLm1hZT4nLCAnLW9tYWUnLCAnPG91dGZpbGUubWFlPic=

> <r_lp_tautomer_probability>
1

> <r_epik_Ionization_Penalty>
5.02402e-09

> <r_epik_Ionization_Penalty_Charging>
5.01743e-09

> <r_epik_Ionization_Penalty_Neutral>
6.58831e-12

> <r_epik_State_Penalty>
-0

> <r_epik_Charging_Adjusted_Penalty>
5.01743e-09

> <i_epik_Tot_Q>
0

> <i_epik_Tot_abs_Q>
0

> <r_epik_Metal_State_Penalty>
-0

> <b_epik_Metal_Only>
0

> <s_epik_Chemistry_Notes>
This compound contains an acetal/aminal-like group ( X-CH(R)-Y where X, Y are N, S, or O) that may be acid/base labile, releasing an aldehyde.

> <s_lp_Force_Field>
OPLS_2005

> <r_lp_Energy>
50.3932

> <b_lp_Chiralities_Consistent>
1

> <s_lp_Variant>
AV-unprocessed.smi:26-3

> <Gold.Version>
5.8.1

> <Gold.Id.Protein>
6NUR|6NUR_protein|mol2

> <Gold.PLP.Fitness>
49.9893

> <Gold.PLP.PLP>
-47.2091

> <Gold.PLP.part.hbond>
-2.0000

> <Gold.PLP.part.metal>
0.0000

> <Gold.PLP.part.buried>
-4.5846

> <Gold.PLP.part.nonpolar>
-42.0017

> <Gold.PLP.part.repulsive>
0.2561

> <Gold.PLP.ligand.clash>
0.0000

> <Gold.PLP.ligand.torsion>
0.9559

> <Gold.PLP.Chemscore.Hbond>
1.4732

> <Gold.PLP.Chemscore.CHOScore>
0.0000

> <Gold.PLP.Chemscore.Metal>
0.0000

> <Gold.Chemscore.Hbonds>
donor molecule, donor type, donor heavy atom, donor atom, acceptor molecule, acceptor atom, score
      P1  H  7989  7998       L1    21  0.09
      P1  H 10752 10764       L1     6  0.76

> <Gold.PLP.Chemscore.Internal.Correction>
0.2724

> <Gold.Rescore>
     Score         DG    S(hbond)    S(metal)    S(lipo)     H(rot)  DE(clash)    DE(int)     intcor
     15.80     -18.98       1.68        0.00     107.72       1.84       0.25       2.93       ----

> <Gold.Chemscore.Fitness>
15.8001

> <Gold.Chemscore.DG>
-18.9774

> <Gold.Chemscore.ZeroCoef>
-5.4800

> <Gold.Chemscore.Hbond>
1.6750

> <Gold.Chemscore.Metal>
0.0000

> <Gold.Chemscore.Lipo>
107.7168

> <Gold.Chemscore.Internal_Hbond>
0.0000

> <Gold.Chemscore.DEClash>
0.2483

> <Gold.Chemscore.DEInternal>
2.9289

> <Gold.Chemscore.Rot>
1.8359

> <Gold.Chemscore.Internal.Correction>
   9.000000E+99

> <Gold.Chemscore.Hbonds>
donor molecule, donor type, donor heavy atom, donor atom, acceptor molecule, acceptor atom, score
      P1  H  7989  7998       L1    21  0.05
      P1  H 10752 10764       L1     6  0.75

> <Gold.Chemscore.Hbond.Weighted>
-5.5945

> <Gold.Chemscore.Metal.Weighted>
-0.0000

> <Gold.Chemscore.Lipo.Weighted>
-12.6029

> <Gold.Chemscore.Internal_Hbond.Weighted>
0.0000

> <Gold.Chemscore.DEClash.Weighted>
0.2483

> <Gold.Chemscore.DEInternal.Weighted>
2.9289

> <Gold.Chemscore.Rot.Weighted>
4.7000

> <Gold.Chemscore.Internal.Correction.Weighted>
   9.000000E+99

> <Gold.Protein.RotatedTorsions>
[ 6907 6896 6895 6894 ] final -118.22 input  -60.11 | X-H torsion
[ 7974 7965 7964 7962 ] final   44.67 input  175.53 | X-H torsion
[ 8008 7997 7996 7995 ] final   20.88 input   59.86 | X-H torsion
[ 10167 10162 10161 10158 ] final  136.55 input  -65.29 | X-H torsion
[ 10718 10713 10712 10709 ] final  -52.57 input   66.30 | X-H torsion
[ 10763 10752 10751 10750 ] final  -47.59 input  -60.55 | X-H torsion
[ 11005 11000 10999 10996 ] final   31.34 input  -57.11 | X-H torsion

> <Gold.Protein.ActiveResidues>
 VAL166  LYS551  ARG553  GLY616  TRP617  ASP618  TYR619  PRO620  LYS621  CYS622 
 ASP623  PHE694  ASN695  SER759  ASP760  ASP761  ALA762  ILE779  LEU786  VAL792 
 PHE793  MET794  SER795  GLU796  ALA797  LYS798  CYS799  TRP800  GLU811  SER814 

> <Gold.Protein.RotatedAtoms>
  150.8202  133.8267  159.3142 H   0  0  0  0  0  0  0  0  0  0  0  0  # atno 6907 bound_to 6896
  151.6027  135.1044  160.0073 H   0  0  0  0  0  0  0  0  0  0  0  0  # atno 6908 bound_to 6896
  152.4291  133.7206  159.6587 H   0  0  0  0  0  0  0  0  0  0  0  0  # atno 6909 bound_to 6896
  146.0548  139.5049  142.9695 H   0  0  0  0  0  0  0  0  0  0  0  0  # atno 7974 bound_to 7965
  154.9422  140.3054  155.5115 H   0  0  0  0  0  0  0  0  0  0  0  0  # atno 8008 bound_to 7997
  156.2995  140.2334  156.4429 H   0  0  0  0  0  0  0  0  0  0  0  0  # atno 8009 bound_to 7997
  154.8135  140.0427  157.1348 H   0  0  0  0  0  0  0  0  0  0  0  0  # atno 8010 bound_to 7997
  139.5176  144.6458  151.5442 H   0  0  0  0  0  0  0  0  0  0  0  0  # atno 10167 bound_to 10162
  156.1610  130.4149  149.9794 H   0  0  0  0  0  0  0  0  0  0  0  0  # atno 10718 bound_to 10713
  154.0638  135.6614  153.4815 H   0  0  0  0  0  0  0  0  0  0  0  0  # atno 10763 bound_to 10752
  153.0416  135.5141  154.7633 H   0  0  0  0  0  0  0  0  0  0  0  0  # atno 10764 bound_to 10752
  154.6678  135.3025  154.9750 H   0  0  0  0  0  0  0  0  0  0  0  0  # atno 10765 bound_to 10752
  140.2849  134.2930  155.7790 H   0  0  0  0  0  0  0  0  0  0  0  0  # atno 11005 bound_to 11000
  145.6662  141.0228  143.1682 LP  0  0  0  0  0  0  0  0  0  0  0  0  # atno 17320 bound_to 7965
  144.7142  139.8258  143.7404 LP  0  0  0  0  0  0  0  0  0  0  0  0  # atno 17321 bound_to 7965
  140.6243  143.9199  150.6552 LP  0  0  0  0  0  0  0  0  0  0  0  0  # atno 17342 bound_to 10162
  140.2482  143.3613  152.1428 LP  0  0  0  0  0  0  0  0  0  0  0  0  # atno 17343 bound_to 10162
  156.7623  130.9155  151.3642 LP  0  0  0  0  0  0  0  0  0  0  0  0  # atno 17370 bound_to 10713
  157.6732  130.9070  150.0088 LP  0  0  0  0  0  0  0  0  0  0  0  0  # atno 17371 bound_to 10713
  141.2156  133.7549  156.9537 LP  0  0  0  0  0  0  0  0  0  0  0  0  # atno 17394 bound_to 11000
  140.1249  134.9393  157.2255 LP  0  0  0  0  0  0  0  0  0  0  0  0  # atno 17395 bound_to 11000

$$$$
