AV-unprocessed.smi:1480|AV-procd|sdf|5985|dock6
  -GOLD-   22720 6 73D 1   1.00000     0.00000
 Structure written by MMmdl.
 37 38  0  0  0  0  0  0  0  0  1 V2000
  152.5840  143.2091  161.0711 C   0  0  0  0  0  0  0  0  0  0  0  0
  152.1494  142.6840  159.7754 N   0  0  0  0  0  0  0  0  0  0  0  0
  152.3021  141.2314  159.6114 C   0  0  0  0  0  0  0  0  0  0  0  0
  151.4801  140.6547  158.4517 C   0  0  0  0  0  0  0  0  0  0  0  0
  151.6836  141.5024  157.1897 C   0  0  1  0  0  0  0  0  0  0  0  0
  150.9185  140.9014  156.0015 C   0  0  0  0  0  0  0  0  0  0  0  0
  151.5356  140.3071  155.1173 O   0  0  0  0  0  0  0  0  0  0  0  0
  149.5845  141.0779  156.0165 N   0  0  0  0  0  0  0  0  0  0  0  0
  148.6220  140.6456  155.0676 C   0  0  0  0  0  0  0  0  0  0  0  0
  147.7418  141.4831  154.3182 C   0  0  0  0  0  0  0  0  0  0  0  0
  147.0300  140.5937  153.5652 C   0  0  0  0  0  0  0  0  0  0  0  0
  147.4873  139.3274  153.8722 N   0  0  0  0  0  0  0  0  0  0  0  0
  147.0418  138.0529  153.3354 C   0  0  0  0  0  0  0  0  0  0  0  0
  146.2485  138.2385  152.0393 C   0  0  0  0  0  0  0  0  0  0  0  0
  144.9757  137.8339  152.0404 N   0  0  0  0  0  0  0  0  0  0  0  0
  146.7752  138.7418  151.0492 O   0  0  0  0  0  0  0  0  0  0  0  0
  148.4657  139.3596  154.8038 N   0  0  0  0  0  0  0  0  0  0  0  0
  151.2343  142.9523  157.4618 C   0  0  0  0  0  0  0  0  0  0  0  0
  151.7182  143.5256  158.8047 C   0  0  0  0  0  0  0  0  0  0  0  0
  151.6688  144.7457  158.9633 O   0  0  0  0  0  0  0  0  0  0  0  0
  153.3642  143.9609  160.9427 H   0  0  0  0  0  0  0  0  0  0  0  0
  152.9900  142.4298  161.7171 H   0  0  0  0  0  0  0  0  0  0  0  0
  151.7469  143.6716  161.5956 H   0  0  0  0  0  0  0  0  0  0  0  0
  153.3600  141.0225  159.4473 H   0  0  0  0  0  0  0  0  0  0  0  0
  152.0220  140.7184  160.5325 H   0  0  0  0  0  0  0  0  0  0  0  0
  151.7701  139.6179  158.2744 H   0  0  0  0  0  0  0  0  0  0  0  0
  150.4247  140.6394  158.7296 H   0  0  0  0  0  0  0  0  0  0  0  0
  152.7491  141.5103  156.9503 H   0  0  0  0  0  0  0  0  0  0  0  0
  149.2111  141.5798  156.8088 H   0  0  0  0  0  0  0  0  0  0  0  0
  147.6354  142.5572  154.3192 H   0  0  0  0  0  0  0  0  0  0  0  0
  146.2449  140.7546  152.8410 H   0  0  0  0  0  0  0  0  0  0  0  0
  147.9053  137.4148  153.1408 H   0  0  0  0  0  0  0  0  0  0  0  0
  146.4367  137.5516  154.0923 H   0  0  0  0  0  0  0  0  0  0  0  0
  144.4116  137.9358  151.2094 H   0  0  0  0  0  0  0  0  0  0  0  0
  144.5815  137.4266  152.8760 H   0  0  0  0  0  0  0  0  0  0  0  0
  151.5830  143.6017  156.6577 H   0  0  0  0  0  0  0  0  0  0  0  0
  150.1453  143.0221  157.4620 H   0  0  0  0  0  0  0  0  0  0  0  0
  1  2  1  0  0  0  0
  1 21  1  0  0  0  0
  1 22  1  0  0  0  0
  1 23  1  0  0  0  0
  2 19  1  0  0  0  0
  2  3  1  0  0  0  0
  3  4  1  0  0  0  0
  3 24  1  0  0  0  0
  3 25  1  0  0  0  0
  4  5  1  0  0  0  0
  4 26  1  0  0  0  0
  4 27  1  0  0  0  0
  5  6  1  0  0  0  0
  5 18  1  0  0  0  0
  5 28  1  0  0  0  0
  6  7  2  0  0  0  0
  6  8  1  0  0  0  0
  8  9  1  0  0  0  0
  8 29  1  0  0  0  0
  9 17  2  0  0  0  0
  9 10  1  0  0  0  0
 10 11  2  0  0  0  0
 10 30  1  0  0  0  0
 11 12  1  0  0  0  0
 11 31  1  0  0  0  0
 12 13  1  0  0  0  0
 12 17  1  0  0  0  0
 13 14  1  0  0  0  0
 13 32  1  0  0  0  0
 13 33  1  0  0  0  0
 14 15  1  0  0  0  0
 14 16  2  0  0  0  0
 15 34  1  0  0  0  0
 15 35  1  0  0  0  0
 18 19  1  0  0  0  0
 18 36  1  0  0  0  0
 18 37  1  0  0  0  0
 19 20  2  0  0  0  0
M  END
> <s_m_source_file>
AV-unprocessed.smi

> <i_m_source_file_index>
1480

> <i_lp_mmshare_version>
43012

> <i_f3d_flags>
0

> <s_epik_input>
W0NIM11OMVtDSDJdW0NIMl1bQ0BIXShbQ0gyXUMxPU8pQyg9TylbTkhdYzJbY0hdW2NIXW4objIpW0NIMl1DKD1PKVtOSDJd

> <s_epik_cmdline>
J2VwaWtfcHl0aG9uJywgJy1waCcsICc3LjAnLCAnLXRuJywgJzgnLCAnLW1hJywgJzIwMCcsICctbWV0YWxfYmluZGluZycsICctaW1hZScsICc8aW5maWxlLm1hZT4nLCAnLW9tYWUnLCAnPG91dGZpbGUubWFlPic=

> <r_lp_tautomer_probability>
1

> <r_epik_Ionization_Penalty>
3.93272e-06

> <r_epik_Ionization_Penalty_Charging>
0

> <r_epik_Ionization_Penalty_Neutral>
3.93272e-06

> <r_epik_State_Penalty>
-0

> <r_epik_Charging_Adjusted_Penalty>
0

> <i_epik_Tot_Q>
0

> <i_epik_Tot_abs_Q>
0

> <r_epik_Metal_State_Penalty>
-0

> <b_epik_Metal_Only>
0

> <s_lp_Force_Field>
OPLS_2005

> <r_lp_Energy>
17.1692

> <b_lp_Chiralities_Consistent>
1

> <s_lp_Variant>
AV-unprocessed.smi:1480-1

> <Gold.Version>
5.8.1

> <Gold.Id.Protein>
6NUR|6NUR_protein|mol2

> <Gold.PLP.Fitness>
48.6996

> <Gold.PLP.PLP>
-40.1407

> <Gold.PLP.part.hbond>
-4.0000

> <Gold.PLP.part.metal>
0.0000

> <Gold.PLP.part.buried>
-8.2234

> <Gold.PLP.part.nonpolar>
-30.7282

> <Gold.PLP.part.repulsive>
0.9154

> <Gold.PLP.ligand.clash>
0.0000

> <Gold.PLP.ligand.torsion>
1.1126

> <Gold.PLP.Chemscore.Hbond>
2.9920

> <Gold.PLP.Chemscore.CHOScore>
0.5981

> <Gold.PLP.Chemscore.Metal>
0.0000

> <Gold.Chemscore.Hbonds>
donor molecule, donor type, donor heavy atom, donor atom, acceptor molecule, acceptor atom, score
      L1  H    15    34       P1 10171  1.00
      P1  H  7954  7966       L1    16  0.94
      P1  H  7989  7998       L1     7  0.96
      L1  C    11    31       P1 10175  0.84

> <Gold.PLP.Chemscore.Internal.Correction>
0.0138

> <Gold.Rescore>
     Score         DG    S(hbond)    S(metal)    S(lipo)     H(rot)  DE(clash)    DE(int)     intcor
     14.32     -16.78       2.90        0.00      58.26       2.03       0.92       1.54       ----

> <Gold.Chemscore.Fitness>
14.3194

> <Gold.Chemscore.DG>
-16.7815

> <Gold.Chemscore.ZeroCoef>
-5.4800

> <Gold.Chemscore.Hbond>
2.8965

> <Gold.Chemscore.Metal>
0.0000

> <Gold.Chemscore.Lipo>
58.2552

> <Gold.Chemscore.Internal_Hbond>
0.0000

> <Gold.Chemscore.DEClash>
0.9203

> <Gold.Chemscore.DEInternal>
1.5417

> <Gold.Chemscore.Rot>
2.0269

> <Gold.Chemscore.Internal.Correction>
   9.000000E+99

> <Gold.Chemscore.Hbonds>
donor molecule, donor type, donor heavy atom, donor atom, acceptor molecule, acceptor atom, score
      L1  H    15    34       P1 10171  0.99
      P1  H  7954  7966       L1    16  0.87
      P1  H  7989  7998       L1     7  0.92

> <Gold.Chemscore.Hbond.Weighted>
-9.6744

> <Gold.Chemscore.Metal.Weighted>
-0.0000

> <Gold.Chemscore.Lipo.Weighted>
-6.8159

> <Gold.Chemscore.Internal_Hbond.Weighted>
0.0000

> <Gold.Chemscore.DEClash.Weighted>
0.9203

> <Gold.Chemscore.DEInternal.Weighted>
1.5417

> <Gold.Chemscore.Rot.Weighted>
5.1888

> <Gold.Chemscore.Internal.Correction.Weighted>
   9.000000E+99

> <Gold.Protein.RotatedTorsions>
[ 6907 6896 6895 6894 ] final   68.59 input  -60.11 | X-H torsion
[ 7974 7965 7964 7962 ] final    8.63 input  175.53 | X-H torsion
[ 8008 7997 7996 7995 ] final  -28.90 input   59.86 | X-H torsion
[ 10167 10162 10161 10158 ] final -100.05 input  -65.29 | X-H torsion
[ 10718 10713 10712 10709 ] final   22.20 input   66.30 | X-H torsion
[ 10763 10752 10751 10750 ] final   40.86 input  -60.55 | X-H torsion
[ 11005 11000 10999 10996 ] final  121.65 input  -57.11 | X-H torsion

> <Gold.Protein.ActiveResidues>
 VAL166  LYS551  ARG553  GLY616  TRP617  ASP618  TYR619  PRO620  LYS621  CYS622 
 ASP623  PHE694  ASN695  SER759  ASP760  ASP761  ALA762  ILE779  LEU786  VAL792 
 PHE793  MET794  SER795  GLU796  ALA797  LYS798  CYS799  TRP800  GLU811  SER814 

> <Gold.Protein.RotatedAtoms>
  152.4630  134.5140  159.9762 H   0  0  0  0  0  0  0  0  0  0  0  0  # atno 6907 bound_to 6896
  151.5184  133.3465  159.2905 H   0  0  0  0  0  0  0  0  0  0  0  0  # atno 6908 bound_to 6896
  150.8602  134.7980  159.7139 H   0  0  0  0  0  0  0  0  0  0  0  0  # atno 6909 bound_to 6896
  146.2414  139.9905  142.8426 H   0  0  0  0  0  0  0  0  0  0  0  0  # atno 7974 bound_to 7965
  154.4312  140.1832  156.1163 H   0  0  0  0  0  0  0  0  0  0  0  0  # atno 8008 bound_to 7997
  156.0178  140.3344  155.6981 H   0  0  0  0  0  0  0  0  0  0  0  0  # atno 8009 bound_to 7997
  155.6020  140.0641  157.2721 H   0  0  0  0  0  0  0  0  0  0  0  0  # atno 8010 bound_to 7997
  140.2560  143.3440  152.0671 H   0  0  0  0  0  0  0  0  0  0  0  0  # atno 10167 bound_to 10162
  157.1490  130.6666  149.6005 H   0  0  0  0  0  0  0  0  0  0  0  0  # atno 10718 bound_to 10713
  152.9924  135.6179  154.2694 H   0  0  0  0  0  0  0  0  0  0  0  0  # atno 10763 bound_to 10752
  154.2428  135.2788  155.2849 H   0  0  0  0  0  0  0  0  0  0  0  0  # atno 10764 bound_to 10752
  154.5355  135.5776  153.6852 H   0  0  0  0  0  0  0  0  0  0  0  0  # atno 10765 bound_to 10752
  139.9235  134.9639  156.7990 H   0  0  0  0  0  0  0  0  0  0  0  0  # atno 11005 bound_to 11000
  145.1508  140.9622  143.4434 LP  0  0  0  0  0  0  0  0  0  0  0  0  # atno 17320 bound_to 7965
  145.0207  139.3427  143.6074 LP  0  0  0  0  0  0  0  0  0  0  0  0  # atno 17321 bound_to 7965
  139.5031  144.6749  151.6152 LP  0  0  0  0  0  0  0  0  0  0  0  0  # atno 17342 bound_to 10162
  140.6003  143.9621  150.6382 LP  0  0  0  0  0  0  0  0  0  0  0  0  # atno 17343 bound_to 10162
  155.9774  130.4751  150.6591 LP  0  0  0  0  0  0  0  0  0  0  0  0  # atno 17370 bound_to 10713
  157.4238  131.0840  151.1105 LP  0  0  0  0  0  0  0  0  0  0  0  0  # atno 17371 bound_to 10713
  140.6405  133.9822  155.7705 LP  0  0  0  0  0  0  0  0  0  0  0  0  # atno 17394 bound_to 11000
  141.0774  134.0114  157.3437 LP  0  0  0  0  0  0  0  0  0  0  0  0  # atno 17395 bound_to 11000

$$$$
