AV-unprocessed.smi:1717|AV-procd|sdf|6920|dock3
  -GOLD-   22720 8123D 1   1.00000     0.00000
 Structure written by MMmdl.
 40 41  0  0  0  0  0  0  0  0  3 V2000
  148.1194  140.2690  158.1739 C   0  0  0  0  0  0  0  0  0  0  0  0
  147.1015  140.5983  157.1832 N   0  5  0  0  0  0  0  0  0  0  0  0
  147.3851  140.8967  155.8871 C   0  0  0  0  0  0  0  0  0  0  0  0
  148.4622  140.9185  155.2817 O   0  0  0  0  0  0  0  0  0  0  0  0
  146.1097  141.2269  155.1036 C   0  0  0  0  0  0  0  0  0  0  0  0
  145.8293  140.1576  154.1136 N   0  3  2  0  0  0  0  0  0  0  0  0
  145.3180  138.9180  154.7512 C   0  0  0  0  0  0  0  0  0  0  0  0
  144.8942  137.8838  153.6947 C   0  0  0  0  0  0  0  0  0  0  0  0
  146.0519  137.5590  152.7370 C   0  0  1  0  0  0  0  0  0  0  0  0
  145.5919  136.6488  151.6921 N   0  0  0  0  0  0  0  0  0  0  0  0
  144.7864  135.5947  151.8867 C   0  0  0  0  0  0  0  0  0  0  0  0
  144.3327  135.2792  152.9865 O   0  0  0  0  0  0  0  0  0  0  0  0
  144.5512  134.9410  150.7374 N   0  0  0  0  0  0  0  0  0  0  0  0
  143.7400  133.7933  150.5542 C   0  0  0  0  0  0  0  0  0  0  0  0
  143.6613  132.9122  149.4357 C   0  0  0  0  0  0  0  0  0  0  0  0
  142.7788  131.9459  149.6477 N   0  0  0  0  0  0  0  0  0  0  0  0
  142.2960  132.1997  150.8847 N   0  0  0  0  0  0  0  0  0  0  0  0
  142.8535  133.3139  151.4719 C   0  0  0  0  0  0  0  0  0  0  0  0
  146.5940  138.8622  152.1227 C   0  0  0  0  0  0  0  0  0  0  0  0
  146.9794  139.8745  153.2132 C   0  0  0  0  0  0  0  0  0  0  0  0
  141.5947  131.6094  151.3091 H   0  0  0  0  0  0  0  0  0  0  0  0
  147.6898  140.1317  159.1661 H   0  0  0  0  0  0  0  0  0  0  0  0
  148.8759  141.0482  158.2704 H   0  0  0  0  0  0  0  0  0  0  0  0
  148.6461  139.3448  157.9346 H   0  0  0  0  0  0  0  0  0  0  0  0
  145.2434  141.3907  155.7486 H   0  0  0  0  0  0  0  0  0  0  0  0
  146.2918  142.1724  154.5907 H   0  0  0  0  0  0  0  0  0  0  0  0
  146.0862  138.4997  155.4035 H   0  0  0  0  0  0  0  0  0  0  0  0
  144.4600  139.1548  155.3818 H   0  0  0  0  0  0  0  0  0  0  0  0
  144.5502  136.9740  154.1885 H   0  0  0  0  0  0  0  0  0  0  0  0
  144.0431  138.2713  153.1324 H   0  0  0  0  0  0  0  0  0  0  0  0
  146.8462  137.0774  153.3112 H   0  0  0  0  0  0  0  0  0  0  0  0
  145.9155  136.8319  150.7535 H   0  0  0  0  0  0  0  0  0  0  0  0
  144.9956  135.3024  149.9061 H   0  0  0  0  0  0  0  0  0  0  0  0
  144.1971  132.9314  148.4983 H   0  0  0  0  0  0  0  0  0  0  0  0
  142.5785  133.6554  152.4591 H   0  0  0  0  0  0  0  0  0  0  0  0
  147.4623  138.6520  151.4969 H   0  0  0  0  0  0  0  0  0  0  0  0
  145.8420  139.3062  151.4686 H   0  0  0  0  0  0  0  0  0  0  0  0
  147.3225  140.7926  152.7362 H   0  0  0  0  0  0  0  0  0  0  0  0
  147.8169  139.4930  153.7996 H   0  0  0  0  0  0  0  0  0  0  0  0
  145.0814  140.5114  153.5337 H   0  0  0  0  0  0  0  0  0  0  0  0
  1  2  1  0  0  0  0
  1 22  1  0  0  0  0
  1 23  1  0  0  0  0
  1 24  1  0  0  0  0
  2  3  1  0  0  0  0
  3  4  2  0  0  0  0
  3  5  1  0  0  0  0
  5  6  1  0  0  0  0
  5 25  1  0  0  0  0
  5 26  1  0  0  0  0
  6 20  1  0  0  0  0
  6  7  1  0  0  0  0
  6 40  1  0  0  0  0
  7  8  1  0  0  0  0
  7 27  1  0  0  0  0
  7 28  1  0  0  0  0
  8  9  1  0  0  0  0
  8 29  1  0  0  0  0
  8 30  1  0  0  0  0
  9 10  1  0  0  0  0
  9 19  1  0  0  0  0
  9 31  1  0  0  0  0
 10 11  1  0  0  0  0
 10 32  1  0  0  0  0
 11 12  2  0  0  0  0
 11 13  1  0  0  0  0
 13 14  1  0  0  0  0
 13 33  1  0  0  0  0
 14 18  2  0  0  0  0
 14 15  1  0  0  0  0
 15 16  2  0  0  0  0
 15 34  1  0  0  0  0
 16 17  1  0  0  0  0
 17 21  1  0  0  0  0
 17 18  1  0  0  0  0
 18 35  1  0  0  0  0
 19 20  1  0  0  0  0
 19 36  1  0  0  0  0
 19 37  1  0  0  0  0
 20 38  1  0  0  0  0
 20 39  1  0  0  0  0
M  CHG  1   2  -1
M  CHG  1   6   1
M  END
> <s_m_source_file>
AV-unprocessed.smi

> <i_m_source_file_index>
1717

> <i_lp_mmshare_version>
43012

> <i_f3d_flags>
0

> <s_epik_input>
W0NIM11bTkhdQyg9TylbQ0gyXU4xW0NIMl1bQ0gyXVtDSF0oW0NIMl1bQ0gyXTEpW05IXUMoPU8pW05IXWMyW2NIXW5bbkhdW2NIXTI=

> <s_epik_cmdline>
J2VwaWtfcHl0aG9uJywgJy1waCcsICc3LjAnLCAnLXRuJywgJzgnLCAnLW1hJywgJzIwMCcsICctbWV0YWxfYmluZGluZycsICctaW1hZScsICc8aW5maWxlLm1hZT4nLCAnLW9tYWUnLCAnPG91dGZpbGUubWFlPic=

> <r_lp_tautomer_probability>
0.5

> <r_epik_Ionization_Penalty>
6.1395

> <r_epik_Ionization_Penalty_Charging>
6.13946

> <r_epik_Ionization_Penalty_Neutral>
4.21226e-05

> <r_epik_State_Penalty>
6.9595

> <r_epik_Charging_Adjusted_Penalty>
13.099

> <i_epik_Tot_Q>
0

> <i_epik_Tot_abs_Q>
2

> <r_epik_Metal_State_Penalty>
2.89141

> <b_epik_Metal_Only>
1

> <s_lp_Force_Field>
OPLS_2005

> <r_lp_Energy>
12.4493

> <b_lp_Chiralities_Consistent>
1

> <s_lp_Variant>
AV-unprocessed.smi:1717-4

> <Gold.Version>
5.8.1

> <Gold.Id.Protein>
6NUR|6NUR_protein|mol2

> <Gold.PLP.Fitness>
44.2321

> <Gold.PLP.PLP>
-31.3748

> <Gold.PLP.part.hbond>
-6.0105

> <Gold.PLP.part.metal>
0.0000

> <Gold.PLP.part.buried>
1.2168

> <Gold.PLP.part.nonpolar>
-28.2839

> <Gold.PLP.part.repulsive>
1.0896

> <Gold.PLP.ligand.clash>
0.0000

> <Gold.PLP.ligand.torsion>
0.4048

> <Gold.PLP.Chemscore.Hbond>
3.9668

> <Gold.PLP.Chemscore.CHOScore>
0.5738

> <Gold.PLP.Chemscore.Metal>
0.0000

> <Gold.Chemscore.Hbonds>
donor molecule, donor type, donor heavy atom, donor atom, acceptor molecule, acceptor atom, score
      L1  H     6    40       P1 10175  2.00
      P1  H 10785 10796       L1    16  0.93
      L1  C    15    34       P1  7921  0.28

> <Gold.PLP.Chemscore.Internal.Correction>
0.0451

> <Gold.Rescore>
     Score         DG    S(hbond)    S(metal)    S(lipo)     H(rot)  DE(clash)    DE(int)     intcor
     12.57     -19.28       2.92        0.00      72.93       1.75       1.95       4.76       ----

> <Gold.Chemscore.Fitness>
12.5709

> <Gold.Chemscore.DG>
-19.2791

> <Gold.Chemscore.ZeroCoef>
-5.4800

> <Gold.Chemscore.Hbond>
2.9216

> <Gold.Chemscore.Metal>
0.0000

> <Gold.Chemscore.Lipo>
72.9291

> <Gold.Chemscore.Internal_Hbond>
0.0000

> <Gold.Chemscore.DEClash>
1.9466

> <Gold.Chemscore.DEInternal>
4.7615

> <Gold.Chemscore.Rot>
1.7546

> <Gold.Chemscore.Internal.Correction>
   9.000000E+99

> <Gold.Chemscore.Hbonds>
donor molecule, donor type, donor heavy atom, donor atom, acceptor molecule, acceptor atom, score
      L1  H     6    40       P1 10175  0.98
      P1  H 10785 10796       L1    16  0.82

> <Gold.Chemscore.Hbond.Weighted>
-9.7581

> <Gold.Chemscore.Metal.Weighted>
-0.0000

> <Gold.Chemscore.Lipo.Weighted>
-8.5327

> <Gold.Chemscore.Internal_Hbond.Weighted>
0.0000

> <Gold.Chemscore.DEClash.Weighted>
1.9466

> <Gold.Chemscore.DEInternal.Weighted>
4.7615

> <Gold.Chemscore.Rot.Weighted>
4.4917

> <Gold.Chemscore.Internal.Correction.Weighted>
   9.000000E+99

> <Gold.Protein.RotatedTorsions>
[ 6907 6896 6895 6894 ] final -136.61 input  -60.11 | X-H torsion
[ 7974 7965 7964 7962 ] final -106.20 input  175.53 | X-H torsion
[ 8008 7997 7996 7995 ] final  -70.44 input   59.86 | X-H torsion
[ 10167 10162 10161 10158 ] final -101.63 input  -65.29 | X-H torsion
[ 10718 10713 10712 10709 ] final  174.12 input   66.30 | X-H torsion
[ 10763 10752 10751 10750 ] final -114.99 input  -60.55 | X-H torsion
[ 11005 11000 10999 10996 ] final  113.07 input  -57.11 | X-H torsion

> <Gold.Protein.ActiveResidues>
 VAL166  LYS551  ARG553  GLY616  TRP617  ASP618  TYR619  PRO620  LYS621  CYS622 
 ASP623  PHE694  ASN695  SER759  ASP760  ASP761  ALA762  ILE779  LEU786  VAL792 
 PHE793  MET794  SER795  GLU796  ALA797  LYS798  CYS799  TRP800  GLU811  SER814 

> <Gold.Protein.RotatedAtoms>
  151.0122  133.5954  159.2681 H   0  0  0  0  0  0  0  0  0  0  0  0  # atno 6907 bound_to 6896
  151.3102  135.0791  159.9279 H   0  0  0  0  0  0  0  0  0  0  0  0  # atno 6908 bound_to 6896
  152.5302  133.9788  159.7851 H   0  0  0  0  0  0  0  0  0  0  0  0  # atno 6909 bound_to 6896
  145.2209  140.9133  143.3260 H   0  0  0  0  0  0  0  0  0  0  0  0  # atno 7974 bound_to 7965
  154.5012  140.0834  156.7802 H   0  0  0  0  0  0  0  0  0  0  0  0  # atno 8008 bound_to 7997
  155.3998  140.3436  155.4238 H   0  0  0  0  0  0  0  0  0  0  0  0  # atno 8009 bound_to 7997
  156.1459  140.1543  156.8835 H   0  0  0  0  0  0  0  0  0  0  0  0  # atno 8010 bound_to 7997
  140.2393  143.3550  152.0816 H   0  0  0  0  0  0  0  0  0  0  0  0  # atno 10167 bound_to 10162
  156.9542  131.0040  151.2942 H   0  0  0  0  0  0  0  0  0  0  0  0  # atno 10718 bound_to 10713
  154.8463  135.4397  154.1593 H   0  0  0  0  0  0  0  0  0  0  0  0  # atno 10763 bound_to 10752
  153.2734  135.6947  153.7464 H   0  0  0  0  0  0  0  0  0  0  0  0  # atno 10764 bound_to 10752
  153.6695  135.3421  155.3124 H   0  0  0  0  0  0  0  0  0  0  0  0  # atno 10765 bound_to 10752
  139.8943  134.9542  156.6682 H   0  0  0  0  0  0  0  0  0  0  0  0  # atno 11005 bound_to 11000
  144.9767  139.3825  143.6282 LP  0  0  0  0  0  0  0  0  0  0  0  0  # atno 17320 bound_to 7965
  146.3376  139.8889  142.8812 LP  0  0  0  0  0  0  0  0  0  0  0  0  # atno 17321 bound_to 7965
  139.5083  144.6847  151.5918 LP  0  0  0  0  0  0  0  0  0  0  0  0  # atno 17342 bound_to 10162
  140.6126  143.9408  150.6464 LP  0  0  0  0  0  0  0  0  0  0  0  0  # atno 17343 bound_to 10162
  157.5701  130.8305  149.8380 LP  0  0  0  0  0  0  0  0  0  0  0  0  # atno 17370 bound_to 10713
  156.0350  130.3754  150.1586 LP  0  0  0  0  0  0  0  0  0  0  0  0  # atno 17371 bound_to 10713
  140.7394  133.8991  155.8267 LP  0  0  0  0  0  0  0  0  0  0  0  0  # atno 17394 bound_to 11000
  141.0090  134.1046  157.4241 LP  0  0  0  0  0  0  0  0  0  0  0  0  # atno 17395 bound_to 11000

$$$$
