AV-unprocessed.smi:1243|AV-procd|sdf|5219|dock10
  -GOLD-   22720 4313D 1   1.00000     0.00000
 Structure written by MMmdl.
 51 52  0  0  0  0  0  0  0  0  2 V2000
  151.2649  140.4175  155.3797 C   0  0  0  0  0  0  0  0  0  0  0  0
  152.0126  140.3430  156.5886 O   0  0  0  0  0  0  0  0  0  0  0  0
  152.0028  141.4325  157.4387 C   0  0  0  0  0  0  0  0  0  0  0  0
  151.2469  142.5075  157.1016 N   0  0  0  0  0  0  0  0  0  0  0  0
  151.2345  143.5706  157.9318 C   0  0  0  0  0  0  0  0  0  0  0  0
  151.9627  143.6172  159.1346 C   0  0  0  0  0  0  0  0  0  0  0  0
  152.7470  142.5034  159.4869 C   0  0  0  0  0  0  0  0  0  0  0  0
  152.7818  141.3855  158.6184 C   0  0  0  0  0  0  0  0  0  0  0  0
  153.5235  140.2030  158.8890 N   0  0  0  0  0  0  0  0  0  0  0  0
  154.0244  139.7825  160.0624 C   0  0  0  0  0  0  0  0  0  0  0  0
  153.9328  140.3838  161.1324 O   0  0  0  0  0  0  0  0  0  0  0  0
  154.6624  138.6114  159.9244 N   0  0  0  0  0  0  0  0  0  0  0  0
  155.3511  137.8862  160.9916 C   0  0  0  0  0  0  0  0  0  0  0  0
  154.8009  136.4460  161.2230 C   0  0  0  0  0  0  0  0  0  0  0  0
  155.3883  135.8436  162.5248 C   0  0  0  0  0  0  0  0  0  0  0  0
  153.2667  136.5007  161.4314 C   0  0  0  0  0  0  0  0  0  0  0  0
  155.1249  135.5426  160.0597 N   0  3  0  0  0  0  0  0  0  0  0  0
  154.4703  134.2026  160.0742 C   0  0  0  0  0  0  0  0  0  0  0  0
  154.6976  133.4678  158.7364 C   0  0  0  0  0  0  0  0  0  0  0  0
  156.1172  133.3108  158.4229 N   0  0  0  0  0  0  0  0  0  0  0  0
  156.7899  132.3359  159.2746 C   0  0  0  0  0  0  0  0  0  0  0  0
  156.7666  134.6209  158.4179 C   0  0  0  0  0  0  0  0  0  0  0  0
  156.5741  135.3750  159.7504 C   0  0  0  0  0  0  0  0  0  0  0  0
  151.3823  139.4862  154.8257 H   0  0  0  0  0  0  0  0  0  0  0  0
  151.6189  141.2289  154.7420 H   0  0  0  0  0  0  0  0  0  0  0  0
  150.2004  140.5536  155.5751 H   0  0  0  0  0  0  0  0  0  0  0  0
  150.6203  144.4065  157.6313 H   0  0  0  0  0  0  0  0  0  0  0  0
  151.9170  144.4855  159.7750 H   0  0  0  0  0  0  0  0  0  0  0  0
  153.2913  142.5219  160.4185 H   0  0  0  0  0  0  0  0  0  0  0  0
  153.7601  139.6495  158.0783 H   0  0  0  0  0  0  0  0  0  0  0  0
  154.6871  138.1947  159.0051 H   0  0  0  0  0  0  0  0  0  0  0  0
  156.4005  137.8514  160.7014 H   0  0  0  0  0  0  0  0  0  0  0  0
  155.3180  138.4711  161.9110 H   0  0  0  0  0  0  0  0  0  0  0  0
  154.9961  136.3381  163.4140 H   0  0  0  0  0  0  0  0  0  0  0  0
  156.4721  135.9469  162.5765 H   0  0  0  0  0  0  0  0  0  0  0  0
  155.1455  134.7844  162.6188 H   0  0  0  0  0  0  0  0  0  0  0  0
  153.0045  136.9774  162.3766 H   0  0  0  0  0  0  0  0  0  0  0  0
  152.8311  135.5006  161.4472 H   0  0  0  0  0  0  0  0  0  0  0  0
  152.7618  137.0753  160.6553 H   0  0  0  0  0  0  0  0  0  0  0  0
  154.8361  133.6019  160.9062 H   0  0  0  0  0  0  0  0  0  0  0  0
  153.3943  134.2922  160.2071 H   0  0  0  0  0  0  0  0  0  0  0  0
  154.2172  132.4888  158.7540 H   0  0  0  0  0  0  0  0  0  0  0  0
  154.2241  134.0280  157.9290 H   0  0  0  0  0  0  0  0  0  0  0  0
  157.8271  132.2134  158.9608 H   0  0  0  0  0  0  0  0  0  0  0  0
  156.3034  131.3635  159.1906 H   0  0  0  0  0  0  0  0  0  0  0  0
  156.7882  132.6227  160.3255 H   0  0  0  0  0  0  0  0  0  0  0  0
  157.8284  134.5011  158.1995 H   0  0  0  0  0  0  0  0  0  0  0  0
  156.3496  135.2120  157.6013 H   0  0  0  0  0  0  0  0  0  0  0  0
  157.0662  136.3394  159.6445 H   0  0  0  0  0  0  0  0  0  0  0  0
  157.0847  134.8525  160.5587 H   0  0  0  0  0  0  0  0  0  0  0  0
  154.7373  136.0137  159.2548 H   0  0  0  0  0  0  0  0  0  0  0  0
  1  2  1  0  0  0  0
  1 24  1  0  0  0  0
  1 25  1  0  0  0  0
  1 26  1  0  0  0  0
  2  3  1  0  0  0  0
  3  8  1  0  0  0  0
  3  4  2  0  0  0  0
  4  5  1  0  0  0  0
  5  6  2  0  0  0  0
  5 27  1  0  0  0  0
  6  7  1  0  0  0  0
  6 28  1  0  0  0  0
  7  8  2  0  0  0  0
  7 29  1  0  0  0  0
  8  9  1  0  0  0  0
  9 10  1  0  0  0  0
  9 30  1  0  0  0  0
 10 11  2  0  0  0  0
 10 12  1  0  0  0  0
 12 13  1  0  0  0  0
 12 31  1  0  0  0  0
 13 14  1  0  0  0  0
 13 32  1  0  0  0  0
 13 33  1  0  0  0  0
 14 15  1  0  0  0  0
 14 16  1  0  0  0  0
 14 17  1  0  0  0  0
 15 34  1  0  0  0  0
 15 35  1  0  0  0  0
 15 36  1  0  0  0  0
 16 37  1  0  0  0  0
 16 38  1  0  0  0  0
 16 39  1  0  0  0  0
 17 23  1  0  0  0  0
 17 18  1  0  0  0  0
 17 51  1  0  0  0  0
 18 19  1  0  0  0  0
 18 40  1  0  0  0  0
 18 41  1  0  0  0  0
 19 20  1  0  0  0  0
 19 42  1  0  0  0  0
 19 43  1  0  0  0  0
 20 21  1  0  0  0  0
 20 22  1  0  0  0  0
 21 44  1  0  0  0  0
 21 45  1  0  0  0  0
 21 46  1  0  0  0  0
 22 23  1  0  0  0  0
 22 47  1  0  0  0  0
 22 48  1  0  0  0  0
 23 49  1  0  0  0  0
 23 50  1  0  0  0  0
M  CHG  1  17   1
M  END
> <s_m_source_file>
AV-unprocessed.smi

> <i_m_source_file_index>
1243

> <i_lp_mmshare_version>
43012

> <i_f3d_flags>
0

> <s_epik_input>
W0NIM11PYzFuW2NIXVtjSF1bY0hdYzFbTkhdQyg9TylbTkhdW0NIMl1DKFtDSDNdKShbQ0gzXSlOMltDSDJdW0NIMl1OKFtDSDNdKVtDSDJdW0NIMl0y

> <s_epik_cmdline>
J2VwaWtfcHl0aG9uJywgJy1waCcsICc3LjAnLCAnLXRuJywgJzgnLCAnLW1hJywgJzIwMCcsICctbWV0YWxfYmluZGluZycsICctaW1hZScsICc8aW5maWxlLm1hZT4nLCAnLW9tYWUnLCAnPG91dGZpbGUubWFlPic=

> <r_epik_Ionization_Penalty>
0.0907124

> <r_epik_Ionization_Penalty_Charging>
0.0886444

> <r_epik_Ionization_Penalty_Neutral>
0.00206798

> <r_epik_State_Penalty>
1.00524

> <r_epik_Charging_Adjusted_Penalty>
1.09388

> <i_epik_Tot_Q>
1

> <i_epik_Tot_abs_Q>
1

> <r_epik_Metal_State_Penalty>
1.00525

> <b_epik_Metal_Only>
0

> <s_lp_Force_Field>
OPLS_2005

> <r_lp_Energy>
29.8833

> <b_lp_Chiralities_Consistent>
1

> <s_lp_Variant>
AV-unprocessed.smi:1243-2

> <Gold.Version>
5.8.1

> <Gold.Id.Protein>
6NUR|6NUR_protein|mol2

> <Gold.PLP.Fitness>
34.9549

> <Gold.PLP.PLP>
-29.2828

> <Gold.PLP.part.hbond>
-1.0000

> <Gold.PLP.part.metal>
0.0000

> <Gold.PLP.part.buried>
-3.6049

> <Gold.PLP.part.nonpolar>
-23.3123

> <Gold.PLP.part.repulsive>
0.1469

> <Gold.PLP.ligand.clash>
0.0000

> <Gold.PLP.ligand.torsion>
0.2067

> <Gold.PLP.Chemscore.Hbond>
0.9913

> <Gold.PLP.Chemscore.CHOScore>
1.0000

> <Gold.PLP.Chemscore.Metal>
0.0000

> <Gold.Chemscore.Hbonds>
donor molecule, donor type, donor heavy atom, donor atom, acceptor molecule, acceptor atom, score
      P1  H  7997  8009       L1     2  0.04
      L1  C     5    27       P1  8028  0.80

> <Gold.PLP.Chemscore.Internal.Correction>
0.1117

> <Gold.Rescore>
     Score         DG    S(hbond)    S(metal)    S(lipo)     H(rot)  DE(clash)    DE(int)     intcor
      9.89     -11.31       0.18        0.00      82.40       1.72       0.03       1.40       ----

> <Gold.Chemscore.Fitness>
9.8915

> <Gold.Chemscore.DG>
-11.3128

> <Gold.Chemscore.ZeroCoef>
-5.4800

> <Gold.Chemscore.Hbond>
0.1793

> <Gold.Chemscore.Metal>
0.0000

> <Gold.Chemscore.Lipo>
82.3956

> <Gold.Chemscore.Internal_Hbond>
0.0000

> <Gold.Chemscore.DEClash>
0.0252

> <Gold.Chemscore.DEInternal>
1.3960

> <Gold.Chemscore.Rot>
1.7213

> <Gold.Chemscore.Internal.Correction>
   9.000000E+99

> <Gold.Chemscore.Hbonds>
donor molecule, donor type, donor heavy atom, donor atom, acceptor molecule, acceptor atom, score
      P1  H  7997  8009       L1     2  0.01

> <Gold.Chemscore.Hbond.Weighted>
-0.5990

> <Gold.Chemscore.Metal.Weighted>
-0.0000

> <Gold.Chemscore.Lipo.Weighted>
-9.6403

> <Gold.Chemscore.Internal_Hbond.Weighted>
0.0000

> <Gold.Chemscore.DEClash.Weighted>
0.0252

> <Gold.Chemscore.DEInternal.Weighted>
1.3960

> <Gold.Chemscore.Rot.Weighted>
4.4066

> <Gold.Chemscore.Internal.Correction.Weighted>
   9.000000E+99

> <Gold.Protein.RotatedTorsions>
[ 6907 6896 6895 6894 ] final  143.77 input  -60.11 | X-H torsion
[ 7974 7965 7964 7962 ] final   76.29 input  175.53 | X-H torsion
[ 8008 7997 7996 7995 ] final  174.83 input   59.86 | X-H torsion
[ 10167 10162 10161 10158 ] final  -62.06 input  -65.29 | X-H torsion
[ 10718 10713 10712 10709 ] final  117.13 input   66.30 | X-H torsion
[ 10763 10752 10751 10750 ] final  -48.15 input  -60.55 | X-H torsion
[ 11005 11000 10999 10996 ] final   71.92 input  -57.11 | X-H torsion

> <Gold.Protein.ActiveResidues>
 VAL166  LYS551  ARG553  GLY616  TRP617  ASP618  TYR619  PRO620  LYS621  CYS622 
 ASP623  PHE694  ASN695  SER759  ASP760  ASP761  ALA762  ILE779  LEU786  VAL792 
 PHE793  MET794  SER795  GLU796  ALA797  LYS798  CYS799  TRP800  GLU811  SER814 

> <Gold.Protein.RotatedAtoms>
  152.2021  133.4849  159.5064 H   0  0  0  0  0  0  0  0  0  0  0  0  # atno 6907 bound_to 6896
  150.6972  134.1576  159.4173 H   0  0  0  0  0  0  0  0  0  0  0  0  # atno 6908 bound_to 6896
  151.9494  135.0176  160.0591 H   0  0  0  0  0  0  0  0  0  0  0  0  # atno 6909 bound_to 6896
  145.7047  139.2594  143.1685 H   0  0  0  0  0  0  0  0  0  0  0  0  # atno 7974 bound_to 7965
  156.0934  140.1424  156.9562 H   0  0  0  0  0  0  0  0  0  0  0  0  # atno 8008 bound_to 7997
  154.4656  140.0927  156.7058 H   0  0  0  0  0  0  0  0  0  0  0  0  # atno 8009 bound_to 7997
  155.4881  140.3447  155.4353 H   0  0  0  0  0  0  0  0  0  0  0  0  # atno 8010 bound_to 7997
  140.5964  143.2352  151.6026 H   0  0  0  0  0  0  0  0  0  0  0  0  # atno 10167 bound_to 10162
  157.6116  131.1033  150.7571 H   0  0  0  0  0  0  0  0  0  0  0  0  # atno 10718 bound_to 10713
  154.0731  135.6602  153.4827 H   0  0  0  0  0  0  0  0  0  0  0  0  # atno 10763 bound_to 10752
  153.0383  135.5162  154.7547 H   0  0  0  0  0  0  0  0  0  0  0  0  # atno 10764 bound_to 10752
  154.6619  135.3016  154.9823 H   0  0  0  0  0  0  0  0  0  0  0  0  # atno 10765 bound_to 10752
  139.9518  134.7213  156.0845 H   0  0  0  0  0  0  0  0  0  0  0  0  # atno 11005 bound_to 11000
  146.0767  140.7810  142.9662 LP  0  0  0  0  0  0  0  0  0  0  0  0  # atno 17320 bound_to 7965
  144.6959  140.3425  143.7196 LP  0  0  0  0  0  0  0  0  0  0  0  0  # atno 17321 bound_to 7965
  139.5261  144.3054  152.1038 LP  0  0  0  0  0  0  0  0  0  0  0  0  # atno 17342 bound_to 10162
  140.2228  144.4449  150.6334 LP  0  0  0  0  0  0  0  0  0  0  0  0  # atno 17343 bound_to 10162
  156.7947  130.4901  149.5379 LP  0  0  0  0  0  0  0  0  0  0  0  0  # atno 17370 bound_to 10713
  156.1221  130.6118  151.0210 LP  0  0  0  0  0  0  0  0  0  0  0  0  # atno 17371 bound_to 10713
  141.1182  133.6621  156.3148 LP  0  0  0  0  0  0  0  0  0  0  0  0  # atno 17394 bound_to 11000
  140.5701  134.5848  157.5455 LP  0  0  0  0  0  0  0  0  0  0  0  0  # atno 17395 bound_to 11000

$$$$
