AV-unprocessed.smi:522|AV-procd|sdf|2802|dock9
  -GOLD-   2262023273D 1   1.00000     0.00000
 Structure written by MMmdl.
 41 42  0  0  0  0  0  0  0  0  1 V2000
  148.2529  141.3539  153.7982 C   0  0  0  0  0  0  0  0  0  0  0  0
  147.8230  141.6169  155.1218 O   0  0  0  0  0  0  0  0  0  0  0  0
  148.5227  140.8459  156.0850 C   0  0  0  0  0  0  0  0  0  0  0  0
  150.0188  141.1861  156.0387 C   0  0  0  0  0  0  0  0  0  0  0  0
  150.6744  140.9386  157.3144 N   0  0  0  0  0  0  0  0  0  0  0  0
  150.7788  139.7691  157.9927 C   0  0  0  0  0  0  0  0  0  0  0  0
  150.0830  138.2652  157.3842 S   0  0  0  0  0  0  0  0  0  0  0  0
  149.2076  137.7469  158.8950 C   0  0  0  0  0  0  0  0  0  0  0  0
  148.9882  136.2289  158.9700 C   0  0  0  0  0  0  0  0  0  0  0  0
  149.5591  135.5044  158.1534 O   0  0  0  0  0  0  0  0  0  0  0  0
  148.0577  135.7420  160.0209 C   0  0  0  0  0  0  0  0  0  0  0  0
  147.6022  136.6197  161.0530 C   0  0  0  0  0  0  0  0  0  0  0  0
  147.2396  137.3441  161.8800 N   0  0  0  0  0  0  0  0  0  0  0  0
  147.6108  134.4579  160.0559 C   0  0  0  0  0  0  0  0  0  0  0  0
  147.9807  133.3484  159.0790 C   0  0  0  0  0  0  0  0  0  0  0  0
  146.7422  134.0161  161.0387 N   0  0  0  0  0  0  0  0  0  0  0  0
  151.4466  139.8279  159.1456 N   0  0  0  0  0  0  0  0  0  0  0  0
  151.8038  141.1594  159.2243 C   0  0  0  0  0  0  0  0  0  0  0  0
  152.5279  141.8595  160.2157 C   0  0  0  0  0  0  0  0  0  0  0  0
  152.7742  143.2412  160.0771 C   0  0  0  0  0  0  0  0  0  0  0  0
  152.3020  143.9409  158.9478 C   0  0  0  0  0  0  0  0  0  0  0  0
  151.5786  143.2623  157.9484 C   0  0  0  0  0  0  0  0  0  0  0  0
  151.3351  141.8833  158.0920 C   0  0  0  0  0  0  0  0  0  0  0  0
  147.6815  141.9648  153.0993 H   0  0  0  0  0  0  0  0  0  0  0  0
  148.0991  140.3068  153.5343 H   0  0  0  0  0  0  0  0  0  0  0  0
  149.3088  141.5965  153.6716 H   0  0  0  0  0  0  0  0  0  0  0  0
  148.1292  141.0482  157.0819 H   0  0  0  0  0  0  0  0  0  0  0  0
  148.3781  139.7825  155.8874 H   0  0  0  0  0  0  0  0  0  0  0  0
  150.5153  140.6167  155.2534 H   0  0  0  0  0  0  0  0  0  0  0  0
  150.1534  142.2366  155.7798 H   0  0  0  0  0  0  0  0  0  0  0  0
  149.7685  138.0867  159.7657 H   0  0  0  0  0  0  0  0  0  0  0  0
  148.2369  138.2418  158.9234 H   0  0  0  0  0  0  0  0  0  0  0  0
  149.0625  133.2148  159.0395 H   0  0  0  0  0  0  0  0  0  0  0  0
  147.6179  133.5804  158.0774 H   0  0  0  0  0  0  0  0  0  0  0  0
  147.5453  132.3908  159.3684 H   0  0  0  0  0  0  0  0  0  0  0  0
  146.4070  134.6304  161.7674 H   0  0  0  0  0  0  0  0  0  0  0  0
  146.4080  133.0631  161.0707 H   0  0  0  0  0  0  0  0  0  0  0  0
  152.8932  141.3327  161.0848 H   0  0  0  0  0  0  0  0  0  0  0  0
  153.3280  143.7670  160.8412 H   0  0  0  0  0  0  0  0  0  0  0  0
  152.4955  144.9990  158.8492 H   0  0  0  0  0  0  0  0  0  0  0  0
  151.2145  143.7952  157.0824 H   0  0  0  0  0  0  0  0  0  0  0  0
  1  2  1  0  0  0  0
  1 24  1  0  0  0  0
  1 25  1  0  0  0  0
  1 26  1  0  0  0  0
  2  3  1  0  0  0  0
  3  4  1  0  0  0  0
  3 27  1  0  0  0  0
  3 28  1  0  0  0  0
  4  5  1  0  0  0  0
  4 29  1  0  0  0  0
  4 30  1  0  0  0  0
  5 23  1  0  0  0  0
  5  6  1  0  0  0  0
  6  7  1  0  0  0  0
  6 17  2  0  0  0  0
  7  8  1  0  0  0  0
  8  9  1  0  0  0  0
  8 31  1  0  0  0  0
  8 32  1  0  0  0  0
  9 10  2  0  0  0  0
  9 11  1  0  0  0  0
 11 12  1  0  0  0  0
 11 14  2  0  0  0  0
 12 13  3  0  0  0  0
 14 15  1  0  0  0  0
 14 16  1  0  0  0  0
 15 33  1  0  0  0  0
 15 34  1  0  0  0  0
 15 35  1  0  0  0  0
 16 36  1  0  0  0  0
 16 37  1  0  0  0  0
 17 18  1  0  0  0  0
 18 23  2  0  0  0  0
 18 19  1  0  0  0  0
 19 20  2  0  0  0  0
 19 38  1  0  0  0  0
 20 21  1  0  0  0  0
 20 39  1  0  0  0  0
 21 22  2  0  0  0  0
 21 40  1  0  0  0  0
 22 23  1  0  0  0  0
 22 41  1  0  0  0  0
M  END
> <s_m_source_file>
AV-unprocessed.smi

> <i_m_source_file_index>
522

> <i_lp_mmshare_version>
43012

> <i_f3d_flags>
0

> <s_epik_input>
W2NIXTFbY0hdW2NIXVtjSF1jKGMxMiluKFtDSDJdW0NIMl1PW0NIM10pYyhuMilTW0NIMl1DKD1PKS9DKEMjTik9QygvW0NIM10pW05IMl0=

> <s_epik_cmdline>
J2VwaWtfcHl0aG9uJywgJy1waCcsICc3LjAnLCAnLXRuJywgJzgnLCAnLW1hJywgJzIwMCcsICctbWV0YWxfYmluZGluZycsICctaW1hZScsICc8aW5maWxlLm1hZT4nLCAnLW9tYWUnLCAnPG91dGZpbGUubWFlPic=

> <r_lp_tautomer_probability>
0.5

> <r_epik_Ionization_Penalty>
0.0129021

> <r_epik_Ionization_Penalty_Charging>
0

> <r_epik_Ionization_Penalty_Neutral>
0.0129021

> <r_epik_State_Penalty>
0.42069

> <r_epik_Charging_Adjusted_Penalty>
0.42069

> <i_epik_Tot_Q>
0

> <i_epik_Tot_abs_Q>
0

> <r_epik_Metal_State_Penalty>
0.41068

> <b_epik_Metal_Only>
0

> <s_lp_Force_Field>
OPLS_2005

> <r_lp_Energy>
16.5573

> <b_lp_Chiralities_Consistent>
1

> <s_lp_Variant>
AV-unprocessed.smi:522-2

> <Gold.Version>
5.8.1

> <Gold.Id.Protein>
6NUR|6NUR_protein|mol2

> <Gold.PLP.Fitness>
47.0242

> <Gold.PLP.PLP>
-41.6106

> <Gold.PLP.part.hbond>
-3.0000

> <Gold.PLP.part.metal>
0.0000

> <Gold.PLP.part.buried>
-4.1419

> <Gold.PLP.part.nonpolar>
-34.2795

> <Gold.PLP.part.repulsive>
0.1350

> <Gold.PLP.ligand.clash>
0.0000

> <Gold.PLP.ligand.torsion>
0.5493

> <Gold.PLP.Chemscore.Hbond>
2.1432

> <Gold.PLP.Chemscore.CHOScore>
0.0000

> <Gold.PLP.Chemscore.Metal>
0.0000

> <Gold.Chemscore.Hbonds>
donor molecule, donor type, donor heavy atom, donor atom, acceptor molecule, acceptor atom, score
      P1  H  6896  6909       L1    10  0.98
      P1  H  6931  6943       L1    13  0.47
      P1  H  6934  6947       L1    13  0.77

> <Gold.PLP.Chemscore.Internal.Correction>
0.0826

> <Gold.Rescore>
     Score         DG    S(hbond)    S(metal)    S(lipo)     H(rot)  DE(clash)    DE(int)     intcor
     14.24     -16.36       1.59        0.00      98.57       2.33       0.11       2.00       ----

> <Gold.Chemscore.Fitness>
14.2420

> <Gold.Chemscore.DG>
-16.3556

> <Gold.Chemscore.ZeroCoef>
-5.4800

> <Gold.Chemscore.Hbond>
1.5876

> <Gold.Chemscore.Metal>
0.0000

> <Gold.Chemscore.Lipo>
98.5706

> <Gold.Chemscore.Internal_Hbond>
0.0000

> <Gold.Chemscore.DEClash>
0.1102

> <Gold.Chemscore.DEInternal>
2.0035

> <Gold.Chemscore.Rot>
2.3280

> <Gold.Chemscore.Internal.Correction>
   9.000000E+99

> <Gold.Chemscore.Hbonds>
donor molecule, donor type, donor heavy atom, donor atom, acceptor molecule, acceptor atom, score
      P1  H  6896  6909       L1    10  0.22
      P1  H  6931  6943       L1    13  0.03
      P1  H  6934  6947       L1    13  0.31

> <Gold.Chemscore.Hbond.Weighted>
-5.3027

> <Gold.Chemscore.Metal.Weighted>
-0.0000

> <Gold.Chemscore.Lipo.Weighted>
-11.5328

> <Gold.Chemscore.Internal_Hbond.Weighted>
0.0000

> <Gold.Chemscore.DEClash.Weighted>
0.1102

> <Gold.Chemscore.DEInternal.Weighted>
2.0035

> <Gold.Chemscore.Rot.Weighted>
5.9598

> <Gold.Chemscore.Internal.Correction.Weighted>
   9.000000E+99

> <Gold.Protein.RotatedTorsions>
[ 6907 6896 6895 6894 ] final   33.38 input  -60.11 | X-H torsion
[ 7974 7965 7964 7962 ] final    7.15 input  175.53 | X-H torsion
[ 8008 7997 7996 7995 ] final -171.53 input   59.86 | X-H torsion
[ 10167 10162 10161 10158 ] final -179.16 input  -65.29 | X-H torsion
[ 10718 10713 10712 10709 ] final   14.81 input   66.30 | X-H torsion
[ 10763 10752 10751 10750 ] final  -23.70 input  -60.55 | X-H torsion
[ 11005 11000 10999 10996 ] final -145.86 input  -57.11 | X-H torsion

> <Gold.Protein.ActiveResidues>
 VAL166  LYS551  ARG553  GLY616  TRP617  ASP618  TYR619  PRO620  LYS621  CYS622 
 ASP623  PHE694  ASN695  SER759  ASP760  ASP761  ALA762  ILE779  LEU786  VAL792 
 PHE793  MET794  SER795  GLU796  ALA797  LYS798  CYS799  TRP800  GLU811  SER814 

> <Gold.Protein.RotatedAtoms>
  152.0877  134.9428  160.0572 H   0  0  0  0  0  0  0  0  0  0  0  0  # atno 6907 bound_to 6896
  152.0692  133.4094  159.4460 H   0  0  0  0  0  0  0  0  0  0  0  0  # atno 6908 bound_to 6896
  150.6836  134.3031  159.4758 H   0  0  0  0  0  0  0  0  0  0  0  0  # atno 6909 bound_to 6896
  146.2429  140.0126  142.8405 H   0  0  0  0  0  0  0  0  0  0  0  0  # atno 7974 bound_to 7965
  155.9328  140.1094  157.1119 H   0  0  0  0  0  0  0  0  0  0  0  0  # atno 8008 bound_to 7997
  154.4074  140.1234  156.4890 H   0  0  0  0  0  0  0  0  0  0  0  0  # atno 8009 bound_to 7997
  155.7059  140.3471  155.4955 H   0  0  0  0  0  0  0  0  0  0  0  0  # atno 8010 bound_to 7997
  139.5399  144.2392  152.0873 H   0  0  0  0  0  0  0  0  0  0  0  0  # atno 10167 bound_to 10162
  157.0445  130.6245  149.5757 H   0  0  0  0  0  0  0  0  0  0  0  0  # atno 10718 bound_to 10713
  153.6720  135.6971  153.5144 H   0  0  0  0  0  0  0  0  0  0  0  0  # atno 10763 bound_to 10752
  153.2550  135.4262  155.0836 H   0  0  0  0  0  0  0  0  0  0  0  0  # atno 10764 bound_to 10752
  154.8424  135.3541  154.6264 H   0  0  0  0  0  0  0  0  0  0  0  0  # atno 10765 bound_to 10752
  140.7879  134.3003  157.5023 H   0  0  0  0  0  0  0  0  0  0  0  0  # atno 11005 bound_to 11000
  145.1314  140.9520  143.4542 LP  0  0  0  0  0  0  0  0  0  0  0  0  # atno 17320 bound_to 7965
  145.0384  139.3281  143.5989 LP  0  0  0  0  0  0  0  0  0  0  0  0  # atno 17321 bound_to 7965
  140.1869  144.4790  150.6499 LP  0  0  0  0  0  0  0  0  0  0  0  0  # atno 17342 bound_to 10162
  140.6624  143.2256  151.5824 LP  0  0  0  0  0  0  0  0  0  0  0  0  # atno 17343 bound_to 10162
  156.0027  130.5109  150.7721 LP  0  0  0  0  0  0  0  0  0  0  0  0  # atno 17370 bound_to 10713
  157.5078  131.0923  151.0235 LP  0  0  0  0  0  0  0  0  0  0  0  0  # atno 17371 bound_to 10713
  139.8734  134.9357  156.3641 LP  0  0  0  0  0  0  0  0  0  0  0  0  # atno 17394 bound_to 11000
  140.9419  133.7509  156.0157 LP  0  0  0  0  0  0  0  0  0  0  0  0  # atno 17395 bound_to 11000

$$$$
