AV-unprocessed.smi:741|AV-procd|sdf|3556|dock6
  -GOLD-   22720 0553D 1   1.00000     0.00000
 Structure written by MMmdl.
 43 44  0  0  0  0  0  0  0  0  3 V2000
  150.7467  136.8010  154.8032 C   0  0  0  0  0  0  0  0  0  0  0  0
  149.9542  136.0887  155.9090 C   0  0  0  0  0  0  0  0  0  0  0  0
  149.4378  134.6942  155.5050 C   0  0  2  0  0  0  0  0  0  0  0  0
  150.5943  133.6716  155.4400 C   0  0  0  0  0  0  0  0  0  0  0  0
  150.1297  132.2651  155.5176 N   0  3  0  0  0  0  0  0  0  0  0  0
  149.2925  131.8286  154.3757 C   0  0  0  0  0  0  0  0  0  0  0  0
  149.7006  130.3856  154.0471 C   0  0  0  0  0  0  0  0  0  0  0  0
  150.5776  129.9501  155.2174 C   0  0  0  0  0  0  0  0  0  0  0  0
  151.2005  131.2603  155.6850 C   0  0  0  0  0  0  0  0  0  0  0  0
  148.7447  134.7807  154.2170 N   0  0  0  0  0  0  0  0  0  0  0  0
  147.4961  134.3635  153.9599 C   0  0  0  0  0  0  0  0  0  0  0  0
  146.7903  133.7874  154.7866 O   0  0  0  0  0  0  0  0  0  0  0  0
  147.1433  134.6340  152.6910 N   0  0  0  0  0  0  0  0  0  0  0  0
  145.9050  134.3788  152.0397 C   0  0  0  0  0  0  0  0  0  0  0  0
  145.4838  135.2994  151.0542 C   0  0  0  0  0  0  0  0  0  0  0  0
  144.2554  135.0978  150.3923 C   0  0  0  0  0  0  0  0  0  0  0  0
  143.4871  134.0341  150.7105 N   0  3  0  0  0  0  0  0  0  0  0  0
  143.8396  133.1355  151.6545 C   0  0  0  0  0  0  0  0  0  0  0  0
  145.0571  133.2847  152.3498 C   0  0  0  0  0  0  0  0  0  0  0  0
  151.0452  137.7989  155.1249 H   0  0  0  0  0  0  0  0  0  0  0  0
  150.1476  136.9109  153.8987 H   0  0  0  0  0  0  0  0  0  0  0  0
  151.6537  136.2560  154.5415 H   0  0  0  0  0  0  0  0  0  0  0  0
  150.5741  136.0103  156.8032 H   0  0  0  0  0  0  0  0  0  0  0  0
  149.1072  136.7183  156.1838 H   0  0  0  0  0  0  0  0  0  0  0  0
  148.7344  134.3793  156.2780 H   0  0  0  0  0  0  0  0  0  0  0  0
  151.1308  133.8134  154.5002 H   0  0  0  0  0  0  0  0  0  0  0  0
  151.3183  133.8556  156.2353 H   0  0  0  0  0  0  0  0  0  0  0  0
  148.2423  131.8898  154.6621 H   0  0  0  0  0  0  0  0  0  0  0  0
  149.4354  132.4668  153.5021 H   0  0  0  0  0  0  0  0  0  0  0  0
  148.8421  129.7292  153.9036 H   0  0  0  0  0  0  0  0  0  0  0  0
  150.2853  130.3711  153.1264 H   0  0  0  0  0  0  0  0  0  0  0  0
  149.9581  129.5306  156.0112 H   0  0  0  0  0  0  0  0  0  0  0  0
  151.3201  129.2025  154.9369 H   0  0  0  0  0  0  0  0  0  0  0  0
  152.0492  131.5099  155.0460 H   0  0  0  0  0  0  0  0  0  0  0  0
  151.5582  131.2052  156.7128 H   0  0  0  0  0  0  0  0  0  0  0  0
  149.2499  135.2354  153.4700 H   0  0  0  0  0  0  0  0  0  0  0  0
  147.8624  135.0360  152.1074 H   0  0  0  0  0  0  0  0  0  0  0  0
  146.0958  136.1531  150.8006 H   0  0  0  0  0  0  0  0  0  0  0  0
  143.8658  135.7519  149.6259 H   0  0  0  0  0  0  0  0  0  0  0  0
  143.1386  132.3323  151.8295 H   0  0  0  0  0  0  0  0  0  0  0  0
  145.3063  132.5653  153.1144 H   0  0  0  0  0  0  0  0  0  0  0  0
  149.5394  132.1890  156.3338 H   0  0  0  0  0  0  0  0  0  0  0  0
  142.6004  133.9073  150.2214 H   0  0  0  0  0  0  0  0  0  0  0  0
  1  2  1  0  0  0  0
  1 20  1  0  0  0  0
  1 21  1  0  0  0  0
  1 22  1  0  0  0  0
  2  3  1  0  0  0  0
  2 23  1  0  0  0  0
  2 24  1  0  0  0  0
  3  4  1  0  0  0  0
  3 10  1  0  0  0  0
  3 25  1  0  0  0  0
  4  5  1  0  0  0  0
  4 26  1  0  0  0  0
  4 27  1  0  0  0  0
  5  9  1  0  0  0  0
  5  6  1  0  0  0  0
  5 42  1  0  0  0  0
  6  7  1  0  0  0  0
  6 28  1  0  0  0  0
  6 29  1  0  0  0  0
  7  8  1  0  0  0  0
  7 30  1  0  0  0  0
  7 31  1  0  0  0  0
  8  9  1  0  0  0  0
  8 32  1  0  0  0  0
  8 33  1  0  0  0  0
  9 34  1  0  0  0  0
  9 35  1  0  0  0  0
 10 11  1  0  0  0  0
 10 36  1  0  0  0  0
 11 12  2  0  0  0  0
 11 13  1  0  0  0  0
 13 14  1  0  0  0  0
 13 37  1  0  0  0  0
 14 19  1  0  0  0  0
 14 15  2  0  0  0  0
 15 16  1  0  0  0  0
 15 38  1  0  0  0  0
 16 17  2  0  0  0  0
 16 39  1  0  0  0  0
 17 18  1  0  0  0  0
 17 43  1  0  0  0  0
 18 19  2  0  0  0  0
 18 40  1  0  0  0  0
 19 41  1  0  0  0  0
M  CHG  1   5   1
M  CHG  1  17   1
M  END
> <s_m_source_file>
AV-unprocessed.smi

> <i_m_source_file_index>
741

> <i_lp_mmshare_version>
43012

> <i_f3d_flags>
0

> <s_epik_input>
W0NIMl0xW0NIMl1bQ0gyXVtDSDJdTjFbQ0gyXVtDQEBIXShbQ0gyXVtDSDNdKVtOSF1DKD1PKVtOSF1jMltjSF1bY0hdbltjSF1bY0hdMg==

> <s_epik_cmdline>
J2VwaWtfcHl0aG9uJywgJy1waCcsICc3LjAnLCAnLXRuJywgJzgnLCAnLW1hJywgJzIwMCcsICctbWV0YWxfYmluZGluZycsICctaW1hZScsICc8aW5maWxlLm1hZT4nLCAnLW9tYWUnLCAnPG91dGZpbGUubWFlPic=

> <r_epik_Ionization_Penalty>
1.10771

> <r_epik_Ionization_Penalty_Charging>
1.10769

> <r_epik_Ionization_Penalty_Neutral>
1.91663e-05

> <r_epik_State_Penalty>
1.16347

> <r_epik_Charging_Adjusted_Penalty>
2.27116

> <i_epik_Tot_Q>
2

> <i_epik_Tot_abs_Q>
2

> <r_epik_Metal_State_Penalty>
1.24871

> <b_epik_Metal_Only>
0

> <s_lp_Force_Field>
OPLS_2005

> <r_lp_Energy>
49.4114

> <b_lp_Chiralities_Consistent>
1

> <s_lp_Variant>
AV-unprocessed.smi:741-3

> <Gold.Version>
5.8.1

> <Gold.Id.Protein>
6NUR|6NUR_protein|mol2

> <Gold.PLP.Fitness>
40.8087

> <Gold.PLP.PLP>
-30.2088

> <Gold.PLP.part.hbond>
-2.9606

> <Gold.PLP.part.metal>
0.0000

> <Gold.PLP.part.buried>
-4.7562

> <Gold.PLP.part.nonpolar>
-23.3399

> <Gold.PLP.part.repulsive>
0.0670

> <Gold.PLP.ligand.clash>
0.0000

> <Gold.PLP.ligand.torsion>
0.5278

> <Gold.PLP.Chemscore.Hbond>
3.8640

> <Gold.PLP.Chemscore.CHOScore>
0.0000

> <Gold.PLP.Chemscore.Metal>
0.0000

> <Gold.Chemscore.Hbonds>
donor molecule, donor type, donor heavy atom, donor atom, acceptor molecule, acceptor atom, score
      L1  H    10    36       P1  7948  0.81
      L1  H    13    37       P1  7948  1.00
      L1  H    17    43       P1 10186  2.00

> <Gold.PLP.Chemscore.Internal.Correction>
0.0636

> <Gold.Rescore>
     Score         DG    S(hbond)    S(metal)    S(lipo)     H(rot)  DE(clash)    DE(int)     intcor
     16.08     -17.70       2.62        0.00      65.19       1.63       0.13       1.48       ----

> <Gold.Chemscore.Fitness>
16.0833

> <Gold.Chemscore.DG>
-17.6960

> <Gold.Chemscore.ZeroCoef>
-5.4800

> <Gold.Chemscore.Hbond>
2.6200

> <Gold.Chemscore.Metal>
0.0000

> <Gold.Chemscore.Lipo>
65.1938

> <Gold.Chemscore.Internal_Hbond>
0.0000

> <Gold.Chemscore.DEClash>
0.1302

> <Gold.Chemscore.DEInternal>
1.4824

> <Gold.Chemscore.Rot>
1.6260

> <Gold.Chemscore.Internal.Correction>
   9.000000E+99

> <Gold.Chemscore.Hbonds>
donor molecule, donor type, donor heavy atom, donor atom, acceptor molecule, acceptor atom, score
      L1  H    10    36       P1  7948  0.18
      L1  H    13    37       P1  7948  0.74
      L1  H    17    43       P1 10186  0.97

> <Gold.Chemscore.Hbond.Weighted>
-8.7509

> <Gold.Chemscore.Metal.Weighted>
-0.0000

> <Gold.Chemscore.Lipo.Weighted>
-7.6277

> <Gold.Chemscore.Internal_Hbond.Weighted>
0.0000

> <Gold.Chemscore.DEClash.Weighted>
0.1302

> <Gold.Chemscore.DEInternal.Weighted>
1.4824

> <Gold.Chemscore.Rot.Weighted>
4.1626

> <Gold.Chemscore.Internal.Correction.Weighted>
   9.000000E+99

> <Gold.Protein.RotatedTorsions>
[ 6907 6896 6895 6894 ] final   -4.66 input  -60.11 | X-H torsion
[ 7974 7965 7964 7962 ] final  -19.41 input  175.53 | X-H torsion
[ 8008 7997 7996 7995 ] final   19.36 input   59.86 | X-H torsion
[ 10167 10162 10161 10158 ] final  162.67 input  -65.29 | X-H torsion
[ 10718 10713 10712 10709 ] final   90.78 input   66.30 | X-H torsion
[ 10763 10752 10751 10750 ] final  124.08 input  -60.55 | X-H torsion
[ 11005 11000 10999 10996 ] final  121.53 input  -57.11 | X-H torsion

> <Gold.Protein.ActiveResidues>
 VAL166  LYS551  ARG553  GLY616  TRP617  ASP618  TYR619  PRO620  LYS621  CYS622 
 ASP623  PHE694  ASN695  SER759  ASP760  ASP761  ALA762  ILE779  LEU786  VAL792 
 PHE793  MET794  SER795  GLU796  ALA797  LYS798  CYS799  TRP800  GLU811  SER814 

> <Gold.Protein.RotatedAtoms>
  151.4941  135.1059  159.9811 H   0  0  0  0  0  0  0  0  0  0  0  0  # atno 6907 bound_to 6896
  152.4729  133.8066  159.6992 H   0  0  0  0  0  0  0  0  0  0  0  0  # atno 6908 bound_to 6896
  150.8748  133.7391  159.2976 H   0  0  0  0  0  0  0  0  0  0  0  0  # atno 6909 bound_to 6896
  146.1842  140.4058  142.8482 H   0  0  0  0  0  0  0  0  0  0  0  0  # atno 7974 bound_to 7965
  154.9197  140.3025  155.5223 H   0  0  0  0  0  0  0  0  0  0  0  0  # atno 8008 bound_to 7997
  156.3010  140.2374  156.4181 H   0  0  0  0  0  0  0  0  0  0  0  0  # atno 8009 bound_to 7997
  154.8343  140.0417  157.1487 H   0  0  0  0  0  0  0  0  0  0  0  0  # atno 8010 bound_to 7997
  139.4863  144.4414  151.8947 H   0  0  0  0  0  0  0  0  0  0  0  0  # atno 10167 bound_to 10162
  157.6959  131.0383  150.3630 H   0  0  0  0  0  0  0  0  0  0  0  0  # atno 10718 bound_to 10713
  153.6557  135.3355  155.3113 H   0  0  0  0  0  0  0  0  0  0  0  0  # atno 10763 bound_to 10752
  154.8527  135.4351  154.1857 H   0  0  0  0  0  0  0  0  0  0  0  0  # atno 10764 bound_to 10752
  153.2811  135.7009  153.7460 H   0  0  0  0  0  0  0  0  0  0  0  0  # atno 10765 bound_to 10752
  139.9230  134.9639  156.7973 H   0  0  0  0  0  0  0  0  0  0  0  0  # atno 11005 bound_to 11000
  144.8369  140.6795  143.6255 LP  0  0  0  0  0  0  0  0  0  0  0  0  # atno 17320 bound_to 7965
  145.3986  139.1602  143.4190 LP  0  0  0  0  0  0  0  0  0  0  0  0  # atno 17321 bound_to 7965
  140.3866  144.2669  150.5903 LP  0  0  0  0  0  0  0  0  0  0  0  0  # atno 17342 bound_to 10162
  140.5185  143.2272  151.8426 LP  0  0  0  0  0  0  0  0  0  0  0  0  # atno 17343 bound_to 10162
  156.4064  130.3925  149.6923 LP  0  0  0  0  0  0  0  0  0  0  0  0  # atno 17370 bound_to 10713
  156.4222  130.7774  151.2792 LP  0  0  0  0  0  0  0  0  0  0  0  0  # atno 17371 bound_to 10713
  140.6419  133.9811  155.7711 LP  0  0  0  0  0  0  0  0  0  0  0  0  # atno 17394 bound_to 11000
  141.0766  134.0126  157.3449 LP  0  0  0  0  0  0  0  0  0  0  0  0  # atno 17395 bound_to 11000

$$$$
