AV-unprocessed.smi:3266|AV-procd|sdf|12503|dock8
  -GOLD-   2272018413D 1   1.00000     0.00000
 Structure written by MMmdl.
 39 40  0  0  0  0  0  0  0  0  2 V2000
  150.6973  140.1610  154.5147 O   0  0  0  0  0  0  0  0  0  0  0  0
  149.5546  140.2155  154.9694 C   0  0  0  0  0  0  0  0  0  0  0  0
  148.3505  139.7746  154.1323 C   0  0  0  0  0  0  0  0  0  0  0  0
  147.6550  140.9330  153.3935 C   0  0  0  0  0  0  0  0  0  0  0  0
  147.0609  141.9701  154.3580 C   0  0  1  0  0  0  0  0  0  0  0  0
  146.2533  143.0677  153.6673 C   0  0  0  0  0  0  0  0  0  0  0  0
  145.3402  143.5172  154.7847 C   0  0  0  0  0  0  0  0  0  0  0  0
  145.0095  142.1914  155.4635 C   0  0  0  0  0  0  0  0  0  0  0  0
  146.1469  141.3552  155.2639 O   0  0  0  0  0  0  0  0  0  0  0  0
  149.2796  140.6366  156.2130 N   0  0  0  0  0  0  0  0  0  0  0  0
  150.2670  141.0938  157.1866 C   0  0  0  0  0  0  0  0  0  0  0  0
  151.2101  142.1889  156.6450 C   0  0  0  0  0  0  0  0  0  0  0  0
  151.5369  143.2775  157.6535 C   0  0  0  0  0  0  0  0  0  0  0  0
  152.4655  143.0771  158.6979 C   0  0  0  0  0  0  0  0  0  0  0  0
  152.7324  144.1327  159.5946 C   0  0  0  0  0  0  0  0  0  0  0  0
  152.0676  145.3655  159.4280 C   0  0  0  0  0  0  0  0  0  0  0  0
  151.1514  145.5119  158.3667 C   0  0  0  0  0  0  0  0  0  0  0  0
  150.9221  144.4767  157.5296 N   0  3  0  0  0  0  0  0  0  0  0  0
  148.6913  139.0275  153.4146 H   0  0  0  0  0  0  0  0  0  0  0  0
  147.6321  139.2774  154.7857 H   0  0  0  0  0  0  0  0  0  0  0  0
  148.3744  141.4286  152.7398 H   0  0  0  0  0  0  0  0  0  0  0  0
  146.8648  140.5461  152.7486 H   0  0  0  0  0  0  0  0  0  0  0  0
  147.8542  142.4340  154.9464 H   0  0  0  0  0  0  0  0  0  0  0  0
  146.8764  143.8706  153.2723 H   0  0  0  0  0  0  0  0  0  0  0  0
  145.6629  142.6566  152.8470 H   0  0  0  0  0  0  0  0  0  0  0  0
  145.8822  144.1678  155.4726 H   0  0  0  0  0  0  0  0  0  0  0  0
  144.4563  144.0494  154.4326 H   0  0  0  0  0  0  0  0  0  0  0  0
  144.7827  142.3112  156.5230 H   0  0  0  0  0  0  0  0  0  0  0  0
  144.1493  141.7232  154.9840 H   0  0  0  0  0  0  0  0  0  0  0  0
  148.3123  140.6514  156.5035 H   0  0  0  0  0  0  0  0  0  0  0  0
  149.7654  141.4403  158.0914 H   0  0  0  0  0  0  0  0  0  0  0  0
  150.8572  140.2243  157.4778 H   0  0  0  0  0  0  0  0  0  0  0  0
  152.1433  141.7374  156.3054 H   0  0  0  0  0  0  0  0  0  0  0  0
  150.7646  142.6476  155.7617 H   0  0  0  0  0  0  0  0  0  0  0  0
  152.9692  142.1279  158.8100 H   0  0  0  0  0  0  0  0  0  0  0  0
  153.4394  143.9986  160.4001 H   0  0  0  0  0  0  0  0  0  0  0  0
  152.2580  146.1862  160.1041 H   0  0  0  0  0  0  0  0  0  0  0  0
  150.5992  146.4176  158.1631 H   0  0  0  0  0  0  0  0  0  0  0  0
  150.2559  144.6045  156.7670 H   0  0  0  0  0  0  0  0  0  0  0  0
  1  2  2  0  0  0  0
  2  3  1  0  0  0  0
  2 10  1  0  0  0  0
  3  4  1  0  0  0  0
  3 19  1  0  0  0  0
  3 20  1  0  0  0  0
  4  5  1  0  0  0  0
  4 21  1  0  0  0  0
  4 22  1  0  0  0  0
  5  9  1  0  0  0  0
  5  6  1  0  0  0  0
  5 23  1  0  0  0  0
  6  7  1  0  0  0  0
  6 24  1  0  0  0  0
  6 25  1  0  0  0  0
  7  8  1  0  0  0  0
  7 26  1  0  0  0  0
  7 27  1  0  0  0  0
  8  9  1  0  0  0  0
  8 28  1  0  0  0  0
  8 29  1  0  0  0  0
 10 11  1  0  0  0  0
 10 30  1  0  0  0  0
 11 12  1  0  0  0  0
 11 31  1  0  0  0  0
 11 32  1  0  0  0  0
 12 13  1  0  0  0  0
 12 33  1  0  0  0  0
 12 34  1  0  0  0  0
 13 18  1  0  0  0  0
 13 14  2  0  0  0  0
 14 15  1  0  0  0  0
 14 35  1  0  0  0  0
 15 16  2  0  0  0  0
 15 36  1  0  0  0  0
 16 17  1  0  0  0  0
 16 37  1  0  0  0  0
 17 18  2  0  0  0  0
 17 38  1  0  0  0  0
 18 39  1  0  0  0  0
M  CHG  1  18   1
M  END
> <s_m_source_file>
AV-unprocessed.smi

> <i_m_source_file_index>
3266

> <i_lp_mmshare_version>
43012

> <i_f3d_flags>
0

> <s_epik_input>
TzFbQ0gyXVtDSDJdW0NIMl1bQ0BIXTFbQ0gyXVtDSDJdQyg9TylbTkhdW0NIMl1bQ0gyXWMyW2NIXVtjSF1bY0hdW2NIXW4y

> <s_epik_cmdline>
J2VwaWtfcHl0aG9uJywgJy1waCcsICc3LjAnLCAnLXRuJywgJzgnLCAnLW1hJywgJzIwMCcsICctbWV0YWxfYmluZGluZycsICctaW1hZScsICc8aW5maWxlLm1hZT4nLCAnLW9tYWUnLCAnPG91dGZpbGUubWFlPic=

> <r_epik_Ionization_Penalty>
1.8495

> <r_epik_Ionization_Penalty_Charging>
1.8495

> <r_epik_Ionization_Penalty_Neutral>
1.53068e-08

> <r_epik_State_Penalty>
1.96688

> <r_epik_Charging_Adjusted_Penalty>
3.81638

> <i_epik_Tot_Q>
1

> <i_epik_Tot_abs_Q>
1

> <r_epik_Metal_State_Penalty>
1.99263

> <b_epik_Metal_Only>
0

> <s_lp_Force_Field>
OPLS_2005

> <r_lp_Energy>
22.1722

> <b_lp_Chiralities_Consistent>
1

> <s_lp_Variant>
AV-unprocessed.smi:3266-4

> <Gold.Version>
5.8.1

> <Gold.Id.Protein>
6NUR|6NUR_protein|mol2

> <Gold.PLP.Fitness>
49.0138

> <Gold.PLP.PLP>
-41.7302

> <Gold.PLP.part.hbond>
-1.9369

> <Gold.PLP.part.metal>
0.0000

> <Gold.PLP.part.buried>
-5.5383

> <Gold.PLP.part.nonpolar>
-33.7005

> <Gold.PLP.part.repulsive>
0.2725

> <Gold.PLP.ligand.clash>
0.0000

> <Gold.PLP.ligand.torsion>
0.8901

> <Gold.PLP.Chemscore.Hbond>
3.0000

> <Gold.PLP.Chemscore.CHOScore>
0.0000

> <Gold.PLP.Chemscore.Metal>
0.0000

> <Gold.Chemscore.Hbonds>
donor molecule, donor type, donor heavy atom, donor atom, acceptor molecule, acceptor atom, score
      L1  H    18    39       P1  8028  2.00
      P1  H  7989  7998       L1     1  1.00

> <Gold.PLP.Chemscore.Internal.Correction>
0.0638

> <Gold.Rescore>
     Score         DG    S(hbond)    S(metal)    S(lipo)     H(rot)  DE(clash)    DE(int)     intcor
     16.89     -19.64       1.96        0.00     105.35       1.84       0.20       2.55       ----

> <Gold.Chemscore.Fitness>
16.8920

> <Gold.Chemscore.DG>
-19.6437

> <Gold.Chemscore.ZeroCoef>
-5.4800

> <Gold.Chemscore.Hbond>
1.9592

> <Gold.Chemscore.Metal>
0.0000

> <Gold.Chemscore.Lipo>
105.3472

> <Gold.Chemscore.Internal_Hbond>
0.0000

> <Gold.Chemscore.DEClash>
0.2013

> <Gold.Chemscore.DEInternal>
2.5504

> <Gold.Chemscore.Rot>
1.8382

> <Gold.Chemscore.Internal.Correction>
   9.000000E+99

> <Gold.Chemscore.Hbonds>
donor molecule, donor type, donor heavy atom, donor atom, acceptor molecule, acceptor atom, score
      L1  H    18    39       P1  8028  0.82
      P1  H  7989  7998       L1     1  0.95

> <Gold.Chemscore.Hbond.Weighted>
-6.5439

> <Gold.Chemscore.Metal.Weighted>
-0.0000

> <Gold.Chemscore.Lipo.Weighted>
-12.3256

> <Gold.Chemscore.Internal_Hbond.Weighted>
0.0000

> <Gold.Chemscore.DEClash.Weighted>
0.2013

> <Gold.Chemscore.DEInternal.Weighted>
2.5504

> <Gold.Chemscore.Rot.Weighted>
4.7058

> <Gold.Chemscore.Internal.Correction.Weighted>
   9.000000E+99

> <Gold.Protein.RotatedTorsions>
[ 6907 6896 6895 6894 ] final  166.32 input  -60.11 | X-H torsion
[ 7974 7965 7964 7962 ] final   -4.77 input  175.53 | X-H torsion
[ 8008 7997 7996 7995 ] final   24.22 input   59.86 | X-H torsion
[ 10167 10162 10161 10158 ] final    1.99 input  -65.29 | X-H torsion
[ 10718 10713 10712 10709 ] final  -41.64 input   66.30 | X-H torsion
[ 10763 10752 10751 10750 ] final  112.82 input  -60.55 | X-H torsion
[ 11005 11000 10999 10996 ] final   16.29 input  -57.11 | X-H torsion

> <Gold.Protein.ActiveResidues>
 VAL166  LYS551  ARG553  GLY616  TRP617  ASP618  TYR619  PRO620  LYS621  CYS622 
 ASP623  PHE694  ASN695  SER759  ASP760  ASP761  ALA762  ILE779  LEU786  VAL792 
 PHE793  MET794  SER795  GLU796  ALA797  LYS798  CYS799  TRP800  GLU811  SER814 

> <Gold.Protein.RotatedAtoms>
  151.8807  133.3495  159.3765 H   0  0  0  0  0  0  0  0  0  0  0  0  # atno 6907 bound_to 6896
  150.7128  134.5021  159.5576 H   0  0  0  0  0  0  0  0  0  0  0  0  # atno 6908 bound_to 6896
  152.2572  134.8072  160.0487 H   0  0  0  0  0  0  0  0  0  0  0  0  # atno 6909 bound_to 6896
  146.2366  140.1921  142.8333 H   0  0  0  0  0  0  0  0  0  0  0  0  # atno 7974 bound_to 7965
  154.9930  140.3116  155.4898 H   0  0  0  0  0  0  0  0  0  0  0  0  # atno 8008 bound_to 7997
  156.2937  140.2245  156.4976 H   0  0  0  0  0  0  0  0  0  0  0  0  # atno 8009 bound_to 7997
  154.7686  140.0454  157.1021 H   0  0  0  0  0  0  0  0  0  0  0  0  # atno 8010 bound_to 7997
  140.6656  143.7187  150.7821 H   0  0  0  0  0  0  0  0  0  0  0  0  # atno 10167 bound_to 10162
  156.2682  130.4204  149.8467 H   0  0  0  0  0  0  0  0  0  0  0  0  # atno 10718 bound_to 10713
  153.4834  135.3674  155.2454 H   0  0  0  0  0  0  0  0  0  0  0  0  # atno 10763 bound_to 10752
  154.8754  135.3960  154.3673 H   0  0  0  0  0  0  0  0  0  0  0  0  # atno 10764 bound_to 10752
  153.4281  135.7082  153.6314 H   0  0  0  0  0  0  0  0  0  0  0  0  # atno 10765 bound_to 10752
  140.4487  134.1246  155.7699 H   0  0  0  0  0  0  0  0  0  0  0  0  # atno 11005 bound_to 11000
  144.9849  140.8494  143.5374 LP  0  0  0  0  0  0  0  0  0  0  0  0  # atno 17320 bound_to 7965
  145.1920  139.2296  143.5238 LP  0  0  0  0  0  0  0  0  0  0  0  0  # atno 17321 bound_to 7965
  140.0864  143.4919  152.2502 LP  0  0  0  0  0  0  0  0  0  0  0  0  # atno 17342 bound_to 10162
  139.5904  144.7548  151.3415 LP  0  0  0  0  0  0  0  0  0  0  0  0  # atno 17343 bound_to 10162
  156.5957  130.8525  151.3419 LP  0  0  0  0  0  0  0  0  0  0  0  0  # atno 17370 bound_to 10713
  157.7275  130.9643  150.1700 LP  0  0  0  0  0  0  0  0  0  0  0  0  # atno 17371 bound_to 10713
  141.1673  133.8677  157.1675 LP  0  0  0  0  0  0  0  0  0  0  0  0  # atno 17394 bound_to 11000
  140.0021  135.0023  157.0212 LP  0  0  0  0  0  0  0  0  0  0  0  0  # atno 17395 bound_to 11000

$$$$
