AV-unprocessed.smi:177|AV-procd|sdf|1443|dock1
  -GOLD-   2262019233D 1   1.00000     0.00000
 Structure written by MMmdl.
 61 65  0  0  0  0  0  0  0  0  1 V2000
  152.7702  144.6937  157.9863 C   0  0  0  0  0  0  0  0  0  0  0  0
  153.0603  144.1138  159.2491 O   0  0  0  0  0  0  0  0  0  0  0  0
  151.9458  143.5133  159.9020 C   0  0  2  0  0  0  0  0  0  0  0  0
  152.3228  143.3058  161.3807 C   0  0  0  0  0  0  0  0  0  0  0  0
  153.4167  142.2376  161.5523 C   0  0  0  0  0  0  0  0  0  0  0  0
  153.0090  140.9150  160.8851 C   0  0  2  0  0  0  0  0  0  0  0  0
  154.0741  139.9790  161.0166 O   0  0  0  0  0  0  0  0  0  0  0  0
  153.7293  138.7046  160.4839 C   0  0  0  0  0  0  0  0  0  0  0  0
  153.4224  138.8403  158.9840 C   0  0  0  0  0  0  0  0  0  0  0  0
  152.3818  139.8388  158.7659 N   0  0  0  0  0  0  0  0  0  0  0  0
  151.9874  139.8556  157.4720 C   0  0  0  0  0  0  0  0  0  0  0  0
  152.8448  139.3258  156.5654 N   0  0  0  0  0  0  0  0  0  0  0  0
  152.5151  139.2961  155.2710 C   0  0  0  0  0  0  0  0  0  0  0  0
  151.4029  139.7406  154.6827 N   0  0  0  0  0  0  0  0  0  0  0  0
  150.5456  140.2934  155.5883 C   0  0  0  0  0  0  0  0  0  0  0  0
  150.7568  140.3913  156.9929 C   0  0  0  0  0  0  0  0  0  0  0  0
  149.6660  141.0095  157.5910 N   0  0  0  0  0  0  0  0  0  0  0  0
  148.8512  141.2487  156.6014 C   0  0  0  0  0  0  0  0  0  0  0  0
  149.3070  140.8699  155.3584 N   0  0  0  0  0  0  0  0  0  0  0  0
  148.6018  141.0185  154.0921 C   0  0  0  0  0  0  0  0  0  0  0  0
  147.0632  140.7523  154.1533 C   0  0  0  0  0  0  0  0  0  0  0  0
  146.3152  141.9922  154.7106 C   0  0  0  0  0  0  0  0  0  0  0  0
  144.9228  141.7726  154.8197 O   0  0  0  0  0  0  0  0  0  0  0  0
  146.5215  140.4153  152.7410 C   0  0  0  0  0  0  0  0  0  0  0  0
  146.9585  139.0231  152.2462 C   0  0  0  0  0  0  0  0  0  0  0  0
  146.5707  138.0248  153.1815 O   0  0  0  0  0  0  0  0  0  0  0  0
  147.1664  138.2027  154.4600 C   0  0  0  0  0  0  0  0  0  0  0  0
  146.7130  139.5451  155.0604 C   0  0  0  0  0  0  0  0  0  0  0  0
  152.6942  141.1291  159.3870 C   0  0  1  0  0  0  0  0  0  0  0  0
  151.5585  142.1701  159.2468 C   0  0  0  0  0  0  0  0  0  0  0  0
  153.6653  145.1821  157.6018 H   0  0  0  0  0  0  0  0  0  0  0  0
  151.9874  145.4487  158.0665 H   0  0  0  0  0  0  0  0  0  0  0  0
  152.4657  143.9481  157.2525 H   0  0  0  0  0  0  0  0  0  0  0  0
  151.0978  144.1989  159.8607 H   0  0  0  0  0  0  0  0  0  0  0  0
  152.6499  144.2489  161.8195 H   0  0  0  0  0  0  0  0  0  0  0  0
  151.4360  143.0009  161.9379 H   0  0  0  0  0  0  0  0  0  0  0  0
  154.3508  142.5961  161.1178 H   0  0  0  0  0  0  0  0  0  0  0  0
  153.6115  142.0749  162.6126 H   0  0  0  0  0  0  0  0  0  0  0  0
  152.1282  140.5227  161.3977 H   0  0  0  0  0  0  0  0  0  0  0  0
  154.5622  138.0184  160.6372 H   0  0  0  0  0  0  0  0  0  0  0  0
  152.8733  138.2920  161.0201 H   0  0  0  0  0  0  0  0  0  0  0  0
  154.3250  139.1334  158.4451 H   0  0  0  0  0  0  0  0  0  0  0  0
  153.1082  137.8751  158.5837 H   0  0  0  0  0  0  0  0  0  0  0  0
  153.2465  138.8519  154.6122 H   0  0  0  0  0  0  0  0  0  0  0  0
  147.8910  141.7189  156.7536 H   0  0  0  0  0  0  0  0  0  0  0  0
  148.7947  142.0237  153.7156 H   0  0  0  0  0  0  0  0  0  0  0  0
  149.0850  140.3526  153.3789 H   0  0  0  0  0  0  0  0  0  0  0  0
  146.6867  142.2522  155.7025 H   0  0  0  0  0  0  0  0  0  0  0  0
  146.4854  142.8676  154.0837 H   0  0  0  0  0  0  0  0  0  0  0  0
  144.5907  141.5168  153.9726 H   0  0  0  0  0  0  0  0  0  0  0  0
  145.4309  140.4422  152.7542 H   0  0  0  0  0  0  0  0  0  0  0  0
  146.8325  141.1726  152.0203 H   0  0  0  0  0  0  0  0  0  0  0  0
  146.4815  138.8052  151.2905 H   0  0  0  0  0  0  0  0  0  0  0  0
  148.0335  138.9766  152.0707 H   0  0  0  0  0  0  0  0  0  0  0  0
  146.8518  137.3830  155.1059 H   0  0  0  0  0  0  0  0  0  0  0  0
  148.2521  138.1405  154.3829 H   0  0  0  0  0  0  0  0  0  0  0  0
  147.1217  139.6696  156.0624 H   0  0  0  0  0  0  0  0  0  0  0  0
  145.6314  139.4965  155.1959 H   0  0  0  0  0  0  0  0  0  0  0  0
  153.5939  141.5249  158.9161 H   0  0  0  0  0  0  0  0  0  0  0  0
  150.6563  141.7849  159.7238 H   0  0  0  0  0  0  0  0  0  0  0  0
  151.2906  142.3301  158.2039 H   0  0  0  0  0  0  0  0  0  0  0  0
  1  2  1  0  0  0  0
  1 31  1  0  0  0  0
  1 32  1  0  0  0  0
  1 33  1  0  0  0  0
  2  3  1  0  0  0  0
  3 30  1  0  0  0  0
  3  4  1  0  0  0  0
  3 34  1  0  0  0  0
  4  5  1  0  0  0  0
  4 35  1  0  0  0  0
  4 36  1  0  0  0  0
  5  6  1  0  0  0  0
  5 37  1  0  0  0  0
  5 38  1  0  0  0  0
  6 29  1  0  0  0  0
  6  7  1  0  0  0  0
  6 39  1  0  0  0  0
  7  8  1  0  0  0  0
  8  9  1  0  0  0  0
  8 40  1  0  0  0  0
  8 41  1  0  0  0  0
  9 10  1  0  0  0  0
  9 42  1  0  0  0  0
  9 43  1  0  0  0  0
 10 11  1  0  0  0  0
 10 29  1  0  0  0  0
 11 16  1  0  0  0  0
 11 12  2  0  0  0  0
 12 13  1  0  0  0  0
 13 14  2  0  0  0  0
 13 44  1  0  0  0  0
 14 15  1  0  0  0  0
 15 19  1  0  0  0  0
 15 16  2  0  0  0  0
 16 17  1  0  0  0  0
 17 18  2  0  0  0  0
 18 19  1  0  0  0  0
 18 45  1  0  0  0  0
 19 20  1  0  0  0  0
 20 21  1  0  0  0  0
 20 46  1  0  0  0  0
 20 47  1  0  0  0  0
 21 28  1  0  0  0  0
 21 22  1  0  0  0  0
 21 24  1  0  0  0  0
 22 23  1  0  0  0  0
 22 48  1  0  0  0  0
 22 49  1  0  0  0  0
 23 50  1  0  0  0  0
 24 25  1  0  0  0  0
 24 51  1  0  0  0  0
 24 52  1  0  0  0  0
 25 26  1  0  0  0  0
 25 53  1  0  0  0  0
 25 54  1  0  0  0  0
 26 27  1  0  0  0  0
 27 28  1  0  0  0  0
 27 55  1  0  0  0  0
 27 56  1  0  0  0  0
 28 57  1  0  0  0  0
 28 58  1  0  0  0  0
 29 30  1  0  0  0  0
 29 59  1  0  0  0  0
 30 60  1  0  0  0  0
 30 61  1  0  0  0  0
M  END
> <s_m_source_file>
AV-unprocessed.smi

> <i_m_source_file_index>
177

> <i_lp_mmshare_version>
43012

> <i_f3d_flags>
0

> <s_epik_input>
W0NIM11PW0NASF0oW0NIMl1bQ0gyXTEpW0NIMl1bQ0BIXShbQ0BASF0xMilOKFtDSDJdW0NIMl1PMiljKG5bY0hdbjMpYyhjMzQpbltjSF1uNFtDSDJdQzUoW0NIMl1bT0hdKVtDSDJdW0NIMl1PW0NIMl1bQ0gyXTU=

> <s_epik_cmdline>
J2VwaWtfcHl0aG9uJywgJy1waCcsICc3LjAnLCAnLXRuJywgJzgnLCAnLW1hJywgJzIwMCcsICctbWV0YWxfYmluZGluZycsICctaW1hZScsICc8aW5maWxlLm1hZT4nLCAnLW9tYWUnLCAnPG91dGZpbGUubWFlPic=

> <r_lp_tautomer_probability>
1

> <r_epik_Ionization_Penalty>
0.0065899

> <r_epik_Ionization_Penalty_Charging>
0

> <r_epik_Ionization_Penalty_Neutral>
0.0065899

> <r_epik_State_Penalty>
0.00470042

> <r_epik_Charging_Adjusted_Penalty>
0.00470042

> <i_epik_Tot_Q>
0

> <i_epik_Tot_abs_Q>
0

> <r_epik_Metal_State_Penalty>
-0

> <b_epik_Metal_Only>
0

> <s_lp_Force_Field>
OPLS_2005

> <r_lp_Energy>
42.7066

> <b_lp_Chiralities_Consistent>
1

> <s_lp_Variant>
AV-unprocessed.smi:177-7

> <Gold.Version>
5.8.1

> <Gold.Id.Protein>
6NUR|6NUR_protein|mol2

> <Gold.PLP.Fitness>
56.7480

> <Gold.PLP.PLP>
-50.2928

> <Gold.PLP.part.hbond>
-3.0000

> <Gold.PLP.part.metal>
0.0000

> <Gold.PLP.part.buried>
-2.3381

> <Gold.PLP.part.nonpolar>
-46.0300

> <Gold.PLP.part.repulsive>
0.3369

> <Gold.PLP.ligand.clash>
0.6268

> <Gold.PLP.ligand.torsion>
1.0452

> <Gold.PLP.Chemscore.Hbond>
3.0000

> <Gold.PLP.Chemscore.CHOScore>
0.0000

> <Gold.PLP.Chemscore.Metal>
0.0000

> <Gold.Chemscore.Hbonds>
donor molecule, donor type, donor heavy atom, donor atom, acceptor molecule, acceptor atom, score
      L1  H    23    50       P1 10175  0.95
      P1  H  7989  7998       L1    14  1.00
      P1  H  7997  8010       L1    12  0.95

> <Gold.PLP.Chemscore.Internal.Correction>
0.1724

> <Gold.Rescore>
     Score         DG    S(hbond)    S(metal)    S(lipo)     H(rot)  DE(clash)    DE(int)     intcor
     15.45     -20.14       1.91        0.00     127.16       2.58       1.18       3.51       ----

> <Gold.Chemscore.Fitness>
15.4510

> <Gold.Chemscore.DG>
-20.1420

> <Gold.Chemscore.ZeroCoef>
-5.4800

> <Gold.Chemscore.Hbond>
1.9134

> <Gold.Chemscore.Metal>
0.0000

> <Gold.Chemscore.Lipo>
127.1579

> <Gold.Chemscore.Internal_Hbond>
0.0000

> <Gold.Chemscore.DEClash>
1.1786

> <Gold.Chemscore.DEInternal>
3.5124

> <Gold.Chemscore.Rot>
2.5806

> <Gold.Chemscore.Internal.Correction>
   9.000000E+99

> <Gold.Chemscore.Hbonds>
donor molecule, donor type, donor heavy atom, donor atom, acceptor molecule, acceptor atom, score
      L1  H    23    50       P1 10175  0.21
      P1  H  7989  7998       L1    14  0.54
      P1  H  7997  8010       L1    12  0.20

> <Gold.Chemscore.Hbond.Weighted>
-6.3907

> <Gold.Chemscore.Metal.Weighted>
-0.0000

> <Gold.Chemscore.Lipo.Weighted>
-14.8775

> <Gold.Chemscore.Internal_Hbond.Weighted>
0.0000

> <Gold.Chemscore.DEClash.Weighted>
1.1786

> <Gold.Chemscore.DEInternal.Weighted>
3.5124

> <Gold.Chemscore.Rot.Weighted>
6.6062

> <Gold.Chemscore.Internal.Correction.Weighted>
   9.000000E+99

> <Gold.Protein.RotatedTorsions>
[ 6907 6896 6895 6894 ] final   37.80 input  -60.11 | X-H torsion
[ 7974 7965 7964 7962 ] final  114.04 input  175.53 | X-H torsion
[ 8008 7997 7996 7995 ] final   71.12 input   59.86 | X-H torsion
[ 10167 10162 10161 10158 ] final   76.45 input  -65.29 | X-H torsion
[ 10718 10713 10712 10709 ] final   12.39 input   66.30 | X-H torsion
[ 10763 10752 10751 10750 ] final  119.11 input  -60.55 | X-H torsion
[ 11005 11000 10999 10996 ] final    0.46 input  -57.11 | X-H torsion

> <Gold.Protein.ActiveResidues>
 VAL166  LYS551  ARG553  GLY616  TRP617  ASP618  TYR619  PRO620  LYS621  CYS622 
 ASP623  PHE694  ASN695  SER759  ASP760  ASP761  ALA762  ILE779  LEU786  VAL792 
 PHE793  MET794  SER795  GLU796  ALA797  LYS798  CYS799  TRP800  GLU811  SER814 

> <Gold.Protein.RotatedAtoms>
  152.1480  134.9011  160.0549 H   0  0  0  0  0  0  0  0  0  0  0  0  # atno 6907 bound_to 6896
  152.0054  133.3836  159.4206 H   0  0  0  0  0  0  0  0  0  0  0  0  # atno 6908 bound_to 6896
  150.6872  134.3711  159.5036 H   0  0  0  0  0  0  0  0  0  0  0  0  # atno 6909 bound_to 6896
  145.2094  139.2913  143.4276 H   0  0  0  0  0  0  0  0  0  0  0  0  # atno 7974 bound_to 7965
  155.7492  140.3489  155.5142 H   0  0  0  0  0  0  0  0  0  0  0  0  # atno 8008 bound_to 7997
  155.9021  140.1036  157.1363 H   0  0  0  0  0  0  0  0  0  0  0  0  # atno 8009 bound_to 7997
  154.4045  140.1284  156.4436 H   0  0  0  0  0  0  0  0  0  0  0  0  # atno 8010 bound_to 7997
  139.9922  144.5749  150.7808 H   0  0  0  0  0  0  0  0  0  0  0  0  # atno 10167 bound_to 10162
  157.0094  130.6111  149.5706 H   0  0  0  0  0  0  0  0  0  0  0  0  # atno 10718 bound_to 10713
  153.5779  135.3489  155.2863 H   0  0  0  0  0  0  0  0  0  0  0  0  # atno 10763 bound_to 10752
  154.8672  135.4175  154.2652 H   0  0  0  0  0  0  0  0  0  0  0  0  # atno 10764 bound_to 10752
  153.3432  135.7051  153.6920 H   0  0  0  0  0  0  0  0  0  0  0  0  # atno 10765 bound_to 10752
  140.6263  133.9615  155.8251 H   0  0  0  0  0  0  0  0  0  0  0  0  # atno 11005 bound_to 11000
  146.3401  140.2365  142.8594 LP  0  0  0  0  0  0  0  0  0  0  0  0  # atno 17320 bound_to 7965
  144.9870  140.8512  143.5362 LP  0  0  0  0  0  0  0  0  0  0  0  0  # atno 17321 bound_to 7965
  140.7450  143.2870  151.3437 LP  0  0  0  0  0  0  0  0  0  0  0  0  # atno 17342 bound_to 10162
  139.6332  144.0681  152.2494 LP  0  0  0  0  0  0  0  0  0  0  0  0  # atno 17343 bound_to 10162
  156.0141  130.5235  150.8082 LP  0  0  0  0  0  0  0  0  0  0  0  0  # atno 17370 bound_to 10713
  157.5331  131.0937  150.9928 LP  0  0  0  0  0  0  0  0  0  0  0  0  # atno 17371 bound_to 10713
  141.0707  134.0210  157.3530 LP  0  0  0  0  0  0  0  0  0  0  0  0  # atno 17394 bound_to 11000
  139.9133  135.0193  156.7782 LP  0  0  0  0  0  0  0  0  0  0  0  0  # atno 17395 bound_to 11000

$$$$
