AV-unprocessed.smi:1570|AV-procd|sdf|6324|dock5
  -GOLD-   22720 6533D 1   1.00000     0.00000
 Structure written by MMmdl.
 52 54  0  0  0  0  0  0  0  0  2 V2000
  155.5438  140.1268  160.9173 C   0  0  0  0  0  0  0  0  0  0  0  0
  154.1208  140.4299  161.4036 C   0  0  0  0  0  0  0  0  0  0  0  0
  153.3704  141.1843  160.4029 N   0  0  0  0  0  0  0  0  0  0  0  0
  153.0796  140.7857  159.1423 C   0  0  0  0  0  0  0  0  0  0  0  0
  153.4251  139.7268  158.6178 O   0  0  0  0  0  0  0  0  0  0  0  0
  152.3426  141.7566  158.5535 N   0  0  0  0  0  0  0  0  0  0  0  0
  151.8125  141.7366  157.1916 C   0  0  0  0  0  0  0  0  0  0  0  0
  150.2730  141.8296  157.1784 C   0  0  2  0  0  0  0  0  0  0  0  0
  149.7733  140.9739  158.1878 O   0  0  0  0  0  0  0  0  0  0  0  0
  149.6885  141.3593  155.8305 C   0  0  0  0  0  0  0  0  0  0  0  0
  148.3311  141.9096  155.5649 N   0  3  1  0  0  0  0  0  0  0  0  0
  147.8369  141.7279  154.1754 C   0  0  0  0  0  0  0  0  0  0  0  0
  147.3282  140.2907  153.9306 C   0  0  2  0  0  0  0  0  0  0  0  0
  146.6889  140.1371  152.5461 C   0  0  0  0  0  0  0  0  0  0  0  0
  146.3452  139.9649  154.9081 O   0  0  0  0  0  0  0  0  0  0  0  0
  146.8493  140.0160  156.2385 C   0  0  2  0  0  0  0  0  0  0  0  0
  145.7391  139.5531  157.1882 C   0  0  0  0  0  0  0  0  0  0  0  0
  147.3087  141.4572  156.5395 C   0  0  0  0  0  0  0  0  0  0  0  0
  152.1634  142.8110  159.4599 C   0  0  0  0  0  0  0  0  0  0  0  0
  151.4895  144.0381  159.3318 C   0  0  0  0  0  0  0  0  0  0  0  0
  151.4917  144.8975  160.4552 C   0  0  0  0  0  0  0  0  0  0  0  0
  152.1504  144.5236  161.6552 C   0  0  0  0  0  0  0  0  0  0  0  0
  152.8228  143.2833  161.7567 C   0  0  0  0  0  0  0  0  0  0  0  0
  152.8074  142.4493  160.6250 C   0  0  0  0  0  0  0  0  0  0  0  0
  156.0976  139.5622  161.6675 H   0  0  0  0  0  0  0  0  0  0  0  0
  156.0968  141.0452  160.7179 H   0  0  0  0  0  0  0  0  0  0  0  0
  155.5308  139.5371  160.0001 H   0  0  0  0  0  0  0  0  0  0  0  0
  153.5972  139.5012  161.6307 H   0  0  0  0  0  0  0  0  0  0  0  0
  154.1609  140.9899  162.3391 H   0  0  0  0  0  0  0  0  0  0  0  0
  152.2367  142.5935  156.6655 H   0  0  0  0  0  0  0  0  0  0  0  0
  152.1656  140.8608  156.6453 H   0  0  0  0  0  0  0  0  0  0  0  0
  149.9621  142.8524  157.3888 H   0  0  0  0  0  0  0  0  0  0  0  0
  150.4618  140.8089  158.8143 H   0  0  0  0  0  0  0  0  0  0  0  0
  150.3605  141.6267  155.0154 H   0  0  0  0  0  0  0  0  0  0  0  0
  149.6451  140.2689  155.8370 H   0  0  0  0  0  0  0  0  0  0  0  0
  147.0169  142.4305  154.0205 H   0  0  0  0  0  0  0  0  0  0  0  0
  148.5998  141.9938  153.4451 H   0  0  0  0  0  0  0  0  0  0  0  0
  148.1533  139.5812  154.0030 H   0  0  0  0  0  0  0  0  0  0  0  0
  147.4031  140.3691  151.7556 H   0  0  0  0  0  0  0  0  0  0  0  0
  145.8328  140.8025  152.4297 H   0  0  0  0  0  0  0  0  0  0  0  0
  146.3403  139.1160  152.3890 H   0  0  0  0  0  0  0  0  0  0  0  0
  147.6894  139.3261  156.3334 H   0  0  0  0  0  0  0  0  0  0  0  0
  146.0784  139.5653  158.2243 H   0  0  0  0  0  0  0  0  0  0  0  0
  145.4264  138.5351  156.9543 H   0  0  0  0  0  0  0  0  0  0  0  0
  144.8616  140.1962  157.1151 H   0  0  0  0  0  0  0  0  0  0  0  0
  147.6880  141.5421  157.5587 H   0  0  0  0  0  0  0  0  0  0  0  0
  146.4542  142.1325  156.4758 H   0  0  0  0  0  0  0  0  0  0  0  0
  150.9902  144.3188  158.4165 H   0  0  0  0  0  0  0  0  0  0  0  0
  150.9853  145.8497  160.3990 H   0  0  0  0  0  0  0  0  0  0  0  0
  152.1387  145.1944  162.5015 H   0  0  0  0  0  0  0  0  0  0  0  0
  153.3255  142.9939  162.6677 H   0  0  0  0  0  0  0  0  0  0  0  0
  148.4270  142.9055  155.7075 H   0  0  0  0  0  0  0  0  0  0  0  0
  1  2  1  0  0  0  0
  1 25  1  0  0  0  0
  1 26  1  0  0  0  0
  1 27  1  0  0  0  0
  2  3  1  0  0  0  0
  2 28  1  0  0  0  0
  2 29  1  0  0  0  0
  3 24  1  0  0  0  0
  3  4  1  0  0  0  0
  4  5  2  0  0  0  0
  4  6  1  0  0  0  0
  6  7  1  0  0  0  0
  6 19  1  0  0  0  0
  7  8  1  0  0  0  0
  7 30  1  0  0  0  0
  7 31  1  0  0  0  0
  8  9  1  0  0  0  0
  8 10  1  0  0  0  0
  8 32  1  0  0  0  0
  9 33  1  0  0  0  0
 10 11  1  0  0  0  0
 10 34  1  0  0  0  0
 10 35  1  0  0  0  0
 11 18  1  0  0  0  0
 11 12  1  0  0  0  0
 11 52  1  0  0  0  0
 12 13  1  0  0  0  0
 12 36  1  0  0  0  0
 12 37  1  0  0  0  0
 13 14  1  0  0  0  0
 13 15  1  0  0  0  0
 13 38  1  0  0  0  0
 14 39  1  0  0  0  0
 14 40  1  0  0  0  0
 14 41  1  0  0  0  0
 15 16  1  0  0  0  0
 16 17  1  0  0  0  0
 16 18  1  0  0  0  0
 16 42  1  0  0  0  0
 17 43  1  0  0  0  0
 17 44  1  0  0  0  0
 17 45  1  0  0  0  0
 18 46  1  0  0  0  0
 18 47  1  0  0  0  0
 19 24  2  0  0  0  0
 19 20  1  0  0  0  0
 20 21  2  0  0  0  0
 20 48  1  0  0  0  0
 21 22  1  0  0  0  0
 21 49  1  0  0  0  0
 22 23  2  0  0  0  0
 22 50  1  0  0  0  0
 23 24  1  0  0  0  0
 23 51  1  0  0  0  0
M  CHG  1  11   1
M  END
> <s_m_source_file>
AV-unprocessed.smi

> <i_m_source_file_index>
1570

> <i_lp_mmshare_version>
43012

> <i_f3d_flags>
0

> <s_epik_input>
W2NIXTFbY0hdW2NIXVtjSF1jKGMxMiluKFtDSDJdW0NIM10pYyg9TyluMltDSDJdW0NASF0oW09IXSlbQ0gyXU4zW0NIMl1bQ0BASF0oW0NIM10pT1tDQEBIXShbQ0gzXSlbQ0gyXTM=

> <s_epik_cmdline>
J2VwaWtfcHl0aG9uJywgJy1waCcsICc3LjAnLCAnLXRuJywgJzgnLCAnLW1hJywgJzIwMCcsICctbWV0YWxfYmluZGluZycsICctaW1hZScsICc8aW5maWxlLm1hZT4nLCAnLW9tYWUnLCAnPG91dGZpbGUubWFlPic=

> <r_epik_Ionization_Penalty>
0.706332

> <r_epik_Ionization_Penalty_Charging>
0.706318

> <r_epik_Ionization_Penalty_Neutral>
1.42224e-05

> <r_epik_State_Penalty>
0.729493

> <r_epik_Charging_Adjusted_Penalty>
1.43581

> <i_epik_Tot_Q>
1

> <i_epik_Tot_abs_Q>
1

> <r_epik_Metal_State_Penalty>
0.729493

> <b_epik_Metal_Only>
0

> <s_lp_Force_Field>
OPLS_2005

> <r_lp_Energy>
54.3222

> <b_lp_Chiralities_Consistent>
1

> <s_lp_Variant>
AV-unprocessed.smi:1570-13

> <Gold.Version>
5.8.1

> <Gold.Id.Protein>
6NUR|6NUR_protein|mol2

> <Gold.PLP.Fitness>
54.3036

> <Gold.PLP.PLP>
-46.0318

> <Gold.PLP.part.hbond>
-2.0000

> <Gold.PLP.part.metal>
0.0000

> <Gold.PLP.part.buried>
-2.8355

> <Gold.PLP.part.nonpolar>
-40.7058

> <Gold.PLP.part.repulsive>
0.1871

> <Gold.PLP.ligand.clash>
0.0000

> <Gold.PLP.ligand.torsion>
0.4363

> <Gold.PLP.Chemscore.Hbond>
3.0000

> <Gold.PLP.Chemscore.CHOScore>
0.0000

> <Gold.PLP.Chemscore.Metal>
0.0000

> <Gold.Chemscore.Hbonds>
donor molecule, donor type, donor heavy atom, donor atom, acceptor molecule, acceptor atom, score
      L1  H    11    52       P1  8028  2.00
      P1  H  7997  8008       L1     5  1.00

> <Gold.PLP.Chemscore.Internal.Correction>
0.1444

> <Gold.Rescore>
     Score         DG    S(hbond)    S(metal)    S(lipo)     H(rot)  DE(clash)    DE(int)     intcor
     18.94     -21.77       1.93        0.00     130.79       2.13       1.74       1.10       ----

> <Gold.Chemscore.Fitness>
18.9358

> <Gold.Chemscore.DG>
-21.7699

> <Gold.Chemscore.ZeroCoef>
-5.4800

> <Gold.Chemscore.Hbond>
1.9285

> <Gold.Chemscore.Metal>
0.0000

> <Gold.Chemscore.Lipo>
130.7874

> <Gold.Chemscore.Internal_Hbond>
0.0000

> <Gold.Chemscore.DEClash>
1.7363

> <Gold.Chemscore.DEInternal>
1.0977

> <Gold.Chemscore.Rot>
2.1303

> <Gold.Chemscore.Internal.Correction>
   9.000000E+99

> <Gold.Chemscore.Hbonds>
donor molecule, donor type, donor heavy atom, donor atom, acceptor molecule, acceptor atom, score
      L1  H    11    52       P1  8028  0.99
      P1  H  7997  8008       L1     5  0.75

> <Gold.Chemscore.Hbond.Weighted>
-6.4413

> <Gold.Chemscore.Metal.Weighted>
-0.0000

> <Gold.Chemscore.Lipo.Weighted>
-15.3021

> <Gold.Chemscore.Internal_Hbond.Weighted>
0.0000

> <Gold.Chemscore.DEClash.Weighted>
1.7363

> <Gold.Chemscore.DEInternal.Weighted>
1.0977

> <Gold.Chemscore.Rot.Weighted>
5.4535

> <Gold.Chemscore.Internal.Correction.Weighted>
   9.000000E+99

> <Gold.Protein.RotatedTorsions>
[ 6907 6896 6895 6894 ] final   -2.13 input  -60.11 | X-H torsion
[ 7974 7965 7964 7962 ] final  -98.13 input  175.53 | X-H torsion
[ 8008 7997 7996 7995 ] final -101.18 input   59.86 | X-H torsion
[ 10167 10162 10161 10158 ] final   36.80 input  -65.29 | X-H torsion
[ 10718 10713 10712 10709 ] final  123.60 input   66.30 | X-H torsion
[ 10763 10752 10751 10750 ] final -167.83 input  -60.55 | X-H torsion
[ 11005 11000 10999 10996 ] final -148.50 input  -57.11 | X-H torsion

> <Gold.Protein.ActiveResidues>
 VAL166  LYS551  ARG553  GLY616  TRP617  ASP618  TYR619  PRO620  LYS621  CYS622 
 ASP623  PHE694  ASN695  SER759  ASP760  ASP761  ALA762  ILE779  LEU786  VAL792 
 PHE793  MET794  SER795  GLU796  ALA797  LYS798  CYS799  TRP800  GLU811  SER814 

> <Gold.Protein.RotatedAtoms>
  151.5349  135.1068  159.9911 H   0  0  0  0  0  0  0  0  0  0  0  0  # atno 6907 bound_to 6896
  152.4562  133.7723  159.6816 H   0  0  0  0  0  0  0  0  0  0  0  0  # atno 6908 bound_to 6896
  150.8506  133.7727  159.3051 H   0  0  0  0  0  0  0  0  0  0  0  0  # atno 6909 bound_to 6896
  145.3247  140.9429  143.2696 H   0  0  0  0  0  0  0  0  0  0  0  0  # atno 7974 bound_to 7965
  154.8390  140.0436  157.1528 H   0  0  0  0  0  0  0  0  0  0  0  0  # atno 8008 bound_to 7997
  154.9068  140.3008  155.5267 H   0  0  0  0  0  0  0  0  0  0  0  0  # atno 8009 bound_to 7997
  156.2991  140.2365  156.4103 H   0  0  0  0  0  0  0  0  0  0  0  0  # atno 8010 bound_to 7997
  140.4093  144.1615  150.6138 H   0  0  0  0  0  0  0  0  0  0  0  0  # atno 10167 bound_to 10162
  157.5652  131.1087  150.8467 H   0  0  0  0  0  0  0  0  0  0  0  0  # atno 10718 bound_to 10713
  154.6691  135.2936  154.9766 H   0  0  0  0  0  0  0  0  0  0  0  0  # atno 10763 bound_to 10752
  154.0799  135.6606  153.4840 H   0  0  0  0  0  0  0  0  0  0  0  0  # atno 10764 bound_to 10752
  153.0476  135.5195  154.7678 H   0  0  0  0  0  0  0  0  0  0  0  0  # atno 10765 bound_to 10752
  140.7606  134.3303  157.5102 H   0  0  0  0  0  0  0  0  0  0  0  0  # atno 11005 bound_to 11000
  144.8911  139.4773  143.6677 LP  0  0  0  0  0  0  0  0  0  0  0  0  # atno 17320 bound_to 7965
  146.3069  139.7610  142.9049 LP  0  0  0  0  0  0  0  0  0  0  0  0  # atno 17321 bound_to 7965
  140.4655  143.2432  151.9161 LP  0  0  0  0  0  0  0  0  0  0  0  0  # atno 17342 bound_to 10162
  139.4783  144.5424  151.8509 LP  0  0  0  0  0  0  0  0  0  0  0  0  # atno 17343 bound_to 10162
  156.8954  130.5227  149.5284 LP  0  0  0  0  0  0  0  0  0  0  0  0  # atno 17370 bound_to 10713
  156.0701  130.5736  150.9366 LP  0  0  0  0  0  0  0  0  0  0  0  0  # atno 17371 bound_to 10713
  139.8771  134.9199  156.3239 LP  0  0  0  0  0  0  0  0  0  0  0  0  # atno 17394 bound_to 11000
  140.9667  133.7354  156.0476 LP  0  0  0  0  0  0  0  0  0  0  0  0  # atno 17395 bound_to 11000

$$$$
