AV-unprocessed.smi:221|AV-procd|sdf|1692|dock9
  -GOLD-   2262020133D 1   1.00000     0.00000
 Structure written by MMmdl.
 50 53  0  0  0  0  0  0  0  0  1 V2000
  147.2736  133.2003  158.6008 N   0  0  0  0  0  0  0  0  0  0  0  0
  148.3736  133.7946  159.0732 C   0  0  0  0  0  0  0  0  0  0  0  0
  149.4415  133.7529  158.4652 O   0  0  0  0  0  0  0  0  0  0  0  0
  148.2604  134.5493  160.4145 C   0  0  2  0  0  0  0  0  0  0  0  0
  146.8956  134.4525  161.1092 C   0  0  0  0  0  0  0  0  0  0  0  0
  146.9642  135.5631  162.1598 C   0  0  2  0  0  0  0  0  0  0  0  0
  145.7976  136.2006  162.2581 F   0  0  0  0  0  0  0  0  0  0  0  0
  148.0909  136.5002  161.6912 C   0  0  0  0  0  0  0  0  0  0  0  0
  148.5793  135.9840  160.4138 N   0  0  0  0  0  0  0  0  0  0  0  0
  148.1895  136.7484  159.3612 C   0  0  0  0  0  0  0  0  0  0  0  0
  147.0361  136.4820  158.6921 N   0  0  0  0  0  0  0  0  0  0  0  0
  146.6685  137.2477  157.6603 C   0  0  0  0  0  0  0  0  0  0  0  0
  147.2912  138.3111  157.1461 N   0  0  0  0  0  0  0  0  0  0  0  0
  148.4452  138.5816  157.8206 C   0  0  0  0  0  0  0  0  0  0  0  0
  148.9626  137.8574  158.9300 C   0  0  0  0  0  0  0  0  0  0  0  0
  150.1590  138.4210  159.3542 N   0  0  0  0  0  0  0  0  0  0  0  0
  150.3383  139.4271  158.5417 C   0  0  0  0  0  0  0  0  0  0  0  0
  149.3541  139.5988  157.5939 N   0  0  0  0  0  0  0  0  0  0  0  0
  149.2977  140.6303  156.5735 C   0  0  0  0  0  0  0  0  0  0  0  0
  149.2391  140.0662  155.1318 C   0  0  1  0  0  0  0  0  0  0  0  0
  148.6083  141.0575  154.1242 C   0  0  0  0  0  0  0  0  0  0  0  0
  148.0688  140.3840  153.0055 O   0  0  0  0  0  0  0  0  0  0  0  0
  150.6275  139.5554  154.6709 C   0  0  2  0  0  0  0  0  0  0  0  0
  151.0056  138.1731  155.1726 C   0  0  0  0  0  0  0  0  0  0  0  0
  152.5168  138.1625  154.9736 C   0  0  0  0  0  0  0  0  0  0  0  0
  152.9396  139.5041  155.1867 O   0  0  0  0  0  0  0  0  0  0  0  0
  151.8121  140.3745  155.1950 C   0  0  0  0  0  0  0  0  0  0  0  0
  148.9992  134.0833  161.0687 H   0  0  0  0  0  0  0  0  0  0  0  0
  147.1927  135.1566  163.1454 H   0  0  0  0  0  0  0  0  0  0  0  0
  147.3123  132.6965  157.7267 H   0  0  0  0  0  0  0  0  0  0  0  0
  146.4089  133.2556  159.1195 H   0  0  0  0  0  0  0  0  0  0  0  0
  146.0845  134.6432  160.4049 H   0  0  0  0  0  0  0  0  0  0  0  0
  146.7213  133.4730  161.5554 H   0  0  0  0  0  0  0  0  0  0  0  0
  147.7514  137.5368  161.6313 H   0  0  0  0  0  0  0  0  0  0  0  0
  148.9158  136.4830  162.4043 H   0  0  0  0  0  0  0  0  0  0  0  0
  145.7428  136.9691  157.1788 H   0  0  0  0  0  0  0  0  0  0  0  0
  151.1952  140.0812  158.6161 H   0  0  0  0  0  0  0  0  0  0  0  0
  148.4267  141.2579  156.7671 H   0  0  0  0  0  0  0  0  0  0  0  0
  150.1714  141.2698  156.7006 H   0  0  0  0  0  0  0  0  0  0  0  0
  148.5744  139.2014  155.1586 H   0  0  0  0  0  0  0  0  0  0  0  0
  147.8183  141.6414  154.5957 H   0  0  0  0  0  0  0  0  0  0  0  0
  149.3439  141.7826  153.7757 H   0  0  0  0  0  0  0  0  0  0  0  0
  148.7706  140.1990  152.3999 H   0  0  0  0  0  0  0  0  0  0  0  0
  150.6702  139.5475  153.5802 H   0  0  0  0  0  0  0  0  0  0  0  0
  150.7667  138.0716  156.2323 H   0  0  0  0  0  0  0  0  0  0  0  0
  150.5106  137.3668  154.6305 H   0  0  0  0  0  0  0  0  0  0  0  0
  153.0227  137.4713  155.6478 H   0  0  0  0  0  0  0  0  0  0  0  0
  152.7630  137.8794  153.9494 H   0  0  0  0  0  0  0  0  0  0  0  0
  152.0014  141.2644  154.5945 H   0  0  0  0  0  0  0  0  0  0  0  0
  151.6380  140.6937  156.2237 H   0  0  0  0  0  0  0  0  0  0  0  0
  1  2  1  0  0  0  0
  1 30  1  0  0  0  0
  1 31  1  0  0  0  0
  2  3  2  0  0  0  0
  2  4  1  0  0  0  0
  4 28  1  0  0  0  0
  4  9  1  0  0  0  0
  4  5  1  0  0  0  0
  5  6  1  0  0  0  0
  5 32  1  0  0  0  0
  5 33  1  0  0  0  0
  6 29  1  0  0  0  0
  6  7  1  0  0  0  0
  6  8  1  0  0  0  0
  8  9  1  0  0  0  0
  8 34  1  0  0  0  0
  8 35  1  0  0  0  0
  9 10  1  0  0  0  0
 10 15  1  0  0  0  0
 10 11  2  0  0  0  0
 11 12  1  0  0  0  0
 12 13  2  0  0  0  0
 12 36  1  0  0  0  0
 13 14  1  0  0  0  0
 14 18  1  0  0  0  0
 14 15  2  0  0  0  0
 15 16  1  0  0  0  0
 16 17  2  0  0  0  0
 17 18  1  0  0  0  0
 17 37  1  0  0  0  0
 18 19  1  0  0  0  0
 19 20  1  0  0  0  0
 19 38  1  0  0  0  0
 19 39  1  0  0  0  0
 20 21  1  0  0  0  0
 20 23  1  0  0  0  0
 20 40  1  0  0  0  0
 21 22  1  0  0  0  0
 21 41  1  0  0  0  0
 21 42  1  0  0  0  0
 22 43  1  0  0  0  0
 23 27  1  0  0  0  0
 23 24  1  0  0  0  0
 23 44  1  0  0  0  0
 24 25  1  0  0  0  0
 24 45  1  0  0  0  0
 24 46  1  0  0  0  0
 25 26  1  0  0  0  0
 25 47  1  0  0  0  0
 25 48  1  0  0  0  0
 26 27  1  0  0  0  0
 27 49  1  0  0  0  0
 27 50  1  0  0  0  0
M  END
> <s_m_source_file>
AV-unprocessed.smi

> <i_m_source_file_index>
221

> <i_lp_mmshare_version>
43012

> <i_f3d_flags>
0

> <s_epik_input>
W05IMl1DKD1PKVtDQEBIXTFbQ0gyXVtDQEBIXShGKVtDSDJdTjFjKG5bY0hdbjIpYyhjMjMpbltjSF1uM1tDSDJdW0NASF0oW0NIMl1bT0hdKVtDQEBIXTRbQ0gyXVtDSDJdT1tDSDJdNA==

> <s_epik_cmdline>
J2VwaWtfcHl0aG9uJywgJy1waCcsICc3LjAnLCAnLXRuJywgJzgnLCAnLW1hJywgJzIwMCcsICctbWV0YWxfYmluZGluZycsICctaW1hZScsICc8aW5maWxlLm1hZT4nLCAnLW9tYWUnLCAnPG91dGZpbGUubWFlPic=

> <r_lp_tautomer_probability>
1

> <r_epik_Ionization_Penalty>
0.000818822

> <r_epik_Ionization_Penalty_Charging>
0

> <r_epik_Ionization_Penalty_Neutral>
0.000818822

> <r_epik_State_Penalty>
0.000440551

> <r_epik_Charging_Adjusted_Penalty>
0.000440551

> <i_epik_Tot_Q>
0

> <i_epik_Tot_abs_Q>
0

> <r_epik_Metal_State_Penalty>
-0

> <b_epik_Metal_Only>
0

> <s_lp_Force_Field>
OPLS_2005

> <r_lp_Energy>
53.4739

> <b_lp_Chiralities_Consistent>
1

> <s_lp_Variant>
AV-unprocessed.smi:221-7

> <Gold.Version>
5.8.1

> <Gold.Id.Protein>
6NUR|6NUR_protein|mol2

> <Gold.PLP.Fitness>
40.2005

> <Gold.PLP.PLP>
-34.5562

> <Gold.PLP.part.hbond>
-3.9845

> <Gold.PLP.part.metal>
0.0000

> <Gold.PLP.part.buried>
-2.2294

> <Gold.PLP.part.nonpolar>
-28.8295

> <Gold.PLP.part.repulsive>
0.0000

> <Gold.PLP.ligand.clash>
0.0000

> <Gold.PLP.ligand.torsion>
1.7626

> <Gold.PLP.Chemscore.Hbond>
3.0000

> <Gold.PLP.Chemscore.CHOScore>
0.0000

> <Gold.PLP.Chemscore.Metal>
0.0000

> <Gold.Chemscore.Hbonds>
donor molecule, donor type, donor heavy atom, donor atom, acceptor molecule, acceptor atom, score
      L1  H    22    43       P1  7957  0.93
      P1  H  6896  6909       L1     3  1.00
      P1  H  7997  8009       L1    26  1.00

> <Gold.PLP.Chemscore.Internal.Correction>
0.1696

> <Gold.Rescore>
     Score         DG    S(hbond)    S(metal)    S(lipo)     H(rot)  DE(clash)    DE(int)     intcor
     11.22     -14.78       2.97        0.00      76.02       3.72       0.86       2.70       ----

> <Gold.Chemscore.Fitness>
11.2206

> <Gold.Chemscore.DG>
-14.7802

> <Gold.Chemscore.ZeroCoef>
-5.4800

> <Gold.Chemscore.Hbond>
2.9730

> <Gold.Chemscore.Metal>
0.0000

> <Gold.Chemscore.Lipo>
76.0168

> <Gold.Chemscore.Internal_Hbond>
0.0000

> <Gold.Chemscore.DEClash>
0.8606

> <Gold.Chemscore.DEInternal>
2.6991

> <Gold.Chemscore.Rot>
3.7202

> <Gold.Chemscore.Internal.Correction>
   9.000000E+99

> <Gold.Chemscore.Hbonds>
donor molecule, donor type, donor heavy atom, donor atom, acceptor molecule, acceptor atom, score
      L1  H    22    43       P1  7957  0.88
      P1  H  6896  6909       L1     3  0.88
      P1  H  7997  8009       L1    26  0.88

> <Gold.Chemscore.Hbond.Weighted>
-9.9299

> <Gold.Chemscore.Metal.Weighted>
-0.0000

> <Gold.Chemscore.Lipo.Weighted>
-8.8940

> <Gold.Chemscore.Internal_Hbond.Weighted>
0.0000

> <Gold.Chemscore.DEClash.Weighted>
0.8606

> <Gold.Chemscore.DEInternal.Weighted>
2.6991

> <Gold.Chemscore.Rot.Weighted>
9.5237

> <Gold.Chemscore.Internal.Correction.Weighted>
   9.000000E+99

> <Gold.Protein.RotatedTorsions>
[ 6907 6896 6895 6894 ] final    5.57 input  -60.11 | X-H torsion
[ 7974 7965 7964 7962 ] final   31.71 input  175.53 | X-H torsion
[ 8008 7997 7996 7995 ] final -143.13 input   59.86 | X-H torsion
[ 10167 10162 10161 10158 ] final   59.55 input  -65.29 | X-H torsion
[ 10718 10713 10712 10709 ] final   83.31 input   66.30 | X-H torsion
[ 10763 10752 10751 10750 ] final   87.93 input  -60.55 | X-H torsion
[ 11005 11000 10999 10996 ] final   79.10 input  -57.11 | X-H torsion

> <Gold.Protein.ActiveResidues>
 VAL166  LYS551  ARG553  GLY616  TRP617  ASP618  TYR619  PRO620  LYS621  CYS622 
 ASP623  PHE694  ASN695  SER759  ASP760  ASP761  ALA762  ILE779  LEU786  VAL792 
 PHE793  MET794  SER795  GLU796  ALA797  LYS798  CYS799  TRP800  GLU811  SER814 

> <Gold.Protein.RotatedAtoms>
  151.6596  135.0991  160.0176 H   0  0  0  0  0  0  0  0  0  0  0  0  # atno 6907 bound_to 6896
  152.3954  133.6735  159.6280 H   0  0  0  0  0  0  0  0  0  0  0  0  # atno 6908 bound_to 6896
  150.7862  133.8799  159.3324 H   0  0  0  0  0  0  0  0  0  0  0  0  # atno 6909 bound_to 6896
  146.1533  139.6621  142.9084 H   0  0  0  0  0  0  0  0  0  0  0  0  # atno 7974 bound_to 7965
  155.5056  140.0579  157.2932 H   0  0  0  0  0  0  0  0  0  0  0  0  # atno 8008 bound_to 7997
  154.4571  140.1978  156.0299 H   0  0  0  0  0  0  0  0  0  0  0  0  # atno 8009 bound_to 7997
  156.0819  140.3246  155.7709 H   0  0  0  0  0  0  0  0  0  0  0  0  # atno 8010 bound_to 7997
  140.1752  144.4237  150.6642 H   0  0  0  0  0  0  0  0  0  0  0  0  # atno 10167 bound_to 10162
  157.6876  131.0085  150.2504 H   0  0  0  0  0  0  0  0  0  0  0  0  # atno 10718 bound_to 10713
  153.1717  135.4525  154.9911 H   0  0  0  0  0  0  0  0  0  0  0  0  # atno 10763 bound_to 10752
  154.7970  135.3241  154.7644 H   0  0  0  0  0  0  0  0  0  0  0  0  # atno 10764 bound_to 10752
  153.8120  135.6954  153.4894 H   0  0  0  0  0  0  0  0  0  0  0  0  # atno 10765 bound_to 10752
  139.9186  134.7816  156.1735 H   0  0  0  0  0  0  0  0  0  0  0  0  # atno 11005 bound_to 11000
  145.4770  141.0437  143.2667 LP  0  0  0  0  0  0  0  0  0  0  0  0  # atno 17320 bound_to 7965
  144.7931  139.6288  143.7104 LP  0  0  0  0  0  0  0  0  0  0  0  0  # atno 17321 bound_to 7965
  140.6556  143.2237  151.5976 LP  0  0  0  0  0  0  0  0  0  0  0  0  # atno 17342 bound_to 10162
  139.5320  144.2888  152.1169 LP  0  0  0  0  0  0  0  0  0  0  0  0  # atno 17343 bound_to 10162
  156.3102  130.3771  149.7669 LP  0  0  0  0  0  0  0  0  0  0  0  0  # atno 17370 bound_to 10713
  156.5272  130.8241  151.3224 LP  0  0  0  0  0  0  0  0  0  0  0  0  # atno 17371 bound_to 10713
  141.0685  133.6807  156.2094 LP  0  0  0  0  0  0  0  0  0  0  0  0  # atno 17394 bound_to 11000
  140.6545  134.5032  157.5579 LP  0  0  0  0  0  0  0  0  0  0  0  0  # atno 17395 bound_to 11000

$$$$
