AV-unprocessed.smi:1395|AV-procd|sdf|5672|dock1
  -GOLD-   22720 5293D 1   1.00000     0.00000
 Structure written by MMmdl.
 42 43  0  0  0  0  0  0  0  0  3 V2000
  150.3939  145.1583  158.8502 C   0  0  0  0  0  0  0  0  0  0  0  0
  151.3533  144.0226  159.1673 C   0  0  0  0  0  0  0  0  0  0  0  0
  152.2868  144.1793  160.2139 C   0  0  0  0  0  0  0  0  0  0  0  0
  153.1716  143.1276  160.5074 C   0  0  0  0  0  0  0  0  0  0  0  0
  153.0847  141.9557  159.7366 C   0  0  0  0  0  0  0  0  0  0  0  0
  152.1962  141.7975  158.7345 N   0  0  0  0  0  0  0  0  0  0  0  0
  151.3353  142.8033  158.4380 C   0  0  0  0  0  0  0  0  0  0  0  0
  150.3680  142.7036  157.3982 N   0  0  0  0  0  0  0  0  0  0  0  0
  149.8074  141.5957  156.8816 C   0  0  0  0  0  0  0  0  0  0  0  0
  150.0716  140.4396  157.2136 O   0  0  0  0  0  0  0  0  0  0  0  0
  148.9035  141.9034  155.9397 N   0  0  0  0  0  0  0  0  0  0  0  0
  148.1037  140.9343  155.1962 C   0  0  2  0  0  0  0  0  0  0  0  0
  149.0257  139.9084  154.5171 C   0  0  0  0  0  0  0  0  0  0  0  0
  148.2237  138.9279  153.6450 C   0  0  0  0  0  0  0  0  0  0  0  0
  147.4148  139.6527  152.6332 N   0  3  1  0  0  0  0  0  0  0  0  0
  146.7514  138.7356  151.6713 C   0  0  0  0  0  0  0  0  0  0  0  0
  145.8894  137.7023  152.4060 C   0  0  0  0  0  0  0  0  0  0  0  0
  144.5784  137.8250  152.1144 N   0  5  0  0  0  0  0  0  0  0  0  0
  146.4227  136.8903  153.1583 O   0  0  0  0  0  0  0  0  0  0  0  0
  146.4796  140.6183  153.2691 C   0  0  0  0  0  0  0  0  0  0  0  0
  147.2417  141.6374  154.1310 C   0  0  0  0  0  0  0  0  0  0  0  0
  150.5735  146.0211  159.4925 H   0  0  0  0  0  0  0  0  0  0  0  0
  149.3622  144.8378  158.9997 H   0  0  0  0  0  0  0  0  0  0  0  0
  150.5110  145.4815  157.8153 H   0  0  0  0  0  0  0  0  0  0  0  0
  152.3265  145.0932  160.7882 H   0  0  0  0  0  0  0  0  0  0  0  0
  153.8971  143.2166  161.3023 H   0  0  0  0  0  0  0  0  0  0  0  0
  153.7452  141.1232  159.9284 H   0  0  0  0  0  0  0  0  0  0  0  0
  150.0593  143.5830  157.0117 H   0  0  0  0  0  0  0  0  0  0  0  0
  148.7501  142.8786  155.7278 H   0  0  0  0  0  0  0  0  0  0  0  0
  147.4509  140.4022  155.8911 H   0  0  0  0  0  0  0  0  0  0  0  0
  149.7606  140.4232  153.8960 H   0  0  0  0  0  0  0  0  0  0  0  0
  149.5900  139.3551  155.2688 H   0  0  0  0  0  0  0  0  0  0  0  0
  148.9145  138.2478  153.1453 H   0  0  0  0  0  0  0  0  0  0  0  0
  147.5677  138.3165  154.2666 H   0  0  0  0  0  0  0  0  0  0  0  0
  146.0982  139.2961  151.0004 H   0  0  0  0  0  0  0  0  0  0  0  0
  147.4944  138.2420  151.0425 H   0  0  0  0  0  0  0  0  0  0  0  0
  144.0802  138.6651  152.4327 H   0  0  0  0  0  0  0  0  0  0  0  0
  145.9119  141.1531  152.5072 H   0  0  0  0  0  0  0  0  0  0  0  0
  145.7550  140.0771  153.8795 H   0  0  0  0  0  0  0  0  0  0  0  0
  146.5309  142.3153  154.6051 H   0  0  0  0  0  0  0  0  0  0  0  0
  147.8735  142.2528  153.4884 H   0  0  0  0  0  0  0  0  0  0  0  0
  148.0646  140.1925  152.0780 H   0  0  0  0  0  0  0  0  0  0  0  0
  1  2  1  0  0  0  0
  1 22  1  0  0  0  0
  1 23  1  0  0  0  0
  1 24  1  0  0  0  0
  2  7  1  0  0  0  0
  2  3  2  0  0  0  0
  3  4  1  0  0  0  0
  3 25  1  0  0  0  0
  4  5  2  0  0  0  0
  4 26  1  0  0  0  0
  5  6  1  0  0  0  0
  5 27  1  0  0  0  0
  6  7  2  0  0  0  0
  7  8  1  0  0  0  0
  8  9  1  0  0  0  0
  8 28  1  0  0  0  0
  9 10  2  0  0  0  0
  9 11  1  0  0  0  0
 11 12  1  0  0  0  0
 11 29  1  0  0  0  0
 12 21  1  0  0  0  0
 12 13  1  0  0  0  0
 12 30  1  0  0  0  0
 13 14  1  0  0  0  0
 13 31  1  0  0  0  0
 13 32  1  0  0  0  0
 14 15  1  0  0  0  0
 14 33  1  0  0  0  0
 14 34  1  0  0  0  0
 15 16  1  0  0  0  0
 15 20  1  0  0  0  0
 15 42  1  0  0  0  0
 16 17  1  0  0  0  0
 16 35  1  0  0  0  0
 16 36  1  0  0  0  0
 17 18  1  0  0  0  0
 17 19  2  0  0  0  0
 18 37  1  0  0  0  0
 20 21  1  0  0  0  0
 20 38  1  0  0  0  0
 20 39  1  0  0  0  0
 21 40  1  0  0  0  0
 21 41  1  0  0  0  0
M  CHG  1  15   1
M  CHG  1  18  -1
M  END
> <s_m_source_file>
AV-unprocessed.smi

> <i_m_source_file_index>
1395

> <i_lp_mmshare_version>
43012

> <i_f3d_flags>
0

> <s_epik_input>
W0NIM11jMVtjSF1bY0hdW2NIXW5jMVtOSF1DKD1PKVtOSF1bQ0hdMltDSDJdW0NIMl1OKFtDSDJdW0NIMl0yKVtDSDJdQyg9TylbTkgyXQ==

> <s_epik_cmdline>
J2VwaWtfcHl0aG9uJywgJy1waCcsICc3LjAnLCAnLXRuJywgJzgnLCAnLW1hJywgJzIwMCcsICctbWV0YWxfYmluZGluZycsICctaW1hZScsICc8aW5maWxlLm1hZT4nLCAnLW9tYWUnLCAnPG91dGZpbGUubWFlPic=

> <r_epik_Ionization_Penalty>
5.72885

> <r_epik_Ionization_Penalty_Charging>
5.7288

> <r_epik_Ionization_Penalty_Neutral>
4.54304e-05

> <r_epik_State_Penalty>
6.54882

> <r_epik_Charging_Adjusted_Penalty>
12.2776

> <i_epik_Tot_Q>
0

> <i_epik_Tot_abs_Q>
2

> <r_epik_Metal_State_Penalty>
2.51297

> <b_epik_Metal_Only>
1

> <s_lp_Force_Field>
OPLS_2005

> <r_lp_Energy>
9.01588

> <b_lp_Chiralities_Consistent>
1

> <s_lp_Variant>
AV-unprocessed.smi:1395-4

> <Gold.Version>
5.8.1

> <Gold.Id.Protein>
6NUR|6NUR_protein|mol2

> <Gold.PLP.Fitness>
50.3687

> <Gold.PLP.PLP>
-39.1878

> <Gold.PLP.part.hbond>
-4.6477

> <Gold.PLP.part.metal>
0.0000

> <Gold.PLP.part.buried>
-1.2888

> <Gold.PLP.part.nonpolar>
-34.9168

> <Gold.PLP.part.repulsive>
0.7736

> <Gold.PLP.ligand.clash>
0.0000

> <Gold.PLP.ligand.torsion>
0.2157

> <Gold.PLP.Chemscore.Hbond>
3.8627

> <Gold.PLP.Chemscore.CHOScore>
0.0000

> <Gold.PLP.Chemscore.Metal>
0.0000

> <Gold.Chemscore.Hbonds>
donor molecule, donor type, donor heavy atom, donor atom, acceptor molecule, acceptor atom, score
      L1  H     8    28       P1  8028  0.80
      L1  H    11    29       P1  8028  1.00
      L1  H    15    42       P1  7957  0.85
      L1  H    18    37       P1 10175  1.00

> <Gold.PLP.Chemscore.Internal.Correction>
0.0242

> <Gold.Rescore>
     Score         DG    S(hbond)    S(metal)    S(lipo)     H(rot)  DE(clash)    DE(int)     intcor
     20.70     -24.19       3.85        0.00      92.34       1.93       0.40       3.09       ----

> <Gold.Chemscore.Fitness>
20.7017

> <Gold.Chemscore.DG>
-24.1934

> <Gold.Chemscore.ZeroCoef>
-5.4800

> <Gold.Chemscore.Hbond>
3.8504

> <Gold.Chemscore.Metal>
0.0000

> <Gold.Chemscore.Lipo>
92.3437

> <Gold.Chemscore.Internal_Hbond>
0.0000

> <Gold.Chemscore.DEClash>
0.4040

> <Gold.Chemscore.DEInternal>
3.0877

> <Gold.Chemscore.Rot>
1.9341

> <Gold.Chemscore.Internal.Correction>
   9.000000E+99

> <Gold.Chemscore.Hbonds>
donor molecule, donor type, donor heavy atom, donor atom, acceptor molecule, acceptor atom, score
      L1  H     8    28       P1  8028  0.76
      L1  H    11    29       P1  8028  1.00
      L1  H    15    42       P1  7957  0.83
      L1  H    18    37       P1 10175  0.99

> <Gold.Chemscore.Hbond.Weighted>
-12.8604

> <Gold.Chemscore.Metal.Weighted>
-0.0000

> <Gold.Chemscore.Lipo.Weighted>
-10.8042

> <Gold.Chemscore.Internal_Hbond.Weighted>
0.0000

> <Gold.Chemscore.DEClash.Weighted>
0.4040

> <Gold.Chemscore.DEInternal.Weighted>
3.0877

> <Gold.Chemscore.Rot.Weighted>
4.9512

> <Gold.Chemscore.Internal.Correction.Weighted>
   9.000000E+99

> <Gold.Protein.RotatedTorsions>
[ 6907 6896 6895 6894 ] final -161.31 input  -60.11 | X-H torsion
[ 7974 7965 7964 7962 ] final   90.27 input  175.53 | X-H torsion
[ 8008 7997 7996 7995 ] final  -68.76 input   59.86 | X-H torsion
[ 10167 10162 10161 10158 ] final -164.09 input  -65.29 | X-H torsion
[ 10718 10713 10712 10709 ] final  -11.34 input   66.30 | X-H torsion
[ 10763 10752 10751 10750 ] final -147.33 input  -60.55 | X-H torsion
[ 11005 11000 10999 10996 ] final  -79.65 input  -57.11 | X-H torsion

> <Gold.Protein.ActiveResidues>
 VAL166  LYS551  ARG553  GLY616  TRP617  ASP618  TYR619  PRO620  LYS621  CYS622 
 ASP623  PHE694  ASN695  SER759  ASP760  ASP761  ALA762  ILE779  LEU786  VAL792 
 PHE793  MET794  SER795  GLU796  ALA797  LYS798  CYS799  TRP800  GLU811  SER814 

> <Gold.Protein.RotatedAtoms>
  151.3627  133.3883  159.2691 H   0  0  0  0  0  0  0  0  0  0  0  0  # atno 6907 bound_to 6896
  150.9713  134.9086  159.7800 H   0  0  0  0  0  0  0  0  0  0  0  0  # atno 6908 bound_to 6896
  152.5185  134.3589  159.9330 H   0  0  0  0  0  0  0  0  0  0  0  0  # atno 6909 bound_to 6896
  145.5212  139.2279  143.2671 H   0  0  0  0  0  0  0  0  0  0  0  0  # atno 7974 bound_to 7965
  154.4890  140.0866  156.7552 H   0  0  0  0  0  0  0  0  0  0  0  0  # atno 8008 bound_to 7997
  155.4277  140.3448  155.4259 H   0  0  0  0  0  0  0  0  0  0  0  0  # atno 8009 bound_to 7997
  156.1303  140.1499  156.9063 H   0  0  0  0  0  0  0  0  0  0  0  0  # atno 8010 bound_to 7997
  139.6275  144.0504  152.1987 H   0  0  0  0  0  0  0  0  0  0  0  0  # atno 10167 bound_to 10162
  156.6605  130.4980  149.6032 H   0  0  0  0  0  0  0  0  0  0  0  0  # atno 10718 bound_to 10713
  154.8291  135.3363  154.6801 H   0  0  0  0  0  0  0  0  0  0  0  0  # atno 10763 bound_to 10752
  153.7423  135.6945  153.4969 H   0  0  0  0  0  0  0  0  0  0  0  0  # atno 10764 bound_to 10752
  153.2235  135.4440  155.0467 H   0  0  0  0  0  0  0  0  0  0  0  0  # atno 10765 bound_to 10752
  141.1667  133.7115  156.8154 H   0  0  0  0  0  0  0  0  0  0  0  0  # atno 11005 bound_to 11000
  146.2105  140.6024  142.9062 LP  0  0  0  0  0  0  0  0  0  0  0  0  # atno 17320 bound_to 7965
  144.7675  140.5563  143.6693 LP  0  0  0  0  0  0  0  0  0  0  0  0  # atno 17321 bound_to 7965
  140.0161  144.6188  150.7606 LP  0  0  0  0  0  0  0  0  0  0  0  0  # atno 17342 bound_to 10162
  140.7419  143.2825  151.3557 LP  0  0  0  0  0  0  0  0  0  0  0  0  # atno 17343 bound_to 10162
  156.2015  130.6622  151.1172 LP  0  0  0  0  0  0  0  0  0  0  0  0  # atno 17370 bound_to 10713
  157.7111  131.0733  150.6496 LP  0  0  0  0  0  0  0  0  0  0  0  0  # atno 17371 bound_to 10713
  140.2157  134.8794  157.3323 LP  0  0  0  0  0  0  0  0  0  0  0  0  # atno 17394 bound_to 11000
  140.2040  134.4220  155.7647 LP  0  0  0  0  0  0  0  0  0  0  0  0  # atno 17395 bound_to 11000

$$$$
