AV-unprocessed.smi:673|AV-procd|sdf|3297|dock8
  -GOLD-   22720 0253D 1   1.00000     0.00000
 Structure written by MMmdl.
 45 46  0  0  0  0  0  0  0  0  1 V2000
  147.9527  138.7114  158.1007 C   0  0  0  0  0  0  0  0  0  0  0  0
  148.9414  137.5368  158.1744 C   0  0  2  0  0  0  0  0  0  0  0  0
  149.4052  137.1035  156.7705 C   0  0  0  0  0  0  0  0  0  0  0  0
  149.6209  138.2356  155.8869 N   0  0  0  0  0  0  0  0  0  0  0  0
  150.6492  139.0800  155.7938 C   0  0  0  0  0  0  0  0  0  0  0  0
  150.5035  139.9980  154.8483 N   0  0  0  0  0  0  0  0  0  0  0  0
  149.2781  139.6355  154.3646 C   0  0  0  0  0  0  0  0  0  0  0  0
  148.7051  138.5855  154.9528 N   0  0  0  0  0  0  0  0  0  0  0  0
  148.3294  136.4050  158.8652 N   0  0  0  0  0  0  0  0  0  0  0  0
  148.1158  136.3088  160.1885 C   0  0  0  0  0  0  0  0  0  0  0  0
  148.3737  137.2288  160.9661 O   0  0  0  0  0  0  0  0  0  0  0  0
  147.5638  135.1331  160.5820 N   0  0  0  0  0  0  0  0  0  0  0  0
  146.8032  134.2234  159.7145 C   0  0  0  0  0  0  0  0  0  0  0  0
  145.3101  134.6014  159.6444 C   0  0  0  0  0  0  0  0  0  0  0  0
  144.7228  135.3861  160.8443 C   0  0  0  0  0  0  0  0  0  0  0  0
  144.9995  134.8582  162.2822 C   0  0  0  0  0  0  0  0  0  0  0  0
  143.9980  135.5566  163.2266 C   0  0  0  0  0  0  0  0  0  0  0  0
  144.7474  133.3391  162.3919 C   0  0  0  0  0  0  0  0  0  0  0  0
  146.4245  135.2378  162.7822 C   0  0  0  0  0  0  0  0  0  0  0  0
  147.6180  134.6870  161.9784 C   0  0  0  0  0  0  0  0  0  0  0  0
  148.3963  139.5645  157.5871 H   0  0  0  0  0  0  0  0  0  0  0  0
  147.6591  139.0467  159.0959 H   0  0  0  0  0  0  0  0  0  0  0  0
  147.0456  138.4337  157.5625 H   0  0  0  0  0  0  0  0  0  0  0  0
  149.8193  137.8619  158.7359 H   0  0  0  0  0  0  0  0  0  0  0  0
  150.3249  136.5189  156.8326 H   0  0  0  0  0  0  0  0  0  0  0  0
  148.6564  136.4573  156.3106 H   0  0  0  0  0  0  0  0  0  0  0  0
  151.5229  139.0187  156.4260 H   0  0  0  0  0  0  0  0  0  0  0  0
  148.7937  140.1607  153.5545 H   0  0  0  0  0  0  0  0  0  0  0  0
  148.0742  135.6124  158.2935 H   0  0  0  0  0  0  0  0  0  0  0  0
  147.2279  134.1787  158.7101 H   0  0  0  0  0  0  0  0  0  0  0  0
  146.8955  133.1990  160.0745 H   0  0  0  0  0  0  0  0  0  0  0  0
  145.1512  135.2055  158.7503 H   0  0  0  0  0  0  0  0  0  0  0  0
  144.7285  133.6935  159.4819 H   0  0  0  0  0  0  0  0  0  0  0  0
  145.0537  136.4239  160.7828 H   0  0  0  0  0  0  0  0  0  0  0  0
  143.6446  135.4303  160.6850 H   0  0  0  0  0  0  0  0  0  0  0  0
  144.1462  135.2528  164.2636 H   0  0  0  0  0  0  0  0  0  0  0  0
  142.9662  135.3182  162.9652 H   0  0  0  0  0  0  0  0  0  0  0  0
  144.1014  136.6417  163.1861 H   0  0  0  0  0  0  0  0  0  0  0  0
  144.8649  132.9938  163.4196 H   0  0  0  0  0  0  0  0  0  0  0  0
  145.4322  132.7551  161.7803 H   0  0  0  0  0  0  0  0  0  0  0  0
  143.7355  133.0844  162.0758 H   0  0  0  0  0  0  0  0  0  0  0  0
  146.5114  136.3249  162.8169 H   0  0  0  0  0  0  0  0  0  0  0  0
  146.5379  134.9093  163.8161 H   0  0  0  0  0  0  0  0  0  0  0  0
  147.6464  133.5996  162.0480 H   0  0  0  0  0  0  0  0  0  0  0  0
  148.5488  135.0103  162.4472 H   0  0  0  0  0  0  0  0  0  0  0  0
  1  2  1  0  0  0  0
  1 21  1  0  0  0  0
  1 22  1  0  0  0  0
  1 23  1  0  0  0  0
  2  3  1  0  0  0  0
  2  9  1  0  0  0  0
  2 24  1  0  0  0  0
  3  4  1  0  0  0  0
  3 25  1  0  0  0  0
  3 26  1  0  0  0  0
  4  8  1  0  0  0  0
  4  5  1  0  0  0  0
  5  6  2  0  0  0  0
  5 27  1  0  0  0  0
  6  7  1  0  0  0  0
  7  8  2  0  0  0  0
  7 28  1  0  0  0  0
  9 10  1  0  0  0  0
  9 29  1  0  0  0  0
 10 11  2  0  0  0  0
 10 12  1  0  0  0  0
 12 20  1  0  0  0  0
 12 13  1  0  0  0  0
 13 14  1  0  0  0  0
 13 30  1  0  0  0  0
 13 31  1  0  0  0  0
 14 15  1  0  0  0  0
 14 32  1  0  0  0  0
 14 33  1  0  0  0  0
 15 16  1  0  0  0  0
 15 34  1  0  0  0  0
 15 35  1  0  0  0  0
 16 17  1  0  0  0  0
 16 18  1  0  0  0  0
 16 19  1  0  0  0  0
 17 36  1  0  0  0  0
 17 37  1  0  0  0  0
 17 38  1  0  0  0  0
 18 39  1  0  0  0  0
 18 40  1  0  0  0  0
 18 41  1  0  0  0  0
 19 20  1  0  0  0  0
 19 42  1  0  0  0  0
 19 43  1  0  0  0  0
 20 44  1  0  0  0  0
 20 45  1  0  0  0  0
M  END
> <s_m_source_file>
AV-unprocessed.smi

> <i_m_source_file_index>
673

> <i_lp_mmshare_version>
43012

> <i_f3d_flags>
0

> <s_epik_input>
bjFbY0hdbltjSF1uMVtDSDJdW0NAQEhdKFtDSDNdKVtOSF1DKD1PKU4oW0NIMl1bQ0gyXTIpW0NIMl1bQ0gyXVtDSDJdQzIoW0NIM10pW0NIM10=

> <s_epik_cmdline>
J2VwaWtfcHl0aG9uJywgJy1waCcsICc3LjAnLCAnLXRuJywgJzgnLCAnLW1hJywgJzIwMCcsICctbWV0YWxfYmluZGluZycsICctaW1hZScsICc8aW5maWxlLm1hZT4nLCAnLW9tYWUnLCAnPG91dGZpbGUubWFlPic=

> <r_lp_tautomer_probability>
1

> <r_epik_Ionization_Penalty>
0.000118908

> <r_epik_Ionization_Penalty_Charging>
0

> <r_epik_Ionization_Penalty_Neutral>
0.000118908

> <r_epik_State_Penalty>
-0

> <r_epik_Charging_Adjusted_Penalty>
0

> <i_epik_Tot_Q>
0

> <i_epik_Tot_abs_Q>
0

> <r_epik_Metal_State_Penalty>
-0

> <b_epik_Metal_Only>
0

> <s_lp_Force_Field>
OPLS_2005

> <r_lp_Energy>
35.7371

> <b_lp_Chiralities_Consistent>
1

> <s_lp_Variant>
AV-unprocessed.smi:673-1

> <Gold.Version>
5.8.1

> <Gold.Id.Protein>
6NUR|6NUR_protein|mol2

> <Gold.PLP.Fitness>
35.7224

> <Gold.PLP.PLP>
-26.7775

> <Gold.PLP.part.hbond>
-3.0000

> <Gold.PLP.part.metal>
0.0000

> <Gold.PLP.part.buried>
-3.9389

> <Gold.PLP.part.nonpolar>
-20.7805

> <Gold.PLP.part.repulsive>
0.3393

> <Gold.PLP.ligand.clash>
0.0000

> <Gold.PLP.ligand.torsion>
0.8424

> <Gold.PLP.Chemscore.Hbond>
2.5360

> <Gold.PLP.Chemscore.CHOScore>
1.0000

> <Gold.PLP.Chemscore.Metal>
0.0000

> <Gold.Chemscore.Hbonds>
donor molecule, donor type, donor heavy atom, donor atom, acceptor molecule, acceptor atom, score
      P1  H  6931  6943       L1    11  0.94
      P1  H  6934  6947       L1    11  0.40
      P1  H  7989  7998       L1     6  1.00
      L1  C     7    28       P1  7957  0.86

> <Gold.PLP.Chemscore.Internal.Correction>
0.0218

> <Gold.Rescore>
     Score         DG    S(hbond)    S(metal)    S(lipo)     H(rot)  DE(clash)    DE(int)     intcor
     13.06     -13.64       2.78        0.00      31.10       1.86       0.00       0.58       ----

> <Gold.Chemscore.Fitness>
13.0566

> <Gold.Chemscore.DG>
-13.6425

> <Gold.Chemscore.ZeroCoef>
-5.4800

> <Gold.Chemscore.Hbond>
2.7813

> <Gold.Chemscore.Metal>
0.0000

> <Gold.Chemscore.Lipo>
31.0974

> <Gold.Chemscore.Internal_Hbond>
0.0000

> <Gold.Chemscore.DEClash>
0.0009

> <Gold.Chemscore.DEInternal>
0.5850

> <Gold.Chemscore.Rot>
1.8614

> <Gold.Chemscore.Internal.Correction>
   9.000000E+99

> <Gold.Chemscore.Hbonds>
donor molecule, donor type, donor heavy atom, donor atom, acceptor molecule, acceptor atom, score
      P1  H  6931  6943       L1    11  0.85
      P1  H  6934  6947       L1    11  0.39
      P1  H  7989  7998       L1     6  0.84

> <Gold.Chemscore.Hbond.Weighted>
-9.2894

> <Gold.Chemscore.Metal.Weighted>
-0.0000

> <Gold.Chemscore.Lipo.Weighted>
-3.6384

> <Gold.Chemscore.Internal_Hbond.Weighted>
0.0000

> <Gold.Chemscore.DEClash.Weighted>
0.0009

> <Gold.Chemscore.DEInternal.Weighted>
0.5850

> <Gold.Chemscore.Rot.Weighted>
4.7653

> <Gold.Chemscore.Internal.Correction.Weighted>
   9.000000E+99

> <Gold.Protein.RotatedTorsions>
[ 6907 6896 6895 6894 ] final  -73.28 input  -60.11 | X-H torsion
[ 7974 7965 7964 7962 ] final  103.10 input  175.53 | X-H torsion
[ 8008 7997 7996 7995 ] final  -50.20 input   59.86 | X-H torsion
[ 10167 10162 10161 10158 ] final  -91.85 input  -65.29 | X-H torsion
[ 10718 10713 10712 10709 ] final  -97.77 input   66.30 | X-H torsion
[ 10763 10752 10751 10750 ] final -122.67 input  -60.55 | X-H torsion
[ 11005 11000 10999 10996 ] final -110.62 input  -57.11 | X-H torsion

> <Gold.Protein.ActiveResidues>
 VAL166  LYS551  ARG553  GLY616  TRP617  ASP618  TYR619  PRO620  LYS621  CYS622 
 ASP623  PHE694  ASN695  SER759  ASP760  ASP761  ALA762  ILE779  LEU786  VAL792 
 PHE793  MET794  SER795  GLU796  ALA797  LYS798  CYS799  TRP800  GLU811  SER814 

> <Gold.Protein.RotatedAtoms>
  150.7136  134.5040  159.5574 H   0  0  0  0  0  0  0  0  0  0  0  0  # atno 6907 bound_to 6896
  152.2631  134.8010  160.0436 H   0  0  0  0  0  0  0  0  0  0  0  0  # atno 6908 bound_to 6896
  151.8717  133.3442  159.3774 H   0  0  0  0  0  0  0  0  0  0  0  0  # atno 6909 bound_to 6896
  145.3503  139.2441  143.3562 H   0  0  0  0  0  0  0  0  0  0  0  0  # atno 7974 bound_to 7965
  154.4057  140.1278  156.4627 H   0  0  0  0  0  0  0  0  0  0  0  0  # atno 8008 bound_to 7997
  155.7257  140.3492  155.5016 H   0  0  0  0  0  0  0  0  0  0  0  0  # atno 8009 bound_to 7997
  155.9174  140.1046  157.1223 H   0  0  0  0  0  0  0  0  0  0  0  0  # atno 8010 bound_to 7997
  140.3407  143.2943  151.9838 H   0  0  0  0  0  0  0  0  0  0  0  0  # atno 10167 bound_to 10162
  156.0091  130.5208  150.6423 H   0  0  0  0  0  0  0  0  0  0  0  0  # atno 10718 bound_to 10713
  154.8694  135.4125  154.2819 H   0  0  0  0  0  0  0  0  0  0  0  0  # atno 10763 bound_to 10752
  153.3710  135.7007  153.6643 H   0  0  0  0  0  0  0  0  0  0  0  0  # atno 10764 bound_to 10752
  153.5505  135.3630  155.2729 H   0  0  0  0  0  0  0  0  0  0  0  0  # atno 10765 bound_to 10752
  141.0781  133.9267  157.2347 H   0  0  0  0  0  0  0  0  0  0  0  0  # atno 11005 bound_to 11000
  146.2971  140.4118  142.8718 LP  0  0  0  0  0  0  0  0  0  0  0  0  # atno 17320 bound_to 7965
  144.8723  140.7289  143.6039 LP  0  0  0  0  0  0  0  0  0  0  0  0  # atno 17321 bound_to 7965
  139.4841  144.6159  151.7348 LP  0  0  0  0  0  0  0  0  0  0  0  0  # atno 17342 bound_to 10162
  140.5311  144.0729  150.6054 LP  0  0  0  0  0  0  0  0  0  0  0  0  # atno 17343 bound_to 10162
  157.4201  131.0835  151.1139 LP  0  0  0  0  0  0  0  0  0  0  0  0  # atno 17370 bound_to 10713
  157.1744  130.6281  149.5651 LP  0  0  0  0  0  0  0  0  0  0  0  0  # atno 17371 bound_to 10713
  139.9594  135.0158  156.9218 LP  0  0  0  0  0  0  0  0  0  0  0  0  # atno 17394 bound_to 11000
  140.5529  134.0610  155.7374 LP  0  0  0  0  0  0  0  0  0  0  0  0  # atno 17395 bound_to 11000

$$$$
