AV-unprocessed.smi:1605|AV-procd|sdf|6458|dock6
  -GOLD-   22720 7113D 1   1.00000     0.00000
 Structure written by MMmdl.
 52 54  0  0  0  0  0  0  0  0  3 V2000
  143.5606  137.0404  155.3556 C   0  0  0  0  0  0  0  0  0  0  0  0
  144.2918  137.7102  154.3400 O   0  0  0  0  0  0  0  0  0  0  0  0
  145.1163  136.8617  153.5489 C   0  0  2  0  0  0  0  0  0  0  0  0
  146.2239  136.1995  154.3901 C   0  0  0  0  0  0  0  0  0  0  0  0
  147.2099  137.2433  154.9412 C   0  0  0  0  0  0  0  0  0  0  0  0
  147.8075  138.0510  153.8441 N   0  3  2  0  0  0  0  0  0  0  0  0
  148.8557  138.9909  154.3177 C   0  0  0  0  0  0  0  0  0  0  0  0
  149.9711  138.2819  155.1177 C   0  0  1  0  0  0  0  0  0  0  0  0
  150.4056  137.1468  154.3973 O   0  0  0  0  0  0  0  0  0  0  0  0
  151.2081  139.1706  155.3633 C   0  0  0  0  0  0  0  0  0  0  0  0
  150.8927  140.4249  156.0591 N   0  0  0  0  0  0  0  0  0  0  0  0
  150.0855  141.4561  155.6874 C   0  0  0  0  0  0  0  0  0  0  0  0
  150.1309  142.3897  156.6779 N   0  3  0  0  0  0  0  0  0  0  0  0
  150.9890  141.9545  157.6903 C   0  0  0  0  0  0  0  0  0  0  0  0
  151.3604  142.5506  158.8897 C   0  0  0  0  0  0  0  0  0  0  0  0
  152.2704  141.8428  159.7073 C   0  0  0  0  0  0  0  0  0  0  0  0
  152.6997  142.4674  161.0240 C   0  0  0  0  0  0  0  0  0  0  0  0
  152.7765  140.5775  159.3111 C   0  0  0  0  0  0  0  0  0  0  0  0
  153.7557  139.8258  160.1968 C   0  0  0  0  0  0  0  0  0  0  0  0
  152.3867  139.9883  158.0872 C   0  0  0  0  0  0  0  0  0  0  0  0
  151.4871  140.6978  157.2956 C   0  0  0  0  0  0  0  0  0  0  0  0
  146.7631  138.7323  153.0366 C   0  0  0  0  0  0  0  0  0  0  0  0
  145.7603  137.7221  152.4513 C   0  0  0  0  0  0  0  0  0  0  0  0
  142.9205  137.7566  155.8705 H   0  0  0  0  0  0  0  0  0  0  0  0
  144.2163  136.5900  156.1001 H   0  0  0  0  0  0  0  0  0  0  0  0
  142.9202  136.2638  154.9358 H   0  0  0  0  0  0  0  0  0  0  0  0
  144.5012  136.0965  153.0723 H   0  0  0  0  0  0  0  0  0  0  0  0
  145.8000  135.6163  155.2070 H   0  0  0  0  0  0  0  0  0  0  0  0
  146.7681  135.4875  153.7683 H   0  0  0  0  0  0  0  0  0  0  0  0
  146.6998  137.9026  155.6455 H   0  0  0  0  0  0  0  0  0  0  0  0
  147.9888  136.7303  155.5040 H   0  0  0  0  0  0  0  0  0  0  0  0
  149.3132  139.5033  153.4696 H   0  0  0  0  0  0  0  0  0  0  0  0
  148.3768  139.7690  154.9129 H   0  0  0  0  0  0  0  0  0  0  0  0
  149.5930  137.9376  156.0790 H   0  0  0  0  0  0  0  0  0  0  0  0
  149.8092  136.9865  153.6823 H   0  0  0  0  0  0  0  0  0  0  0  0
  151.9608  138.6401  155.9488 H   0  0  0  0  0  0  0  0  0  0  0  0
  151.6806  139.4334  154.4155 H   0  0  0  0  0  0  0  0  0  0  0  0
  149.5110  141.5218  154.7745 H   0  0  0  0  0  0  0  0  0  0  0  0
  150.9729  143.5152  159.1840 H   0  0  0  0  0  0  0  0  0  0  0  0
  153.7840  142.5710  161.0651 H   0  0  0  0  0  0  0  0  0  0  0  0
  152.3789  141.8496  161.8628 H   0  0  0  0  0  0  0  0  0  0  0  0
  152.2665  143.4594  161.1552 H   0  0  0  0  0  0  0  0  0  0  0  0
  154.0052  138.8506  159.7779 H   0  0  0  0  0  0  0  0  0  0  0  0
  153.3314  139.6624  161.1876 H   0  0  0  0  0  0  0  0  0  0  0  0
  154.6828  140.3893  160.3047 H   0  0  0  0  0  0  0  0  0  0  0  0
  152.7767  139.0281  157.7827 H   0  0  0  0  0  0  0  0  0  0  0  0
  146.2447  139.4673  153.6547 H   0  0  0  0  0  0  0  0  0  0  0  0
  147.2312  139.2815  152.2185 H   0  0  0  0  0  0  0  0  0  0  0  0
  146.2745  137.0754  151.7388 H   0  0  0  0  0  0  0  0  0  0  0  0
  144.9883  138.2459  151.8864 H   0  0  0  0  0  0  0  0  0  0  0  0
  148.2652  137.4064  153.2156 H   0  0  0  0  0  0  0  0  0  0  0  0
  149.6188  143.2626  156.6587 H   0  0  0  0  0  0  0  0  0  0  0  0
  1  2  1  0  0  0  0
  1 24  1  0  0  0  0
  1 25  1  0  0  0  0
  1 26  1  0  0  0  0
  2  3  1  0  0  0  0
  3 23  1  0  0  0  0
  3  4  1  0  0  0  0
  3 27  1  0  0  0  0
  4  5  1  0  0  0  0
  4 28  1  0  0  0  0
  4 29  1  0  0  0  0
  5  6  1  0  0  0  0
  5 30  1  0  0  0  0
  5 31  1  0  0  0  0
  6  7  1  0  0  0  0
  6 22  1  0  0  0  0
  6 51  1  0  0  0  0
  7  8  1  0  0  0  0
  7 32  1  0  0  0  0
  7 33  1  0  0  0  0
  8  9  1  0  0  0  0
  8 10  1  0  0  0  0
  8 34  1  0  0  0  0
  9 35  1  0  0  0  0
 10 11  1  0  0  0  0
 10 36  1  0  0  0  0
 10 37  1  0  0  0  0
 11 21  1  0  0  0  0
 11 12  1  0  0  0  0
 12 13  2  0  0  0  0
 12 38  1  0  0  0  0
 13 14  1  0  0  0  0
 13 52  1  0  0  0  0
 14 21  2  0  0  0  0
 14 15  1  0  0  0  0
 15 16  2  0  0  0  0
 15 39  1  0  0  0  0
 16 17  1  0  0  0  0
 16 18  1  0  0  0  0
 17 40  1  0  0  0  0
 17 41  1  0  0  0  0
 17 42  1  0  0  0  0
 18 19  1  0  0  0  0
 18 20  2  0  0  0  0
 19 43  1  0  0  0  0
 19 44  1  0  0  0  0
 19 45  1  0  0  0  0
 20 21  1  0  0  0  0
 20 46  1  0  0  0  0
 22 23  1  0  0  0  0
 22 47  1  0  0  0  0
 22 48  1  0  0  0  0
 23 49  1  0  0  0  0
 23 50  1  0  0  0  0
M  CHG  1   6   1
M  CHG  1  13   1
M  END
> <s_m_source_file>
AV-unprocessed.smi

> <i_m_source_file_index>
1605

> <i_lp_mmshare_version>
43012

> <i_f3d_flags>
0

> <s_epik_input>
W0NIM11PW0NIXTFbQ0gyXVtDSDJdTihbQ0gyXVtDSDJdMSlbQ0gyXVtDQEhdKFtPSF0pW0NIMl1uKFtjSF1uMiljKGMyMylbY0hdYyhbQ0gzXSljKFtjSF0zKVtDSDNd

> <s_epik_cmdline>
J2VwaWtfcHl0aG9uJywgJy1waCcsICc3LjAnLCAnLXRuJywgJzgnLCAnLW1hJywgJzIwMCcsICctbWV0YWxfYmluZGluZycsICctaW1hZScsICc8aW5maWxlLm1hZT4nLCAnLW9tYWUnLCAnPG91dGZpbGUubWFlPic=

> <r_epik_Ionization_Penalty>
1.19848

> <r_epik_Ionization_Penalty_Charging>
1.19848

> <r_epik_Ionization_Penalty_Neutral>
1.67134e-06

> <r_epik_State_Penalty>
1.2782

> <r_epik_Charging_Adjusted_Penalty>
2.47668

> <i_epik_Tot_Q>
2

> <i_epik_Tot_abs_Q>
2

> <r_epik_Metal_State_Penalty>
5.29544

> <b_epik_Metal_Only>
0

> <s_lp_Force_Field>
OPLS_2005

> <r_lp_Energy>
34.9642

> <b_lp_Chiralities_Consistent>
1

> <s_lp_Variant>
AV-unprocessed.smi:1605-8

> <Gold.Version>
5.8.1

> <Gold.Id.Protein>
6NUR|6NUR_protein|mol2

> <Gold.PLP.Fitness>
55.9009

> <Gold.PLP.PLP>
-41.0220

> <Gold.PLP.part.hbond>
-4.0000

> <Gold.PLP.part.metal>
0.0000

> <Gold.PLP.part.buried>
-2.5838

> <Gold.PLP.part.nonpolar>
-34.9825

> <Gold.PLP.part.repulsive>
0.2283

> <Gold.PLP.ligand.clash>
0.0000

> <Gold.PLP.ligand.torsion>
0.0890

> <Gold.PLP.Chemscore.Hbond>
5.0000

> <Gold.PLP.Chemscore.CHOScore>
0.0000

> <Gold.PLP.Chemscore.Metal>
0.0000

> <Gold.Chemscore.Hbonds>
donor molecule, donor type, donor heavy atom, donor atom, acceptor molecule, acceptor atom, score
      L1  H     6    51       P1  7948  2.00
      L1  H     9    35       P1  7948  0.80
      L1  H    13    52       P1  8028  1.98

> <Gold.PLP.Chemscore.Internal.Correction>
0.0569

> <Gold.Rescore>
     Score         DG    S(hbond)    S(metal)    S(lipo)     H(rot)  DE(clash)    DE(int)     intcor
     20.39     -20.89       2.71        0.00     104.41       2.28       0.27       0.23       ----

> <Gold.Chemscore.Fitness>
20.3937

> <Gold.Chemscore.DG>
-20.8885

> <Gold.Chemscore.ZeroCoef>
-5.4800

> <Gold.Chemscore.Hbond>
2.7064

> <Gold.Chemscore.Metal>
0.0000

> <Gold.Chemscore.Lipo>
104.4107

> <Gold.Chemscore.Internal_Hbond>
0.0000

> <Gold.Chemscore.DEClash>
0.2671

> <Gold.Chemscore.DEInternal>
0.2277

> <Gold.Chemscore.Rot>
2.2839

> <Gold.Chemscore.Internal.Correction>
   9.000000E+99

> <Gold.Chemscore.Hbonds>
donor molecule, donor type, donor heavy atom, donor atom, acceptor molecule, acceptor atom, score
      L1  H     6    51       P1  7948  1.00
      L1  H     9    35       P1  7948  0.47
      L1  H    13    52       P1  8028  0.94

> <Gold.Chemscore.Hbond.Weighted>
-9.0393

> <Gold.Chemscore.Metal.Weighted>
-0.0000

> <Gold.Chemscore.Lipo.Weighted>
-12.2161

> <Gold.Chemscore.Internal_Hbond.Weighted>
0.0000

> <Gold.Chemscore.DEClash.Weighted>
0.2671

> <Gold.Chemscore.DEInternal.Weighted>
0.2277

> <Gold.Chemscore.Rot.Weighted>
5.8469

> <Gold.Chemscore.Internal.Correction.Weighted>
   9.000000E+99

> <Gold.Protein.RotatedTorsions>
[ 6907 6896 6895 6894 ] final   69.98 input  -60.11 | X-H torsion
[ 7974 7965 7964 7962 ] final -108.27 input  175.53 | X-H torsion
[ 8008 7997 7996 7995 ] final  -70.39 input   59.86 | X-H torsion
[ 10167 10162 10161 10158 ] final   48.37 input  -65.29 | X-H torsion
[ 10718 10713 10712 10709 ] final   29.38 input   66.30 | X-H torsion
[ 10763 10752 10751 10750 ] final -173.09 input  -60.55 | X-H torsion
[ 11005 11000 10999 10996 ] final  -61.39 input  -57.11 | X-H torsion

> <Gold.Protein.ActiveResidues>
 VAL166  LYS551  ARG553  GLY616  TRP617  ASP618  TYR619  PRO620  LYS621  CYS622 
 ASP623  PHE694  ASN695  SER759  ASP760  ASP761  ALA762  ILE779  LEU786  VAL792 
 PHE793  MET794  SER795  GLU796  ALA797  LYS798  CYS799  TRP800  GLU811  SER814 

> <Gold.Protein.RotatedAtoms>
  152.4720  134.4936  159.9702 H   0  0  0  0  0  0  0  0  0  0  0  0  # atno 6907 bound_to 6896
  151.4961  133.3508  159.2869 H   0  0  0  0  0  0  0  0  0  0  0  0  # atno 6908 bound_to 6896
  150.8736  134.8142  159.7234 H   0  0  0  0  0  0  0  0  0  0  0  0  # atno 6909 bound_to 6896
  145.1949  140.9031  143.3403 H   0  0  0  0  0  0  0  0  0  0  0  0  # atno 7974 bound_to 7965
  154.5008  140.0835  156.7794 H   0  0  0  0  0  0  0  0  0  0  0  0  # atno 8008 bound_to 7997
  155.4007  140.3437  155.4238 H   0  0  0  0  0  0  0  0  0  0  0  0  # atno 8009 bound_to 7997
  156.1454  140.1542  156.8843 H   0  0  0  0  0  0  0  0  0  0  0  0  # atno 8010 bound_to 7997
  140.2940  144.3012  150.6234 H   0  0  0  0  0  0  0  0  0  0  0  0  # atno 10167 bound_to 10162
  157.2458  130.7091  149.6381 H   0  0  0  0  0  0  0  0  0  0  0  0  # atno 10718 bound_to 10713
  154.6119  135.2865  155.0423 H   0  0  0  0  0  0  0  0  0  0  0  0  # atno 10763 bound_to 10752
  154.1650  135.6482  153.4999 H   0  0  0  0  0  0  0  0  0  0  0  0  # atno 10764 bound_to 10752
  153.0198  135.5387  154.6875 H   0  0  0  0  0  0  0  0  0  0  0  0  # atno 10765 bound_to 10752
  141.1323  133.6630  156.5369 H   0  0  0  0  0  0  0  0  0  0  0  0  # atno 11005 bound_to 11000
  145.0005  139.3603  143.6170 LP  0  0  0  0  0  0  0  0  0  0  0  0  # atno 17320 bound_to 7965
  146.3429  139.9225  142.8764 LP  0  0  0  0  0  0  0  0  0  0  0  0  # atno 17321 bound_to 7965
  140.5708  143.2181  151.7603 LP  0  0  0  0  0  0  0  0  0  0  0  0  # atno 17342 bound_to 10162
  139.4931  144.4219  151.9968 LP  0  0  0  0  0  0  0  0  0  0  0  0  # atno 17343 bound_to 10162
  155.9668  130.4443  150.5457 LP  0  0  0  0  0  0  0  0  0  0  0  0  # atno 17370 bound_to 10713
  157.3331  131.0703  151.1846 LP  0  0  0  0  0  0  0  0  0  0  0  0  # atno 17371 bound_to 10713
  140.4171  134.7220  157.4869 LP  0  0  0  0  0  0  0  0  0  0  0  0  # atno 17394 bound_to 11000
  140.0386  134.6301  155.9010 LP  0  0  0  0  0  0  0  0  0  0  0  0  # atno 17395 bound_to 11000

$$$$
