AV-unprocessed.smi:2245|AV-procd|sdf|9077|dock2
  -GOLD-   2272012283D 1   1.00000     0.00000
 Structure written by MMmdl.
 44 45  0  0  0  0  0  0  0  0  1 V2000
  154.0055  141.2777  159.8342 C   0  0  0  0  0  0  0  0  0  0  0  0
  153.0257  142.3593  159.4293 C   0  0  0  0  0  0  0  0  0  0  0  0
  152.9462  143.5682  160.1465 C   0  0  0  0  0  0  0  0  0  0  0  0
  152.0134  144.5338  159.7200 C   0  0  0  0  0  0  0  0  0  0  0  0
  151.8739  145.8549  160.4468 C   0  0  0  0  0  0  0  0  0  0  0  0
  151.1954  144.3515  158.6613 N   0  0  0  0  0  0  0  0  0  0  0  0
  151.2629  143.1909  157.9630 C   0  0  0  0  0  0  0  0  0  0  0  0
  150.4514  142.9015  156.8340 N   0  0  0  0  0  0  0  0  0  0  0  0
  150.2033  141.7055  156.2716 C   0  0  0  0  0  0  0  0  0  0  0  0
  150.6686  140.6299  156.6497 O   0  0  0  0  0  0  0  0  0  0  0  0
  149.3741  141.8282  155.2246 N   0  0  0  0  0  0  0  0  0  0  0  0
  148.9024  140.7361  154.3783 C   0  0  0  0  0  0  0  0  0  0  0  0
  147.3697  140.7551  154.2262 C   0  0  1  0  0  0  0  0  0  0  0  0
  146.5980  140.3035  155.4644 C   0  0  0  0  0  0  0  0  0  0  0  0
  145.3461  141.1701  155.4318 C   0  0  0  0  0  0  0  0  0  0  0  0
  145.8786  142.4574  155.0086 N   0  0  0  0  0  0  0  0  0  0  0  0
  144.8579  143.4156  154.5879 C   0  0  0  0  0  0  0  0  0  0  0  0
  144.0016  143.9465  155.7542 C   0  0  0  0  0  0  0  0  0  0  0  0
  143.3300  145.0177  155.3341 F   0  0  0  0  0  0  0  0  0  0  0  0
  143.1170  143.0388  156.1666 F   0  0  0  0  0  0  0  0  0  0  0  0
  144.7761  144.3073  156.7778 F   0  0  0  0  0  0  0  0  0  0  0  0
  146.7993  142.1491  153.9176 C   0  0  0  0  0  0  0  0  0  0  0  0
  152.1719  142.1707  158.3237 C   0  0  0  0  0  0  0  0  0  0  0  0
  154.6732  141.6231  160.6241 H   0  0  0  0  0  0  0  0  0  0  0  0
  154.6149  140.9786  158.9811 H   0  0  0  0  0  0  0  0  0  0  0  0
  153.4694  140.4012  160.1986 H   0  0  0  0  0  0  0  0  0  0  0  0
  153.5821  143.7509  161.0006 H   0  0  0  0  0  0  0  0  0  0  0  0
  152.7070  146.0179  161.1310 H   0  0  0  0  0  0  0  0  0  0  0  0
  150.9489  145.8712  161.0236 H   0  0  0  0  0  0  0  0  0  0  0  0
  151.8518  146.6827  159.7372 H   0  0  0  0  0  0  0  0  0  0  0  0
  150.0036  143.6987  156.4073 H   0  0  0  0  0  0  0  0  0  0  0  0
  149.0438  142.7529  154.9907 H   0  0  0  0  0  0  0  0  0  0  0  0
  149.3842  140.7555  153.3990 H   0  0  0  0  0  0  0  0  0  0  0  0
  149.2099  139.8017  154.8483 H   0  0  0  0  0  0  0  0  0  0  0  0
  147.0981  140.1013  153.3957 H   0  0  0  0  0  0  0  0  0  0  0  0
  146.3722  139.2367  155.4550 H   0  0  0  0  0  0  0  0  0  0  0  0
  147.1634  140.5179  156.3727 H   0  0  0  0  0  0  0  0  0  0  0  0
  144.6337  140.7889  154.6981 H   0  0  0  0  0  0  0  0  0  0  0  0
  144.8587  141.2195  156.4053 H   0  0  0  0  0  0  0  0  0  0  0  0
  145.3679  144.2636  154.1285 H   0  0  0  0  0  0  0  0  0  0  0  0
  144.2226  142.9784  153.8161 H   0  0  0  0  0  0  0  0  0  0  0  0
  147.5699  142.9168  153.8406 H   0  0  0  0  0  0  0  0  0  0  0  0
  146.2650  142.1162  152.9666 H   0  0  0  0  0  0  0  0  0  0  0  0
  152.2163  141.2506  157.7588 H   0  0  0  0  0  0  0  0  0  0  0  0
  1  2  1  0  0  0  0
  1 24  1  0  0  0  0
  1 25  1  0  0  0  0
  1 26  1  0  0  0  0
  2 23  1  0  0  0  0
  2  3  2  0  0  0  0
  3  4  1  0  0  0  0
  3 27  1  0  0  0  0
  4  5  1  0  0  0  0
  4  6  2  0  0  0  0
  5 28  1  0  0  0  0
  5 29  1  0  0  0  0
  5 30  1  0  0  0  0
  6  7  1  0  0  0  0
  7  8  1  0  0  0  0
  7 23  2  0  0  0  0
  8  9  1  0  0  0  0
  8 31  1  0  0  0  0
  9 10  2  0  0  0  0
  9 11  1  0  0  0  0
 11 12  1  0  0  0  0
 11 32  1  0  0  0  0
 12 13  1  0  0  0  0
 12 33  1  0  0  0  0
 12 34  1  0  0  0  0
 13 22  1  0  0  0  0
 13 14  1  0  0  0  0
 13 35  1  0  0  0  0
 14 15  1  0  0  0  0
 14 36  1  0  0  0  0
 14 37  1  0  0  0  0
 15 16  1  0  0  0  0
 15 38  1  0  0  0  0
 15 39  1  0  0  0  0
 16 17  1  0  0  0  0
 16 22  1  0  0  0  0
 17 18  1  0  0  0  0
 17 40  1  0  0  0  0
 17 41  1  0  0  0  0
 18 19  1  0  0  0  0
 18 20  1  0  0  0  0
 18 21  1  0  0  0  0
 22 42  1  0  0  0  0
 22 43  1  0  0  0  0
 23 44  1  0  0  0  0
M  END
> <s_m_source_file>
AV-unprocessed.smi

> <i_m_source_file_index>
2245

> <i_lp_mmshare_version>
43012

> <i_f3d_flags>
0

> <s_epik_input>
W0NIM11jMVtjSF1jKFtDSDNdKW5jKFtjSF0xKVtOSF1DKD1PKVtOSF1bQ0gyXVtDQEBIXTJbQ0gyXVtDSDJdTihbQ0gyXTIpW0NIMl1DKEYpKEYpRg==

> <s_epik_cmdline>
J2VwaWtfcHl0aG9uJywgJy1waCcsICc3LjAnLCAnLXRuJywgJzgnLCAnLW1hJywgJzIwMCcsICctbWV0YWxfYmluZGluZycsICctaW1hZScsICc8aW5maWxlLm1hZT4nLCAnLW9tYWUnLCAnPG91dGZpbGUubWFlPic=

> <r_epik_Ionization_Penalty>
0.252219

> <r_epik_Ionization_Penalty_Charging>
0

> <r_epik_Ionization_Penalty_Neutral>
0.252219

> <r_epik_State_Penalty>
0.24335

> <r_epik_Charging_Adjusted_Penalty>
0.24335

> <i_epik_Tot_Q>
0

> <i_epik_Tot_abs_Q>
0

> <r_epik_Metal_State_Penalty>
0.243337

> <b_epik_Metal_Only>
0

> <s_lp_Force_Field>
OPLS_2005

> <r_lp_Energy>
32.1697

> <b_lp_Chiralities_Consistent>
1

> <s_lp_Variant>
AV-unprocessed.smi:2245-2

> <Gold.Version>
5.8.1

> <Gold.Id.Protein>
6NUR|6NUR_protein|mol2

> <Gold.PLP.Fitness>
49.4171

> <Gold.PLP.PLP>
-44.9908

> <Gold.PLP.part.hbond>
-2.0000

> <Gold.PLP.part.metal>
0.0000

> <Gold.PLP.part.buried>
-8.6255

> <Gold.PLP.part.nonpolar>
-36.8521

> <Gold.PLP.part.repulsive>
0.5758

> <Gold.PLP.ligand.clash>
0.8351

> <Gold.PLP.ligand.torsion>
0.3990

> <Gold.PLP.Chemscore.Hbond>
1.8723

> <Gold.PLP.Chemscore.CHOScore>
0.0000

> <Gold.PLP.Chemscore.Metal>
0.0000

> <Gold.Chemscore.Hbonds>
donor molecule, donor type, donor heavy atom, donor atom, acceptor molecule, acceptor atom, score
      L1  H     8    31       P1  8028  1.00
      L1  H    11    32       P1  8028  0.82

> <Gold.PLP.Chemscore.Internal.Correction>
0.4425

> <Gold.Rescore>
     Score         DG    S(hbond)    S(metal)    S(lipo)     H(rot)  DE(clash)    DE(int)     intcor
     17.41     -19.48       1.92        0.00      99.35       1.58       0.08       2.00       ----

> <Gold.Chemscore.Fitness>
17.4057

> <Gold.Chemscore.DG>
-19.4807

> <Gold.Chemscore.ZeroCoef>
-5.4800

> <Gold.Chemscore.Hbond>
1.9245

> <Gold.Chemscore.Metal>
0.0000

> <Gold.Chemscore.Lipo>
99.3549

> <Gold.Chemscore.Internal_Hbond>
0.0000

> <Gold.Chemscore.DEClash>
0.0800

> <Gold.Chemscore.DEInternal>
1.9950

> <Gold.Chemscore.Rot>
1.5826

> <Gold.Chemscore.Internal.Correction>
   9.000000E+99

> <Gold.Chemscore.Hbonds>
donor molecule, donor type, donor heavy atom, donor atom, acceptor molecule, acceptor atom, score
      L1  H     8    31       P1  8028  1.00
      L1  H    11    32       P1  8028  0.78

> <Gold.Chemscore.Hbond.Weighted>
-6.4277

> <Gold.Chemscore.Metal.Weighted>
-0.0000

> <Gold.Chemscore.Lipo.Weighted>
-11.6245

> <Gold.Chemscore.Internal_Hbond.Weighted>
0.0000

> <Gold.Chemscore.DEClash.Weighted>
0.0800

> <Gold.Chemscore.DEInternal.Weighted>
1.9950

> <Gold.Chemscore.Rot.Weighted>
4.0515

> <Gold.Chemscore.Internal.Correction.Weighted>
   9.000000E+99

> <Gold.Protein.RotatedTorsions>
[ 6907 6896 6895 6894 ] final   49.89 input  -60.11 | X-H torsion
[ 7974 7965 7964 7962 ] final  120.83 input  175.53 | X-H torsion
[ 8008 7997 7996 7995 ] final   66.54 input   59.86 | X-H torsion
[ 10167 10162 10161 10158 ] final  -98.10 input  -65.29 | X-H torsion
[ 10718 10713 10712 10709 ] final  132.83 input   66.30 | X-H torsion
[ 10763 10752 10751 10750 ] final  135.40 input  -60.55 | X-H torsion
[ 11005 11000 10999 10996 ] final -169.95 input  -57.11 | X-H torsion

> <Gold.Protein.ActiveResidues>
 VAL166  LYS551  ARG553  GLY616  TRP617  ASP618  TYR619  PRO620  LYS621  CYS622 
 ASP623  PHE694  ASN695  SER759  ASP760  ASP761  ALA762  ILE779  LEU786  VAL792 
 PHE793  MET794  SER795  GLU796  ALA797  LYS798  CYS799  TRP800  GLU811  SER814 

> <Gold.Protein.RotatedAtoms>
  152.2958  134.7669  160.0368 H   0  0  0  0  0  0  0  0  0  0  0  0  # atno 6907 bound_to 6896
  151.8199  133.3388  159.3589 H   0  0  0  0  0  0  0  0  0  0  0  0  # atno 6908 bound_to 6896
  150.7251  134.5513  159.5840 H   0  0  0  0  0  0  0  0  0  0  0  0  # atno 6909 bound_to 6896
  145.1265  139.3355  143.4687 H   0  0  0  0  0  0  0  0  0  0  0  0  # atno 7974 bound_to 7965
  155.6789  140.3496  155.4847 H   0  0  0  0  0  0  0  0  0  0  0  0  # atno 8008 bound_to 7997
  155.9623  140.1140  157.0907 H   0  0  0  0  0  0  0  0  0  0  0  0  # atno 8009 bound_to 7997
  154.4146  140.1173  156.5182 H   0  0  0  0  0  0  0  0  0  0  0  0  # atno 8010 bound_to 7997
  140.2765  143.3310  152.0484 H   0  0  0  0  0  0  0  0  0  0  0  0  # atno 10167 bound_to 10162
  157.4833  131.1087  150.9653 H   0  0  0  0  0  0  0  0  0  0  0  0  # atno 10718 bound_to 10713
  153.8394  135.3093  155.3425 H   0  0  0  0  0  0  0  0  0  0  0  0  # atno 10763 bound_to 10752
  154.7939  135.4766  154.0119 H   0  0  0  0  0  0  0  0  0  0  0  0  # atno 10764 bound_to 10752
  153.1585  135.6856  153.8869 H   0  0  0  0  0  0  0  0  0  0  0  0  # atno 10765 bound_to 10752
  140.5250  134.5672  157.5059 H   0  0  0  0  0  0  0  0  0  0  0  0  # atno 11005 bound_to 11000
  146.3517  140.1246  142.8599 LP  0  0  0  0  0  0  0  0  0  0  0  0  # atno 17320 bound_to 7965
  145.0683  140.9137  143.4897 LP  0  0  0  0  0  0  0  0  0  0  0  0  # atno 17321 bound_to 7965
  139.4974  144.6621  151.6441 LP  0  0  0  0  0  0  0  0  0  0  0  0  # atno 17342 bound_to 10162
  140.5847  143.9885  150.6288 LP  0  0  0  0  0  0  0  0  0  0  0  0  # atno 17343 bound_to 10162
  157.0379  130.5737  149.5352 LP  0  0  0  0  0  0  0  0  0  0  0  0  # atno 17370 bound_to 10713
  156.0133  130.5226  150.8057 LP  0  0  0  0  0  0  0  0  0  0  0  0  # atno 17371 bound_to 10713
  139.9585  134.7493  156.0288 LP  0  0  0  0  0  0  0  0  0  0  0  0  # atno 17394 bound_to 11000
  141.1313  133.6586  156.3473 LP  0  0  0  0  0  0  0  0  0  0  0  0  # atno 17395 bound_to 11000

$$$$
