AV-unprocessed.smi:2358|AV-procd|sdf|9404|dock9
  -GOLD-   2272013 43D 1   1.00000     0.00000
 Structure written by MMmdl.
 45 47  0  0  0  0  0  0  0  0  1 V2000
  151.4551  144.7166  158.7492 C   0  0  0  0  0  0  0  0  0  0  0  0
  152.0961  143.5288  159.4369 C   0  0  0  0  0  0  0  0  0  0  0  0
  152.3744  143.5722  160.8174 C   0  0  0  0  0  0  0  0  0  0  0  0
  152.9685  142.4647  161.4530 C   0  0  0  0  0  0  0  0  0  0  0  0
  153.2599  142.5152  162.9384 C   0  0  0  0  0  0  0  0  0  0  0  0
  153.2841  141.3137  160.7025 C   0  0  0  0  0  0  0  0  0  0  0  0
  153.0155  141.2549  159.3198 C   0  0  0  0  0  0  0  0  0  0  0  0
  153.3596  140.0907  158.6667 O   0  0  0  0  0  0  0  0  0  0  0  0
  152.6868  139.7718  157.4556 C   0  0  0  0  0  0  0  0  0  0  0  0
  153.4431  138.6306  156.7529 C   0  0  1  0  0  0  0  0  0  0  0  0
  152.9947  137.4220  157.3346 O   0  0  0  0  0  0  0  0  0  0  0  0
  153.1361  138.5770  155.2392 C   0  0  0  0  0  0  0  0  0  0  0  0
  151.8012  138.0273  154.9719 N   0  0  0  0  0  0  0  0  0  0  0  0
  151.7529  136.6433  154.9636 N   0  0  0  0  0  0  0  0  0  0  0  0
  150.6379  136.0220  154.7517 C   0  0  0  0  0  0  0  0  0  0  0  0
  150.5166  134.5781  154.7322 N   0  0  0  0  0  0  0  0  0  0  0  0
  149.6194  133.9754  153.8528 C   0  0  0  0  0  0  0  0  0  0  0  0
  149.7331  132.6198  154.0676 C   0  0  0  0  0  0  0  0  0  0  0  0
  150.6809  132.3729  155.0605 N   0  0  0  0  0  0  0  0  0  0  0  0
  151.1051  133.5813  155.4091 C   0  0  0  0  0  0  0  0  0  0  0  0
  149.4183  136.7760  154.5172 C   0  0  0  0  0  0  0  0  0  0  0  0
  149.4746  138.1254  154.5320 C   0  0  0  0  0  0  0  0  0  0  0  0
  150.7243  138.8444  154.7767 C   0  0  0  0  0  0  0  0  0  0  0  0
  150.7990  140.0722  154.8094 O   0  0  0  0  0  0  0  0  0  0  0  0
  152.4174  142.3761  158.6911 C   0  0  0  0  0  0  0  0  0  0  0  0
  151.0485  145.4226  159.4740 H   0  0  0  0  0  0  0  0  0  0  0  0
  150.6399  144.3885  158.1035 H   0  0  0  0  0  0  0  0  0  0  0  0
  152.1900  145.2389  158.1368 H   0  0  0  0  0  0  0  0  0  0  0  0
  152.1318  144.4545  161.3920 H   0  0  0  0  0  0  0  0  0  0  0  0
  153.8734  141.6700  163.2517 H   0  0  0  0  0  0  0  0  0  0  0  0
  152.3287  142.4909  163.5047 H   0  0  0  0  0  0  0  0  0  0  0  0
  153.7923  143.4326  163.1907 H   0  0  0  0  0  0  0  0  0  0  0  0
  153.7381  140.4627  161.1892 H   0  0  0  0  0  0  0  0  0  0  0  0
  151.6442  139.4991  157.6302 H   0  0  0  0  0  0  0  0  0  0  0  0
  152.6972  140.6603  156.8226 H   0  0  0  0  0  0  0  0  0  0  0  0
  154.5153  138.7507  156.9157 H   0  0  0  0  0  0  0  0  0  0  0  0
  152.0837  137.3016  157.1132 H   0  0  0  0  0  0  0  0  0  0  0  0
  153.2797  139.5529  154.7710 H   0  0  0  0  0  0  0  0  0  0  0  0
  153.8603  137.9276  154.7441 H   0  0  0  0  0  0  0  0  0  0  0  0
  148.9904  134.5233  153.1658 H   0  0  0  0  0  0  0  0  0  0  0  0
  149.2083  131.8075  153.5865 H   0  0  0  0  0  0  0  0  0  0  0  0
  151.8564  133.7320  156.1700 H   0  0  0  0  0  0  0  0  0  0  0  0
  148.4799  136.2752  154.3342 H   0  0  0  0  0  0  0  0  0  0  0  0
  148.5713  138.6920  154.3590 H   0  0  0  0  0  0  0  0  0  0  0  0
  152.1942  142.3747  157.6350 H   0  0  0  0  0  0  0  0  0  0  0  0
  1  2  1  0  0  0  0
  1 26  1  0  0  0  0
  1 27  1  0  0  0  0
  1 28  1  0  0  0  0
  2 25  1  0  0  0  0
  2  3  2  0  0  0  0
  3  4  1  0  0  0  0
  3 29  1  0  0  0  0
  4  5  1  0  0  0  0
  4  6  2  0  0  0  0
  5 30  1  0  0  0  0
  5 31  1  0  0  0  0
  5 32  1  0  0  0  0
  6  7  1  0  0  0  0
  6 33  1  0  0  0  0
  7  8  1  0  0  0  0
  7 25  2  0  0  0  0
  8  9  1  0  0  0  0
  9 10  1  0  0  0  0
  9 34  1  0  0  0  0
  9 35  1  0  0  0  0
 10 11  1  0  0  0  0
 10 12  1  0  0  0  0
 10 36  1  0  0  0  0
 11 37  1  0  0  0  0
 12 13  1  0  0  0  0
 12 38  1  0  0  0  0
 12 39  1  0  0  0  0
 13 23  1  0  0  0  0
 13 14  1  0  0  0  0
 14 15  2  0  0  0  0
 15 16  1  0  0  0  0
 15 21  1  0  0  0  0
 16 20  1  0  0  0  0
 16 17  1  0  0  0  0
 17 18  2  0  0  0  0
 17 40  1  0  0  0  0
 18 19  1  0  0  0  0
 18 41  1  0  0  0  0
 19 20  2  0  0  0  0
 20 42  1  0  0  0  0
 21 22  2  0  0  0  0
 21 43  1  0  0  0  0
 22 23  1  0  0  0  0
 22 44  1  0  0  0  0
 23 24  2  0  0  0  0
 25 45  1  0  0  0  0
M  END
> <s_m_source_file>
AV-unprocessed.smi

> <i_m_source_file_index>
2358

> <i_lp_mmshare_version>
43012

> <i_f3d_flags>
0

> <s_epik_input>
W0NIM11jMVtjSF1jKFtDSDNdKVtjSF1jKFtjSF0xKU9bQ0gyXVtDQEhdKFtPSF0pW0NIMl1uMm5jKFtjSF1bY0hdYzI9TyktbjNbY0hdW2NIXW5bY0hdMw==

> <s_epik_cmdline>
J2VwaWtfcHl0aG9uJywgJy1waCcsICc3LjAnLCAnLXRuJywgJzgnLCAnLW1hJywgJzIwMCcsICctbWV0YWxfYmluZGluZycsICctaW1hZScsICc8aW5maWxlLm1hZT4nLCAnLW9tYWUnLCAnPG91dGZpbGUubWFlPic=

> <r_lp_tautomer_probability>
1

> <r_epik_Ionization_Penalty>
0.03707

> <r_epik_Ionization_Penalty_Charging>
0.0370699

> <r_epik_Ionization_Penalty_Neutral>
1.17174e-07

> <r_epik_State_Penalty>
0.0310055

> <r_epik_Charging_Adjusted_Penalty>
0.0680754

> <i_epik_Tot_Q>
0

> <i_epik_Tot_abs_Q>
0

> <r_epik_Metal_State_Penalty>
0.0291724

> <b_epik_Metal_Only>
0

> <s_lp_Force_Field>
OPLS_2005

> <r_lp_Energy>
35.3101

> <b_lp_Chiralities_Consistent>
1

> <s_lp_Variant>
AV-unprocessed.smi:2358-2

> <Gold.Version>
5.8.1

> <Gold.Id.Protein>
6NUR|6NUR_protein|mol2

> <Gold.PLP.Fitness>
56.3589

> <Gold.PLP.PLP>
-50.4127

> <Gold.PLP.part.hbond>
-3.0000

> <Gold.PLP.part.metal>
0.0000

> <Gold.PLP.part.buried>
-0.5822

> <Gold.PLP.part.nonpolar>
-46.2759

> <Gold.PLP.part.repulsive>
0.1733

> <Gold.PLP.ligand.clash>
0.0000

> <Gold.PLP.ligand.torsion>
1.5590

> <Gold.PLP.Chemscore.Hbond>
2.0000

> <Gold.PLP.Chemscore.CHOScore>
1.0000

> <Gold.PLP.Chemscore.Metal>
0.0000

> <Gold.Chemscore.Hbonds>
donor molecule, donor type, donor heavy atom, donor atom, acceptor molecule, acceptor atom, score
      P1  H  7989  7998       L1    24  1.00
      P1  H 10752 10765       L1    14  1.00
      L1  C    17    40       P1  7948  0.62

> <Gold.PLP.Chemscore.Internal.Correction>
0.0641

> <Gold.Rescore>
     Score         DG    S(hbond)    S(metal)    S(lipo)     H(rot)  DE(clash)    DE(int)     intcor
     15.50     -19.53       1.77        0.00     126.48       2.60       1.12       2.91       ----

> <Gold.Chemscore.Fitness>
15.4976

> <Gold.Chemscore.DG>
-19.5291

> <Gold.Chemscore.ZeroCoef>
-5.4800

> <Gold.Chemscore.Hbond>
1.7675

> <Gold.Chemscore.Metal>
0.0000

> <Gold.Chemscore.Lipo>
126.4780

> <Gold.Chemscore.Internal_Hbond>
0.0000

> <Gold.Chemscore.DEClash>
1.1228

> <Gold.Chemscore.DEInternal>
2.9087

> <Gold.Chemscore.Rot>
2.5986

> <Gold.Chemscore.Internal.Correction>
   9.000000E+99

> <Gold.Chemscore.Hbonds>
donor molecule, donor type, donor heavy atom, donor atom, acceptor molecule, acceptor atom, score
      P1  H  7989  7998       L1    24  0.96
      P1  H 10752 10765       L1    14  0.68

> <Gold.Chemscore.Hbond.Weighted>
-5.9036

> <Gold.Chemscore.Metal.Weighted>
-0.0000

> <Gold.Chemscore.Lipo.Weighted>
-14.7979

> <Gold.Chemscore.Internal_Hbond.Weighted>
0.0000

> <Gold.Chemscore.DEClash.Weighted>
1.1228

> <Gold.Chemscore.DEInternal.Weighted>
2.9087

> <Gold.Chemscore.Rot.Weighted>
6.6524

> <Gold.Chemscore.Internal.Correction.Weighted>
   9.000000E+99

> <Gold.Protein.RotatedTorsions>
[ 6907 6896 6895 6894 ] final   -3.87 input  -60.11 | X-H torsion
[ 7974 7965 7964 7962 ] final  -50.52 input  175.53 | X-H torsion
[ 8008 7997 7996 7995 ] final   25.39 input   59.86 | X-H torsion
[ 10167 10162 10161 10158 ] final -169.09 input  -65.29 | X-H torsion
[ 10718 10713 10712 10709 ] final  -75.60 input   66.30 | X-H torsion
[ 10763 10752 10751 10750 ] final -166.54 input  -60.55 | X-H torsion
[ 11005 11000 10999 10996 ] final  -61.66 input  -57.11 | X-H torsion

> <Gold.Protein.ActiveResidues>
 VAL166  LYS551  ARG553  GLY616  TRP617  ASP618  TYR619  PRO620  LYS621  CYS622 
 ASP623  PHE694  ASN695  SER759  ASP760  ASP761  ALA762  ILE779  LEU786  VAL792 
 PHE793  MET794  SER795  GLU796  ALA797  LYS798  CYS799  TRP800  GLU811  SER814 

> <Gold.Protein.RotatedAtoms>
  151.5068  135.1063  159.9843 H   0  0  0  0  0  0  0  0  0  0  0  0  # atno 6907 bound_to 6896
  152.4678  133.7958  159.6937 H   0  0  0  0  0  0  0  0  0  0  0  0  # atno 6908 bound_to 6896
  150.8671  133.7495  159.2999 H   0  0  0  0  0  0  0  0  0  0  0  0  # atno 6909 bound_to 6896
  145.9289  140.7767  142.9609 H   0  0  0  0  0  0  0  0  0  0  0  0  # atno 7974 bound_to 7965
  155.0110  140.3136  155.4830 H   0  0  0  0  0  0  0  0  0  0  0  0  # atno 8008 bound_to 7997
  156.2909  140.2214  156.5166 H   0  0  0  0  0  0  0  0  0  0  0  0  # atno 8009 bound_to 7997
  154.7534  140.0464  157.0901 H   0  0  0  0  0  0  0  0  0  0  0  0  # atno 8010 bound_to 7997
  139.5944  144.1143  152.1672 H   0  0  0  0  0  0  0  0  0  0  0  0  # atno 10167 bound_to 10162
  156.0202  130.4444  150.3067 H   0  0  0  0  0  0  0  0  0  0  0  0  # atno 10718 bound_to 10713
  154.6822  135.2956  154.9597 H   0  0  0  0  0  0  0  0  0  0  0  0  # atno 10763 bound_to 10752
  154.0588  135.6634  153.4813 H   0  0  0  0  0  0  0  0  0  0  0  0  # atno 10764 bound_to 10752
  153.0555  135.5147  154.7871 H   0  0  0  0  0  0  0  0  0  0  0  0  # atno 10765 bound_to 10752
  141.1332  133.6632  156.5408 H   0  0  0  0  0  0  0  0  0  0  0  0  # atno 11005 bound_to 11000
  144.6762  140.2096  143.7378 LP  0  0  0  0  0  0  0  0  0  0  0  0  # atno 17320 bound_to 7965
  145.8452  139.2149  143.1804 LP  0  0  0  0  0  0  0  0  0  0  0  0  # atno 17321 bound_to 7965
  140.0725  144.5768  150.7181 LP  0  0  0  0  0  0  0  0  0  0  0  0  # atno 17342 bound_to 10162
  140.7200  143.2580  151.4309 LP  0  0  0  0  0  0  0  0  0  0  0  0  # atno 17343 bound_to 10162
  157.1169  131.0236  151.3025 LP  0  0  0  0  0  0  0  0  0  0  0  0  # atno 17370 bound_to 10713
  157.4660  130.7681  149.7279 LP  0  0  0  0  0  0  0  0  0  0  0  0  # atno 17371 bound_to 10713
  140.4141  134.7246  157.4852 LP  0  0  0  0  0  0  0  0  0  0  0  0  # atno 17394 bound_to 11000
  140.0406  134.6272  155.8985 LP  0  0  0  0  0  0  0  0  0  0  0  0  # atno 17395 bound_to 11000

$$$$
