AV-unprocessed.smi:3137|AV-procd|sdf|11953|dock1
  -GOLD-   2272017353D 1   1.00000     0.00000
 Structure written by MMmdl.
 40 40  0  0  0  0  0  0  0  0  2 V2000
  144.9471  134.1103  151.3869 C   0  0  0  0  0  0  0  0  0  0  0  0
  144.7750  135.6292  151.2894 C   0  0  0  0  0  0  0  0  0  0  0  0
  145.5629  136.3021  152.3126 N   0  0  0  0  0  0  0  0  0  0  0  0
  145.0421  137.0176  153.3198 C   0  0  0  0  0  0  0  0  0  0  0  0
  143.8314  137.1785  153.4755 O   0  0  0  0  0  0  0  0  0  0  0  0
  146.0436  137.6500  154.2916 C   0  0  0  0  0  0  0  0  0  0  0  0
  146.6916  138.9298  153.7369 C   0  0  0  0  0  0  0  0  0  0  0  0
  148.1562  138.7689  153.6144 N   0  3  0  0  0  0  0  0  0  0  0  0
  148.9355  139.0019  154.8532 C   0  0  1  0  0  0  0  0  0  0  0  0
  150.2989  138.3095  154.7202 C   0  0  0  0  0  0  0  0  0  0  0  0
  149.1264  140.5096  155.1409 C   0  0  0  0  0  0  0  0  0  0  0  0
  149.8848  140.7844  156.3479 N   0  0  0  0  0  0  0  0  0  0  0  0
  150.2345  142.0067  156.8823 C   0  0  0  0  0  0  0  0  0  0  0  0
  150.9535  141.7676  158.0190 C   0  0  0  0  0  0  0  0  0  0  0  0
  151.5569  142.7578  158.9729 C   0  0  0  0  0  0  0  0  0  0  0  0
  151.0039  140.3462  158.0867 C   0  0  0  0  0  0  0  0  0  0  0  0
  150.3686  139.7616  157.0841 N   0  0  0  0  0  0  0  0  0  0  0  0
  144.3585  133.6045  150.6214 H   0  0  0  0  0  0  0  0  0  0  0  0
  144.6194  133.7369  152.3575 H   0  0  0  0  0  0  0  0  0  0  0  0
  145.9895  133.8209  151.2491 H   0  0  0  0  0  0  0  0  0  0  0  0
  145.0861  135.9747  150.3025 H   0  0  0  0  0  0  0  0  0  0  0  0
  143.7229  135.8921  151.4075 H   0  0  0  0  0  0  0  0  0  0  0  0
  146.5671  136.2181  152.2484 H   0  0  0  0  0  0  0  0  0  0  0  0
  145.5388  137.8733  155.2327 H   0  0  0  0  0  0  0  0  0  0  0  0
  146.8125  136.9100  154.5152 H   0  0  0  0  0  0  0  0  0  0  0  0
  146.2649  139.1663  152.7639 H   0  0  0  0  0  0  0  0  0  0  0  0
  146.4772  139.7722  154.3962 H   0  0  0  0  0  0  0  0  0  0  0  0
  148.3195  137.8120  153.3360 H   0  0  0  0  0  0  0  0  0  0  0  0
  148.4228  138.5274  155.6913 H   0  0  0  0  0  0  0  0  0  0  0  0
  150.8879  138.4237  155.6308 H   0  0  0  0  0  0  0  0  0  0  0  0
  150.8789  138.7249  153.8953 H   0  0  0  0  0  0  0  0  0  0  0  0
  150.1811  137.2403  154.5406 H   0  0  0  0  0  0  0  0  0  0  0  0
  149.6567  140.9817  154.3126 H   0  0  0  0  0  0  0  0  0  0  0  0
  148.1595  141.0101  155.2110 H   0  0  0  0  0  0  0  0  0  0  0  0
  149.9416  142.9372  156.4187 H   0  0  0  0  0  0  0  0  0  0  0  0
  151.8158  142.2961  159.9261 H   0  0  0  0  0  0  0  0  0  0  0  0
  150.8724  143.5780  159.1897 H   0  0  0  0  0  0  0  0  0  0  0  0
  152.4698  143.1976  158.5707 H   0  0  0  0  0  0  0  0  0  0  0  0
  151.4818  139.7255  158.8303 H   0  0  0  0  0  0  0  0  0  0  0  0
  148.5053  139.3754  152.8861 H   0  0  0  0  0  0  0  0  0  0  0  0
  1  2  1  0  0  0  0
  1 18  1  0  0  0  0
  1 19  1  0  0  0  0
  1 20  1  0  0  0  0
  2  3  1  0  0  0  0
  2 21  1  0  0  0  0
  2 22  1  0  0  0  0
  3  4  1  0  0  0  0
  3 23  1  0  0  0  0
  4  5  2  0  0  0  0
  4  6  1  0  0  0  0
  6  7  1  0  0  0  0
  6 24  1  0  0  0  0
  6 25  1  0  0  0  0
  7  8  1  0  0  0  0
  7 26  1  0  0  0  0
  7 27  1  0  0  0  0
  8  9  1  0  0  0  0
  8 28  1  0  0  0  0
  8 40  1  0  0  0  0
  9 10  1  0  0  0  0
  9 11  1  0  0  0  0
  9 29  1  0  0  0  0
 10 30  1  0  0  0  0
 10 31  1  0  0  0  0
 10 32  1  0  0  0  0
 11 12  1  0  0  0  0
 11 33  1  0  0  0  0
 11 34  1  0  0  0  0
 12 17  1  0  0  0  0
 12 13  1  0  0  0  0
 13 14  2  0  0  0  0
 13 35  1  0  0  0  0
 14 15  1  0  0  0  0
 14 16  1  0  0  0  0
 15 36  1  0  0  0  0
 15 37  1  0  0  0  0
 15 38  1  0  0  0  0
 16 17  2  0  0  0  0
 16 39  1  0  0  0  0
M  CHG  1   8   1
M  END
> <s_m_source_file>
AV-unprocessed.smi

> <i_m_source_file_index>
3137

> <i_lp_mmshare_version>
43012

> <i_f3d_flags>
0

> <s_epik_input>
W0NIM11bQ0gyXVtOSF1DKD1PKVtDSDJdW0NIMl1bTkhdW0NASF0oW0NIM10pW0NIMl1uMVtjSF1jKFtDSDNdKVtjSF1uMQ==

> <s_epik_cmdline>
J2VwaWtfcHl0aG9uJywgJy1waCcsICc3LjAnLCAnLXRuJywgJzgnLCAnLW1hJywgJzIwMCcsICctbWV0YWxfYmluZGluZycsICctaW1hZScsICc8aW5maWxlLm1hZT4nLCAnLW9tYWUnLCAnPG91dGZpbGUubWFlPic=

> <r_lp_tautomer_probability>
1

> <r_epik_Ionization_Penalty>
0.00598586

> <r_epik_Ionization_Penalty_Charging>
0.00597743

> <r_epik_Ionization_Penalty_Neutral>
8.43172e-06

> <r_epik_State_Penalty>
0.00439883

> <r_epik_Charging_Adjusted_Penalty>
0.0103763

> <i_epik_Tot_Q>
1

> <i_epik_Tot_abs_Q>
1

> <r_epik_Metal_State_Penalty>
-0

> <b_epik_Metal_Only>
0

> <s_lp_Force_Field>
OPLS_2005

> <r_lp_Energy>
6.05872

> <b_lp_Chiralities_Consistent>
1

> <s_lp_Variant>
AV-unprocessed.smi:3137-2

> <Gold.Version>
5.8.1

> <Gold.Id.Protein>
6NUR|6NUR_protein|mol2

> <Gold.PLP.Fitness>
46.1952

> <Gold.PLP.PLP>
-33.0480

> <Gold.PLP.part.hbond>
-2.8582

> <Gold.PLP.part.metal>
0.0000

> <Gold.PLP.part.buried>
-4.7977

> <Gold.PLP.part.nonpolar>
-26.1603

> <Gold.PLP.part.repulsive>
0.3340

> <Gold.PLP.ligand.clash>
0.0000

> <Gold.PLP.ligand.torsion>
0.9553

> <Gold.PLP.Chemscore.Hbond>
3.9750

> <Gold.PLP.Chemscore.CHOScore>
1.0000

> <Gold.PLP.Chemscore.Metal>
0.0000

> <Gold.Chemscore.Hbonds>
donor molecule, donor type, donor heavy atom, donor atom, acceptor molecule, acceptor atom, score
      L1  H     3    23       P1  7948  0.08
      L1  H     8    28       P1  7948  0.94
      L1  H     8    40       P1  7957  0.71
      L1  C    13    35       P1  8028  1.00

> <Gold.PLP.Chemscore.Internal.Correction>
0.1328

> <Gold.Rescore>
     Score         DG    S(hbond)    S(metal)    S(lipo)     H(rot)  DE(clash)    DE(int)     intcor
     17.41     -18.35       2.94        0.00      76.26       2.30       0.02       0.93       ----

> <Gold.Chemscore.Fitness>
17.4102

> <Gold.Chemscore.DG>
-18.3549

> <Gold.Chemscore.ZeroCoef>
-5.4800

> <Gold.Chemscore.Hbond>
2.9434

> <Gold.Chemscore.Metal>
0.0000

> <Gold.Chemscore.Lipo>
76.2600

> <Gold.Chemscore.Internal_Hbond>
0.0000

> <Gold.Chemscore.DEClash>
0.0156

> <Gold.Chemscore.DEInternal>
0.9292

> <Gold.Chemscore.Rot>
2.2963

> <Gold.Chemscore.Internal.Correction>
   9.000000E+99

> <Gold.Chemscore.Hbonds>
donor molecule, donor type, donor heavy atom, donor atom, acceptor molecule, acceptor atom, score
      L1  H     3    23       P1  7948  0.11
      L1  H     8    28       P1  7948  0.46
      L1  H     8    40       P1  7957  0.70

> <Gold.Chemscore.Hbond.Weighted>
-9.8311

> <Gold.Chemscore.Metal.Weighted>
-0.0000

> <Gold.Chemscore.Lipo.Weighted>
-8.9224

> <Gold.Chemscore.Internal_Hbond.Weighted>
0.0000

> <Gold.Chemscore.DEClash.Weighted>
0.0156

> <Gold.Chemscore.DEInternal.Weighted>
0.9292

> <Gold.Chemscore.Rot.Weighted>
5.8786

> <Gold.Chemscore.Internal.Correction.Weighted>
   9.000000E+99

> <Gold.Protein.RotatedTorsions>
[ 6907 6896 6895 6894 ] final -172.29 input  -60.11 | X-H torsion
[ 7974 7965 7964 7962 ] final   39.24 input  175.53 | X-H torsion
[ 8008 7997 7996 7995 ] final  -95.83 input   59.86 | X-H torsion
[ 10167 10162 10161 10158 ] final  -42.55 input  -65.29 | X-H torsion
[ 10718 10713 10712 10709 ] final  -14.87 input   66.30 | X-H torsion
[ 10763 10752 10751 10750 ] final  -37.60 input  -60.55 | X-H torsion
[ 11005 11000 10999 10996 ] final  163.37 input  -57.11 | X-H torsion

> <Gold.Protein.ActiveResidues>
 VAL166  LYS551  ARG553  GLY616  TRP617  ASP618  TYR619  PRO620  LYS621  CYS622 
 ASP623  PHE694  ASN695  SER759  ASP760  ASP761  ALA762  ILE779  LEU786  VAL792 
 PHE793  MET794  SER795  GLU796  ALA797  LYS798  CYS799  TRP800  GLU811  SER814 

> <Gold.Protein.RotatedAtoms>
  151.5376  133.3438  159.2929 H   0  0  0  0  0  0  0  0  0  0  0  0  # atno 6907 bound_to 6896
  150.8555  134.7895  159.7053 H   0  0  0  0  0  0  0  0  0  0  0  0  # atno 6908 bound_to 6896
  152.4590  134.5236  159.9841 H   0  0  0  0  0  0  0  0  0  0  0  0  # atno 6909 bound_to 6896
  146.0999  139.5675  142.9421 H   0  0  0  0  0  0  0  0  0  0  0  0  # atno 7974 bound_to 7965
  154.7665  140.0476  157.1017 H   0  0  0  0  0  0  0  0  0  0  0  0  # atno 8008 bound_to 7997
  154.9873  140.3109  155.4901 H   0  0  0  0  0  0  0  0  0  0  0  0  # atno 8009 bound_to 7997
  156.2914  140.2225  156.4975 H   0  0  0  0  0  0  0  0  0  0  0  0  # atno 8010 bound_to 7997
  140.6965  143.3031  151.3225 H   0  0  0  0  0  0  0  0  0  0  0  0  # atno 10167 bound_to 10162
  156.6098  130.4846  149.6206 H   0  0  0  0  0  0  0  0  0  0  0  0  # atno 10718 bound_to 10713
  153.8989  135.6804  153.4756 H   0  0  0  0  0  0  0  0  0  0  0  0  # atno 10763 bound_to 10752
  153.1140  135.4770  154.9081 H   0  0  0  0  0  0  0  0  0  0  0  0  # atno 10764 bound_to 10752
  154.7585  135.3204  154.8378 H   0  0  0  0  0  0  0  0  0  0  0  0  # atno 10765 bound_to 10752
  140.2351  134.8094  157.3356 H   0  0  0  0  0  0  0  0  0  0  0  0  # atno 11005 bound_to 11000
  145.5874  141.0374  143.2089 LP  0  0  0  0  0  0  0  0  0  0  0  0  # atno 17320 bound_to 7965
  144.7425  139.7411  143.7305 LP  0  0  0  0  0  0  0  0  0  0  0  0  # atno 17321 bound_to 7965
  139.6427  144.0509  152.2567 LP  0  0  0  0  0  0  0  0  0  0  0  0  # atno 17342 bound_to 10162
  140.0020  144.6287  150.7722 LP  0  0  0  0  0  0  0  0  0  0  0  0  # atno 17343 bound_to 10162
  156.2399  130.6845  151.1546 LP  0  0  0  0  0  0  0  0  0  0  0  0  # atno 17370 bound_to 10713
  157.7257  131.0651  150.5941 LP  0  0  0  0  0  0  0  0  0  0  0  0  # atno 17371 bound_to 10713
  140.1710  134.4608  155.7831 LP  0  0  0  0  0  0  0  0  0  0  0  0  # atno 17394 bound_to 11000
  141.2215  133.6942  156.7708 LP  0  0  0  0  0  0  0  0  0  0  0  0  # atno 17395 bound_to 11000

$$$$
