AV-unprocessed.smi:1983|AV-procd|sdf|8039|dock1
  -GOLD-   2272010233D 1   1.00000     0.00000
 Structure written by MMmdl.
 50 51  0  0  0  0  0  0  0  0  2 V2000
  147.0054  134.9638  155.9388 C   0  0  0  0  0  0  0  0  0  0  0  0
  148.4254  134.9760  155.3526 C   0  0  1  0  0  0  0  0  0  0  0  0
  148.7864  133.6430  154.6680 C   0  0  0  0  0  0  0  0  0  0  0  0
  148.4016  133.6646  153.3098 O   0  0  0  0  0  0  0  0  0  0  0  0
  148.5400  136.0791  154.4022 N   0  0  0  0  0  0  0  0  0  0  0  0
  148.4011  137.3783  154.7015 C   0  0  0  0  0  0  0  0  0  0  0  0
  148.1636  137.8074  155.8306 O   0  0  0  0  0  0  0  0  0  0  0  0
  148.5626  138.1581  153.6233 N   0  0  0  0  0  0  0  0  0  0  0  0
  148.4498  139.6140  153.6236 C   0  0  0  0  0  0  0  0  0  0  0  0
  149.2375  140.3159  154.7225 C   0  0  0  0  0  0  0  0  0  0  0  0
  150.2347  139.6501  155.4697 C   0  0  0  0  0  0  0  0  0  0  0  0
  150.9329  140.3464  156.4776 C   0  0  0  0  0  0  0  0  0  0  0  0
  150.6371  141.7103  156.7285 C   0  0  0  0  0  0  0  0  0  0  0  0
  151.2735  142.4847  157.7228 N   0  0  0  0  0  0  0  0  0  0  0  0
  152.2111  141.8216  158.6219 C   0  0  0  0  0  0  0  0  0  0  0  0
  152.5001  142.7061  159.8476 C   0  0  1  0  0  0  0  0  0  0  0  0
  153.5904  142.1055  160.7409 C   0  0  0  0  0  0  0  0  0  0  0  0
  152.9391  143.9928  159.4166 O   0  0  0  0  0  0  0  0  0  0  0  0
  152.0154  144.6893  158.5778 C   0  0  2  0  0  0  0  0  0  0  0  0
  150.7753  145.1747  159.3498 C   0  0  0  0  0  0  0  0  0  0  0  0
  151.6743  143.8372  157.3400 C   0  0  0  0  0  0  0  0  0  0  0  0
  149.6788  142.3043  155.9762 N   0  3  0  0  0  0  0  0  0  0  0  0
  148.9851  141.6735  155.0045 C   0  0  0  0  0  0  0  0  0  0  0  0
  146.8932  134.1764  156.6845 H   0  0  0  0  0  0  0  0  0  0  0  0
  146.2563  134.7961  155.1643 H   0  0  0  0  0  0  0  0  0  0  0  0
  146.7740  135.9108  156.4275 H   0  0  0  0  0  0  0  0  0  0  0  0
  149.1256  135.1543  156.1714 H   0  0  0  0  0  0  0  0  0  0  0  0
  149.8550  133.4394  154.7436 H   0  0  0  0  0  0  0  0  0  0  0  0
  148.2662  132.8112  155.1444 H   0  0  0  0  0  0  0  0  0  0  0  0
  148.4898  134.5480  152.9859 H   0  0  0  0  0  0  0  0  0  0  0  0
  148.7353  135.8303  153.4437 H   0  0  0  0  0  0  0  0  0  0  0  0
  148.7528  137.7137  152.7369 H   0  0  0  0  0  0  0  0  0  0  0  0
  148.8046  139.9818  152.6607 H   0  0  0  0  0  0  0  0  0  0  0  0
  147.3967  139.8924  153.6911 H   0  0  0  0  0  0  0  0  0  0  0  0
  150.4679  138.6129  155.2792 H   0  0  0  0  0  0  0  0  0  0  0  0
  151.6923  139.8183  157.0343 H   0  0  0  0  0  0  0  0  0  0  0  0
  151.8002  140.8722  158.9660 H   0  0  0  0  0  0  0  0  0  0  0  0
  153.1339  141.6062  158.0813 H   0  0  0  0  0  0  0  0  0  0  0  0
  151.5950  142.8081  160.4465 H   0  0  0  0  0  0  0  0  0  0  0  0
  153.2970  141.1235  161.1127 H   0  0  0  0  0  0  0  0  0  0  0  0
  153.7822  142.7434  161.6042 H   0  0  0  0  0  0  0  0  0  0  0  0
  154.5286  141.9911  160.1971 H   0  0  0  0  0  0  0  0  0  0  0  0
  152.5364  145.5818  158.2305 H   0  0  0  0  0  0  0  0  0  0  0  0
  150.1608  145.8220  158.7238 H   0  0  0  0  0  0  0  0  0  0  0  0
  151.0659  145.7486  160.2299 H   0  0  0  0  0  0  0  0  0  0  0  0
  150.1424  144.3514  159.6801 H   0  0  0  0  0  0  0  0  0  0  0  0
  152.5516  143.7604  156.6962 H   0  0  0  0  0  0  0  0  0  0  0  0
  150.9032  144.3434  156.7592 H   0  0  0  0  0  0  0  0  0  0  0  0
  148.2474  142.2719  154.4895 H   0  0  0  0  0  0  0  0  0  0  0  0
  149.4630  143.2846  156.1586 H   0  0  0  0  0  0  0  0  0  0  0  0
  1  2  1  0  0  0  0
  1 24  1  0  0  0  0
  1 25  1  0  0  0  0
  1 26  1  0  0  0  0
  2  3  1  0  0  0  0
  2  5  1  0  0  0  0
  2 27  1  0  0  0  0
  3  4  1  0  0  0  0
  3 28  1  0  0  0  0
  3 29  1  0  0  0  0
  4 30  1  0  0  0  0
  5  6  1  0  0  0  0
  5 31  1  0  0  0  0
  6  7  2  0  0  0  0
  6  8  1  0  0  0  0
  8  9  1  0  0  0  0
  8 32  1  0  0  0  0
  9 10  1  0  0  0  0
  9 33  1  0  0  0  0
  9 34  1  0  0  0  0
 10 23  1  0  0  0  0
 10 11  2  0  0  0  0
 11 12  1  0  0  0  0
 11 35  1  0  0  0  0
 12 13  2  0  0  0  0
 12 36  1  0  0  0  0
 13 14  1  0  0  0  0
 13 22  1  0  0  0  0
 14 21  1  0  0  0  0
 14 15  1  0  0  0  0
 15 16  1  0  0  0  0
 15 37  1  0  0  0  0
 15 38  1  0  0  0  0
 16 17  1  0  0  0  0
 16 18  1  0  0  0  0
 16 39  1  0  0  0  0
 17 40  1  0  0  0  0
 17 41  1  0  0  0  0
 17 42  1  0  0  0  0
 18 19  1  0  0  0  0
 19 20  1  0  0  0  0
 19 21  1  0  0  0  0
 19 43  1  0  0  0  0
 20 44  1  0  0  0  0
 20 45  1  0  0  0  0
 20 46  1  0  0  0  0
 21 47  1  0  0  0  0
 21 48  1  0  0  0  0
 22 23  2  0  0  0  0
 22 50  1  0  0  0  0
 23 49  1  0  0  0  0
M  CHG  1  22   1
M  END
> <s_m_source_file>
AV-unprocessed.smi

> <i_m_source_file_index>
1983

> <i_lp_mmshare_version>
43012

> <i_f3d_flags>
0

> <s_epik_input>
W09IXVtDSDJdW0NAQEhdKFtDSDNdKVtOSF1DKD1PKVtOSF1bQ0gyXWMxW2NIXVtjSF1jKG5bY0hdMSlOMltDSDJdW0NAQEhdKFtDSDNdKU9bQ0BASF0oW0NIM10pW0NIMl0y

> <s_epik_cmdline>
J2VwaWtfcHl0aG9uJywgJy1waCcsICc3LjAnLCAnLXRuJywgJzgnLCAnLW1hJywgJzIwMCcsICctbWV0YWxfYmluZGluZycsICctaW1hZScsICc8aW5maWxlLm1hZT4nLCAnLW9tYWUnLCAnPG91dGZpbGUubWFlPic=

> <r_lp_tautomer_probability>
0.999994

> <r_epik_Ionization_Penalty>
2.55677

> <r_epik_Ionization_Penalty_Charging>
2.55673

> <r_epik_Ionization_Penalty_Neutral>
3.71772e-05

> <r_epik_State_Penalty>
2.72571

> <r_epik_Charging_Adjusted_Penalty>
5.28244

> <i_epik_Tot_Q>
1

> <i_epik_Tot_abs_Q>
1

> <r_epik_Metal_State_Penalty>
2.73364

> <b_epik_Metal_Only>
0

> <s_lp_Force_Field>
OPLS_2005

> <r_lp_Energy>
21.4539

> <b_lp_Chiralities_Consistent>
1

> <s_lp_Variant>
AV-unprocessed.smi:1983-12

> <Gold.Version>
5.8.1

> <Gold.Id.Protein>
6NUR|6NUR_protein|mol2

> <Gold.PLP.Fitness>
54.0148

> <Gold.PLP.PLP>
-40.2209

> <Gold.PLP.part.hbond>
-4.2159

> <Gold.PLP.part.metal>
0.0000

> <Gold.PLP.part.buried>
-1.6682

> <Gold.PLP.part.nonpolar>
-35.9655

> <Gold.PLP.part.repulsive>
0.2432

> <Gold.PLP.ligand.clash>
0.0000

> <Gold.PLP.ligand.torsion>
0.8137

> <Gold.PLP.Chemscore.Hbond>
4.9760

> <Gold.PLP.Chemscore.CHOScore>
0.0000

> <Gold.PLP.Chemscore.Metal>
0.0000

> <Gold.Chemscore.Hbonds>
donor molecule, donor type, donor heavy atom, donor atom, acceptor molecule, acceptor atom, score
      L1  H     4    30       P1  7948  0.99
      L1  H     5    31       P1  7948  1.00
      L1  H     8    32       P1  7948  0.98
      L1  H    22    50       P1  8028  2.00

> <Gold.PLP.Chemscore.Internal.Correction>
0.4933

> <Gold.Rescore>
     Score         DG    S(hbond)    S(metal)    S(lipo)     H(rot)  DE(clash)    DE(int)     intcor
     20.36     -21.87       3.22        0.00     106.35       2.66       0.69       0.81       ----

> <Gold.Chemscore.Fitness>
20.3627

> <Gold.Chemscore.DG>
-21.8674

> <Gold.Chemscore.ZeroCoef>
-5.4800

> <Gold.Chemscore.Hbond>
3.2226

> <Gold.Chemscore.Metal>
0.0000

> <Gold.Chemscore.Lipo>
106.3499

> <Gold.Chemscore.Internal_Hbond>
0.0000

> <Gold.Chemscore.DEClash>
0.6935

> <Gold.Chemscore.DEInternal>
0.8113

> <Gold.Chemscore.Rot>
2.6637

> <Gold.Chemscore.Internal.Correction>
   9.000000E+99

> <Gold.Chemscore.Hbonds>
donor molecule, donor type, donor heavy atom, donor atom, acceptor molecule, acceptor atom, score
      L1  H     4    30       P1  7948  0.28
      L1  H     5    31       P1  7948  0.95
      L1  H     8    32       P1  7948  0.93
      L1  H    22    50       P1  8028  0.94

> <Gold.Chemscore.Hbond.Weighted>
-10.7636

> <Gold.Chemscore.Metal.Weighted>
-0.0000

> <Gold.Chemscore.Lipo.Weighted>
-12.4429

> <Gold.Chemscore.Internal_Hbond.Weighted>
0.0000

> <Gold.Chemscore.DEClash.Weighted>
0.6935

> <Gold.Chemscore.DEInternal.Weighted>
0.8113

> <Gold.Chemscore.Rot.Weighted>
6.8191

> <Gold.Chemscore.Internal.Correction.Weighted>
   9.000000E+99

> <Gold.Protein.RotatedTorsions>
[ 6907 6896 6895 6894 ] final -176.85 input  -60.11 | X-H torsion
[ 7974 7965 7964 7962 ] final  160.66 input  175.53 | X-H torsion
[ 8008 7997 7996 7995 ] final   99.07 input   59.86 | X-H torsion
[ 10167 10162 10161 10158 ] final   67.60 input  -65.29 | X-H torsion
[ 10718 10713 10712 10709 ] final  112.94 input   66.30 | X-H torsion
[ 10763 10752 10751 10750 ] final  131.17 input  -60.55 | X-H torsion
[ 11005 11000 10999 10996 ] final  -79.69 input  -57.11 | X-H torsion

> <Gold.Protein.ActiveResidues>
 VAL166  LYS551  ARG553  GLY616  TRP617  ASP618  TYR619  PRO620  LYS621  CYS622 
 ASP623  PHE694  ASN695  SER759  ASP760  ASP761  ALA762  ILE779  LEU786  VAL792 
 PHE793  MET794  SER795  GLU796  ALA797  LYS798  CYS799  TRP800  GLU811  SER814 

> <Gold.Protein.RotatedAtoms>
  151.6114  133.3347  159.3068 H   0  0  0  0  0  0  0  0  0  0  0  0  # atno 6907 bound_to 6896
  150.8154  134.7337  159.6737 H   0  0  0  0  0  0  0  0  0  0  0  0  # atno 6908 bound_to 6896
  152.4250  134.5890  160.0020 H   0  0  0  0  0  0  0  0  0  0  0  0  # atno 6909 bound_to 6896
  144.7725  139.7789  143.6291 H   0  0  0  0  0  0  0  0  0  0  0  0  # atno 7974 bound_to 7965
  156.1068  140.3234  155.8017 H   0  0  0  0  0  0  0  0  0  0  0  0  # atno 8008 bound_to 7997
  155.4742  140.0549  157.2993 H   0  0  0  0  0  0  0  0  0  0  0  0  # atno 8009 bound_to 7997
  154.4733  140.2021  155.9955 H   0  0  0  0  0  0  0  0  0  0  0  0  # atno 8010 bound_to 7997
  140.0877  144.5015  150.7119 H   0  0  0  0  0  0  0  0  0  0  0  0  # atno 10167 bound_to 10162
  157.6365  131.0976  150.6969 H   0  0  0  0  0  0  0  0  0  0  0  0  # atno 10718 bound_to 10713
  153.7699  135.3183  155.3350 H   0  0  0  0  0  0  0  0  0  0  0  0  # atno 10763 bound_to 10752
  154.8200  135.4610  154.0754 H   0  0  0  0  0  0  0  0  0  0  0  0  # atno 10764 bound_to 10752
  153.2011  135.6922  153.8315 H   0  0  0  0  0  0  0  0  0  0  0  0  # atno 10765 bound_to 10752
  141.1667  133.7117  156.8160 H   0  0  0  0  0  0  0  0  0  0  0  0  # atno 11005 bound_to 11000
  146.1882  139.5108  142.9822 LP  0  0  0  0  0  0  0  0  0  0  0  0  # atno 17320 bound_to 7965
  145.6281  141.0309  143.1878 LP  0  0  0  0  0  0  0  0  0  0  0  0  # atno 17321 bound_to 7965
  140.7045  143.2458  151.4768 LP  0  0  0  0  0  0  0  0  0  0  0  0  # atno 17342 bound_to 10162
  139.5742  144.1856  152.1880 LP  0  0  0  0  0  0  0  0  0  0  0  0  # atno 17343 bound_to 10162
  156.7299  130.4706  149.5502 LP  0  0  0  0  0  0  0  0  0  0  0  0  # atno 17370 bound_to 10713
  156.1609  130.6373  151.0717 LP  0  0  0  0  0  0  0  0  0  0  0  0  # atno 17371 bound_to 10713
  140.2153  134.8797  157.3319 LP  0  0  0  0  0  0  0  0  0  0  0  0  # atno 17394 bound_to 11000
  140.2044  134.4215  155.7645 LP  0  0  0  0  0  0  0  0  0  0  0  0  # atno 17395 bound_to 11000

$$$$
