AV-unprocessed.smi:2822|AV-procd|sdf|10873|dock2
  -GOLD-   2272015313D 1   1.00000     0.00000
 Structure written by MMmdl.
 40 42  0  0  0  0  0  0  0  0  2 V2000
  149.9325  138.0351  154.3793 Cl  0  0  0  0  0  0  0  0  0  0  0  0
  148.9852  139.4302  153.9957 C   0  0  0  0  0  0  0  0  0  0  0  0
  149.4572  140.7126  154.3436 C   0  0  0  0  0  0  0  0  0  0  0  0
  148.7814  141.8508  154.0809 N   0  0  0  0  0  0  0  0  0  0  0  0
  147.5925  141.7441  153.4523 C   0  0  0  0  0  0  0  0  0  0  0  0
  147.0293  140.5131  153.0602 C   0  0  0  0  0  0  0  0  0  0  0  0
  147.7393  139.3206  153.3356 C   0  0  0  0  0  0  0  0  0  0  0  0
  147.2513  138.0529  152.9827 N   0  0  0  0  0  0  0  0  0  0  0  0
  145.8203  137.7970  152.9256 C   0  0  0  0  0  0  0  0  0  0  0  0
  145.5182  136.3746  152.4338 C   0  0  1  0  0  0  0  0  0  0  0  0
  145.7977  136.2308  150.9208 C   0  0  0  0  0  0  0  0  0  0  0  0
  145.6325  134.8294  150.4651 N   0  3  2  0  0  0  0  0  0  0  0  0
  144.2100  134.4227  150.3029 C   0  0  0  0  0  0  0  0  0  0  0  0
  144.0978  132.9896  149.7628 C   0  0  0  0  0  0  0  0  0  0  0  0
  144.8347  132.0074  150.6801 C   0  0  0  0  0  0  0  0  0  0  0  0
  146.2994  132.4387  150.8343 C   0  0  0  0  0  0  0  0  0  0  0  0
  146.4379  133.9016  151.3066 C   0  0  2  0  0  0  0  0  0  0  0  0
  146.1211  134.1098  152.8026 C   0  0  0  0  0  0  0  0  0  0  0  0
  146.3593  135.4704  153.1448 O   0  0  0  0  0  0  0  0  0  0  0  0
  150.4050  140.8289  154.8483 H   0  0  0  0  0  0  0  0  0  0  0  0
  147.0710  142.6691  153.2560 H   0  0  0  0  0  0  0  0  0  0  0  0
  146.0710  140.5069  152.5634 H   0  0  0  0  0  0  0  0  0  0  0  0
  147.8751  137.4039  152.5239 H   0  0  0  0  0  0  0  0  0  0  0  0
  145.4075  137.9273  153.9267 H   0  0  0  0  0  0  0  0  0  0  0  0
  145.3387  138.5296  152.2766 H   0  0  0  0  0  0  0  0  0  0  0  0
  144.4721  136.1454  152.6432 H   0  0  0  0  0  0  0  0  0  0  0  0
  145.1528  136.8925  150.3413 H   0  0  0  0  0  0  0  0  0  0  0  0
  146.8231  136.5375  150.7092 H   0  0  0  0  0  0  0  0  0  0  0  0
  143.6782  134.4967  151.2514 H   0  0  0  0  0  0  0  0  0  0  0  0
  143.7158  135.1090  149.6144 H   0  0  0  0  0  0  0  0  0  0  0  0
  143.0488  132.7045  149.6766 H   0  0  0  0  0  0  0  0  0  0  0  0
  144.5164  132.9408  148.7566 H   0  0  0  0  0  0  0  0  0  0  0  0
  144.3482  131.9708  151.6553 H   0  0  0  0  0  0  0  0  0  0  0  0
  144.7826  130.9989  150.2686 H   0  0  0  0  0  0  0  0  0  0  0  0
  146.8186  131.7687  151.5204 H   0  0  0  0  0  0  0  0  0  0  0  0
  146.7994  132.3293  149.8709 H   0  0  0  0  0  0  0  0  0  0  0  0
  147.4840  134.1790  151.1662 H   0  0  0  0  0  0  0  0  0  0  0  0
  145.0944  133.8344  153.0465 H   0  0  0  0  0  0  0  0  0  0  0  0
  146.7687  133.4820  153.4148 H   0  0  0  0  0  0  0  0  0  0  0  0
  146.0285  134.7841  149.5368 H   0  0  0  0  0  0  0  0  0  0  0  0
  1  2  1  0  0  0  0
  2  7  1  0  0  0  0
  2  3  2  0  0  0  0
  3  4  1  0  0  0  0
  3 20  1  0  0  0  0
  4  5  2  0  0  0  0
  5  6  1  0  0  0  0
  5 21  1  0  0  0  0
  6  7  2  0  0  0  0
  6 22  1  0  0  0  0
  7  8  1  0  0  0  0
  8  9  1  0  0  0  0
  8 23  1  0  0  0  0
  9 10  1  0  0  0  0
  9 24  1  0  0  0  0
  9 25  1  0  0  0  0
 10 19  1  0  0  0  0
 10 11  1  0  0  0  0
 10 26  1  0  0  0  0
 11 12  1  0  0  0  0
 11 27  1  0  0  0  0
 11 28  1  0  0  0  0
 12 17  1  0  0  0  0
 12 13  1  0  0  0  0
 12 40  1  0  0  0  0
 13 14  1  0  0  0  0
 13 29  1  0  0  0  0
 13 30  1  0  0  0  0
 14 15  1  0  0  0  0
 14 31  1  0  0  0  0
 14 32  1  0  0  0  0
 15 16  1  0  0  0  0
 15 33  1  0  0  0  0
 15 34  1  0  0  0  0
 16 17  1  0  0  0  0
 16 35  1  0  0  0  0
 16 36  1  0  0  0  0
 17 18  1  0  0  0  0
 17 37  1  0  0  0  0
 18 19  1  0  0  0  0
 18 38  1  0  0  0  0
 18 39  1  0  0  0  0
M  CHG  1  12   1
M  END
> <s_m_source_file>
AV-unprocessed.smi

> <i_m_source_file_index>
2822

> <i_lp_mmshare_version>
43012

> <i_f3d_flags>
0

> <s_epik_input>
Q2xjMVtjSF1uW2NIXVtjSF1jMVtOSF1bQ0gyXVtDQEhdKFtDSDJdMilPW0NIMl1bQ0BASF0oTjIzKVtDSDJdW0NIMl1bQ0gyXVtDSDJdMw==

> <s_epik_cmdline>
J2VwaWtfcHl0aG9uJywgJy1waCcsICc3LjAnLCAnLXRuJywgJzgnLCAnLW1hJywgJzIwMCcsICctbWV0YWxfYmluZGluZycsICctaW1hZScsICc8aW5maWxlLm1hZT4nLCAnLW9tYWUnLCAnPG91dGZpbGUubWFlPic=

> <r_lp_tautomer_probability>
0.999999

> <r_epik_Ionization_Penalty>
0.88937

> <r_epik_Ionization_Penalty_Charging>
0.0803403

> <r_epik_Ionization_Penalty_Neutral>
0.80903

> <r_epik_State_Penalty>
0.931884

> <r_epik_Charging_Adjusted_Penalty>
1.01222

> <i_epik_Tot_Q>
1

> <i_epik_Tot_abs_Q>
1

> <r_epik_Metal_State_Penalty>
0.0782275

> <b_epik_Metal_Only>
0

> <s_lp_Force_Field>
OPLS_2005

> <r_lp_Energy>
32.5478

> <b_lp_Chiralities_Consistent>
1

> <s_lp_Variant>
AV-unprocessed.smi:2822-14

> <Gold.Version>
5.8.1

> <Gold.Id.Protein>
6NUR|6NUR_protein|mol2

> <Gold.PLP.Fitness>
41.2674

> <Gold.PLP.PLP>
-35.5712

> <Gold.PLP.part.hbond>
-3.0000

> <Gold.PLP.part.metal>
0.0000

> <Gold.PLP.part.buried>
-1.5385

> <Gold.PLP.part.nonpolar>
-31.0079

> <Gold.PLP.part.repulsive>
0.8864

> <Gold.PLP.ligand.clash>
0.0000

> <Gold.PLP.ligand.torsion>
0.2763

> <Gold.PLP.Chemscore.Hbond>
2.0824

> <Gold.PLP.Chemscore.CHOScore>
0.0000

> <Gold.PLP.Chemscore.Metal>
0.0000

> <Gold.Chemscore.Hbonds>
donor molecule, donor type, donor heavy atom, donor atom, acceptor molecule, acceptor atom, score
      L1  H     8    23       P1  7948  1.00
      L1  H    12    40       P1  7921  1.00
      P1  H  8011  8017       L1     4  0.25

> <Gold.PLP.Chemscore.Internal.Correction>
0.0018

> <Gold.Rescore>
     Score         DG    S(hbond)    S(metal)    S(lipo)     H(rot)  DE(clash)    DE(int)     intcor
     20.34     -20.81       1.88        0.00     102.97       1.17       0.25       0.22       ----

> <Gold.Chemscore.Fitness>
20.3351

> <Gold.Chemscore.DG>
-20.8101

> <Gold.Chemscore.ZeroCoef>
-5.4800

> <Gold.Chemscore.Hbond>
1.8792

> <Gold.Chemscore.Metal>
0.0000

> <Gold.Chemscore.Lipo>
102.9660

> <Gold.Chemscore.Internal_Hbond>
0.0000

> <Gold.Chemscore.DEClash>
0.2548

> <Gold.Chemscore.DEInternal>
0.2202

> <Gold.Chemscore.Rot>
1.1693

> <Gold.Chemscore.Internal.Correction>
   9.000000E+99

> <Gold.Chemscore.Hbonds>
donor molecule, donor type, donor heavy atom, donor atom, acceptor molecule, acceptor atom, score
      L1  H     8    23       P1  7948  1.00
      L1  H    12    40       P1  7921  0.65

> <Gold.Chemscore.Hbond.Weighted>
-6.2765

> <Gold.Chemscore.Metal.Weighted>
-0.0000

> <Gold.Chemscore.Lipo.Weighted>
-12.0470

> <Gold.Chemscore.Internal_Hbond.Weighted>
0.0000

> <Gold.Chemscore.DEClash.Weighted>
0.2548

> <Gold.Chemscore.DEInternal.Weighted>
0.2202

> <Gold.Chemscore.Rot.Weighted>
2.9934

> <Gold.Chemscore.Internal.Correction.Weighted>
   9.000000E+99

> <Gold.Protein.RotatedTorsions>
[ 6907 6896 6895 6894 ] final   83.30 input  -60.11 | X-H torsion
[ 7974 7965 7964 7962 ] final -133.43 input  175.53 | X-H torsion
[ 8008 7997 7996 7995 ] final   74.46 input   59.86 | X-H torsion
[ 10167 10162 10161 10158 ] final  -83.35 input  -65.29 | X-H torsion
[ 10718 10713 10712 10709 ] final   79.04 input   66.30 | X-H torsion
[ 10763 10752 10751 10750 ] final  125.28 input  -60.55 | X-H torsion
[ 11005 11000 10999 10996 ] final  104.22 input  -57.11 | X-H torsion

> <Gold.Protein.ActiveResidues>
 VAL166  LYS551  ARG553  GLY616  TRP617  ASP618  TYR619  PRO620  LYS621  CYS622 
 ASP623  PHE694  ASN695  SER759  ASP760  ASP761  ALA762  ILE779  LEU786  VAL792 
 PHE793  MET794  SER795  GLU796  ALA797  LYS798  CYS799  TRP800  GLU811  SER814 

> <Gold.Protein.RotatedAtoms>
  152.5323  134.2917  159.9045 H   0  0  0  0  0  0  0  0  0  0  0  0  # atno 6907 bound_to 6896
  151.2869  133.4177  159.2638 H   0  0  0  0  0  0  0  0  0  0  0  0  # atno 6908 bound_to 6896
  151.0234  134.9502  159.8129 H   0  0  0  0  0  0  0  0  0  0  0  0  # atno 6909 bound_to 6896
  144.9194  140.6995  143.4975 H   0  0  0  0  0  0  0  0  0  0  0  0  # atno 7974 bound_to 7965
  155.7986  140.3477  155.5390 H   0  0  0  0  0  0  0  0  0  0  0  0  # atno 8008 bound_to 7997
  155.8561  140.0964  157.1664 H   0  0  0  0  0  0  0  0  0  0  0  0  # atno 8009 bound_to 7997
  154.4010  140.1367  156.3891 H   0  0  0  0  0  0  0  0  0  0  0  0  # atno 8010 bound_to 7997
  140.4234  143.2575  151.8858 H   0  0  0  0  0  0  0  0  0  0  0  0  # atno 10167 bound_to 10162
  157.6764  130.9896  150.1874 H   0  0  0  0  0  0  0  0  0  0  0  0  # atno 10718 bound_to 10713
  153.6748  135.3324  155.3163 H   0  0  0  0  0  0  0  0  0  0  0  0  # atno 10763 bound_to 10752
  154.8481  135.4395  154.1668 H   0  0  0  0  0  0  0  0  0  0  0  0  # atno 10764 bound_to 10752
  153.2668  135.6996  153.7597 H   0  0  0  0  0  0  0  0  0  0  0  0  # atno 10765 bound_to 10752
  139.8790  134.9292  156.5328 H   0  0  0  0  0  0  0  0  0  0  0  0  # atno 11005 bound_to 11000
  145.3321  139.1756  143.4531 LP  0  0  0  0  0  0  0  0  0  0  0  0  # atno 17320 bound_to 7965
  146.3197  140.3352  142.8643 LP  0  0  0  0  0  0  0  0  0  0  0  0  # atno 17321 bound_to 7965
  139.4783  144.5412  151.8525 LP  0  0  0  0  0  0  0  0  0  0  0  0  # atno 17342 bound_to 10162
  140.4508  144.1858  150.5897 LP  0  0  0  0  0  0  0  0  0  0  0  0  # atno 17343 bound_to 10162
  156.2593  130.3709  149.8148 LP  0  0  0  0  0  0  0  0  0  0  0  0  # atno 17370 bound_to 10713
  156.5897  130.8501  151.3405 LP  0  0  0  0  0  0  0  0  0  0  0  0  # atno 17371 bound_to 10713
  140.8368  133.8236  155.9036 LP  0  0  0  0  0  0  0  0  0  0  0  0  # atno 17394 bound_to 11000
  140.9276  134.2063  157.4885 LP  0  0  0  0  0  0  0  0  0  0  0  0  # atno 17395 bound_to 11000

$$$$
