AV-unprocessed.smi:1639|AV-procd|sdf|6549|dock2
  -GOLD-   22720 7233D 1   1.00000     0.00000
 Structure written by MMmdl.
 37 38  0  0  0  0  0  0  0  0  1 V2000
  151.4969  145.5111  160.0033 C   0  0  0  0  0  0  0  0  0  0  0  0
  152.0643  144.4209  159.0916 C   0  0  0  0  0  0  0  0  0  0  0  0
  152.4785  143.3251  159.8941 O   0  0  0  0  0  0  0  0  0  0  0  0
  153.0260  142.2337  159.1653 C   0  0  1  0  0  0  0  0  0  0  0  0
  153.4763  141.1036  160.1117 C   0  0  0  0  0  0  0  0  0  0  0  0
  153.9238  139.8807  159.2979 C   0  0  0  0  0  0  0  0  0  0  0  0
  152.8196  139.4223  158.3315 C   0  0  0  0  0  0  0  0  0  0  0  0
  152.3673  140.5279  157.4855 N   0  0  0  0  0  0  0  0  0  0  0  0
  151.6310  140.1526  156.3408 C   0  0  0  0  0  0  0  0  0  0  0  0
  150.4953  140.8933  155.9333 C   0  0  0  0  0  0  0  0  0  0  0  0
  149.8223  140.4450  154.7773 C   0  0  0  0  0  0  0  0  0  0  0  0
  148.5956  141.1592  154.2503 C   0  0  0  0  0  0  0  0  0  0  0  0
  150.2373  139.3619  154.0856 N   0  0  0  0  0  0  0  0  0  0  0  0
  151.3146  138.7326  154.5559 C   0  0  0  0  0  0  0  0  0  0  0  0
  151.7352  137.6277  153.8573 N   0  0  0  0  0  0  0  0  0  0  0  0
  152.0260  139.0631  155.6350 N   0  0  0  0  0  0  0  0  0  0  0  0
  151.9330  141.7267  158.2071 C   0  0  0  0  0  0  0  0  0  0  0  0
  151.1606  146.3695  159.4217 H   0  0  0  0  0  0  0  0  0  0  0  0
  152.2496  145.8600  160.7104 H   0  0  0  0  0  0  0  0  0  0  0  0
  150.6459  145.1395  160.5746 H   0  0  0  0  0  0  0  0  0  0  0  0
  151.3005  144.1002  158.3816 H   0  0  0  0  0  0  0  0  0  0  0  0
  152.9005  144.8217  158.5190 H   0  0  0  0  0  0  0  0  0  0  0  0
  153.8730  142.5734  158.5662 H   0  0  0  0  0  0  0  0  0  0  0  0
  154.2946  141.4320  160.7517 H   0  0  0  0  0  0  0  0  0  0  0  0
  152.6539  140.8245  160.7714 H   0  0  0  0  0  0  0  0  0  0  0  0
  154.8233  140.1282  158.7326 H   0  0  0  0  0  0  0  0  0  0  0  0
  154.1940  139.0643  159.9680 H   0  0  0  0  0  0  0  0  0  0  0  0
  153.1940  138.5872  157.7413 H   0  0  0  0  0  0  0  0  0  0  0  0
  151.9652  139.0462  158.8960 H   0  0  0  0  0  0  0  0  0  0  0  0
  150.1426  141.7536  156.4823 H   0  0  0  0  0  0  0  0  0  0  0  0
  148.1870  141.8394  154.9980 H   0  0  0  0  0  0  0  0  0  0  0  0
  147.8183  140.4425  153.9837 H   0  0  0  0  0  0  0  0  0  0  0  0
  148.8493  141.7385  153.3623 H   0  0  0  0  0  0  0  0  0  0  0  0
  151.2368  137.3275  153.0325 H   0  0  0  0  0  0  0  0  0  0  0  0
  152.5999  137.1687  154.1036 H   0  0  0  0  0  0  0  0  0  0  0  0
  151.0239  141.4953  158.7643 H   0  0  0  0  0  0  0  0  0  0  0  0
  151.6858  142.5218  157.5026 H   0  0  0  0  0  0  0  0  0  0  0  0
  1  2  1  0  0  0  0
  1 18  1  0  0  0  0
  1 19  1  0  0  0  0
  1 20  1  0  0  0  0
  2  3  1  0  0  0  0
  2 21  1  0  0  0  0
  2 22  1  0  0  0  0
  3  4  1  0  0  0  0
  4 17  1  0  0  0  0
  4  5  1  0  0  0  0
  4 23  1  0  0  0  0
  5  6  1  0  0  0  0
  5 24  1  0  0  0  0
  5 25  1  0  0  0  0
  6  7  1  0  0  0  0
  6 26  1  0  0  0  0
  6 27  1  0  0  0  0
  7  8  1  0  0  0  0
  7 28  1  0  0  0  0
  7 29  1  0  0  0  0
  8  9  1  0  0  0  0
  8 17  1  0  0  0  0
  9 16  1  0  0  0  0
  9 10  2  0  0  0  0
 10 11  1  0  0  0  0
 10 30  1  0  0  0  0
 11 12  1  0  0  0  0
 11 13  2  0  0  0  0
 12 31  1  0  0  0  0
 12 32  1  0  0  0  0
 12 33  1  0  0  0  0
 13 14  1  0  0  0  0
 14 15  1  0  0  0  0
 14 16  2  0  0  0  0
 15 34  1  0  0  0  0
 15 35  1  0  0  0  0
 17 36  1  0  0  0  0
 17 37  1  0  0  0  0
M  END
> <s_m_source_file>
AV-unprocessed.smi

> <i_m_source_file_index>
1639

> <i_lp_mmshare_version>
43012

> <i_f3d_flags>
0

> <s_epik_input>
W0NIM11bQ0gyXU9bQ0BASF0xW0NIMl1bQ0gyXVtDSDJdTihbQ0gyXTEpYzJbY0hdYyhbQ0gzXSluYyhuMilbTkgyXQ==

> <s_epik_cmdline>
J2VwaWtfcHl0aG9uJywgJy1waCcsICc3LjAnLCAnLXRuJywgJzgnLCAnLW1hJywgJzIwMCcsICctbWV0YWxfYmluZGluZycsICctaW1hZScsICc8aW5maWxlLm1hZT4nLCAnLW9tYWUnLCAnPG91dGZpbGUubWFlPic=

> <r_lp_tautomer_probability>
1

> <r_epik_Ionization_Penalty>
0.383805

> <r_epik_Ionization_Penalty_Charging>
0

> <r_epik_Ionization_Penalty_Neutral>
0.383805

> <r_epik_State_Penalty>
0.0922942

> <r_epik_Charging_Adjusted_Penalty>
0.0922942

> <i_epik_Tot_Q>
0

> <i_epik_Tot_abs_Q>
0

> <r_epik_Metal_State_Penalty>
0.050432

> <b_epik_Metal_Only>
0

> <s_lp_Force_Field>
OPLS_2005

> <r_lp_Energy>
9.4445

> <b_lp_Chiralities_Consistent>
1

> <s_lp_Variant>
AV-unprocessed.smi:1639-2

> <Gold.Version>
5.8.1

> <Gold.Id.Protein>
6NUR|6NUR_protein|mol2

> <Gold.PLP.Fitness>
41.3115

> <Gold.PLP.PLP>
-38.7617

> <Gold.PLP.part.hbond>
-2.2822

> <Gold.PLP.part.metal>
0.0000

> <Gold.PLP.part.buried>
-4.8048

> <Gold.PLP.part.nonpolar>
-32.6811

> <Gold.PLP.part.repulsive>
0.6897

> <Gold.PLP.ligand.clash>
0.0000

> <Gold.PLP.ligand.torsion>
0.2757

> <Gold.PLP.Chemscore.Hbond>
0.8954

> <Gold.PLP.Chemscore.CHOScore>
0.0000

> <Gold.PLP.Chemscore.Metal>
0.0000

> <Gold.Chemscore.Hbonds>
donor molecule, donor type, donor heavy atom, donor atom, acceptor molecule, acceptor atom, score
      L1  H    15    34       P1  7949  0.90

> <Gold.PLP.Chemscore.Internal.Correction>
0.4149

> <Gold.Rescore>
     Score         DG    S(hbond)    S(metal)    S(lipo)     H(rot)  DE(clash)    DE(int)     intcor
     14.11     -14.40       0.74        0.00      86.45       1.43       0.05       0.24       ----

> <Gold.Chemscore.Fitness>
14.1097

> <Gold.Chemscore.DG>
-14.3994

> <Gold.Chemscore.ZeroCoef>
-5.4800

> <Gold.Chemscore.Hbond>
0.7375

> <Gold.Chemscore.Metal>
0.0000

> <Gold.Chemscore.Lipo>
86.4539

> <Gold.Chemscore.Internal_Hbond>
0.0000

> <Gold.Chemscore.DEClash>
0.0532

> <Gold.Chemscore.DEInternal>
0.2365

> <Gold.Chemscore.Rot>
1.4293

> <Gold.Chemscore.Internal.Correction>
   9.000000E+99

> <Gold.Chemscore.Hbonds>
donor molecule, donor type, donor heavy atom, donor atom, acceptor molecule, acceptor atom, score
      L1  H    15    34       P1  7949  0.49

> <Gold.Chemscore.Hbond.Weighted>
-2.4632

> <Gold.Chemscore.Metal.Weighted>
-0.0000

> <Gold.Chemscore.Lipo.Weighted>
-10.1151

> <Gold.Chemscore.Internal_Hbond.Weighted>
0.0000

> <Gold.Chemscore.DEClash.Weighted>
0.0532

> <Gold.Chemscore.DEInternal.Weighted>
0.2365

> <Gold.Chemscore.Rot.Weighted>
3.6589

> <Gold.Chemscore.Internal.Correction.Weighted>
   9.000000E+99

> <Gold.Protein.RotatedTorsions>
[ 6907 6896 6895 6894 ] final  -43.90 input  -60.11 | X-H torsion
[ 7974 7965 7964 7962 ] final -174.40 input  175.53 | X-H torsion
[ 8008 7997 7996 7995 ] final -177.60 input   59.86 | X-H torsion
[ 10167 10162 10161 10158 ] final -165.10 input  -65.29 | X-H torsion
[ 10718 10713 10712 10709 ] final  -75.45 input   66.30 | X-H torsion
[ 10763 10752 10751 10750 ] final -147.14 input  -60.55 | X-H torsion
[ 11005 11000 10999 10996 ] final  -86.94 input  -57.11 | X-H torsion

> <Gold.Protein.ActiveResidues>
 VAL166  LYS551  ARG553  GLY616  TRP617  ASP618  TYR619  PRO620  LYS621  CYS622 
 ASP623  PHE694  ASN695  SER759  ASP760  ASP761  ALA762  ILE779  LEU786  VAL792 
 PHE793  MET794  SER795  GLU796  ALA797  LYS798  CYS799  TRP800  GLU811  SER814 

> <Gold.Protein.RotatedAtoms>
  150.9388  134.8799  159.7598 H   0  0  0  0  0  0  0  0  0  0  0  0  # atno 6907 bound_to 6896
  152.5071  134.3972  159.9414 H   0  0  0  0  0  0  0  0  0  0  0  0  # atno 6908 bound_to 6896
  151.3994  133.3722  159.2765 H   0  0  0  0  0  0  0  0  0  0  0  0  # atno 6909 bound_to 6896
  144.7132  140.1477  143.6387 H   0  0  0  0  0  0  0  0  0  0  0  0  # atno 7974 bound_to 7965
  156.0088  140.1236  157.0474 H   0  0  0  0  0  0  0  0  0  0  0  0  # atno 8008 bound_to 7997
  154.4268  140.1092  156.5870 H   0  0  0  0  0  0  0  0  0  0  0  0  # atno 8009 bound_to 7997
  155.6109  140.3471  155.4624 H   0  0  0  0  0  0  0  0  0  0  0  0  # atno 8010 bound_to 7997
  139.6205  144.0634  152.1928 H   0  0  0  0  0  0  0  0  0  0  0  0  # atno 10167 bound_to 10162
  156.0207  130.4441  150.3045 H   0  0  0  0  0  0  0  0  0  0  0  0  # atno 10718 bound_to 10713
  154.8301  135.3368  154.6772 H   0  0  0  0  0  0  0  0  0  0  0  0  # atno 10763 bound_to 10752
  153.7393  135.6947  153.4975 H   0  0  0  0  0  0  0  0  0  0  0  0  # atno 10764 bound_to 10752
  153.2255  135.4434  155.0489 H   0  0  0  0  0  0  0  0  0  0  0  0  # atno 10765 bound_to 10752
  141.1623  133.7483  156.9234 H   0  0  0  0  0  0  0  0  0  0  0  0  # atno 11005 bound_to 11000
  145.9145  139.2507  143.1418 LP  0  0  0  0  0  0  0  0  0  0  0  0  # atno 17320 bound_to 7965
  145.9683  140.8781  143.0176 LP  0  0  0  0  0  0  0  0  0  0  0  0  # atno 17321 bound_to 7965
  140.0275  144.6106  150.7516 LP  0  0  0  0  0  0  0  0  0  0  0  0  # atno 17342 bound_to 10162
  140.7379  143.2771  151.3709 LP  0  0  0  0  0  0  0  0  0  0  0  0  # atno 17343 bound_to 10162
  157.1148  131.0231  151.3033 LP  0  0  0  0  0  0  0  0  0  0  0  0  # atno 17370 bound_to 10713
  157.4676  130.7689  149.7293 LP  0  0  0  0  0  0  0  0  0  0  0  0  # atno 17371 bound_to 10713
  140.1436  134.9277  157.2499 LP  0  0  0  0  0  0  0  0  0  0  0  0  # atno 17394 bound_to 11000
  140.2807  134.3353  155.7344 LP  0  0  0  0  0  0  0  0  0  0  0  0  # atno 17395 bound_to 11000

$$$$
