AV-unprocessed.smi:790|AV-procd|sdf|3741|dock6
  -GOLD-   22720 1173D 1   1.00000     0.00000
 Structure written by MMmdl.
 38 40  0  0  0  0  0  0  0  0  1 V2000
  145.3427  137.5468  154.0845 O   0  0  0  0  0  0  0  0  0  0  0  0
  146.3556  137.1183  153.5320 C   0  0  0  0  0  0  0  0  0  0  0  0
  147.5060  137.7964  153.3818 N   0  0  0  0  0  0  0  0  0  0  0  0
  147.8273  139.1037  153.8374 C   0  0  0  0  0  0  0  0  0  0  0  0
  149.1133  139.5004  154.2778 C   0  0  0  0  0  0  0  0  0  0  0  0
  149.3099  140.8333  154.6876 C   0  0  0  0  0  0  0  0  0  0  0  0
  148.2182  141.7214  154.6358 C   0  0  0  0  0  0  0  0  0  0  0  0
  146.9909  141.3607  154.2051 N   0  0  0  0  0  0  0  0  0  0  0  0
  146.8100  140.0814  153.8130 C   0  0  0  0  0  0  0  0  0  0  0  0
  146.4398  135.8965  152.9867 N   0  0  0  0  0  0  0  0  0  0  0  0
  145.3580  134.9113  152.9461 C   0  0  1  0  0  0  0  0  0  0  0  0
  144.1715  135.4562  152.1216 C   0  0  2  0  0  0  0  0  0  0  0  0
  142.9230  134.6039  152.4131 C   0  0  0  0  0  0  0  0  0  0  0  0
  143.2488  133.2793  151.6971 C   0  0  0  0  0  0  0  0  0  0  0  0
  144.6398  133.5500  151.0891 C   0  0  1  0  0  0  0  0  0  0  0  0
  144.5205  135.0189  150.7040 C   0  0  0  0  0  0  0  0  0  0  0  0
  145.6993  133.5748  152.2184 C   0  0  1  0  0  0  0  0  0  0  0  0
  147.1482  133.4267  151.6999 C   0  0  0  0  0  0  0  0  0  0  0  0
  148.0702  133.6259  152.7508 O   0  0  0  0  0  0  0  0  0  0  0  0
  148.2204  137.3432  152.8309 H   0  0  0  0  0  0  0  0  0  0  0  0
  149.9502  138.8199  154.2961 H   0  0  0  0  0  0  0  0  0  0  0  0
  150.2781  141.1683  155.0297 H   0  0  0  0  0  0  0  0  0  0  0  0
  148.3355  142.7501  154.9426 H   0  0  0  0  0  0  0  0  0  0  0  0
  145.8163  139.8291  153.4726 H   0  0  0  0  0  0  0  0  0  0  0  0
  147.3107  135.6289  152.5523 H   0  0  0  0  0  0  0  0  0  0  0  0
  145.0285  134.7120  153.9678 H   0  0  0  0  0  0  0  0  0  0  0  0
  143.9977  136.5259  152.2449 H   0  0  0  0  0  0  0  0  0  0  0  0
  142.7476  134.4697  153.4811 H   0  0  0  0  0  0  0  0  0  0  0  0
  142.0311  135.0620  151.9837 H   0  0  0  0  0  0  0  0  0  0  0  0
  143.2497  132.4267  152.3772 H   0  0  0  0  0  0  0  0  0  0  0  0
  142.5165  133.0784  150.9140 H   0  0  0  0  0  0  0  0  0  0  0  0
  144.8810  132.8796  150.2638 H   0  0  0  0  0  0  0  0  0  0  0  0
  143.7244  135.2136  149.9830 H   0  0  0  0  0  0  0  0  0  0  0  0
  145.4500  135.4514  150.3314 H   0  0  0  0  0  0  0  0  0  0  0  0
  145.5180  132.7470  152.9062 H   0  0  0  0  0  0  0  0  0  0  0  0
  147.3187  132.4460  151.2557 H   0  0  0  0  0  0  0  0  0  0  0  0
  147.3590  134.1736  150.9346 H   0  0  0  0  0  0  0  0  0  0  0  0
  148.4226  134.4999  152.6803 H   0  0  0  0  0  0  0  0  0  0  0  0
  1  2  2  0  0  0  0
  2  3  1  0  0  0  0
  2 10  1  0  0  0  0
  3  4  1  0  0  0  0
  3 20  1  0  0  0  0
  4  9  1  0  0  0  0
  4  5  2  0  0  0  0
  5  6  1  0  0  0  0
  5 21  1  0  0  0  0
  6  7  2  0  0  0  0
  6 22  1  0  0  0  0
  7  8  1  0  0  0  0
  7 23  1  0  0  0  0
  8  9  2  0  0  0  0
  9 24  1  0  0  0  0
 10 11  1  0  0  0  0
 10 25  1  0  0  0  0
 11 17  1  0  0  0  0
 11 12  1  0  0  0  0
 11 26  1  0  0  0  0
 12 16  1  0  0  0  0
 12 13  1  0  0  0  0
 12 27  1  0  0  0  0
 13 14  1  0  0  0  0
 13 28  1  0  0  0  0
 13 29  1  0  0  0  0
 14 15  1  0  0  0  0
 14 30  1  0  0  0  0
 14 31  1  0  0  0  0
 15 16  1  0  0  0  0
 15 17  1  0  0  0  0
 15 32  1  0  0  0  0
 16 33  1  0  0  0  0
 16 34  1  0  0  0  0
 17 18  1  0  0  0  0
 17 35  1  0  0  0  0
 18 19  1  0  0  0  0
 18 36  1  0  0  0  0
 18 37  1  0  0  0  0
 19 38  1  0  0  0  0
M  END
> <s_m_source_file>
AV-unprocessed.smi

> <i_m_source_file_index>
790

> <i_lp_mmshare_version>
43012

> <i_f3d_flags>
0

> <s_epik_input>
W0NIMl0xW0NIMl1bQ0BASF0oW0NIMl0yKVtDQEBIXShbQ0gyXVtPSF0pW0NAQEhdKFtDQEhdMTIpW05IXUMoPU8pW05IXWMzW2NIXVtjSF1bY0hdbltjSF0z

> <s_epik_cmdline>
J2VwaWtfcHl0aG9uJywgJy1waCcsICc3LjAnLCAnLXRuJywgJzgnLCAnLW1hJywgJzIwMCcsICctbWV0YWxfYmluZGluZycsICctaW1hZScsICc8aW5maWxlLm1hZT4nLCAnLW9tYWUnLCAnPG91dGZpbGUubWFlPic=

> <r_epik_Ionization_Penalty>
0.00497582

> <r_epik_Ionization_Penalty_Charging>
0

> <r_epik_Ionization_Penalty_Neutral>
0.00497582

> <r_epik_State_Penalty>
0.00358602

> <r_epik_Charging_Adjusted_Penalty>
0.00358602

> <i_epik_Tot_Q>
0

> <i_epik_Tot_abs_Q>
0

> <r_epik_Metal_State_Penalty>
-0

> <b_epik_Metal_Only>
0

> <s_lp_Force_Field>
OPLS_2005

> <r_lp_Energy>
53.2312

> <b_lp_Chiralities_Consistent>
1

> <s_lp_Variant>
AV-unprocessed.smi:790-2

> <Gold.Version>
5.8.1

> <Gold.Id.Protein>
6NUR|6NUR_protein|mol2

> <Gold.PLP.Fitness>
45.1835

> <Gold.PLP.PLP>
-30.9412

> <Gold.PLP.part.hbond>
-3.0000

> <Gold.PLP.part.metal>
0.0000

> <Gold.PLP.part.buried>
-3.5851

> <Gold.PLP.part.nonpolar>
-25.4499

> <Gold.PLP.part.repulsive>
0.3133

> <Gold.PLP.ligand.clash>
0.0000

> <Gold.PLP.ligand.torsion>
0.2769

> <Gold.PLP.Chemscore.Hbond>
2.9280

> <Gold.PLP.Chemscore.CHOScore>
2.0000

> <Gold.PLP.Chemscore.Metal>
0.0000

> <Gold.Chemscore.Hbonds>
donor molecule, donor type, donor heavy atom, donor atom, acceptor molecule, acceptor atom, score
      L1  H     3    20       P1  7948  1.00
      L1  H    10    25       P1  7948  0.94
      L1  H    19    38       P1  7948  0.90
      L1  C     7    23       P1  8028  1.00
      L1  C     9    24       P1 10175  1.00

> <Gold.PLP.Chemscore.Internal.Correction>
0.0122

> <Gold.Rescore>
     Score         DG    S(hbond)    S(metal)    S(lipo)     H(rot)  DE(clash)    DE(int)     intcor
     15.18     -18.21       2.56        0.00      74.60       1.78       0.11       2.92       ----

> <Gold.Chemscore.Fitness>
15.1814

> <Gold.Chemscore.DG>
-18.2083

> <Gold.Chemscore.ZeroCoef>
-5.4800

> <Gold.Chemscore.Hbond>
2.5608

> <Gold.Chemscore.Metal>
0.0000

> <Gold.Chemscore.Lipo>
74.5951

> <Gold.Chemscore.Internal_Hbond>
0.0000

> <Gold.Chemscore.DEClash>
0.1102

> <Gold.Chemscore.DEInternal>
2.9167

> <Gold.Chemscore.Rot>
1.7783

> <Gold.Chemscore.Internal.Correction>
   9.000000E+99

> <Gold.Chemscore.Hbonds>
donor molecule, donor type, donor heavy atom, donor atom, acceptor molecule, acceptor atom, score
      L1  H     3    20       P1  7948  0.99
      L1  H    10    25       P1  7948  0.91
      L1  H    19    38       P1  7948  0.18

> <Gold.Chemscore.Hbond.Weighted>
-8.5532

> <Gold.Chemscore.Metal.Weighted>
-0.0000

> <Gold.Chemscore.Lipo.Weighted>
-8.7276

> <Gold.Chemscore.Internal_Hbond.Weighted>
0.0000

> <Gold.Chemscore.DEClash.Weighted>
0.1102

> <Gold.Chemscore.DEInternal.Weighted>
2.9167

> <Gold.Chemscore.Rot.Weighted>
4.5525

> <Gold.Chemscore.Internal.Correction.Weighted>
   9.000000E+99

> <Gold.Protein.RotatedTorsions>
[ 6907 6896 6895 6894 ] final  -78.87 input  -60.11 | X-H torsion
[ 7974 7965 7964 7962 ] final   52.31 input  175.53 | X-H torsion
[ 8008 7997 7996 7995 ] final  -85.04 input   59.86 | X-H torsion
[ 10167 10162 10161 10158 ] final -132.98 input  -65.29 | X-H torsion
[ 10718 10713 10712 10709 ] final -111.44 input   66.30 | X-H torsion
[ 10763 10752 10751 10750 ] final  157.25 input  -60.55 | X-H torsion
[ 11005 11000 10999 10996 ] final  -98.20 input  -57.11 | X-H torsion

> <Gold.Protein.ActiveResidues>
 VAL166  LYS551  ARG553  GLY616  TRP617  ASP618  TYR619  PRO620  LYS621  CYS622 
 ASP623  PHE694  ASN695  SER759  ASP760  ASP761  ALA762  ILE779  LEU786  VAL792 
 PHE793  MET794  SER795  GLU796  ALA797  LYS798  CYS799  TRP800  GLU811  SER814 

> <Gold.Protein.RotatedAtoms>
  150.6962  134.4207  159.5203 H   0  0  0  0  0  0  0  0  0  0  0  0  # atno 6907 bound_to 6896
  152.1950  134.8636  160.0523 H   0  0  0  0  0  0  0  0  0  0  0  0  # atno 6908 bound_to 6896
  151.9577  133.3650  159.4060 H   0  0  0  0  0  0  0  0  0  0  0  0  # atno 6909 bound_to 6896
  145.9826  139.4258  143.0122 H   0  0  0  0  0  0  0  0  0  0  0  0  # atno 7974 bound_to 7965
  154.6364  140.0597  156.9793 H   0  0  0  0  0  0  0  0  0  0  0  0  # atno 8008 bound_to 7997
  155.1586  140.3280  155.4397 H   0  0  0  0  0  0  0  0  0  0  0  0  # atno 8009 bound_to 7997
  156.2509  140.1935  156.6694 H   0  0  0  0  0  0  0  0  0  0  0  0  # atno 8010 bound_to 7997
  139.9030  143.6585  152.2591 H   0  0  0  0  0  0  0  0  0  0  0  0  # atno 10167 bound_to 10162
  156.0647  130.5867  150.8373 H   0  0  0  0  0  0  0  0  0  0  0  0  # atno 10718 bound_to 10713
  154.1972  135.2792  155.3003 H   0  0  0  0  0  0  0  0  0  0  0  0  # atno 10763 bound_to 10752
  154.5883  135.5568  153.7256 H   0  0  0  0  0  0  0  0  0  0  0  0  # atno 10764 bound_to 10752
  153.0097  135.6362  154.2110 H   0  0  0  0  0  0  0  0  0  0  0  0  # atno 10765 bound_to 10752
  141.1353  133.8227  157.0808 H   0  0  0  0  0  0  0  0  0  0  0  0  # atno 11005 bound_to 11000
  145.7747  140.9882  143.1131 LP  0  0  0  0  0  0  0  0  0  0  0  0  # atno 17320 bound_to 7965
  144.6866  139.9490  143.7477 LP  0  0  0  0  0  0  0  0  0  0  0  0  # atno 17321 bound_to 7965
  139.7009  144.7635  151.1275 LP  0  0  0  0  0  0  0  0  0  0  0  0  # atno 17342 bound_to 10162
  140.7702  143.5459  150.9259 LP  0  0  0  0  0  0  0  0  0  0  0  0  # atno 17343 bound_to 10162
  157.5681  131.0946  150.9460 LP  0  0  0  0  0  0  0  0  0  0  0  0  # atno 17370 bound_to 10713
  156.9682  130.5481  149.5289 LP  0  0  0  0  0  0  0  0  0  0  0  0  # atno 17371 bound_to 10713
  140.0453  134.9833  157.1037 LP  0  0  0  0  0  0  0  0  0  0  0  0  # atno 17394 bound_to 11000
  140.4073  134.2019  155.7163 LP  0  0  0  0  0  0  0  0  0  0  0  0  # atno 17395 bound_to 11000

$$$$
