AV-unprocessed.smi:2061|AV-procd|sdf|8389|dock1
  -GOLD-   2272011 73D 1   1.00000     0.00000
 Structure written by MMmdl.
 45 46  0  0  0  0  0  0  0  0  3 V2000
  145.9651  132.4210  161.8718 C   0  0  0  0  0  0  0  0  0  0  0  0
  146.6454  133.7455  161.8187 C   0  0  0  0  0  0  0  0  0  0  0  0
  147.1611  134.4859  160.7924 C   0  0  0  0  0  0  0  0  0  0  0  0
  147.6642  135.6400  161.4499 C   0  0  0  0  0  0  0  0  0  0  0  0
  148.2984  136.6747  160.7124 N   0  0  0  0  0  0  0  0  0  0  0  0
  149.0290  136.5798  159.5865 C   0  0  0  0  0  0  0  0  0  0  0  0
  149.2353  135.4767  159.0658 O   0  0  0  0  0  0  0  0  0  0  0  0
  149.4589  137.7945  159.1463 N   0  5  0  0  0  0  0  0  0  0  0  0
  150.8571  138.1424  158.8865 C   0  0  0  0  0  0  0  0  0  0  0  0
  150.9612  139.3343  157.8937 C   0  0  1  0  0  0  0  0  0  0  0  0
  149.7218  139.5057  156.9792 C   0  0  0  0  0  0  0  0  0  0  0  0
  151.3300  140.5921  158.6153 N   0  3  1  0  0  0  0  0  0  0  0  0
  152.5078  140.4413  159.5056 C   0  0  0  0  0  0  0  0  0  0  0  0
  152.7056  141.7126  160.3535 C   0  0  1  0  0  0  0  0  0  0  0  0
  153.9642  141.6361  161.2250 C   0  0  0  0  0  0  0  0  0  0  0  0
  152.8320  142.8397  159.4927 O   0  0  0  0  0  0  0  0  0  0  0  0
  151.6768  143.0486  158.6874 C   0  0  1  0  0  0  0  0  0  0  0  0
  151.8847  144.3327  157.8770 C   0  0  0  0  0  0  0  0  0  0  0  0
  151.4722  141.8196  157.7841 C   0  0  0  0  0  0  0  0  0  0  0  0
  147.4688  135.6074  162.7600 N   0  0  0  0  0  0  0  0  0  0  0  0
  146.8144  134.3939  163.0027 O   0  0  0  0  0  0  0  0  0  0  0  0
  146.0037  131.9238  160.9024 H   0  0  0  0  0  0  0  0  0  0  0  0
  144.9179  132.5366  162.1517 H   0  0  0  0  0  0  0  0  0  0  0  0
  146.4426  131.7700  162.6042 H   0  0  0  0  0  0  0  0  0  0  0  0
  147.1781  134.2386  159.7413 H   0  0  0  0  0  0  0  0  0  0  0  0
  148.1703  137.6086  161.0732 H   0  0  0  0  0  0  0  0  0  0  0  0
  151.3775  138.4028  159.8083 H   0  0  0  0  0  0  0  0  0  0  0  0
  151.4113  137.2947  158.4803 H   0  0  0  0  0  0  0  0  0  0  0  0
  151.8019  139.1032  157.2375 H   0  0  0  0  0  0  0  0  0  0  0  0
  149.5681  138.6358  156.3383 H   0  0  0  0  0  0  0  0  0  0  0  0
  149.8438  140.3605  156.3138 H   0  0  0  0  0  0  0  0  0  0  0  0
  148.7998  139.6596  157.5425 H   0  0  0  0  0  0  0  0  0  0  0  0
  152.3672  139.5863  160.1684 H   0  0  0  0  0  0  0  0  0  0  0  0
  153.3970  140.2409  158.9060 H   0  0  0  0  0  0  0  0  0  0  0  0
  151.8416  141.8558  161.0051 H   0  0  0  0  0  0  0  0  0  0  0  0
  153.9156  140.7911  161.9122 H   0  0  0  0  0  0  0  0  0  0  0  0
  154.0808  142.5421  161.8202 H   0  0  0  0  0  0  0  0  0  0  0  0
  154.8609  141.5208  160.6153 H   0  0  0  0  0  0  0  0  0  0  0  0
  150.8060  143.1817  159.3321 H   0  0  0  0  0  0  0  0  0  0  0  0
  151.0203  144.5438  157.2467 H   0  0  0  0  0  0  0  0  0  0  0  0
  152.7591  144.2547  157.2302 H   0  0  0  0  0  0  0  0  0  0  0  0
  152.0324  145.1892  158.5353 H   0  0  0  0  0  0  0  0  0  0  0  0
  152.3244  141.7195  157.1105 H   0  0  0  0  0  0  0  0  0  0  0  0
  150.5878  141.9669  157.1635 H   0  0  0  0  0  0  0  0  0  0  0  0
  150.5514  140.7631  159.2361 H   0  0  0  0  0  0  0  0  0  0  0  0
  1  2  1  0  0  0  0
  1 22  1  0  0  0  0
  1 23  1  0  0  0  0
  1 24  1  0  0  0  0
  2 21  1  0  0  0  0
  2  3  2  0  0  0  0
  3  4  1  0  0  0  0
  3 25  1  0  0  0  0
  4  5  1  0  0  0  0
  4 20  2  0  0  0  0
  5  6  1  0  0  0  0
  5 26  1  0  0  0  0
  6  7  2  0  0  0  0
  6  8  1  0  0  0  0
  8  9  1  0  0  0  0
  9 10  1  0  0  0  0
  9 27  1  0  0  0  0
  9 28  1  0  0  0  0
 10 11  1  0  0  0  0
 10 12  1  0  0  0  0
 10 29  1  0  0  0  0
 11 30  1  0  0  0  0
 11 31  1  0  0  0  0
 11 32  1  0  0  0  0
 12 19  1  0  0  0  0
 12 13  1  0  0  0  0
 12 45  1  0  0  0  0
 13 14  1  0  0  0  0
 13 33  1  0  0  0  0
 13 34  1  0  0  0  0
 14 15  1  0  0  0  0
 14 16  1  0  0  0  0
 14 35  1  0  0  0  0
 15 36  1  0  0  0  0
 15 37  1  0  0  0  0
 15 38  1  0  0  0  0
 16 17  1  0  0  0  0
 17 18  1  0  0  0  0
 17 19  1  0  0  0  0
 17 39  1  0  0  0  0
 18 40  1  0  0  0  0
 18 41  1  0  0  0  0
 18 42  1  0  0  0  0
 19 43  1  0  0  0  0
 19 44  1  0  0  0  0
 20 21  1  0  0  0  0
M  CHG  1   8  -1
M  CHG  1  12   1
M  END
> <s_m_source_file>
AV-unprocessed.smi

> <i_m_source_file_index>
2061

> <i_lp_mmshare_version>
43012

> <i_f3d_flags>
0

> <s_epik_input>
W0NIM11jMVtjSF1jKG5vMSlbTkhdQyg9TylbTkhdW0NIMl1bQ0BIXShbQ0gzXSlOMltDSDJdW0NAQEhdKFtDSDNdKU9bQ0BASF0oW0NIM10pW0NIMl0y

> <s_epik_cmdline>
J2VwaWtfcHl0aG9uJywgJy1waCcsICc3LjAnLCAnLXRuJywgJzgnLCAnLW1hJywgJzIwMCcsICctbWV0YWxfYmluZGluZycsICctaW1hZScsICc8aW5maWxlLm1hZT4nLCAnLW9tYWUnLCAnPG91dGZpbGUubWFlPic=

> <r_epik_Ionization_Penalty>
6.8073

> <r_epik_Ionization_Penalty_Charging>
6.80729

> <r_epik_Ionization_Penalty_Neutral>
5.65391e-06

> <r_epik_State_Penalty>
7.47323

> <r_epik_Charging_Adjusted_Penalty>
14.2805

> <i_epik_Tot_Q>
0

> <i_epik_Tot_abs_Q>
2

> <r_epik_Metal_State_Penalty>
3.40035

> <b_epik_Metal_Only>
1

> <s_lp_Force_Field>
OPLS_2005

> <r_lp_Energy>
16.6672

> <b_lp_Chiralities_Consistent>
1

> <s_lp_Variant>
AV-unprocessed.smi:2061-30

> <Gold.Version>
5.8.1

> <Gold.Id.Protein>
6NUR|6NUR_protein|mol2

> <Gold.PLP.Fitness>
39.4475

> <Gold.PLP.PLP>
-39.0499

> <Gold.PLP.part.hbond>
-2.7067

> <Gold.PLP.part.metal>
0.0000

> <Gold.PLP.part.buried>
-8.1258

> <Gold.PLP.part.nonpolar>
-29.4097

> <Gold.PLP.part.repulsive>
1.5896

> <Gold.PLP.ligand.clash>
0.0000

> <Gold.PLP.ligand.torsion>
1.4862

> <Gold.PLP.Chemscore.Hbond>
1.0000

> <Gold.PLP.Chemscore.CHOScore>
0.0000

> <Gold.PLP.Chemscore.Metal>
0.0000

> <Gold.Chemscore.Hbonds>
donor molecule, donor type, donor heavy atom, donor atom, acceptor molecule, acceptor atom, score
      P1  H  6896  6909       L1     7  1.00

> <Gold.PLP.Chemscore.Internal.Correction>
0.3700

> <Gold.Rescore>
     Score         DG    S(hbond)    S(metal)    S(lipo)     H(rot)  DE(clash)    DE(int)     intcor
     12.51     -15.34       1.00        0.00      89.87       1.56       0.02       2.81       ----

> <Gold.Chemscore.Fitness>
12.5137

> <Gold.Chemscore.DG>
-15.3406

> <Gold.Chemscore.ZeroCoef>
-5.4800

> <Gold.Chemscore.Hbond>
0.9961

> <Gold.Chemscore.Metal>
0.0000

> <Gold.Chemscore.Lipo>
89.8673

> <Gold.Chemscore.Internal_Hbond>
0.0000

> <Gold.Chemscore.DEClash>
0.0174

> <Gold.Chemscore.DEInternal>
2.8095

> <Gold.Chemscore.Rot>
1.5550

> <Gold.Chemscore.Internal.Correction>
   9.000000E+99

> <Gold.Chemscore.Hbonds>
donor molecule, donor type, donor heavy atom, donor atom, acceptor molecule, acceptor atom, score
      P1  H  6896  6909       L1     7  0.94

> <Gold.Chemscore.Hbond.Weighted>
-3.3270

> <Gold.Chemscore.Metal.Weighted>
-0.0000

> <Gold.Chemscore.Lipo.Weighted>
-10.5145

> <Gold.Chemscore.Internal_Hbond.Weighted>
0.0000

> <Gold.Chemscore.DEClash.Weighted>
0.0174

> <Gold.Chemscore.DEInternal.Weighted>
2.8095

> <Gold.Chemscore.Rot.Weighted>
3.9809

> <Gold.Chemscore.Internal.Correction.Weighted>
   9.000000E+99

> <Gold.Protein.RotatedTorsions>
[ 6907 6896 6895 6894 ] final   51.18 input  -60.11 | X-H torsion
[ 7974 7965 7964 7962 ] final  -55.55 input  175.53 | X-H torsion
[ 8008 7997 7996 7995 ] final  111.06 input   59.86 | X-H torsion
[ 10167 10162 10161 10158 ] final   53.21 input  -65.29 | X-H torsion
[ 10718 10713 10712 10709 ] final  168.98 input   66.30 | X-H torsion
[ 10763 10752 10751 10750 ] final   87.62 input  -60.55 | X-H torsion
[ 11005 11000 10999 10996 ] final  -62.84 input  -57.11 | X-H torsion

> <Gold.Protein.ActiveResidues>
 VAL166  LYS551  ARG553  GLY616  TRP617  ASP618  TYR619  PRO620  LYS621  CYS622 
 ASP623  PHE694  ASN695  SER759  ASP760  ASP761  ALA762  ILE779  LEU786  VAL792 
 PHE793  MET794  SER795  GLU796  ALA797  LYS798  CYS799  TRP800  GLU811  SER814 

> <Gold.Protein.RotatedAtoms>
  152.3098  134.7511  160.0338 H   0  0  0  0  0  0  0  0  0  0  0  0  # atno 6907 bound_to 6896
  151.7995  133.3363  159.3531 H   0  0  0  0  0  0  0  0  0  0  0  0  # atno 6908 bound_to 6896
  150.7315  134.5697  159.5928 H   0  0  0  0  0  0  0  0  0  0  0  0  # atno 6909 bound_to 6896
  145.8728  140.8203  142.9879 H   0  0  0  0  0  0  0  0  0  0  0  0  # atno 7974 bound_to 7965
  156.2097  140.3026  155.9706 H   0  0  0  0  0  0  0  0  0  0  0  0  # atno 8008 bound_to 7997
  155.2753  140.0435  157.3028 H   0  0  0  0  0  0  0  0  0  0  0  0  # atno 8009 bound_to 7997
  154.5683  140.2340  155.8239 H   0  0  0  0  0  0  0  0  0  0  0  0  # atno 8010 bound_to 7997
  140.2431  144.3561  150.6373 H   0  0  0  0  0  0  0  0  0  0  0  0  # atno 10167 bound_to 10162
  157.0293  131.0255  151.2749 H   0  0  0  0  0  0  0  0  0  0  0  0  # atno 10718 bound_to 10713
  153.1687  135.4536  154.9872 H   0  0  0  0  0  0  0  0  0  0  0  0  # atno 10763 bound_to 10752
  154.7950  135.3234  154.7690 H   0  0  0  0  0  0  0  0  0  0  0  0  # atno 10764 bound_to 10752
  153.8169  135.6950  153.4887 H   0  0  0  0  0  0  0  0  0  0  0  0  # atno 10765 bound_to 10752
  141.1373  133.6644  156.5589 H   0  0  0  0  0  0  0  0  0  0  0  0  # atno 11005 bound_to 11000
  144.6726  140.1266  143.7446 LP  0  0  0  0  0  0  0  0  0  0  0  0  # atno 17320 bound_to 7965
  145.9116  139.2490  143.1434 LP  0  0  0  0  0  0  0  0  0  0  0  0  # atno 17321 bound_to 7965
  140.6098  143.2169  151.6909 LP  0  0  0  0  0  0  0  0  0  0  0  0  # atno 17342 bound_to 10162
  139.5070  144.3660  152.0517 LP  0  0  0  0  0  0  0  0  0  0  0  0  # atno 17343 bound_to 10162
  157.5190  130.7986  149.7787 LP  0  0  0  0  0  0  0  0  0  0  0  0  # atno 17370 bound_to 10713
  156.0075  130.3848  150.2380 LP  0  0  0  0  0  0  0  0  0  0  0  0  # atno 17371 bound_to 10713
  140.4004  134.7362  157.4776 LP  0  0  0  0  0  0  0  0  0  0  0  0  # atno 17394 bound_to 11000
  140.0500  134.6144  155.8873 LP  0  0  0  0  0  0  0  0  0  0  0  0  # atno 17395 bound_to 11000

$$$$
