AV-unprocessed.smi:102|AV-procd|sdf|962|dock2
  -GOLD-   2262017503D 1   1.00000     0.00000
 Structure written by MMmdl.
 43 44  0  0  0  0  0  0  0  0  2 V2000
  152.2192  144.1977  158.6471 C   0  0  0  0  0  0  0  0  0  0  0  0
  151.8977  142.7103  158.5889 C   0  0  0  0  0  0  0  0  0  0  0  0
  152.3393  141.9239  159.4271 O   0  0  0  0  0  0  0  0  0  0  0  0
  151.1009  142.3983  157.5517 O   0  0  0  0  0  0  0  0  0  0  0  0
  150.7273  141.0487  157.3076 C   0  0  0  0  0  0  0  0  0  0  0  0
  151.4519  140.4933  156.0612 C   0  0  1  0  0  0  0  0  0  0  0  0
  152.6493  139.8303  156.4653 O   0  0  0  0  0  0  0  0  0  0  0  0
  152.4677  138.4415  156.5418 C   0  0  1  0  0  0  0  0  0  0  0  0
  152.7728  137.9606  157.9475 N   0  0  0  0  0  0  0  0  0  0  0  0
  153.0581  138.8463  158.9739 C   0  0  0  0  0  0  0  0  0  0  0  0
  153.3245  138.4084  160.2212 C   0  0  0  0  0  0  0  0  0  0  0  0
  153.5962  139.2927  161.1965 F   0  0  0  0  0  0  0  0  0  0  0  0
  153.3177  136.9742  160.5015 C   0  0  0  0  0  0  0  0  0  0  0  0
  153.5546  136.5818  161.6428 O   0  0  0  0  0  0  0  0  0  0  0  0
  153.0463  136.1239  159.4695 N   0  5  0  0  0  0  0  0  0  0  0  0
  152.7776  136.5626  158.2050 C   0  0  0  0  0  0  0  0  0  0  0  0
  152.5312  135.8050  157.2663 O   0  0  0  0  0  0  0  0  0  0  0  0
  151.0214  138.1362  156.0949 C   0  0  1  0  0  0  0  0  0  0  0  0
  150.1613  137.9625  157.2222 O   0  0  0  0  0  0  0  0  0  0  0  0
  149.7224  136.7418  157.5730 C   0  0  0  0  0  0  0  0  0  0  0  0
  148.7923  136.7880  158.7773 C   0  0  0  0  0  0  0  0  0  0  0  0
  150.0016  135.6798  157.0170 O   0  0  0  0  0  0  0  0  0  0  0  0
  150.6893  139.3991  155.3123 C   0  0  1  0  0  0  0  0  0  0  0  0
  149.2959  139.6633  155.1840 O   0  0  0  0  0  0  0  0  0  0  0  0
  148.8679  140.7165  154.4668 C   0  0  0  0  0  0  0  0  0  0  0  0
  147.3486  140.7952  154.4037 C   0  0  0  0  0  0  0  0  0  0  0  0
  149.5793  141.5440  153.8974 O   0  0  0  0  0  0  0  0  0  0  0  0
  152.4539  144.5767  157.6522 H   0  0  0  0  0  0  0  0  0  0  0  0
  153.0761  144.3794  159.2963 H   0  0  0  0  0  0  0  0  0  0  0  0
  151.3656  144.7519  159.0372 H   0  0  0  0  0  0  0  0  0  0  0  0
  150.9691  140.4597  158.1912 H   0  0  0  0  0  0  0  0  0  0  0  0
  149.6453  140.9837  157.1861 H   0  0  0  0  0  0  0  0  0  0  0  0
  151.6894  141.3081  155.3770 H   0  0  0  0  0  0  0  0  0  0  0  0
  153.2186  137.9703  155.9054 H   0  0  0  0  0  0  0  0  0  0  0  0
  153.0742  139.9097  158.7928 H   0  0  0  0  0  0  0  0  0  0  0  0
  151.0277  137.2524  155.4555 H   0  0  0  0  0  0  0  0  0  0  0  0
  148.0771  137.6045  158.6755 H   0  0  0  0  0  0  0  0  0  0  0  0
  149.3674  136.9418  159.6904 H   0  0  0  0  0  0  0  0  0  0  0  0
  148.2386  135.8534  158.8691 H   0  0  0  0  0  0  0  0  0  0  0  0
  151.1427  139.3161  154.3228 H   0  0  0  0  0  0  0  0  0  0  0  0
  146.9193  140.6830  155.3993 H   0  0  0  0  0  0  0  0  0  0  0  0
  146.9573  140.0032  153.7648 H   0  0  0  0  0  0  0  0  0  0  0  0
  147.0316  141.7559  153.9973 H   0  0  0  0  0  0  0  0  0  0  0  0
  1  2  1  0  0  0  0
  1 28  1  0  0  0  0
  1 29  1  0  0  0  0
  1 30  1  0  0  0  0
  2  3  2  0  0  0  0
  2  4  1  0  0  0  0
  4  5  1  0  0  0  0
  5  6  1  0  0  0  0
  5 31  1  0  0  0  0
  5 32  1  0  0  0  0
  6 23  1  0  0  0  0
  6  7  1  0  0  0  0
  6 33  1  0  0  0  0
  7  8  1  0  0  0  0
  8  9  1  0  0  0  0
  8 18  1  0  0  0  0
  8 34  1  0  0  0  0
  9 16  1  0  0  0  0
  9 10  1  0  0  0  0
 10 11  2  0  0  0  0
 10 35  1  0  0  0  0
 11 12  1  0  0  0  0
 11 13  1  0  0  0  0
 13 14  2  0  0  0  0
 13 15  1  0  0  0  0
 15 16  1  0  0  0  0
 16 17  2  0  0  0  0
 18 19  1  0  0  0  0
 18 23  1  0  0  0  0
 18 36  1  0  0  0  0
 19 20  1  0  0  0  0
 20 21  1  0  0  0  0
 20 22  2  0  0  0  0
 21 37  1  0  0  0  0
 21 38  1  0  0  0  0
 21 39  1  0  0  0  0
 23 24  1  0  0  0  0
 23 40  1  0  0  0  0
 24 25  1  0  0  0  0
 25 26  1  0  0  0  0
 25 27  2  0  0  0  0
 26 41  1  0  0  0  0
 26 42  1  0  0  0  0
 26 43  1  0  0  0  0
M  CHG  1  15  -1
M  END
> <s_m_source_file>
AV-unprocessed.smi

> <i_m_source_file_index>
102

> <i_lp_mmshare_version>
43012

> <i_f3d_flags>
0

> <s_epik_input>
W0NIM11DKD1PKU9bQ0gyXVtDQEBIXTFPW0NASF0oW0NAQEhdKE9DKD1PKVtDSDNdKVtDQEhdMU9DKD1PKVtDSDNdKW4yW2NIXWMoRiljKD1PKVtuSF1jMj1P

> <s_epik_cmdline>
J2VwaWtfcHl0aG9uJywgJy1waCcsICc3LjAnLCAnLXRuJywgJzgnLCAnLW1hJywgJzIwMCcsICctbWV0YWxfYmluZGluZycsICctaW1hZScsICc8aW5maWxlLm1hZT4nLCAnLW9tYWUnLCAnPG91dGZpbGUubWFlPic=

> <r_epik_Ionization_Penalty>
1.40304

> <r_epik_Ionization_Penalty_Charging>
1.43915e-08

> <r_epik_Ionization_Penalty_Neutral>
1.40304

> <r_epik_State_Penalty>
1.48536

> <r_epik_Charging_Adjusted_Penalty>
1.48536

> <i_epik_Tot_Q>
-1

> <i_epik_Tot_abs_Q>
1

> <r_epik_Metal_State_Penalty>
0.00663881

> <b_epik_Metal_Only>
0

> <s_epik_Chemistry_Notes>
This compound has an ester and may undergo hydrolysis at high or low pH. This compound contains an acetal/aminal-like group ( X-CH(R)-Y where X, Y are N, S, or O) that may be acid/base labile, releasing an aldehyde.

> <s_lp_Force_Field>
OPLS_2005

> <r_lp_Energy>
25.6088

> <b_lp_Chiralities_Consistent>
1

> <s_lp_Variant>
AV-unprocessed.smi:102-18

> <Gold.Version>
5.8.1

> <Gold.Id.Protein>
6NUR|6NUR_protein|mol2

> <Gold.PLP.Fitness>
47.2021

> <Gold.PLP.PLP>
-34.7973

> <Gold.PLP.part.hbond>
-5.0000

> <Gold.PLP.part.metal>
0.0000

> <Gold.PLP.part.buried>
-4.5041

> <Gold.PLP.part.nonpolar>
-25.8396

> <Gold.PLP.part.repulsive>
1.6117

> <Gold.PLP.ligand.clash>
0.0000

> <Gold.PLP.ligand.torsion>
1.4145

> <Gold.PLP.Chemscore.Hbond>
5.0067

> <Gold.PLP.Chemscore.CHOScore>
0.0000

> <Gold.PLP.Chemscore.Metal>
0.0000

> <Gold.Chemscore.Hbonds>
donor molecule, donor type, donor heavy atom, donor atom, acceptor molecule, acceptor atom, score
      P1  H  6896  6908       L1    15  2.00
      P1  H  7989  7998       L1    27  0.12
      P1  H  7997  8010       L1     7  1.00
      P1  H  8011  8017       L1    27  0.67
      P1  H 10752 10764       L1    17  0.55

> <Gold.PLP.Chemscore.Internal.Correction>
0.2136

> <Gold.Rescore>
     Score         DG    S(hbond)    S(metal)    S(lipo)     H(rot)  DE(clash)    DE(int)     intcor
      9.73     -14.23       3.79        0.00      53.91       4.00       1.62       2.89       ----

> <Gold.Chemscore.Fitness>
9.7296

> <Gold.Chemscore.DG>
-14.2344

> <Gold.Chemscore.ZeroCoef>
-5.4800

> <Gold.Chemscore.Hbond>
3.7946

> <Gold.Chemscore.Metal>
0.0000

> <Gold.Chemscore.Lipo>
53.9136

> <Gold.Chemscore.Internal_Hbond>
0.0000

> <Gold.Chemscore.DEClash>
1.6188

> <Gold.Chemscore.DEInternal>
2.8861

> <Gold.Chemscore.Rot>
3.9951

> <Gold.Chemscore.Internal.Correction>
   9.000000E+99

> <Gold.Chemscore.Hbonds>
donor molecule, donor type, donor heavy atom, donor atom, acceptor molecule, acceptor atom, score
      P1  H  6896  6908       L1    15  0.67
      P1  H  7989  7998       L1    27  0.12
      P1  H  7997  8010       L1     7  0.65
      P1  H  8011  8017       L1    27  0.68
      P1  H 10752 10764       L1    17  0.56

> <Gold.Chemscore.Hbond.Weighted>
-12.6739

> <Gold.Chemscore.Metal.Weighted>
-0.0000

> <Gold.Chemscore.Lipo.Weighted>
-6.3079

> <Gold.Chemscore.Internal_Hbond.Weighted>
0.0000

> <Gold.Chemscore.DEClash.Weighted>
1.6188

> <Gold.Chemscore.DEInternal.Weighted>
2.8861

> <Gold.Chemscore.Rot.Weighted>
10.2274

> <Gold.Chemscore.Internal.Correction.Weighted>
   9.000000E+99

> <Gold.Protein.RotatedTorsions>
[ 6907 6896 6895 6894 ] final  -72.68 input  -60.11 | X-H torsion
[ 7974 7965 7964 7962 ] final  -45.93 input  175.53 | X-H torsion
[ 8008 7997 7996 7995 ] final   82.29 input   59.86 | X-H torsion
[ 10167 10162 10161 10158 ] final   32.94 input  -65.29 | X-H torsion
[ 10718 10713 10712 10709 ] final   24.57 input   66.30 | X-H torsion
[ 10763 10752 10751 10750 ] final   -6.12 input  -60.55 | X-H torsion
[ 11005 11000 10999 10996 ] final -169.23 input  -57.11 | X-H torsion

> <Gold.Protein.ActiveResidues>
 VAL166  LYS551  ARG553  GLY616  TRP617  ASP618  TYR619  PRO620  LYS621  CYS622 
 ASP623  PHE694  ASN695  SER759  ASP760  ASP761  ALA762  ILE779  LEU786  VAL792 
 PHE793  MET794  SER795  GLU796  ALA797  LYS798  CYS799  TRP800  GLU811  SER814 

> <Gold.Protein.RotatedAtoms>
  150.7160  134.5127  159.5615 H   0  0  0  0  0  0  0  0  0  0  0  0  # atno 6907 bound_to 6896
  152.2700  134.7940  160.0425 H   0  0  0  0  0  0  0  0  0  0  0  0  # atno 6908 bound_to 6896
  151.8623  133.3424  159.3744 H   0  0  0  0  0  0  0  0  0  0  0  0  # atno 6909 bound_to 6896
  145.9770  140.7323  142.9382 H   0  0  0  0  0  0  0  0  0  0  0  0  # atno 7974 bound_to 7965
  155.9087  140.3429  155.6082 H   0  0  0  0  0  0  0  0  0  0  0  0  # atno 8008 bound_to 7997
  155.7414  140.0808  157.2263 H   0  0  0  0  0  0  0  0  0  0  0  0  # atno 8009 bound_to 7997
  154.4053  140.1570  156.2607 H   0  0  0  0  0  0  0  0  0  0  0  0  # atno 8010 bound_to 7997
  140.4453  144.1128  150.6181 H   0  0  0  0  0  0  0  0  0  0  0  0  # atno 10167 bound_to 10162
  157.1816  130.6805  149.6115 H   0  0  0  0  0  0  0  0  0  0  0  0  # atno 10718 bound_to 10713
  153.4079  135.7007  153.6380 H   0  0  0  0  0  0  0  0  0  0  0  0  # atno 10763 bound_to 10752
  153.4886  135.3678  155.2480 H   0  0  0  0  0  0  0  0  0  0  0  0  # atno 10764 bound_to 10752
  154.8715  135.4083  154.3426 H   0  0  0  0  0  0  0  0  0  0  0  0  # atno 10765 bound_to 10752
  140.5331  134.5596  157.5080 H   0  0  0  0  0  0  0  0  0  0  0  0  # atno 11005 bound_to 11000
  144.6851  140.2845  143.7287 LP  0  0  0  0  0  0  0  0  0  0  0  0  # atno 17320 bound_to 7965
  145.7824  139.1896  143.2150 LP  0  0  0  0  0  0  0  0  0  0  0  0  # atno 17321 bound_to 7965
  140.4271  143.2585  151.9643 LP  0  0  0  0  0  0  0  0  0  0  0  0  # atno 17342 bound_to 10162
  139.4792  144.5778  151.7982 LP  0  0  0  0  0  0  0  0  0  0  0  0  # atno 17343 bound_to 10162
  155.9723  130.4645  150.6219 LP  0  0  0  0  0  0  0  0  0  0  0  0  # atno 17370 bound_to 10713
  157.3947  131.0801  151.1363 LP  0  0  0  0  0  0  0  0  0  0  0  0  # atno 17371 bound_to 10713
  139.9543  134.7561  156.0376 LP  0  0  0  0  0  0  0  0  0  0  0  0  # atno 17394 bound_to 11000
  141.1270  133.6596  156.3363 LP  0  0  0  0  0  0  0  0  0  0  0  0  # atno 17395 bound_to 11000

$$$$
