AV-unprocessed.smi:514|AV-procd|sdf|2779|dock6
  -GOLD-   2262023253D 1   1.00000     0.00000
 Structure written by MMmdl.
 44 46  0  0  0  0  0  0  0  0  2 V2000
  150.9707  134.2885  156.3405 C   0  0  0  0  0  0  0  0  0  0  0  0
  150.3521  134.8714  155.0621 C   0  0  0  0  0  0  0  0  0  0  0  0
  151.0424  136.0343  154.6266 O   0  0  0  0  0  0  0  0  0  0  0  0
  150.9306  137.1412  155.5085 C   0  0  0  0  0  0  0  0  0  0  0  0
  151.1343  138.4332  154.7010 C   0  0  0  0  0  0  0  0  0  0  0  0
  150.9610  139.6296  155.5203 N   0  0  0  0  0  0  0  0  0  0  0  0
  150.0322  140.6228  155.4032 C   0  0  0  0  0  0  0  0  0  0  0  0
  149.0531  140.6560  154.4013 N   0  0  0  0  0  0  0  0  0  0  0  0
  148.3899  141.8796  153.9523 C   0  0  0  0  0  0  0  0  0  0  0  0
  146.8585  141.7040  153.9264 C   0  0  0  0  0  0  0  0  0  0  0  0
  146.4996  140.6427  152.9927 N   0  0  0  0  0  0  0  0  0  0  0  0
  147.1393  139.4079  153.4315 C   0  0  0  0  0  0  0  0  0  0  0  0
  148.6680  139.6031  153.4601 C   0  0  0  0  0  0  0  0  0  0  0  0
  150.1074  141.5559  156.3556 N   0  0  0  0  0  0  0  0  0  0  0  0
  151.1784  141.1403  157.1287 C   0  0  0  0  0  0  0  0  0  0  0  0
  151.7020  139.9789  156.6558 C   0  0  0  0  0  0  0  0  0  0  0  0
  152.8337  139.2694  157.2953 C   0  0  0  0  0  0  0  0  0  0  0  0
  153.2611  138.2113  156.8385 O   0  0  0  0  0  0  0  0  0  0  0  0
  153.2972  139.9273  158.4048 N   0  5  0  0  0  0  0  0  0  0  0  0
  152.7990  141.1071  158.9142 C   0  0  0  0  0  0  0  0  0  0  0  0
  153.2708  141.6293  159.9251 O   0  0  0  0  0  0  0  0  0  0  0  0
  151.7483  141.7273  158.2911 N   0  0  0  0  0  0  0  0  0  0  0  0
  151.1978  142.9836  158.8078 C   0  0  0  0  0  0  0  0  0  0  0  0
  150.4899  133.3467  156.6049 H   0  0  0  0  0  0  0  0  0  0  0  0
  150.8587  134.9604  157.1906 H   0  0  0  0  0  0  0  0  0  0  0  0
  152.0344  134.0922  156.2046 H   0  0  0  0  0  0  0  0  0  0  0  0
  150.4276  134.1299  154.2668 H   0  0  0  0  0  0  0  0  0  0  0  0
  149.2885  135.0737  155.1959 H   0  0  0  0  0  0  0  0  0  0  0  0
  149.9507  137.1377  155.9856 H   0  0  0  0  0  0  0  0  0  0  0  0
  151.6673  137.0719  156.3072 H   0  0  0  0  0  0  0  0  0  0  0  0
  152.1190  138.4481  154.2395 H   0  0  0  0  0  0  0  0  0  0  0  0
  150.4375  138.4715  153.8643 H   0  0  0  0  0  0  0  0  0  0  0  0
  148.6401  142.7017  154.6233 H   0  0  0  0  0  0  0  0  0  0  0  0
  148.7631  142.1601  152.9664 H   0  0  0  0  0  0  0  0  0  0  0  0
  146.4792  141.4699  154.9221 H   0  0  0  0  0  0  0  0  0  0  0  0
  146.3796  142.6302  153.6088 H   0  0  0  0  0  0  0  0  0  0  0  0
  145.4970  140.5221  152.9846 H   0  0  0  0  0  0  0  0  0  0  0  0
  146.7613  139.1191  154.4130 H   0  0  0  0  0  0  0  0  0  0  0  0
  146.8759  138.6091  152.7381 H   0  0  0  0  0  0  0  0  0  0  0  0
  149.0273  139.8689  152.4649 H   0  0  0  0  0  0  0  0  0  0  0  0
  149.1575  138.6650  153.7014 H   0  0  0  0  0  0  0  0  0  0  0  0
  150.7384  142.8227  159.7837 H   0  0  0  0  0  0  0  0  0  0  0  0
  150.4389  143.4101  158.1525 H   0  0  0  0  0  0  0  0  0  0  0  0
  151.9829  143.7328  158.9188 H   0  0  0  0  0  0  0  0  0  0  0  0
  1  2  1  0  0  0  0
  1 24  1  0  0  0  0
  1 25  1  0  0  0  0
  1 26  1  0  0  0  0
  2  3  1  0  0  0  0
  2 27  1  0  0  0  0
  2 28  1  0  0  0  0
  3  4  1  0  0  0  0
  4  5  1  0  0  0  0
  4 29  1  0  0  0  0
  4 30  1  0  0  0  0
  5  6  1  0  0  0  0
  5 31  1  0  0  0  0
  5 32  1  0  0  0  0
  6 16  1  0  0  0  0
  6  7  1  0  0  0  0
  7  8  1  0  0  0  0
  7 14  2  0  0  0  0
  8 13  1  0  0  0  0
  8  9  1  0  0  0  0
  9 10  1  0  0  0  0
  9 33  1  0  0  0  0
  9 34  1  0  0  0  0
 10 11  1  0  0  0  0
 10 35  1  0  0  0  0
 10 36  1  0  0  0  0
 11 12  1  0  0  0  0
 11 37  1  0  0  0  0
 12 13  1  0  0  0  0
 12 38  1  0  0  0  0
 12 39  1  0  0  0  0
 13 40  1  0  0  0  0
 13 41  1  0  0  0  0
 14 15  1  0  0  0  0
 15 22  1  0  0  0  0
 15 16  2  0  0  0  0
 16 17  1  0  0  0  0
 17 18  2  0  0  0  0
 17 19  1  0  0  0  0
 19 20  1  0  0  0  0
 20 21  2  0  0  0  0
 20 22  1  0  0  0  0
 22 23  1  0  0  0  0
 23 42  1  0  0  0  0
 23 43  1  0  0  0  0
 23 44  1  0  0  0  0
M  CHG  1  19  -1
M  END
> <s_m_source_file>
AV-unprocessed.smi

> <i_m_source_file_index>
514

> <i_lp_mmshare_version>
43012

> <i_f3d_flags>
0

> <s_epik_input>
W0NIM11uMWMoPU8pW25IXWMoPU8pYyhjMTIpbihbQ0gyXVtDSDJdT1tDSDJdW0NIM10pYyhuMilOM1tDSDJdW0NIMl1bTkhdW0NIMl1bQ0gyXTM=

> <s_epik_cmdline>
J2VwaWtfcHl0aG9uJywgJy1waCcsICc3LjAnLCAnLXRuJywgJzgnLCAnLW1hJywgJzIwMCcsICctbWV0YWxfYmluZGluZycsICctaW1hZScsICc8aW5maWxlLm1hZT4nLCAnLW9tYWUnLCAnPG91dGZpbGUubWFlPic=

> <r_epik_Ionization_Penalty>
8.82895

> <r_epik_Ionization_Penalty_Charging>
0.0771612

> <r_epik_Ionization_Penalty_Neutral>
8.75178

> <r_epik_State_Penalty>
8.91747

> <r_epik_Charging_Adjusted_Penalty>
8.99464

> <i_epik_Tot_Q>
-1

> <i_epik_Tot_abs_Q>
1

> <r_epik_Metal_State_Penalty>
4.86816

> <b_epik_Metal_Only>
1

> <s_lp_Force_Field>
OPLS_2005

> <r_lp_Energy>
52.9187

> <b_lp_Chiralities_Consistent>
1

> <s_lp_Variant>
AV-unprocessed.smi:514-4

> <Gold.Version>
5.8.1

> <Gold.Id.Protein>
6NUR|6NUR_protein|mol2

> <Gold.PLP.Fitness>
41.6421

> <Gold.PLP.PLP>
-36.2478

> <Gold.PLP.part.hbond>
-3.9556

> <Gold.PLP.part.metal>
0.0000

> <Gold.PLP.part.buried>
1.9751

> <Gold.PLP.part.nonpolar>
-35.0157

> <Gold.PLP.part.repulsive>
0.3209

> <Gold.PLP.ligand.clash>
0.0507

> <Gold.PLP.ligand.torsion>
0.3159

> <Gold.PLP.Chemscore.Hbond>
2.0000

> <Gold.PLP.Chemscore.CHOScore>
0.0000

> <Gold.PLP.Chemscore.Metal>
0.0000

> <Gold.Chemscore.Hbonds>
donor molecule, donor type, donor heavy atom, donor atom, acceptor molecule, acceptor atom, score
      L1  H    11    37       P1 10175  1.00
      P1  H 10752 10764       L1     3  1.00

> <Gold.PLP.Chemscore.Internal.Correction>
0.0767

> <Gold.Rescore>
     Score         DG    S(hbond)    S(metal)    S(lipo)     H(rot)  DE(clash)    DE(int)     intcor
     10.83     -14.87       1.86        0.00      64.32       1.70       1.44       2.60       ----

> <Gold.Chemscore.Fitness>
10.8286

> <Gold.Chemscore.DG>
-14.8678

> <Gold.Chemscore.ZeroCoef>
-5.4800

> <Gold.Chemscore.Hbond>
1.8571

> <Gold.Chemscore.Metal>
0.0000

> <Gold.Chemscore.Lipo>
64.3159

> <Gold.Chemscore.Internal_Hbond>
0.0000

> <Gold.Chemscore.DEClash>
1.4408

> <Gold.Chemscore.DEInternal>
2.5984

> <Gold.Chemscore.Rot>
1.6953

> <Gold.Chemscore.Internal.Correction>
   9.000000E+99

> <Gold.Chemscore.Hbonds>
donor molecule, donor type, donor heavy atom, donor atom, acceptor molecule, acceptor atom, score
      L1  H    11    37       P1 10175  0.85
      P1  H 10752 10764       L1     3  0.57

> <Gold.Chemscore.Hbond.Weighted>
-6.2028

> <Gold.Chemscore.Metal.Weighted>
-0.0000

> <Gold.Chemscore.Lipo.Weighted>
-7.5250

> <Gold.Chemscore.Internal_Hbond.Weighted>
0.0000

> <Gold.Chemscore.DEClash.Weighted>
1.4408

> <Gold.Chemscore.DEInternal.Weighted>
2.5984

> <Gold.Chemscore.Rot.Weighted>
4.3399

> <Gold.Chemscore.Internal.Correction.Weighted>
   9.000000E+99

> <Gold.Protein.RotatedTorsions>
[ 6907 6896 6895 6894 ] final  -56.29 input  -60.11 | X-H torsion
[ 7974 7965 7964 7962 ] final  123.16 input  175.53 | X-H torsion
[ 8008 7997 7996 7995 ] final  159.80 input   59.86 | X-H torsion
[ 10167 10162 10161 10158 ] final   43.10 input  -65.29 | X-H torsion
[ 10718 10713 10712 10709 ] final   31.87 input   66.30 | X-H torsion
[ 10763 10752 10751 10750 ] final  -77.99 input  -60.55 | X-H torsion
[ 11005 11000 10999 10996 ] final   -2.93 input  -57.11 | X-H torsion

> <Gold.Protein.ActiveResidues>
 VAL166  LYS551  ARG553  GLY616  TRP617  ASP618  TYR619  PRO620  LYS621  CYS622 
 ASP623  PHE694  ASN695  SER759  ASP760  ASP761  ALA762  ILE779  LEU786  VAL792 
 PHE793  MET794  SER795  GLU796  ALA797  LYS798  CYS799  TRP800  GLU811  SER814 

> <Gold.Protein.RotatedAtoms>
  150.8180  134.7372  159.6746 H   0  0  0  0  0  0  0  0  0  0  0  0  # atno 6907 bound_to 6896
  152.4297  134.5797  159.9954 H   0  0  0  0  0  0  0  0  0  0  0  0  # atno 6908 bound_to 6896
  151.5989  133.3321  159.3079 H   0  0  0  0  0  0  0  0  0  0  0  0  # atno 6909 bound_to 6896
  145.0992  139.3531  143.4821 H   0  0  0  0  0  0  0  0  0  0  0  0  # atno 7974 bound_to 7965
  156.2215  140.1821  156.7466 H   0  0  0  0  0  0  0  0  0  0  0  0  # atno 8008 bound_to 7997
  154.5873  140.0656  156.9217 H   0  0  0  0  0  0  0  0  0  0  0  0  # atno 8009 bound_to 7997
  155.2398  140.3321  155.4296 H   0  0  0  0  0  0  0  0  0  0  0  0  # atno 8010 bound_to 7997
  140.3477  144.2389  150.6149 H   0  0  0  0  0  0  0  0  0  0  0  0  # atno 10167 bound_to 10162
  157.2780  130.7240  149.6540 H   0  0  0  0  0  0  0  0  0  0  0  0  # atno 10718 bound_to 10713
  154.5201  135.5745  153.6674 H   0  0  0  0  0  0  0  0  0  0  0  0  # atno 10763 bound_to 10752
  152.9915  135.6179  154.2765 H   0  0  0  0  0  0  0  0  0  0  0  0  # atno 10764 bound_to 10752
  154.2686  135.2854  155.2727 H   0  0  0  0  0  0  0  0  0  0  0  0  # atno 10765 bound_to 10752
  140.6637  133.9297  155.8452 H   0  0  0  0  0  0  0  0  0  0  0  0  # atno 11005 bound_to 11000
  146.3530  140.0861  142.8615 LP  0  0  0  0  0  0  0  0  0  0  0  0  # atno 17320 bound_to 7965
  145.0976  140.9325  143.4732 LP  0  0  0  0  0  0  0  0  0  0  0  0  # atno 17321 bound_to 7965
  140.5248  143.2257  151.8331 LP  0  0  0  0  0  0  0  0  0  0  0  0  # atno 17342 bound_to 10162
  139.4831  144.4792  151.9328 LP  0  0  0  0  0  0  0  0  0  0  0  0  # atno 17343 bound_to 10162
  155.9664  130.4347  150.5060 LP  0  0  0  0  0  0  0  0  0  0  0  0  # atno 17370 bound_to 10713
  157.2998  131.0643  151.2076 LP  0  0  0  0  0  0  0  0  0  0  0  0  # atno 17371 bound_to 10713
  141.0445  134.0573  157.3861 LP  0  0  0  0  0  0  0  0  0  0  0  0  # atno 17394 bound_to 11000
  139.9004  135.0162  156.7241 LP  0  0  0  0  0  0  0  0  0  0  0  0  # atno 17395 bound_to 11000

$$$$
