AV-unprocessed.smi:691|AV-procd|sdf|3365|dock8
  -GOLD-   22720 0343D 1   1.00000     0.00000
 Structure written by MMmdl.
 37 38  0  0  0  0  0  0  0  0  1 V2000
  143.8737  133.8330  151.7315 C   0  0  0  0  0  0  0  0  0  0  0  0
  145.2927  134.4448  151.6394 C   0  0  2  0  0  0  0  0  0  0  0  0
  145.2285  135.7765  150.8442 C   0  0  0  0  0  0  0  0  0  0  0  0
  144.2535  136.6556  151.3689 O   0  0  0  0  0  0  0  0  0  0  0  0
  146.2632  133.4391  150.9955 C   0  0  0  0  0  0  0  0  0  0  0  0
  146.6467  132.4544  152.1030 C   0  0  0  0  0  0  0  0  0  0  0  0
  146.4705  133.2127  153.4250 C   0  0  0  0  0  0  0  0  0  0  0  0
  145.8716  134.5887  153.0753 C   0  0  1  0  0  0  0  0  0  0  0  0
  146.9234  135.6044  153.1755 N   0  0  0  0  0  0  0  0  0  0  0  0
  146.9985  136.5680  154.1052 C   0  0  0  0  0  0  0  0  0  0  0  0
  146.1698  136.7119  155.0032 O   0  0  0  0  0  0  0  0  0  0  0  0
  148.0889  137.3316  153.9195 N   0  0  0  0  0  0  0  0  0  0  0  0
  148.5397  138.4504  154.6731 C   0  0  0  0  0  0  0  0  0  0  0  0
  147.9910  138.8632  155.9123 C   0  0  0  0  0  0  0  0  0  0  0  0
  148.5258  140.0004  156.5481 C   0  0  0  0  0  0  0  0  0  0  0  0
  149.5843  140.6865  155.9221 C   0  0  0  0  0  0  0  0  0  0  0  0
  150.1096  140.3119  154.7369 N   0  0  0  0  0  0  0  0  0  0  0  0
  149.5914  139.2212  154.1332 C   0  0  0  0  0  0  0  0  0  0  0  0
  143.4788  133.5769  150.7480 H   0  0  0  0  0  0  0  0  0  0  0  0
  143.1752  134.5322  152.1924 H   0  0  0  0  0  0  0  0  0  0  0  0
  143.8571  132.9208  152.3281 H   0  0  0  0  0  0  0  0  0  0  0  0
  146.1969  136.2775  150.8615 H   0  0  0  0  0  0  0  0  0  0  0  0
  144.9774  135.6058  149.7973 H   0  0  0  0  0  0  0  0  0  0  0  0
  144.3481  137.4957  150.9467 H   0  0  0  0  0  0  0  0  0  0  0  0
  145.8398  132.9370  150.1248 H   0  0  0  0  0  0  0  0  0  0  0  0
  147.1615  133.9588  150.6593 H   0  0  0  0  0  0  0  0  0  0  0  0
  145.9799  131.5913  152.0817 H   0  0  0  0  0  0  0  0  0  0  0  0
  147.6635  132.0818  151.9750 H   0  0  0  0  0  0  0  0  0  0  0  0
  145.7882  132.6610  154.0730 H   0  0  0  0  0  0  0  0  0  0  0  0
  147.4143  133.2966  153.9660 H   0  0  0  0  0  0  0  0  0  0  0  0
  145.0763  134.8242  153.7851 H   0  0  0  0  0  0  0  0  0  0  0  0
  147.6529  135.5638  152.4790 H   0  0  0  0  0  0  0  0  0  0  0  0
  148.6991  137.0498  153.1661 H   0  0  0  0  0  0  0  0  0  0  0  0
  147.1702  138.3468  156.3836 H   0  0  0  0  0  0  0  0  0  0  0  0
  148.1304  140.3407  157.4938 H   0  0  0  0  0  0  0  0  0  0  0  0
  150.0163  141.5625  156.3832 H   0  0  0  0  0  0  0  0  0  0  0  0
  150.0354  138.9533  153.1855 H   0  0  0  0  0  0  0  0  0  0  0  0
  1  2  1  0  0  0  0
  1 19  1  0  0  0  0
  1 20  1  0  0  0  0
  1 21  1  0  0  0  0
  2  8  1  0  0  0  0
  2  3  1  0  0  0  0
  2  5  1  0  0  0  0
  3  4  1  0  0  0  0
  3 22  1  0  0  0  0
  3 23  1  0  0  0  0
  4 24  1  0  0  0  0
  5  6  1  0  0  0  0
  5 25  1  0  0  0  0
  5 26  1  0  0  0  0
  6  7  1  0  0  0  0
  6 27  1  0  0  0  0
  6 28  1  0  0  0  0
  7  8  1  0  0  0  0
  7 29  1  0  0  0  0
  7 30  1  0  0  0  0
  8  9  1  0  0  0  0
  8 31  1  0  0  0  0
  9 10  1  0  0  0  0
  9 32  1  0  0  0  0
 10 11  2  0  0  0  0
 10 12  1  0  0  0  0
 12 13  1  0  0  0  0
 12 33  1  0  0  0  0
 13 18  1  0  0  0  0
 13 14  2  0  0  0  0
 14 15  1  0  0  0  0
 14 34  1  0  0  0  0
 15 16  2  0  0  0  0
 15 35  1  0  0  0  0
 16 17  1  0  0  0  0
 16 36  1  0  0  0  0
 17 18  2  0  0  0  0
 18 37  1  0  0  0  0
M  END
> <s_m_source_file>
AV-unprocessed.smi

> <i_m_source_file_index>
691

> <i_lp_mmshare_version>
43012

> <i_f3d_flags>
0

> <s_epik_input>
W09IXVtDSDJdW0NAXTEoW0NIM10pW0NIMl1bQ0gyXVtDSDJdW0NASF0xW05IXUMoPU8pW05IXWMyW2NIXVtjSF1bY0hdbltjSF0y

> <s_epik_cmdline>
J2VwaWtfcHl0aG9uJywgJy1waCcsICc3LjAnLCAnLXRuJywgJzgnLCAnLW1hJywgJzIwMCcsICctbWV0YWxfYmluZGluZycsICctaW1hZScsICc8aW5maWxlLm1hZT4nLCAnLW9tYWUnLCAnPG91dGZpbGUubWFlPic=

> <r_epik_Ionization_Penalty>
0.00496828

> <r_epik_Ionization_Penalty_Charging>
0

> <r_epik_Ionization_Penalty_Neutral>
0.00496828

> <r_epik_State_Penalty>
0.00358054

> <r_epik_Charging_Adjusted_Penalty>
0.00358054

> <i_epik_Tot_Q>
0

> <i_epik_Tot_abs_Q>
0

> <r_epik_Metal_State_Penalty>
-0

> <b_epik_Metal_Only>
0

> <s_lp_Force_Field>
OPLS_2005

> <r_lp_Energy>
30.5868

> <b_lp_Chiralities_Consistent>
1

> <s_lp_Variant>
AV-unprocessed.smi:691-2

> <Gold.Version>
5.8.1

> <Gold.Id.Protein>
6NUR|6NUR_protein|mol2

> <Gold.PLP.Fitness>
36.7424

> <Gold.PLP.PLP>
-22.4668

> <Gold.PLP.part.hbond>
-3.6603

> <Gold.PLP.part.metal>
0.0000

> <Gold.PLP.part.buried>
-2.3170

> <Gold.PLP.part.nonpolar>
-17.1158

> <Gold.PLP.part.repulsive>
0.1325

> <Gold.PLP.ligand.clash>
0.0000

> <Gold.PLP.ligand.torsion>
0.1702

> <Gold.PLP.Chemscore.Hbond>
3.9840

> <Gold.PLP.Chemscore.CHOScore>
0.8846

> <Gold.PLP.Chemscore.Metal>
0.0000

> <Gold.Chemscore.Hbonds>
donor molecule, donor type, donor heavy atom, donor atom, acceptor molecule, acceptor atom, score
      L1  H     4    24       P1 10171  0.99
      L1  H     9    32       P1  7948  0.99
      L1  H    12    33       P1  7948  1.00
      P1  H  7989  7998       L1    17  0.99
      L1  C    18    37       P1  7957  0.91

> <Gold.PLP.Chemscore.Internal.Correction>
0.0100

> <Gold.Rescore>
     Score         DG    S(hbond)    S(metal)    S(lipo)     H(rot)  DE(clash)    DE(int)     intcor
     18.03     -19.43       3.78        0.00      50.47       1.78       0.00       1.40       ----

> <Gold.Chemscore.Fitness>
18.0274

> <Gold.Chemscore.DG>
-19.4312

> <Gold.Chemscore.ZeroCoef>
-5.4800

> <Gold.Chemscore.Hbond>
3.7763

> <Gold.Chemscore.Metal>
0.0000

> <Gold.Chemscore.Lipo>
50.4704

> <Gold.Chemscore.Internal_Hbond>
0.0000

> <Gold.Chemscore.DEClash>
0.0030

> <Gold.Chemscore.DEInternal>
1.4007

> <Gold.Chemscore.Rot>
1.7838

> <Gold.Chemscore.Internal.Correction>
   9.000000E+99

> <Gold.Chemscore.Hbonds>
donor molecule, donor type, donor heavy atom, donor atom, acceptor molecule, acceptor atom, score
      L1  H     4    24       P1 10171  0.94
      L1  H     9    32       P1  7948  0.90
      L1  H    12    33       P1  7948  0.92
      P1  H  7989  7998       L1    17  0.39

> <Gold.Chemscore.Hbond.Weighted>
-12.6127

> <Gold.Chemscore.Metal.Weighted>
-0.0000

> <Gold.Chemscore.Lipo.Weighted>
-5.9050

> <Gold.Chemscore.Internal_Hbond.Weighted>
0.0000

> <Gold.Chemscore.DEClash.Weighted>
0.0030

> <Gold.Chemscore.DEInternal.Weighted>
1.4007

> <Gold.Chemscore.Rot.Weighted>
4.5666

> <Gold.Chemscore.Internal.Correction.Weighted>
   9.000000E+99

> <Gold.Protein.RotatedTorsions>
[ 6907 6896 6895 6894 ] final  164.72 input  -60.11 | X-H torsion
[ 7974 7965 7964 7962 ] final  156.61 input  175.53 | X-H torsion
[ 8008 7997 7996 7995 ] final   73.89 input   59.86 | X-H torsion
[ 10167 10162 10161 10158 ] final -135.93 input  -65.29 | X-H torsion
[ 10718 10713 10712 10709 ] final    4.99 input   66.30 | X-H torsion
[ 10763 10752 10751 10750 ] final  -94.24 input  -60.55 | X-H torsion
[ 11005 11000 10999 10996 ] final -171.51 input  -57.11 | X-H torsion

> <Gold.Protein.ActiveResidues>
 VAL166  LYS551  ARG553  GLY616  TRP617  ASP618  TYR619  PRO620  LYS621  CYS622 
 ASP623  PHE694  ASN695  SER759  ASP760  ASP761  ALA762  ILE779  LEU786  VAL792 
 PHE793  MET794  SER795  GLU796  ALA797  LYS798  CYS799  TRP800  GLU811  SER814 

> <Gold.Protein.RotatedAtoms>
  151.9055  133.3548  159.3845 H   0  0  0  0  0  0  0  0  0  0  0  0  # atno 6907 bound_to 6896
  150.7070  134.4785  159.5468 H   0  0  0  0  0  0  0  0  0  0  0  0  # atno 6908 bound_to 6896
  152.2381  134.8256  160.0515 H   0  0  0  0  0  0  0  0  0  0  0  0  # atno 6909 bound_to 6896
  144.7953  139.7227  143.6204 H   0  0  0  0  0  0  0  0  0  0  0  0  # atno 7974 bound_to 7965
  155.7903  140.3479  155.5345 H   0  0  0  0  0  0  0  0  0  0  0  0  # atno 8008 bound_to 7997
  155.8640  140.0976  157.1615 H   0  0  0  0  0  0  0  0  0  0  0  0  # atno 8009 bound_to 7997
  154.4013  140.1353  156.3984 H   0  0  0  0  0  0  0  0  0  0  0  0  # atno 8010 bound_to 7997
  139.8729  143.6934  152.2637 H   0  0  0  0  0  0  0  0  0  0  0  0  # atno 10167 bound_to 10162
  156.9008  130.5721  149.5648 H   0  0  0  0  0  0  0  0  0  0  0  0  # atno 10718 bound_to 10713
  154.7036  135.5165  153.8562 H   0  0  0  0  0  0  0  0  0  0  0  0  # atno 10763 bound_to 10752
  153.0723  135.6605  154.0229 H   0  0  0  0  0  0  0  0  0  0  0  0  # atno 10764 bound_to 10752
  154.0084  135.3004  155.3374 H   0  0  0  0  0  0  0  0  0  0  0  0  # atno 10765 bound_to 10752
  140.5074  134.5835  157.5008 H   0  0  0  0  0  0  0  0  0  0  0  0  # atno 11005 bound_to 11000
  146.2219  139.5651  142.9613 LP  0  0  0  0  0  0  0  0  0  0  0  0  # atno 17320 bound_to 7965
  145.5690  141.0396  143.2185 LP  0  0  0  0  0  0  0  0  0  0  0  0  # atno 17321 bound_to 7965
  139.7267  144.7591  151.0868 LP  0  0  0  0  0  0  0  0  0  0  0  0  # atno 17342 bound_to 10162
  140.7757  143.5139  150.9618 LP  0  0  0  0  0  0  0  0  0  0  0  0  # atno 17343 bound_to 10162
  156.0583  130.5640  150.9138 LP  0  0  0  0  0  0  0  0  0  0  0  0  # atno 17370 bound_to 10713
  157.6027  131.0940  150.8932 LP  0  0  0  0  0  0  0  0  0  0  0  0  # atno 17371 bound_to 10713
  139.9678  134.7343  156.0102 LP  0  0  0  0  0  0  0  0  0  0  0  0  # atno 17394 bound_to 11000
  141.1404  133.6566  156.3712 LP  0  0  0  0  0  0  0  0  0  0  0  0  # atno 17395 bound_to 11000

$$$$
