AV-unprocessed.smi:2569|AV-procd|sdf|10104|dock5
  -GOLD-   2272014123D 1   1.00000     0.00000
 Structure written by MMmdl.
 40 42  0  0  0  0  0  0  0  0  2 V2000
  152.3890  144.0222  161.5779 C   0  0  0  0  0  0  0  0  0  0  0  0
  152.2413  143.1634  160.3332 C   0  0  0  0  0  0  0  0  0  0  0  0
  151.3761  143.6055  159.3075 C   0  0  0  0  0  0  0  0  0  0  0  0
  151.2640  142.7998  158.1805 C   0  0  0  0  0  0  0  0  0  0  0  0
  150.5058  142.9558  157.0184 N   0  3  0  0  0  0  0  0  0  0  0  0
  150.7235  141.8986  156.1885 C   0  0  0  0  0  0  0  0  0  0  0  0
  151.6115  141.0701  156.8023 N   0  0  0  0  0  0  0  0  0  0  0  0
  152.1751  139.7943  156.3373 C   0  0  0  0  0  0  0  0  0  0  0  0
  151.1229  138.8838  155.6760 C   0  0  2  0  0  0  0  0  0  0  0  0
  150.8427  139.3379  154.3651 O   0  0  0  0  0  0  0  0  0  0  0  0
  149.8211  138.8212  156.4980 C   0  0  0  0  0  0  0  0  0  0  0  0
  149.9403  137.9707  157.6709 N   0  0  0  0  0  0  0  0  0  0  0  0
  149.6741  138.4552  158.9088 N   0  0  0  0  0  0  0  0  0  0  0  0
  149.8641  137.4741  159.7434 N   0  0  0  0  0  0  0  0  0  0  0  0
  150.2566  136.3232  159.0857 N   0  0  0  0  0  0  0  0  0  0  0  0
  150.2877  136.6842  157.8095 C   0  0  0  0  0  0  0  0  0  0  0  0
  150.6568  135.7955  156.6677 C   0  0  0  0  0  0  0  0  0  0  0  0
  151.9762  141.5913  158.0500 C   0  0  0  0  0  0  0  0  0  0  0  0
  152.8314  141.1404  159.0535 C   0  0  0  0  0  0  0  0  0  0  0  0
  152.9591  141.9457  160.2080 C   0  0  0  0  0  0  0  0  0  0  0  0
  153.8851  141.4785  161.3184 C   0  0  0  0  0  0  0  0  0  0  0  0
  151.7468  144.9024  161.5339 H   0  0  0  0  0  0  0  0  0  0  0  0
  153.4183  144.3652  161.6850 H   0  0  0  0  0  0  0  0  0  0  0  0
  152.1169  143.4576  162.4699 H   0  0  0  0  0  0  0  0  0  0  0  0
  150.8256  144.5308  159.3962 H   0  0  0  0  0  0  0  0  0  0  0  0
  150.2715  141.7445  155.2192 H   0  0  0  0  0  0  0  0  0  0  0  0
  152.9581  140.0353  155.6173 H   0  0  0  0  0  0  0  0  0  0  0  0
  152.6712  139.2910  157.1671 H   0  0  0  0  0  0  0  0  0  0  0  0
  151.5368  137.8781  155.5912 H   0  0  0  0  0  0  0  0  0  0  0  0
  150.9512  138.6160  153.7653 H   0  0  0  0  0  0  0  0  0  0  0  0
  149.5415  139.8214  156.8324 H   0  0  0  0  0  0  0  0  0  0  0  0
  148.9961  138.4623  155.8819 H   0  0  0  0  0  0  0  0  0  0  0  0
  150.9479  134.8099  157.0318 H   0  0  0  0  0  0  0  0  0  0  0  0
  151.4937  136.2208  156.1141 H   0  0  0  0  0  0  0  0  0  0  0  0
  149.8086  135.6797  155.9929 H   0  0  0  0  0  0  0  0  0  0  0  0
  153.3769  140.2131  158.9637 H   0  0  0  0  0  0  0  0  0  0  0  0
  154.3675  140.5337  161.0659 H   0  0  0  0  0  0  0  0  0  0  0  0
  153.3278  141.3302  162.2435 H   0  0  0  0  0  0  0  0  0  0  0  0
  154.6689  142.2144  161.4993 H   0  0  0  0  0  0  0  0  0  0  0  0
  149.8836  143.7251  156.8055 H   0  0  0  0  0  0  0  0  0  0  0  0
  1  2  1  0  0  0  0
  1 22  1  0  0  0  0
  1 23  1  0  0  0  0
  1 24  1  0  0  0  0
  2 20  1  0  0  0  0
  2  3  2  0  0  0  0
  3  4  1  0  0  0  0
  3 25  1  0  0  0  0
  4 18  2  0  0  0  0
  4  5  1  0  0  0  0
  5  6  2  0  0  0  0
  5 40  1  0  0  0  0
  6  7  1  0  0  0  0
  6 26  1  0  0  0  0
  7  8  1  0  0  0  0
  7 18  1  0  0  0  0
  8  9  1  0  0  0  0
  8 27  1  0  0  0  0
  8 28  1  0  0  0  0
  9 10  1  0  0  0  0
  9 11  1  0  0  0  0
  9 29  1  0  0  0  0
 10 30  1  0  0  0  0
 11 12  1  0  0  0  0
 11 31  1  0  0  0  0
 11 32  1  0  0  0  0
 12 16  1  0  0  0  0
 12 13  1  0  0  0  0
 13 14  2  0  0  0  0
 14 15  1  0  0  0  0
 15 16  2  0  0  0  0
 16 17  1  0  0  0  0
 17 33  1  0  0  0  0
 17 34  1  0  0  0  0
 17 35  1  0  0  0  0
 18 19  1  0  0  0  0
 19 20  2  0  0  0  0
 19 36  1  0  0  0  0
 20 21  1  0  0  0  0
 21 37  1  0  0  0  0
 21 38  1  0  0  0  0
 21 39  1  0  0  0  0
M  CHG  1   5   1
M  END
> <s_m_source_file>
AV-unprocessed.smi

> <i_m_source_file_index>
2569

> <i_lp_mmshare_version>
43012

> <i_f3d_flags>
0

> <s_epik_input>
W0NIM11jKFtjSF0xKWMoW0NIM10pW2NIXWMoYzEyKW4oW2NIXW4yKVtDSDJdW0NASF0oW09IXSlbQ0gyXW4zbm5uYzNbQ0gzXQ==

> <s_epik_cmdline>
J2VwaWtfcHl0aG9uJywgJy1waCcsICc3LjAnLCAnLXRuJywgJzgnLCAnLW1hJywgJzIwMCcsICctbWV0YWxfYmluZGluZycsICctaW1hZScsICc8aW5maWxlLm1hZT4nLCAnLW9tYWUnLCAnPG91dGZpbGUubWFlPic=

> <r_lp_tautomer_probability>
1

> <r_epik_Ionization_Penalty>
1.13338

> <r_epik_Ionization_Penalty_Charging>
1.13335

> <r_epik_Ionization_Penalty_Neutral>
3.02334e-05

> <r_epik_State_Penalty>
1.19324

> <r_epik_Charging_Adjusted_Penalty>
2.3266

> <i_epik_Tot_Q>
1

> <i_epik_Tot_abs_Q>
1

> <r_epik_Metal_State_Penalty>
1.27602

> <b_epik_Metal_Only>
0

> <s_lp_Force_Field>
OPLS_2005

> <r_lp_Energy>
15.9129

> <b_lp_Chiralities_Consistent>
1

> <s_lp_Variant>
AV-unprocessed.smi:2569-3

> <Gold.Version>
5.8.1

> <Gold.Id.Protein>
6NUR|6NUR_protein|mol2

> <Gold.PLP.Fitness>
51.8439

> <Gold.PLP.PLP>
-40.7934

> <Gold.PLP.part.hbond>
-4.7660

> <Gold.PLP.part.metal>
0.0000

> <Gold.PLP.part.buried>
-6.1472

> <Gold.PLP.part.nonpolar>
-29.4317

> <Gold.PLP.part.repulsive>
0.0162

> <Gold.PLP.ligand.clash>
0.0000

> <Gold.PLP.ligand.torsion>
0.5245

> <Gold.PLP.Chemscore.Hbond>
4.0304

> <Gold.PLP.Chemscore.CHOScore>
0.0000

> <Gold.PLP.Chemscore.Metal>
0.0000

> <Gold.Chemscore.Hbonds>
donor molecule, donor type, donor heavy atom, donor atom, acceptor molecule, acceptor atom, score
      L1  H     5    40       P1  8028  2.00
      P1  H  6896  6907       L1    15  0.98
      P1  H  6931  6943       L1    14  0.01
      P1  H  7989  7998       L1    10  1.00

> <Gold.PLP.Chemscore.Internal.Correction>
0.0082

> <Gold.Rescore>
     Score         DG    S(hbond)    S(metal)    S(lipo)     H(rot)  DE(clash)    DE(int)     intcor
     19.56     -20.19       2.91        0.00      99.09       2.59       0.04       0.59       ----

> <Gold.Chemscore.Fitness>
19.5562

> <Gold.Chemscore.DG>
-20.1885

> <Gold.Chemscore.ZeroCoef>
-5.4800

> <Gold.Chemscore.Hbond>
2.9142

> <Gold.Chemscore.Metal>
0.0000

> <Gold.Chemscore.Lipo>
99.0927

> <Gold.Chemscore.Internal_Hbond>
0.0000

> <Gold.Chemscore.DEClash>
0.0382

> <Gold.Chemscore.DEInternal>
0.5941

> <Gold.Chemscore.Rot>
2.5854

> <Gold.Chemscore.Internal.Correction>
   9.000000E+99

> <Gold.Chemscore.Hbonds>
donor molecule, donor type, donor heavy atom, donor atom, acceptor molecule, acceptor atom, score
      L1  H     5    40       P1  8028  0.96
      P1  H  6896  6907       L1    15  0.92
      P1  H  6931  6943       L1    14  0.01
      P1  H  7989  7998       L1    10  0.50

> <Gold.Chemscore.Hbond.Weighted>
-9.7333

> <Gold.Chemscore.Metal.Weighted>
-0.0000

> <Gold.Chemscore.Lipo.Weighted>
-11.5938

> <Gold.Chemscore.Internal_Hbond.Weighted>
0.0000

> <Gold.Chemscore.DEClash.Weighted>
0.0382

> <Gold.Chemscore.DEInternal.Weighted>
0.5941

> <Gold.Chemscore.Rot.Weighted>
6.6187

> <Gold.Chemscore.Internal.Correction.Weighted>
   9.000000E+99

> <Gold.Protein.RotatedTorsions>
[ 6907 6896 6895 6894 ] final  -59.53 input  -60.11 | X-H torsion
[ 7974 7965 7964 7962 ] final   10.62 input  175.53 | X-H torsion
[ 8008 7997 7996 7995 ] final   -1.25 input   59.86 | X-H torsion
[ 10167 10162 10161 10158 ] final  -39.27 input  -65.29 | X-H torsion
[ 10718 10713 10712 10709 ] final   89.70 input   66.30 | X-H torsion
[ 10763 10752 10751 10750 ] final   46.18 input  -60.55 | X-H torsion
[ 11005 11000 10999 10996 ] final  -13.79 input  -57.11 | X-H torsion

> <Gold.Protein.ActiveResidues>
 VAL166  LYS551  ARG553  GLY616  TRP617  ASP618  TYR619  PRO620  LYS621  CYS622 
 ASP623  PHE694  ASN695  SER759  ASP760  ASP761  ALA762  ILE779  LEU786  VAL792 
 PHE793  MET794  SER795  GLU796  ALA797  LYS798  CYS799  TRP800  GLU811  SER814 

> <Gold.Protein.RotatedAtoms>
  150.7924  134.6957  159.6521 H   0  0  0  0  0  0  0  0  0  0  0  0  # atno 6907 bound_to 6896
  152.4031  134.6249  160.0070 H   0  0  0  0  0  0  0  0  0  0  0  0  # atno 6908 bound_to 6896
  151.6515  133.3284  159.3189 H   0  0  0  0  0  0  0  0  0  0  0  0  # atno 6909 bound_to 6896
  146.2385  139.9608  142.8459 H   0  0  0  0  0  0  0  0  0  0  0  0  # atno 7974 bound_to 7965
  154.6489  140.2564  155.7236 H   0  0  0  0  0  0  0  0  0  0  0  0  # atno 8008 bound_to 7997
  156.2565  140.2872  156.0836 H   0  0  0  0  0  0  0  0  0  0  0  0  # atno 8009 bound_to 7997
  155.1481  140.0381  157.2805 H   0  0  0  0  0  0  0  0  0  0  0  0  # atno 8010 bound_to 7997
  140.7069  143.3224  151.2759 H   0  0  0  0  0  0  0  0  0  0  0  0  # atno 10167 bound_to 10162
  157.6956  131.0343  150.3466 H   0  0  0  0  0  0  0  0  0  0  0  0  # atno 10718 bound_to 10713
  152.9814  135.6016  154.3557 H   0  0  0  0  0  0  0  0  0  0  0  0  # atno 10763 bound_to 10752
  154.3243  135.2769  155.2506 H   0  0  0  0  0  0  0  0  0  0  0  0  # atno 10764 bound_to 10752
  154.4658  135.5954  153.6343 H   0  0  0  0  0  0  0  0  0  0  0  0  # atno 10765 bound_to 10752
  140.7797  133.8373  155.9281 H   0  0  0  0  0  0  0  0  0  0  0  0  # atno 11005 bound_to 11000
  145.1773  140.9750  143.4287 LP  0  0  0  0  0  0  0  0  0  0  0  0  # atno 17320 bound_to 7965
  144.9974  139.3631  143.6184 LP  0  0  0  0  0  0  0  0  0  0  0  0  # atno 17321 bound_to 7965
  139.6683  144.0066  152.2737 LP  0  0  0  0  0  0  0  0  0  0  0  0  # atno 17342 bound_to 10162
  139.9656  144.6528  150.8037 LP  0  0  0  0  0  0  0  0  0  0  0  0  # atno 17343 bound_to 10162
  156.3919  130.3899  149.7023 LP  0  0  0  0  0  0  0  0  0  0  0  0  # atno 17370 bound_to 10713
  156.4370  130.7842  151.2863 LP  0  0  0  0  0  0  0  0  0  0  0  0  # atno 17371 bound_to 10713
  140.9494  134.1798  157.4739 LP  0  0  0  0  0  0  0  0  0  0  0  0  # atno 17394 bound_to 11000
  139.8744  134.9903  156.5498 LP  0  0  0  0  0  0  0  0  0  0  0  0  # atno 17395 bound_to 11000

$$$$
