AV-unprocessed.smi:1326|AV-procd|sdf|5476|dock1
  -GOLD-   22720 5 43D 1   1.00000     0.00000
 Structure written by MMmdl.
 38 38  0  0  0  0  0  0  0  0  2 V2000
  147.6244  136.1285  160.0327 C   0  0  0  0  0  0  0  0  0  0  0  0
  148.7074  136.9832  159.4097 C   0  0  0  0  0  0  0  0  0  0  0  0
  148.3933  138.1044  158.8814 N   0  0  0  0  0  0  0  0  0  0  0  0
  149.3957  138.9020  158.3035 C   0  0  0  0  0  0  0  0  0  0  0  0
  148.9340  140.2186  157.7035 C   0  0  0  0  0  0  0  0  0  0  0  0
  150.6992  138.5010  158.2959 C   0  0  0  0  0  0  0  0  0  0  0  0
  151.8276  139.3318  157.6843 C   0  0  0  0  0  0  0  0  0  0  0  0
  153.0213  139.6137  158.5991 C   0  0  0  0  0  0  0  0  0  0  0  0
  154.1314  139.1604  158.3200 O   0  0  0  0  0  0  0  0  0  0  0  0
  152.7856  140.3797  159.6754 N   0  0  0  0  0  0  0  0  0  0  0  0
  153.7886  140.8042  160.6440 C   0  0  0  0  0  0  0  0  0  0  0  0
  153.3335  142.0695  161.3939 C   0  0  0  0  0  0  0  0  0  0  0  0
  152.4361  143.0090  160.5631 C   0  0  0  0  0  0  0  0  0  0  0  0
  153.0580  143.3684  159.2032 C   0  0  0  0  0  0  0  0  0  0  0  0
  152.1097  144.2847  161.3545 C   0  0  0  0  0  0  0  0  0  0  0  0
  151.0177  137.1980  158.9073 C   0  0  0  0  0  0  0  0  0  0  0  0
  152.1749  136.7795  158.9082 O   0  0  0  0  0  0  0  0  0  0  0  0
  149.9903  136.4853  159.4502 N   0  5  0  0  0  0  0  0  0  0  0  0
  146.6806  136.6721  160.0940 H   0  0  0  0  0  0  0  0  0  0  0  0
  147.9096  135.8281  161.0416 H   0  0  0  0  0  0  0  0  0  0  0  0
  147.4646  135.2300  159.4362 H   0  0  0  0  0  0  0  0  0  0  0  0
  149.2355  140.2921  156.6584 H   0  0  0  0  0  0  0  0  0  0  0  0
  149.3647  141.0581  158.2495 H   0  0  0  0  0  0  0  0  0  0  0  0
  147.8484  140.3133  157.7454 H   0  0  0  0  0  0  0  0  0  0  0  0
  152.1923  138.8204  156.7933 H   0  0  0  0  0  0  0  0  0  0  0  0
  151.4463  140.2839  157.3136 H   0  0  0  0  0  0  0  0  0  0  0  0
  151.8408  140.7062  159.8233 H   0  0  0  0  0  0  0  0  0  0  0  0
  153.9387  139.9796  161.3401 H   0  0  0  0  0  0  0  0  0  0  0  0
  154.7463  140.9728  160.1488 H   0  0  0  0  0  0  0  0  0  0  0  0
  152.7849  141.7617  162.2855 H   0  0  0  0  0  0  0  0  0  0  0  0
  154.2062  142.6173  161.7529 H   0  0  0  0  0  0  0  0  0  0  0  0
  151.4923  142.4956  160.3748 H   0  0  0  0  0  0  0  0  0  0  0  0
  154.0326  143.8418  159.3260 H   0  0  0  0  0  0  0  0  0  0  0  0
  152.4212  144.0613  158.6526 H   0  0  0  0  0  0  0  0  0  0  0  0
  153.1904  142.4880  158.5751 H   0  0  0  0  0  0  0  0  0  0  0  0
  153.0138  144.8489  161.5870 H   0  0  0  0  0  0  0  0  0  0  0  0
  151.6134  144.0486  162.2962 H   0  0  0  0  0  0  0  0  0  0  0  0
  151.4450  144.9393  160.7904 H   0  0  0  0  0  0  0  0  0  0  0  0
  1  2  1  0  0  0  0
  1 19  1  0  0  0  0
  1 20  1  0  0  0  0
  1 21  1  0  0  0  0
  2 18  1  0  0  0  0
  2  3  2  0  0  0  0
  3  4  1  0  0  0  0
  4  5  1  0  0  0  0
  4  6  2  0  0  0  0
  5 22  1  0  0  0  0
  5 23  1  0  0  0  0
  5 24  1  0  0  0  0
  6  7  1  0  0  0  0
  6 16  1  0  0  0  0
  7  8  1  0  0  0  0
  7 25  1  0  0  0  0
  7 26  1  0  0  0  0
  8  9  2  0  0  0  0
  8 10  1  0  0  0  0
 10 11  1  0  0  0  0
 10 27  1  0  0  0  0
 11 12  1  0  0  0  0
 11 28  1  0  0  0  0
 11 29  1  0  0  0  0
 12 13  1  0  0  0  0
 12 30  1  0  0  0  0
 12 31  1  0  0  0  0
 13 14  1  0  0  0  0
 13 15  1  0  0  0  0
 13 32  1  0  0  0  0
 14 33  1  0  0  0  0
 14 34  1  0  0  0  0
 14 35  1  0  0  0  0
 15 36  1  0  0  0  0
 15 37  1  0  0  0  0
 15 38  1  0  0  0  0
 16 17  2  0  0  0  0
 16 18  1  0  0  0  0
M  CHG  1  18  -1
M  END
> <s_m_source_file>
AV-unprocessed.smi

> <i_m_source_file_index>
1326

> <i_lp_mmshare_version>
43012

> <i_f3d_flags>
0

> <s_epik_input>
W0NIM11jMW5jKFtDSDNdKWMoYyg9TylbbkhdMSlbQ0gyXUMoPU8pW05IXVtDSDJdW0NIMl1bQ0hdKFtDSDNdKVtDSDNd

> <s_epik_cmdline>
J2VwaWtfcHl0aG9uJywgJy1waCcsICc3LjAnLCAnLXRuJywgJzgnLCAnLW1hJywgJzIwMCcsICctbWV0YWxfYmluZGluZycsICctaW1hZScsICc8aW5maWxlLm1hZT4nLCAnLW9tYWUnLCAnPG91dGZpbGUubWFlPic=

> <r_lp_tautomer_probability>
0.839158

> <r_epik_Ionization_Penalty>
6.68288

> <r_epik_Ionization_Penalty_Charging>
7.3825e-08

> <r_epik_Ionization_Penalty_Neutral>
6.68288

> <r_epik_State_Penalty>
4.52336

> <r_epik_Charging_Adjusted_Penalty>
4.52336

> <i_epik_Tot_Q>
-1

> <i_epik_Tot_abs_Q>
1

> <r_epik_Metal_State_Penalty>
0.854958

> <b_epik_Metal_Only>
1

> <s_lp_Force_Field>
OPLS_2005

> <r_lp_Energy>
8.11969

> <b_lp_Chiralities_Consistent>
1

> <s_lp_Variant>
AV-unprocessed.smi:1326-3

> <Gold.Version>
5.8.1

> <Gold.Id.Protein>
6NUR|6NUR_protein|mol2

> <Gold.PLP.Fitness>
41.5131

> <Gold.PLP.PLP>
-33.1880

> <Gold.PLP.part.hbond>
-4.0000

> <Gold.PLP.part.metal>
0.0000

> <Gold.PLP.part.buried>
-3.9819

> <Gold.PLP.part.nonpolar>
-25.8507

> <Gold.PLP.part.repulsive>
0.1212

> <Gold.PLP.ligand.clash>
0.0000

> <Gold.PLP.ligand.torsion>
0.4211

> <Gold.PLP.Chemscore.Hbond>
3.0429

> <Gold.PLP.Chemscore.CHOScore>
0.0000

> <Gold.PLP.Chemscore.Metal>
0.0000

> <Gold.Chemscore.Hbonds>
donor molecule, donor type, donor heavy atom, donor atom, acceptor molecule, acceptor atom, score
      P1  H  6896  6908       L1    18  2.00
      P1  H  6896  6909       L1    17  0.04
      P1  H  7997  8009       L1     9  1.00

> <Gold.PLP.Chemscore.Internal.Correction>
0.0385

> <Gold.Rescore>
     Score         DG    S(hbond)    S(metal)    S(lipo)     H(rot)  DE(clash)    DE(int)     intcor
     15.38     -15.73       1.86        0.00      74.52       1.83       0.03       0.32       ----

> <Gold.Chemscore.Fitness>
15.3846

> <Gold.Chemscore.DG>
-15.7313

> <Gold.Chemscore.ZeroCoef>
-5.4800

> <Gold.Chemscore.Hbond>
1.8618

> <Gold.Chemscore.Metal>
0.0000

> <Gold.Chemscore.Lipo>
74.5159

> <Gold.Chemscore.Internal_Hbond>
0.0000

> <Gold.Chemscore.DEClash>
0.0270

> <Gold.Chemscore.DEInternal>
0.3197

> <Gold.Chemscore.Rot>
1.8302

> <Gold.Chemscore.Internal.Correction>
   9.000000E+99

> <Gold.Chemscore.Hbonds>
donor molecule, donor type, donor heavy atom, donor atom, acceptor molecule, acceptor atom, score
      P1  H  6896  6908       L1    18  0.33
      P1  H  6896  6909       L1    17  0.03
      P1  H  7997  8009       L1     9  0.93

> <Gold.Chemscore.Hbond.Weighted>
-6.2183

> <Gold.Chemscore.Metal.Weighted>
-0.0000

> <Gold.Chemscore.Lipo.Weighted>
-8.7184

> <Gold.Chemscore.Internal_Hbond.Weighted>
0.0000

> <Gold.Chemscore.DEClash.Weighted>
0.0270

> <Gold.Chemscore.DEInternal.Weighted>
0.3197

> <Gold.Chemscore.Rot.Weighted>
4.6854

> <Gold.Chemscore.Internal.Correction.Weighted>
   9.000000E+99

> <Gold.Protein.RotatedTorsions>
[ 6907 6896 6895 6894 ] final -179.04 input  -60.11 | X-H torsion
[ 7974 7965 7964 7962 ] final   -5.70 input  175.53 | X-H torsion
[ 8008 7997 7996 7995 ] final  122.47 input   59.86 | X-H torsion
[ 10167 10162 10161 10158 ] final  152.18 input  -65.29 | X-H torsion
[ 10718 10713 10712 10709 ] final -141.18 input   66.30 | X-H torsion
[ 10763 10752 10751 10750 ] final   19.76 input  -60.55 | X-H torsion
[ 11005 11000 10999 10996 ] final   24.20 input  -57.11 | X-H torsion

> <Gold.Protein.ActiveResidues>
 VAL166  LYS551  ARG553  GLY616  TRP617  ASP618  TYR619  PRO620  LYS621  CYS622 
 ASP623  PHE694  ASN695  SER759  ASP760  ASP761  ALA762  ILE779  LEU786  VAL792 
 PHE793  MET794  SER795  GLU796  ALA797  LYS798  CYS799  TRP800  GLU811  SER814 

> <Gold.Protein.RotatedAtoms>
  151.6470  133.3323  159.3142 H   0  0  0  0  0  0  0  0  0  0  0  0  # atno 6907 bound_to 6896
  150.7979  134.7056  159.6584 H   0  0  0  0  0  0  0  0  0  0  0  0  # atno 6908 bound_to 6896
  152.4068  134.6197  160.0099 H   0  0  0  0  0  0  0  0  0  0  0  0  # atno 6909 bound_to 6896
  146.2347  140.2061  142.8334 H   0  0  0  0  0  0  0  0  0  0  0  0  # atno 7974 bound_to 7965
  156.2729  140.2785  156.1473 H   0  0  0  0  0  0  0  0  0  0  0  0  # atno 8008 bound_to 7997
  155.0890  140.0388  157.2680 H   0  0  0  0  0  0  0  0  0  0  0  0  # atno 8009 bound_to 7997
  154.6904  140.2628  155.6824 H   0  0  0  0  0  0  0  0  0  0  0  0  # atno 8010 bound_to 7997
  139.4835  144.5379  151.7614 H   0  0  0  0  0  0  0  0  0  0  0  0  # atno 10167 bound_to 10162
  156.3310  130.7586  151.1704 H   0  0  0  0  0  0  0  0  0  0  0  0  # atno 10718 bound_to 10713
  153.1135  135.6702  153.9459 H   0  0  0  0  0  0  0  0  0  0  0  0  # atno 10763 bound_to 10752
  153.8996  135.3037  155.3449 H   0  0  0  0  0  0  0  0  0  0  0  0  # atno 10764 bound_to 10752
  154.7553  135.5015  153.9440 H   0  0  0  0  0  0  0  0  0  0  0  0  # atno 10765 bound_to 10752
  140.3613  134.2123  155.7672 H   0  0  0  0  0  0  0  0  0  0  0  0  # atno 11005 bound_to 11000
  144.9744  140.8399  143.5436 LP  0  0  0  0  0  0  0  0  0  0  0  0  # atno 17320 bound_to 7965
  145.2046  139.2235  143.5175 LP  0  0  0  0  0  0  0  0  0  0  0  0  # atno 17321 bound_to 7965
  140.4914  144.1304  150.5951 LP  0  0  0  0  0  0  0  0  0  0  0  0  # atno 17342 bound_to 10162
  140.4166  143.2631  151.9767 LP  0  0  0  0  0  0  0  0  0  0  0  0  # atno 17343 bound_to 10162
  157.7430  131.0481  150.4979 LP  0  0  0  0  0  0  0  0  0  0  0  0  # atno 17370 bound_to 10713
  156.5145  130.4147  149.6283 LP  0  0  0  0  0  0  0  0  0  0  0  0  # atno 17371 bound_to 10713
  141.1983  133.8038  157.0588 LP  0  0  0  0  0  0  0  0  0  0  0  0  # atno 17394 bound_to 11000
  140.0625  134.9747  157.1329 LP  0  0  0  0  0  0  0  0  0  0  0  0  # atno 17395 bound_to 11000

$$$$
