AV-unprocessed.smi:1833|AV-procd|sdf|7466|dock6
  -GOLD-   22720 9163D 1   1.00000     0.00000
 Structure written by MMmdl.
 42 43  0  0  0  0  0  0  0  0  2 V2000
  144.2847  133.7765  151.0357 C   0  0  0  0  0  0  0  0  0  0  0  0
  145.4408  134.7844  150.9906 C   0  0  0  0  0  0  0  0  0  0  0  0
  146.5386  134.4353  151.9267 N   0  3  2  0  0  0  0  0  0  0  0  0
  147.1195  133.0997  151.6287 C   0  0  0  0  0  0  0  0  0  0  0  0
  148.3417  132.8075  152.5154 C   0  0  0  0  0  0  0  0  0  0  0  0
  147.9941  132.9471  154.0060 C   0  0  0  0  0  0  0  0  0  0  0  0
  147.3569  134.3175  154.2936 C   0  0  1  0  0  0  0  0  0  0  0  0
  148.3593  135.3724  154.1480 N   0  0  0  0  0  0  0  0  0  0  0  0
  149.3480  135.6258  155.0163 C   0  0  0  0  0  0  0  0  0  0  0  0
  149.5135  135.0111  156.0697 O   0  0  0  0  0  0  0  0  0  0  0  0
  150.1327  136.6264  154.5932 N   0  0  0  0  0  0  0  0  0  0  0  0
  151.3313  137.1097  155.2727 C   0  0  0  0  0  0  0  0  0  0  0  0
  151.8654  138.4255  154.6787 C   0  0  0  0  0  0  0  0  0  0  0  0
  151.3242  139.6560  155.3317 C   0  0  0  0  0  0  0  0  0  0  0  0
  150.4934  140.5140  154.7313 N   0  0  0  0  0  0  0  0  0  0  0  0
  150.1343  141.5770  155.5640 C   0  0  0  0  0  0  0  0  0  0  0  0
  150.6789  141.4987  156.8200 C   0  0  0  0  0  0  0  0  0  0  0  0
  151.6820  140.0867  157.0006 S   0  0  0  0  0  0  0  0  0  0  0  0
  146.1498  134.5483  153.3589 C   0  0  0  0  0  0  0  0  0  0  0  0
  143.4538  134.1184  150.4185 H   0  0  0  0  0  0  0  0  0  0  0  0
  143.9107  133.6507  152.0522 H   0  0  0  0  0  0  0  0  0  0  0  0
  144.5815  132.7977  150.6605 H   0  0  0  0  0  0  0  0  0  0  0  0
  145.8292  134.8802  149.9758 H   0  0  0  0  0  0  0  0  0  0  0  0
  145.0377  135.7615  151.2606 H   0  0  0  0  0  0  0  0  0  0  0  0
  146.3583  132.3314  151.7736 H   0  0  0  0  0  0  0  0  0  0  0  0
  147.4214  133.0529  150.5818 H   0  0  0  0  0  0  0  0  0  0  0  0
  148.7141  131.8026  152.3146 H   0  0  0  0  0  0  0  0  0  0  0  0
  149.1523  133.4900  152.2572 H   0  0  0  0  0  0  0  0  0  0  0  0
  147.2957  132.1580  154.2876 H   0  0  0  0  0  0  0  0  0  0  0  0
  148.8846  132.8009  154.6188 H   0  0  0  0  0  0  0  0  0  0  0  0
  147.0077  134.3178  155.3278 H   0  0  0  0  0  0  0  0  0  0  0  0
  148.3157  135.9284  153.3064 H   0  0  0  0  0  0  0  0  0  0  0  0
  149.9045  137.0690  153.7152 H   0  0  0  0  0  0  0  0  0  0  0  0
  151.1519  137.2230  156.3432 H   0  0  0  0  0  0  0  0  0  0  0  0
  152.0950  136.3381  155.1752 H   0  0  0  0  0  0  0  0  0  0  0  0
  152.9520  138.4472  154.7661 H   0  0  0  0  0  0  0  0  0  0  0  0
  151.6455  138.4673  153.6111 H   0  0  0  0  0  0  0  0  0  0  0  0
  149.4848  142.3497  155.1817 H   0  0  0  0  0  0  0  0  0  0  0  0
  150.5553  142.1845  157.6451 H   0  0  0  0  0  0  0  0  0  0  0  0
  145.7194  135.5283  153.5624 H   0  0  0  0  0  0  0  0  0  0  0  0
  145.3678  133.8192  153.5776 H   0  0  0  0  0  0  0  0  0  0  0  0
  147.2751  135.1083  151.7686 H   0  0  0  0  0  0  0  0  0  0  0  0
  1  2  1  0  0  0  0
  1 20  1  0  0  0  0
  1 21  1  0  0  0  0
  1 22  1  0  0  0  0
  2  3  1  0  0  0  0
  2 23  1  0  0  0  0
  2 24  1  0  0  0  0
  3 19  1  0  0  0  0
  3  4  1  0  0  0  0
  3 42  1  0  0  0  0
  4  5  1  0  0  0  0
  4 25  1  0  0  0  0
  4 26  1  0  0  0  0
  5  6  1  0  0  0  0
  5 27  1  0  0  0  0
  5 28  1  0  0  0  0
  6  7  1  0  0  0  0
  6 29  1  0  0  0  0
  6 30  1  0  0  0  0
  7  8  1  0  0  0  0
  7 19  1  0  0  0  0
  7 31  1  0  0  0  0
  8  9  1  0  0  0  0
  8 32  1  0  0  0  0
  9 10  2  0  0  0  0
  9 11  1  0  0  0  0
 11 12  1  0  0  0  0
 11 33  1  0  0  0  0
 12 13  1  0  0  0  0
 12 34  1  0  0  0  0
 12 35  1  0  0  0  0
 13 14  1  0  0  0  0
 13 36  1  0  0  0  0
 13 37  1  0  0  0  0
 14 18  1  0  0  0  0
 14 15  2  0  0  0  0
 15 16  1  0  0  0  0
 16 17  2  0  0  0  0
 16 38  1  0  0  0  0
 17 18  1  0  0  0  0
 17 39  1  0  0  0  0
 19 40  1  0  0  0  0
 19 41  1  0  0  0  0
M  CHG  1   3   1
M  END
> <s_m_source_file>
AV-unprocessed.smi

> <i_m_source_file_index>
1833

> <i_lp_mmshare_version>
43012

> <i_f3d_flags>
0

> <s_epik_input>
W0NIM11bQ0gyXU4xW0NIMl1bQ0gyXVtDSDJdW0NASF0oW0NIMl0xKVtOSF1DKD1PKVtOSF1bQ0gyXVtDSDJdYzJuW2NIXVtjSF1zMg==

> <s_epik_cmdline>
J2VwaWtfcHl0aG9uJywgJy1waCcsICc3LjAnLCAnLXRuJywgJzgnLCAnLW1hJywgJzIwMCcsICctbWV0YWxfYmluZGluZycsICctaW1hZScsICc8aW5maWxlLm1hZT4nLCAnLW9tYWUnLCAnPG91dGZpbGUubWFlPic=

> <r_lp_tautomer_probability>
1

> <r_epik_Ionization_Penalty>
0.00269629

> <r_epik_Ionization_Penalty_Charging>
0.00233899

> <r_epik_Ionization_Penalty_Neutral>
0.000357304

> <r_epik_State_Penalty>
-0

> <r_epik_Charging_Adjusted_Penalty>
0.00233899

> <i_epik_Tot_Q>
1

> <i_epik_Tot_abs_Q>
1

> <r_epik_Metal_State_Penalty>
-0

> <b_epik_Metal_Only>
0

> <s_lp_Force_Field>
OPLS_2005

> <r_lp_Energy>
14.5557

> <b_lp_Chiralities_Consistent>
1

> <s_lp_Variant>
AV-unprocessed.smi:1833-2

> <Gold.Version>
5.8.1

> <Gold.Id.Protein>
6NUR|6NUR_protein|mol2

> <Gold.PLP.Fitness>
46.7809

> <Gold.PLP.PLP>
-32.7783

> <Gold.PLP.part.hbond>
-3.9813

> <Gold.PLP.part.metal>
0.0000

> <Gold.PLP.part.buried>
-0.5860

> <Gold.PLP.part.nonpolar>
-27.8596

> <Gold.PLP.part.repulsive>
0.2079

> <Gold.PLP.ligand.clash>
0.0000

> <Gold.PLP.ligand.torsion>
0.5076

> <Gold.PLP.Chemscore.Hbond>
3.9880

> <Gold.PLP.Chemscore.CHOScore>
1.0000

> <Gold.PLP.Chemscore.Metal>
0.0000

> <Gold.Chemscore.Hbonds>
donor molecule, donor type, donor heavy atom, donor atom, acceptor molecule, acceptor atom, score
      L1  H     3    42       P1  7948  2.00
      L1  H     8    32       P1  7948  0.91
      L1  H    11    33       P1  7948  0.34
      P1  H  7989  7998       L1    15  0.65
      L1  C    16    38       P1  8028  1.00

> <Gold.PLP.Chemscore.Internal.Correction>
0.0537

> <Gold.Rescore>
     Score         DG    S(hbond)    S(metal)    S(lipo)     H(rot)  DE(clash)    DE(int)     intcor
     18.24     -18.73       2.77        0.00      71.84       1.71       0.02       0.47       ----

> <Gold.Chemscore.Fitness>
18.2377

> <Gold.Chemscore.DG>
-18.7334

> <Gold.Chemscore.ZeroCoef>
-5.4800

> <Gold.Chemscore.Hbond>
2.7658

> <Gold.Chemscore.Metal>
0.0000

> <Gold.Chemscore.Lipo>
71.8395

> <Gold.Chemscore.Internal_Hbond>
0.0000

> <Gold.Chemscore.DEClash>
0.0212

> <Gold.Chemscore.DEInternal>
0.4745

> <Gold.Chemscore.Rot>
1.7147

> <Gold.Chemscore.Internal.Correction>
   9.000000E+99

> <Gold.Chemscore.Hbonds>
donor molecule, donor type, donor heavy atom, donor atom, acceptor molecule, acceptor atom, score
      L1  H     3    42       P1  7948  0.91
      L1  H     8    32       P1  7948  0.88
      L1  H    11    33       P1  7948  0.17
      P1  H  7989  7998       L1    15  0.05

> <Gold.Chemscore.Hbond.Weighted>
-9.2378

> <Gold.Chemscore.Metal.Weighted>
-0.0000

> <Gold.Chemscore.Lipo.Weighted>
-8.4052

> <Gold.Chemscore.Internal_Hbond.Weighted>
0.0000

> <Gold.Chemscore.DEClash.Weighted>
0.0212

> <Gold.Chemscore.DEInternal.Weighted>
0.4745

> <Gold.Chemscore.Rot.Weighted>
4.3896

> <Gold.Chemscore.Internal.Correction.Weighted>
   9.000000E+99

> <Gold.Protein.RotatedTorsions>
[ 6907 6896 6895 6894 ] final  103.41 input  -60.11 | X-H torsion
[ 7974 7965 7964 7962 ] final   30.29 input  175.53 | X-H torsion
[ 8008 7997 7996 7995 ] final   16.66 input   59.86 | X-H torsion
[ 10167 10162 10161 10158 ] final  -19.21 input  -65.29 | X-H torsion
[ 10718 10713 10712 10709 ] final   24.79 input   66.30 | X-H torsion
[ 10763 10752 10751 10750 ] final  -52.92 input  -60.55 | X-H torsion
[ 11005 11000 10999 10996 ] final -123.84 input  -57.11 | X-H torsion

> <Gold.Protein.ActiveResidues>
 VAL166  LYS551  ARG553  GLY616  TRP617  ASP618  TYR619  PRO620  LYS621  CYS622 
 ASP623  PHE694  ASN695  SER759  ASP760  ASP761  ALA762  ILE779  LEU786  VAL792 
 PHE793  MET794  SER795  GLU796  ALA797  LYS798  CYS799  TRP800  GLU811  SER814 

> <Gold.Protein.RotatedAtoms>
  152.5296  133.9830  159.7815 H   0  0  0  0  0  0  0  0  0  0  0  0  # atno 6907 bound_to 6896
  151.0080  133.5984  159.2693 H   0  0  0  0  0  0  0  0  0  0  0  0  # atno 6908 bound_to 6896
  151.3069  135.0790  159.9312 H   0  0  0  0  0  0  0  0  0  0  0  0  # atno 6909 bound_to 6896
  146.1620  139.6807  142.9027 H   0  0  0  0  0  0  0  0  0  0  0  0  # atno 7974 bound_to 7965
  154.8801  140.2971  155.5430 H   0  0  0  0  0  0  0  0  0  0  0  0  # atno 8008 bound_to 7997
  156.3022  140.2444  156.3736 H   0  0  0  0  0  0  0  0  0  0  0  0  # atno 8009 bound_to 7997
  154.8726  140.0401  157.1723 H   0  0  0  0  0  0  0  0  0  0  0  0  # atno 8010 bound_to 7997
  140.7266  143.4841  151.0079 H   0  0  0  0  0  0  0  0  0  0  0  0  # atno 10167 bound_to 10162
  157.1846  130.6818  149.6126 H   0  0  0  0  0  0  0  0  0  0  0  0  # atno 10718 bound_to 10713
  154.1505  135.6491  153.4962 H   0  0  0  0  0  0  0  0  0  0  0  0  # atno 10763 bound_to 10752
  153.0139  135.5337  154.6812 H   0  0  0  0  0  0  0  0  0  0  0  0  # atno 10764 bound_to 10752
  154.6099  135.2953  155.0415 H   0  0  0  0  0  0  0  0  0  0  0  0  # atno 10765 bound_to 10752
  140.9888  134.0569  157.3680 H   0  0  0  0  0  0  0  0  0  0  0  0  # atno 11005 bound_to 11000
  145.4563  141.0431  143.2776 LP  0  0  0  0  0  0  0  0  0  0  0  0  # atno 17320 bound_to 7965
  144.8040  139.6086  143.7059 LP  0  0  0  0  0  0  0  0  0  0  0  0  # atno 17321 bound_to 7965
  139.8541  143.7400  152.3177 LP  0  0  0  0  0  0  0  0  0  0  0  0  # atno 17342 bound_to 10162
  139.7592  144.7511  151.0389 LP  0  0  0  0  0  0  0  0  0  0  0  0  # atno 17343 bound_to 10162
  155.9719  130.4635  150.6184 LP  0  0  0  0  0  0  0  0  0  0  0  0  # atno 17370 bound_to 10713
  157.3919  131.0797  151.1386 LP  0  0  0  0  0  0  0  0  0  0  0  0  # atno 17371 bound_to 10713
  139.8982  135.0154  156.7139 LP  0  0  0  0  0  0  0  0  0  0  0  0  # atno 17394 bound_to 11000
  140.7073  133.9254  155.8062 LP  0  0  0  0  0  0  0  0  0  0  0  0  # atno 17395 bound_to 11000

$$$$
