AV-unprocessed.smi:1696|AV-procd|sdf|6802|dock8
  -GOLD-   22720 7573D 1   1.00000     0.00000
 Structure written by MMmdl.
 38 39  0  0  0  0  0  0  0  0  3 V2000
  149.0038  131.9618  154.2314 C   0  0  0  0  0  0  0  0  0  0  0  0
  148.4490  132.8917  153.1407 C   0  0  0  0  0  0  0  0  0  0  0  0
  147.4000  133.9229  153.6386 C   0  0  1  0  0  0  0  0  0  0  0  0
  147.9442  134.8279  154.7740 C   0  0  0  0  0  0  0  0  0  0  0  0
  149.2228  135.4379  154.4197 N   0  0  0  0  0  0  0  0  0  0  0  0
  150.1812  135.8371  155.2676 C   0  0  0  0  0  0  0  0  0  0  0  0
  150.0393  135.6815  156.4824 O   0  0  0  0  0  0  0  0  0  0  0  0
  151.2458  136.3963  154.6505 N   0  5  0  0  0  0  0  0  0  0  0  0
  151.5530  137.6840  154.8761 C   0  0  0  0  0  0  0  0  0  0  0  0
  150.7659  138.5111  155.5737 N   0  0  0  0  0  0  0  0  0  0  0  0
  151.2772  139.8059  155.6795 C   0  0  0  0  0  0  0  0  0  0  0  0
  152.4772  139.9708  155.0399 C   0  0  0  0  0  0  0  0  0  0  0  0
  153.0042  138.4955  154.2813 S   0  0  0  0  0  0  0  0  0  0  0  0
  146.8555  134.7222  152.5017 N   0  3  0  0  0  0  0  0  0  0  0  0
  146.2721  133.9282  151.3898 C   0  0  0  0  0  0  0  0  0  0  0  0
  145.0424  134.6927  150.8800 C   0  0  0  0  0  0  0  0  0  0  0  0
  145.1301  136.0599  151.5475 C   0  0  0  0  0  0  0  0  0  0  0  0
  145.8566  135.7553  152.8520 C   0  0  0  0  0  0  0  0  0  0  0  0
  149.7455  131.2816  153.8126 H   0  0  0  0  0  0  0  0  0  0  0  0
  148.2200  131.3507  154.6776 H   0  0  0  0  0  0  0  0  0  0  0  0
  149.4879  132.5236  155.0302 H   0  0  0  0  0  0  0  0  0  0  0  0
  149.2835  133.4055  152.6644 H   0  0  0  0  0  0  0  0  0  0  0  0
  148.0174  132.2803  152.3478 H   0  0  0  0  0  0  0  0  0  0  0  0
  146.5648  133.3586  154.0571 H   0  0  0  0  0  0  0  0  0  0  0  0
  147.1993  135.5747  155.0523 H   0  0  0  0  0  0  0  0  0  0  0  0
  148.1337  134.2438  155.6743 H   0  0  0  0  0  0  0  0  0  0  0  0
  149.3967  135.5858  153.4362 H   0  0  0  0  0  0  0  0  0  0  0  0
  150.7179  140.5493  156.2279 H   0  0  0  0  0  0  0  0  0  0  0  0
  153.0793  140.8637  154.9673 H   0  0  0  0  0  0  0  0  0  0  0  0
  147.0196  133.8105  150.6047 H   0  0  0  0  0  0  0  0  0  0  0  0
  145.9732  132.9310  151.7164 H   0  0  0  0  0  0  0  0  0  0  0  0
  145.0110  134.7612  149.7920 H   0  0  0  0  0  0  0  0  0  0  0  0
  144.1338  134.1838  151.2055 H   0  0  0  0  0  0  0  0  0  0  0  0
  145.7317  136.7344  150.9365 H   0  0  0  0  0  0  0  0  0  0  0  0
  144.1548  136.5225  151.7017 H   0  0  0  0  0  0  0  0  0  0  0  0
  145.1502  135.3537  153.5806 H   0  0  0  0  0  0  0  0  0  0  0  0
  146.3210  136.6455  153.2777 H   0  0  0  0  0  0  0  0  0  0  0  0
  147.6355  135.2257  152.1035 H   0  0  0  0  0  0  0  0  0  0  0  0
  1  2  1  0  0  0  0
  1 19  1  0  0  0  0
  1 20  1  0  0  0  0
  1 21  1  0  0  0  0
  2  3  1  0  0  0  0
  2 22  1  0  0  0  0
  2 23  1  0  0  0  0
  3  4  1  0  0  0  0
  3 14  1  0  0  0  0
  3 24  1  0  0  0  0
  4  5  1  0  0  0  0
  4 25  1  0  0  0  0
  4 26  1  0  0  0  0
  5  6  1  0  0  0  0
  5 27  1  0  0  0  0
  6  7  2  0  0  0  0
  6  8  1  0  0  0  0
  8  9  1  0  0  0  0
  9 13  1  0  0  0  0
  9 10  2  0  0  0  0
 10 11  1  0  0  0  0
 11 12  2  0  0  0  0
 11 28  1  0  0  0  0
 12 13  1  0  0  0  0
 12 29  1  0  0  0  0
 14 18  1  0  0  0  0
 14 15  1  0  0  0  0
 14 38  1  0  0  0  0
 15 16  1  0  0  0  0
 15 30  1  0  0  0  0
 15 31  1  0  0  0  0
 16 17  1  0  0  0  0
 16 32  1  0  0  0  0
 16 33  1  0  0  0  0
 17 18  1  0  0  0  0
 17 34  1  0  0  0  0
 17 35  1  0  0  0  0
 18 36  1  0  0  0  0
 18 37  1  0  0  0  0
M  CHG  1   8  -1
M  CHG  1  14   1
M  END
> <s_m_source_file>
AV-unprocessed.smi

> <i_m_source_file_index>
1696

> <i_lp_mmshare_version>
43012

> <i_f3d_flags>
0

> <s_epik_input>
W0NIMl0xW0NIMl1bQ0gyXVtDSDJdTjFbQ0BIXShbQ0gyXVtDSDNdKVtDSDJdW05IXUMoPU8pW05IXWMybltjSF1bY0hdczI=

> <s_epik_cmdline>
J2VwaWtfcHl0aG9uJywgJy1waCcsICc3LjAnLCAnLXRuJywgJzgnLCAnLW1hJywgJzIwMCcsICctbWV0YWxfYmluZGluZycsICctaW1hZScsICc8aW5maWxlLm1hZT4nLCAnLW9tYWUnLCAnPG91dGZpbGUubWFlPic=

> <r_lp_tautomer_probability>
1

> <r_epik_Ionization_Penalty>
7.71903

> <r_epik_Ionization_Penalty_Charging>
6.3282

> <r_epik_Ionization_Penalty_Neutral>
1.39083

> <r_epik_State_Penalty>
6.32705

> <r_epik_Charging_Adjusted_Penalty>
12.6552

> <i_epik_Tot_Q>
0

> <i_epik_Tot_abs_Q>
2

> <r_epik_Metal_State_Penalty>
2.26116

> <b_epik_Metal_Only>
1

> <s_lp_Force_Field>
OPLS_2005

> <r_lp_Energy>
23.2163

> <b_lp_Chiralities_Consistent>
1

> <s_lp_Variant>
AV-unprocessed.smi:1696-4

> <Gold.Version>
5.8.1

> <Gold.Id.Protein>
6NUR|6NUR_protein|mol2

> <Gold.PLP.Fitness>
45.2849

> <Gold.PLP.PLP>
-31.7899

> <Gold.PLP.part.hbond>
-3.0000

> <Gold.PLP.part.metal>
0.0000

> <Gold.PLP.part.buried>
-2.4881

> <Gold.PLP.part.nonpolar>
-26.1112

> <Gold.PLP.part.repulsive>
0.2003

> <Gold.PLP.ligand.clash>
0.0000

> <Gold.PLP.ligand.torsion>
0.8924

> <Gold.PLP.Chemscore.Hbond>
5.0000

> <Gold.PLP.Chemscore.CHOScore>
0.0000

> <Gold.PLP.Chemscore.Metal>
0.0000

> <Gold.Chemscore.Hbonds>
donor molecule, donor type, donor heavy atom, donor atom, acceptor molecule, acceptor atom, score
      L1  H     5    27       P1  7948  1.00
      L1  H    14    38       P1  7948  2.00
      P1  H 10752 10765       L1     8  2.00

> <Gold.PLP.Chemscore.Internal.Correction>
0.2798

> <Gold.Rescore>
     Score         DG    S(hbond)    S(metal)    S(lipo)     H(rot)  DE(clash)    DE(int)     intcor
     15.17     -16.12       2.41        0.00      59.89       1.73       0.00       0.95       ----

> <Gold.Chemscore.Fitness>
15.1659

> <Gold.Chemscore.DG>
-16.1206

> <Gold.Chemscore.ZeroCoef>
-5.4800

> <Gold.Chemscore.Hbond>
2.4117

> <Gold.Chemscore.Metal>
0.0000

> <Gold.Chemscore.Lipo>
59.8852

> <Gold.Chemscore.Internal_Hbond>
0.0000

> <Gold.Chemscore.DEClash>
0.0000

> <Gold.Chemscore.DEInternal>
0.9547

> <Gold.Chemscore.Rot>
1.7270

> <Gold.Chemscore.Internal.Correction>
   9.000000E+99

> <Gold.Chemscore.Hbonds>
donor molecule, donor type, donor heavy atom, donor atom, acceptor molecule, acceptor atom, score
      L1  H     5    27       P1  7948  0.25
      L1  H    14    38       P1  7948  0.97
      P1  H 10752 10765       L1     8  0.35

> <Gold.Chemscore.Hbond.Weighted>
-8.0552

> <Gold.Chemscore.Metal.Weighted>
-0.0000

> <Gold.Chemscore.Lipo.Weighted>
-7.0066

> <Gold.Chemscore.Internal_Hbond.Weighted>
0.0000

> <Gold.Chemscore.DEClash.Weighted>
0.0000

> <Gold.Chemscore.DEInternal.Weighted>
0.9547

> <Gold.Chemscore.Rot.Weighted>
4.4212

> <Gold.Chemscore.Internal.Correction.Weighted>
   9.000000E+99

> <Gold.Protein.RotatedTorsions>
[ 6907 6896 6895 6894 ] final -126.19 input  -60.11 | X-H torsion
[ 7974 7965 7964 7962 ] final -115.35 input  175.53 | X-H torsion
[ 8008 7997 7996 7995 ] final   16.23 input   59.86 | X-H torsion
[ 10167 10162 10161 10158 ] final  -91.89 input  -65.29 | X-H torsion
[ 10718 10713 10712 10709 ] final  144.66 input   66.30 | X-H torsion
[ 10763 10752 10751 10750 ] final  168.37 input  -60.55 | X-H torsion
[ 11005 11000 10999 10996 ] final  148.68 input  -57.11 | X-H torsion

> <Gold.Protein.ActiveResidues>
 VAL166  LYS551  ARG553  GLY616  TRP617  ASP618  TYR619  PRO620  LYS621  CYS622 
 ASP623  PHE694  ASN695  SER759  ASP760  ASP761  ALA762  ILE779  LEU786  VAL792 
 PHE793  MET794  SER795  GLU796  ALA797  LYS798  CYS799  TRP800  GLU811  SER814 

> <Gold.Protein.RotatedAtoms>
  150.8943  133.7201  159.2895 H   0  0  0  0  0  0  0  0  0  0  0  0  # atno 6907 bound_to 6896
  151.4741  135.1046  159.9769 H   0  0  0  0  0  0  0  0  0  0  0  0  # atno 6908 bound_to 6896
  152.4839  133.8276  159.7142 H   0  0  0  0  0  0  0  0  0  0  0  0  # atno 6909 bound_to 6896
  145.1095  140.8602  143.3878 H   0  0  0  0  0  0  0  0  0  0  0  0  # atno 7974 bound_to 7965
  154.8740  140.2963  155.5464 H   0  0  0  0  0  0  0  0  0  0  0  0  # atno 8008 bound_to 7997
  156.3022  140.2455  156.3667 H   0  0  0  0  0  0  0  0  0  0  0  0  # atno 8009 bound_to 7997
  154.8786  140.0398  157.1758 H   0  0  0  0  0  0  0  0  0  0  0  0  # atno 8010 bound_to 7997
  140.3403  143.2946  151.9842 H   0  0  0  0  0  0  0  0  0  0  0  0  # atno 10167 bound_to 10162
  157.3546  131.0956  151.0970 H   0  0  0  0  0  0  0  0  0  0  0  0  # atno 10718 bound_to 10713
  154.3676  135.2753  155.2284 H   0  0  0  0  0  0  0  0  0  0  0  0  # atno 10763 bound_to 10752
  154.4446  135.5946  153.6155 H   0  0  0  0  0  0  0  0  0  0  0  0  # atno 10764 bound_to 10752
  152.9840  135.6027  154.3904 H   0  0  0  0  0  0  0  0  0  0  0  0  # atno 10765 bound_to 10752
  140.0980  134.9001  157.1752 H   0  0  0  0  0  0  0  0  0  0  0  0  # atno 11005 bound_to 11000
  145.0864  139.2922  143.5757 LP  0  0  0  0  0  0  0  0  0  0  0  0  # atno 17320 bound_to 7965
  146.3527  140.0386  142.8644 LP  0  0  0  0  0  0  0  0  0  0  0  0  # atno 17321 bound_to 7965
  139.4841  144.6162  151.7342 LP  0  0  0  0  0  0  0  0  0  0  0  0  # atno 17342 bound_to 10162
  140.5315  144.0723  150.6055 LP  0  0  0  0  0  0  0  0  0  0  0  0  # atno 17343 bound_to 10162
  157.2133  130.6448  149.5782 LP  0  0  0  0  0  0  0  0  0  0  0  0  # atno 17370 bound_to 10713
  155.9727  130.4653  150.6248 LP  0  0  0  0  0  0  0  0  0  0  0  0  # atno 17371 bound_to 10713
  140.3259  134.2864  155.7237 LP  0  0  0  0  0  0  0  0  0  0  0  0  # atno 17394 bound_to 11000
  141.2097  133.7740  156.9976 LP  0  0  0  0  0  0  0  0  0  0  0  0  # atno 17395 bound_to 11000

$$$$
