AV-unprocessed.smi:13|AV-procd|sdf|74|dock6
  -GOLD-   2262015203D 1   1.00000     0.00000
 Structure written by MMmdl.
 54 58  0  0  0  0  0  0  0  0  1 V2000
  143.0413  133.1627  151.6696 C   0  0  0  0  0  0  0  0  0  0  0  0
  144.4744  133.4971  151.2331 C   0  0  0  0  0  0  0  0  0  0  0  0
  144.4278  133.7357  149.7239 C   0  0  0  0  0  0  0  0  0  0  0  0
  145.1604  134.5946  152.0610 C   0  0  0  0  0  0  0  0  0  0  0  0
  145.7868  133.5303  152.8249 N   0  0  0  0  0  0  0  0  0  0  0  0
  147.1093  133.8370  153.2593 C   0  0  0  0  0  0  0  0  0  0  0  0
  148.1739  133.1105  152.8248 N   0  0  0  0  0  0  0  0  0  0  0  0
  149.4139  133.3866  153.2377 C   0  0  0  0  0  0  0  0  0  0  0  0
  149.8187  134.3380  154.0792 N   0  0  0  0  0  0  0  0  0  0  0  0
  148.7632  135.0734  154.5286 C   0  0  0  0  0  0  0  0  0  0  0  0
  147.3958  134.8871  154.1774 C   0  0  0  0  0  0  0  0  0  0  0  0
  146.6073  135.8162  154.8458 N   0  0  0  0  0  0  0  0  0  0  0  0
  147.4587  136.5134  155.5469 C   0  0  0  0  0  0  0  0  0  0  0  0
  148.7774  136.1438  155.4065 N   0  0  0  0  0  0  0  0  0  0  0  0
  149.9296  136.7465  156.0600 C   0  0  0  0  0  0  0  0  0  0  0  0
  150.8818  137.4841  155.0867 C   0  0  2  0  0  0  0  0  0  0  0  0
  151.3325  136.5713  154.1026 O   0  0  0  0  0  0  0  0  0  0  0  0
  152.0944  138.0861  155.8007 C   0  0  0  0  0  0  0  0  0  0  0  0
  151.8341  139.5867  155.7515 C   0  0  0  0  0  0  0  0  0  0  0  0
  151.1849  139.7481  154.5032 O   0  0  0  0  0  0  0  0  0  0  0  0
  150.2352  138.6982  154.3899 C   0  0  0  0  0  0  0  0  0  0  0  0
  145.6168  132.5795  151.7313 C   0  0  1  0  0  0  0  0  0  0  0  0
  145.3480  131.1526  152.2239 C   0  0  1  0  0  0  0  0  0  0  0  0
  145.2767  130.1193  151.0982 C   0  0  0  0  0  0  0  0  0  0  0  0
  145.6597  128.8468  151.8173 C   0  0  0  0  0  0  0  0  0  0  0  0
  146.7443  129.3454  152.7648 C   0  0  0  0  0  0  0  0  0  0  0  0
  146.4080  130.6970  153.0625 O   0  0  0  0  0  0  0  0  0  0  0  0
  142.3677  134.0017  151.4925 H   0  0  0  0  0  0  0  0  0  0  0  0
  142.9860  132.9314  152.7337 H   0  0  0  0  0  0  0  0  0  0  0  0
  142.6399  132.3060  151.1291 H   0  0  0  0  0  0  0  0  0  0  0  0
  145.4074  134.0123  149.3333 H   0  0  0  0  0  0  0  0  0  0  0  0
  143.7398  134.5415  149.4662 H   0  0  0  0  0  0  0  0  0  0  0  0
  144.1079  132.8417  149.1877 H   0  0  0  0  0  0  0  0  0  0  0  0
  145.8770  135.1880  151.4896 H   0  0  0  0  0  0  0  0  0  0  0  0
  144.4824  135.2162  152.6466 H   0  0  0  0  0  0  0  0  0  0  0  0
  150.1919  132.7539  152.8365 H   0  0  0  0  0  0  0  0  0  0  0  0
  147.1435  137.3239  156.1875 H   0  0  0  0  0  0  0  0  0  0  0  0
  149.5655  137.4360  156.8226 H   0  0  0  0  0  0  0  0  0  0  0  0
  150.4687  135.9620  156.5928 H   0  0  0  0  0  0  0  0  0  0  0  0
  150.7431  135.8328  154.0863 H   0  0  0  0  0  0  0  0  0  0  0  0
  152.2244  137.7219  156.8205 H   0  0  0  0  0  0  0  0  0  0  0  0
  153.0163  137.8689  155.2586 H   0  0  0  0  0  0  0  0  0  0  0  0
  151.1672  139.8970  156.5576 H   0  0  0  0  0  0  0  0  0  0  0  0
  152.7490  140.1761  155.8113 H   0  0  0  0  0  0  0  0  0  0  0  0
  149.9637  138.5133  153.3498 H   0  0  0  0  0  0  0  0  0  0  0  0
  149.3336  139.0178  154.9129 H   0  0  0  0  0  0  0  0  0  0  0  0
  146.4537  132.6296  151.0318 H   0  0  0  0  0  0  0  0  0  0  0  0
  144.4266  131.1029  152.8062 H   0  0  0  0  0  0  0  0  0  0  0  0
  144.2947  130.0588  150.6301 H   0  0  0  0  0  0  0  0  0  0  0  0
  146.0111  130.3453  150.3237 H   0  0  0  0  0  0  0  0  0  0  0  0
  144.8092  128.4657  152.3842 H   0  0  0  0  0  0  0  0  0  0  0  0
  146.0070  128.0603  151.1467 H   0  0  0  0  0  0  0  0  0  0  0  0
  146.8149  128.7436  153.6710 H   0  0  0  0  0  0  0  0  0  0  0  0
  147.7172  129.3330  152.2718 H   0  0  0  0  0  0  0  0  0  0  0  0
  1  2  1  0  0  0  0
  1 28  1  0  0  0  0
  1 29  1  0  0  0  0
  1 30  1  0  0  0  0
  2 22  1  0  0  0  0
  2  3  1  0  0  0  0
  2  4  1  0  0  0  0
  3 31  1  0  0  0  0
  3 32  1  0  0  0  0
  3 33  1  0  0  0  0
  4  5  1  0  0  0  0
  4 34  1  0  0  0  0
  4 35  1  0  0  0  0
  5  6  1  0  0  0  0
  5 22  1  0  0  0  0
  6 11  1  0  0  0  0
  6  7  2  0  0  0  0
  7  8  1  0  0  0  0
  8  9  2  0  0  0  0
  8 36  1  0  0  0  0
  9 10  1  0  0  0  0
 10 14  1  0  0  0  0
 10 11  2  0  0  0  0
 11 12  1  0  0  0  0
 12 13  2  0  0  0  0
 13 14  1  0  0  0  0
 13 37  1  0  0  0  0
 14 15  1  0  0  0  0
 15 16  1  0  0  0  0
 15 38  1  0  0  0  0
 15 39  1  0  0  0  0
 16 21  1  0  0  0  0
 16 17  1  0  0  0  0
 16 18  1  0  0  0  0
 17 40  1  0  0  0  0
 18 19  1  0  0  0  0
 18 41  1  0  0  0  0
 18 42  1  0  0  0  0
 19 20  1  0  0  0  0
 19 43  1  0  0  0  0
 19 44  1  0  0  0  0
 20 21  1  0  0  0  0
 21 45  1  0  0  0  0
 21 46  1  0  0  0  0
 22 23  1  0  0  0  0
 22 47  1  0  0  0  0
 23 27  1  0  0  0  0
 23 24  1  0  0  0  0
 23 48  1  0  0  0  0
 24 25  1  0  0  0  0
 24 49  1  0  0  0  0
 24 50  1  0  0  0  0
 25 26  1  0  0  0  0
 25 51  1  0  0  0  0
 25 52  1  0  0  0  0
 26 27  1  0  0  0  0
 26 53  1  0  0  0  0
 26 54  1  0  0  0  0
M  END
> <s_m_source_file>
AV-unprocessed.smi

> <i_m_source_file_index>
13

> <i_lp_mmshare_version>
43012

> <i_f3d_flags>
0

> <s_epik_input>
TzFbQ0gyXVtDSDJdW0NIMl1bQ0BIXTFbQ0BASF0yTihbQ0gyXUMyKFtDSDNdKVtDSDNdKWMobltjSF1uMyljKGMzNCluW2NIXW40W0NIMl1bQ0BAXTUoW09IXSlbQ0gyXVtDSDJdT1tDSDJdNQ==

> <s_epik_cmdline>
J2VwaWtfcHl0aG9uJywgJy1waCcsICc3LjAnLCAnLXRuJywgJzgnLCAnLW1hJywgJzIwMCcsICctbWV0YWxfYmluZGluZycsICctaW1hZScsICc8aW5maWxlLm1hZT4nLCAnLW9tYWUnLCAnPG91dGZpbGUubWFlPic=

> <r_lp_tautomer_probability>
1

> <r_epik_Ionization_Penalty>
0.00202764

> <r_epik_Ionization_Penalty_Charging>
0

> <r_epik_Ionization_Penalty_Neutral>
0.00202764

> <r_epik_State_Penalty>
0.00134017

> <r_epik_Charging_Adjusted_Penalty>
0.00134017

> <i_epik_Tot_Q>
0

> <i_epik_Tot_abs_Q>
0

> <r_epik_Metal_State_Penalty>
-0

> <b_epik_Metal_Only>
0

> <s_lp_Force_Field>
OPLS_2005

> <r_lp_Energy>
62.8076

> <b_lp_Chiralities_Consistent>
1

> <s_lp_Variant>
AV-unprocessed.smi:13-6

> <Gold.Version>
5.8.1

> <Gold.Id.Protein>
6NUR|6NUR_protein|mol2

> <Gold.PLP.Fitness>
41.5586

> <Gold.PLP.PLP>
-35.9590

> <Gold.PLP.part.hbond>
-3.0000

> <Gold.PLP.part.metal>
0.0000

> <Gold.PLP.part.buried>
-4.0818

> <Gold.PLP.part.nonpolar>
-29.8186

> <Gold.PLP.part.repulsive>
0.7520

> <Gold.PLP.ligand.clash>
0.0000

> <Gold.PLP.ligand.torsion>
0.4093

> <Gold.PLP.Chemscore.Hbond>
2.0000

> <Gold.PLP.Chemscore.CHOScore>
0.0000

> <Gold.PLP.Chemscore.Metal>
0.0000

> <Gold.Chemscore.Hbonds>
donor molecule, donor type, donor heavy atom, donor atom, acceptor molecule, acceptor atom, score
      P1  H  7989  7998       L1    20  1.00
      P1  H 10752 10765       L1    17  0.80

> <Gold.PLP.Chemscore.Internal.Correction>
0.4183

> <Gold.Rescore>
     Score         DG    S(hbond)    S(metal)    S(lipo)     H(rot)  DE(clash)    DE(int)     intcor
     13.81     -15.64       1.59        0.00      91.81       2.30       0.28       1.56       ----

> <Gold.Chemscore.Fitness>
13.8078

> <Gold.Chemscore.DG>
-15.6387

> <Gold.Chemscore.ZeroCoef>
-5.4800

> <Gold.Chemscore.Hbond>
1.5881

> <Gold.Chemscore.Metal>
0.0000

> <Gold.Chemscore.Lipo>
91.8062

> <Gold.Chemscore.Internal_Hbond>
0.0000

> <Gold.Chemscore.DEClash>
0.2752

> <Gold.Chemscore.DEInternal>
1.5556

> <Gold.Chemscore.Rot>
2.2996

> <Gold.Chemscore.Internal.Correction>
   9.000000E+99

> <Gold.Chemscore.Hbonds>
donor molecule, donor type, donor heavy atom, donor atom, acceptor molecule, acceptor atom, score
      P1  H  7989  7998       L1    20  0.95
      P1  H 10752 10765       L1    17  0.12

> <Gold.Chemscore.Hbond.Weighted>
-5.3043

> <Gold.Chemscore.Metal.Weighted>
-0.0000

> <Gold.Chemscore.Lipo.Weighted>
-10.7413

> <Gold.Chemscore.Internal_Hbond.Weighted>
0.0000

> <Gold.Chemscore.DEClash.Weighted>
0.2752

> <Gold.Chemscore.DEInternal.Weighted>
1.5556

> <Gold.Chemscore.Rot.Weighted>
5.8869

> <Gold.Chemscore.Internal.Correction.Weighted>
   9.000000E+99

> <Gold.Protein.RotatedTorsions>
[ 6907 6896 6895 6894 ] final   39.00 input  -60.11 | X-H torsion
[ 7974 7965 7964 7962 ] final  122.76 input  175.53 | X-H torsion
[ 8008 7997 7996 7995 ] final  128.57 input   59.86 | X-H torsion
[ 10167 10162 10161 10158 ] final   39.55 input  -65.29 | X-H torsion
[ 10718 10713 10712 10709 ] final   99.86 input   66.30 | X-H torsion
[ 10763 10752 10751 10750 ] final -176.53 input  -60.55 | X-H torsion
[ 11005 11000 10999 10996 ] final   18.99 input  -57.11 | X-H torsion

> <Gold.Protein.ActiveResidues>
 VAL166  LYS551  ARG553  GLY616  TRP617  ASP618  TYR619  PRO620  LYS621  CYS622 
 ASP623  PHE694  ASN695  SER759  ASP760  ASP761  ALA762  ILE779  LEU786  VAL792 
 PHE793  MET794  SER795  GLU796  ALA797  LYS798  CYS799  TRP800  GLU811  SER814 

> <Gold.Protein.RotatedAtoms>
  152.1639  134.8890  160.0539 H   0  0  0  0  0  0  0  0  0  0  0  0  # atno 6907 bound_to 6896
  151.9875  133.3774  159.4139 H   0  0  0  0  0  0  0  0  0  0  0  0  # atno 6908 bound_to 6896
  150.6891  134.3895  159.5114 H   0  0  0  0  0  0  0  0  0  0  0  0  # atno 6909 bound_to 6896
  145.1038  139.3500  143.4798 H   0  0  0  0  0  0  0  0  0  0  0  0  # atno 7974 bound_to 7965
  156.2918  140.2641  156.2458 H   0  0  0  0  0  0  0  0  0  0  0  0  # atno 8008 bound_to 7997
  154.9932  140.0388  157.2347 H   0  0  0  0  0  0  0  0  0  0  0  0  # atno 8009 bound_to 7997
  154.7668  140.2770  155.6175 H   0  0  0  0  0  0  0  0  0  0  0  0  # atno 8010 bound_to 7997
  140.3829  144.1956  150.6130 H   0  0  0  0  0  0  0  0  0  0  0  0  # atno 10167 bound_to 10162
  157.6867  131.0682  150.5013 H   0  0  0  0  0  0  0  0  0  0  0  0  # atno 10718 bound_to 10713
  154.5712  135.2828  155.0825 H   0  0  0  0  0  0  0  0  0  0  0  0  # atno 10763 bound_to 10752
  154.2197  135.6393  153.5144 H   0  0  0  0  0  0  0  0  0  0  0  0  # atno 10764 bound_to 10752
  153.0058  135.5511  154.6336 H   0  0  0  0  0  0  0  0  0  0  0  0  # atno 10765 bound_to 10752
  140.4186  134.1542  155.7671 H   0  0  0  0  0  0  0  0  0  0  0  0  # atno 11005 bound_to 11000
  146.3529  140.0926  142.8612 LP  0  0  0  0  0  0  0  0  0  0  0  0  # atno 17320 bound_to 7965
  145.0925  140.9294  143.4760 LP  0  0  0  0  0  0  0  0  0  0  0  0  # atno 17321 bound_to 7965
  140.4919  143.2344  151.8805 LP  0  0  0  0  0  0  0  0  0  0  0  0  # atno 17342 bound_to 10162
  139.4794  144.5156  151.8873 LP  0  0  0  0  0  0  0  0  0  0  0  0  # atno 17343 bound_to 10162
  156.5334  130.4190  149.6190 LP  0  0  0  0  0  0  0  0  0  0  0  0  # atno 17370 bound_to 10713
  156.3049  130.7197  151.2077 LP  0  0  0  0  0  0  0  0  0  0  0  0  # atno 17371 bound_to 10713
  141.1793  133.8448  157.1314 LP  0  0  0  0  0  0  0  0  0  0  0  0  # atno 17394 bound_to 11000
  140.0216  134.9943  157.0603 LP  0  0  0  0  0  0  0  0  0  0  0  0  # atno 17395 bound_to 11000

$$$$
