AV-unprocessed.smi:2070|AV-procd|sdf|8439|dock4
  -GOLD-   2272011133D 1   1.00000     0.00000
 Structure written by MMmdl.
 40 41  0  0  0  0  0  0  0  0  1 V2000
  151.5268  144.3617  158.3065 C   0  0  0  0  0  0  0  0  0  0  0  0
  151.9516  143.9994  159.6949 C   0  0  0  0  0  0  0  0  0  0  0  0
  151.6456  144.6738  160.8504 C   0  0  0  0  0  0  0  0  0  0  0  0
  152.3404  143.9090  162.2531 S   0  0  0  0  0  0  0  0  0  0  0  0
  153.0414  142.6856  161.2008 C   0  0  0  0  0  0  0  0  0  0  0  0
  153.8411  141.5294  161.7108 C   0  0  0  0  0  0  0  0  0  0  0  0
  154.3878  140.6126  160.5990 C   0  0  0  0  0  0  0  0  0  0  0  0
  153.3552  139.7669  160.0091 N   0  0  0  0  0  0  0  0  0  0  0  0
  153.5253  138.9563  158.9517 C   0  0  0  0  0  0  0  0  0  0  0  0
  154.6251  138.7985  158.4194 O   0  0  0  0  0  0  0  0  0  0  0  0
  152.3977  138.3282  158.5321 N   0  0  0  0  0  0  0  0  0  0  0  0
  151.0135  138.7363  158.8273 C   0  0  0  0  0  0  0  0  0  0  0  0
  150.4210  139.4058  157.5745 C   0  0  0  0  0  0  0  0  0  0  0  0
  150.4828  138.4568  156.3546 C   0  0  0  0  0  0  0  0  0  0  0  0
  150.0163  139.1689  155.0779 C   0  0  0  0  0  0  0  0  0  0  0  0
  149.8576  138.4177  153.9852 N   0  0  0  0  0  0  0  0  0  0  0  0
  149.8016  140.3795  155.0739 O   0  0  0  0  0  0  0  0  0  0  0  0
  151.9064  137.8759  156.1803 C   0  0  0  0  0  0  0  0  0  0  0  0
  152.4300  137.2832  157.5018 C   0  0  0  0  0  0  0  0  0  0  0  0
  152.7395  142.8653  159.9115 N   0  0  0  0  0  0  0  0  0  0  0  0
  150.5173  144.0058  158.0991 H   0  0  0  0  0  0  0  0  0  0  0  0
  152.1910  143.9282  157.5581 H   0  0  0  0  0  0  0  0  0  0  0  0
  151.5324  145.4422  158.1614 H   0  0  0  0  0  0  0  0  0  0  0  0
  151.0544  145.5707  160.9611 H   0  0  0  0  0  0  0  0  0  0  0  0
  154.6667  141.9172  162.3090 H   0  0  0  0  0  0  0  0  0  0  0  0
  153.2180  140.9501  162.3928 H   0  0  0  0  0  0  0  0  0  0  0  0
  154.8831  141.2031  159.8267 H   0  0  0  0  0  0  0  0  0  0  0  0
  155.1482  139.9524  161.0169 H   0  0  0  0  0  0  0  0  0  0  0  0
  152.4277  139.8404  160.4009 H   0  0  0  0  0  0  0  0  0  0  0  0
  150.4279  137.8539  159.0893 H   0  0  0  0  0  0  0  0  0  0  0  0
  150.9209  139.4048  159.6832 H   0  0  0  0  0  0  0  0  0  0  0  0
  149.3890  139.7013  157.7679 H   0  0  0  0  0  0  0  0  0  0  0  0
  150.9722  140.3243  157.3693 H   0  0  0  0  0  0  0  0  0  0  0  0
  149.8071  137.6223  156.5508 H   0  0  0  0  0  0  0  0  0  0  0  0
  149.5504  138.8409  153.1217 H   0  0  0  0  0  0  0  0  0  0  0  0
  150.0445  137.4263  154.0284 H   0  0  0  0  0  0  0  0  0  0  0  0
  151.9047  137.1058  155.4079 H   0  0  0  0  0  0  0  0  0  0  0  0
  152.5949  138.6519  155.8409 H   0  0  0  0  0  0  0  0  0  0  0  0
  153.4277  136.8673  157.3550 H   0  0  0  0  0  0  0  0  0  0  0  0
  151.8047  136.4451  157.8127 H   0  0  0  0  0  0  0  0  0  0  0  0
  1  2  1  0  0  0  0
  1 21  1  0  0  0  0
  1 22  1  0  0  0  0
  1 23  1  0  0  0  0
  2 20  1  0  0  0  0
  2  3  2  0  0  0  0
  3  4  1  0  0  0  0
  3 24  1  0  0  0  0
  4  5  1  0  0  0  0
  5  6  1  0  0  0  0
  5 20  2  0  0  0  0
  6  7  1  0  0  0  0
  6 25  1  0  0  0  0
  6 26  1  0  0  0  0
  7  8  1  0  0  0  0
  7 27  1  0  0  0  0
  7 28  1  0  0  0  0
  8  9  1  0  0  0  0
  8 29  1  0  0  0  0
  9 10  2  0  0  0  0
  9 11  1  0  0  0  0
 11 19  1  0  0  0  0
 11 12  1  0  0  0  0
 12 13  1  0  0  0  0
 12 30  1  0  0  0  0
 12 31  1  0  0  0  0
 13 14  1  0  0  0  0
 13 32  1  0  0  0  0
 13 33  1  0  0  0  0
 14 15  1  0  0  0  0
 14 18  1  0  0  0  0
 14 34  1  0  0  0  0
 15 16  1  0  0  0  0
 15 17  2  0  0  0  0
 16 35  1  0  0  0  0
 16 36  1  0  0  0  0
 18 19  1  0  0  0  0
 18 37  1  0  0  0  0
 18 38  1  0  0  0  0
 19 39  1  0  0  0  0
 19 40  1  0  0  0  0
M  END
> <s_m_source_file>
AV-unprocessed.smi

> <i_m_source_file_index>
2070

> <i_lp_mmshare_version>
43012

> <i_f3d_flags>
0

> <s_epik_input>
W0NIM11jMVtjSF1zYyhuMSlbQ0gyXVtDSDJdW05IXUMoPU8pTjJbQ0gyXVtDSDJdW0NIXShDKD1PKVtOSDJdKVtDSDJdW0NIMl0y

> <s_epik_cmdline>
J2VwaWtfcHl0aG9uJywgJy1waCcsICc3LjAnLCAnLXRuJywgJzgnLCAnLW1hJywgJzIwMCcsICctbWV0YWxfYmluZGluZycsICctaW1hZScsICc8aW5maWxlLm1hZT4nLCAnLW9tYWUnLCAnPG91dGZpbGUubWFlPic=

> <r_epik_Ionization_Penalty>
0.00203811

> <r_epik_Ionization_Penalty_Charging>
0

> <r_epik_Ionization_Penalty_Neutral>
0.00203811

> <r_epik_State_Penalty>
0.00135523

> <r_epik_Charging_Adjusted_Penalty>
0.00135523

> <i_epik_Tot_Q>
0

> <i_epik_Tot_abs_Q>
0

> <r_epik_Metal_State_Penalty>
-0

> <b_epik_Metal_Only>
0

> <s_lp_Force_Field>
OPLS_2005

> <r_lp_Energy>
19.595

> <b_lp_Chiralities_Consistent>
1

> <s_lp_Variant>
AV-unprocessed.smi:2070-1

> <Gold.Version>
5.8.1

> <Gold.Id.Protein>
6NUR|6NUR_protein|mol2

> <Gold.PLP.Fitness>
51.0593

> <Gold.PLP.PLP>
-42.5103

> <Gold.PLP.part.hbond>
-4.5312

> <Gold.PLP.part.metal>
0.0000

> <Gold.PLP.part.buried>
-6.2581

> <Gold.PLP.part.nonpolar>
-32.7109

> <Gold.PLP.part.repulsive>
0.2877

> <Gold.PLP.ligand.clash>
0.0000

> <Gold.PLP.ligand.torsion>
0.2617

> <Gold.PLP.Chemscore.Hbond>
3.0000

> <Gold.PLP.Chemscore.CHOScore>
0.0000

> <Gold.PLP.Chemscore.Metal>
0.0000

> <Gold.Chemscore.Hbonds>
donor molecule, donor type, donor heavy atom, donor atom, acceptor molecule, acceptor atom, score
      L1  H    16    35       P1  7957  0.36
      P1  H  7997  8008       L1    10  1.00

> <Gold.PLP.Chemscore.Internal.Correction>
0.0724

> <Gold.Rescore>
     Score         DG    S(hbond)    S(metal)    S(lipo)     H(rot)  DE(clash)    DE(int)     intcor
     18.26     -18.64       1.80        0.00     103.87       1.95       0.01       0.37       ----

> <Gold.Chemscore.Fitness>
18.2621

> <Gold.Chemscore.DG>
-18.6432

> <Gold.Chemscore.ZeroCoef>
-5.4800

> <Gold.Chemscore.Hbond>
1.7966

> <Gold.Chemscore.Metal>
0.0000

> <Gold.Chemscore.Lipo>
103.8664

> <Gold.Chemscore.Internal_Hbond>
0.0000

> <Gold.Chemscore.DEClash>
0.0088

> <Gold.Chemscore.DEInternal>
0.3722

> <Gold.Chemscore.Rot>
1.9492

> <Gold.Chemscore.Internal.Correction>
   9.000000E+99

> <Gold.Chemscore.Hbonds>
donor molecule, donor type, donor heavy atom, donor atom, acceptor molecule, acceptor atom, score
      L1  H    16    35       P1  7957  0.34
      P1  H  7997  8008       L1    10  0.92

> <Gold.Chemscore.Hbond.Weighted>
-6.0008

> <Gold.Chemscore.Metal.Weighted>
-0.0000

> <Gold.Chemscore.Lipo.Weighted>
-12.1524

> <Gold.Chemscore.Internal_Hbond.Weighted>
0.0000

> <Gold.Chemscore.DEClash.Weighted>
0.0088

> <Gold.Chemscore.DEInternal.Weighted>
0.3722

> <Gold.Chemscore.Rot.Weighted>
4.9900

> <Gold.Chemscore.Internal.Correction.Weighted>
   9.000000E+99

> <Gold.Protein.RotatedTorsions>
[ 6907 6896 6895 6894 ] final    8.10 input  -60.11 | X-H torsion
[ 7974 7965 7964 7962 ] final -159.00 input  175.53 | X-H torsion
[ 8008 7997 7996 7995 ] final -119.28 input   59.86 | X-H torsion
[ 10167 10162 10161 10158 ] final   81.29 input  -65.29 | X-H torsion
[ 10718 10713 10712 10709 ] final -166.19 input   66.30 | X-H torsion
[ 10763 10752 10751 10750 ] final  108.44 input  -60.55 | X-H torsion
[ 11005 11000 10999 10996 ] final  155.07 input  -57.11 | X-H torsion

> <Gold.Protein.ActiveResidues>
 VAL166  LYS551  ARG553  GLY616  TRP617  ASP618  TYR619  PRO620  LYS621  CYS622 
 ASP623  PHE694  ASN695  SER759  ASP760  ASP761  ALA762  ILE779  LEU786  VAL792 
 PHE793  MET794  SER795  GLU796  ALA797  LYS798  CYS799  TRP800  GLU811  SER814 

> <Gold.Protein.RotatedAtoms>
  151.7006  135.0930  160.0249 H   0  0  0  0  0  0  0  0  0  0  0  0  # atno 6907 bound_to 6896
  152.3723  133.6430  159.6105 H   0  0  0  0  0  0  0  0  0  0  0  0  # atno 6908 bound_to 6896
  150.7682  133.9167  159.3427 H   0  0  0  0  0  0  0  0  0  0  0  0  # atno 6909 bound_to 6896
  144.7483  140.3747  143.6068 H   0  0  0  0  0  0  0  0  0  0  0  0  # atno 7974 bound_to 7965
  155.1132  140.0397  157.2730 H   0  0  0  0  0  0  0  0  0  0  0  0  # atno 8008 bound_to 7997
  154.6669  140.2603  155.7023 H   0  0  0  0  0  0  0  0  0  0  0  0  # atno 8009 bound_to 7997
  156.2642  140.2805  156.1163 H   0  0  0  0  0  0  0  0  0  0  0  0  # atno 8010 bound_to 7997
  139.9408  144.6091  150.8254 H   0  0  0  0  0  0  0  0  0  0  0  0  # atno 10167 bound_to 10162
  156.6643  130.9058  151.3034 H   0  0  0  0  0  0  0  0  0  0  0  0  # atno 10718 bound_to 10713
  153.4207  135.3812  155.2109 H   0  0  0  0  0  0  0  0  0  0  0  0  # atno 10763 bound_to 10752
  154.8744  135.3816  154.4388 H   0  0  0  0  0  0  0  0  0  0  0  0  # atno 10764 bound_to 10752
  153.4908  135.7088  153.5948 H   0  0  0  0  0  0  0  0  0  0  0  0  # atno 10765 bound_to 10752
  140.1547  134.8651  157.2499 H   0  0  0  0  0  0  0  0  0  0  0  0  # atno 11005 bound_to 11000
  145.7040  139.1668  143.2576 LP  0  0  0  0  0  0  0  0  0  0  0  0  # atno 17320 bound_to 7965
  146.1395  140.7077  142.9374 LP  0  0  0  0  0  0  0  0  0  0  0  0  # atno 17321 bound_to 7965
  140.7611  143.3167  151.2716 LP  0  0  0  0  0  0  0  0  0  0  0  0  # atno 17342 bound_to 10162
  139.6706  144.0026  152.2751 LP  0  0  0  0  0  0  0  0  0  0  0  0  # atno 17343 bound_to 10162
  157.7099  130.9428  150.1053 LP  0  0  0  0  0  0  0  0  0  0  0  0  # atno 17370 bound_to 10713
  156.1987  130.3659  149.8816 LP  0  0  0  0  0  0  0  0  0  0  0  0  # atno 17371 bound_to 10713
  140.2562  134.3625  155.7423 LP  0  0  0  0  0  0  0  0  0  0  0  0  # atno 17394 bound_to 11000
  141.2203  133.7344  156.9010 LP  0  0  0  0  0  0  0  0  0  0  0  0  # atno 17395 bound_to 11000

$$$$
