AV-unprocessed.smi:3349|AV-procd|sdf|12931|dock4
  -GOLD-   2272019363D 1   1.00000     0.00000
 Structure written by MMmdl.
 40 41  0  0  0  0  0  0  0  0  1 V2000
  152.8744  142.7524  162.1863 C   0  0  0  0  0  0  0  0  0  0  0  0
  152.6348  142.0361  160.8323 C   0  0  2  0  0  0  0  0  0  0  0  0
  153.9847  141.4584  160.3248 C   0  0  0  0  0  0  0  0  0  0  0  0
  154.3217  140.1904  160.9624 N   0  0  0  0  0  0  0  0  0  0  0  0
  154.8288  140.0688  162.1980 C   0  0  0  0  0  0  0  0  0  0  0  0
  155.0768  141.0342  162.9213 O   0  0  0  0  0  0  0  0  0  0  0  0
  155.1101  138.6382  162.6875 C   0  0  2  0  0  0  0  0  0  0  0  0
  156.6255  138.4360  162.9045 C   0  0  0  0  0  0  0  0  0  0  0  0
  154.5262  137.6412  161.7850 N   0  0  0  0  0  0  0  0  0  0  0  0
  153.2548  137.4173  161.4300 C   0  0  0  0  0  0  0  0  0  0  0  0
  153.0848  136.3571  160.6529 N   0  0  0  0  0  0  0  0  0  0  0  0
  154.3758  135.9205  160.5810 C   0  0  0  0  0  0  0  0  0  0  0  0
  155.2720  136.6355  161.2602 N   0  0  0  0  0  0  0  0  0  0  0  0
  151.9572  142.9034  159.8401 N   0  0  0  0  0  0  0  0  0  0  0  0
  152.6182  144.2031  159.6733 C   0  0  0  0  0  0  0  0  0  0  0  0
  151.9328  145.0917  158.6206 C   0  0  0  0  0  0  0  0  0  0  0  0
  151.8787  144.4080  157.3763 O   0  0  0  0  0  0  0  0  0  0  0  0
  151.1767  143.1767  157.4748 C   0  0  0  0  0  0  0  0  0  0  0  0
  151.8582  142.2742  158.5176 C   0  0  0  0  0  0  0  0  0  0  0  0
  153.4196  142.1332  162.8976 H   0  0  0  0  0  0  0  0  0  0  0  0
  151.9429  143.0064  162.6899 H   0  0  0  0  0  0  0  0  0  0  0  0
  153.4456  143.6712  162.0495 H   0  0  0  0  0  0  0  0  0  0  0  0
  151.9820  141.1850  161.0333 H   0  0  0  0  0  0  0  0  0  0  0  0
  153.9560  141.2507  159.2562 H   0  0  0  0  0  0  0  0  0  0  0  0
  154.7842  142.1828  160.4909 H   0  0  0  0  0  0  0  0  0  0  0  0
  154.1490  139.3499  160.4300 H   0  0  0  0  0  0  0  0  0  0  0  0
  154.6190  138.5091  163.6536 H   0  0  0  0  0  0  0  0  0  0  0  0
  157.0510  139.2413  163.5045 H   0  0  0  0  0  0  0  0  0  0  0  0
  157.1665  138.4074  161.9575 H   0  0  0  0  0  0  0  0  0  0  0  0
  156.8296  137.5045  163.4331 H   0  0  0  0  0  0  0  0  0  0  0  0
  152.4300  138.0384  161.7483 H   0  0  0  0  0  0  0  0  0  0  0  0
  154.6620  135.0402  160.0244 H   0  0  0  0  0  0  0  0  0  0  0  0
  152.6130  144.7619  160.6069 H   0  0  0  0  0  0  0  0  0  0  0  0
  153.6632  144.0541  159.3971 H   0  0  0  0  0  0  0  0  0  0  0  0
  150.9253  145.3630  158.9406 H   0  0  0  0  0  0  0  0  0  0  0  0
  152.4881  146.0208  158.4911 H   0  0  0  0  0  0  0  0  0  0  0  0
  150.1353  143.3610  157.7437 H   0  0  0  0  0  0  0  0  0  0  0  0
  151.1738  142.6912  156.4989 H   0  0  0  0  0  0  0  0  0  0  0  0
  152.8530  142.0001  158.1629 H   0  0  0  0  0  0  0  0  0  0  0  0
  151.2765  141.3558  158.5707 H   0  0  0  0  0  0  0  0  0  0  0  0
  1  2  1  0  0  0  0
  1 20  1  0  0  0  0
  1 21  1  0  0  0  0
  1 22  1  0  0  0  0
  2  3  1  0  0  0  0
  2 14  1  0  0  0  0
  2 23  1  0  0  0  0
  3  4  1  0  0  0  0
  3 24  1  0  0  0  0
  3 25  1  0  0  0  0
  4  5  1  0  0  0  0
  4 26  1  0  0  0  0
  5  6  2  0  0  0  0
  5  7  1  0  0  0  0
  7  8  1  0  0  0  0
  7  9  1  0  0  0  0
  7 27  1  0  0  0  0
  8 28  1  0  0  0  0
  8 29  1  0  0  0  0
  8 30  1  0  0  0  0
  9 13  1  0  0  0  0
  9 10  1  0  0  0  0
 10 11  2  0  0  0  0
 10 31  1  0  0  0  0
 11 12  1  0  0  0  0
 12 13  2  0  0  0  0
 12 32  1  0  0  0  0
 14 19  1  0  0  0  0
 14 15  1  0  0  0  0
 15 16  1  0  0  0  0
 15 33  1  0  0  0  0
 15 34  1  0  0  0  0
 16 17  1  0  0  0  0
 16 35  1  0  0  0  0
 16 36  1  0  0  0  0
 17 18  1  0  0  0  0
 18 19  1  0  0  0  0
 18 37  1  0  0  0  0
 18 38  1  0  0  0  0
 19 39  1  0  0  0  0
 19 40  1  0  0  0  0
M  END
> <s_m_source_file>
AV-unprocessed.smi

> <i_m_source_file_index>
3349

> <i_lp_mmshare_version>
43012

> <i_f3d_flags>
0

> <s_epik_input>
W0NIMl0xW0NIMl1PW0NIMl1bQ0gyXU4xW0NASF0oW0NIM10pW0NIMl1bTkhdQyg9TylbQ0BIXShbQ0gzXSluMltjSF1uW2NIXW4y

> <s_epik_cmdline>
J2VwaWtfcHl0aG9uJywgJy1waCcsICc3LjAnLCAnLXRuJywgJzgnLCAnLW1hJywgJzIwMCcsICctbWV0YWxfYmluZGluZycsICctaW1hZScsICc8aW5maWxlLm1hZT4nLCAnLW9tYWUnLCAnPG91dGZpbGUubWFlPic=

> <r_lp_tautomer_probability>
1

> <r_epik_Ionization_Penalty>
0.211373

> <r_epik_Ionization_Penalty_Charging>
0

> <r_epik_Ionization_Penalty_Neutral>
0.211373

> <r_epik_State_Penalty>
0.201459

> <r_epik_Charging_Adjusted_Penalty>
0.201459

> <i_epik_Tot_Q>
0

> <i_epik_Tot_abs_Q>
0

> <r_epik_Metal_State_Penalty>
0.201458

> <b_epik_Metal_Only>
0

> <s_lp_Force_Field>
OPLS_2005

> <r_lp_Energy>
36.462

> <b_lp_Chiralities_Consistent>
1

> <s_lp_Variant>
AV-unprocessed.smi:3349-1

> <Gold.Version>
5.8.1

> <Gold.Id.Protein>
6NUR|6NUR_protein|mol2

> <Gold.PLP.Fitness>
40.2149

> <Gold.PLP.PLP>
-38.3423

> <Gold.PLP.part.hbond>
-1.9737

> <Gold.PLP.part.metal>
0.0000

> <Gold.PLP.part.buried>
-5.4307

> <Gold.PLP.part.nonpolar>
-30.4661

> <Gold.PLP.part.repulsive>
0.1408

> <Gold.PLP.ligand.clash>
0.0000

> <Gold.PLP.ligand.torsion>
0.6457

> <Gold.PLP.Chemscore.Hbond>
0.9913

> <Gold.PLP.Chemscore.CHOScore>
0.0000

> <Gold.PLP.Chemscore.Metal>
0.0000

> <Gold.Chemscore.Hbonds>
donor molecule, donor type, donor heavy atom, donor atom, acceptor molecule, acceptor atom, score
      P1  H  6896  6907       L1    11  1.00

> <Gold.PLP.Chemscore.Internal.Correction>
0.1903

> <Gold.Rescore>
     Score         DG    S(hbond)    S(metal)    S(lipo)     H(rot)  DE(clash)    DE(int)     intcor
     10.14     -12.18       0.99        0.00      85.04       2.56       0.06       1.98       ----

> <Gold.Chemscore.Fitness>
10.1410

> <Gold.Chemscore.DG>
-12.1810

> <Gold.Chemscore.ZeroCoef>
-5.4800

> <Gold.Chemscore.Hbond>
0.9871

> <Gold.Chemscore.Metal>
0.0000

> <Gold.Chemscore.Lipo>
85.0428

> <Gold.Chemscore.Internal_Hbond>
0.0000

> <Gold.Chemscore.DEClash>
0.0645

> <Gold.Chemscore.DEInternal>
1.9755

> <Gold.Chemscore.Rot>
2.5570

> <Gold.Chemscore.Internal.Correction>
   9.000000E+99

> <Gold.Chemscore.Hbonds>
donor molecule, donor type, donor heavy atom, donor atom, acceptor molecule, acceptor atom, score
      P1  H  6896  6907       L1    11  0.26

> <Gold.Chemscore.Hbond.Weighted>
-3.2969

> <Gold.Chemscore.Metal.Weighted>
-0.0000

> <Gold.Chemscore.Lipo.Weighted>
-9.9500

> <Gold.Chemscore.Internal_Hbond.Weighted>
0.0000

> <Gold.Chemscore.DEClash.Weighted>
0.0645

> <Gold.Chemscore.DEInternal.Weighted>
1.9755

> <Gold.Chemscore.Rot.Weighted>
6.5459

> <Gold.Chemscore.Internal.Correction.Weighted>
   9.000000E+99

> <Gold.Protein.RotatedTorsions>
[ 6907 6896 6895 6894 ] final   41.26 input  -60.11 | X-H torsion
[ 7974 7965 7964 7962 ] final  148.51 input  175.53 | X-H torsion
[ 8008 7997 7996 7995 ] final -165.68 input   59.86 | X-H torsion
[ 10167 10162 10161 10158 ] final -145.85 input  -65.29 | X-H torsion
[ 10718 10713 10712 10709 ] final  -60.02 input   66.30 | X-H torsion
[ 10763 10752 10751 10750 ] final  151.74 input  -60.55 | X-H torsion
[ 11005 11000 10999 10996 ] final -150.59 input  -57.11 | X-H torsion

> <Gold.Protein.ActiveResidues>
 VAL166  LYS551  ARG553  GLY616  TRP617  ASP618  TYR619  PRO620  LYS621  CYS622 
 ASP623  PHE694  ASN695  SER759  ASP760  ASP761  ALA762  ILE779  LEU786  VAL792 
 PHE793  MET794  SER795  GLU796  ALA797  LYS798  CYS799  TRP800  GLU811  SER814 

> <Gold.Protein.RotatedAtoms>
  152.1930  134.8655  160.0515 H   0  0  0  0  0  0  0  0  0  0  0  0  # atno 6907 bound_to 6896
  151.9536  133.3668  159.4017 H   0  0  0  0  0  0  0  0  0  0  0  0  # atno 6908 bound_to 6896
  150.6939  134.4238  159.5261 H   0  0  0  0  0  0  0  0  0  0  0  0  # atno 6909 bound_to 6896
  144.8508  139.6163  143.5974 H   0  0  0  0  0  0  0  0  0  0  0  0  # atno 7974 bound_to 7965
  155.8532  140.0966  157.1662 H   0  0  0  0  0  0  0  0  0  0  0  0  # atno 8008 bound_to 7997
  154.3986  140.1379  156.3931 H   0  0  0  0  0  0  0  0  0  0  0  0  # atno 8009 bound_to 7997
  155.7939  140.3455  155.5367 H   0  0  0  0  0  0  0  0  0  0  0  0  # atno 8010 bound_to 7997
  139.7767  143.8159  152.2633 H   0  0  0  0  0  0  0  0  0  0  0  0  # atno 10167 bound_to 10162
  156.1020  130.4185  150.0796 H   0  0  0  0  0  0  0  0  0  0  0  0  # atno 10718 bound_to 10713
  154.1087  135.2840  155.3235 H   0  0  0  0  0  0  0  0  0  0  0  0  # atno 10763 bound_to 10752
  154.6504  135.5371  153.7899 H   0  0  0  0  0  0  0  0  0  0  0  0  # atno 10764 bound_to 10752
  153.0353  135.6509  154.1247 H   0  0  0  0  0  0  0  0  0  0  0  0  # atno 10765 bound_to 10752
  140.7385  134.3540  157.5152 H   0  0  0  0  0  0  0  0  0  0  0  0  # atno 11005 bound_to 11000
  146.2783  139.6811  142.9247 LP  0  0  0  0  0  0  0  0  0  0  0  0  # atno 17320 bound_to 7965
  145.4503  141.0428  143.2808 LP  0  0  0  0  0  0  0  0  0  0  0  0  # atno 17321 bound_to 7965
  139.8210  144.7296  150.9573 LP  0  0  0  0  0  0  0  0  0  0  0  0  # atno 17342 bound_to 10162
  140.7816  143.4159  151.0917 LP  0  0  0  0  0  0  0  0  0  0  0  0  # atno 17343 bound_to 10162
  156.8781  130.9547  151.3602 LP  0  0  0  0  0  0  0  0  0  0  0  0  # atno 17370 bound_to 10713
  157.6192  130.8641  149.9079 LP  0  0  0  0  0  0  0  0  0  0  0  0  # atno 17371 bound_to 10713
  139.8811  134.9065  156.2924 LP  0  0  0  0  0  0  0  0  0  0  0  0  # atno 17394 bound_to 11000
  140.9857  133.7239  156.0739 LP  0  0  0  0  0  0  0  0  0  0  0  0  # atno 17395 bound_to 11000

$$$$
