AV-unprocessed.smi:1574|AV-procd|sdf|6337|dock5
  -GOLD-   22720 6553D 1   1.00000     0.00000
 Structure written by MMmdl.
 40 41  0  0  0  0  0  0  0  0  1 V2000
  153.8297  140.9030  160.3442 C   0  0  0  0  0  0  0  0  0  0  0  0
  153.3643  142.3658  160.2704 C   0  0  2  0  0  0  0  0  0  0  0  0
  152.6316  142.7993  161.5576 C   0  0  0  0  0  0  0  0  0  0  0  0
  152.2028  144.2738  161.4933 C   0  0  0  0  0  0  0  0  0  0  0  0
  151.3508  144.5524  160.2461 C   0  0  0  0  0  0  0  0  0  0  0  0
  152.0844  144.1249  158.9659 C   0  0  0  0  0  0  0  0  0  0  0  0
  152.4956  142.6370  159.0214 C   0  0  2  0  0  0  0  0  0  0  0  0
  151.3557  141.7895  159.1008 O   0  0  0  0  0  0  0  0  0  0  0  0
  150.3185  142.0607  158.1715 C   0  0  0  0  0  0  0  0  0  0  0  0
  150.8373  141.7674  156.7569 C   0  0  0  0  0  0  0  0  0  0  0  0
  149.7735  141.8787  155.7638 N   0  0  0  0  0  0  0  0  0  0  0  0
  149.5163  140.9780  154.8019 C   0  0  0  0  0  0  0  0  0  0  0  0
  150.1713  139.9487  154.6391 O   0  0  0  0  0  0  0  0  0  0  0  0
  148.3335  141.2785  153.8827 C   0  0  0  0  0  0  0  0  0  0  0  0
  147.4017  140.1675  153.8549 N   0  0  0  0  0  0  0  0  0  0  0  0
  147.1073  139.2932  152.8905 C   0  0  0  0  0  0  0  0  0  0  0  0
  146.1803  138.4309  153.2795 N   0  0  0  0  0  0  0  0  0  0  0  0
  145.9097  138.8243  154.5795 N   0  0  0  0  0  0  0  0  0  0  0  0
  146.6322  139.8538  154.9268 N   0  0  0  0  0  0  0  0  0  0  0  0
  152.9869  140.2204  160.4598 H   0  0  0  0  0  0  0  0  0  0  0  0
  154.4990  140.7475  161.1907 H   0  0  0  0  0  0  0  0  0  0  0  0
  154.3688  140.6166  159.4410 H   0  0  0  0  0  0  0  0  0  0  0  0
  154.2625  142.9789  160.1829 H   0  0  0  0  0  0  0  0  0  0  0  0
  151.7526  142.1724  161.7147 H   0  0  0  0  0  0  0  0  0  0  0  0
  153.2758  142.6456  162.4238 H   0  0  0  0  0  0  0  0  0  0  0  0
  151.6459  144.5382  162.3924 H   0  0  0  0  0  0  0  0  0  0  0  0
  153.0877  144.9113  161.4802 H   0  0  0  0  0  0  0  0  0  0  0  0
  150.4077  144.0110  160.3187 H   0  0  0  0  0  0  0  0  0  0  0  0
  151.0964  145.6115  160.1970 H   0  0  0  0  0  0  0  0  0  0  0  0
  151.4657  144.3324  158.0939 H   0  0  0  0  0  0  0  0  0  0  0  0
  152.9778  144.7387  158.8446 H   0  0  0  0  0  0  0  0  0  0  0  0
  153.0729  142.3845  158.1305 H   0  0  0  0  0  0  0  0  0  0  0  0
  149.4341  141.4570  158.3732 H   0  0  0  0  0  0  0  0  0  0  0  0
  150.0253  143.1086  158.2450 H   0  0  0  0  0  0  0  0  0  0  0  0
  151.6117  142.4892  156.4977 H   0  0  0  0  0  0  0  0  0  0  0  0
  151.3079  140.7835  156.7175 H   0  0  0  0  0  0  0  0  0  0  0  0
  149.1775  142.6914  155.8242 H   0  0  0  0  0  0  0  0  0  0  0  0
  147.8137  142.1825  154.2041 H   0  0  0  0  0  0  0  0  0  0  0  0
  148.6930  141.4575  152.8688 H   0  0  0  0  0  0  0  0  0  0  0  0
  147.5662  139.2899  151.9128 H   0  0  0  0  0  0  0  0  0  0  0  0
  1  2  1  0  0  0  0
  1 20  1  0  0  0  0
  1 21  1  0  0  0  0
  1 22  1  0  0  0  0
  2  7  1  0  0  0  0
  2  3  1  0  0  0  0
  2 23  1  0  0  0  0
  3  4  1  0  0  0  0
  3 24  1  0  0  0  0
  3 25  1  0  0  0  0
  4  5  1  0  0  0  0
  4 26  1  0  0  0  0
  4 27  1  0  0  0  0
  5  6  1  0  0  0  0
  5 28  1  0  0  0  0
  5 29  1  0  0  0  0
  6  7  1  0  0  0  0
  6 30  1  0  0  0  0
  6 31  1  0  0  0  0
  7  8  1  0  0  0  0
  7 32  1  0  0  0  0
  8  9  1  0  0  0  0
  9 10  1  0  0  0  0
  9 33  1  0  0  0  0
  9 34  1  0  0  0  0
 10 11  1  0  0  0  0
 10 35  1  0  0  0  0
 10 36  1  0  0  0  0
 11 12  1  0  0  0  0
 11 37  1  0  0  0  0
 12 13  2  0  0  0  0
 12 14  1  0  0  0  0
 14 15  1  0  0  0  0
 14 38  1  0  0  0  0
 14 39  1  0  0  0  0
 15 19  1  0  0  0  0
 15 16  1  0  0  0  0
 16 17  2  0  0  0  0
 16 40  1  0  0  0  0
 17 18  1  0  0  0  0
 18 19  2  0  0  0  0
M  END
> <s_m_source_file>
AV-unprocessed.smi

> <i_m_source_file_index>
1574

> <i_lp_mmshare_version>
43012

> <i_f3d_flags>
0

> <s_epik_input>
W0NIM11bQ0BASF0xW0NIMl1bQ0gyXVtDSDJdW0NIMl1bQ0BIXTFPW0NIMl1bQ0gyXVtOSF1DKD1PKVtDSDJdbjJbY0hdbm5uMg==

> <s_epik_cmdline>
J2VwaWtfcHl0aG9uJywgJy1waCcsICc3LjAnLCAnLXRuJywgJzgnLCAnLW1hJywgJzIwMCcsICctbWV0YWxfYmluZGluZycsICctaW1hZScsICc8aW5maWxlLm1hZT4nLCAnLW9tYWUnLCAnPG91dGZpbGUubWFlPic=

> <r_lp_tautomer_probability>
1

> <r_epik_Ionization_Penalty>
1.44269e-06

> <r_epik_Ionization_Penalty_Charging>
0

> <r_epik_Ionization_Penalty_Neutral>
1.44269e-06

> <r_epik_State_Penalty>
-0

> <r_epik_Charging_Adjusted_Penalty>
0

> <i_epik_Tot_Q>
0

> <i_epik_Tot_abs_Q>
0

> <r_epik_Metal_State_Penalty>
-0

> <b_epik_Metal_Only>
0

> <s_lp_Force_Field>
OPLS_2005

> <r_lp_Energy>
10.5238

> <b_lp_Chiralities_Consistent>
1

> <s_lp_Variant>
AV-unprocessed.smi:1574-3

> <Gold.Version>
5.8.1

> <Gold.Id.Protein>
6NUR|6NUR_protein|mol2

> <Gold.PLP.Fitness>
52.5456

> <Gold.PLP.PLP>
-44.1672

> <Gold.PLP.part.hbond>
-2.0000

> <Gold.PLP.part.metal>
0.0000

> <Gold.PLP.part.buried>
-3.7778

> <Gold.PLP.part.nonpolar>
-38.5227

> <Gold.PLP.part.repulsive>
0.6309

> <Gold.PLP.ligand.clash>
0.0000

> <Gold.PLP.ligand.torsion>
0.2848

> <Gold.PLP.Chemscore.Hbond>
1.9600

> <Gold.PLP.Chemscore.CHOScore>
1.0000

> <Gold.PLP.Chemscore.Metal>
0.0000

> <Gold.Chemscore.Hbonds>
donor molecule, donor type, donor heavy atom, donor atom, acceptor molecule, acceptor atom, score
      L1  H    11    37       P1  8028  0.94
      P1  H  7989  7998       L1    13  0.64
      L1  C    16    40       P1  7957  1.00

> <Gold.PLP.Chemscore.Internal.Correction>
0.0680

> <Gold.Rescore>
     Score         DG    S(hbond)    S(metal)    S(lipo)     H(rot)  DE(clash)    DE(int)     intcor
     13.80     -14.18       1.35        0.00      99.25       2.90       0.10       0.28       ----

> <Gold.Chemscore.Fitness>
13.7967

> <Gold.Chemscore.DG>
-14.1806

> <Gold.Chemscore.ZeroCoef>
-5.4800

> <Gold.Chemscore.Hbond>
1.3548

> <Gold.Chemscore.Metal>
0.0000

> <Gold.Chemscore.Lipo>
99.2504

> <Gold.Chemscore.Internal_Hbond>
0.0000

> <Gold.Chemscore.DEClash>
0.1033

> <Gold.Chemscore.DEInternal>
0.2805

> <Gold.Chemscore.Rot>
2.9050

> <Gold.Chemscore.Internal.Correction>
   9.000000E+99

> <Gold.Chemscore.Hbonds>
donor molecule, donor type, donor heavy atom, donor atom, acceptor molecule, acceptor atom, score
      L1  H    11    37       P1  8028  0.86
      P1  H  7989  7998       L1    13  0.06

> <Gold.Chemscore.Hbond.Weighted>
-4.5250

> <Gold.Chemscore.Metal.Weighted>
-0.0000

> <Gold.Chemscore.Lipo.Weighted>
-11.6123

> <Gold.Chemscore.Internal_Hbond.Weighted>
0.0000

> <Gold.Chemscore.DEClash.Weighted>
0.1033

> <Gold.Chemscore.DEInternal.Weighted>
0.2805

> <Gold.Chemscore.Rot.Weighted>
7.4367

> <Gold.Chemscore.Internal.Correction.Weighted>
   9.000000E+99

> <Gold.Protein.RotatedTorsions>
[ 6907 6896 6895 6894 ] final  165.79 input  -60.11 | X-H torsion
[ 7974 7965 7964 7962 ] final   42.29 input  175.53 | X-H torsion
[ 8008 7997 7996 7995 ] final -131.39 input   59.86 | X-H torsion
[ 10167 10162 10161 10158 ] final   93.54 input  -65.29 | X-H torsion
[ 10718 10713 10712 10709 ] final   -6.45 input   66.30 | X-H torsion
[ 10763 10752 10751 10750 ] final -119.18 input  -60.55 | X-H torsion
[ 11005 11000 10999 10996 ] final  109.88 input  -57.11 | X-H torsion

> <Gold.Protein.ActiveResidues>
 VAL166  LYS551  ARG553  GLY616  TRP617  ASP618  TYR619  PRO620  LYS621  CYS622 
 ASP623  PHE694  ASN695  SER759  ASP760  ASP761  ALA762  ILE779  LEU786  VAL792 
 PHE793  MET794  SER795  GLU796  ALA797  LYS798  CYS799  TRP800  GLU811  SER814 

> <Gold.Protein.RotatedAtoms>
  151.8890  133.3512  159.3791 H   0  0  0  0  0  0  0  0  0  0  0  0  # atno 6907 bound_to 6896
  150.7108  134.4943  159.5540 H   0  0  0  0  0  0  0  0  0  0  0  0  # atno 6908 bound_to 6896
  152.2509  134.8133  160.0497 H   0  0  0  0  0  0  0  0  0  0  0  0  # atno 6909 bound_to 6896
  146.0752  139.5317  142.9572 H   0  0  0  0  0  0  0  0  0  0  0  0  # atno 7974 bound_to 7965
  155.3116  140.0457  157.3035 H   0  0  0  0  0  0  0  0  0  0  0  0  # atno 8008 bound_to 7997
  154.5430  140.2293  155.8576 H   0  0  0  0  0  0  0  0  0  0  0  0  # atno 8009 bound_to 7997
  156.1898  140.3053  155.9316 H   0  0  0  0  0  0  0  0  0  0  0  0  # atno 8010 bound_to 7997
  139.8170  144.6748  150.9567 H   0  0  0  0  0  0  0  0  0  0  0  0  # atno 10167 bound_to 10162
  156.7317  130.5182  149.5844 H   0  0  0  0  0  0  0  0  0  0  0  0  # atno 10718 bound_to 10713
  154.8610  135.4247  154.2258 H   0  0  0  0  0  0  0  0  0  0  0  0  # atno 10763 bound_to 10752
  153.3253  135.6985  153.7000 H   0  0  0  0  0  0  0  0  0  0  0  0  # atno 10764 bound_to 10752
  153.6038  135.3532  155.2928 H   0  0  0  0  0  0  0  0  0  0  0  0  # atno 10765 bound_to 10752
  139.8871  134.9470  156.6194 H   0  0  0  0  0  0  0  0  0  0  0  0  # atno 11005 bound_to 11000
  145.6318  141.0302  143.1859 LP  0  0  0  0  0  0  0  0  0  0  0  0  # atno 17320 bound_to 7965
  144.7257  139.7883  143.7366 LP  0  0  0  0  0  0  0  0  0  0  0  0  # atno 17321 bound_to 7965
  140.7815  143.4129  151.0964 LP  0  0  0  0  0  0  0  0  0  0  0  0  # atno 17342 bound_to 10162
  139.7792  143.8381  152.3134 LP  0  0  0  0  0  0  0  0  0  0  0  0  # atno 17343 bound_to 10162
  156.1524  130.6319  151.0613 LP  0  0  0  0  0  0  0  0  0  0  0  0  # atno 17370 bound_to 10713
  157.6856  131.0826  150.7252 LP  0  0  0  0  0  0  0  0  0  0  0  0  # atno 17371 bound_to 10713
  140.7751  133.8706  155.8522 LP  0  0  0  0  0  0  0  0  0  0  0  0  # atno 17394 bound_to 11000
  140.9809  134.1407  157.4495 LP  0  0  0  0  0  0  0  0  0  0  0  0  # atno 17395 bound_to 11000

$$$$
