AV-unprocessed.smi:2369|AV-procd|sdf|9433|dock4
  -GOLD-   2272013 63D 1   1.00000     0.00000
 Structure written by MMmdl.
 40 41  0  0  0  0  0  0  0  0  1 V2000
  153.5713  141.0110  159.9752 C   0  0  0  0  0  0  0  0  0  0  0  0
  152.7449  142.1892  159.5042 C   0  0  0  0  0  0  0  0  0  0  0  0
  152.8748  143.4517  160.1137 C   0  0  0  0  0  0  0  0  0  0  0  0
  152.0771  144.5078  159.6315 C   0  0  0  0  0  0  0  0  0  0  0  0
  152.1643  145.8911  160.2411 C   0  0  0  0  0  0  0  0  0  0  0  0
  151.1966  144.3627  158.6183 N   0  0  0  0  0  0  0  0  0  0  0  0
  151.0622  143.1510  158.0244 C   0  0  0  0  0  0  0  0  0  0  0  0
  150.1660  142.8941  156.9528 N   0  0  0  0  0  0  0  0  0  0  0  0
  150.1254  141.8221  156.1419 C   0  0  0  0  0  0  0  0  0  0  0  0
  150.8846  140.8542  156.2007 O   0  0  0  0  0  0  0  0  0  0  0  0
  149.1393  141.9338  155.2396 N   0  0  0  0  0  0  0  0  0  0  0  0
  148.8195  140.9456  154.2136 C   0  0  2  0  0  0  0  0  0  0  0  0
  147.5027  141.3112  153.4964 C   0  0  0  0  0  0  0  0  0  0  0  0
  147.1073  140.2413  152.4659 C   0  0  0  0  0  0  0  0  0  0  0  0
  147.0125  138.8515  153.1182 C   0  0  1  0  0  0  0  0  0  0  0  0
  146.7156  137.8862  152.1314 O   0  0  0  0  0  0  0  0  0  0  0  0
  148.3289  138.4804  153.8223 C   0  0  0  0  0  0  0  0  0  0  0  0
  148.7235  139.5482  154.8552 C   0  0  0  0  0  0  0  0  0  0  0  0
  151.8255  142.0393  158.4464 C   0  0  0  0  0  0  0  0  0  0  0  0
  154.3944  141.3361  160.6124 H   0  0  0  0  0  0  0  0  0  0  0  0
  153.9928  140.4761  159.1236 H   0  0  0  0  0  0  0  0  0  0  0  0
  152.9502  140.3185  160.5437 H   0  0  0  0  0  0  0  0  0  0  0  0
  153.5669  143.6065  160.9289 H   0  0  0  0  0  0  0  0  0  0  0  0
  152.9948  145.9616  160.9441 H   0  0  0  0  0  0  0  0  0  0  0  0
  151.2433  146.1262  160.7749 H   0  0  0  0  0  0  0  0  0  0  0  0
  152.3133  146.6417  159.4644 H   0  0  0  0  0  0  0  0  0  0  0  0
  149.4766  143.6111  156.7832 H   0  0  0  0  0  0  0  0  0  0  0  0
  148.5643  142.7633  155.2646 H   0  0  0  0  0  0  0  0  0  0  0  0
  149.6269  140.9248  153.4788 H   0  0  0  0  0  0  0  0  0  0  0  0
  146.7011  141.4210  154.2283 H   0  0  0  0  0  0  0  0  0  0  0  0
  147.5994  142.2764  152.9978 H   0  0  0  0  0  0  0  0  0  0  0  0
  146.1545  140.5067  152.0064 H   0  0  0  0  0  0  0  0  0  0  0  0
  147.8452  140.2256  151.6625 H   0  0  0  0  0  0  0  0  0  0  0  0
  146.1994  138.8479  153.8453 H   0  0  0  0  0  0  0  0  0  0  0  0
  147.3673  137.2030  152.1735 H   0  0  0  0  0  0  0  0  0  0  0  0
  148.2325  137.5111  154.3129 H   0  0  0  0  0  0  0  0  0  0  0  0
  149.1279  138.3778  153.0863 H   0  0  0  0  0  0  0  0  0  0  0  0
  149.6767  139.2803  155.3131 H   0  0  0  0  0  0  0  0  0  0  0  0
  147.9866  139.5598  155.6598 H   0  0  0  0  0  0  0  0  0  0  0  0
  151.7089  141.0785  157.9655 H   0  0  0  0  0  0  0  0  0  0  0  0
  1  2  1  0  0  0  0
  1 20  1  0  0  0  0
  1 21  1  0  0  0  0
  1 22  1  0  0  0  0
  2 19  1  0  0  0  0
  2  3  2  0  0  0  0
  3  4  1  0  0  0  0
  3 23  1  0  0  0  0
  4  5  1  0  0  0  0
  4  6  2  0  0  0  0
  5 24  1  0  0  0  0
  5 25  1  0  0  0  0
  5 26  1  0  0  0  0
  6  7  1  0  0  0  0
  7  8  1  0  0  0  0
  7 19  2  0  0  0  0
  8  9  1  0  0  0  0
  8 27  1  0  0  0  0
  9 10  2  0  0  0  0
  9 11  1  0  0  0  0
 11 12  1  0  0  0  0
 11 28  1  0  0  0  0
 12 18  1  0  0  0  0
 12 13  1  0  0  0  0
 12 29  1  0  0  0  0
 13 14  1  0  0  0  0
 13 30  1  0  0  0  0
 13 31  1  0  0  0  0
 14 15  1  0  0  0  0
 14 32  1  0  0  0  0
 14 33  1  0  0  0  0
 15 16  1  0  0  0  0
 15 17  1  0  0  0  0
 15 34  1  0  0  0  0
 16 35  1  0  0  0  0
 17 18  1  0  0  0  0
 17 36  1  0  0  0  0
 17 37  1  0  0  0  0
 18 38  1  0  0  0  0
 18 39  1  0  0  0  0
 19 40  1  0  0  0  0
M  END
> <s_m_source_file>
AV-unprocessed.smi

> <i_m_source_file_index>
2369

> <i_lp_mmshare_version>
43012

> <i_f3d_flags>
0

> <s_epik_input>
W0NIM11jMVtjSF1jKFtDSDNdKW5jKFtjSF0xKVtOSF1DKD1PKVtOSF1bQ0BASF0yW0NIMl1bQ0gyXVtDQEBIXShbT0hdKVtDSDJdW0NIMl0y

> <s_epik_cmdline>
J2VwaWtfcHl0aG9uJywgJy1waCcsICc3LjAnLCAnLXRuJywgJzgnLCAnLW1hJywgJzIwMCcsICctbWV0YWxfYmluZGluZycsICctaW1hZScsICc8aW5maWxlLm1hZT4nLCAnLW9tYWUnLCAnPG91dGZpbGUubWFlPic=

> <r_lp_tautomer_probability>
1

> <r_epik_Ionization_Penalty>
0.000274852

> <r_epik_Ionization_Penalty_Charging>
0

> <r_epik_Ionization_Penalty_Neutral>
0.000274852

> <r_epik_State_Penalty>
-0

> <r_epik_Charging_Adjusted_Penalty>
0

> <i_epik_Tot_Q>
0

> <i_epik_Tot_abs_Q>
0

> <r_epik_Metal_State_Penalty>
-0

> <b_epik_Metal_Only>
0

> <s_lp_Force_Field>
OPLS_2005

> <r_lp_Energy>
9.3444

> <b_lp_Chiralities_Consistent>
1

> <s_lp_Variant>
AV-unprocessed.smi:2369-1

> <Gold.Version>
5.8.1

> <Gold.Id.Protein>
6NUR|6NUR_protein|mol2

> <Gold.PLP.Fitness>
45.6312

> <Gold.PLP.PLP>
-39.3633

> <Gold.PLP.part.hbond>
-3.0000

> <Gold.PLP.part.metal>
0.0000

> <Gold.PLP.part.buried>
-3.2249

> <Gold.PLP.part.nonpolar>
-33.2497

> <Gold.PLP.part.repulsive>
0.3448

> <Gold.PLP.ligand.clash>
1.5187

> <Gold.PLP.ligand.torsion>
0.1283

> <Gold.PLP.Chemscore.Hbond>
2.6800

> <Gold.PLP.Chemscore.CHOScore>
0.0000

> <Gold.PLP.Chemscore.Metal>
0.0000

> <Gold.Chemscore.Hbonds>
donor molecule, donor type, donor heavy atom, donor atom, acceptor molecule, acceptor atom, score
      L1  H     8    27       P1  8028  0.91
      L1  H    11    28       P1  8028  0.72
      L1  H    16    35       P1  7948  1.00

> <Gold.PLP.Chemscore.Internal.Correction>
0.0032

> <Gold.Rescore>
     Score         DG    S(hbond)    S(metal)    S(lipo)     H(rot)  DE(clash)    DE(int)     intcor
     18.79     -23.08       2.59        0.00     107.64       1.42       1.36       2.93       ----

> <Gold.Chemscore.Fitness>
18.7911

> <Gold.Chemscore.DG>
-23.0834

> <Gold.Chemscore.ZeroCoef>
-5.4800

> <Gold.Chemscore.Hbond>
2.5893

> <Gold.Chemscore.Metal>
0.0000

> <Gold.Chemscore.Lipo>
107.6385

> <Gold.Chemscore.Internal_Hbond>
0.0000

> <Gold.Chemscore.DEClash>
1.3625

> <Gold.Chemscore.DEInternal>
2.9298

> <Gold.Chemscore.Rot>
1.4213

> <Gold.Chemscore.Internal.Correction>
   9.000000E+99

> <Gold.Chemscore.Hbonds>
donor molecule, donor type, donor heavy atom, donor atom, acceptor molecule, acceptor atom, score
      L1  H     8    27       P1  8028  0.87
      L1  H    11    28       P1  8028  0.69
      L1  H    16    35       P1  7948  1.00

> <Gold.Chemscore.Hbond.Weighted>
-8.6483

> <Gold.Chemscore.Metal.Weighted>
-0.0000

> <Gold.Chemscore.Lipo.Weighted>
-12.5937

> <Gold.Chemscore.Internal_Hbond.Weighted>
0.0000

> <Gold.Chemscore.DEClash.Weighted>
1.3625

> <Gold.Chemscore.DEInternal.Weighted>
2.9298

> <Gold.Chemscore.Rot.Weighted>
3.6386

> <Gold.Chemscore.Internal.Correction.Weighted>
   9.000000E+99

> <Gold.Protein.RotatedTorsions>
[ 6907 6896 6895 6894 ] final  -59.22 input  -60.11 | X-H torsion
[ 7974 7965 7964 7962 ] final -117.00 input  175.53 | X-H torsion
[ 8008 7997 7996 7995 ] final  108.07 input   59.86 | X-H torsion
[ 10167 10162 10161 10158 ] final -147.33 input  -65.29 | X-H torsion
[ 10718 10713 10712 10709 ] final  -37.61 input   66.30 | X-H torsion
[ 10763 10752 10751 10750 ] final -107.50 input  -60.55 | X-H torsion
[ 11005 11000 10999 10996 ] final -106.07 input  -57.11 | X-H torsion

> <Gold.Protein.ActiveResidues>
 VAL166  LYS551  ARG553  GLY616  TRP617  ASP618  TYR619  PRO620  LYS621  CYS622 
 ASP623  PHE694  ASN695  SER759  ASP760  ASP761  ALA762  ILE779  LEU786  VAL792 
 PHE793  MET794  SER795  GLU796  ALA797  LYS798  CYS799  TRP800  GLU811  SER814 

> <Gold.Protein.RotatedAtoms>
  150.7947  134.6997  159.6542 H   0  0  0  0  0  0  0  0  0  0  0  0  # atno 6907 bound_to 6896
  152.4058  134.6207  160.0059 H   0  0  0  0  0  0  0  0  0  0  0  0  # atno 6908 bound_to 6896
  151.6464  133.3286  159.3178 H   0  0  0  0  0  0  0  0  0  0  0  0  # atno 6909 bound_to 6896
  145.0903  140.8485  143.3986 H   0  0  0  0  0  0  0  0  0  0  0  0  # atno 7974 bound_to 7965
  156.1874  140.3083  155.9266 H   0  0  0  0  0  0  0  0  0  0  0  0  # atno 8008 bound_to 7997
  155.3249  140.0458  157.3057 H   0  0  0  0  0  0  0  0  0  0  0  0  # atno 8009 bound_to 7997
  154.5412  140.2262  155.8648 H   0  0  0  0  0  0  0  0  0  0  0  0  # atno 8010 bound_to 7997
  139.7632  143.8346  152.2611 H   0  0  0  0  0  0  0  0  0  0  0  0  # atno 10167 bound_to 10162
  156.3132  130.4255  149.8030 H   0  0  0  0  0  0  0  0  0  0  0  0  # atno 10718 bound_to 10713
  154.8079  135.4672  154.0439 H   0  0  0  0  0  0  0  0  0  0  0  0  # atno 10763 bound_to 10752
  153.1894  135.6853  153.8380 H   0  0  0  0  0  0  0  0  0  0  0  0  # atno 10764 bound_to 10752
  153.7903  135.3244  155.3355 H   0  0  0  0  0  0  0  0  0  0  0  0  # atno 10765 bound_to 10752
  141.1022  133.8862  157.1812 H   0  0  0  0  0  0  0  0  0  0  0  0  # atno 11005 bound_to 11000
  145.1074  139.2781  143.5655 LP  0  0  0  0  0  0  0  0  0  0  0  0  # atno 17320 bound_to 7965
  146.3531  140.0659  142.8626 LP  0  0  0  0  0  0  0  0  0  0  0  0  # atno 17321 bound_to 7965
  139.8359  144.7232  150.9392 LP  0  0  0  0  0  0  0  0  0  0  0  0  # atno 17342 bound_to 10162
  140.7809  143.4027  151.1121 LP  0  0  0  0  0  0  0  0  0  0  0  0  # atno 17343 bound_to 10162
  156.5366  130.8281  151.3255 LP  0  0  0  0  0  0  0  0  0  0  0  0  # atno 17370 bound_to 10713
  157.7396  130.9834  150.2321 LP  0  0  0  0  0  0  0  0  0  0  0  0  # atno 17371 bound_to 10713
  139.9878  135.0075  156.9904 LP  0  0  0  0  0  0  0  0  0  0  0  0  # atno 17394 bound_to 11000
  140.4992  134.1114  155.7247 LP  0  0  0  0  0  0  0  0  0  0  0  0  # atno 17395 bound_to 11000

$$$$
