AV-unprocessed.smi:1188|AV-procd|sdf|4977|dock5
  -GOLD-   22720 3573D 1   1.00000     0.00000
 Structure written by MMmdl.
 48 49  0  0  0  0  0  0  0  0  1 V2000
  145.5973  134.4854  150.3307 C   0  0  0  0  0  0  0  0  0  0  0  0
  146.1877  133.6306  150.9724 C   0  0  0  0  0  0  0  0  0  0  0  0
  146.9011  132.5924  151.7309 C   0  0  0  0  0  0  0  0  0  0  0  0
  147.6860  133.1620  152.8156 N   0  0  0  0  0  0  0  0  0  0  0  0
  148.5506  132.4730  153.5805 C   0  0  0  0  0  0  0  0  0  0  0  0
  148.7423  131.2680  153.4118 O   0  0  0  0  0  0  0  0  0  0  0  0
  149.2235  133.2791  154.6032 C   0  0  0  0  0  0  0  0  0  0  0  0
  150.0827  132.6219  155.5689 C   0  0  0  0  0  0  0  0  0  0  0  0
  150.7281  133.3324  156.5144 C   0  0  0  0  0  0  0  0  0  0  0  0
  150.5893  134.7879  156.6125 C   0  0  0  0  0  0  0  0  0  0  0  0
  151.1811  135.4445  157.4700 O   0  0  0  0  0  0  0  0  0  0  0  0
  149.7604  135.3691  155.6928 N   0  0  0  0  0  0  0  0  0  0  0  0
  149.5389  136.8250  155.6968 C   0  0  0  0  0  0  0  0  0  0  0  0
  150.8434  137.6343  155.6785 C   0  0  0  0  0  0  0  0  0  0  0  0
  151.8996  137.1189  155.3100 O   0  0  0  0  0  0  0  0  0  0  0  0
  150.7461  138.9156  156.0641 N   0  0  0  0  0  0  0  0  0  0  0  0
  151.8546  139.8611  156.1207 C   0  0  0  0  0  0  0  0  0  0  0  0
  151.3617  141.3175  156.0463 C   0  0  0  0  0  0  0  0  0  0  0  0
  151.7527  142.1340  157.2672 C   0  0  0  0  0  0  0  0  0  0  0  0
  151.5964  143.4716  157.3106 C   0  0  0  0  0  0  0  0  0  0  0  0
  151.9839  144.3384  158.4961 C   0  0  0  0  0  0  0  0  0  0  0  0
  152.8825  143.5932  159.4974 C   0  0  0  0  0  0  0  0  0  0  0  0
  152.3713  142.1685  159.7452 C   0  0  0  0  0  0  0  0  0  0  0  0
  152.3328  141.3522  158.4408 C   0  0  0  0  0  0  0  0  0  0  0  0
  149.0943  134.6209  154.7014 C   0  0  0  0  0  0  0  0  0  0  0  0
  145.0788  135.2299  149.7692 H   0  0  0  0  0  0  0  0  0  0  0  0
  146.1665  131.8904  152.1274 H   0  0  0  0  0  0  0  0  0  0  0  0
  147.5471  132.0495  151.0394 H   0  0  0  0  0  0  0  0  0  0  0  0
  147.5702  134.1483  152.9969 H   0  0  0  0  0  0  0  0  0  0  0  0
  150.2190  131.5504  155.5398 H   0  0  0  0  0  0  0  0  0  0  0  0
  151.3641  132.8176  157.2195 H   0  0  0  0  0  0  0  0  0  0  0  0
  148.9419  137.1254  154.8347 H   0  0  0  0  0  0  0  0  0  0  0  0
  148.9439  137.1110  156.5665 H   0  0  0  0  0  0  0  0  0  0  0  0
  149.8389  139.2593  156.3439 H   0  0  0  0  0  0  0  0  0  0  0  0
  152.4377  139.6914  157.0272 H   0  0  0  0  0  0  0  0  0  0  0  0
  152.5170  139.6516  155.2802 H   0  0  0  0  0  0  0  0  0  0  0  0
  151.7661  141.7921  155.1509 H   0  0  0  0  0  0  0  0  0  0  0  0
  150.2761  141.3470  155.9444 H   0  0  0  0  0  0  0  0  0  0  0  0
  151.1630  143.9901  156.4677 H   0  0  0  0  0  0  0  0  0  0  0  0
  152.4916  145.2337  158.1365 H   0  0  0  0  0  0  0  0  0  0  0  0
  151.0670  144.6680  158.9857 H   0  0  0  0  0  0  0  0  0  0  0  0
  153.9004  143.5456  159.1080 H   0  0  0  0  0  0  0  0  0  0  0  0
  152.9363  144.1472  160.4350 H   0  0  0  0  0  0  0  0  0  0  0  0
  152.9971  141.6633  160.4816 H   0  0  0  0  0  0  0  0  0  0  0  0
  151.3695  142.2173  160.1737 H   0  0  0  0  0  0  0  0  0  0  0  0
  151.7511  140.4430  158.5976 H   0  0  0  0  0  0  0  0  0  0  0  0
  153.3430  141.0390  158.1757 H   0  0  0  0  0  0  0  0  0  0  0  0
  148.4893  135.2214  154.0374 H   0  0  0  0  0  0  0  0  0  0  0  0
  1  2  3  0  0  0  0
  1 26  1  0  0  0  0
  2  3  1  0  0  0  0
  3  4  1  0  0  0  0
  3 27  1  0  0  0  0
  3 28  1  0  0  0  0
  4  5  1  0  0  0  0
  4 29  1  0  0  0  0
  5  6  2  0  0  0  0
  5  7  1  0  0  0  0
  7 25  2  0  0  0  0
  7  8  1  0  0  0  0
  8  9  2  0  0  0  0
  8 30  1  0  0  0  0
  9 10  1  0  0  0  0
  9 31  1  0  0  0  0
 10 11  2  0  0  0  0
 10 12  1  0  0  0  0
 12 13  1  0  0  0  0
 12 25  1  0  0  0  0
 13 14  1  0  0  0  0
 13 32  1  0  0  0  0
 13 33  1  0  0  0  0
 14 15  2  0  0  0  0
 14 16  1  0  0  0  0
 16 17  1  0  0  0  0
 16 34  1  0  0  0  0
 17 18  1  0  0  0  0
 17 35  1  0  0  0  0
 17 36  1  0  0  0  0
 18 19  1  0  0  0  0
 18 37  1  0  0  0  0
 18 38  1  0  0  0  0
 19 24  1  0  0  0  0
 19 20  2  0  0  0  0
 20 21  1  0  0  0  0
 20 39  1  0  0  0  0
 21 22  1  0  0  0  0
 21 40  1  0  0  0  0
 21 41  1  0  0  0  0
 22 23  1  0  0  0  0
 22 42  1  0  0  0  0
 22 43  1  0  0  0  0
 23 24  1  0  0  0  0
 23 44  1  0  0  0  0
 23 45  1  0  0  0  0
 24 46  1  0  0  0  0
 24 47  1  0  0  0  0
 25 48  1  0  0  0  0
M  END
> <s_m_source_file>
AV-unprocessed.smi

> <i_m_source_file_index>
1188

> <i_lp_mmshare_version>
43012

> <i_f3d_flags>
0

> <s_epik_input>
W0NIXSNDW0NIMl1bTkhdQyg9TyljMVtjSF1bY0hdYyg9TyluKFtjSF0xKVtDSDJdQyg9TylbTkhdW0NIMl1bQ0gyXUMyPVtDSF1bQ0gyXVtDSDJdW0NIMl1bQ0gyXTI=

> <s_epik_cmdline>
J2VwaWtfcHl0aG9uJywgJy1waCcsICc3LjAnLCAnLXRuJywgJzgnLCAnLW1hJywgJzIwMCcsICctbWV0YWxfYmluZGluZycsICctaW1hZScsICc8aW5maWxlLm1hZT4nLCAnLW9tYWUnLCAnPG91dGZpbGUubWFlPic=

> <r_lp_tautomer_probability>
1

> <r_epik_Ionization_Penalty>
3.04448e-06

> <r_epik_Ionization_Penalty_Charging>
4.20752e-08

> <r_epik_Ionization_Penalty_Neutral>
3.00241e-06

> <r_epik_State_Penalty>
-0

> <r_epik_Charging_Adjusted_Penalty>
4.20752e-08

> <i_epik_Tot_Q>
0

> <i_epik_Tot_abs_Q>
0

> <r_epik_Metal_State_Penalty>
-0

> <b_epik_Metal_Only>
0

> <s_lp_Force_Field>
OPLS_2005

> <r_lp_Energy>
18.5418

> <b_lp_Chiralities_Consistent>
1

> <s_lp_Variant>
AV-unprocessed.smi:1188-1

> <Gold.Version>
5.8.1

> <Gold.Id.Protein>
6NUR|6NUR_protein|mol2

> <Gold.PLP.Fitness>
50.8700

> <Gold.PLP.PLP>
-47.3302

> <Gold.PLP.part.hbond>
-2.0000

> <Gold.PLP.part.metal>
0.0000

> <Gold.PLP.part.buried>
-5.3972

> <Gold.PLP.part.nonpolar>
-39.4814

> <Gold.PLP.part.repulsive>
1.3874

> <Gold.PLP.ligand.clash>
0.0000

> <Gold.PLP.ligand.torsion>
0.9954

> <Gold.PLP.Chemscore.Hbond>
0.9760

> <Gold.PLP.Chemscore.CHOScore>
0.8108

> <Gold.PLP.Chemscore.Metal>
0.0000

> <Gold.Chemscore.Hbonds>
donor molecule, donor type, donor heavy atom, donor atom, acceptor molecule, acceptor atom, score
      P1  H 10752 10763       L1    15  0.98
      L1  C    25    48       P1  7948  1.00

> <Gold.PLP.Chemscore.Internal.Correction>
0.1702

> <Gold.Rescore>
     Score         DG    S(hbond)    S(metal)    S(lipo)     H(rot)  DE(clash)    DE(int)     intcor
     12.56     -17.10       0.83        0.00     118.72       1.97       0.01       4.53       ----

> <Gold.Chemscore.Fitness>
12.5608

> <Gold.Chemscore.DG>
-17.1031

> <Gold.Chemscore.ZeroCoef>
-5.4800

> <Gold.Chemscore.Hbond>
0.8308

> <Gold.Chemscore.Metal>
0.0000

> <Gold.Chemscore.Lipo>
118.7168

> <Gold.Chemscore.Internal_Hbond>
0.0000

> <Gold.Chemscore.DEClash>
0.0115

> <Gold.Chemscore.DEInternal>
4.5308

> <Gold.Chemscore.Rot>
1.9694

> <Gold.Chemscore.Internal.Correction>
   9.000000E+99

> <Gold.Chemscore.Hbonds>
donor molecule, donor type, donor heavy atom, donor atom, acceptor molecule, acceptor atom, score
      P1  H 10752 10763       L1    15  0.90

> <Gold.Chemscore.Hbond.Weighted>
-2.7749

> <Gold.Chemscore.Metal.Weighted>
-0.0000

> <Gold.Chemscore.Lipo.Weighted>
-13.8899

> <Gold.Chemscore.Internal_Hbond.Weighted>
0.0000

> <Gold.Chemscore.DEClash.Weighted>
0.0115

> <Gold.Chemscore.DEInternal.Weighted>
4.5308

> <Gold.Chemscore.Rot.Weighted>
5.0416

> <Gold.Chemscore.Internal.Correction.Weighted>
   9.000000E+99

> <Gold.Protein.RotatedTorsions>
[ 6907 6896 6895 6894 ] final -114.72 input  -60.11 | X-H torsion
[ 7974 7965 7964 7962 ] final -148.63 input  175.53 | X-H torsion
[ 8008 7997 7996 7995 ] final  -95.87 input   59.86 | X-H torsion
[ 10167 10162 10161 10158 ] final   41.58 input  -65.29 | X-H torsion
[ 10718 10713 10712 10709 ] final  -72.47 input   66.30 | X-H torsion
[ 10763 10752 10751 10750 ] final   58.13 input  -60.55 | X-H torsion
[ 11005 11000 10999 10996 ] final   58.06 input  -57.11 | X-H torsion

> <Gold.Protein.ActiveResidues>
 VAL166  LYS551  ARG553  GLY616  TRP617  ASP618  TYR619  PRO620  LYS621  CYS622 
 ASP623  PHE694  ASN695  SER759  ASP760  ASP761  ALA762  ILE779  LEU786  VAL792 
 PHE793  MET794  SER795  GLU796  ALA797  LYS798  CYS799  TRP800  GLU811  SER814 

> <Gold.Protein.RotatedAtoms>
  150.7923  133.8760  159.3272 H   0  0  0  0  0  0  0  0  0  0  0  0  # atno 6907 bound_to 6896
  151.6595  135.0989  160.0186 H   0  0  0  0  0  0  0  0  0  0  0  0  # atno 6908 bound_to 6896
  152.4000  133.6764  159.6343 H   0  0  0  0  0  0  0  0  0  0  0  0  # atno 6909 bound_to 6896
  144.8018  140.5172  143.5702 H   0  0  0  0  0  0  0  0  0  0  0  0  # atno 7974 bound_to 7965
  154.7670  140.0476  157.1020 H   0  0  0  0  0  0  0  0  0  0  0  0  # atno 8008 bound_to 7997
  154.9867  140.3108  155.4904 H   0  0  0  0  0  0  0  0  0  0  0  0  # atno 8009 bound_to 7997
  156.2914  140.2226  156.4969 H   0  0  0  0  0  0  0  0  0  0  0  0  # atno 8010 bound_to 7997
  140.3629  144.2205  150.6137 H   0  0  0  0  0  0  0  0  0  0  0  0  # atno 10167 bound_to 10162
  156.0319  130.4373  150.2598 H   0  0  0  0  0  0  0  0  0  0  0  0  # atno 10718 bound_to 10713
  152.9864  135.5617  154.5503 H   0  0  0  0  0  0  0  0  0  0  0  0  # atno 10763 bound_to 10752
  154.4941  135.2794  155.1475 H   0  0  0  0  0  0  0  0  0  0  0  0  # atno 10764 bound_to 10752
  154.2932  135.6322  153.5447 H   0  0  0  0  0  0  0  0  0  0  0  0  # atno 10765 bound_to 10752
  140.0406  134.5879  155.9387 H   0  0  0  0  0  0  0  0  0  0  0  0  # atno 11005 bound_to 11000
  145.5536  139.1477  143.3381 LP  0  0  0  0  0  0  0  0  0  0  0  0  # atno 17320 bound_to 7965
  146.2300  140.5673  142.8979 LP  0  0  0  0  0  0  0  0  0  0  0  0  # atno 17321 bound_to 7965
  140.5109  143.2291  151.8536 LP  0  0  0  0  0  0  0  0  0  0  0  0  # atno 17342 bound_to 10162
  139.4812  144.4950  151.9135 LP  0  0  0  0  0  0  0  0  0  0  0  0  # atno 17343 bound_to 10162
  157.0700  131.0114  151.3193 LP  0  0  0  0  0  0  0  0  0  0  0  0  # atno 17370 bound_to 10713
  157.5007  130.7878  149.7601 LP  0  0  0  0  0  0  0  0  0  0  0  0  # atno 17371 bound_to 10713
  141.1881  133.6561  156.5309 LP  0  0  0  0  0  0  0  0  0  0  0  0  # atno 17394 bound_to 11000
  140.4076  134.7301  157.4817 LP  0  0  0  0  0  0  0  0  0  0  0  0  # atno 17395 bound_to 11000

$$$$
