AV-unprocessed.smi:104|AV-procd|sdf|1005|dock4
  -GOLD-   2262017593D 1   1.00000     0.00000
 Structure written by MMmdl.
 47 49  0  0  0  0  0  0  0  0  1 V2000
  147.3172  140.8477  153.4644 C   0  0  0  0  0  0  0  0  0  0  0  0
  148.5930  140.9565  154.2889 C   0  0  0  0  0  0  0  0  0  0  0  0
  149.7012  140.9799  153.7545 O   0  0  0  0  0  0  0  0  0  0  0  0
  148.3452  141.0203  155.6085 O   0  0  0  0  0  0  0  0  0  0  0  0
  149.4049  141.1932  156.5399 C   0  0  0  0  0  0  0  0  0  0  0  0
  149.8758  139.8350  157.0898 C   0  0  2  0  0  0  0  0  0  0  0  0
  149.0215  139.3742  158.1358 O   0  0  0  0  0  0  0  0  0  0  0  0
  149.7557  138.5843  159.0246 C   0  0  1  0  0  0  0  0  0  0  0  0
  149.1390  137.2268  159.1287 N   0  0  0  0  0  0  0  0  0  0  0  0
  149.0717  136.2413  158.1707 C   0  0  0  0  0  0  0  0  0  0  0  0
  149.7972  136.4702  156.4247 Br  0  0  0  0  0  0  0  0  0  0  0  0
  148.4674  135.1331  158.4959 N   0  0  0  0  0  0  0  0  0  0  0  0
  148.0639  135.3779  159.8024 C   0  0  0  0  0  0  0  0  0  0  0  0
  147.3542  134.6237  160.7706 C   0  0  0  0  0  0  0  0  0  0  0  0
  146.9056  133.3811  160.5450 N   0  0  0  0  0  0  0  0  0  0  0  0
  147.1144  135.1838  161.9791 N   0  0  0  0  0  0  0  0  0  0  0  0
  147.5483  136.4230  162.2288 C   0  0  0  0  0  0  0  0  0  0  0  0
  148.2250  137.2487  161.4263 N   0  0  0  0  0  0  0  0  0  0  0  0
  148.4705  136.6833  160.2082 C   0  0  0  0  0  0  0  0  0  0  0  0
  151.1773  138.4779  158.4772 C   0  0  2  0  0  0  0  0  0  0  0  0
  152.1208  138.3506  159.5328 O   0  0  0  0  0  0  0  0  0  0  0  0
  152.9152  137.2711  159.6004 C   0  0  0  0  0  0  0  0  0  0  0  0
  153.9091  137.3562  160.7506 C   0  0  0  0  0  0  0  0  0  0  0  0
  152.8890  136.3024  158.8415 O   0  0  0  0  0  0  0  0  0  0  0  0
  151.2885  139.7716  157.6819 C   0  0  2  0  0  0  0  0  0  0  0  0
  151.5059  140.8991  158.5291 O   0  0  0  0  0  0  0  0  0  0  0  0
  152.7284  141.1566  159.0290 C   0  0  0  0  0  0  0  0  0  0  0  0
  152.7560  142.4297  159.8630 C   0  0  0  0  0  0  0  0  0  0  0  0
  153.7392  140.4743  158.8627 O   0  0  0  0  0  0  0  0  0  0  0  0
  146.9388  139.8259  153.4897 H   0  0  0  0  0  0  0  0  0  0  0  0
  147.5091  141.1203  152.4263 H   0  0  0  0  0  0  0  0  0  0  0  0
  146.5488  141.5127  153.8586 H   0  0  0  0  0  0  0  0  0  0  0  0
  150.2289  141.7815  156.1344 H   0  0  0  0  0  0  0  0  0  0  0  0
  148.9960  141.7777  157.3642 H   0  0  0  0  0  0  0  0  0  0  0  0
  149.8049  139.0972  156.2895 H   0  0  0  0  0  0  0  0  0  0  0  0
  149.6976  139.0202  160.0219 H   0  0  0  0  0  0  0  0  0  0  0  0
  147.0694  132.9415  159.6507 H   0  0  0  0  0  0  0  0  0  0  0  0
  146.4052  132.8868  161.2695 H   0  0  0  0  0  0  0  0  0  0  0  0
  147.3213  136.8084  163.2120 H   0  0  0  0  0  0  0  0  0  0  0  0
  151.2156  137.6256  157.7959 H   0  0  0  0  0  0  0  0  0  0  0  0
  153.3817  137.4323  161.7016 H   0  0  0  0  0  0  0  0  0  0  0  0
  154.5457  138.2336  160.6352 H   0  0  0  0  0  0  0  0  0  0  0  0
  154.5433  136.4700  160.7760 H   0  0  0  0  0  0  0  0  0  0  0  0
  152.0424  139.7099  156.8956 H   0  0  0  0  0  0  0  0  0  0  0  0
  152.0596  142.3508  160.6978 H   0  0  0  0  0  0  0  0  0  0  0  0
  152.4723  143.2871  159.2524 H   0  0  0  0  0  0  0  0  0  0  0  0
  153.7557  142.6047  160.2618 H   0  0  0  0  0  0  0  0  0  0  0  0
  1  2  1  0  0  0  0
  1 30  1  0  0  0  0
  1 31  1  0  0  0  0
  1 32  1  0  0  0  0
  2  3  2  0  0  0  0
  2  4  1  0  0  0  0
  4  5  1  0  0  0  0
  5  6  1  0  0  0  0
  5 33  1  0  0  0  0
  5 34  1  0  0  0  0
  6 25  1  0  0  0  0
  6  7  1  0  0  0  0
  6 35  1  0  0  0  0
  7  8  1  0  0  0  0
  8  9  1  0  0  0  0
  8 20  1  0  0  0  0
  8 36  1  0  0  0  0
  9 19  1  0  0  0  0
  9 10  1  0  0  0  0
 10 11  1  0  0  0  0
 10 12  2  0  0  0  0
 12 13  1  0  0  0  0
 13 19  2  0  0  0  0
 13 14  1  0  0  0  0
 14 15  1  0  0  0  0
 14 16  2  0  0  0  0
 15 37  1  0  0  0  0
 15 38  1  0  0  0  0
 16 17  1  0  0  0  0
 17 18  2  0  0  0  0
 17 39  1  0  0  0  0
 18 19  1  0  0  0  0
 20 21  1  0  0  0  0
 20 25  1  0  0  0  0
 20 40  1  0  0  0  0
 21 22  1  0  0  0  0
 22 23  1  0  0  0  0
 22 24  2  0  0  0  0
 23 41  1  0  0  0  0
 23 42  1  0  0  0  0
 23 43  1  0  0  0  0
 25 26  1  0  0  0  0
 25 44  1  0  0  0  0
 26 27  1  0  0  0  0
 27 28  1  0  0  0  0
 27 29  2  0  0  0  0
 28 45  1  0  0  0  0
 28 46  1  0  0  0  0
 28 47  1  0  0  0  0
M  END
> <s_m_source_file>
AV-unprocessed.smi

> <i_m_source_file_index>
104

> <i_lp_mmshare_version>
43012

> <i_f3d_flags>
0

> <s_epik_input>
W0NIM11DKD1PKU9bQ0gyXVtDQEBIXTFPW0NASF0oW0NAQEhdKE9DKD1PKVtDSDNdKVtDQEhdMU9DKD1PKVtDSDNdKW4oYyhCciluMiljKGMyMyluW2NIXW5jM1tOSDJd

> <s_epik_cmdline>
J2VwaWtfcHl0aG9uJywgJy1waCcsICc3LjAnLCAnLXRuJywgJzgnLCAnLW1hJywgJzIwMCcsICctbWV0YWxfYmluZGluZycsICctaW1hZScsICc8aW5maWxlLm1hZT4nLCAnLW9tYWUnLCAnPG91dGZpbGUubWFlPic=

> <r_lp_tautomer_probability>
1

> <r_epik_Ionization_Penalty>
7.36622e-05

> <r_epik_Ionization_Penalty_Charging>
0

> <r_epik_Ionization_Penalty_Neutral>
7.36622e-05

> <r_epik_State_Penalty>
-0

> <r_epik_Charging_Adjusted_Penalty>
0

> <i_epik_Tot_Q>
0

> <i_epik_Tot_abs_Q>
0

> <r_epik_Metal_State_Penalty>
-0

> <b_epik_Metal_Only>
0

> <s_epik_Chemistry_Notes>
This compound has an ester and may undergo hydrolysis at high or low pH. This compound contains an acetal/aminal-like group ( X-CH(R)-Y where X, Y are N, S, or O) that may be acid/base labile, releasing an aldehyde.

> <s_lp_Force_Field>
OPLS_2005

> <r_lp_Energy>
18.0917

> <b_lp_Chiralities_Consistent>
1

> <s_lp_Variant>
AV-unprocessed.smi:104-13

> <Gold.Version>
5.8.1

> <Gold.Id.Protein>
6NUR|6NUR_protein|mol2

> <Gold.PLP.Fitness>
44.3968

> <Gold.PLP.PLP>
-36.0385

> <Gold.PLP.part.hbond>
-5.5633

> <Gold.PLP.part.metal>
0.0000

> <Gold.PLP.part.buried>
-4.5324

> <Gold.PLP.part.nonpolar>
-27.9958

> <Gold.PLP.part.repulsive>
2.2693

> <Gold.PLP.ligand.clash>
0.0000

> <Gold.PLP.ligand.torsion>
1.4948

> <Gold.PLP.Chemscore.Hbond>
3.6786

> <Gold.PLP.Chemscore.CHOScore>
0.0000

> <Gold.PLP.Chemscore.Metal>
0.0000

> <Gold.Chemscore.Hbonds>
donor molecule, donor type, donor heavy atom, donor atom, acceptor molecule, acceptor atom, score
      P1  H  6896  6908       L1    24  0.59
      P1  H  6931  6943       L1    18  0.60
      P1  H  6934  6947       L1    18  0.44
      P1  H  7989  7998       L1     3  0.37
      P1  H  7997  8008       L1    29  0.78
      P1  H  8011  8017       L1     3  0.96

> <Gold.PLP.Chemscore.Internal.Correction>
0.3122

> <Gold.Rescore>
     Score         DG    S(hbond)    S(metal)    S(lipo)     H(rot)  DE(clash)    DE(int)     intcor
      6.19     -10.05       3.09        0.00      45.15       4.31       2.08       1.77       ----

> <Gold.Chemscore.Fitness>
6.1939

> <Gold.Chemscore.DG>
-10.0461

> <Gold.Chemscore.ZeroCoef>
-5.4800

> <Gold.Chemscore.Hbond>
3.0865

> <Gold.Chemscore.Metal>
0.0000

> <Gold.Chemscore.Lipo>
45.1545

> <Gold.Chemscore.Internal_Hbond>
0.0000

> <Gold.Chemscore.DEClash>
2.0840

> <Gold.Chemscore.DEInternal>
1.7683

> <Gold.Chemscore.Rot>
4.3070

> <Gold.Chemscore.Internal.Correction>
   9.000000E+99

> <Gold.Chemscore.Hbonds>
donor molecule, donor type, donor heavy atom, donor atom, acceptor molecule, acceptor atom, score
      P1  H  6896  6908       L1    24  0.31
      P1  H  6931  6943       L1    18  0.58
      P1  H  6934  6947       L1    18  0.18
      P1  H  7989  7998       L1     3  0.36
      P1  H  7997  8008       L1    29  0.74
      P1  H  8011  8017       L1     3  0.72

> <Gold.Chemscore.Hbond.Weighted>
-10.3089

> <Gold.Chemscore.Metal.Weighted>
-0.0000

> <Gold.Chemscore.Lipo.Weighted>
-5.2831

> <Gold.Chemscore.Internal_Hbond.Weighted>
0.0000

> <Gold.Chemscore.DEClash.Weighted>
2.0840

> <Gold.Chemscore.DEInternal.Weighted>
1.7683

> <Gold.Chemscore.Rot.Weighted>
11.0259

> <Gold.Chemscore.Internal.Correction.Weighted>
   9.000000E+99

> <Gold.Protein.RotatedTorsions>
[ 6907 6896 6895 6894 ] final  -64.22 input  -60.11 | X-H torsion
[ 7974 7965 7964 7962 ] final  -45.29 input  175.53 | X-H torsion
[ 8008 7997 7996 7995 ] final -103.49 input   59.86 | X-H torsion
[ 10167 10162 10161 10158 ] final   99.02 input  -65.29 | X-H torsion
[ 10718 10713 10712 10709 ] final  -43.11 input   66.30 | X-H torsion
[ 10763 10752 10751 10750 ] final  100.45 input  -60.55 | X-H torsion
[ 11005 11000 10999 10996 ] final -173.92 input  -57.11 | X-H torsion

> <Gold.Protein.ActiveResidues>
 VAL166  LYS551  ARG553  GLY616  TRP617  ASP618  TYR619  PRO620  LYS621  CYS622 
 ASP623  PHE694  ASN695  SER759  ASP760  ASP761  ALA762  ILE779  LEU786  VAL792 
 PHE793  MET794  SER795  GLU796  ALA797  LYS798  CYS799  TRP800  GLU811  SER814 

> <Gold.Protein.RotatedAtoms>
  150.7599  134.6328  159.6195 H   0  0  0  0  0  0  0  0  0  0  0  0  # atno 6907 bound_to 6896
  152.3600  134.6882  160.0219 H   0  0  0  0  0  0  0  0  0  0  0  0  # atno 6908 bound_to 6896
  151.7275  133.3280  159.3368 H   0  0  0  0  0  0  0  0  0  0  0  0  # atno 6909 bound_to 6896
  145.9835  140.7258  142.9352 H   0  0  0  0  0  0  0  0  0  0  0  0  # atno 7974 bound_to 7965
  154.8716  140.0422  157.1728 H   0  0  0  0  0  0  0  0  0  0  0  0  # atno 8008 bound_to 7997
  154.8733  140.2961  155.5447 H   0  0  0  0  0  0  0  0  0  0  0  0  # atno 8009 bound_to 7997
  156.2999  140.2425  156.3725 H   0  0  0  0  0  0  0  0  0  0  0  0  # atno 8010 bound_to 7997
  139.7655  144.6940  151.0230 H   0  0  0  0  0  0  0  0  0  0  0  0  # atno 10167 bound_to 10162
  156.2525  130.4189  149.8634 H   0  0  0  0  0  0  0  0  0  0  0  0  # atno 10718 bound_to 10713
  153.3142  135.4078  155.1361 H   0  0  0  0  0  0  0  0  0  0  0  0  # atno 10763 bound_to 10752
  154.8584  135.3572  154.5683 H   0  0  0  0  0  0  0  0  0  0  0  0  # atno 10764 bound_to 10752
  153.6113  135.7067  153.5404 H   0  0  0  0  0  0  0  0  0  0  0  0  # atno 10765 bound_to 10752
  140.4803  134.6081  157.4917 H   0  0  0  0  0  0  0  0  0  0  0  0  # atno 11005 bound_to 11000
  144.6868  140.2948  143.7272 LP  0  0  0  0  0  0  0  0  0  0  0  0  # atno 17320 bound_to 7965
  145.7735  139.1865  143.2199 LP  0  0  0  0  0  0  0  0  0  0  0  0  # atno 17321 bound_to 7965
  140.7810  143.4647  151.0228 LP  0  0  0  0  0  0  0  0  0  0  0  0  # atno 17342 bound_to 10162
  139.8333  143.7662  152.3180 LP  0  0  0  0  0  0  0  0  0  0  0  0  # atno 17343 bound_to 10162
  156.6177  130.8613  151.3468 LP  0  0  0  0  0  0  0  0  0  0  0  0  # atno 17370 bound_to 10713
  157.7220  130.9571  150.1476 LP  0  0  0  0  0  0  0  0  0  0  0  0  # atno 17371 bound_to 10713
  139.9830  134.7106  155.9824 LP  0  0  0  0  0  0  0  0  0  0  0  0  # atno 17394 bound_to 11000
  141.1534  133.6545  156.4085 LP  0  0  0  0  0  0  0  0  0  0  0  0  # atno 17395 bound_to 11000

$$$$
