AV-unprocessed.smi:3237|AV-procd|sdf|12372|dock9
  -GOLD-   2272018233D 1   1.00000     0.00000
 Structure written by MMmdl.
 36 38  0  0  0  0  0  0  0  0  3 V2000
  149.0770  141.4496  155.0494 C   0  0  0  0  0  0  0  0  0  0  0  0
  149.7275  140.1329  154.7968 C   0  0  0  0  0  0  0  0  0  0  0  0
  149.2331  138.8787  154.5733 C   0  0  0  0  0  0  0  0  0  0  0  0
  150.4069  138.0943  154.4153 C   0  0  0  0  0  0  0  0  0  0  0  0
  150.3169  136.6997  154.1638 N   0  0  0  0  0  0  0  0  0  0  0  0
  151.0378  135.6987  154.7009 C   0  0  0  0  0  0  0  0  0  0  0  0
  151.9246  135.9400  155.5282 O   0  0  0  0  0  0  0  0  0  0  0  0
  150.6659  134.4798  154.2203 N   0  5  0  0  0  0  0  0  0  0  0  0
  149.6475  133.6146  154.8283 C   0  0  1  0  0  0  0  0  0  0  0  0
  148.6118  134.4711  155.5660 C   0  0  0  0  0  0  0  0  0  0  0  0
  147.5263  134.7942  154.5262 C   0  0  0  0  0  0  0  0  0  0  0  0
  147.8190  133.9652  153.3357 N   0  3  2  0  0  0  0  0  0  0  0  0
  146.6236  133.4282  152.6517 C   0  0  0  0  0  0  0  0  0  0  0  0
  146.8363  133.1714  151.1792 C   0  0  0  0  0  0  0  0  0  0  0  0
  146.0370  134.3745  151.6320 C   0  0  0  0  0  0  0  0  0  0  0  0
  148.7978  132.9408  153.7461 C   0  0  0  0  0  0  0  0  0  0  0  0
  151.5175  138.8082  154.5273 N   0  0  0  0  0  0  0  0  0  0  0  0
  151.0878  140.1177  154.7726 O   0  0  0  0  0  0  0  0  0  0  0  0
  148.0011  141.3338  155.1812 H   0  0  0  0  0  0  0  0  0  0  0  0
  149.2448  142.1293  154.2141 H   0  0  0  0  0  0  0  0  0  0  0  0
  149.4793  141.9129  155.9503 H   0  0  0  0  0  0  0  0  0  0  0  0
  148.1982  138.5727  154.5328 H   0  0  0  0  0  0  0  0  0  0  0  0
  149.6069  136.4221  153.5024 H   0  0  0  0  0  0  0  0  0  0  0  0
  150.0834  132.8747  155.5007 H   0  0  0  0  0  0  0  0  0  0  0  0
  148.1702  133.8832  156.3717 H   0  0  0  0  0  0  0  0  0  0  0  0
  149.0367  135.3666  156.0220 H   0  0  0  0  0  0  0  0  0  0  0  0
  146.5369  134.5764  154.9321 H   0  0  0  0  0  0  0  0  0  0  0  0
  147.5419  135.8474  154.2418 H   0  0  0  0  0  0  0  0  0  0  0  0
  145.9787  132.7771  153.2393 H   0  0  0  0  0  0  0  0  0  0  0  0
  147.8260  133.3520  150.7632 H   0  0  0  0  0  0  0  0  0  0  0  0
  146.2858  132.3479  150.7286 H   0  0  0  0  0  0  0  0  0  0  0  0
  144.9600  134.3432  151.4792 H   0  0  0  0  0  0  0  0  0  0  0  0
  146.4953  135.3549  151.5157 H   0  0  0  0  0  0  0  0  0  0  0  0
  149.3784  132.5723  152.8993 H   0  0  0  0  0  0  0  0  0  0  0  0
  148.2695  132.0895  154.1790 H   0  0  0  0  0  0  0  0  0  0  0  0
  148.3096  134.5661  152.6888 H   0  0  0  0  0  0  0  0  0  0  0  0
  1  2  1  0  0  0  0
  1 19  1  0  0  0  0
  1 20  1  0  0  0  0
  1 21  1  0  0  0  0
  2 18  1  0  0  0  0
  2  3  2  0  0  0  0
  3  4  1  0  0  0  0
  3 22  1  0  0  0  0
  4  5  1  0  0  0  0
  4 17  2  0  0  0  0
  5  6  1  0  0  0  0
  5 23  1  0  0  0  0
  6  7  2  0  0  0  0
  6  8  1  0  0  0  0
  8  9  1  0  0  0  0
  9 16  1  0  0  0  0
  9 10  1  0  0  0  0
  9 24  1  0  0  0  0
 10 11  1  0  0  0  0
 10 25  1  0  0  0  0
 10 26  1  0  0  0  0
 11 12  1  0  0  0  0
 11 27  1  0  0  0  0
 11 28  1  0  0  0  0
 12 13  1  0  0  0  0
 12 16  1  0  0  0  0
 12 36  1  0  0  0  0
 13 15  1  0  0  0  0
 13 14  1  0  0  0  0
 13 29  1  0  0  0  0
 14 15  1  0  0  0  0
 14 30  1  0  0  0  0
 14 31  1  0  0  0  0
 15 32  1  0  0  0  0
 15 33  1  0  0  0  0
 16 34  1  0  0  0  0
 16 35  1  0  0  0  0
 17 18  1  0  0  0  0
M  CHG  1   8  -1
M  CHG  1  12   1
M  END
> <s_m_source_file>
AV-unprocessed.smi

> <i_m_source_file_index>
3237

> <i_lp_mmshare_version>
43012

> <i_f3d_flags>
0

> <s_epik_input>
W0NIM11jMVtjSF1jKG5vMSlbTkhdQyg9TylbTkhdW0NAQEhdMltDSDJdW0NIMl1OKFtDSDJdMilbQ0hdM1tDSDJdW0NIMl0z

> <s_epik_cmdline>
J2VwaWtfcHl0aG9uJywgJy1waCcsICc3LjAnLCAnLXRuJywgJzgnLCAnLW1hJywgJzIwMCcsICctbWV0YWxfYmluZGluZycsICctaW1hZScsICc8aW5maWxlLm1hZT4nLCAnLW9tYWUnLCAnPG91dGZpbGUubWFlPic=

> <r_epik_Ionization_Penalty>
6.76456

> <r_epik_Ionization_Penalty_Charging>
6.76456

> <r_epik_Ionization_Penalty_Neutral>
5.76722e-06

> <r_epik_State_Penalty>
6.78919

> <r_epik_Charging_Adjusted_Penalty>
13.5538

> <i_epik_Tot_Q>
0

> <i_epik_Tot_abs_Q>
2

> <r_epik_Metal_State_Penalty>
2.728

> <b_epik_Metal_Only>
1

> <s_lp_Force_Field>
OPLS_2005

> <r_lp_Energy>
30.7434

> <b_lp_Chiralities_Consistent>
1

> <s_lp_Variant>
AV-unprocessed.smi:3237-10

> <Gold.Version>
5.8.1

> <Gold.Id.Protein>
6NUR|6NUR_protein|mol2

> <Gold.PLP.Fitness>
40.8489

> <Gold.PLP.PLP>
-28.6511

> <Gold.PLP.part.hbond>
-5.0000

> <Gold.PLP.part.metal>
0.0000

> <Gold.PLP.part.buried>
-1.5185

> <Gold.PLP.part.nonpolar>
-22.4785

> <Gold.PLP.part.repulsive>
0.4523

> <Gold.PLP.ligand.clash>
0.0000

> <Gold.PLP.ligand.torsion>
2.0603

> <Gold.PLP.Chemscore.Hbond>
5.0000

> <Gold.PLP.Chemscore.CHOScore>
0.0000

> <Gold.PLP.Chemscore.Metal>
0.0000

> <Gold.Chemscore.Hbonds>
donor molecule, donor type, donor heavy atom, donor atom, acceptor molecule, acceptor atom, score
      L1  H     5    23       P1  7948  1.00
      L1  H    12    36       P1  7948  2.00
      P1  H  7989  7998       L1    18  1.00
      P1  H 10752 10764       L1     7  0.59

> <Gold.PLP.Chemscore.Internal.Correction>
1.3184

> <Gold.Rescore>
     Score         DG    S(hbond)    S(metal)    S(lipo)     H(rot)  DE(clash)    DE(int)     intcor
     15.30     -18.23       3.24        0.00      43.70       1.25       0.00       2.93       ----

> <Gold.Chemscore.Fitness>
15.2978

> <Gold.Chemscore.DG>
-18.2347

> <Gold.Chemscore.ZeroCoef>
-5.4800

> <Gold.Chemscore.Hbond>
3.2434

> <Gold.Chemscore.Metal>
0.0000

> <Gold.Chemscore.Lipo>
43.6989

> <Gold.Chemscore.Internal_Hbond>
0.0000

> <Gold.Chemscore.DEClash>
0.0036

> <Gold.Chemscore.DEInternal>
2.9334

> <Gold.Chemscore.Rot>
1.2464

> <Gold.Chemscore.Internal.Correction>
   9.000000E+99

> <Gold.Chemscore.Hbonds>
donor molecule, donor type, donor heavy atom, donor atom, acceptor molecule, acceptor atom, score
      L1  H     5    23       P1  7948  0.48
      L1  H    12    36       P1  7948  0.30
      P1  H  7989  7998       L1    18  0.23
      P1  H 10752 10764       L1     7  0.35

> <Gold.Chemscore.Hbond.Weighted>
-10.8328

> <Gold.Chemscore.Metal.Weighted>
-0.0000

> <Gold.Chemscore.Lipo.Weighted>
-5.1128

> <Gold.Chemscore.Internal_Hbond.Weighted>
0.0000

> <Gold.Chemscore.DEClash.Weighted>
0.0036

> <Gold.Chemscore.DEInternal.Weighted>
2.9334

> <Gold.Chemscore.Rot.Weighted>
3.1909

> <Gold.Chemscore.Internal.Correction.Weighted>
   9.000000E+99

> <Gold.Protein.RotatedTorsions>
[ 6907 6896 6895 6894 ] final  171.86 input  -60.11 | X-H torsion
[ 7974 7965 7964 7962 ] final  121.82 input  175.53 | X-H torsion
[ 8008 7997 7996 7995 ] final  -15.11 input   59.86 | X-H torsion
[ 10167 10162 10161 10158 ] final   35.66 input  -65.29 | X-H torsion
[ 10718 10713 10712 10709 ] final -148.49 input   66.30 | X-H torsion
[ 10763 10752 10751 10750 ] final  -32.58 input  -60.55 | X-H torsion
[ 11005 11000 10999 10996 ] final   82.36 input  -57.11 | X-H torsion

> <Gold.Protein.ActiveResidues>
 VAL166  LYS551  ARG553  GLY616  TRP617  ASP618  TYR619  PRO620  LYS621  CYS622 
 ASP623  PHE694  ASN695  SER759  ASP760  ASP761  ALA762  ILE779  LEU786  VAL792 
 PHE793  MET794  SER795  GLU796  ALA797  LYS798  CYS799  TRP800  GLU811  SER814 

> <Gold.Protein.RotatedAtoms>
  151.7934  133.3362  159.3505 H   0  0  0  0  0  0  0  0  0  0  0  0  # atno 6907 bound_to 6896
  150.7384  134.5821  159.5953 H   0  0  0  0  0  0  0  0  0  0  0  0  # atno 6908 bound_to 6896
  152.3194  134.7401  160.0369 H   0  0  0  0  0  0  0  0  0  0  0  0  # atno 6909 bound_to 6896
  145.1148  139.3428  143.4744 H   0  0  0  0  0  0  0  0  0  0  0  0  # atno 7974 bound_to 7965
  154.5156  140.2205  155.9071 H   0  0  0  0  0  0  0  0  0  0  0  0  # atno 8008 bound_to 7997
  156.1604  140.3143  155.8763 H   0  0  0  0  0  0  0  0  0  0  0  0  # atno 8009 bound_to 7997
  155.3763  140.0469  157.3035 H   0  0  0  0  0  0  0  0  0  0  0  0  # atno 8010 bound_to 7997
  140.4201  144.1472  150.6147 H   0  0  0  0  0  0  0  0  0  0  0  0  # atno 10167 bound_to 10162
  156.4209  130.8028  151.2251 H   0  0  0  0  0  0  0  0  0  0  0  0  # atno 10718 bound_to 10713
  153.8161  135.6878  153.4834 H   0  0  0  0  0  0  0  0  0  0  0  0  # atno 10763 bound_to 10752
  153.1598  135.4584  154.9754 H   0  0  0  0  0  0  0  0  0  0  0  0  # atno 10764 bound_to 10752
  154.7947  135.3314  154.7637 H   0  0  0  0  0  0  0  0  0  0  0  0  # atno 10765 bound_to 10752
  139.9066  134.8065  156.2164 H   0  0  0  0  0  0  0  0  0  0  0  0  # atno 11005 bound_to 11000
  146.3524  140.1083  142.8605 LP  0  0  0  0  0  0  0  0  0  0  0  0  # atno 17320 bound_to 7965
  145.0806  140.9218  143.4828 LP  0  0  0  0  0  0  0  0  0  0  0  0  # atno 17321 bound_to 7965
  140.4543  143.2474  151.9305 LP  0  0  0  0  0  0  0  0  0  0  0  0  # atno 17342 bound_to 10162
  139.4782  144.5531  151.8355 LP  0  0  0  0  0  0  0  0  0  0  0  0  # atno 17343 bound_to 10162
  157.7508  131.0228  150.3808 LP  0  0  0  0  0  0  0  0  0  0  0  0  # atno 17370 bound_to 10713
  156.4125  130.3937  149.6881 LP  0  0  0  0  0  0  0  0  0  0  0  0  # atno 17371 bound_to 10713
  141.0433  133.6926  156.1638 LP  0  0  0  0  0  0  0  0  0  0  0  0  # atno 17394 bound_to 11000
  140.6922  134.4654  157.5588 LP  0  0  0  0  0  0  0  0  0  0  0  0  # atno 17395 bound_to 11000

$$$$
