AV-unprocessed.smi:1643|AV-procd|sdf|6575|dock2
  -GOLD-   22720 7263D 1   1.00000     0.00000
 Structure written by MMmdl.
 54 56  0  0  0  0  0  0  0  0  2 V2000
  145.9284  144.0633  161.0195 C   0  0  0  0  0  0  0  0  0  0  0  0
  145.4996  142.7387  160.3807 C   0  0  0  0  0  0  0  0  0  0  0  0
  145.3663  141.7594  161.1147 O   0  0  0  0  0  0  0  0  0  0  0  0
  145.2771  142.6915  159.0438 N   0  0  0  0  0  0  0  0  0  0  0  0
  144.8075  141.4559  158.3980 C   0  0  0  0  0  0  0  0  0  0  0  0
  145.9648  140.6988  157.7220 C   0  0  0  0  0  0  0  0  0  0  0  0
  147.0594  141.6040  157.1181 C   0  0  0  0  0  0  0  0  0  0  0  0
  146.5563  142.6033  156.1364 N   0  3  1  0  0  0  0  0  0  0  0  0
  146.1953  141.9892  154.8300 C   0  0  0  0  0  0  0  0  0  0  0  0
  147.1892  140.8980  154.3854 C   0  0  1  0  0  0  0  0  0  0  0  0
  146.7063  140.2959  153.1993 O   0  0  0  0  0  0  0  0  0  0  0  0
  148.5959  141.4723  154.1302 C   0  0  0  0  0  0  0  0  0  0  0  0
  149.6389  140.6729  154.7473 N   0  0  0  0  0  0  0  0  0  0  0  0
  150.1287  139.4950  154.3144 C   0  0  0  0  0  0  0  0  0  0  0  0
  151.0872  138.9299  155.0424 N   0  0  0  0  0  0  0  0  0  0  0  0
  151.2396  139.8496  156.0659 C   0  0  0  0  0  0  0  0  0  0  0  0
  152.1051  139.8457  157.1815 C   0  0  0  0  0  0  0  0  0  0  0  0
  152.0893  140.9069  158.1146 C   0  0  0  0  0  0  0  0  0  0  0  0
  153.0370  140.8613  159.3003 C   0  0  0  0  0  0  0  0  0  0  0  0
  151.1983  141.9960  157.9376 C   0  0  0  0  0  0  0  0  0  0  0  0
  151.1671  143.1489  158.9253 C   0  0  0  0  0  0  0  0  0  0  0  0
  150.3262  142.0152  156.8292 C   0  0  0  0  0  0  0  0  0  0  0  0
  150.3502  140.9526  155.9089 C   0  0  0  0  0  0  0  0  0  0  0  0
  145.5316  143.5723  156.6366 C   0  0  0  0  0  0  0  0  0  0  0  0
  145.5315  143.8521  158.1637 C   0  0  0  0  0  0  0  0  0  0  0  0
  145.2449  144.8692  160.7519 H   0  0  0  0  0  0  0  0  0  0  0  0
  146.9368  144.3355  160.7076 H   0  0  0  0  0  0  0  0  0  0  0  0
  145.9293  143.9800  162.1068 H   0  0  0  0  0  0  0  0  0  0  0  0
  144.3065  140.7891  159.1018 H   0  0  0  0  0  0  0  0  0  0  0  0
  144.0258  141.6863  157.6758 H   0  0  0  0  0  0  0  0  0  0  0  0
  146.4378  140.0542  158.4638 H   0  0  0  0  0  0  0  0  0  0  0  0
  145.5635  140.0284  156.9616 H   0  0  0  0  0  0  0  0  0  0  0  0
  147.6000  142.1249  157.9091 H   0  0  0  0  0  0  0  0  0  0  0  0
  147.8165  140.9813  156.6400 H   0  0  0  0  0  0  0  0  0  0  0  0
  145.1991  141.5482  154.8899 H   0  0  0  0  0  0  0  0  0  0  0  0
  146.1335  142.7733  154.0740 H   0  0  0  0  0  0  0  0  0  0  0  0
  147.2682  140.1268  155.1517 H   0  0  0  0  0  0  0  0  0  0  0  0
  145.7858  140.4922  153.1117 H   0  0  0  0  0  0  0  0  0  0  0  0
  148.7948  141.5436  153.0597 H   0  0  0  0  0  0  0  0  0  0  0  0
  148.6672  142.4850  154.5287 H   0  0  0  0  0  0  0  0  0  0  0  0
  149.7577  139.0230  153.4162 H   0  0  0  0  0  0  0  0  0  0  0  0
  152.7844  139.0166  157.3155 H   0  0  0  0  0  0  0  0  0  0  0  0
  152.4798  140.8882  160.2371 H   0  0  0  0  0  0  0  0  0  0  0  0
  153.7180  141.7125  159.2774 H   0  0  0  0  0  0  0  0  0  0  0  0
  153.6380  139.9515  159.2951 H   0  0  0  0  0  0  0  0  0  0  0  0
  150.4342  143.9020  158.6348 H   0  0  0  0  0  0  0  0  0  0  0  0
  152.1421  143.6340  158.9771 H   0  0  0  0  0  0  0  0  0  0  0  0
  150.9037  142.7921  159.9212 H   0  0  0  0  0  0  0  0  0  0  0  0
  149.6432  142.8385  156.6824 H   0  0  0  0  0  0  0  0  0  0  0  0
  145.7108  144.5185  156.1253 H   0  0  0  0  0  0  0  0  0  0  0  0
  144.5349  143.2701  156.3149 H   0  0  0  0  0  0  0  0  0  0  0  0
  144.7768  144.6106  158.3756 H   0  0  0  0  0  0  0  0  0  0  0  0
  146.4945  144.2989  158.4146 H   0  0  0  0  0  0  0  0  0  0  0  0
  147.3700  143.1685  155.9371 H   0  0  0  0  0  0  0  0  0  0  0  0
  1  2  1  0  0  0  0
  1 26  1  0  0  0  0
  1 27  1  0  0  0  0
  1 28  1  0  0  0  0
  2  3  2  0  0  0  0
  2  4  1  0  0  0  0
  4 25  1  0  0  0  0
  4  5  1  0  0  0  0
  5  6  1  0  0  0  0
  5 29  1  0  0  0  0
  5 30  1  0  0  0  0
  6  7  1  0  0  0  0
  6 31  1  0  0  0  0
  6 32  1  0  0  0  0
  7  8  1  0  0  0  0
  7 33  1  0  0  0  0
  7 34  1  0  0  0  0
  8  9  1  0  0  0  0
  8 24  1  0  0  0  0
  8 54  1  0  0  0  0
  9 10  1  0  0  0  0
  9 35  1  0  0  0  0
  9 36  1  0  0  0  0
 10 11  1  0  0  0  0
 10 12  1  0  0  0  0
 10 37  1  0  0  0  0
 11 38  1  0  0  0  0
 12 13  1  0  0  0  0
 12 39  1  0  0  0  0
 12 40  1  0  0  0  0
 13 23  1  0  0  0  0
 13 14  1  0  0  0  0
 14 15  2  0  0  0  0
 14 41  1  0  0  0  0
 15 16  1  0  0  0  0
 16 23  2  0  0  0  0
 16 17  1  0  0  0  0
 17 18  2  0  0  0  0
 17 42  1  0  0  0  0
 18 19  1  0  0  0  0
 18 20  1  0  0  0  0
 19 43  1  0  0  0  0
 19 44  1  0  0  0  0
 19 45  1  0  0  0  0
 20 21  1  0  0  0  0
 20 22  2  0  0  0  0
 21 46  1  0  0  0  0
 21 47  1  0  0  0  0
 21 48  1  0  0  0  0
 22 23  1  0  0  0  0
 22 49  1  0  0  0  0
 24 25  1  0  0  0  0
 24 50  1  0  0  0  0
 24 51  1  0  0  0  0
 25 52  1  0  0  0  0
 25 53  1  0  0  0  0
M  CHG  1   8   1
M  END
> <s_m_source_file>
AV-unprocessed.smi

> <i_m_source_file_index>
1643

> <i_lp_mmshare_version>
43012

> <i_f3d_flags>
0

> <s_epik_input>
W0NIM11DKD1PKU4xW0NIMl1bQ0gyXVtDSDJdTihbQ0gyXVtDSDJdMSlbQ0gyXVtDQEhdKFtPSF0pW0NIMl1uKFtjSF1uMiljKGMyMylbY0hdYyhbQ0gzXSljKFtjSF0zKVtDSDNd

> <s_epik_cmdline>
J2VwaWtfcHl0aG9uJywgJy1waCcsICc3LjAnLCAnLXRuJywgJzgnLCAnLW1hJywgJzIwMCcsICctbWV0YWxfYmluZGluZycsICctaW1hZScsICc8aW5maWxlLm1hZT4nLCAnLW9tYWUnLCAnPG91dGZpbGUubWFlPic=

> <r_epik_Ionization_Penalty>
0.189467

> <r_epik_Ionization_Penalty_Charging>
0.101761

> <r_epik_Ionization_Penalty_Neutral>
0.0877056

> <r_epik_State_Penalty>
0.170758

> <r_epik_Charging_Adjusted_Penalty>
0.272519

> <i_epik_Tot_Q>
1

> <i_epik_Tot_abs_Q>
1

> <r_epik_Metal_State_Penalty>
0.0948013

> <b_epik_Metal_Only>
0

> <s_lp_Force_Field>
OPLS_2005

> <r_lp_Energy>
48.4896

> <b_lp_Chiralities_Consistent>
1

> <s_lp_Variant>
AV-unprocessed.smi:1643-4

> <Gold.Version>
5.8.1

> <Gold.Id.Protein>
6NUR|6NUR_protein|mol2

> <Gold.PLP.Fitness>
48.2715

> <Gold.PLP.PLP>
-39.5355

> <Gold.PLP.part.hbond>
-2.6168

> <Gold.PLP.part.metal>
0.0000

> <Gold.PLP.part.buried>
-1.9524

> <Gold.PLP.part.nonpolar>
-32.6167

> <Gold.PLP.part.repulsive>
0.0875

> <Gold.PLP.ligand.clash>
0.0000

> <Gold.PLP.ligand.torsion>
0.9935

> <Gold.PLP.Chemscore.Hbond>
2.6491

> <Gold.PLP.Chemscore.CHOScore>
0.8976

> <Gold.PLP.Chemscore.Metal>
0.0000

> <Gold.Chemscore.Hbonds>
donor molecule, donor type, donor heavy atom, donor atom, acceptor molecule, acceptor atom, score
      L1  H     8    54       P1  8028  0.84
      L1  H    11    38       P1 10175  0.60
      P1  H  6934  6946       L1     3  0.85
      L1  C    14    41       P1  7957  0.94

> <Gold.PLP.Chemscore.Internal.Correction>
0.0830

> <Gold.Rescore>
     Score         DG    S(hbond)    S(metal)    S(lipo)     H(rot)  DE(clash)    DE(int)     intcor
     14.98     -16.18       1.79        0.00      86.80       2.12       0.18       1.02       ----

> <Gold.Chemscore.Fitness>
14.9815

> <Gold.Chemscore.DG>
-16.1832

> <Gold.Chemscore.ZeroCoef>
-5.4800

> <Gold.Chemscore.Hbond>
1.7872

> <Gold.Chemscore.Metal>
0.0000

> <Gold.Chemscore.Lipo>
86.7995

> <Gold.Chemscore.Internal_Hbond>
0.0000

> <Gold.Chemscore.DEClash>
0.1809

> <Gold.Chemscore.DEInternal>
1.0207

> <Gold.Chemscore.Rot>
2.1178

> <Gold.Chemscore.Internal.Correction>
   9.000000E+99

> <Gold.Chemscore.Hbonds>
donor molecule, donor type, donor heavy atom, donor atom, acceptor molecule, acceptor atom, score
      L1  H     8    54       P1  8028  0.03
      L1  H    11    38       P1 10175  0.53
      P1  H  6934  6946       L1     3  0.25

> <Gold.Chemscore.Hbond.Weighted>
-5.9691

> <Gold.Chemscore.Metal.Weighted>
-0.0000

> <Gold.Chemscore.Lipo.Weighted>
-10.1555

> <Gold.Chemscore.Internal_Hbond.Weighted>
0.0000

> <Gold.Chemscore.DEClash.Weighted>
0.1809

> <Gold.Chemscore.DEInternal.Weighted>
1.0207

> <Gold.Chemscore.Rot.Weighted>
5.4215

> <Gold.Chemscore.Internal.Correction.Weighted>
   9.000000E+99

> <Gold.Protein.RotatedTorsions>
[ 6907 6896 6895 6894 ] final  110.09 input  -60.11 | X-H torsion
[ 7974 7965 7964 7962 ] final  -78.06 input  175.53 | X-H torsion
[ 8008 7997 7996 7995 ] final   75.91 input   59.86 | X-H torsion
[ 10167 10162 10161 10158 ] final  -62.96 input  -65.29 | X-H torsion
[ 10718 10713 10712 10709 ] final -169.62 input   66.30 | X-H torsion
[ 10763 10752 10751 10750 ] final   50.76 input  -60.55 | X-H torsion
[ 11005 11000 10999 10996 ] final  109.12 input  -57.11 | X-H torsion

> <Gold.Protein.ActiveResidues>
 VAL166  LYS551  ARG553  GLY616  TRP617  ASP618  TYR619  PRO620  LYS621  CYS622 
 ASP623  PHE694  ASN695  SER759  ASP760  ASP761  ALA762  ILE779  LEU786  VAL792 
 PHE793  MET794  SER795  GLU796  ALA797  LYS798  CYS799  TRP800  GLU811  SER814 

> <Gold.Protein.RotatedAtoms>
  152.5036  133.8850  159.7365 H   0  0  0  0  0  0  0  0  0  0  0  0  # atno 6907 bound_to 6896
  150.9303  133.6766  159.2819 H   0  0  0  0  0  0  0  0  0  0  0  0  # atno 6908 bound_to 6896
  151.4112  135.0990  159.9638 H   0  0  0  0  0  0  0  0  0  0  0  0  # atno 6909 bound_to 6896
  145.5915  140.9428  143.1289 H   0  0  0  0  0  0  0  0  0  0  0  0  # atno 7974 bound_to 7965
  155.8197  140.3470  155.5507 H   0  0  0  0  0  0  0  0  0  0  0  0  # atno 8008 bound_to 7997
  155.8354  140.0933  157.1787 H   0  0  0  0  0  0  0  0  0  0  0  0  # atno 8009 bound_to 7997
  154.4004  140.1404  156.3652 H   0  0  0  0  0  0  0  0  0  0  0  0  # atno 8010 bound_to 7997
  140.5903  143.2340  151.6153 H   0  0  0  0  0  0  0  0  0  0  0  0  # atno 10167 bound_to 10162
  156.7141  130.9245  151.3092 H   0  0  0  0  0  0  0  0  0  0  0  0  # atno 10718 bound_to 10713
  152.9784  135.5868  154.4304 H   0  0  0  0  0  0  0  0  0  0  0  0  # atno 10763 bound_to 10752
  154.3918  135.2768  155.2152 H   0  0  0  0  0  0  0  0  0  0  0  0  # atno 10764 bound_to 10752
  154.4021  135.6101  153.5957 H   0  0  0  0  0  0  0  0  0  0  0  0  # atno 10765 bound_to 10752
  139.8856  134.9449  156.6076 H   0  0  0  0  0  0  0  0  0  0  0  0  # atno 11005 bound_to 11000
  144.7349  139.7615  143.7333 LP  0  0  0  0  0  0  0  0  0  0  0  0  # atno 17320 bound_to 7965
  146.1643  139.4769  142.9968 LP  0  0  0  0  0  0  0  0  0  0  0  0  # atno 17321 bound_to 7965
  139.5223  144.3165  152.0947 LP  0  0  0  0  0  0  0  0  0  0  0  0  # atno 17342 bound_to 10162
  140.2329  144.4350  150.6292 LP  0  0  0  0  0  0  0  0  0  0  0  0  # atno 17343 bound_to 10162
  157.6924  130.9247  150.0550 LP  0  0  0  0  0  0  0  0  0  0  0  0  # atno 17370 bound_to 10713
  156.1640  130.3644  149.9259 LP  0  0  0  0  0  0  0  0  0  0  0  0  # atno 17371 bound_to 10713
  140.7836  133.8640  155.8587 LP  0  0  0  0  0  0  0  0  0  0  0  0  # atno 17394 bound_to 11000
  140.9739  134.1495  157.4553 LP  0  0  0  0  0  0  0  0  0  0  0  0  # atno 17395 bound_to 11000

$$$$
