AV-unprocessed.smi:2563|AV-procd|sdf|10061|dock3
  -GOLD-   2272014103D 1   1.00000     0.00000
 Structure written by MMmdl.
 34 35  0  0  0  0  0  0  0  0  1 V2000
  153.2430  140.0990  159.8596 C   0  0  0  0  0  0  0  0  0  0  0  0
  151.9562  140.2619  159.0397 C   0  0  0  0  0  0  0  0  0  0  0  0
  151.9464  141.5026  158.2630 N   0  0  0  0  0  0  0  0  0  0  0  0
  151.8909  141.4106  156.8045 C   0  0  0  0  0  0  0  0  0  0  0  0
  150.5901  140.7580  156.3031 C   0  0  1  0  0  0  0  0  0  0  0  0
  149.3766  141.6854  156.5185 C   0  0  0  0  0  0  0  0  0  0  0  0
  148.1622  141.0753  155.9792 N   0  0  0  0  0  0  0  0  0  0  0  0
  148.3272  140.7173  154.5719 C   0  0  0  0  0  0  0  0  0  0  0  0
  149.5676  139.8261  154.3916 C   0  0  0  0  0  0  0  0  0  0  0  0
  150.7099  140.5007  154.9062 O   0  0  0  0  0  0  0  0  0  0  0  0
  151.9011  142.7573  158.9201 C   0  0  0  0  0  0  0  0  0  0  0  0
  152.1822  143.9715  158.2458 C   0  0  0  0  0  0  0  0  0  0  0  0
  152.1134  145.1695  158.9769 C   0  0  0  0  0  0  0  0  0  0  0  0
  151.7676  145.0795  160.3352 C   0  0  0  0  0  0  0  0  0  0  0  0
  151.5078  143.9009  160.9394 N   0  0  0  0  0  0  0  0  0  0  0  0
  151.5753  142.7635  160.2397 N   0  0  0  0  0  0  0  0  0  0  0  0
  153.2211  139.1701  160.4294 H   0  0  0  0  0  0  0  0  0  0  0  0
  153.3702  140.9186  160.5670 H   0  0  0  0  0  0  0  0  0  0  0  0
  154.1232  140.0716  159.2168 H   0  0  0  0  0  0  0  0  0  0  0  0
  151.8035  139.3966  158.3942 H   0  0  0  0  0  0  0  0  0  0  0  0
  151.1035  140.2688  159.7190 H   0  0  0  0  0  0  0  0  0  0  0  0
  151.9371  142.4282  156.4154 H   0  0  0  0  0  0  0  0  0  0  0  0
  152.7678  140.9145  156.3907 H   0  0  0  0  0  0  0  0  0  0  0  0
  150.4273  139.8200  156.8375 H   0  0  0  0  0  0  0  0  0  0  0  0
  149.2465  141.8917  157.5811 H   0  0  0  0  0  0  0  0  0  0  0  0
  149.5551  142.6456  156.0329 H   0  0  0  0  0  0  0  0  0  0  0  0
  147.3846  141.7203  156.0772 H   0  0  0  0  0  0  0  0  0  0  0  0
  147.4380  140.2018  154.2088 H   0  0  0  0  0  0  0  0  0  0  0  0
  148.4352  141.6202  153.9693 H   0  0  0  0  0  0  0  0  0  0  0  0
  149.4374  138.8647  154.8912 H   0  0  0  0  0  0  0  0  0  0  0  0
  149.7284  139.6159  153.3342 H   0  0  0  0  0  0  0  0  0  0  0  0
  152.4542  144.0122  157.2029 H   0  0  0  0  0  0  0  0  0  0  0  0
  152.3202  146.1226  158.5132 H   0  0  0  0  0  0  0  0  0  0  0  0
  151.6994  145.9655  160.9487 H   0  0  0  0  0  0  0  0  0  0  0  0
  1  2  1  0  0  0  0
  1 17  1  0  0  0  0
  1 18  1  0  0  0  0
  1 19  1  0  0  0  0
  2  3  1  0  0  0  0
  2 20  1  0  0  0  0
  2 21  1  0  0  0  0
  3  4  1  0  0  0  0
  3 11  1  0  0  0  0
  4  5  1  0  0  0  0
  4 22  1  0  0  0  0
  4 23  1  0  0  0  0
  5 10  1  0  0  0  0
  5  6  1  0  0  0  0
  5 24  1  0  0  0  0
  6  7  1  0  0  0  0
  6 25  1  0  0  0  0
  6 26  1  0  0  0  0
  7  8  1  0  0  0  0
  7 27  1  0  0  0  0
  8  9  1  0  0  0  0
  8 28  1  0  0  0  0
  8 29  1  0  0  0  0
  9 10  1  0  0  0  0
  9 30  1  0  0  0  0
  9 31  1  0  0  0  0
 11 16  1  0  0  0  0
 11 12  2  0  0  0  0
 12 13  1  0  0  0  0
 12 32  1  0  0  0  0
 13 14  2  0  0  0  0
 13 33  1  0  0  0  0
 14 15  1  0  0  0  0
 14 34  1  0  0  0  0
 15 16  2  0  0  0  0
M  END
> <s_m_source_file>
AV-unprocessed.smi

> <i_m_source_file_index>
2563

> <i_lp_mmshare_version>
43012

> <i_f3d_flags>
0

> <s_epik_input>
bjFuW2NIXVtjSF1bY0hdYzFOKFtDSDJdW0NIM10pW0NIMl1bQ0BASF0yW0NIMl1bTkhdW0NIMl1bQ0gyXU8y

> <s_epik_cmdline>
J2VwaWtfcHl0aG9uJywgJy1waCcsICc3LjAnLCAnLXRuJywgJzgnLCAnLW1hJywgJzIwMCcsICctbWV0YWxfYmluZGluZycsICctaW1hZScsICc8aW5maWxlLm1hZT4nLCAnLW9tYWUnLCAnPG91dGZpbGUubWFlPic=

> <r_lp_tautomer_probability>
1

> <r_epik_Ionization_Penalty>
2.34719

> <r_epik_Ionization_Penalty_Charging>
0

> <r_epik_Ionization_Penalty_Neutral>
2.34719

> <r_epik_State_Penalty>
2.60452

> <r_epik_Charging_Adjusted_Penalty>
2.60452

> <i_epik_Tot_Q>
0

> <i_epik_Tot_abs_Q>
0

> <r_epik_Metal_State_Penalty>
2.56937

> <b_epik_Metal_Only>
0

> <s_lp_Force_Field>
OPLS_2005

> <r_lp_Energy>
25.3459

> <b_lp_Chiralities_Consistent>
1

> <s_lp_Variant>
AV-unprocessed.smi:2563-6

> <Gold.Version>
5.8.1

> <Gold.Id.Protein>
6NUR|6NUR_protein|mol2

> <Gold.PLP.Fitness>
35.9297

> <Gold.PLP.PLP>
-33.3657

> <Gold.PLP.part.hbond>
-1.7389

> <Gold.PLP.part.metal>
0.0000

> <Gold.PLP.part.buried>
-4.6840

> <Gold.PLP.part.nonpolar>
-25.9731

> <Gold.PLP.part.repulsive>
0.2393

> <Gold.PLP.ligand.clash>
0.0000

> <Gold.PLP.ligand.torsion>
0.2299

> <Gold.PLP.Chemscore.Hbond>
1.0000

> <Gold.PLP.Chemscore.CHOScore>
0.0000

> <Gold.PLP.Chemscore.Metal>
0.0000

> <Gold.Chemscore.Hbonds>
donor molecule, donor type, donor heavy atom, donor atom, acceptor molecule, acceptor atom, score
      P1  H  7989  7998       L1    10  1.00

> <Gold.PLP.Chemscore.Internal.Correction>
0.0237

> <Gold.Rescore>
     Score         DG    S(hbond)    S(metal)    S(lipo)     H(rot)  DE(clash)    DE(int)     intcor
     13.33     -14.93       0.93        0.00      83.91       1.36       1.24       0.35       ----

> <Gold.Chemscore.Fitness>
13.3337

> <Gold.Chemscore.DG>
-14.9299

> <Gold.Chemscore.ZeroCoef>
-5.4800

> <Gold.Chemscore.Hbond>
0.9337

> <Gold.Chemscore.Metal>
0.0000

> <Gold.Chemscore.Lipo>
83.9113

> <Gold.Chemscore.Internal_Hbond>
0.0000

> <Gold.Chemscore.DEClash>
1.2425

> <Gold.Chemscore.DEInternal>
0.3537

> <Gold.Chemscore.Rot>
1.3618

> <Gold.Chemscore.Internal.Correction>
   9.000000E+99

> <Gold.Chemscore.Hbonds>
donor molecule, donor type, donor heavy atom, donor atom, acceptor molecule, acceptor atom, score
      P1  H  7989  7998       L1    10  0.43

> <Gold.Chemscore.Hbond.Weighted>
-3.1184

> <Gold.Chemscore.Metal.Weighted>
-0.0000

> <Gold.Chemscore.Lipo.Weighted>
-9.8176

> <Gold.Chemscore.Internal_Hbond.Weighted>
0.0000

> <Gold.Chemscore.DEClash.Weighted>
1.2425

> <Gold.Chemscore.DEInternal.Weighted>
0.3537

> <Gold.Chemscore.Rot.Weighted>
3.4861

> <Gold.Chemscore.Internal.Correction.Weighted>
   9.000000E+99

> <Gold.Protein.RotatedTorsions>
[ 6907 6896 6895 6894 ] final   -0.84 input  -60.11 | X-H torsion
[ 7974 7965 7964 7962 ] final  -88.63 input  175.53 | X-H torsion
[ 8008 7997 7996 7995 ] final   21.79 input   59.86 | X-H torsion
[ 10167 10162 10161 10158 ] final   93.28 input  -65.29 | X-H torsion
[ 10718 10713 10712 10709 ] final  151.35 input   66.30 | X-H torsion
[ 10763 10752 10751 10750 ] final  156.28 input  -60.55 | X-H torsion
[ 11005 11000 10999 10996 ] final   26.43 input  -57.11 | X-H torsion

> <Gold.Protein.ActiveResidues>
 VAL166  LYS551  ARG553  GLY616  TRP617  ASP618  TYR619  PRO620  LYS621  CYS622 
 ASP623  PHE694  ASN695  SER759  ASP760  ASP761  ALA762  ILE779  LEU786  VAL792 
 PHE793  MET794  SER795  GLU796  ALA797  LYS798  CYS799  TRP800  GLU811  SER814 

> <Gold.Protein.RotatedAtoms>
  151.5557  135.1066  159.9960 H   0  0  0  0  0  0  0  0  0  0  0  0  # atno 6907 bound_to 6896
  152.4470  133.7552  159.6726 H   0  0  0  0  0  0  0  0  0  0  0  0  # atno 6908 bound_to 6896
  150.8388  133.7901  159.3093 H   0  0  0  0  0  0  0  0  0  0  0  0  # atno 6909 bound_to 6896
  145.4506  140.9560  143.2024 H   0  0  0  0  0  0  0  0  0  0  0  0  # atno 7974 bound_to 7965
  154.9559  140.3072  155.5053 H   0  0  0  0  0  0  0  0  0  0  0  0  # atno 8008 bound_to 7997
  156.2982  140.2310  156.4579 H   0  0  0  0  0  0  0  0  0  0  0  0  # atno 8009 bound_to 7997
  154.8010  140.0434  157.1261 H   0  0  0  0  0  0  0  0  0  0  0  0  # atno 8010 bound_to 7997
  139.8195  144.6738  150.9537 H   0  0  0  0  0  0  0  0  0  0  0  0  # atno 10167 bound_to 10162
  157.2719  131.0818  151.1594 H   0  0  0  0  0  0  0  0  0  0  0  0  # atno 10718 bound_to 10713
  154.1818  135.2799  155.3050 H   0  0  0  0  0  0  0  0  0  0  0  0  # atno 10763 bound_to 10752
  154.5997  135.5533  153.7365 H   0  0  0  0  0  0  0  0  0  0  0  0  # atno 10764 bound_to 10752
  153.0136  135.6388  154.1957 H   0  0  0  0  0  0  0  0  0  0  0  0  # atno 10765 bound_to 10752
  140.3371  134.2373  155.7694 H   0  0  0  0  0  0  0  0  0  0  0  0  # atno 11005 bound_to 11000
  144.8064  139.6043  143.7049 LP  0  0  0  0  0  0  0  0  0  0  0  0  # atno 17320 bound_to 7965
  146.2506  139.6192  142.9429 LP  0  0  0  0  0  0  0  0  0  0  0  0  # atno 17321 bound_to 7965
  140.7814  143.4106  151.0999 LP  0  0  0  0  0  0  0  0  0  0  0  0  # atno 17342 bound_to 10162
  139.7767  143.8415  152.3130 LP  0  0  0  0  0  0  0  0  0  0  0  0  # atno 17343 bound_to 10162
  157.3062  130.6867  149.6191 LP  0  0  0  0  0  0  0  0  0  0  0  0  # atno 17370 bound_to 10713
  155.9663  130.4377  150.5187 LP  0  0  0  0  0  0  0  0  0  0  0  0  # atno 17371 bound_to 10713
  141.2048  133.7876  157.0266 LP  0  0  0  0  0  0  0  0  0  0  0  0  # atno 17394 bound_to 11000
  140.0811  134.9647  157.1626 LP  0  0  0  0  0  0  0  0  0  0  0  0  # atno 17395 bound_to 11000

$$$$
