AV-unprocessed.smi:2405|AV-procd|sdf|9514|dock10
  -GOLD-   2272013143D 1   1.00000     0.00000
 Structure written by MMmdl.
 36 37  0  0  0  0  0  0  0  0  2 V2000
  152.3574  143.5204  162.4637 C   0  0  0  0  0  0  0  0  0  0  0  0
  153.0967  142.7967  161.3332 C   0  0  0  0  0  0  0  0  0  0  0  0
  152.3703  142.8736  160.0322 C   0  0  0  0  0  0  0  0  0  0  0  0
  151.3329  142.0923  159.7215 N   0  0  0  0  0  0  0  0  0  0  0  0
  150.8066  142.3714  158.4559 C   0  0  0  0  0  0  0  0  0  0  0  0
  149.6458  141.5752  157.9345 C   0  0  0  0  0  0  0  0  0  0  0  0
  150.0924  140.6966  156.7655 C   0  0  0  0  0  0  0  0  0  0  0  0
  150.6120  141.2079  155.7733 O   0  0  0  0  0  0  0  0  0  0  0  0
  149.8810  139.3783  156.8946 N   0  0  0  0  0  0  0  0  0  0  0  0
  150.2254  138.3660  155.9017 C   0  0  2  0  0  0  0  0  0  0  0  0
  149.9218  136.9418  156.4116 C   0  0  0  0  0  0  0  0  0  0  0  0
  151.2151  136.1389  156.2305 C   0  0  0  0  0  0  0  0  0  0  0  0
  152.3472  137.1731  156.3105 C   0  0  2  0  0  0  0  0  0  0  0  0
  152.7524  137.4403  157.7765 C   0  0  0  0  0  0  0  0  0  0  0  0
  152.7485  138.6346  158.1472 O   0  0  0  0  0  0  0  0  0  0  0  0
  153.0459  136.4697  158.5099 O   0  5  0  0  0  0  0  0  0  0  0  0
  151.7363  138.3975  155.6026 C   0  0  0  0  0  0  0  0  0  0  0  0
  151.4527  143.4020  157.8182 C   0  0  0  0  0  0  0  0  0  0  0  0
  152.7517  144.0504  158.7809 S   0  0  0  0  0  0  0  0  0  0  0  0
  152.9118  143.4475  163.3995 H   0  0  0  0  0  0  0  0  0  0  0  0
  151.3698  143.0884  162.6269 H   0  0  0  0  0  0  0  0  0  0  0  0
  152.2273  144.5782  162.2342 H   0  0  0  0  0  0  0  0  0  0  0  0
  154.0902  143.2267  161.2040 H   0  0  0  0  0  0  0  0  0  0  0  0
  153.2417  141.7479  161.5947 H   0  0  0  0  0  0  0  0  0  0  0  0
  149.2185  140.9456  158.7163 H   0  0  0  0  0  0  0  0  0  0  0  0
  148.8459  142.2379  157.6024 H   0  0  0  0  0  0  0  0  0  0  0  0
  149.4381  139.0471  157.7408 H   0  0  0  0  0  0  0  0  0  0  0  0
  149.6788  138.5645  154.9779 H   0  0  0  0  0  0  0  0  0  0  0  0
  149.6560  136.9579  157.4700 H   0  0  0  0  0  0  0  0  0  0  0  0
  149.0864  136.4866  155.8790 H   0  0  0  0  0  0  0  0  0  0  0  0
  151.3006  135.3319  156.9598 H   0  0  0  0  0  0  0  0  0  0  0  0
  151.2224  135.6761  155.2428 H   0  0  0  0  0  0  0  0  0  0  0  0
  153.2343  136.8231  155.7816 H   0  0  0  0  0  0  0  0  0  0  0  0
  151.8846  138.2821  154.5282 H   0  0  0  0  0  0  0  0  0  0  0  0
  152.2086  139.3453  155.8666 H   0  0  0  0  0  0  0  0  0  0  0  0
  151.2443  143.8147  156.8423 H   0  0  0  0  0  0  0  0  0  0  0  0
  1  2  1  0  0  0  0
  1 20  1  0  0  0  0
  1 21  1  0  0  0  0
  1 22  1  0  0  0  0
  2  3  1  0  0  0  0
  2 23  1  0  0  0  0
  2 24  1  0  0  0  0
  3 19  1  0  0  0  0
  3  4  2  0  0  0  0
  4  5  1  0  0  0  0
  5  6  1  0  0  0  0
  5 18  2  0  0  0  0
  6  7  1  0  0  0  0
  6 25  1  0  0  0  0
  6 26  1  0  0  0  0
  7  8  2  0  0  0  0
  7  9  1  0  0  0  0
  9 10  1  0  0  0  0
  9 27  1  0  0  0  0
 10 17  1  0  0  0  0
 10 11  1  0  0  0  0
 10 28  1  0  0  0  0
 11 12  1  0  0  0  0
 11 29  1  0  0  0  0
 11 30  1  0  0  0  0
 12 13  1  0  0  0  0
 12 31  1  0  0  0  0
 12 32  1  0  0  0  0
 13 14  1  0  0  0  0
 13 17  1  0  0  0  0
 13 33  1  0  0  0  0
 14 15  2  0  0  0  0
 14 16  1  0  0  0  0
 17 34  1  0  0  0  0
 17 35  1  0  0  0  0
 18 19  1  0  0  0  0
 18 36  1  0  0  0  0
M  CHG  1  16  -1
M  END
> <s_m_source_file>
AV-unprocessed.smi

> <i_m_source_file_index>
2405

> <i_lp_mmshare_version>
43012

> <i_f3d_flags>
0

> <s_epik_input>
W0NIM11bQ0gyXWMxbmMoW2NIXXMxKVtDSDJdQyg9TylbTkhdW0NAQEhdMltDSDJdW0NIMl1bQ0BIXShbQ0gyXTIpQyg9TylbT0hd

> <s_epik_cmdline>
J2VwaWtfcHl0aG9uJywgJy1waCcsICc3LjAnLCAnLXRuJywgJzgnLCAnLW1hJywgJzIwMCcsICctbWV0YWxfYmluZGluZycsICctaW1hZScsICc8aW5maWxlLm1hZT4nLCAnLW9tYWUnLCAnPG91dGZpbGUubWFlPic=

> <r_epik_Ionization_Penalty>
0.000544611

> <r_epik_Ionization_Penalty_Charging>
0.000481685

> <r_epik_Ionization_Penalty_Neutral>
6.29266e-05

> <r_epik_State_Penalty>
0.00029893

> <r_epik_Charging_Adjusted_Penalty>
0.000780614

> <i_epik_Tot_Q>
-1

> <i_epik_Tot_abs_Q>
1

> <r_epik_Metal_State_Penalty>
-0

> <b_epik_Metal_Only>
0

> <s_lp_Force_Field>
OPLS_2005

> <r_lp_Energy>
7.32439

> <b_lp_Chiralities_Consistent>
1

> <s_lp_Variant>
AV-unprocessed.smi:2405-3

> <Gold.Version>
5.8.1

> <Gold.Id.Protein>
6NUR|6NUR_protein|mol2

> <Gold.PLP.Fitness>
50.6949

> <Gold.PLP.PLP>
-37.5819

> <Gold.PLP.part.hbond>
-2.2169

> <Gold.PLP.part.metal>
0.0000

> <Gold.PLP.part.buried>
-3.3492

> <Gold.PLP.part.nonpolar>
-32.8861

> <Gold.PLP.part.repulsive>
0.6207

> <Gold.PLP.ligand.clash>
0.0000

> <Gold.PLP.ligand.torsion>
0.5556

> <Gold.PLP.Chemscore.Hbond>
3.7280

> <Gold.PLP.Chemscore.CHOScore>
1.0000

> <Gold.PLP.Chemscore.Metal>
0.0000

> <Gold.Chemscore.Hbonds>
donor molecule, donor type, donor heavy atom, donor atom, acceptor molecule, acceptor atom, score
      P1  H  6896  6909       L1    16  0.23
      L1  C    18    36       P1  8028  0.41

> <Gold.PLP.Chemscore.Internal.Correction>
0.0402

> <Gold.Rescore>
     Score         DG    S(hbond)    S(metal)    S(lipo)     H(rot)  DE(clash)    DE(int)     intcor
     15.40     -18.57       1.85        0.00     104.35       2.06       0.59       2.59       ----

> <Gold.Chemscore.Fitness>
15.3966

> <Gold.Chemscore.DG>
-18.5719

> <Gold.Chemscore.ZeroCoef>
-5.4800

> <Gold.Chemscore.Hbond>
1.8461

> <Gold.Chemscore.Metal>
0.0000

> <Gold.Chemscore.Lipo>
104.3463

> <Gold.Chemscore.Internal_Hbond>
0.0000

> <Gold.Chemscore.DEClash>
0.5857

> <Gold.Chemscore.DEInternal>
2.5897

> <Gold.Chemscore.Rot>
2.0635

> <Gold.Chemscore.Internal.Correction>
   9.000000E+99

> <Gold.Chemscore.Hbonds>
donor molecule, donor type, donor heavy atom, donor atom, acceptor molecule, acceptor atom, score
      P1  H  6896  6909       L1    16  0.13
      P1  H  7989  7998       L1     8  0.01

> <Gold.Chemscore.Hbond.Weighted>
-6.1659

> <Gold.Chemscore.Metal.Weighted>
-0.0000

> <Gold.Chemscore.Lipo.Weighted>
-12.2085

> <Gold.Chemscore.Internal_Hbond.Weighted>
0.0000

> <Gold.Chemscore.DEClash.Weighted>
0.5857

> <Gold.Chemscore.DEInternal.Weighted>
2.5897

> <Gold.Chemscore.Rot.Weighted>
5.2825

> <Gold.Chemscore.Internal.Correction.Weighted>
   9.000000E+99

> <Gold.Protein.RotatedTorsions>
[ 6907 6896 6895 6894 ] final  172.35 input  -60.11 | X-H torsion
[ 7974 7965 7964 7962 ] final   32.44 input  175.53 | X-H torsion
[ 8008 7997 7996 7995 ] final  -41.48 input   59.86 | X-H torsion
[ 10167 10162 10161 10158 ] final  -10.79 input  -65.29 | X-H torsion
[ 10718 10713 10712 10709 ] final  -50.45 input   66.30 | X-H torsion
[ 10763 10752 10751 10750 ] final  113.67 input  -60.55 | X-H torsion
[ 11005 11000 10999 10996 ] final  133.88 input  -57.11 | X-H torsion

> <Gold.Protein.ActiveResidues>
 VAL166  LYS551  ARG553  GLY616  TRP617  ASP618  TYR619  PRO620  LYS621  CYS622 
 ASP623  PHE694  ASN695  SER759  ASP760  ASP761  ALA762  ILE779  LEU786  VAL792 
 PHE793  MET794  SER795  GLU796  ALA797  LYS798  CYS799  TRP800  GLU811  SER814 

> <Gold.Protein.RotatedAtoms>
  151.7856  133.3354  159.3483 H   0  0  0  0  0  0  0  0  0  0  0  0  # atno 6907 bound_to 6896
  150.7410  134.5890  159.5987 H   0  0  0  0  0  0  0  0  0  0  0  0  # atno 6908 bound_to 6896
  152.3245  134.7339  160.0356 H   0  0  0  0  0  0  0  0  0  0  0  0  # atno 6909 bound_to 6896
  146.1486  139.6526  142.9114 H   0  0  0  0  0  0  0  0  0  0  0  0  # atno 7974 bound_to 7965
  154.4004  140.1498  156.3198 H   0  0  0  0  0  0  0  0  0  0  0  0  # atno 8008 bound_to 7997
  155.8540  140.3456  155.5690 H   0  0  0  0  0  0  0  0  0  0  0  0  # atno 8009 bound_to 7997
  155.7953  140.0862  157.1977 H   0  0  0  0  0  0  0  0  0  0  0  0  # atno 8010 bound_to 7997
  140.7122  143.5710  150.9093 H   0  0  0  0  0  0  0  0  0  0  0  0  # atno 10167 bound_to 10162
  156.1800  130.4150  149.9521 H   0  0  0  0  0  0  0  0  0  0  0  0  # atno 10718 bound_to 10713
  153.4959  135.3648  155.2515 H   0  0  0  0  0  0  0  0  0  0  0  0  # atno 10763 bound_to 10752
  154.8750  135.3988  154.3535 H   0  0  0  0  0  0  0  0  0  0  0  0  # atno 10764 bound_to 10752
  153.4163  135.7079  153.6391 H   0  0  0  0  0  0  0  0  0  0  0  0  # atno 10765 bound_to 10752
  139.9880  134.9525  156.9788 H   0  0  0  0  0  0  0  0  0  0  0  0  # atno 11005 bound_to 11000
  145.4877  141.0438  143.2610 LP  0  0  0  0  0  0  0  0  0  0  0  0  # atno 17320 bound_to 7965
  144.7876  139.6394  143.7127 LP  0  0  0  0  0  0  0  0  0  0  0  0  # atno 17321 bound_to 7965
  139.9436  143.6354  152.3047 LP  0  0  0  0  0  0  0  0  0  0  0  0  # atno 17342 bound_to 10162
  139.6847  144.7652  151.1545 LP  0  0  0  0  0  0  0  0  0  0  0  0  # atno 17343 bound_to 10162
  156.7295  130.9037  151.3624 LP  0  0  0  0  0  0  0  0  0  0  0  0  # atno 17370 bound_to 10713
  157.6861  130.9187  150.0391 LP  0  0  0  0  0  0  0  0  0  0  0  0  # atno 17371 bound_to 10713
  140.4965  134.1140  155.7242 LP  0  0  0  0  0  0  0  0  0  0  0  0  # atno 17394 bound_to 11000
  141.1541  133.8915  157.2023 LP  0  0  0  0  0  0  0  0  0  0  0  0  # atno 17395 bound_to 11000

$$$$
