AV-unprocessed.smi:898|AV-procd|sdf|4083|dock4
  -GOLD-   22720 1573D 1   1.00000     0.00000
 Structure written by MMmdl.
 34 36  0  0  0  0  0  0  0  0  1 V2000
  141.2726  136.5728  152.5645 O   0  0  0  0  0  0  0  0  0  0  0  0
  142.0075  137.5572  152.4820 C   0  0  0  0  0  0  0  0  0  0  0  0
  143.3242  137.5246  152.2116 N   0  0  0  0  0  0  0  0  0  0  0  0
  144.1441  136.3924  151.9613 C   0  0  0  0  0  0  0  0  0  0  0  0
  145.4346  136.3141  152.3144 N   0  0  0  0  0  0  0  0  0  0  0  0
  145.9973  135.0979  151.9533 N   0  0  0  0  0  0  0  0  0  0  0  0
  145.1205  134.2942  151.3393 C   0  0  0  0  0  0  0  0  0  0  0  0
  145.4913  132.9298  150.8607 C   0  0  0  0  0  0  0  0  0  0  0  0
  145.4551  132.5914  149.3882 C   0  0  0  0  0  0  0  0  0  0  0  0
  144.4542  131.9662  150.3259 C   0  0  0  0  0  0  0  0  0  0  0  0
  143.5075  134.9734  151.1480 S   0  0  0  0  0  0  0  0  0  0  0  0
  141.5783  138.8169  152.6490 N   0  0  0  0  0  0  0  0  0  0  0  0
  140.2028  139.2090  152.9448 C   0  0  2  0  0  0  0  0  0  0  0  0
  139.2660  138.7768  151.7970 C   0  0  0  0  0  0  0  0  0  0  0  0
  137.7929  139.1178  152.0749 C   0  0  0  0  0  0  0  0  0  0  0  0
  137.5630  140.6249  152.2553 C   0  0  0  0  0  0  0  0  0  0  0  0
  138.4879  141.2644  153.6778 S   0  0  0  0  0  0  0  0  0  0  0  0
  140.1487  140.7282  153.1831 C   0  0  0  0  0  0  0  0  0  0  0  0
  143.7946  138.4164  152.1708 H   0  0  0  0  0  0  0  0  0  0  0  0
  146.3039  132.5212  151.4582 H   0  0  0  0  0  0  0  0  0  0  0  0
  145.0911  133.3542  148.7022 H   0  0  0  0  0  0  0  0  0  0  0  0
  146.2478  131.9549  149.0003 H   0  0  0  0  0  0  0  0  0  0  0  0
  144.5802  130.9117  150.5631 H   0  0  0  0  0  0  0  0  0  0  0  0
  143.4233  132.3062  150.2508 H   0  0  0  0  0  0  0  0  0  0  0  0
  142.2527  139.5631  152.5632 H   0  0  0  0  0  0  0  0  0  0  0  0
  139.8882  138.7126  153.8651 H   0  0  0  0  0  0  0  0  0  0  0  0
  139.5799  139.2464  150.8637 H   0  0  0  0  0  0  0  0  0  0  0  0
  139.3507  137.7009  151.6390 H   0  0  0  0  0  0  0  0  0  0  0  0
  137.1799  138.7583  151.2477 H   0  0  0  0  0  0  0  0  0  0  0  0
  137.4511  138.5838  152.9623 H   0  0  0  0  0  0  0  0  0  0  0  0
  137.8679  141.1669  151.3597 H   0  0  0  0  0  0  0  0  0  0  0  0
  136.5030  140.8295  152.4077 H   0  0  0  0  0  0  0  0  0  0  0  0
  140.8477  141.0161  153.9693 H   0  0  0  0  0  0  0  0  0  0  0  0
  140.4398  141.2694  152.2820 H   0  0  0  0  0  0  0  0  0  0  0  0
  1  2  2  0  0  0  0
  2  3  1  0  0  0  0
  2 12  1  0  0  0  0
  3  4  1  0  0  0  0
  3 19  1  0  0  0  0
  4 11  1  0  0  0  0
  4  5  2  0  0  0  0
  5  6  1  0  0  0  0
  6  7  2  0  0  0  0
  7  8  1  0  0  0  0
  7 11  1  0  0  0  0
  8 10  1  0  0  0  0
  8  9  1  0  0  0  0
  8 20  1  0  0  0  0
  9 10  1  0  0  0  0
  9 21  1  0  0  0  0
  9 22  1  0  0  0  0
 10 23  1  0  0  0  0
 10 24  1  0  0  0  0
 12 13  1  0  0  0  0
 12 25  1  0  0  0  0
 13 18  1  0  0  0  0
 13 14  1  0  0  0  0
 13 26  1  0  0  0  0
 14 15  1  0  0  0  0
 14 27  1  0  0  0  0
 14 28  1  0  0  0  0
 15 16  1  0  0  0  0
 15 29  1  0  0  0  0
 15 30  1  0  0  0  0
 16 17  1  0  0  0  0
 16 31  1  0  0  0  0
 16 32  1  0  0  0  0
 17 18  1  0  0  0  0
 18 33  1  0  0  0  0
 18 34  1  0  0  0  0
M  END
> <s_m_source_file>
AV-unprocessed.smi

> <i_m_source_file_index>
898

> <i_lp_mmshare_version>
43012

> <i_f3d_flags>
0

> <s_epik_input>
W0NIMl0xU1tDSDJdW0NIMl1bQ0gyXVtDQEhdMVtOSF1DKD1PKVtOSF1jMm5uYyhzMilbQ0hdM1tDSDJdW0NIMl0z

> <s_epik_cmdline>
J2VwaWtfcHl0aG9uJywgJy1waCcsICc3LjAnLCAnLXRuJywgJzgnLCAnLW1hJywgJzIwMCcsICctbWV0YWxfYmluZGluZycsICctaW1hZScsICc8aW5maWxlLm1hZT4nLCAnLW9tYWUnLCAnPG91dGZpbGUubWFlPic=

> <r_lp_tautomer_probability>
1

> <r_epik_Ionization_Penalty>
0.000291725

> <r_epik_Ionization_Penalty_Charging>
0

> <r_epik_Ionization_Penalty_Neutral>
0.000291725

> <r_epik_State_Penalty>
-0

> <r_epik_Charging_Adjusted_Penalty>
0

> <i_epik_Tot_Q>
0

> <i_epik_Tot_abs_Q>
0

> <r_epik_Metal_State_Penalty>
0.160962

> <b_epik_Metal_Only>
0

> <s_lp_Force_Field>
OPLS_2005

> <r_lp_Energy>
2.16534

> <b_lp_Chiralities_Consistent>
1

> <s_lp_Variant>
AV-unprocessed.smi:898-1

> <Gold.Version>
5.8.1

> <Gold.Id.Protein>
6NUR|6NUR_protein|mol2

> <Gold.PLP.Fitness>
36.2399

> <Gold.PLP.PLP>
-30.9360

> <Gold.PLP.part.hbond>
-3.0595

> <Gold.PLP.part.metal>
0.0000

> <Gold.PLP.part.buried>
-5.2239

> <Gold.PLP.part.nonpolar>
-23.7121

> <Gold.PLP.part.repulsive>
1.3067

> <Gold.PLP.ligand.clash>
0.0000

> <Gold.PLP.ligand.torsion>
0.3076

> <Gold.PLP.Chemscore.Hbond>
1.9280

> <Gold.PLP.Chemscore.CHOScore>
0.0000

> <Gold.PLP.Chemscore.Metal>
0.0000

> <Gold.Chemscore.Hbonds>
donor molecule, donor type, donor heavy atom, donor atom, acceptor molecule, acceptor atom, score
      L1  H     3    19       P1 10175  0.90
      L1  H    12    25       P1 10175  1.00

> <Gold.PLP.Chemscore.Internal.Correction>
0.1351

> <Gold.Rescore>
     Score         DG    S(hbond)    S(metal)    S(lipo)     H(rot)  DE(clash)    DE(int)     intcor
     16.22     -16.87       1.82        0.00      71.74       1.20       0.14       0.52       ----

> <Gold.Chemscore.Fitness>
16.2156

> <Gold.Chemscore.DG>
-16.8741

> <Gold.Chemscore.ZeroCoef>
-5.4800

> <Gold.Chemscore.Hbond>
1.8219

> <Gold.Chemscore.Metal>
0.0000

> <Gold.Chemscore.Lipo>
71.7396

> <Gold.Chemscore.Internal_Hbond>
0.0000

> <Gold.Chemscore.DEClash>
0.1381

> <Gold.Chemscore.DEInternal>
0.5204

> <Gold.Chemscore.Rot>
1.2050

> <Gold.Chemscore.Internal.Correction>
   9.000000E+99

> <Gold.Chemscore.Hbonds>
donor molecule, donor type, donor heavy atom, donor atom, acceptor molecule, acceptor atom, score
      L1  H     3    19       P1 10175  0.83
      L1  H    12    25       P1 10175  0.54

> <Gold.Chemscore.Hbond.Weighted>
-6.0852

> <Gold.Chemscore.Metal.Weighted>
-0.0000

> <Gold.Chemscore.Lipo.Weighted>
-8.3935

> <Gold.Chemscore.Internal_Hbond.Weighted>
0.0000

> <Gold.Chemscore.DEClash.Weighted>
0.1381

> <Gold.Chemscore.DEInternal.Weighted>
0.5204

> <Gold.Chemscore.Rot.Weighted>
3.0847

> <Gold.Chemscore.Internal.Correction.Weighted>
   9.000000E+99

> <Gold.Protein.RotatedTorsions>
[ 6907 6896 6895 6894 ] final -101.72 input  -60.11 | X-H torsion
[ 7974 7965 7964 7962 ] final  100.45 input  175.53 | X-H torsion
[ 8008 7997 7996 7995 ] final  141.51 input   59.86 | X-H torsion
[ 10167 10162 10161 10158 ] final  -90.26 input  -65.29 | X-H torsion
[ 10718 10713 10712 10709 ] final  -65.96 input   66.30 | X-H torsion
[ 10763 10752 10751 10750 ] final   80.85 input  -60.55 | X-H torsion
[ 11005 11000 10999 10996 ] final  -14.15 input  -57.11 | X-H torsion

> <Gold.Protein.ActiveResidues>
 VAL166  LYS551  ARG553  GLY616  TRP617  ASP618  TYR619  PRO620  LYS621  CYS622 
 ASP623  PHE694  ASN695  SER759  ASP760  ASP761  ALA762  ILE779  LEU786  VAL792 
 PHE793  MET794  SER795  GLU796  ALA797  LYS798  CYS799  TRP800  GLU811  SER814 

> <Gold.Protein.RotatedAtoms>
  150.7166  134.0691  159.3857 H   0  0  0  0  0  0  0  0  0  0  0  0  # atno 6907 bound_to 6896
  151.8673  135.0500  160.0485 H   0  0  0  0  0  0  0  0  0  0  0  0  # atno 6908 bound_to 6896
  152.2671  133.5313  159.5453 H   0  0  0  0  0  0  0  0  0  0  0  0  # atno 6909 bound_to 6896
  145.3854  139.2372  143.3381 H   0  0  0  0  0  0  0  0  0  0  0  0  # atno 7974 bound_to 7965
  156.2964  140.2313  156.4577 H   0  0  0  0  0  0  0  0  0  0  0  0  # atno 8008 bound_to 7997
  154.8046  140.0446  157.1318 H   0  0  0  0  0  0  0  0  0  0  0  0  # atno 8009 bound_to 7997
  154.9494  140.3040  155.5086 H   0  0  0  0  0  0  0  0  0  0  0  0  # atno 8010 bound_to 7997
  140.3566  143.2863  151.9663 H   0  0  0  0  0  0  0  0  0  0  0  0  # atno 10167 bound_to 10162
  156.0639  130.4255  150.1640 H   0  0  0  0  0  0  0  0  0  0  0  0  # atno 10718 bound_to 10713
  153.1068  135.4787  154.8965 H   0  0  0  0  0  0  0  0  0  0  0  0  # atno 10763 bound_to 10752
  154.7438  135.3089  154.8683 H   0  0  0  0  0  0  0  0  0  0  0  0  # atno 10764 bound_to 10752
  153.9283  135.6847  153.4799 H   0  0  0  0  0  0  0  0  0  0  0  0  # atno 10765 bound_to 10752
  140.7834  133.8344  155.9313 H   0  0  0  0  0  0  0  0  0  0  0  0  # atno 11005 bound_to 11000
  146.2823  140.4528  142.8771 LP  0  0  0  0  0  0  0  0  0  0  0  0  # atno 17320 bound_to 7965
  144.8478  140.6955  143.6188 LP  0  0  0  0  0  0  0  0  0  0  0  0  # atno 17321 bound_to 7965
  139.4819  144.6029  151.7573 LP  0  0  0  0  0  0  0  0  0  0  0  0  # atno 17342 bound_to 10162
  140.5167  144.0942  150.6010 LP  0  0  0  0  0  0  0  0  0  0  0  0  # atno 17343 bound_to 10162
  156.9704  130.9833  151.3460 LP  0  0  0  0  0  0  0  0  0  0  0  0  # atno 17370 bound_to 10713
  157.5667  130.8283  149.8337 LP  0  0  0  0  0  0  0  0  0  0  0  0  # atno 17371 bound_to 10713
  140.9460  134.1840  157.4763 LP  0  0  0  0  0  0  0  0  0  0  0  0  # atno 17394 bound_to 11000
  139.8739  134.9890  156.5440 LP  0  0  0  0  0  0  0  0  0  0  0  0  # atno 17395 bound_to 11000

$$$$
