AV-unprocessed.smi:910|AV-procd|sdf|4127|dock7
  -GOLD-   22720 2 33D 1   1.00000     0.00000
 Structure written by MMmdl.
 46 47  0  0  0  0  0  0  0  0  1 V2000
  147.1520  133.5149  161.3631 C   0  0  0  0  0  0  0  0  0  0  0  0
  147.2301  134.9483  160.8862 C   0  0  0  0  0  0  0  0  0  0  0  0
  148.2825  135.4107  160.1456 N   0  0  0  0  0  0  0  0  0  0  0  0
  148.0606  136.7569  159.8645 C   0  0  0  0  0  0  0  0  0  0  0  0
  148.7399  137.6467  159.2076 N   0  0  0  0  0  0  0  0  0  0  0  0
  149.9401  137.2965  158.6057 C   0  0  0  0  0  0  0  0  0  0  0  0
  150.5530  136.2268  158.6809 O   0  0  0  0  0  0  0  0  0  0  0  0
  150.4142  138.3281  157.8919 N   0  0  0  0  0  0  0  0  0  0  0  0
  151.6696  138.3420  157.1478 C   0  0  0  0  0  0  0  0  0  0  0  0
  152.6056  139.4579  157.6338 C   0  0  0  0  0  0  0  0  0  0  0  0
  151.9060  140.2681  158.5666 O   0  0  0  0  0  0  0  0  0  0  0  0
  152.2589  141.6450  158.5338 C   0  0  1  0  0  0  0  0  0  0  0  0
  151.3338  142.3892  157.5483 C   0  0  0  0  0  0  0  0  0  0  0  0
  151.5797  143.9047  157.5796 C   0  0  0  0  0  0  0  0  0  0  0  0
  151.4208  144.4580  159.0026 C   0  0  0  0  0  0  0  0  0  0  0  0
  152.3472  143.7266  159.9860 C   0  0  0  0  0  0  0  0  0  0  0  0
  152.1134  142.2023  159.9678 C   0  0  2  0  0  0  0  0  0  0  0  0
  153.0625  141.4950  160.9501 C   0  0  0  0  0  0  0  0  0  0  0  0
  146.8641  137.0780  160.4547 O   0  0  0  0  0  0  0  0  0  0  0  0
  146.3835  135.9590  161.0653 C   0  0  0  0  0  0  0  0  0  0  0  0
  145.0629  136.0394  161.7970 C   0  0  0  0  0  0  0  0  0  0  0  0
  147.0963  133.4822  162.4514 H   0  0  0  0  0  0  0  0  0  0  0  0
  148.0283  132.9488  161.0461 H   0  0  0  0  0  0  0  0  0  0  0  0
  146.2638  133.0301  160.9572 H   0  0  0  0  0  0  0  0  0  0  0  0
  149.0662  134.8368  159.8695 H   0  0  0  0  0  0  0  0  0  0  0  0
  149.8702  139.1788  157.8777 H   0  0  0  0  0  0  0  0  0  0  0  0
  152.1622  137.3721  157.2311 H   0  0  0  0  0  0  0  0  0  0  0  0
  151.4415  138.4839  156.0912 H   0  0  0  0  0  0  0  0  0  0  0  0
  153.4977  139.0296  158.0933 H   0  0  0  0  0  0  0  0  0  0  0  0
  152.9342  140.0562  156.7839 H   0  0  0  0  0  0  0  0  0  0  0  0
  153.2987  141.7654  158.2230 H   0  0  0  0  0  0  0  0  0  0  0  0
  151.4815  142.0221  156.5329 H   0  0  0  0  0  0  0  0  0  0  0  0
  150.2923  142.1856  157.8011 H   0  0  0  0  0  0  0  0  0  0  0  0
  152.5835  144.1210  157.2116 H   0  0  0  0  0  0  0  0  0  0  0  0
  150.8866  144.4081  156.9051 H   0  0  0  0  0  0  0  0  0  0  0  0
  151.6377  145.5266  159.0126 H   0  0  0  0  0  0  0  0  0  0  0  0
  150.3843  144.3492  159.3249 H   0  0  0  0  0  0  0  0  0  0  0  0
  153.3861  143.9430  159.7328 H   0  0  0  0  0  0  0  0  0  0  0  0
  152.1885  144.1160  160.9923 H   0  0  0  0  0  0  0  0  0  0  0  0
  151.0916  142.0169  160.3024 H   0  0  0  0  0  0  0  0  0  0  0  0
  154.1051  141.6266  160.6586 H   0  0  0  0  0  0  0  0  0  0  0  0
  152.8640  140.4237  160.9942 H   0  0  0  0  0  0  0  0  0  0  0  0
  152.9471  141.8895  161.9600 H   0  0  0  0  0  0  0  0  0  0  0  0
  144.4828  135.1299  161.6387 H   0  0  0  0  0  0  0  0  0  0  0  0
  144.4793  136.8873  161.4387 H   0  0  0  0  0  0  0  0  0  0  0  0
  145.2321  136.1616  162.8669 H   0  0  0  0  0  0  0  0  0  0  0  0
  1 22  1  0  0  0  0
  1 23  1  0  0  0  0
  1 24  1  0  0  0  0
  1  2  1  0  0  0  0
  2  3  1  0  0  0  0
  2 20  2  0  0  0  0
  3 25  1  0  0  0  0
  3  4  1  0  0  0  0
  4 19  1  0  0  0  0
  4  5  2  0  0  0  0
  5  6  1  0  0  0  0
  6  8  1  0  0  0  0
  6  7  2  0  0  0  0
  8  9  1  0  0  0  0
  8 26  1  0  0  0  0
  9 10  1  0  0  0  0
  9 27  1  0  0  0  0
  9 28  1  0  0  0  0
 10 11  1  0  0  0  0
 10 29  1  0  0  0  0
 10 30  1  0  0  0  0
 11 12  1  0  0  0  0
 12 17  1  0  0  0  0
 12 13  1  0  0  0  0
 12 31  1  0  0  0  0
 13 14  1  0  0  0  0
 13 32  1  0  0  0  0
 13 33  1  0  0  0  0
 14 15  1  0  0  0  0
 14 34  1  0  0  0  0
 14 35  1  0  0  0  0
 15 16  1  0  0  0  0
 15 36  1  0  0  0  0
 15 37  1  0  0  0  0
 16 17  1  0  0  0  0
 16 38  1  0  0  0  0
 16 39  1  0  0  0  0
 17 18  1  0  0  0  0
 17 40  1  0  0  0  0
 18 41  1  0  0  0  0
 18 42  1  0  0  0  0
 18 43  1  0  0  0  0
 19 20  1  0  0  0  0
 20 21  1  0  0  0  0
 21 44  1  0  0  0  0
 21 45  1  0  0  0  0
 21 46  1  0  0  0  0
M  END
> <s_m_source_file>
AV-unprocessed.smi

> <i_m_source_file_index>
910

> <i_lp_mmshare_version>
43012

> <i_f3d_flags>
0

> <s_epik_input>
W0NIM11jMW5jKG9jMVtDSDNdKVtOSF1DKD1PKVtOSF1bQ0gyXVtDSDJdT1tDQEBIXTJbQ0gyXVtDSDJdW0NIMl1bQ0gyXVtDQEhdMltDSDNd

> <s_epik_cmdline>
J2VwaWtfcHl0aG9uJywgJy1waCcsICc3LjAnLCAnLXRuJywgJzgnLCAnLW1hJywgJzIwMCcsICctbWV0YWxfYmluZGluZycsICctaW1hZScsICc8aW5maWxlLm1hZT4nLCAnLW9tYWUnLCAnPG91dGZpbGUubWFlPic=

> <r_lp_tautomer_probability>
0.107061

> <r_epik_Ionization_Penalty>
0.727192

> <r_epik_Ionization_Penalty_Charging>
0.726719

> <r_epik_Ionization_Penalty_Neutral>
0.000473387

> <r_epik_State_Penalty>
2.53712

> <r_epik_Charging_Adjusted_Penalty>
3.26383

> <i_epik_Tot_Q>
0

> <i_epik_Tot_abs_Q>
0

> <r_epik_Metal_State_Penalty>
3.71015

> <b_epik_Metal_Only>
0

> <s_lp_Force_Field>
OPLS_2005

> <r_lp_Energy>
31.2477

> <b_lp_Chiralities_Consistent>
1

> <s_lp_Variant>
AV-unprocessed.smi:910-12

> <Gold.Version>
5.8.1

> <Gold.Id.Protein>
6NUR|6NUR_protein|mol2

> <Gold.PLP.Fitness>
44.4162

> <Gold.PLP.PLP>
-40.3986

> <Gold.PLP.part.hbond>
-4.2228

> <Gold.PLP.part.metal>
0.0000

> <Gold.PLP.part.buried>
-3.3385

> <Gold.PLP.part.nonpolar>
-33.0635

> <Gold.PLP.part.repulsive>
0.2253

> <Gold.PLP.ligand.clash>
0.0000

> <Gold.PLP.ligand.torsion>
0.9961

> <Gold.PLP.Chemscore.Hbond>
2.0000

> <Gold.PLP.Chemscore.CHOScore>
0.0000

> <Gold.PLP.Chemscore.Metal>
0.0000

> <Gold.Chemscore.Hbonds>
donor molecule, donor type, donor heavy atom, donor atom, acceptor molecule, acceptor atom, score
      P1  H  6896  6908       L1     7  0.96
      P1  H  6934  6947       L1    19  1.00

> <Gold.PLP.Chemscore.Internal.Correction>
0.0098

> <Gold.Rescore>
     Score         DG    S(hbond)    S(metal)    S(lipo)     H(rot)  DE(clash)    DE(int)     intcor
     16.87     -19.09       1.33        0.00     114.74       1.66       0.10       2.12       ----

> <Gold.Chemscore.Fitness>
16.8709

> <Gold.Chemscore.DG>
-19.0930

> <Gold.Chemscore.ZeroCoef>
-5.4800

> <Gold.Chemscore.Hbond>
1.3269

> <Gold.Chemscore.Metal>
0.0000

> <Gold.Chemscore.Lipo>
114.7399

> <Gold.Chemscore.Internal_Hbond>
0.0000

> <Gold.Chemscore.DEClash>
0.1014

> <Gold.Chemscore.DEInternal>
2.1208

> <Gold.Chemscore.Rot>
1.6576

> <Gold.Chemscore.Internal.Correction>
   9.000000E+99

> <Gold.Chemscore.Hbonds>
donor molecule, donor type, donor heavy atom, donor atom, acceptor molecule, acceptor atom, score
      P1  H  6896  6908       L1     7  0.92
      P1  H  6934  6947       L1    19  0.28

> <Gold.Chemscore.Hbond.Weighted>
-4.4320

> <Gold.Chemscore.Metal.Weighted>
-0.0000

> <Gold.Chemscore.Lipo.Weighted>
-13.4246

> <Gold.Chemscore.Internal_Hbond.Weighted>
0.0000

> <Gold.Chemscore.DEClash.Weighted>
0.1014

> <Gold.Chemscore.DEInternal.Weighted>
2.1208

> <Gold.Chemscore.Rot.Weighted>
4.2436

> <Gold.Chemscore.Internal.Correction.Weighted>
   9.000000E+99

> <Gold.Protein.RotatedTorsions>
[ 6907 6896 6895 6894 ] final -156.67 input  -60.11 | X-H torsion
[ 7974 7965 7964 7962 ] final   -8.60 input  175.53 | X-H torsion
[ 8008 7997 7996 7995 ] final   15.33 input   59.86 | X-H torsion
[ 10167 10162 10161 10158 ] final -150.76 input  -65.29 | X-H torsion
[ 10718 10713 10712 10709 ] final  -17.86 input   66.30 | X-H torsion
[ 10763 10752 10751 10750 ] final   59.64 input  -60.55 | X-H torsion
[ 11005 11000 10999 10996 ] final   24.48 input  -57.11 | X-H torsion

> <Gold.Protein.ActiveResidues>
 VAL166  LYS551  ARG553  GLY616  TRP617  ASP618  TYR619  PRO620  LYS621  CYS622 
 ASP623  PHE694  ASN695  SER759  ASP760  ASP761  ALA762  ILE779  LEU786  VAL792 
 PHE793  MET794  SER795  GLU796  ALA797  LYS798  CYS799  TRP800  GLU811  SER814 

> <Gold.Protein.RotatedAtoms>
  151.2911  133.4165  159.2632 H   0  0  0  0  0  0  0  0  0  0  0  0  # atno 6907 bound_to 6896
  151.0276  134.9516  159.8104 H   0  0  0  0  0  0  0  0  0  0  0  0  # atno 6908 bound_to 6896
  152.5338  134.2873  159.9082 H   0  0  0  0  0  0  0  0  0  0  0  0  # atno 6909 bound_to 6896
  146.2276  140.2492  142.8346 H   0  0  0  0  0  0  0  0  0  0  0  0  # atno 7974 bound_to 7965
  154.8611  140.2944  155.5538 H   0  0  0  0  0  0  0  0  0  0  0  0  # atno 8008 bound_to 7997
  156.3019  140.2478  156.3518 H   0  0  0  0  0  0  0  0  0  0  0  0  # atno 8009 bound_to 7997
  154.8917  140.0394  157.1831 H   0  0  0  0  0  0  0  0  0  0  0  0  # atno 8010 bound_to 7997
  139.7326  143.8784  152.2539 H   0  0  0  0  0  0  0  0  0  0  0  0  # atno 10167 bound_to 10162
  156.5676  130.4741  149.6378 H   0  0  0  0  0  0  0  0  0  0  0  0  # atno 10718 bound_to 10713
  152.9900  135.5564  154.5746 H   0  0  0  0  0  0  0  0  0  0  0  0  # atno 10763 bound_to 10752
  154.5139  135.2804  155.1321 H   0  0  0  0  0  0  0  0  0  0  0  0  # atno 10764 bound_to 10752
  154.2702  135.6364  153.5360 H   0  0  0  0  0  0  0  0  0  0  0  0  # atno 10765 bound_to 10752
  140.3583  134.2153  155.7674 H   0  0  0  0  0  0  0  0  0  0  0  0  # atno 11005 bound_to 11000
  144.9425  140.8093  143.5622 LP  0  0  0  0  0  0  0  0  0  0  0  0  # atno 17320 bound_to 7965
  145.2445  139.2058  143.4975 LP  0  0  0  0  0  0  0  0  0  0  0  0  # atno 17321 bound_to 7965
  139.8712  144.7067  150.8986 LP  0  0  0  0  0  0  0  0  0  0  0  0  # atno 17342 bound_to 10162
  140.7774  143.3737  151.1602 LP  0  0  0  0  0  0  0  0  0  0  0  0  # atno 17343 bound_to 10162
  156.2743  130.7035  151.1841 LP  0  0  0  0  0  0  0  0  0  0  0  0  # atno 17370 bound_to 10713
  157.7355  131.0571  150.5465 LP  0  0  0  0  0  0  0  0  0  0  0  0  # atno 17371 bound_to 10713
  141.1992  133.8018  157.0548 LP  0  0  0  0  0  0  0  0  0  0  0  0  # atno 17394 bound_to 11000
  140.0647  134.9735  157.1366 LP  0  0  0  0  0  0  0  0  0  0  0  0  # atno 17395 bound_to 11000

$$$$
