AV-unprocessed.smi:229|AV-procd|sdf|1748|dock1
  -GOLD-   2262020263D 1   1.00000     0.00000
 Structure written by MMmdl.
 58 62  0  0  0  0  0  0  0  0  1 V2000
  145.4945  136.6110  156.6282 C   0  0  0  0  0  0  0  0  0  0  0  0
  146.2355  135.2684  156.6496 C   0  0  0  0  0  0  0  0  0  0  0  0
  147.5015  135.2714  155.7800 C   0  0  1  0  0  0  0  0  0  0  0  0
  148.5547  136.2616  156.3048 C   0  0  0  0  0  0  0  0  0  0  0  0
  149.7806  136.1450  155.5227 N   0  0  0  0  0  0  0  0  0  0  0  0
  150.7118  137.1241  155.6435 C   0  0  0  0  0  0  0  0  0  0  0  0
  151.7426  137.1973  154.7589 N   0  0  0  0  0  0  0  0  0  0  0  0
  152.6569  138.1661  154.8658 C   0  0  0  0  0  0  0  0  0  0  0  0
  152.7326  139.1457  155.7685 N   0  0  0  0  0  0  0  0  0  0  0  0
  151.7069  139.0728  156.6638 C   0  0  0  0  0  0  0  0  0  0  0  0
  150.6628  138.1052  156.6737 C   0  0  0  0  0  0  0  0  0  0  0  0
  149.8046  138.3475  157.7405 N   0  0  0  0  0  0  0  0  0  0  0  0
  150.3069  139.4029  158.3214 C   0  0  0  0  0  0  0  0  0  0  0  0
  151.4487  139.9040  157.7393 N   0  0  0  0  0  0  0  0  0  0  0  0
  152.2078  141.0626  158.1766 C   0  0  0  0  0  0  0  0  0  0  0  0
  151.4983  141.8348  159.3059 C   0  0  2  0  0  0  0  0  0  0  0  0
  150.4799  142.6663  158.7810 O   0  0  0  0  0  0  0  0  0  0  0  0
  152.4719  142.6565  160.1757 C   0  0  2  0  0  0  0  0  0  0  0  0
  153.4976  141.8444  160.9857 C   0  0  0  0  0  0  0  0  0  0  0  0
  153.2150  142.2413  162.4235 C   0  0  0  0  0  0  0  0  0  0  0  0
  152.5686  143.6119  162.2703 C   0  0  0  0  0  0  0  0  0  0  0  0
  151.7607  143.4577  161.1156 O   0  0  0  0  0  0  0  0  0  0  0  0
  150.3186  134.7898  155.5156 C   0  0  0  0  0  0  0  0  0  0  0  0
  149.2569  133.7807  155.0300 C   0  0  1  0  0  0  0  0  0  0  0  0
  149.0113  133.8057  153.5243 C   0  0  0  0  0  0  0  0  0  0  0  0
  148.4617  132.4108  153.2692 C   0  0  0  0  0  0  0  0  0  0  0  0
  149.2518  131.5790  154.1046 O   0  0  0  0  0  0  0  0  0  0  0  0
  149.6972  132.3223  155.2373 C   0  0  0  0  0  0  0  0  0  0  0  0
  148.0506  133.9525  155.7836 O   0  0  0  0  0  0  0  0  0  0  0  0
  144.6118  136.5770  157.2668 H   0  0  0  0  0  0  0  0  0  0  0  0
  145.1653  136.8657  155.6204 H   0  0  0  0  0  0  0  0  0  0  0  0
  146.1330  137.4191  156.9861 H   0  0  0  0  0  0  0  0  0  0  0  0
  146.5063  135.0347  157.6800 H   0  0  0  0  0  0  0  0  0  0  0  0
  145.5634  134.4747  156.3212 H   0  0  0  0  0  0  0  0  0  0  0  0
  147.2167  135.5579  154.7680 H   0  0  0  0  0  0  0  0  0  0  0  0
  148.1649  137.2789  156.2439 H   0  0  0  0  0  0  0  0  0  0  0  0
  148.7739  136.0583  157.3542 H   0  0  0  0  0  0  0  0  0  0  0  0
  153.4391  138.1552  154.1212 H   0  0  0  0  0  0  0  0  0  0  0  0
  149.8554  139.8485  159.1959 H   0  0  0  0  0  0  0  0  0  0  0  0
  153.1877  140.7213  158.5124 H   0  0  0  0  0  0  0  0  0  0  0  0
  152.3829  141.7105  157.3167 H   0  0  0  0  0  0  0  0  0  0  0  0
  151.0017  141.1126  159.9551 H   0  0  0  0  0  0  0  0  0  0  0  0
  150.8297  143.1381  158.0408 H   0  0  0  0  0  0  0  0  0  0  0  0
  153.0186  143.3438  159.5281 H   0  0  0  0  0  0  0  0  0  0  0  0
  153.4206  140.7669  160.8388 H   0  0  0  0  0  0  0  0  0  0  0  0
  154.5090  142.1407  160.7051 H   0  0  0  0  0  0  0  0  0  0  0  0
  152.5020  141.5449  162.8666 H   0  0  0  0  0  0  0  0  0  0  0  0
  154.1087  142.2576  163.0476 H   0  0  0  0  0  0  0  0  0  0  0  0
  151.9778  143.9002  163.1398 H   0  0  0  0  0  0  0  0  0  0  0  0
  153.3209  144.3816  162.0909 H   0  0  0  0  0  0  0  0  0  0  0  0
  151.2131  134.7135  154.8980 H   0  0  0  0  0  0  0  0  0  0  0  0
  150.6234  134.5405  156.5332 H   0  0  0  0  0  0  0  0  0  0  0  0
  148.3455  134.5939  153.1777 H   0  0  0  0  0  0  0  0  0  0  0  0
  149.9568  133.9228  152.9926 H   0  0  0  0  0  0  0  0  0  0  0  0
  147.4173  132.3451  153.5775 H   0  0  0  0  0  0  0  0  0  0  0  0
  148.5318  132.1123  152.2233 H   0  0  0  0  0  0  0  0  0  0  0  0
  150.7838  132.2394  155.2797 H   0  0  0  0  0  0  0  0  0  0  0  0
  149.3007  131.8994  156.1612 H   0  0  0  0  0  0  0  0  0  0  0  0
  1  2  1  0  0  0  0
  1 30  1  0  0  0  0
  1 31  1  0  0  0  0
  1 32  1  0  0  0  0
  2  3  1  0  0  0  0
  2 33  1  0  0  0  0
  2 34  1  0  0  0  0
  3 29  1  0  0  0  0
  3  4  1  0  0  0  0
  3 35  1  0  0  0  0
  4  5  1  0  0  0  0
  4 36  1  0  0  0  0
  4 37  1  0  0  0  0
  5  6  1  0  0  0  0
  5 23  1  0  0  0  0
  6 11  1  0  0  0  0
  6  7  2  0  0  0  0
  7  8  1  0  0  0  0
  8  9  2  0  0  0  0
  8 38  1  0  0  0  0
  9 10  1  0  0  0  0
 10 14  1  0  0  0  0
 10 11  2  0  0  0  0
 11 12  1  0  0  0  0
 12 13  2  0  0  0  0
 13 14  1  0  0  0  0
 13 39  1  0  0  0  0
 14 15  1  0  0  0  0
 15 16  1  0  0  0  0
 15 40  1  0  0  0  0
 15 41  1  0  0  0  0
 16 17  1  0  0  0  0
 16 18  1  0  0  0  0
 16 42  1  0  0  0  0
 17 43  1  0  0  0  0
 18 22  1  0  0  0  0
 18 19  1  0  0  0  0
 18 44  1  0  0  0  0
 19 20  1  0  0  0  0
 19 45  1  0  0  0  0
 19 46  1  0  0  0  0
 20 21  1  0  0  0  0
 20 47  1  0  0  0  0
 20 48  1  0  0  0  0
 21 22  1  0  0  0  0
 21 49  1  0  0  0  0
 21 50  1  0  0  0  0
 23 24  1  0  0  0  0
 23 51  1  0  0  0  0
 23 52  1  0  0  0  0
 24 28  1  0  0  0  0
 24 25  1  0  0  0  0
 24 29  1  0  0  0  0
 25 26  1  0  0  0  0
 25 53  1  0  0  0  0
 25 54  1  0  0  0  0
 26 27  1  0  0  0  0
 26 55  1  0  0  0  0
 26 56  1  0  0  0  0
 27 28  1  0  0  0  0
 28 57  1  0  0  0  0
 28 58  1  0  0  0  0
M  END
> <s_m_source_file>
AV-unprocessed.smi

> <i_m_source_file_index>
229

> <i_lp_mmshare_version>
43012

> <i_f3d_flags>
0

> <s_epik_input>
W0NIMl0xT1tDSDJdW0NIMl1bQ0BdMTJbQ0gyXU4oW0NIMl1bQ0BIXShPMilbQ0gyXVtDSDNdKWMobltjSF1uMyljKGMzNCluW2NIXW40W0NIMl1bQ0BIXShbT0hdKVtDQEBIXTVbQ0gyXVtDSDJdW0NIMl1PNQ==

> <s_epik_cmdline>
J2VwaWtfcHl0aG9uJywgJy1waCcsICc3LjAnLCAnLXRuJywgJzgnLCAnLW1hJywgJzIwMCcsICctbWV0YWxfYmluZGluZycsICctaW1hZScsICc8aW5maWxlLm1hZT4nLCAnLW9tYWUnLCAnPG91dGZpbGUubWFlPic=

> <r_lp_tautomer_probability>
1

> <r_epik_Ionization_Penalty>
0.00318402

> <r_epik_Ionization_Penalty_Charging>
0

> <r_epik_Ionization_Penalty_Neutral>
0.00318402

> <r_epik_State_Penalty>
0.00215642

> <r_epik_Charging_Adjusted_Penalty>
0.00215642

> <i_epik_Tot_Q>
0

> <i_epik_Tot_abs_Q>
0

> <r_epik_Metal_State_Penalty>
-0

> <b_epik_Metal_Only>
0

> <s_lp_Force_Field>
OPLS_2005

> <r_lp_Energy>
56.2374

> <b_lp_Chiralities_Consistent>
1

> <s_lp_Variant>
AV-unprocessed.smi:229-2

> <Gold.Version>
5.8.1

> <Gold.Id.Protein>
6NUR|6NUR_protein|mol2

> <Gold.PLP.Fitness>
50.3241

> <Gold.PLP.PLP>
-45.0526

> <Gold.PLP.part.hbond>
-2.6201

> <Gold.PLP.part.metal>
0.0000

> <Gold.PLP.part.buried>
-6.9063

> <Gold.PLP.part.nonpolar>
-34.7813

> <Gold.PLP.part.repulsive>
0.3954

> <Gold.PLP.ligand.clash>
0.0000

> <Gold.PLP.ligand.torsion>
0.5130

> <Gold.PLP.Chemscore.Hbond>
1.9760

> <Gold.PLP.Chemscore.CHOScore>
0.0000

> <Gold.PLP.Chemscore.Metal>
0.0000

> <Gold.Chemscore.Hbonds>
donor molecule, donor type, donor heavy atom, donor atom, acceptor molecule, acceptor atom, score
      P1  H  7997  8009       L1     9  1.00
      P1  H 10752 10764       L1     7  0.91

> <Gold.PLP.Chemscore.Internal.Correction>
0.3695

> <Gold.Rescore>
     Score         DG    S(hbond)    S(metal)    S(lipo)     H(rot)  DE(clash)    DE(int)     intcor
     13.98     -15.92       1.54        0.00      99.02       2.46       0.00       1.94       ----

> <Gold.Chemscore.Fitness>
13.9820

> <Gold.Chemscore.DG>
-15.9232

> <Gold.Chemscore.ZeroCoef>
-5.4800

> <Gold.Chemscore.Hbond>
1.5428

> <Gold.Chemscore.Metal>
0.0000

> <Gold.Chemscore.Lipo>
99.0211

> <Gold.Chemscore.Internal_Hbond>
0.0000

> <Gold.Chemscore.DEClash>
0.0023

> <Gold.Chemscore.DEInternal>
1.9389

> <Gold.Chemscore.Rot>
2.4591

> <Gold.Chemscore.Internal.Correction>
   9.000000E+99

> <Gold.Chemscore.Hbonds>
donor molecule, donor type, donor heavy atom, donor atom, acceptor molecule, acceptor atom, score
      P1  H  7997  8009       L1     9  0.91
      P1  H 10752 10764       L1     7  0.19

> <Gold.Chemscore.Hbond.Weighted>
-5.1531

> <Gold.Chemscore.Metal.Weighted>
-0.0000

> <Gold.Chemscore.Lipo.Weighted>
-11.5855

> <Gold.Chemscore.Internal_Hbond.Weighted>
0.0000

> <Gold.Chemscore.DEClash.Weighted>
0.0023

> <Gold.Chemscore.DEInternal.Weighted>
1.9389

> <Gold.Chemscore.Rot.Weighted>
6.2953

> <Gold.Chemscore.Internal.Correction.Weighted>
   9.000000E+99

> <Gold.Protein.RotatedTorsions>
[ 6907 6896 6895 6894 ] final -173.90 input  -60.11 | X-H torsion
[ 7974 7965 7964 7962 ] final  -91.90 input  175.53 | X-H torsion
[ 8008 7997 7996 7995 ] final -165.43 input   59.86 | X-H torsion
[ 10167 10162 10161 10158 ] final  106.73 input  -65.29 | X-H torsion
[ 10718 10713 10712 10709 ] final  -34.06 input   66.30 | X-H torsion
[ 10763 10752 10751 10750 ] final  -80.88 input  -60.55 | X-H torsion
[ 11005 11000 10999 10996 ] final -135.58 input  -57.11 | X-H torsion

> <Gold.Protein.ActiveResidues>
 VAL166  LYS551  ARG553  GLY616  TRP617  ASP618  TYR619  PRO620  LYS621  CYS622 
 ASP623  PHE694  ASN695  SER759  ASP760  ASP761  ALA762  ILE779  LEU786  VAL792 
 PHE793  MET794  SER795  GLU796  ALA797  LYS798  CYS799  TRP800  GLU811  SER814 

> <Gold.Protein.RotatedAtoms>
  151.5636  133.3399  159.2975 H   0  0  0  0  0  0  0  0  0  0  0  0  # atno 6907 bound_to 6896
  150.8408  134.7702  159.6942 H   0  0  0  0  0  0  0  0  0  0  0  0  # atno 6908 bound_to 6896
  152.4476  134.5469  159.9907 H   0  0  0  0  0  0  0  0  0  0  0  0  # atno 6909 bound_to 6896
  145.4069  140.9542  143.2256 H   0  0  0  0  0  0  0  0  0  0  0  0  # atno 7974 bound_to 7965
  155.8497  140.0961  157.1682 H   0  0  0  0  0  0  0  0  0  0  0  0  # atno 8008 bound_to 7997
  154.3985  140.1385  156.3891 H   0  0  0  0  0  0  0  0  0  0  0  0  # atno 8009 bound_to 7997
  155.7974  140.3454  155.5386 H   0  0  0  0  0  0  0  0  0  0  0  0  # atno 8010 bound_to 7997
  139.6985  144.7098  151.1226 H   0  0  0  0  0  0  0  0  0  0  0  0  # atno 10167 bound_to 10162
  156.3552  130.4315  149.7670 H   0  0  0  0  0  0  0  0  0  0  0  0  # atno 10718 bound_to 10713
  154.5567  135.5645  153.6970 H   0  0  0  0  0  0  0  0  0  0  0  0  # atno 10763 bound_to 10752
  153.0005  135.6264  154.2300 H   0  0  0  0  0  0  0  0  0  0  0  0  # atno 10764 bound_to 10752
  154.2237  135.2868  155.2895 H   0  0  0  0  0  0  0  0  0  0  0  0  # atno 10765 bound_to 10752
  140.8885  134.1842  157.4544 H   0  0  0  0  0  0  0  0  0  0  0  0  # atno 11005 bound_to 11000
  144.8335  139.5588  143.6933 LP  0  0  0  0  0  0  0  0  0  0  0  0  # atno 17320 bound_to 7965
  146.2724  139.6668  142.9287 LP  0  0  0  0  0  0  0  0  0  0  0  0  # atno 17321 bound_to 7965
  140.7703  143.5458  150.9261 LP  0  0  0  0  0  0  0  0  0  0  0  0  # atno 17342 bound_to 10162
  139.9138  143.6688  152.3110 LP  0  0  0  0  0  0  0  0  0  0  0  0  # atno 17343 bound_to 10162
  156.4856  130.8061  151.3073 LP  0  0  0  0  0  0  0  0  0  0  0  0  # atno 17370 bound_to 10713
  157.7466  130.9992  150.2880 LP  0  0  0  0  0  0  0  0  0  0  0  0  # atno 17371 bound_to 10713
  139.8727  134.9848  156.5256 LP  0  0  0  0  0  0  0  0  0  0  0  0  # atno 17394 bound_to 11000
  140.8375  133.8230  155.9043 LP  0  0  0  0  0  0  0  0  0  0  0  0  # atno 17395 bound_to 11000

$$$$
