AV-unprocessed.smi:3099|AV-procd|sdf|11803|dock5
  -GOLD-   2272017183D 1   1.00000     0.00000
 Structure written by MMmdl.
 32 33  0  0  0  0  0  0  0  0  1 V2000
  152.6851  142.4345  160.5087 C   0  0  0  0  0  0  0  0  0  0  0  0
  152.1599  143.5002  159.6786 N   0  0  0  0  0  0  0  0  0  0  0  0
  152.3617  144.8140  159.8476 C   0  0  0  0  0  0  0  0  0  0  0  0
  151.7706  145.5836  158.9440 N   0  0  0  0  0  0  0  0  0  0  0  0
  151.1270  144.6759  158.1082 C   0  0  0  0  0  0  0  0  0  0  0  0
  151.3600  143.3896  158.5431 C   0  0  0  0  0  0  0  0  0  0  0  0
  150.8963  142.0884  157.9618 C   0  0  0  0  0  0  0  0  0  0  0  0
  151.1025  141.9502  156.4414 C   0  0  0  0  0  0  0  0  0  0  0  0
  149.8570  142.1213  155.6973 N   0  0  0  0  0  0  0  0  0  0  0  0
  149.4003  141.3011  154.7375 C   0  0  0  0  0  0  0  0  0  0  0  0
  149.9919  140.2815  154.3809 O   0  0  0  0  0  0  0  0  0  0  0  0
  148.0820  141.7100  154.0750 C   0  0  0  0  0  0  0  0  0  0  0  0
  147.0294  142.1748  155.0676 C   0  0  0  0  0  0  0  0  0  0  0  0
  145.6108  141.6529  155.0062 C   0  0  0  0  0  0  0  0  0  0  0  0
  145.9038  143.0845  154.6306 C   0  0  0  0  0  0  0  0  0  0  0  0
  152.9436  142.8212  161.4950 H   0  0  0  0  0  0  0  0  0  0  0  0
  153.5800  142.0178  160.0465 H   0  0  0  0  0  0  0  0  0  0  0  0
  151.9412  141.6470  160.6268 H   0  0  0  0  0  0  0  0  0  0  0  0
  152.9574  145.2173  160.6535 H   0  0  0  0  0  0  0  0  0  0  0  0
  150.5547  145.0143  157.2571 H   0  0  0  0  0  0  0  0  0  0  0  0
  151.3963  141.2633  158.4696 H   0  0  0  0  0  0  0  0  0  0  0  0
  149.8357  141.9650  158.1830 H   0  0  0  0  0  0  0  0  0  0  0  0
  151.8567  142.6594  156.0977 H   0  0  0  0  0  0  0  0  0  0  0  0
  151.4999  140.9604  156.2169 H   0  0  0  0  0  0  0  0  0  0  0  0
  149.3047  142.9364  155.9207 H   0  0  0  0  0  0  0  0  0  0  0  0
  148.2566  142.5089  153.3533 H   0  0  0  0  0  0  0  0  0  0  0  0
  147.7015  140.8539  153.5164 H   0  0  0  0  0  0  0  0  0  0  0  0
  147.4224  142.3537  156.0669 H   0  0  0  0  0  0  0  0  0  0  0  0
  145.3590  140.9636  154.2022 H   0  0  0  0  0  0  0  0  0  0  0  0
  145.1028  141.4728  155.9513 H   0  0  0  0  0  0  0  0  0  0  0  0
  145.5884  143.8611  155.3244 H   0  0  0  0  0  0  0  0  0  0  0  0
  145.8411  143.3481  153.5767 H   0  0  0  0  0  0  0  0  0  0  0  0
  1  2  1  0  0  0  0
  1 16  1  0  0  0  0
  1 17  1  0  0  0  0
  1 18  1  0  0  0  0
  2  6  1  0  0  0  0
  2  3  1  0  0  0  0
  3  4  2  0  0  0  0
  3 19  1  0  0  0  0
  4  5  1  0  0  0  0
  5  6  2  0  0  0  0
  5 20  1  0  0  0  0
  6  7  1  0  0  0  0
  7  8  1  0  0  0  0
  7 21  1  0  0  0  0
  7 22  1  0  0  0  0
  8  9  1  0  0  0  0
  8 23  1  0  0  0  0
  8 24  1  0  0  0  0
  9 10  1  0  0  0  0
  9 25  1  0  0  0  0
 10 11  2  0  0  0  0
 10 12  1  0  0  0  0
 12 13  1  0  0  0  0
 12 26  1  0  0  0  0
 12 27  1  0  0  0  0
 13 15  1  0  0  0  0
 13 14  1  0  0  0  0
 13 28  1  0  0  0  0
 14 15  1  0  0  0  0
 14 29  1  0  0  0  0
 14 30  1  0  0  0  0
 15 31  1  0  0  0  0
 15 32  1  0  0  0  0
M  END
> <s_m_source_file>
AV-unprocessed.smi

> <i_m_source_file_index>
3099

> <i_lp_mmshare_version>
43012

> <i_f3d_flags>
0

> <s_epik_input>
W0NIM11uMVtjSF1uW2NIXWMxW0NIMl1bQ0gyXVtOSF1DKD1PKVtDSDJdW0NIXTJbQ0gyXVtDSDJdMg==

> <s_epik_cmdline>
J2VwaWtfcHl0aG9uJywgJy1waCcsICc3LjAnLCAnLXRuJywgJzgnLCAnLW1hJywgJzIwMCcsICctbWV0YWxfYmluZGluZycsICctaW1hZScsICc8aW5maWxlLm1hZT4nLCAnLW9tYWUnLCAnPG91dGZpbGUubWFlPic=

> <r_lp_tautomer_probability>
1

> <r_epik_Ionization_Penalty>
0.86664

> <r_epik_Ionization_Penalty_Charging>
0.86664

> <r_epik_Ionization_Penalty_Neutral>
2.48486e-08

> <r_epik_State_Penalty>
0.903601

> <r_epik_Charging_Adjusted_Penalty>
1.77024

> <i_epik_Tot_Q>
0

> <i_epik_Tot_abs_Q>
0

> <r_epik_Metal_State_Penalty>
0.359833

> <b_epik_Metal_Only>
0

> <s_lp_Force_Field>
OPLS_2005

> <r_lp_Energy>
10.131

> <b_lp_Chiralities_Consistent>
1

> <s_lp_Variant>
AV-unprocessed.smi:3099-2

> <Gold.Version>
5.8.1

> <Gold.Id.Protein>
6NUR|6NUR_protein|mol2

> <Gold.PLP.Fitness>
45.0874

> <Gold.PLP.PLP>
-38.0143

> <Gold.PLP.part.hbond>
-3.0000

> <Gold.PLP.part.metal>
0.0000

> <Gold.PLP.part.buried>
-3.9325

> <Gold.PLP.part.nonpolar>
-30.8305

> <Gold.PLP.part.repulsive>
0.3819

> <Gold.PLP.ligand.clash>
0.0000

> <Gold.PLP.ligand.torsion>
1.1671

> <Gold.PLP.Chemscore.Hbond>
1.9440

> <Gold.PLP.Chemscore.CHOScore>
1.0000

> <Gold.PLP.Chemscore.Metal>
0.0000

> <Gold.Chemscore.Hbonds>
donor molecule, donor type, donor heavy atom, donor atom, acceptor molecule, acceptor atom, score
      L1  H     9    25       P1  8028  1.00
      P1  H  7989  7998       L1    11  0.93
      L1  C     5    20       P1  8028  1.00

> <Gold.PLP.Chemscore.Internal.Correction>
0.5753

> <Gold.Rescore>
     Score         DG    S(hbond)    S(metal)    S(lipo)     H(rot)  DE(clash)    DE(int)     intcor
     12.67     -13.99       1.56        0.00      69.85       1.91       0.11       1.21       ----

> <Gold.Chemscore.Fitness>
12.6701

> <Gold.Chemscore.DG>
-13.9851

> <Gold.Chemscore.ZeroCoef>
-5.4800

> <Gold.Chemscore.Hbond>
1.5647

> <Gold.Chemscore.Metal>
0.0000

> <Gold.Chemscore.Lipo>
69.8474

> <Gold.Chemscore.Internal_Hbond>
0.0000

> <Gold.Chemscore.DEClash>
0.1085

> <Gold.Chemscore.DEInternal>
1.2065

> <Gold.Chemscore.Rot>
1.9113

> <Gold.Chemscore.Internal.Correction>
   9.000000E+99

> <Gold.Chemscore.Hbonds>
donor molecule, donor type, donor heavy atom, donor atom, acceptor molecule, acceptor atom, score
      L1  H     9    25       P1  8028  0.95
      P1  H  7989  7998       L1    11  0.50

> <Gold.Chemscore.Hbond.Weighted>
-5.2259

> <Gold.Chemscore.Metal.Weighted>
-0.0000

> <Gold.Chemscore.Lipo.Weighted>
-8.1721

> <Gold.Chemscore.Internal_Hbond.Weighted>
0.0000

> <Gold.Chemscore.DEClash.Weighted>
0.1085

> <Gold.Chemscore.DEInternal.Weighted>
1.2065

> <Gold.Chemscore.Rot.Weighted>
4.8930

> <Gold.Chemscore.Internal.Correction.Weighted>
   9.000000E+99

> <Gold.Protein.RotatedTorsions>
[ 6907 6896 6895 6894 ] final -115.72 input  -60.11 | X-H torsion
[ 7974 7965 7964 7962 ] final  -78.16 input  175.53 | X-H torsion
[ 8008 7997 7996 7995 ] final   77.56 input   59.86 | X-H torsion
[ 10167 10162 10161 10158 ] final   21.29 input  -65.29 | X-H torsion
[ 10718 10713 10712 10709 ] final  138.80 input   66.30 | X-H torsion
[ 10763 10752 10751 10750 ] final  -85.11 input  -60.55 | X-H torsion
[ 11005 11000 10999 10996 ] final   -5.76 input  -57.11 | X-H torsion

> <Gold.Protein.ActiveResidues>
 VAL166  LYS551  ARG553  GLY616  TRP617  ASP618  TYR619  PRO620  LYS621  CYS622 
 ASP623  PHE694  ASN695  SER759  ASP760  ASP761  ALA762  ILE779  LEU786  VAL792 
 PHE793  MET794  SER795  GLU796  ALA797  LYS798  CYS799  TRP800  GLU811  SER814 

> <Gold.Protein.RotatedAtoms>
  150.8000  133.8618  159.3233 H   0  0  0  0  0  0  0  0  0  0  0  0  # atno 6907 bound_to 6896
  151.6433  135.1008  160.0155 H   0  0  0  0  0  0  0  0  0  0  0  0  # atno 6908 bound_to 6896
  152.4086  133.6888  159.6413 H   0  0  0  0  0  0  0  0  0  0  0  0  # atno 6909 bound_to 6896
  145.5901  140.9431  143.1297 H   0  0  0  0  0  0  0  0  0  0  0  0  # atno 7974 bound_to 7965
  155.8433  140.3461  155.5646 H   0  0  0  0  0  0  0  0  0  0  0  0  # atno 8008 bound_to 7997
  155.8117  140.0900  157.1920 H   0  0  0  0  0  0  0  0  0  0  0  0  # atno 8009 bound_to 7997
  154.4005  140.1446  156.3382 H   0  0  0  0  0  0  0  0  0  0  0  0  # atno 8010 bound_to 7997
  140.5438  143.9631  150.6535 H   0  0  0  0  0  0  0  0  0  0  0  0  # atno 10167 bound_to 10162
  157.4214  131.1039  151.0349 H   0  0  0  0  0  0  0  0  0  0  0  0  # atno 10718 bound_to 10713
  154.6073  135.5496  153.7436 H   0  0  0  0  0  0  0  0  0  0  0  0  # atno 10763 bound_to 10752
  153.0180  135.6381  154.1628 H   0  0  0  0  0  0  0  0  0  0  0  0  # atno 10764 bound_to 10752
  154.1567  135.2899  155.3100 H   0  0  0  0  0  0  0  0  0  0  0  0  # atno 10765 bound_to 10752
  140.6946  133.9042  155.8641 H   0  0  0  0  0  0  0  0  0  0  0  0  # atno 11005 bound_to 11000
  144.7355  139.7598  143.7331 LP  0  0  0  0  0  0  0  0  0  0  0  0  # atno 17320 bound_to 7965
  146.1653  139.4782  142.9962 LP  0  0  0  0  0  0  0  0  0  0  0  0  # atno 17321 bound_to 7965
  140.3039  143.3242  152.0945 LP  0  0  0  0  0  0  0  0  0  0  0  0  # atno 17342 bound_to 10162
  139.4999  144.6679  151.6311 LP  0  0  0  0  0  0  0  0  0  0  0  0  # atno 17343 bound_to 10162
  157.1278  130.6089  149.5521 LP  0  0  0  0  0  0  0  0  0  0  0  0  # atno 17370 bound_to 10713
  155.9882  130.4924  150.7159 LP  0  0  0  0  0  0  0  0  0  0  0  0  # atno 17371 bound_to 10713
  141.0213  134.0884  157.4117 LP  0  0  0  0  0  0  0  0  0  0  0  0  # atno 17394 bound_to 11000
  139.8914  135.0118  156.6787 LP  0  0  0  0  0  0  0  0  0  0  0  0  # atno 17395 bound_to 11000

$$$$
