AV-unprocessed.smi:3287|AV-procd|sdf|12593|dock4
  -GOLD-   2272018513D 1   1.00000     0.00000
 Structure written by MMmdl.
 43 44  0  0  0  0  0  0  0  0  2 V2000
  150.2289  141.4982  155.0576 C   0  0  0  0  0  0  0  0  0  0  0  0
  149.2198  140.8056  154.1271 C   0  0  1  0  0  0  0  0  0  0  0  0
  148.8538  139.3944  154.6267 C   0  0  0  0  0  0  0  0  0  0  0  0
  147.9114  138.6749  153.6482 C   0  0  0  0  0  0  0  0  0  0  0  0
  146.6401  139.5014  153.3639 C   0  0  2  0  0  0  0  0  0  0  0  0
  145.7783  138.8419  152.3581 N   0  3  0  0  0  0  0  0  0  0  0  0
  145.4849  137.4150  152.6126 C   0  0  0  0  0  0  0  0  0  0  0  0
  146.1719  136.5074  151.5773 C   0  0  2  0  0  0  0  0  0  0  0  0
  146.0181  137.0796  150.2927 O   0  0  0  0  0  0  0  0  0  0  0  0
  145.6155  135.0938  151.6338 C   0  0  0  0  0  0  0  0  0  0  0  0
  144.2385  134.8586  151.4369 C   0  0  0  0  0  0  0  0  0  0  0  0
  143.7673  133.5315  151.4899 C   0  0  0  0  0  0  0  0  0  0  0  0
  144.5684  132.4689  151.7183 N   0  0  0  0  0  0  0  0  0  0  0  0
  145.8856  132.6986  151.9041 C   0  0  0  0  0  0  0  0  0  0  0  0
  146.4582  133.9859  151.8705 C   0  0  0  0  0  0  0  0  0  0  0  0
  147.0200  140.9125  152.8723 C   0  0  0  0  0  0  0  0  0  0  0  0
  147.9540  141.6563  153.8503 C   0  0  1  0  0  0  0  0  0  0  0  0
  147.2065  142.1108  155.1205 C   0  0  0  0  0  0  0  0  0  0  0  0
  149.8458  141.5899  156.0739 H   0  0  0  0  0  0  0  0  0  0  0  0
  150.4738  142.4983  154.6989 H   0  0  0  0  0  0  0  0  0  0  0  0
  151.1596  140.9327  155.1114 H   0  0  0  0  0  0  0  0  0  0  0  0
  149.7282  140.6794  153.1697 H   0  0  0  0  0  0  0  0  0  0  0  0
  149.7602  138.8013  154.7542 H   0  0  0  0  0  0  0  0  0  0  0  0
  148.3895  139.4514  155.6115 H   0  0  0  0  0  0  0  0  0  0  0  0
  148.4418  138.4844  152.7141 H   0  0  0  0  0  0  0  0  0  0  0  0
  147.6537  137.6996  154.0606 H   0  0  0  0  0  0  0  0  0  0  0  0
  146.0635  139.6015  154.2843 H   0  0  0  0  0  0  0  0  0  0  0  0
  144.8913  139.3256  152.3492 H   0  0  0  0  0  0  0  0  0  0  0  0
  145.8356  137.1508  153.6104 H   0  0  0  0  0  0  0  0  0  0  0  0
  144.4057  137.2548  152.5995 H   0  0  0  0  0  0  0  0  0  0  0  0
  147.2414  136.4655  151.7890 H   0  0  0  0  0  0  0  0  0  0  0  0
  145.2267  137.5970  150.2882 H   0  0  0  0  0  0  0  0  0  0  0  0
  143.5536  135.6725  151.2490 H   0  0  0  0  0  0  0  0  0  0  0  0
  142.7187  133.3179  151.3427 H   0  0  0  0  0  0  0  0  0  0  0  0
  146.5029  131.8307  152.0829 H   0  0  0  0  0  0  0  0  0  0  0  0
  147.5199  134.1141  152.0223 H   0  0  0  0  0  0  0  0  0  0  0  0
  147.5164  140.8330  151.9037 H   0  0  0  0  0  0  0  0  0  0  0  0
  146.1195  141.5033  152.6991 H   0  0  0  0  0  0  0  0  0  0  0  0
  148.2782  142.5674  153.3455 H   0  0  0  0  0  0  0  0  0  0  0  0
  146.8997  141.2706  155.7426 H   0  0  0  0  0  0  0  0  0  0  0  0
  146.3081  142.6722  154.8628 H   0  0  0  0  0  0  0  0  0  0  0  0
  147.8240  142.7671  155.7333 H   0  0  0  0  0  0  0  0  0  0  0  0
  146.2029  138.9391  151.4469 H   0  0  0  0  0  0  0  0  0  0  0  0
  1  2  1  0  0  0  0
  1 19  1  0  0  0  0
  1 20  1  0  0  0  0
  1 21  1  0  0  0  0
  2 17  1  0  0  0  0
  2  3  1  0  0  0  0
  2 22  1  0  0  0  0
  3  4  1  0  0  0  0
  3 23  1  0  0  0  0
  3 24  1  0  0  0  0
  4  5  1  0  0  0  0
  4 25  1  0  0  0  0
  4 26  1  0  0  0  0
  5  6  1  0  0  0  0
  5 16  1  0  0  0  0
  5 27  1  0  0  0  0
  6  7  1  0  0  0  0
  6 28  1  0  0  0  0
  6 43  1  0  0  0  0
  7  8  1  0  0  0  0
  7 29  1  0  0  0  0
  7 30  1  0  0  0  0
  8  9  1  0  0  0  0
  8 10  1  0  0  0  0
  8 31  1  0  0  0  0
  9 32  1  0  0  0  0
 10 15  1  0  0  0  0
 10 11  2  0  0  0  0
 11 12  1  0  0  0  0
 11 33  1  0  0  0  0
 12 13  2  0  0  0  0
 12 34  1  0  0  0  0
 13 14  1  0  0  0  0
 14 15  2  0  0  0  0
 14 35  1  0  0  0  0
 15 36  1  0  0  0  0
 16 17  1  0  0  0  0
 16 37  1  0  0  0  0
 16 38  1  0  0  0  0
 17 18  1  0  0  0  0
 17 39  1  0  0  0  0
 18 40  1  0  0  0  0
 18 41  1  0  0  0  0
 18 42  1  0  0  0  0
M  CHG  1   6   1
M  END
> <s_m_source_file>
AV-unprocessed.smi

> <i_m_source_file_index>
3287

> <i_lp_mmshare_version>
43012

> <i_f3d_flags>
0

> <s_epik_input>
W0NIM11bQ0BASF0xW0NIMl1bQ0gyXVtDQEhdKFtDSDJdW0NASF0xW0NIM10pW05IXVtDSDJdW0NASF0oW09IXSljMltjSF1bY0hdbltjSF1bY0hdMg==

> <s_epik_cmdline>
J2VwaWtfcHl0aG9uJywgJy1waCcsICc3LjAnLCAnLXRuJywgJzgnLCAnLW1hJywgJzIwMCcsICctbWV0YWxfYmluZGluZycsICctaW1hZScsICc8aW5maWxlLm1hZT4nLCAnLW9tYWUnLCAnPG91dGZpbGUubWFlPic=

> <r_lp_tautomer_probability>
1

> <r_epik_Ionization_Penalty>
0.00537262

> <r_epik_Ionization_Penalty_Charging>
0.00321624

> <r_epik_Ionization_Penalty_Neutral>
0.00215638

> <r_epik_State_Penalty>
-0

> <r_epik_Charging_Adjusted_Penalty>
0.00321624

> <i_epik_Tot_Q>
1

> <i_epik_Tot_abs_Q>
1

> <r_epik_Metal_State_Penalty>
-0

> <b_epik_Metal_Only>
0

> <s_lp_Force_Field>
OPLS_2005

> <r_lp_Energy>
18.3798

> <b_lp_Chiralities_Consistent>
1

> <s_lp_Variant>
AV-unprocessed.smi:3287-4

> <Gold.Version>
5.8.1

> <Gold.Id.Protein>
6NUR|6NUR_protein|mol2

> <Gold.PLP.Fitness>
47.1349

> <Gold.PLP.PLP>
-31.6514

> <Gold.PLP.part.hbond>
-3.3012

> <Gold.PLP.part.metal>
0.0000

> <Gold.PLP.part.buried>
0.9077

> <Gold.PLP.part.nonpolar>
-27.8968

> <Gold.PLP.part.repulsive>
0.1442

> <Gold.PLP.ligand.clash>
0.0000

> <Gold.PLP.ligand.torsion>
0.5337

> <Gold.PLP.Chemscore.Hbond>
3.5376

> <Gold.PLP.Chemscore.CHOScore>
1.9729

> <Gold.PLP.Chemscore.Metal>
0.0000

> <Gold.Chemscore.Hbonds>
donor molecule, donor type, donor heavy atom, donor atom, acceptor molecule, acceptor atom, score
      L1  H     6    28       P1 10175  2.00
      L1  H     9    32       P1 10171  1.00
      P1  H  7954  7966       L1     9  0.23
      L1  C    12    34       P1 10186  0.55

> <Gold.PLP.Chemscore.Internal.Correction>
0.0196

> <Gold.Rescore>
     Score         DG    S(hbond)    S(metal)    S(lipo)     H(rot)  DE(clash)    DE(int)     intcor
     17.75     -19.60       2.72        0.00      84.58       1.90       1.44       0.41       ----

> <Gold.Chemscore.Fitness>
17.7499

> <Gold.Chemscore.DG>
-19.6015

> <Gold.Chemscore.ZeroCoef>
-5.4800

> <Gold.Chemscore.Hbond>
2.7242

> <Gold.Chemscore.Metal>
0.0000

> <Gold.Chemscore.Lipo>
84.5781

> <Gold.Chemscore.Internal_Hbond>
0.0000

> <Gold.Chemscore.DEClash>
1.4381

> <Gold.Chemscore.DEInternal>
0.4135

> <Gold.Chemscore.Rot>
1.9035

> <Gold.Chemscore.Internal.Correction>
   9.000000E+99

> <Gold.Chemscore.Hbonds>
donor molecule, donor type, donor heavy atom, donor atom, acceptor molecule, acceptor atom, score
      L1  H     6    28       P1 10175  1.00
      L1  H     9    32       P1 10171  1.00
      P1  H  7954  7966       L1     9  0.08

> <Gold.Chemscore.Hbond.Weighted>
-9.0987

> <Gold.Chemscore.Metal.Weighted>
-0.0000

> <Gold.Chemscore.Lipo.Weighted>
-9.8956

> <Gold.Chemscore.Internal_Hbond.Weighted>
0.0000

> <Gold.Chemscore.DEClash.Weighted>
1.4381

> <Gold.Chemscore.DEInternal.Weighted>
0.4135

> <Gold.Chemscore.Rot.Weighted>
4.8729

> <Gold.Chemscore.Internal.Correction.Weighted>
   9.000000E+99

> <Gold.Protein.RotatedTorsions>
[ 6907 6896 6895 6894 ] final  -56.84 input  -60.11 | X-H torsion
[ 7974 7965 7964 7962 ] final  179.80 input  175.53 | X-H torsion
[ 8008 7997 7996 7995 ] final    5.69 input   59.86 | X-H torsion
[ 10167 10162 10161 10158 ] final  -96.31 input  -65.29 | X-H torsion
[ 10718 10713 10712 10709 ] final  -65.30 input   66.30 | X-H torsion
[ 10763 10752 10751 10750 ] final  -91.03 input  -60.55 | X-H torsion
[ 11005 11000 10999 10996 ] final  169.73 input  -57.11 | X-H torsion

> <Gold.Protein.ActiveResidues>
 VAL166  LYS551  ARG553  GLY616  TRP617  ASP618  TYR619  PRO620  LYS621  CYS622 
 ASP623  PHE694  ASN695  SER759  ASP760  ASP761  ALA762  ILE779  LEU786  VAL792 
 PHE793  MET794  SER795  GLU796  ALA797  LYS798  CYS799  TRP800  GLU811  SER814 

> <Gold.Protein.RotatedAtoms>
  150.8135  134.7303  159.6708 H   0  0  0  0  0  0  0  0  0  0  0  0  # atno 6907 bound_to 6896
  152.4254  134.5875  159.9974 H   0  0  0  0  0  0  0  0  0  0  0  0  # atno 6908 bound_to 6896
  151.6078  133.3313  159.3097 H   0  0  0  0  0  0  0  0  0  0  0  0  # atno 6909 bound_to 6896
  144.7142  140.0603  143.6433 H   0  0  0  0  0  0  0  0  0  0  0  0  # atno 7974 bound_to 7965
  154.7315  140.2731  155.6452 H   0  0  0  0  0  0  0  0  0  0  0  0  # atno 8008 bound_to 7997
  156.2851  140.2715  156.1942 H   0  0  0  0  0  0  0  0  0  0  0  0  # atno 8009 bound_to 7997
  155.0375  140.0371  157.2487 H   0  0  0  0  0  0  0  0  0  0  0  0  # atno 8010 bound_to 7997
  140.2951  143.3197  152.0306 H   0  0  0  0  0  0  0  0  0  0  0  0  # atno 10167 bound_to 10162
  156.0677  130.4245  150.1545 H   0  0  0  0  0  0  0  0  0  0  0  0  # atno 10718 bound_to 10713
  154.6719  135.5283  153.8149 H   0  0  0  0  0  0  0  0  0  0  0  0  # atno 10763 bound_to 10752
  153.0507  135.6531  154.0712 H   0  0  0  0  0  0  0  0  0  0  0  0  # atno 10764 bound_to 10752
  154.0610  135.2961  155.3304 H   0  0  0  0  0  0  0  0  0  0  0  0  # atno 10765 bound_to 10752
  140.3009  134.7596  157.3915 H   0  0  0  0  0  0  0  0  0  0  0  0  # atno 11005 bound_to 11000
  145.9869  139.2985  143.1008 LP  0  0  0  0  0  0  0  0  0  0  0  0  # atno 17320 bound_to 7965
  145.8947  140.9281  143.0534 LP  0  0  0  0  0  0  0  0  0  0  0  0  # atno 17321 bound_to 7965
  139.4928  144.6497  151.6703 LP  0  0  0  0  0  0  0  0  0  0  0  0  # atno 17342 bound_to 10162
  140.5699  144.0126  150.6211 LP  0  0  0  0  0  0  0  0  0  0  0  0  # atno 17343 bound_to 10162
  156.9601  130.9802  151.3481 LP  0  0  0  0  0  0  0  0  0  0  0  0  # atno 17370 bound_to 10713
  157.5730  130.8323  149.8417 LP  0  0  0  0  0  0  0  0  0  0  0  0  # atno 17371 bound_to 10713
  140.1110  134.5345  155.8266 LP  0  0  0  0  0  0  0  0  0  0  0  0  # atno 17394 bound_to 11000
  141.2128  133.6724  156.6689 LP  0  0  0  0  0  0  0  0  0  0  0  0  # atno 17395 bound_to 11000

$$$$
