AV-unprocessed.smi:2144|AV-procd|sdf|8733|dock7
  -GOLD-   2272011503D 1   1.00000     0.00000
 Structure written by MMmdl.
 41 43  0  0  0  0  0  0  0  0  2 V2000
  149.1885  141.2022  153.6130 O   0  0  0  0  0  0  0  0  0  0  0  0
  148.5967  140.8951  154.8583 C   0  0  0  0  0  0  0  0  0  0  0  0
  149.4766  141.2168  156.0249 C   0  0  0  0  0  0  0  0  0  0  0  0
  149.9934  142.4409  156.3336 N   0  3  0  0  0  0  0  0  0  0  0  0
  150.7701  142.3507  157.4891 C   0  0  0  0  0  0  0  0  0  0  0  0
  151.4891  143.3191  158.1827 C   0  0  0  0  0  0  0  0  0  0  0  0
  152.1826  142.8888  159.3330 C   0  0  0  0  0  0  0  0  0  0  0  0
  152.1447  141.5432  159.7532 C   0  0  0  0  0  0  0  0  0  0  0  0
  151.4106  140.5707  159.0424 C   0  0  0  0  0  0  0  0  0  0  0  0
  150.7277  141.0049  157.9066 C   0  0  0  0  0  0  0  0  0  0  0  0
  149.9166  140.3443  156.9773 N   0  0  0  0  0  0  0  0  0  0  0  0
  149.6712  138.9021  157.1379 C   0  0  0  0  0  0  0  0  0  0  0  0
  148.5800  138.5888  158.1817 C   0  0  1  0  0  0  0  0  0  0  0  0
  147.3791  138.2712  157.5061 O   0  0  0  0  0  0  0  0  0  0  0  0
  148.9681  137.4032  159.0796 C   0  0  0  0  0  0  0  0  0  0  0  0
  148.0617  137.3431  160.1730 O   0  0  0  0  0  0  0  0  0  0  0  0
  147.6941  136.1042  160.6539 C   0  0  0  0  0  0  0  0  0  0  0  0
  147.8778  134.8890  159.9459 C   0  0  0  0  0  0  0  0  0  0  0  0
  147.4731  133.6645  160.5129 C   0  0  0  0  0  0  0  0  0  0  0  0
  146.8819  133.6373  161.7894 C   0  0  0  0  0  0  0  0  0  0  0  0
  146.6954  134.8375  162.4992 C   0  0  0  0  0  0  0  0  0  0  0  0
  147.0999  136.0624  161.9337 C   0  0  0  0  0  0  0  0  0  0  0  0
  146.9154  137.2104  162.6284 F   0  0  0  0  0  0  0  0  0  0  0  0
  149.1709  140.4266  153.0726 H   0  0  0  0  0  0  0  0  0  0  0  0
  147.6619  141.4487  154.9477 H   0  0  0  0  0  0  0  0  0  0  0  0
  148.3494  139.8334  154.8817 H   0  0  0  0  0  0  0  0  0  0  0  0
  151.5198  144.3502  157.8623 H   0  0  0  0  0  0  0  0  0  0  0  0
  152.7556  143.6050  159.9042 H   0  0  0  0  0  0  0  0  0  0  0  0
  152.6894  141.2508  160.6393 H   0  0  0  0  0  0  0  0  0  0  0  0
  151.3867  139.5427  159.3727 H   0  0  0  0  0  0  0  0  0  0  0  0
  149.3896  138.5014  156.1633 H   0  0  0  0  0  0  0  0  0  0  0  0
  150.6141  138.4224  157.4037 H   0  0  0  0  0  0  0  0  0  0  0  0
  148.4109  139.4711  158.8001 H   0  0  0  0  0  0  0  0  0  0  0  0
  147.5593  138.2270  156.5797 H   0  0  0  0  0  0  0  0  0  0  0  0
  148.9793  136.4722  158.5099 H   0  0  0  0  0  0  0  0  0  0  0  0
  149.9721  137.5647  159.4757 H   0  0  0  0  0  0  0  0  0  0  0  0
  148.3274  134.8682  158.9650 H   0  0  0  0  0  0  0  0  0  0  0  0
  147.6168  132.7441  159.9665 H   0  0  0  0  0  0  0  0  0  0  0  0
  146.5719  132.6979  162.2232 H   0  0  0  0  0  0  0  0  0  0  0  0
  146.2410  134.8200  163.4787 H   0  0  0  0  0  0  0  0  0  0  0  0
  149.8218  143.2750  155.7869 H   0  0  0  0  0  0  0  0  0  0  0  0
  1  2  1  0  0  0  0
  1 24  1  0  0  0  0
  2  3  1  0  0  0  0
  2 25  1  0  0  0  0
  2 26  1  0  0  0  0
  3 11  1  0  0  0  0
  3  4  2  0  0  0  0
  4  5  1  0  0  0  0
  4 41  1  0  0  0  0
  5 10  2  0  0  0  0
  5  6  1  0  0  0  0
  6  7  2  0  0  0  0
  6 27  1  0  0  0  0
  7  8  1  0  0  0  0
  7 28  1  0  0  0  0
  8  9  2  0  0  0  0
  8 29  1  0  0  0  0
  9 10  1  0  0  0  0
  9 30  1  0  0  0  0
 10 11  1  0  0  0  0
 11 12  1  0  0  0  0
 12 13  1  0  0  0  0
 12 31  1  0  0  0  0
 12 32  1  0  0  0  0
 13 14  1  0  0  0  0
 13 15  1  0  0  0  0
 13 33  1  0  0  0  0
 14 34  1  0  0  0  0
 15 16  1  0  0  0  0
 15 35  1  0  0  0  0
 15 36  1  0  0  0  0
 16 17  1  0  0  0  0
 17 22  1  0  0  0  0
 17 18  2  0  0  0  0
 18 19  1  0  0  0  0
 18 37  1  0  0  0  0
 19 20  2  0  0  0  0
 19 38  1  0  0  0  0
 20 21  1  0  0  0  0
 20 39  1  0  0  0  0
 21 22  2  0  0  0  0
 21 40  1  0  0  0  0
 22 23  1  0  0  0  0
M  CHG  1   4   1
M  END
> <s_m_source_file>
AV-unprocessed.smi

> <i_m_source_file_index>
2144

> <i_lp_mmshare_version>
43012

> <i_f3d_flags>
0

> <s_epik_input>
W2NIXTFbY0hdW2NIXVtjSF1jKGMxMiluKGMobjIpW0NIMl1bT0hdKVtDSDJdW0NASF0oW09IXSlbQ0gyXU9jM1tjSF1bY0hdW2NIXVtjSF1jM0Y=

> <s_epik_cmdline>
J2VwaWtfcHl0aG9uJywgJy1waCcsICc3LjAnLCAnLXRuJywgJzgnLCAnLW1hJywgJzIwMCcsICctbWV0YWxfYmluZGluZycsICctaW1hZScsICc8aW5maWxlLm1hZT4nLCAnLW9tYWUnLCAnPG91dGZpbGUubWFlPic=

> <r_lp_tautomer_probability>
1

> <r_epik_Ionization_Penalty>
1.44003

> <r_epik_Ionization_Penalty_Charging>
1.43917

> <r_epik_Ionization_Penalty_Neutral>
0.000858184

> <r_epik_State_Penalty>
1.52442

> <r_epik_Charging_Adjusted_Penalty>
2.96359

> <i_epik_Tot_Q>
1

> <i_epik_Tot_abs_Q>
1

> <r_epik_Metal_State_Penalty>
5.57019

> <b_epik_Metal_Only>
0

> <s_lp_Force_Field>
OPLS_2005

> <r_lp_Energy>
20.1924

> <b_lp_Chiralities_Consistent>
1

> <s_lp_Variant>
AV-unprocessed.smi:2144-4

> <Gold.Version>
5.8.1

> <Gold.Id.Protein>
6NUR|6NUR_protein|mol2

> <Gold.PLP.Fitness>
58.7082

> <Gold.PLP.PLP>
-47.7427

> <Gold.PLP.part.hbond>
-6.0000

> <Gold.PLP.part.metal>
0.0000

> <Gold.PLP.part.buried>
-4.9814

> <Gold.PLP.part.nonpolar>
-38.5662

> <Gold.PLP.part.repulsive>
0.0833

> <Gold.PLP.ligand.clash>
0.0000

> <Gold.PLP.ligand.torsion>
1.4156

> <Gold.PLP.Chemscore.Hbond>
4.5842

> <Gold.PLP.Chemscore.CHOScore>
0.0000

> <Gold.PLP.Chemscore.Metal>
0.0000

> <Gold.Chemscore.Hbonds>
donor molecule, donor type, donor heavy atom, donor atom, acceptor molecule, acceptor atom, score
      L1  H     1    24       P1  7957  0.69
      L1  H     4    41       P1  8028  1.82
      P1  H  6931  6943       L1    16  0.38
      P1  H  6934  6947       L1    16  0.67
      P1  H  8011  8017       L1     1  0.86

> <Gold.PLP.Chemscore.Internal.Correction>
0.0441

> <Gold.Rescore>
     Score         DG    S(hbond)    S(metal)    S(lipo)     H(rot)  DE(clash)    DE(int)     intcor
     16.99     -18.31       2.68        0.00     105.73       3.31       0.01       1.31       ----

> <Gold.Chemscore.Fitness>
16.9852

> <Gold.Chemscore.DG>
-18.3103

> <Gold.Chemscore.ZeroCoef>
-5.4800

> <Gold.Chemscore.Hbond>
2.6774

> <Gold.Chemscore.Metal>
0.0000

> <Gold.Chemscore.Lipo>
105.7282

> <Gold.Chemscore.Internal_Hbond>
0.0000

> <Gold.Chemscore.DEClash>
0.0149

> <Gold.Chemscore.DEInternal>
1.3102

> <Gold.Chemscore.Rot>
3.3134

> <Gold.Chemscore.Internal.Correction>
   9.000000E+99

> <Gold.Chemscore.Hbonds>
donor molecule, donor type, donor heavy atom, donor atom, acceptor molecule, acceptor atom, score
      L1  H     1    24       P1  7957  0.65
      L1  H     4    41       P1  8028  0.90
      P1  H  6931  6943       L1    16  0.09
      P1  H  6934  6947       L1    16  0.62
      P1  H  8011  8017       L1     1  0.16

> <Gold.Chemscore.Hbond.Weighted>
-8.9424

> <Gold.Chemscore.Metal.Weighted>
-0.0000

> <Gold.Chemscore.Lipo.Weighted>
-12.3702

> <Gold.Chemscore.Internal_Hbond.Weighted>
0.0000

> <Gold.Chemscore.DEClash.Weighted>
0.0149

> <Gold.Chemscore.DEInternal.Weighted>
1.3102

> <Gold.Chemscore.Rot.Weighted>
8.4823

> <Gold.Chemscore.Internal.Correction.Weighted>
   9.000000E+99

> <Gold.Protein.RotatedTorsions>
[ 6907 6896 6895 6894 ] final  137.22 input  -60.11 | X-H torsion
[ 7974 7965 7964 7962 ] final   36.00 input  175.53 | X-H torsion
[ 8008 7997 7996 7995 ] final   97.26 input   59.86 | X-H torsion
[ 10167 10162 10161 10158 ] final  152.64 input  -65.29 | X-H torsion
[ 10718 10713 10712 10709 ] final -117.56 input   66.30 | X-H torsion
[ 10763 10752 10751 10750 ] final -130.88 input  -60.55 | X-H torsion
[ 11005 11000 10999 10996 ] final -159.90 input  -57.11 | X-H torsion

> <Gold.Protein.ActiveResidues>
 VAL166  LYS551  ARG553  GLY616  TRP617  ASP618  TYR619  PRO620  LYS621  CYS622 
 ASP623  PHE694  ASN695  SER759  ASP760  ASP761  ALA762  ILE779  LEU786  VAL792 
 PHE793  MET794  SER795  GLU796  ALA797  LYS798  CYS799  TRP800  GLU811  SER814 

> <Gold.Protein.RotatedAtoms>
  152.2805  133.5466  159.5494 H   0  0  0  0  0  0  0  0  0  0  0  0  # atno 6907 bound_to 6896
  150.7194  134.0570  159.3827 H   0  0  0  0  0  0  0  0  0  0  0  0  # atno 6908 bound_to 6896
  151.8481  135.0567  160.0506 H   0  0  0  0  0  0  0  0  0  0  0  0  # atno 6909 bound_to 6896
  146.1242  139.6072  142.9269 H   0  0  0  0  0  0  0  0  0  0  0  0  # atno 7974 bound_to 7965
  156.0883  140.3261  155.7783 H   0  0  0  0  0  0  0  0  0  0  0  0  # atno 8008 bound_to 7997
  155.5039  140.0571  157.2952 H   0  0  0  0  0  0  0  0  0  0  0  0  # atno 8009 bound_to 7997
  154.4622  140.1972  156.0229 H   0  0  0  0  0  0  0  0  0  0  0  0  # atno 8010 bound_to 7997
  139.4831  144.5341  151.7675 H   0  0  0  0  0  0  0  0  0  0  0  0  # atno 10167 bound_to 10162
  156.1043  130.6197  150.9180 H   0  0  0  0  0  0  0  0  0  0  0  0  # atno 10718 bound_to 10713
  154.8753  135.3848  154.4155 H   0  0  0  0  0  0  0  0  0  0  0  0  # atno 10763 bound_to 10752
  153.4865  135.7030  153.5914 H   0  0  0  0  0  0  0  0  0  0  0  0  # atno 10764 bound_to 10752
  153.4306  135.3879  155.2135 H   0  0  0  0  0  0  0  0  0  0  0  0  # atno 10765 bound_to 10752
  140.6375  134.4586  157.5232 H   0  0  0  0  0  0  0  0  0  0  0  0  # atno 11005 bound_to 11000
  145.5400  141.0421  143.2336 LP  0  0  0  0  0  0  0  0  0  0  0  0  # atno 17320 bound_to 7965
  144.7627  139.6919  143.7228 LP  0  0  0  0  0  0  0  0  0  0  0  0  # atno 17321 bound_to 7965
  140.4871  144.1365  150.5943 LP  0  0  0  0  0  0  0  0  0  0  0  0  # atno 17342 bound_to 10162
  140.4213  143.2610  151.9712 LP  0  0  0  0  0  0  0  0  0  0  0  0  # atno 17343 bound_to 10162
  157.6217  131.0929  150.8609 LP  0  0  0  0  0  0  0  0  0  0  0  0  # atno 17370 bound_to 10713
  156.8731  130.5153  149.5295 LP  0  0  0  0  0  0  0  0  0  0  0  0  # atno 17371 bound_to 10713
  139.9093  134.8380  156.1589 LP  0  0  0  0  0  0  0  0  0  0  0  0  # atno 17394 bound_to 11000
  141.0631  133.6832  156.1991 LP  0  0  0  0  0  0  0  0  0  0  0  0  # atno 17395 bound_to 11000

$$$$
