AV-unprocessed.smi:1485|AV-procd|sdf|6003|dock1
  -GOLD-   22720 6 93D 1   1.00000     0.00000
 Structure written by MMmdl.
 44 45  0  0  0  0  0  0  0  0  1 V2000
  145.2400  144.0767  153.5614 C   0  0  0  0  0  0  0  0  0  0  0  0
  145.4328  143.3749  154.7770 O   0  0  0  0  0  0  0  0  0  0  0  0
  145.9514  142.0714  154.5743 C   0  0  0  0  0  0  0  0  0  0  0  0
  147.2783  142.1781  153.8079 C   0  0  0  0  0  0  0  0  0  0  0  0
  148.1855  141.0781  154.1500 N   0  0  0  0  0  0  0  0  0  0  0  0
  149.2164  141.4418  154.9998 N   0  0  0  0  0  0  0  0  0  0  0  0
  150.0817  140.5609  155.3868 C   0  0  0  0  0  0  0  0  0  0  0  0
  151.2037  140.9112  156.3011 C   0  0  0  0  0  0  0  0  0  0  0  0
  152.2221  140.2215  156.3758 O   0  0  0  0  0  0  0  0  0  0  0  0
  151.0234  142.0280  157.0293 N   0  0  0  0  0  0  0  0  0  0  0  0
  151.9767  142.5801  157.9864 C   0  0  2  0  0  0  0  0  0  0  0  0
  152.1967  141.5734  159.1300 C   0  0  0  0  0  0  0  0  0  0  0  0
  153.1451  142.1386  160.1981 C   0  0  0  0  0  0  0  0  0  0  0  0
  152.6350  143.4828  160.7405 C   0  0  0  0  0  0  0  0  0  0  0  0
  152.4228  144.5036  159.6063 C   0  0  2  0  0  0  0  0  0  0  0  0
  151.9128  145.8469  160.1466 C   0  0  0  0  0  0  0  0  0  0  0  0
  151.4735  143.9311  158.5357 C   0  0  0  0  0  0  0  0  0  0  0  0
  149.9898  139.1813  154.9393 C   0  0  0  0  0  0  0  0  0  0  0  0
  148.9754  138.8405  154.1146 C   0  0  0  0  0  0  0  0  0  0  0  0
  147.9799  139.8159  153.6669 C   0  0  0  0  0  0  0  0  0  0  0  0
  147.0400  139.5271  152.9269 O   0  0  0  0  0  0  0  0  0  0  0  0
  144.8355  145.0672  153.7699 H   0  0  0  0  0  0  0  0  0  0  0  0
  144.5354  143.5555  152.9119 H   0  0  0  0  0  0  0  0  0  0  0  0
  146.1819  144.2040  153.0261 H   0  0  0  0  0  0  0  0  0  0  0  0
  146.1123  141.5816  155.5360 H   0  0  0  0  0  0  0  0  0  0  0  0
  145.2351  141.4693  154.0130 H   0  0  0  0  0  0  0  0  0  0  0  0
  147.0897  142.1988  152.7330 H   0  0  0  0  0  0  0  0  0  0  0  0
  147.7525  143.1343  154.0368 H   0  0  0  0  0  0  0  0  0  0  0  0
  150.1581  142.5340  156.9066 H   0  0  0  0  0  0  0  0  0  0  0  0
  152.9333  142.7367  157.4837 H   0  0  0  0  0  0  0  0  0  0  0  0
  151.2408  141.3239  159.5929 H   0  0  0  0  0  0  0  0  0  0  0  0
  152.6024  140.6411  158.7355 H   0  0  0  0  0  0  0  0  0  0  0  0
  153.2517  141.4245  161.0151 H   0  0  0  0  0  0  0  0  0  0  0  0
  154.1401  142.2707  159.7710 H   0  0  0  0  0  0  0  0  0  0  0  0
  151.6982  143.3262  161.2771 H   0  0  0  0  0  0  0  0  0  0  0  0
  153.3456  143.8752  161.4688 H   0  0  0  0  0  0  0  0  0  0  0  0
  153.3891  144.6860  159.1337 H   0  0  0  0  0  0  0  0  0  0  0  0
  150.9446  145.7357  160.6358 H   0  0  0  0  0  0  0  0  0  0  0  0
  151.7982  146.5745  159.3427 H   0  0  0  0  0  0  0  0  0  0  0  0
  152.6077  146.2675  160.8739 H   0  0  0  0  0  0  0  0  0  0  0  0
  151.3697  144.6474  157.7196 H   0  0  0  0  0  0  0  0  0  0  0  0
  150.4768  143.8046  158.9619 H   0  0  0  0  0  0  0  0  0  0  0  0
  150.7104  138.4404  155.2538 H   0  0  0  0  0  0  0  0  0  0  0  0
  148.8948  137.8184  153.7744 H   0  0  0  0  0  0  0  0  0  0  0  0
  1  2  1  0  0  0  0
  1 22  1  0  0  0  0
  1 23  1  0  0  0  0
  1 24  1  0  0  0  0
  2  3  1  0  0  0  0
  3  4  1  0  0  0  0
  3 25  1  0  0  0  0
  3 26  1  0  0  0  0
  4  5  1  0  0  0  0
  4 27  1  0  0  0  0
  4 28  1  0  0  0  0
  5 20  1  0  0  0  0
  5  6  1  0  0  0  0
  6  7  2  0  0  0  0
  7  8  1  0  0  0  0
  7 18  1  0  0  0  0
  8  9  2  0  0  0  0
  8 10  1  0  0  0  0
 10 11  1  0  0  0  0
 10 29  1  0  0  0  0
 11 17  1  0  0  0  0
 11 12  1  0  0  0  0
 11 30  1  0  0  0  0
 12 13  1  0  0  0  0
 12 31  1  0  0  0  0
 12 32  1  0  0  0  0
 13 14  1  0  0  0  0
 13 33  1  0  0  0  0
 13 34  1  0  0  0  0
 14 15  1  0  0  0  0
 14 35  1  0  0  0  0
 14 36  1  0  0  0  0
 15 16  1  0  0  0  0
 15 17  1  0  0  0  0
 15 37  1  0  0  0  0
 16 38  1  0  0  0  0
 16 39  1  0  0  0  0
 16 40  1  0  0  0  0
 17 41  1  0  0  0  0
 17 42  1  0  0  0  0
 18 19  2  0  0  0  0
 18 43  1  0  0  0  0
 19 20  1  0  0  0  0
 19 44  1  0  0  0  0
 20 21  2  0  0  0  0
M  END
> <s_m_source_file>
AV-unprocessed.smi

> <i_m_source_file_index>
1485

> <i_lp_mmshare_version>
43012

> <i_f3d_flags>
0

> <s_epik_input>
W0NIM11PW0NIMl1bQ0gyXW4xbmMoW2NIXVtjSF1jMT1PKUMoPU8pW05IXVtDQEBIXTJbQ0gyXVtDSDJdW0NIMl1bQ0BASF0oW0NIM10pW0NIMl0y

> <s_epik_cmdline>
J2VwaWtfcHl0aG9uJywgJy1waCcsICc3LjAnLCAnLXRuJywgJzgnLCAnLW1hJywgJzIwMCcsICctbWV0YWxfYmluZGluZycsICctaW1hZScsICc8aW5maWxlLm1hZT4nLCAnLW9tYWUnLCAnPG91dGZpbGUubWFlPic=

> <r_lp_tautomer_probability>
1

> <r_epik_Ionization_Penalty>
6.4688e-07

> <r_epik_Ionization_Penalty_Charging>
6.63567e-09

> <r_epik_Ionization_Penalty_Neutral>
6.40245e-07

> <r_epik_State_Penalty>
-0

> <r_epik_Charging_Adjusted_Penalty>
6.63567e-09

> <i_epik_Tot_Q>
0

> <i_epik_Tot_abs_Q>
0

> <r_epik_Metal_State_Penalty>
-0

> <b_epik_Metal_Only>
0

> <s_lp_Force_Field>
OPLS_2005

> <r_lp_Energy>
28.6474

> <b_lp_Chiralities_Consistent>
1

> <s_lp_Variant>
AV-unprocessed.smi:1485-3

> <Gold.Version>
5.8.1

> <Gold.Id.Protein>
6NUR|6NUR_protein|mol2

> <Gold.PLP.Fitness>
47.3547

> <Gold.PLP.PLP>
-46.0805

> <Gold.PLP.part.hbond>
-0.9154

> <Gold.PLP.part.metal>
0.0000

> <Gold.PLP.part.buried>
-5.0958

> <Gold.PLP.part.nonpolar>
-39.5201

> <Gold.PLP.part.repulsive>
0.8258

> <Gold.PLP.ligand.clash>
0.0000

> <Gold.PLP.ligand.torsion>
0.5941

> <Gold.PLP.Chemscore.Hbond>
0.8125

> <Gold.PLP.Chemscore.CHOScore>
0.0000

> <Gold.PLP.Chemscore.Metal>
0.0000

> <Gold.Chemscore.Hbonds>
donor molecule, donor type, donor heavy atom, donor atom, acceptor molecule, acceptor atom, score
      P1  H  7997  8009       L1     9  0.81

> <Gold.PLP.Chemscore.Internal.Correction>
0.0248

> <Gold.Rescore>
     Score         DG    S(hbond)    S(metal)    S(lipo)     H(rot)  DE(clash)    DE(int)     intcor
     15.66     -16.57       0.43        0.00     116.48       1.55       0.39       0.52       ----

> <Gold.Chemscore.Fitness>
15.6612

> <Gold.Chemscore.DG>
-16.5708

> <Gold.Chemscore.ZeroCoef>
-5.4800

> <Gold.Chemscore.Hbond>
0.4267

> <Gold.Chemscore.Metal>
0.0000

> <Gold.Chemscore.Lipo>
116.4762

> <Gold.Chemscore.Internal_Hbond>
0.0000

> <Gold.Chemscore.DEClash>
0.3853

> <Gold.Chemscore.DEInternal>
0.5242

> <Gold.Chemscore.Rot>
1.5478

> <Gold.Chemscore.Internal.Correction>
   9.000000E+99

> <Gold.Chemscore.Hbonds>
donor molecule, donor type, donor heavy atom, donor atom, acceptor molecule, acceptor atom, score
      P1  H  7997  8009       L1     9  0.77

> <Gold.Chemscore.Hbond.Weighted>
-1.4253

> <Gold.Chemscore.Metal.Weighted>
-0.0000

> <Gold.Chemscore.Lipo.Weighted>
-13.6277

> <Gold.Chemscore.Internal_Hbond.Weighted>
0.0000

> <Gold.Chemscore.DEClash.Weighted>
0.3853

> <Gold.Chemscore.DEInternal.Weighted>
0.5242

> <Gold.Chemscore.Rot.Weighted>
3.9623

> <Gold.Chemscore.Internal.Correction.Weighted>
   9.000000E+99

> <Gold.Protein.RotatedTorsions>
[ 6907 6896 6895 6894 ] final   -9.60 input  -60.11 | X-H torsion
[ 7974 7965 7964 7962 ] final  147.37 input  175.53 | X-H torsion
[ 8008 7997 7996 7995 ] final -164.24 input   59.86 | X-H torsion
[ 10167 10162 10161 10158 ] final   26.03 input  -65.29 | X-H torsion
[ 10718 10713 10712 10709 ] final  156.72 input   66.30 | X-H torsion
[ 10763 10752 10751 10750 ] final   -6.80 input  -60.55 | X-H torsion
[ 11005 11000 10999 10996 ] final -173.48 input  -57.11 | X-H torsion

> <Gold.Protein.ActiveResidues>
 VAL166  LYS551  ARG553  GLY616  TRP617  ASP618  TYR619  PRO620  LYS621  CYS622 
 ASP623  PHE694  ASN695  SER759  ASP760  ASP761  ALA762  ILE779  LEU786  VAL792 
 PHE793  MET794  SER795  GLU796  ALA797  LYS798  CYS799  TRP800  GLU811  SER814 

> <Gold.Protein.RotatedAtoms>
  151.4152  135.0990  159.9596 H   0  0  0  0  0  0  0  0  0  0  0  0  # atno 6907 bound_to 6896
  152.5007  133.8760  159.7333 H   0  0  0  0  0  0  0  0  0  0  0  0  # atno 6908 bound_to 6896
  150.9263  133.6762  159.2848 H   0  0  0  0  0  0  0  0  0  0  0  0  # atno 6909 bound_to 6896
  144.8597  139.6020  143.5936 H   0  0  0  0  0  0  0  0  0  0  0  0  # atno 7974 bound_to 7965
  155.8329  140.0936  157.1782 H   0  0  0  0  0  0  0  0  0  0  0  0  # atno 8008 bound_to 7997
  154.3980  140.1415  156.3696 H   0  0  0  0  0  0  0  0  0  0  0  0  # atno 8009 bound_to 7997
  155.8147  140.3448  155.5481 H   0  0  0  0  0  0  0  0  0  0  0  0  # atno 8010 bound_to 7997
  140.5057  144.0243  150.6351 H   0  0  0  0  0  0  0  0  0  0  0  0  # atno 10167 bound_to 10162
  157.2012  131.0676  151.2024 H   0  0  0  0  0  0  0  0  0  0  0  0  # atno 10718 bound_to 10713
  153.4173  135.7009  153.6318 H   0  0  0  0  0  0  0  0  0  0  0  0  # atno 10763 bound_to 10752
  153.4787  135.3698  155.2430 H   0  0  0  0  0  0  0  0  0  0  0  0  # atno 10764 bound_to 10752
  154.8720  135.4060  154.3536 H   0  0  0  0  0  0  0  0  0  0  0  0  # atno 10765 bound_to 10752
  140.4853  134.6036  157.4935 H   0  0  0  0  0  0  0  0  0  0  0  0  # atno 11005 bound_to 11000
  146.2851  139.6981  142.9201 LP  0  0  0  0  0  0  0  0  0  0  0  0  # atno 17320 bound_to 7965
  145.4336  141.0417  143.2897 LP  0  0  0  0  0  0  0  0  0  0  0  0  # atno 17321 bound_to 7965
  140.3551  143.2940  152.0445 LP  0  0  0  0  0  0  0  0  0  0  0  0  # atno 17342 bound_to 10162
  139.4883  144.6345  151.7004 LP  0  0  0  0  0  0  0  0  0  0  0  0  # atno 17343 bound_to 10162
  157.3765  130.7208  149.6600 LP  0  0  0  0  0  0  0  0  0  0  0  0  # atno 17370 bound_to 10713
  155.9700  130.4184  150.4327 LP  0  0  0  0  0  0  0  0  0  0  0  0  # atno 17371 bound_to 10713
  139.9801  134.7150  155.9875 LP  0  0  0  0  0  0  0  0  0  0  0  0  # atno 17394 bound_to 11000
  141.1511  133.6548  156.4016 LP  0  0  0  0  0  0  0  0  0  0  0  0  # atno 17395 bound_to 11000

$$$$
