AV-unprocessed.smi:90|AV-procd|sdf|832|dock10
  -GOLD-   2262017253D 1   1.00000     0.00000
 Structure written by MMmdl.
 64 67  0  0  0  0  0  0  0  0  2 V2000
  148.9368  135.8789  155.1857 C   0  0  0  0  0  0  0  0  0  0  0  0
  150.3318  135.8188  155.6148 N   0  0  0  0  0  0  0  0  0  0  0  0
  150.9325  134.5126  155.8674 C   0  0  0  0  0  0  0  0  0  0  0  0
  149.9502  133.3572  155.5905 C   0  0  0  0  0  0  0  0  0  0  0  0
  150.6212  132.0534  155.0838 C   0  0  1  0  0  0  0  0  0  0  0  0
  151.6876  131.5641  156.0969 C   0  0  0  0  0  0  0  0  0  0  0  0
  152.3631  130.2630  155.6521 C   0  0  0  0  0  0  0  0  0  0  0  0
  151.3018  129.1932  155.3963 C   0  0  0  0  0  0  0  0  0  0  0  0
  150.2761  129.6990  154.3746 C   0  0  0  0  0  0  0  0  0  0  0  0
  149.6275  130.9602  154.8241 N   0  3  2  0  0  0  0  0  0  0  0  0
  148.5292  131.3335  153.8987 C   0  0  0  0  0  0  0  0  0  0  0  0
  151.0110  136.9799  155.8436 C   0  0  0  0  0  0  0  0  0  0  0  0
  152.3107  136.8874  156.2347 N   0  0  0  0  0  0  0  0  0  0  0  0
  153.0298  137.9815  156.4944 C   0  0  0  0  0  0  0  0  0  0  0  0
  152.6565  139.2582  156.4225 N   0  0  0  0  0  0  0  0  0  0  0  0
  151.3610  139.3725  156.0161 C   0  0  0  0  0  0  0  0  0  0  0  0
  150.4721  138.2986  155.7111 C   0  0  0  0  0  0  0  0  0  0  0  0
  149.2387  138.8211  155.3334 N   0  0  0  0  0  0  0  0  0  0  0  0
  149.3850  140.1131  155.4236 C   0  0  0  0  0  0  0  0  0  0  0  0
  150.6352  140.5346  155.8115 N   0  0  0  0  0  0  0  0  0  0  0  0
  151.0670  141.9142  155.9946 C   0  0  0  0  0  0  0  0  0  0  0  0
  151.2082  142.3697  157.4785 C   0  0  0  0  0  0  0  0  0  0  0  0
  149.8414  142.2670  158.2138 C   0  0  0  0  0  0  0  0  0  0  0  0
  148.7620  142.6754  157.3975 O   0  0  0  0  0  0  0  0  0  0  0  0
  152.2552  141.4890  158.2087 C   0  0  0  0  0  0  0  0  0  0  0  0
  152.6943  142.0678  159.5671 C   0  0  0  0  0  0  0  0  0  0  0  0
  153.1809  143.3928  159.4021 O   0  0  0  0  0  0  0  0  0  0  0  0
  152.1943  144.2814  158.8945 C   0  0  0  0  0  0  0  0  0  0  0  0
  151.7509  143.8217  157.4944 C   0  0  0  0  0  0  0  0  0  0  0  0
  148.3539  136.5108  155.8566 H   0  0  0  0  0  0  0  0  0  0  0  0
  148.4828  134.8877  155.1839 H   0  0  0  0  0  0  0  0  0  0  0  0
  148.8618  136.2817  154.1752 H   0  0  0  0  0  0  0  0  0  0  0  0
  151.7990  134.4063  155.2137 H   0  0  0  0  0  0  0  0  0  0  0  0
  151.3378  134.4841  156.8762 H   0  0  0  0  0  0  0  0  0  0  0  0
  149.3630  133.1409  156.4835 H   0  0  0  0  0  0  0  0  0  0  0  0
  149.2454  133.7334  154.8518 H   0  0  0  0  0  0  0  0  0  0  0  0
  151.1186  132.2736  154.1375 H   0  0  0  0  0  0  0  0  0  0  0  0
  152.4644  132.3140  156.2387 H   0  0  0  0  0  0  0  0  0  0  0  0
  151.2246  131.4142  157.0734 H   0  0  0  0  0  0  0  0  0  0  0  0
  152.9434  130.4368  154.7451 H   0  0  0  0  0  0  0  0  0  0  0  0
  153.0651  129.9229  156.4138 H   0  0  0  0  0  0  0  0  0  0  0  0
  151.7729  128.2792  155.0332 H   0  0  0  0  0  0  0  0  0  0  0  0
  150.7998  128.9361  156.3302 H   0  0  0  0  0  0  0  0  0  0  0  0
  150.7561  129.8598  153.4077 H   0  0  0  0  0  0  0  0  0  0  0  0
  149.5195  128.9274  154.2265 H   0  0  0  0  0  0  0  0  0  0  0  0
  148.9230  131.7471  152.9693 H   0  0  0  0  0  0  0  0  0  0  0  0
  147.8524  132.0585  154.3483 H   0  0  0  0  0  0  0  0  0  0  0  0
  147.9180  130.4661  153.6473 H   0  0  0  0  0  0  0  0  0  0  0  0
  154.0493  137.8087  156.8065 H   0  0  0  0  0  0  0  0  0  0  0  0
  148.5806  140.7992  155.2009 H   0  0  0  0  0  0  0  0  0  0  0  0
  152.0226  142.0238  155.4801 H   0  0  0  0  0  0  0  0  0  0  0  0
  150.3740  142.5638  155.4587 H   0  0  0  0  0  0  0  0  0  0  0  0
  149.6563  141.2459  158.5469 H   0  0  0  0  0  0  0  0  0  0  0  0
  149.8190  142.8822  159.1117 H   0  0  0  0  0  0  0  0  0  0  0  0
  148.9551  143.5329  157.0501 H   0  0  0  0  0  0  0  0  0  0  0  0
  151.8724  140.4790  158.3584 H   0  0  0  0  0  0  0  0  0  0  0  0
  153.1426  141.3889  157.5822 H   0  0  0  0  0  0  0  0  0  0  0  0
  151.8814  142.0534  160.2932 H   0  0  0  0  0  0  0  0  0  0  0  0
  153.4930  141.4561  159.9870 H   0  0  0  0  0  0  0  0  0  0  0  0
  151.3509  144.3469  159.5825 H   0  0  0  0  0  0  0  0  0  0  0  0
  152.6263  145.2806  158.8362 H   0  0  0  0  0  0  0  0  0  0  0  0
  152.6148  143.8927  156.8320 H   0  0  0  0  0  0  0  0  0  0  0  0
  151.0141  144.5173  157.0919 H   0  0  0  0  0  0  0  0  0  0  0  0
  149.1921  130.7504  155.7110 H   0  0  0  0  0  0  0  0  0  0  0  0
  1  2  1  0  0  0  0
  1 30  1  0  0  0  0
  1 31  1  0  0  0  0
  1 32  1  0  0  0  0
  2  3  1  0  0  0  0
  2 12  1  0  0  0  0
  3  4  1  0  0  0  0
  3 33  1  0  0  0  0
  3 34  1  0  0  0  0
  4  5  1  0  0  0  0
  4 35  1  0  0  0  0
  4 36  1  0  0  0  0
  5 10  1  0  0  0  0
  5  6  1  0  0  0  0
  5 37  1  0  0  0  0
  6  7  1  0  0  0  0
  6 38  1  0  0  0  0
  6 39  1  0  0  0  0
  7  8  1  0  0  0  0
  7 40  1  0  0  0  0
  7 41  1  0  0  0  0
  8  9  1  0  0  0  0
  8 42  1  0  0  0  0
  8 43  1  0  0  0  0
  9 10  1  0  0  0  0
  9 44  1  0  0  0  0
  9 45  1  0  0  0  0
 10 11  1  0  0  0  0
 10 64  1  0  0  0  0
 11 46  1  0  0  0  0
 11 47  1  0  0  0  0
 11 48  1  0  0  0  0
 12 17  1  0  0  0  0
 12 13  2  0  0  0  0
 13 14  1  0  0  0  0
 14 15  2  0  0  0  0
 14 49  1  0  0  0  0
 15 16  1  0  0  0  0
 16 20  1  0  0  0  0
 16 17  2  0  0  0  0
 17 18  1  0  0  0  0
 18 19  2  0  0  0  0
 19 20  1  0  0  0  0
 19 50  1  0  0  0  0
 20 21  1  0  0  0  0
 21 22  1  0  0  0  0
 21 51  1  0  0  0  0
 21 52  1  0  0  0  0
 22 29  1  0  0  0  0
 22 23  1  0  0  0  0
 22 25  1  0  0  0  0
 23 24  1  0  0  0  0
 23 53  1  0  0  0  0
 23 54  1  0  0  0  0
 24 55  1  0  0  0  0
 25 26  1  0  0  0  0
 25 56  1  0  0  0  0
 25 57  1  0  0  0  0
 26 27  1  0  0  0  0
 26 58  1  0  0  0  0
 26 59  1  0  0  0  0
 27 28  1  0  0  0  0
 28 29  1  0  0  0  0
 28 60  1  0  0  0  0
 28 61  1  0  0  0  0
 29 62  1  0  0  0  0
 29 63  1  0  0  0  0
M  CHG  1  10   1
M  END
> <s_m_source_file>
AV-unprocessed.smi

> <i_m_source_file_index>
90

> <i_lp_mmshare_version>
43012

> <i_f3d_flags>
0

> <s_epik_input>
W0NIM11OMVtDSDJdW0NIMl1bQ0gyXVtDSDJdW0NASF0xW0NIMl1bQ0gyXU4oW0NIM10pYyhuW2NIXW4yKWMoYzIzKW5bY0hdbjNbQ0gyXUM0KFtDSDJdW09IXSlbQ0gyXVtDSDJdT1tDSDJdW0NIMl00

> <s_epik_cmdline>
J2VwaWtfcHl0aG9uJywgJy1waCcsICc3LjAnLCAnLXRuJywgJzgnLCAnLW1hJywgJzIwMCcsICctbWV0YWxfYmluZGluZycsICctaW1hZScsICc8aW5maWxlLm1hZT4nLCAnLW9tYWUnLCAnPG91dGZpbGUubWFlPic=

> <r_lp_tautomer_probability>
1

> <r_epik_Ionization_Penalty>
0.00234895

> <r_epik_Ionization_Penalty_Charging>
0.00106647

> <r_epik_Ionization_Penalty_Neutral>
0.00128248

> <r_epik_State_Penalty>
-0

> <r_epik_Charging_Adjusted_Penalty>
0.00106647

> <i_epik_Tot_Q>
1

> <i_epik_Tot_abs_Q>
1

> <r_epik_Metal_State_Penalty>
-0

> <b_epik_Metal_Only>
0

> <s_lp_Force_Field>
OPLS_2005

> <r_lp_Energy>
42.6574

> <b_lp_Chiralities_Consistent>
1

> <s_lp_Variant>
AV-unprocessed.smi:90-4

> <Gold.Version>
5.8.1

> <Gold.Id.Protein>
6NUR|6NUR_protein|mol2

> <Gold.PLP.Fitness>
55.5332

> <Gold.PLP.PLP>
-47.6822

> <Gold.PLP.part.hbond>
-3.0000

> <Gold.PLP.part.metal>
0.0000

> <Gold.PLP.part.buried>
-8.0757

> <Gold.PLP.part.nonpolar>
-35.9848

> <Gold.PLP.part.repulsive>
0.0661

> <Gold.PLP.ligand.clash>
0.0847

> <Gold.PLP.ligand.torsion>
0.6732

> <Gold.PLP.Chemscore.Hbond>
3.0000

> <Gold.PLP.Chemscore.CHOScore>
0.0000

> <Gold.PLP.Chemscore.Metal>
0.0000

> <Gold.Chemscore.Hbonds>
donor molecule, donor type, donor heavy atom, donor atom, acceptor molecule, acceptor atom, score
      L1  H    24    55       P1  8028  1.00
      P1  H  7997  8008       L1    15  1.00
      P1  H 10752 10764       L1    13  1.00

> <Gold.PLP.Chemscore.Internal.Correction>
0.2822

> <Gold.Rescore>
     Score         DG    S(hbond)    S(metal)    S(lipo)     H(rot)  DE(clash)    DE(int)     intcor
     15.37     -18.59       2.06        0.00     113.21       2.73       0.15       3.07       ----

> <Gold.Chemscore.Fitness>
15.3671

> <Gold.Chemscore.DG>
-18.5910

> <Gold.Chemscore.ZeroCoef>
-5.4800

> <Gold.Chemscore.Hbond>
2.0558

> <Gold.Chemscore.Metal>
0.0000

> <Gold.Chemscore.Lipo>
113.2103

> <Gold.Chemscore.Internal_Hbond>
0.0000

> <Gold.Chemscore.DEClash>
0.1511

> <Gold.Chemscore.DEInternal>
3.0727

> <Gold.Chemscore.Rot>
2.7347

> <Gold.Chemscore.Internal.Correction>
   9.000000E+99

> <Gold.Chemscore.Hbonds>
donor molecule, donor type, donor heavy atom, donor atom, acceptor molecule, acceptor atom, score
      L1  H    24    55       P1  8028  0.47
      P1  H  7997  8008       L1    15  0.33
      P1  H 10752 10764       L1    13  0.42

> <Gold.Chemscore.Hbond.Weighted>
-6.8663

> <Gold.Chemscore.Metal.Weighted>
-0.0000

> <Gold.Chemscore.Lipo.Weighted>
-13.2456

> <Gold.Chemscore.Internal_Hbond.Weighted>
0.0000

> <Gold.Chemscore.DEClash.Weighted>
0.1511

> <Gold.Chemscore.DEInternal.Weighted>
3.0727

> <Gold.Chemscore.Rot.Weighted>
7.0009

> <Gold.Chemscore.Internal.Correction.Weighted>
   9.000000E+99

> <Gold.Protein.RotatedTorsions>
[ 6907 6896 6895 6894 ] final  -89.36 input  -60.11 | X-H torsion
[ 7974 7965 7964 7962 ] final -118.07 input  175.53 | X-H torsion
[ 8008 7997 7996 7995 ] final  -27.10 input   59.86 | X-H torsion
[ 10167 10162 10161 10158 ] final   -8.03 input  -65.29 | X-H torsion
[ 10718 10713 10712 10709 ] final -163.60 input   66.30 | X-H torsion
[ 10763 10752 10751 10750 ] final  -32.90 input  -60.55 | X-H torsion
[ 11005 11000 10999 10996 ] final   74.40 input  -57.11 | X-H torsion

> <Gold.Protein.ActiveResidues>
 VAL166  LYS551  ARG553  GLY616  TRP617  ASP618  TYR619  PRO620  LYS621  CYS622 
 ASP623  PHE694  ASN695  SER759  ASP760  ASP761  ALA762  ILE779  LEU786  VAL792 
 PHE793  MET794  SER795  GLU796  ALA797  LYS798  CYS799  TRP800  GLU811  SER814 

> <Gold.Protein.RotatedAtoms>
  150.6873  134.2600  159.4544 H   0  0  0  0  0  0  0  0  0  0  0  0  # atno 6907 bound_to 6896
  152.0530  134.9639  160.0584 H   0  0  0  0  0  0  0  0  0  0  0  0  # atno 6908 bound_to 6896
  152.1096  133.4258  159.4661 H   0  0  0  0  0  0  0  0  0  0  0  0  # atno 6909 bound_to 6896
  145.0781  140.8406  143.4056 H   0  0  0  0  0  0  0  0  0  0  0  0  # atno 7974 bound_to 7965
  154.4393  140.1881  156.0879 H   0  0  0  0  0  0  0  0  0  0  0  0  # atno 8008 bound_to 7997
  156.0389  140.3322  155.7195 H   0  0  0  0  0  0  0  0  0  0  0  0  # atno 8009 bound_to 7997
  155.5730  140.0614  157.2793 H   0  0  0  0  0  0  0  0  0  0  0  0  # atno 8010 bound_to 7997
  140.7047  143.6014  150.8793 H   0  0  0  0  0  0  0  0  0  0  0  0  # atno 10167 bound_to 10162
  156.6271  130.8914  151.2970 H   0  0  0  0  0  0  0  0  0  0  0  0  # atno 10718 bound_to 10713
  153.8214  135.6874  153.4826 H   0  0  0  0  0  0  0  0  0  0  0  0  # atno 10763 bound_to 10752
  153.1567  135.4596  154.9712 H   0  0  0  0  0  0  0  0  0  0  0  0  # atno 10764 bound_to 10752
  154.7926  135.3307  154.7686 H   0  0  0  0  0  0  0  0  0  0  0  0  # atno 10765 bound_to 10752
  139.9393  134.7430  156.1143 H   0  0  0  0  0  0  0  0  0  0  0  0  # atno 11005 bound_to 11000
  145.1212  139.2692  143.5587 LP  0  0  0  0  0  0  0  0  0  0  0  0  # atno 17320 bound_to 7965
  146.3530  140.0836  142.8616 LP  0  0  0  0  0  0  0  0  0  0  0  0  # atno 17321 bound_to 7965
  139.9739  143.6026  152.2965 LP  0  0  0  0  0  0  0  0  0  0  0  0  # atno 17342 bound_to 10162
  139.6623  144.7662  151.1940 LP  0  0  0  0  0  0  0  0  0  0  0  0  # atno 17343 bound_to 10162
  157.7211  130.9559  150.1442 LP  0  0  0  0  0  0  0  0  0  0  0  0  # atno 17370 bound_to 10713
  156.2265  130.3678  149.8495 LP  0  0  0  0  0  0  0  0  0  0  0  0  # atno 17371 bound_to 10713
  141.1020  133.6673  156.2777 LP  0  0  0  0  0  0  0  0  0  0  0  0  # atno 17394 bound_to 11000
  140.5994  134.5570  157.5514 LP  0  0  0  0  0  0  0  0  0  0  0  0  # atno 17395 bound_to 11000

$$$$
