AV-unprocessed.smi:671|AV-procd|sdf|3277|dock5
  -GOLD-   22720 0233D 1   1.00000     0.00000
 Structure written by MMmdl.
 49 50  0  0  0  0  0  0  0  0  1 V2000
  152.7952  138.4344  154.9241 C   0  0  0  0  0  0  0  0  0  0  0  0
  151.9077  139.3929  155.6662 C   0  0  0  0  0  0  0  0  0  0  0  0
  152.4106  140.0740  156.6817 N   0  0  0  0  0  0  0  0  0  0  0  0
  151.3879  140.8288  157.1306 N   0  0  0  0  0  0  0  0  0  0  0  0
  151.5989  141.7124  158.2610 C   0  0  0  0  0  0  0  0  0  0  0  0
  150.2360  140.6258  156.3961 C   0  0  0  0  0  0  0  0  0  0  0  0
  148.9636  141.3502  156.6979 C   0  0  0  0  0  0  0  0  0  0  0  0
  150.5337  139.6981  155.4334 C   0  0  0  0  0  0  0  0  0  0  0  0
  149.6381  139.1191  154.3684 C   0  0  0  0  0  0  0  0  0  0  0  0
  148.4146  138.3870  154.9641 C   0  0  2  0  0  0  0  0  0  0  0  0
  148.7202  137.7438  156.3259 C   0  0  0  0  0  0  0  0  0  0  0  0
  147.9417  137.3473  154.0459 N   0  0  0  0  0  0  0  0  0  0  0  0
  146.8740  136.5394  154.1843 C   0  0  0  0  0  0  0  0  0  0  0  0
  146.1412  136.5947  155.1698 O   0  0  0  0  0  0  0  0  0  0  0  0
  146.6931  135.6790  153.1682 N   0  0  0  0  0  0  0  0  0  0  0  0
  145.6424  134.6682  153.0596 C   0  0  2  0  0  0  0  0  0  0  0  0
  146.1901  133.2995  153.5100 C   0  0  0  0  0  0  0  0  0  0  0  0
  146.3041  132.4264  152.2521 C   0  0  0  0  0  0  0  0  0  0  0  0
  146.1106  133.3715  151.0664 C   0  0  0  0  0  0  0  0  0  0  0  0
  145.1825  134.4623  151.6017 C   0  0  2  0  0  0  0  0  0  0  0  0
  145.1216  135.7194  150.7170 C   0  0  0  0  0  0  0  0  0  0  0  0
  152.2900  138.0103  154.0577 H   0  0  0  0  0  0  0  0  0  0  0  0
  153.0997  137.6063  155.5642 H   0  0  0  0  0  0  0  0  0  0  0  0
  153.6977  138.9302  154.5661 H   0  0  0  0  0  0  0  0  0  0  0  0
  151.4603  142.7473  157.9477 H   0  0  0  0  0  0  0  0  0  0  0  0
  152.6081  141.5963  158.6587 H   0  0  0  0  0  0  0  0  0  0  0  0
  150.8813  141.4786  159.0478 H   0  0  0  0  0  0  0  0  0  0  0  0
  148.2149  141.1781  155.9252 H   0  0  0  0  0  0  0  0  0  0  0  0
  149.1332  142.4254  156.7589 H   0  0  0  0  0  0  0  0  0  0  0  0
  148.5465  141.0182  157.6488 H   0  0  0  0  0  0  0  0  0  0  0  0
  149.3031  139.9182  153.7068 H   0  0  0  0  0  0  0  0  0  0  0  0
  150.1887  138.4356  153.7214 H   0  0  0  0  0  0  0  0  0  0  0  0
  147.6086  139.1057  155.1217 H   0  0  0  0  0  0  0  0  0  0  0  0
  149.0004  138.4933  157.0663 H   0  0  0  0  0  0  0  0  0  0  0  0
  149.5382  137.0264  156.2524 H   0  0  0  0  0  0  0  0  0  0  0  0
  147.8485  137.2164  156.7146 H   0  0  0  0  0  0  0  0  0  0  0  0
  148.5005  137.2113  153.2159 H   0  0  0  0  0  0  0  0  0  0  0  0
  147.3515  135.7202  152.4041 H   0  0  0  0  0  0  0  0  0  0  0  0
  144.7894  134.9470  153.6809 H   0  0  0  0  0  0  0  0  0  0  0  0
  147.1576  133.3938  154.0054 H   0  0  0  0  0  0  0  0  0  0  0  0
  145.5158  132.8322  154.2281 H   0  0  0  0  0  0  0  0  0  0  0  0
  147.2552  131.8955  152.2018 H   0  0  0  0  0  0  0  0  0  0  0  0
  145.5113  131.6777  152.2554 H   0  0  0  0  0  0  0  0  0  0  0  0
  147.0700  133.8048  150.7804 H   0  0  0  0  0  0  0  0  0  0  0  0
  145.7019  132.8638  150.1924 H   0  0  0  0  0  0  0  0  0  0  0  0
  144.1768  134.0400  151.6412 H   0  0  0  0  0  0  0  0  0  0  0  0
  146.1082  136.1577  150.5633 H   0  0  0  0  0  0  0  0  0  0  0  0
  144.4822  136.4804  151.1650 H   0  0  0  0  0  0  0  0  0  0  0  0
  144.7135  135.4813  149.7345 H   0  0  0  0  0  0  0  0  0  0  0  0
  1  2  1  0  0  0  0
  1 22  1  0  0  0  0
  1 23  1  0  0  0  0
  1 24  1  0  0  0  0
  2  8  1  0  0  0  0
  2  3  2  0  0  0  0
  3  4  1  0  0  0  0
  4  5  1  0  0  0  0
  4  6  1  0  0  0  0
  5 25  1  0  0  0  0
  5 26  1  0  0  0  0
  5 27  1  0  0  0  0
  6  7  1  0  0  0  0
  6  8  2  0  0  0  0
  7 28  1  0  0  0  0
  7 29  1  0  0  0  0
  7 30  1  0  0  0  0
  8  9  1  0  0  0  0
  9 10  1  0  0  0  0
  9 31  1  0  0  0  0
  9 32  1  0  0  0  0
 10 11  1  0  0  0  0
 10 12  1  0  0  0  0
 10 33  1  0  0  0  0
 11 34  1  0  0  0  0
 11 35  1  0  0  0  0
 11 36  1  0  0  0  0
 12 13  1  0  0  0  0
 12 37  1  0  0  0  0
 13 14  2  0  0  0  0
 13 15  1  0  0  0  0
 15 16  1  0  0  0  0
 15 38  1  0  0  0  0
 16 20  1  0  0  0  0
 16 17  1  0  0  0  0
 16 39  1  0  0  0  0
 17 18  1  0  0  0  0
 17 40  1  0  0  0  0
 17 41  1  0  0  0  0
 18 19  1  0  0  0  0
 18 42  1  0  0  0  0
 18 43  1  0  0  0  0
 19 20  1  0  0  0  0
 19 44  1  0  0  0  0
 19 45  1  0  0  0  0
 20 21  1  0  0  0  0
 20 46  1  0  0  0  0
 21 47  1  0  0  0  0
 21 48  1  0  0  0  0
 21 49  1  0  0  0  0
M  END
> <s_m_source_file>
AV-unprocessed.smi

> <i_m_source_file_index>
671

> <i_lp_mmshare_version>
43012

> <i_f3d_flags>
0

> <s_epik_input>
W0NIM11jMW5uKFtDSDNdKWMoW0NIM10pYzFbQ0gyXVtDQEhdKFtDSDNdKVtOSF1DKD1PKVtOSF1bQ0BASF0yW0NIMl1bQ0gyXVtDSDJdW0NASF0yW0NIM10=

> <s_epik_cmdline>
J2VwaWtfcHl0aG9uJywgJy1waCcsICc3LjAnLCAnLXRuJywgJzgnLCAnLW1hJywgJzIwMCcsICctbWV0YWxfYmluZGluZycsICctaW1hZScsICc8aW5maWxlLm1hZT4nLCAnLW9tYWUnLCAnPG91dGZpbGUubWFlPic=

> <r_lp_tautomer_probability>
1

> <r_epik_Ionization_Penalty>
0.0126855

> <r_epik_Ionization_Penalty_Charging>
0

> <r_epik_Ionization_Penalty_Neutral>
0.0126855

> <r_epik_State_Penalty>
0.00977547

> <r_epik_Charging_Adjusted_Penalty>
0.00977547

> <i_epik_Tot_Q>
0

> <i_epik_Tot_abs_Q>
0

> <r_epik_Metal_State_Penalty>
0.00957132

> <b_epik_Metal_Only>
0

> <s_lp_Force_Field>
OPLS_2005

> <r_lp_Energy>
22.3824

> <b_lp_Chiralities_Consistent>
1

> <s_lp_Variant>
AV-unprocessed.smi:671-5

> <Gold.Version>
5.8.1

> <Gold.Id.Protein>
6NUR|6NUR_protein|mol2

> <Gold.PLP.Fitness>
39.4239

> <Gold.PLP.PLP>
-31.8327

> <Gold.PLP.part.hbond>
-3.0000

> <Gold.PLP.part.metal>
0.0000

> <Gold.PLP.part.buried>
-2.3880

> <Gold.PLP.part.nonpolar>
-27.0278

> <Gold.PLP.part.repulsive>
0.0344

> <Gold.PLP.ligand.clash>
0.0000

> <Gold.PLP.ligand.torsion>
0.6728

> <Gold.PLP.Chemscore.Hbond>
2.9600

> <Gold.PLP.Chemscore.CHOScore>
0.0000

> <Gold.PLP.Chemscore.Metal>
0.0000

> <Gold.Chemscore.Hbonds>
donor molecule, donor type, donor heavy atom, donor atom, acceptor molecule, acceptor atom, score
      L1  H    12    37       P1  7948  1.00
      L1  H    15    38       P1  7948  0.96
      P1  H  7997  8008       L1     3  1.00

> <Gold.PLP.Chemscore.Internal.Correction>
0.0567

> <Gold.Rescore>
     Score         DG    S(hbond)    S(metal)    S(lipo)     H(rot)  DE(clash)    DE(int)     intcor
     20.10     -20.84       2.87        0.00      81.04       1.45       0.07       0.67       ----

> <Gold.Chemscore.Fitness>
20.0966

> <Gold.Chemscore.DG>
-20.8371

> <Gold.Chemscore.ZeroCoef>
-5.4800

> <Gold.Chemscore.Hbond>
2.8705

> <Gold.Chemscore.Metal>
0.0000

> <Gold.Chemscore.Lipo>
81.0380

> <Gold.Chemscore.Internal_Hbond>
0.0000

> <Gold.Chemscore.DEClash>
0.0669

> <Gold.Chemscore.DEInternal>
0.6736

> <Gold.Chemscore.Rot>
1.4499

> <Gold.Chemscore.Internal.Correction>
   9.000000E+99

> <Gold.Chemscore.Hbonds>
donor molecule, donor type, donor heavy atom, donor atom, acceptor molecule, acceptor atom, score
      L1  H    12    37       P1  7948  0.95
      L1  H    15    38       P1  7948  0.92
      P1  H  7997  8008       L1     3  0.64

> <Gold.Chemscore.Hbond.Weighted>
-9.5875

> <Gold.Chemscore.Metal.Weighted>
-0.0000

> <Gold.Chemscore.Lipo.Weighted>
-9.4814

> <Gold.Chemscore.Internal_Hbond.Weighted>
0.0000

> <Gold.Chemscore.DEClash.Weighted>
0.0669

> <Gold.Chemscore.DEInternal.Weighted>
0.6736

> <Gold.Chemscore.Rot.Weighted>
3.7118

> <Gold.Chemscore.Internal.Correction.Weighted>
   9.000000E+99

> <Gold.Protein.RotatedTorsions>
[ 6907 6896 6895 6894 ] final  -23.32 input  -60.11 | X-H torsion
[ 7974 7965 7964 7962 ] final  175.31 input  175.53 | X-H torsion
[ 8008 7997 7996 7995 ] final  -51.48 input   59.86 | X-H torsion
[ 10167 10162 10161 10158 ] final   -0.93 input  -65.29 | X-H torsion
[ 10718 10713 10712 10709 ] final  152.16 input   66.30 | X-H torsion
[ 10763 10752 10751 10750 ] final  -74.57 input  -60.55 | X-H torsion
[ 11005 11000 10999 10996 ] final  140.26 input  -57.11 | X-H torsion

> <Gold.Protein.ActiveResidues>
 VAL166  LYS551  ARG553  GLY616  TRP617  ASP618  TYR619  PRO620  LYS621  CYS622 
 ASP623  PHE694  ASN695  SER759  ASP760  ASP761  ALA762  ILE779  LEU786  VAL792 
 PHE793  MET794  SER795  GLU796  ALA797  LYS798  CYS799  TRP800  GLU811  SER814 

> <Gold.Protein.RotatedAtoms>
  151.2057  135.0461  159.8890 H   0  0  0  0  0  0  0  0  0  0  0  0  # atno 6907 bound_to 6896
  152.5429  134.0800  159.8241 H   0  0  0  0  0  0  0  0  0  0  0  0  # atno 6908 bound_to 6896
  151.0947  133.5241  159.2645 H   0  0  0  0  0  0  0  0  0  0  0  0  # atno 6909 bound_to 6896
  144.7204  139.9928  143.6440 H   0  0  0  0  0  0  0  0  0  0  0  0  # atno 7974 bound_to 7965
  154.4084  140.1247  156.4836 H   0  0  0  0  0  0  0  0  0  0  0  0  # atno 8008 bound_to 7997
  155.7060  140.3494  155.4934 H   0  0  0  0  0  0  0  0  0  0  0  0  # atno 8009 bound_to 7997
  155.9343  140.1075  157.1097 H   0  0  0  0  0  0  0  0  0  0  0  0  # atno 8010 bound_to 7997
  140.6788  143.6836  150.8085 H   0  0  0  0  0  0  0  0  0  0  0  0  # atno 10167 bound_to 10162
  157.2614  131.0799  151.1663 H   0  0  0  0  0  0  0  0  0  0  0  0  # atno 10718 bound_to 10713
  154.4748  135.5860  153.6347 H   0  0  0  0  0  0  0  0  0  0  0  0  # atno 10763 bound_to 10752
  152.9839  135.6075  154.3320 H   0  0  0  0  0  0  0  0  0  0  0  0  # atno 10764 bound_to 10752
  154.3206  135.2843  155.2500 H   0  0  0  0  0  0  0  0  0  0  0  0  # atno 10765 bound_to 10752
  140.0314  134.9350  157.0670 H   0  0  0  0  0  0  0  0  0  0  0  0  # atno 11005 bound_to 11000
  146.0398  139.3411  143.0704 LP  0  0  0  0  0  0  0  0  0  0  0  0  # atno 17320 bound_to 7965
  145.8349  140.9611  143.0830 LP  0  0  0  0  0  0  0  0  0  0  0  0  # atno 17321 bound_to 7965
  140.0533  143.5227  152.2663 LP  0  0  0  0  0  0  0  0  0  0  0  0  # atno 17342 bound_to 10162
  139.6097  144.7605  151.2979 LP  0  0  0  0  0  0  0  0  0  0  0  0  # atno 17343 bound_to 10162
  157.3171  130.6919  149.6248 LP  0  0  0  0  0  0  0  0  0  0  0  0  # atno 17370 bound_to 10713
  155.9664  130.4346  150.5057 LP  0  0  0  0  0  0  0  0  0  0  0  0  # atno 17371 bound_to 10713
  140.4219  134.1872  155.7165 LP  0  0  0  0  0  0  0  0  0  0  0  0  # atno 17394 bound_to 11000
  141.1833  133.8367  157.1179 LP  0  0  0  0  0  0  0  0  0  0  0  0  # atno 17395 bound_to 11000

$$$$
