AV-unprocessed.smi:2173|AV-procd|sdf|8839|dock10
  -GOLD-   2272012 33D 1   1.00000     0.00000
 Structure written by MMmdl.
 35 36  0  0  0  0  0  0  0  0  1 V2000
  151.3049  140.7328  156.1592 O   0  0  0  0  0  0  0  0  0  0  0  0
  150.4862  141.6252  155.9355 C   0  0  0  0  0  0  0  0  0  0  0  0
  150.4767  142.7955  156.5913 N   0  0  0  0  0  0  0  0  0  0  0  0
  151.4612  143.2082  157.5863 C   0  0  0  0  0  0  0  0  0  0  0  0
  151.9247  142.0501  158.4950 C   0  0  0  0  0  0  0  0  0  0  0  0
  152.2993  142.4850  159.9032 C   0  0  0  0  0  0  0  0  0  0  0  0
  153.0652  141.6399  160.7340 C   0  0  0  0  0  0  0  0  0  0  0  0
  153.3672  142.0760  162.0390 C   0  0  0  0  0  0  0  0  0  0  0  0
  152.8930  143.3329  162.4617 C   0  0  0  0  0  0  0  0  0  0  0  0
  152.1369  144.1028  161.5559 C   0  0  0  0  0  0  0  0  0  0  0  0
  151.8428  143.6942  160.3032 N   0  0  0  0  0  0  0  0  0  0  0  0
  149.4182  141.4449  154.8491 C   0  0  1  0  0  0  0  0  0  0  0  0
  149.3228  139.9645  154.4145 C   0  0  0  0  0  0  0  0  0  0  0  0
  148.1176  139.7044  153.5285 C   0  0  0  0  0  0  0  0  0  0  0  0
  147.0834  140.5558  153.4192 C   0  0  0  0  0  0  0  0  0  0  0  0
  146.9999  141.8714  154.1736 C   0  0  0  0  0  0  0  0  0  0  0  0
  148.0400  141.9630  155.3069 C   0  0  0  0  0  0  0  0  0  0  0  0
  149.7675  143.4705  156.3447 H   0  0  0  0  0  0  0  0  0  0  0  0
  152.3198  143.6082  157.0464 H   0  0  0  0  0  0  0  0  0  0  0  0
  151.0682  144.0290  158.1885 H   0  0  0  0  0  0  0  0  0  0  0  0
  151.1383  141.2972  158.5545 H   0  0  0  0  0  0  0  0  0  0  0  0
  152.7816  141.5486  158.0424 H   0  0  0  0  0  0  0  0  0  0  0  0
  153.4097  140.6786  160.3821 H   0  0  0  0  0  0  0  0  0  0  0  0
  153.9503  141.4568  162.7044 H   0  0  0  0  0  0  0  0  0  0  0  0
  153.1040  143.6986  163.4557 H   0  0  0  0  0  0  0  0  0  0  0  0
  151.7565  145.0713  161.8453 H   0  0  0  0  0  0  0  0  0  0  0  0
  149.7165  142.0339  153.9795 H   0  0  0  0  0  0  0  0  0  0  0  0
  150.2232  139.6828  153.8675 H   0  0  0  0  0  0  0  0  0  0  0  0
  149.2565  139.3007  155.2777 H   0  0  0  0  0  0  0  0  0  0  0  0
  148.1106  138.7758  152.9771 H   0  0  0  0  0  0  0  0  0  0  0  0
  146.2610  140.3196  152.7599 H   0  0  0  0  0  0  0  0  0  0  0  0
  147.1492  142.6801  153.4578 H   0  0  0  0  0  0  0  0  0  0  0  0
  145.9956  141.9898  154.5811 H   0  0  0  0  0  0  0  0  0  0  0  0
  147.6929  141.3721  156.1564 H   0  0  0  0  0  0  0  0  0  0  0  0
  148.1111  142.9933  155.6582 H   0  0  0  0  0  0  0  0  0  0  0  0
  1  2  2  0  0  0  0
  2  3  1  0  0  0  0
  2 12  1  0  0  0  0
  3  4  1  0  0  0  0
  3 18  1  0  0  0  0
  4  5  1  0  0  0  0
  4 19  1  0  0  0  0
  4 20  1  0  0  0  0
  5  6  1  0  0  0  0
  5 21  1  0  0  0  0
  5 22  1  0  0  0  0
  6 11  1  0  0  0  0
  6  7  2  0  0  0  0
  7  8  1  0  0  0  0
  7 23  1  0  0  0  0
  8  9  2  0  0  0  0
  8 24  1  0  0  0  0
  9 10  1  0  0  0  0
  9 25  1  0  0  0  0
 10 11  2  0  0  0  0
 10 26  1  0  0  0  0
 12 17  1  0  0  0  0
 12 13  1  0  0  0  0
 12 27  1  0  0  0  0
 13 14  1  0  0  0  0
 13 28  1  0  0  0  0
 13 29  1  0  0  0  0
 14 15  2  0  0  0  0
 14 30  1  0  0  0  0
 15 16  1  0  0  0  0
 15 31  1  0  0  0  0
 16 17  1  0  0  0  0
 16 32  1  0  0  0  0
 16 33  1  0  0  0  0
 17 34  1  0  0  0  0
 17 35  1  0  0  0  0
M  END
> <s_m_source_file>
AV-unprocessed.smi

> <i_m_source_file_index>
2173

> <i_lp_mmshare_version>
43012

> <i_f3d_flags>
0

> <s_epik_input>
W0NIMl0xW0NIMl1bQ0hdPVtDSF1bQ0gyXVtDQEhdMUMoPU8pW05IXVtDSDJdW0NIMl1jMltjSF1bY0hdW2NIXVtjSF1uMg==

> <s_epik_cmdline>
J2VwaWtfcHl0aG9uJywgJy1waCcsICc3LjAnLCAnLXRuJywgJzgnLCAnLW1hJywgJzIwMCcsICctbWV0YWxfYmluZGluZycsICctaW1hZScsICc8aW5maWxlLm1hZT4nLCAnLW9tYWUnLCAnPG91dGZpbGUubWFlPic=

> <r_epik_Ionization_Penalty>
0.0268825

> <r_epik_Ionization_Penalty_Charging>
0

> <r_epik_Ionization_Penalty_Neutral>
0.0268825

> <r_epik_State_Penalty>
0.0219706

> <r_epik_Charging_Adjusted_Penalty>
0.0219706

> <i_epik_Tot_Q>
0

> <i_epik_Tot_abs_Q>
0

> <r_epik_Metal_State_Penalty>
0.0210138

> <b_epik_Metal_Only>
0

> <s_lp_Force_Field>
OPLS_2005

> <r_lp_Energy>
8.2635

> <b_lp_Chiralities_Consistent>
1

> <s_lp_Variant>
AV-unprocessed.smi:2173-2

> <Gold.Version>
5.8.1

> <Gold.Id.Protein>
6NUR|6NUR_protein|mol2

> <Gold.PLP.Fitness>
43.4685

> <Gold.PLP.PLP>
-42.4335

> <Gold.PLP.part.hbond>
-1.0000

> <Gold.PLP.part.metal>
0.0000

> <Gold.PLP.part.buried>
-1.3925

> <Gold.PLP.part.nonpolar>
-39.2524

> <Gold.PLP.part.repulsive>
0.1342

> <Gold.PLP.ligand.clash>
0.0000

> <Gold.PLP.ligand.torsion>
0.9936

> <Gold.PLP.Chemscore.Hbond>
1.0000

> <Gold.PLP.Chemscore.CHOScore>
0.0000

> <Gold.PLP.Chemscore.Metal>
0.0000

> <Gold.Chemscore.Hbonds>
donor molecule, donor type, donor heavy atom, donor atom, acceptor molecule, acceptor atom, score
      L1  H     3    18       P1  8028  1.00

> <Gold.PLP.Chemscore.Internal.Correction>
0.0221

> <Gold.Rescore>
     Score         DG    S(hbond)    S(metal)    S(lipo)     H(rot)  DE(clash)    DE(int)     intcor
     15.76     -18.88       1.00        0.00     116.50       1.39       0.48       2.64       ----

> <Gold.Chemscore.Fitness>
15.7646

> <Gold.Chemscore.DG>
-18.8755

> <Gold.Chemscore.ZeroCoef>
-5.4800

> <Gold.Chemscore.Hbond>
0.9955

> <Gold.Chemscore.Metal>
0.0000

> <Gold.Chemscore.Lipo>
116.5016

> <Gold.Chemscore.Internal_Hbond>
0.0000

> <Gold.Chemscore.DEClash>
0.4756

> <Gold.Chemscore.DEInternal>
2.6353

> <Gold.Chemscore.Rot>
1.3907

> <Gold.Chemscore.Internal.Correction>
   9.000000E+99

> <Gold.Chemscore.Hbonds>
donor molecule, donor type, donor heavy atom, donor atom, acceptor molecule, acceptor atom, score
      L1  H     3    18       P1  8028  1.00

> <Gold.Chemscore.Hbond.Weighted>
-3.3249

> <Gold.Chemscore.Metal.Weighted>
-0.0000

> <Gold.Chemscore.Lipo.Weighted>
-13.6307

> <Gold.Chemscore.Internal_Hbond.Weighted>
0.0000

> <Gold.Chemscore.DEClash.Weighted>
0.4756

> <Gold.Chemscore.DEInternal.Weighted>
2.6353

> <Gold.Chemscore.Rot.Weighted>
3.5601

> <Gold.Chemscore.Internal.Correction.Weighted>
   9.000000E+99

> <Gold.Protein.RotatedTorsions>
[ 6907 6896 6895 6894 ] final    9.48 input  -60.11 | X-H torsion
[ 7974 7965 7964 7962 ] final  167.19 input  175.53 | X-H torsion
[ 8008 7997 7996 7995 ] final  168.43 input   59.86 | X-H torsion
[ 10167 10162 10161 10158 ] final -136.93 input  -65.29 | X-H torsion
[ 10718 10713 10712 10709 ] final  -62.54 input   66.30 | X-H torsion
[ 10763 10752 10751 10750 ] final  -40.59 input  -60.55 | X-H torsion
[ 11005 11000 10999 10996 ] final   44.58 input  -57.11 | X-H torsion

> <Gold.Protein.ActiveResidues>
 VAL166  LYS551  ARG553  GLY616  TRP617  ASP618  TYR619  PRO620  LYS621  CYS622 
 ASP623  PHE694  ASN695  SER759  ASP760  ASP761  ALA762  ILE779  LEU786  VAL792 
 PHE793  MET794  SER795  GLU796  ALA797  LYS798  CYS799  TRP800  GLU811  SER814 

> <Gold.Protein.RotatedAtoms>
  151.7228  135.0891  160.0286 H   0  0  0  0  0  0  0  0  0  0  0  0  # atno 6907 bound_to 6896
  152.3591  133.6269  159.6010 H   0  0  0  0  0  0  0  0  0  0  0  0  # atno 6908 bound_to 6896
  150.7591  133.9369  159.3485 H   0  0  0  0  0  0  0  0  0  0  0  0  # atno 6909 bound_to 6896
  144.7434  139.8725  143.6390 H   0  0  0  0  0  0  0  0  0  0  0  0  # atno 7974 bound_to 7965
  156.1547  140.1591  156.8711 H   0  0  0  0  0  0  0  0  0  0  0  0  # atno 8008 bound_to 7997
  154.5104  140.0802  156.8015 H   0  0  0  0  0  0  0  0  0  0  0  0  # atno 8009 bound_to 7997
  155.3826  140.3406  155.4250 H   0  0  0  0  0  0  0  0  0  0  0  0  # atno 8010 bound_to 7997
  139.8629  143.7055  152.2648 H   0  0  0  0  0  0  0  0  0  0  0  0  # atno 10167 bound_to 10162
  156.0848  130.4210  150.1150 H   0  0  0  0  0  0  0  0  0  0  0  0  # atno 10718 bound_to 10713
  153.9484  135.6753  153.4744 H   0  0  0  0  0  0  0  0  0  0  0  0  # atno 10763 bound_to 10752
  153.0896  135.4881  154.8661 H   0  0  0  0  0  0  0  0  0  0  0  0  # atno 10764 bound_to 10752
  154.7339  135.3144  154.8804 H   0  0  0  0  0  0  0  0  0  0  0  0  # atno 10765 bound_to 10752
  140.1538  134.4428  155.8363 H   0  0  0  0  0  0  0  0  0  0  0  0  # atno 11005 bound_to 11000
  146.1270  139.4298  143.0192 LP  0  0  0  0  0  0  0  0  0  0  0  0  # atno 17320 bound_to 7965
  145.7220  141.0072  143.1397 LP  0  0  0  0  0  0  0  0  0  0  0  0  # atno 17321 bound_to 7965
  139.7357  144.7572  151.0731 LP  0  0  0  0  0  0  0  0  0  0  0  0  # atno 17342 bound_to 10162
  140.7772  143.5033  150.9743 LP  0  0  0  0  0  0  0  0  0  0  0  0  # atno 17343 bound_to 10162
  156.9173  130.9671  151.3554 LP  0  0  0  0  0  0  0  0  0  0  0  0  # atno 17370 bound_to 10713
  157.5979  130.8491  149.8757 LP  0  0  0  0  0  0  0  0  0  0  0  0  # atno 17371 bound_to 10713
  141.2202  133.6884  156.7470 LP  0  0  0  0  0  0  0  0  0  0  0  0  # atno 17394 bound_to 11000
  140.2572  134.8495  157.3724 LP  0  0  0  0  0  0  0  0  0  0  0  0  # atno 17395 bound_to 11000

$$$$
