AV-unprocessed.smi:1550|AV-procd|sdf|6225|dock10
  -GOLD-   22720 6403D 1   1.00000     0.00000
 Structure written by MMmdl.
 43 44  0  0  0  0  0  0  0  0  1 V2000
  151.5078  137.9472  156.4315 C   0  0  0  0  0  0  0  0  0  0  0  0
  151.7002  138.2631  157.9222 C   0  0  1  0  0  0  0  0  0  0  0  0
  151.4167  139.6472  158.1073 O   0  0  0  0  0  0  0  0  0  0  0  0
  152.1528  140.2907  159.1417 C   0  0  0  0  0  0  0  0  0  0  0  0
  151.6797  141.7462  159.2469 C   0  0  2  0  0  0  0  0  0  0  0  0
  151.5481  142.4122  157.8632 C   0  0  0  0  0  0  0  0  0  0  0  0
  151.1592  143.8878  158.0099 C   0  0  0  0  0  0  0  0  0  0  0  0
  152.1424  144.5903  158.9521 C   0  0  0  0  0  0  0  0  0  0  0  0
  152.2603  143.8164  160.2745 C   0  0  0  0  0  0  0  0  0  0  0  0
  152.6404  142.4687  160.0148 O   0  0  0  0  0  0  0  0  0  0  0  0
  150.7731  137.4067  158.8001 C   0  0  0  0  0  0  0  0  0  0  0  0
  151.1164  137.1242  159.9478 O   0  0  0  0  0  0  0  0  0  0  0  0
  149.6160  137.0280  158.2220 N   0  0  0  0  0  0  0  0  0  0  0  0
  148.5884  136.2210  158.7375 C   0  0  0  0  0  0  0  0  0  0  0  0
  148.4217  135.9273  160.0535 C   0  0  0  0  0  0  0  0  0  0  0  0
  147.3434  135.0736  160.5227 C   0  0  0  0  0  0  0  0  0  0  0  0
  147.1182  134.8204  162.0053 C   0  0  0  0  0  0  0  0  0  0  0  0
  147.9655  135.5294  162.7526 F   0  0  0  0  0  0  0  0  0  0  0  0
  145.8768  135.1697  162.3401 F   0  0  0  0  0  0  0  0  0  0  0  0
  147.2794  133.5302  162.2993 F   0  0  0  0  0  0  0  0  0  0  0  0
  146.5084  134.5909  159.5839 C   0  0  0  0  0  0  0  0  0  0  0  0
  146.6876  134.8676  158.2267 N   0  0  0  0  0  0  0  0  0  0  0  0
  147.6751  135.6487  157.7346 C   0  0  0  0  0  0  0  0  0  0  0  0
  147.7676  135.8431  156.5229 O   0  0  0  0  0  0  0  0  0  0  0  0
  146.0299  134.4522  157.5826 H   0  0  0  0  0  0  0  0  0  0  0  0
  151.6912  136.8926  156.2230 H   0  0  0  0  0  0  0  0  0  0  0  0
  152.2000  138.5282  155.8217 H   0  0  0  0  0  0  0  0  0  0  0  0
  150.4972  138.1852  156.0968 H   0  0  0  0  0  0  0  0  0  0  0  0
  152.7431  138.0693  158.1810 H   0  0  0  0  0  0  0  0  0  0  0  0
  152.0348  139.7881  160.1024 H   0  0  0  0  0  0  0  0  0  0  0  0
  153.2134  140.2646  158.8871 H   0  0  0  0  0  0  0  0  0  0  0  0
  150.7120  141.7685  159.7517 H   0  0  0  0  0  0  0  0  0  0  0  0
  152.4946  142.3359  157.3261 H   0  0  0  0  0  0  0  0  0  0  0  0
  150.8035  141.8906  157.2609 H   0  0  0  0  0  0  0  0  0  0  0  0
  151.1474  144.3785  157.0364 H   0  0  0  0  0  0  0  0  0  0  0  0
  150.1480  143.9632  158.4119 H   0  0  0  0  0  0  0  0  0  0  0  0
  153.1232  144.6524  158.4788 H   0  0  0  0  0  0  0  0  0  0  0  0
  151.8192  145.6144  159.1407 H   0  0  0  0  0  0  0  0  0  0  0  0
  153.0136  144.2785  160.9127 H   0  0  0  0  0  0  0  0  0  0  0  0
  151.3188  143.8401  160.8254 H   0  0  0  0  0  0  0  0  0  0  0  0
  149.4349  137.4014  157.3012 H   0  0  0  0  0  0  0  0  0  0  0  0
  149.1055  136.3042  160.7966 H   0  0  0  0  0  0  0  0  0  0  0  0
  145.6499  133.9700  159.7941 H   0  0  0  0  0  0  0  0  0  0  0  0
  1  2  1  0  0  0  0
  1 26  1  0  0  0  0
  1 27  1  0  0  0  0
  1 28  1  0  0  0  0
  2  3  1  0  0  0  0
  2 11  1  0  0  0  0
  2 29  1  0  0  0  0
  3  4  1  0  0  0  0
  4  5  1  0  0  0  0
  4 30  1  0  0  0  0
  4 31  1  0  0  0  0
  5 10  1  0  0  0  0
  5  6  1  0  0  0  0
  5 32  1  0  0  0  0
  6  7  1  0  0  0  0
  6 33  1  0  0  0  0
  6 34  1  0  0  0  0
  7  8  1  0  0  0  0
  7 35  1  0  0  0  0
  7 36  1  0  0  0  0
  8  9  1  0  0  0  0
  8 37  1  0  0  0  0
  8 38  1  0  0  0  0
  9 10  1  0  0  0  0
  9 39  1  0  0  0  0
  9 40  1  0  0  0  0
 11 12  2  0  0  0  0
 11 13  1  0  0  0  0
 13 14  1  0  0  0  0
 13 41  1  0  0  0  0
 14 23  1  0  0  0  0
 14 15  2  0  0  0  0
 15 16  1  0  0  0  0
 15 42  1  0  0  0  0
 16 17  1  0  0  0  0
 16 21  2  0  0  0  0
 17 18  1  0  0  0  0
 17 19  1  0  0  0  0
 17 20  1  0  0  0  0
 21 22  1  0  0  0  0
 21 43  1  0  0  0  0
 22 25  1  0  0  0  0
 22 23  1  0  0  0  0
 23 24  2  0  0  0  0
M  END
> <s_m_source_file>
AV-unprocessed.smi

> <i_m_source_file_index>
1550

> <i_lp_mmshare_version>
43012

> <i_f3d_flags>
0

> <s_epik_input>
TzFbQ0gyXVtDSDJdW0NIMl1bQ0gyXVtDQEhdMVtDSDJdT1tDQEBIXShbQ0gzXSlDKD1PKVtOSF1jMltjSF1jKEMoRikoRilGKVtjSF1bbkhdYzI9Tw==

> <s_epik_cmdline>
J2VwaWtfcHl0aG9uJywgJy1waCcsICc3LjAnLCAnLXRuJywgJzgnLCAnLW1hJywgJzIwMCcsICctbWV0YWxfYmluZGluZycsICctaW1hZScsICc8aW5maWxlLm1hZT4nLCAnLW9tYWUnLCAnPG91dGZpbGUubWFlPic=

> <r_lp_tautomer_probability>
0.999

> <r_epik_Ionization_Penalty>
0.00891333

> <r_epik_Ionization_Penalty_Charging>
0.00891323

> <r_epik_Ionization_Penalty_Neutral>
1.00146e-07

> <r_epik_State_Penalty>
0.00674197

> <r_epik_Charging_Adjusted_Penalty>
0.0156552

> <i_epik_Tot_Q>
0

> <i_epik_Tot_abs_Q>
0

> <r_epik_Metal_State_Penalty>
0.321024

> <b_epik_Metal_Only>
0

> <s_lp_Force_Field>
OPLS_2005

> <r_lp_Energy>
24.7831

> <b_lp_Chiralities_Consistent>
1

> <s_lp_Variant>
AV-unprocessed.smi:1550-2

> <Gold.Version>
5.8.1

> <Gold.Id.Protein>
6NUR|6NUR_protein|mol2

> <Gold.PLP.Fitness>
41.6334

> <Gold.PLP.PLP>
-41.8300

> <Gold.PLP.part.hbond>
-1.1704

> <Gold.PLP.part.metal>
0.0000

> <Gold.PLP.part.buried>
-7.1466

> <Gold.PLP.part.nonpolar>
-34.1098

> <Gold.PLP.part.repulsive>
0.1136

> <Gold.PLP.ligand.clash>
0.0000

> <Gold.PLP.ligand.torsion>
1.4168

> <Gold.PLP.Chemscore.Hbond>
0.8450

> <Gold.PLP.Chemscore.CHOScore>
0.0000

> <Gold.PLP.Chemscore.Metal>
0.0000

> <Gold.Chemscore.Hbonds>
donor molecule, donor type, donor heavy atom, donor atom, acceptor molecule, acceptor atom, score
      P1  H  6896  6907       L1    12  1.00

> <Gold.PLP.Chemscore.Internal.Correction>
0.1020

> <Gold.Rescore>
     Score         DG    S(hbond)    S(metal)    S(lipo)     H(rot)  DE(clash)    DE(int)     intcor
     12.69     -15.16       0.99        0.00      95.13       1.86       0.16       2.32       ----

> <Gold.Chemscore.Fitness>
12.6863

> <Gold.Chemscore.DG>
-15.1648

> <Gold.Chemscore.ZeroCoef>
-5.4800

> <Gold.Chemscore.Hbond>
0.9906

> <Gold.Chemscore.Metal>
0.0000

> <Gold.Chemscore.Lipo>
95.1300

> <Gold.Chemscore.Internal_Hbond>
0.0000

> <Gold.Chemscore.DEClash>
0.1556

> <Gold.Chemscore.DEInternal>
2.3229

> <Gold.Chemscore.Rot>
1.8571

> <Gold.Chemscore.Internal.Correction>
   9.000000E+99

> <Gold.Chemscore.Hbonds>
donor molecule, donor type, donor heavy atom, donor atom, acceptor molecule, acceptor atom, score
      P1  H  6896  6907       L1    12  0.43

> <Gold.Chemscore.Hbond.Weighted>
-3.3087

> <Gold.Chemscore.Metal.Weighted>
-0.0000

> <Gold.Chemscore.Lipo.Weighted>
-11.1302

> <Gold.Chemscore.Internal_Hbond.Weighted>
0.0000

> <Gold.Chemscore.DEClash.Weighted>
0.1556

> <Gold.Chemscore.DEInternal.Weighted>
2.3229

> <Gold.Chemscore.Rot.Weighted>
4.7541

> <Gold.Chemscore.Internal.Correction.Weighted>
   9.000000E+99

> <Gold.Protein.RotatedTorsions>
[ 6907 6896 6895 6894 ] final  -17.91 input  -60.11 | X-H torsion
[ 7974 7965 7964 7962 ] final  -60.37 input  175.53 | X-H torsion
[ 8008 7997 7996 7995 ] final -145.29 input   59.86 | X-H torsion
[ 10167 10162 10161 10158 ] final -120.07 input  -65.29 | X-H torsion
[ 10718 10713 10712 10709 ] final   31.20 input   66.30 | X-H torsion
[ 10763 10752 10751 10750 ] final  145.18 input  -60.55 | X-H torsion
[ 11005 11000 10999 10996 ] final  125.34 input  -57.11 | X-H torsion

> <Gold.Protein.ActiveResidues>
 VAL166  LYS551  ARG553  GLY616  TRP617  ASP618  TYR619  PRO620  LYS621  CYS622 
 ASP623  PHE694  ASN695  SER759  ASP760  ASP761  ALA762  ILE779  LEU786  VAL792 
 PHE793  MET794  SER795  GLU796  ALA797  LYS798  CYS799  TRP800  GLU811  SER814 

> <Gold.Protein.RotatedAtoms>
  151.2862  135.0728  159.9187 H   0  0  0  0  0  0  0  0  0  0  0  0  # atno 6907 bound_to 6896
  152.5325  133.9979  159.7891 H   0  0  0  0  0  0  0  0  0  0  0  0  # atno 6908 bound_to 6896
  151.0241  133.5798  159.2698 H   0  0  0  0  0  0  0  0  0  0  0  0  # atno 6909 bound_to 6896
  145.8164  140.8567  143.0155 H   0  0  0  0  0  0  0  0  0  0  0  0  # atno 7974 bound_to 7965
  155.5407  140.0608  157.2870 H   0  0  0  0  0  0  0  0  0  0  0  0  # atno 8008 bound_to 7997
  154.4453  140.1919  156.0632 H   0  0  0  0  0  0  0  0  0  0  0  0  # atno 8009 bound_to 7997
  156.0586  140.3275  155.7439 H   0  0  0  0  0  0  0  0  0  0  0  0  # atno 8010 bound_to 7997
  140.0398  143.5165  152.2136 H   0  0  0  0  0  0  0  0  0  0  0  0  # atno 10167 bound_to 10162
  157.2694  130.7200  149.6496 H   0  0  0  0  0  0  0  0  0  0  0  0  # atno 10718 bound_to 10713
  154.0012  135.2923  155.3402 H   0  0  0  0  0  0  0  0  0  0  0  0  # atno 10763 bound_to 10752
  154.7158  135.5130  153.8739 H   0  0  0  0  0  0  0  0  0  0  0  0  # atno 10764 bound_to 10752
  153.0765  135.6665  154.0253 H   0  0  0  0  0  0  0  0  0  0  0  0  # atno 10765 bound_to 10752
  139.9402  134.9636  156.8544 H   0  0  0  0  0  0  0  0  0  0  0  0  # atno 11005 bound_to 11000
  144.6752  140.0469  143.7479 LP  0  0  0  0  0  0  0  0  0  0  0  0  # atno 17320 bound_to 7965
  145.9722  139.2878  143.1092 LP  0  0  0  0  0  0  0  0  0  0  0  0  # atno 17321 bound_to 7965
  139.6021  144.7586  151.3147 LP  0  0  0  0  0  0  0  0  0  0  0  0  # atno 17342 bound_to 10162
  140.7265  143.6988  150.7862 LP  0  0  0  0  0  0  0  0  0  0  0  0  # atno 17343 bound_to 10162
  155.9663  130.4372  150.5167 LP  0  0  0  0  0  0  0  0  0  0  0  0  # atno 17370 bound_to 10713
  157.3088  131.0659  151.2016 LP  0  0  0  0  0  0  0  0  0  0  0  0  # atno 17371 bound_to 10713
  140.5972  134.0206  155.7523 LP  0  0  0  0  0  0  0  0  0  0  0  0  # atno 17394 bound_to 11000
  141.1033  133.9734  157.3041 LP  0  0  0  0  0  0  0  0  0  0  0  0  # atno 17395 bound_to 11000

$$$$
