AV-unprocessed.smi:1014|AV-procd|sdf|4433|dock6
  -GOLD-   22720 2393D 1   1.00000     0.00000
 Structure written by MMmdl.
 33 33  0  0  0  0  0  0  0  0  1 V2000
  151.0920  139.4354  155.6819 C   0  0  0  0  0  0  0  0  0  0  0  0
  149.8605  139.8487  156.4996 C   0  0  0  0  0  0  0  0  0  0  0  0
  149.2724  141.2094  156.0700 C   0  0  1  0  0  0  0  0  0  0  0  0
  150.1838  142.3011  156.4621 N   0  0  0  0  0  0  0  0  0  0  0  0
  150.6619  142.2230  157.8378 C   0  0  0  0  0  0  0  0  0  0  0  0
  151.7313  143.3010  158.0635 C   0  0  0  0  0  0  0  0  0  0  0  0
  152.0053  143.4939  159.4742 N   0  0  0  0  0  0  0  0  0  0  0  0
  152.4406  142.5676  160.3979 C   0  0  0  0  0  0  0  0  0  0  0  0
  152.5547  143.2079  161.5995 C   0  0  0  0  0  0  0  0  0  0  0  0
  152.9896  142.6494  162.9237 C   0  0  0  0  0  0  0  0  0  0  0  0
  152.1583  144.5427  161.3016 C   0  0  0  0  0  0  0  0  0  0  0  0
  151.8302  144.7109  160.0310 N   0  0  0  0  0  0  0  0  0  0  0  0
  148.9586  141.2060  154.5636 C   0  0  0  0  0  0  0  0  0  0  0  0
  147.7135  141.5208  154.1980 N   0  0  0  0  0  0  0  0  0  0  0  0
  149.8348  140.9415  153.7423 O   0  0  0  0  0  0  0  0  0  0  0  0
  151.4877  138.4824  156.0332 H   0  0  0  0  0  0  0  0  0  0  0  0
  151.8877  140.1759  155.7650 H   0  0  0  0  0  0  0  0  0  0  0  0
  150.8479  139.3222  154.6255 H   0  0  0  0  0  0  0  0  0  0  0  0
  149.0986  139.0707  156.4310 H   0  0  0  0  0  0  0  0  0  0  0  0
  150.1547  139.8888  157.5497 H   0  0  0  0  0  0  0  0  0  0  0  0
  148.3303  141.3483  156.6040 H   0  0  0  0  0  0  0  0  0  0  0  0
  149.7713  143.2076  156.2932 H   0  0  0  0  0  0  0  0  0  0  0  0
  149.8403  142.3709  158.5396 H   0  0  0  0  0  0  0  0  0  0  0  0
  151.0840  141.2349  158.0264 H   0  0  0  0  0  0  0  0  0  0  0  0
  152.6624  143.0253  157.5663 H   0  0  0  0  0  0  0  0  0  0  0  0
  151.4138  144.2539  157.6365 H   0  0  0  0  0  0  0  0  0  0  0  0
  152.6304  141.5394  160.1266 H   0  0  0  0  0  0  0  0  0  0  0  0
  152.1511  142.2207  163.4725 H   0  0  0  0  0  0  0  0  0  0  0  0
  153.4327  143.4159  163.5595 H   0  0  0  0  0  0  0  0  0  0  0  0
  153.7341  141.8618  162.8057 H   0  0  0  0  0  0  0  0  0  0  0  0
  152.0999  145.3903  161.9683 H   0  0  0  0  0  0  0  0  0  0  0  0
  147.4628  141.5300  153.2201 H   0  0  0  0  0  0  0  0  0  0  0  0
  147.0266  141.7473  154.9024 H   0  0  0  0  0  0  0  0  0  0  0  0
  1  2  1  0  0  0  0
  1 16  1  0  0  0  0
  1 17  1  0  0  0  0
  1 18  1  0  0  0  0
  2  3  1  0  0  0  0
  2 19  1  0  0  0  0
  2 20  1  0  0  0  0
  3  4  1  0  0  0  0
  3 13  1  0  0  0  0
  3 21  1  0  0  0  0
  4  5  1  0  0  0  0
  4 22  1  0  0  0  0
  5  6  1  0  0  0  0
  5 23  1  0  0  0  0
  5 24  1  0  0  0  0
  6  7  1  0  0  0  0
  6 25  1  0  0  0  0
  6 26  1  0  0  0  0
  7 12  1  0  0  0  0
  7  8  1  0  0  0  0
  8  9  2  0  0  0  0
  8 27  1  0  0  0  0
  9 10  1  0  0  0  0
  9 11  1  0  0  0  0
 10 28  1  0  0  0  0
 10 29  1  0  0  0  0
 10 30  1  0  0  0  0
 11 12  2  0  0  0  0
 11 31  1  0  0  0  0
 13 14  1  0  0  0  0
 13 15  2  0  0  0  0
 14 32  1  0  0  0  0
 14 33  1  0  0  0  0
M  END
> <s_m_source_file>
AV-unprocessed.smi

> <i_m_source_file_index>
1014

> <i_lp_mmshare_version>
43012

> <i_f3d_flags>
0

> <s_epik_input>
W0NIM11bQ0gyXVtDQEBIXShDKD1PKVtOSDJdKVtOSF1bQ0gyXVtDSDJdbjFbY0hdYyhbQ0gzXSlbY0hdbjE=

> <s_epik_cmdline>
J2VwaWtfcHl0aG9uJywgJy1waCcsICc3LjAnLCAnLXRuJywgJzgnLCAnLW1hJywgJzIwMCcsICctbWV0YWxfYmluZGluZycsICctaW1hZScsICc8aW5maWxlLm1hZT4nLCAnLW9tYWUnLCAnPG91dGZpbGUubWFlPic=

> <r_lp_tautomer_probability>
1

> <r_epik_Ionization_Penalty>
0.767127

> <r_epik_Ionization_Penalty_Charging>
0

> <r_epik_Ionization_Penalty_Neutral>
0.767127

> <r_epik_State_Penalty>
0.793761

> <r_epik_Charging_Adjusted_Penalty>
0.793761

> <i_epik_Tot_Q>
0

> <i_epik_Tot_abs_Q>
0

> <r_epik_Metal_State_Penalty>
0.79201

> <b_epik_Metal_Only>
0

> <s_lp_Force_Field>
OPLS_2005

> <r_lp_Energy>
4.41015

> <b_lp_Chiralities_Consistent>
1

> <s_lp_Variant>
AV-unprocessed.smi:1014-4

> <Gold.Version>
5.8.1

> <Gold.Id.Protein>
6NUR|6NUR_protein|mol2

> <Gold.PLP.Fitness>
41.0439

> <Gold.PLP.PLP>
-34.7023

> <Gold.PLP.part.hbond>
-3.0000

> <Gold.PLP.part.metal>
0.0000

> <Gold.PLP.part.buried>
-5.2685

> <Gold.PLP.part.nonpolar>
-28.0663

> <Gold.PLP.part.repulsive>
2.5684

> <Gold.PLP.ligand.clash>
0.0000

> <Gold.PLP.ligand.torsion>
0.2417

> <Gold.PLP.Chemscore.Hbond>
2.2404

> <Gold.PLP.Chemscore.CHOScore>
0.0000

> <Gold.PLP.Chemscore.Metal>
0.0000

> <Gold.Chemscore.Hbonds>
donor molecule, donor type, donor heavy atom, donor atom, acceptor molecule, acceptor atom, score
      L1  H     4    22       P1  8028  1.00
      P1  H  7989  7998       L1    15  0.38
      P1  H  8011  8017       L1    15  0.94

> <Gold.PLP.Chemscore.Internal.Correction>
0.1037

> <Gold.Rescore>
     Score         DG    S(hbond)    S(metal)    S(lipo)     H(rot)  DE(clash)    DE(int)     intcor
     12.37     -15.62       2.22        0.00      78.17       2.51       1.57       1.68       ----

> <Gold.Chemscore.Fitness>
12.3725

> <Gold.Chemscore.DG>
-15.6188

> <Gold.Chemscore.ZeroCoef>
-5.4800

> <Gold.Chemscore.Hbond>
2.2209

> <Gold.Chemscore.Metal>
0.0000

> <Gold.Chemscore.Lipo>
78.1674

> <Gold.Chemscore.Internal_Hbond>
0.0000

> <Gold.Chemscore.DEClash>
1.5662

> <Gold.Chemscore.DEInternal>
1.6801

> <Gold.Chemscore.Rot>
2.5096

> <Gold.Chemscore.Internal.Correction>
   9.000000E+99

> <Gold.Chemscore.Hbonds>
donor molecule, donor type, donor heavy atom, donor atom, acceptor molecule, acceptor atom, score
      L1  H     4    22       P1  8028  1.00
      P1  H  7989  7998       L1    15  0.38
      P1  H  8011  8017       L1    15  0.55

> <Gold.Chemscore.Hbond.Weighted>
-7.4178

> <Gold.Chemscore.Metal.Weighted>
-0.0000

> <Gold.Chemscore.Lipo.Weighted>
-9.1456

> <Gold.Chemscore.Internal_Hbond.Weighted>
0.0000

> <Gold.Chemscore.DEClash.Weighted>
1.5662

> <Gold.Chemscore.DEInternal.Weighted>
1.6801

> <Gold.Chemscore.Rot.Weighted>
6.4246

> <Gold.Chemscore.Internal.Correction.Weighted>
   9.000000E+99

> <Gold.Protein.RotatedTorsions>
[ 6907 6896 6895 6894 ] final  -53.57 input  -60.11 | X-H torsion
[ 7974 7965 7964 7962 ] final -136.85 input  175.53 | X-H torsion
[ 8008 7997 7996 7995 ] final   83.54 input   59.86 | X-H torsion
[ 10167 10162 10161 10158 ] final   -5.33 input  -65.29 | X-H torsion
[ 10718 10713 10712 10709 ] final  -37.06 input   66.30 | X-H torsion
[ 10763 10752 10751 10750 ] final -145.41 input  -60.55 | X-H torsion
[ 11005 11000 10999 10996 ] final  -31.36 input  -57.11 | X-H torsion

> <Gold.Protein.ActiveResidues>
 VAL166  LYS551  ARG553  GLY616  TRP617  ASP618  TYR619  PRO620  LYS621  CYS622 
 ASP623  PHE694  ASN695  SER759  ASP760  ASP761  ALA762  ILE779  LEU786  VAL792 
 PHE793  MET794  SER795  GLU796  ALA797  LYS798  CYS799  TRP800  GLU811  SER814 

> <Gold.Protein.RotatedAtoms>
  150.8415  134.7708  159.6935 H   0  0  0  0  0  0  0  0  0  0  0  0  # atno 6907 bound_to 6896
  152.4501  134.5409  159.9848 H   0  0  0  0  0  0  0  0  0  0  0  0  # atno 6908 bound_to 6896
  151.5548  133.3374  159.2995 H   0  0  0  0  0  0  0  0  0  0  0  0  # atno 6909 bound_to 6896
  144.8892  140.6618  143.5156 H   0  0  0  0  0  0  0  0  0  0  0  0  # atno 7974 bound_to 7965
  155.9252  140.3418  155.6205 H   0  0  0  0  0  0  0  0  0  0  0  0  # atno 8008 bound_to 7997
  155.7225  140.0785  157.2343 H   0  0  0  0  0  0  0  0  0  0  0  0  # atno 8009 bound_to 7997
  154.4076  140.1603  156.2405 H   0  0  0  0  0  0  0  0  0  0  0  0  # atno 8010 bound_to 7997
  140.6959  143.6321  150.8513 H   0  0  0  0  0  0  0  0  0  0  0  0  # atno 10167 bound_to 10162
  156.3196  130.4264  149.7972 H   0  0  0  0  0  0  0  0  0  0  0  0  # atno 10718 bound_to 10713
  154.8384  135.3414  154.6500 H   0  0  0  0  0  0  0  0  0  0  0  0  # atno 10763 bound_to 10752
  153.7113  135.6964  153.5041 H   0  0  0  0  0  0  0  0  0  0  0  0  # atno 10764 bound_to 10752
  153.2449  135.4372  155.0691 H   0  0  0  0  0  0  0  0  0  0  0  0  # atno 10765 bound_to 10752
  140.9461  133.7249  156.1149 H   0  0  0  0  0  0  0  0  0  0  0  0  # atno 11005 bound_to 11000
  145.3814  139.1636  143.4278 LP  0  0  0  0  0  0  0  0  0  0  0  0  # atno 17320 bound_to 7965
  146.3043  140.3895  142.8693 LP  0  0  0  0  0  0  0  0  0  0  0  0  # atno 17321 bound_to 7965
  140.0039  143.5715  152.2865 LP  0  0  0  0  0  0  0  0  0  0  0  0  # atno 17342 bound_to 10162
  139.6414  144.7655  151.2331 LP  0  0  0  0  0  0  0  0  0  0  0  0  # atno 17343 bound_to 10162
  156.5285  130.8247  151.3229 LP  0  0  0  0  0  0  0  0  0  0  0  0  # atno 17370 bound_to 10713
  157.7409  130.9859  150.2409 LP  0  0  0  0  0  0  0  0  0  0  0  0  # atno 17371 bound_to 10713
  140.7667  134.3879  157.5515 LP  0  0  0  0  0  0  0  0  0  0  0  0  # atno 17394 bound_to 11000
  139.8834  134.8996  156.2769 LP  0  0  0  0  0  0  0  0  0  0  0  0  # atno 17395 bound_to 11000

$$$$
