AV-unprocessed.smi:3229|AV-procd|sdf|12328|dock5
  -GOLD-   2272018183D 1   1.00000     0.00000
 Structure written by MMmdl.
 35 36  0  0  0  0  0  0  0  0  1 V2000
  152.0697  144.8370  158.4162 C   0  0  0  0  0  0  0  0  0  0  0  0
  151.8347  144.7908  159.9301 C   0  0  0  0  0  0  0  0  0  0  0  0
  152.5365  143.6562  160.6009 C   0  0  0  0  0  0  0  0  0  0  0  0
  152.4590  143.2858  161.9209 C   0  0  0  0  0  0  0  0  0  0  0  0
  153.2416  142.1747  162.2430 N   0  0  0  0  0  0  0  0  0  0  0  0
  153.9010  141.6918  161.1867 C   0  0  0  0  0  0  0  0  0  0  0  0
  154.8358  140.5270  161.2534 C   0  0  0  0  0  0  0  0  0  0  0  0
  154.1339  139.1646  161.1300 C   0  0  0  0  0  0  0  0  0  0  0  0
  153.6077  138.9494  159.7879 N   0  0  0  0  0  0  0  0  0  0  0  0
  153.1137  137.7860  159.3423 C   0  0  0  0  0  0  0  0  0  0  0  0
  153.0507  136.7713  160.0372 O   0  0  0  0  0  0  0  0  0  0  0  0
  152.6048  137.7762  157.8971 C   0  0  1  0  0  0  0  0  0  0  0  0
  151.0795  137.7385  157.7599 C   0  0  0  0  0  0  0  0  0  0  0  0
  150.8835  138.3963  156.4126 C   0  0  0  0  0  0  0  0  0  0  0  0
  151.9593  139.4785  156.4269 C   0  0  0  0  0  0  0  0  0  0  0  0
  153.0088  138.9826  157.2545 O   0  0  0  0  0  0  0  0  0  0  0  0
  153.6123  142.6077  159.7126 S   0  0  0  0  0  0  0  0  0  0  0  0
  151.5477  145.6824  157.9676 H   0  0  0  0  0  0  0  0  0  0  0  0
  151.7091  143.9288  157.9321 H   0  0  0  0  0  0  0  0  0  0  0  0
  153.1307  144.9406  158.1866 H   0  0  0  0  0  0  0  0  0  0  0  0
  152.1599  145.7329  160.3727 H   0  0  0  0  0  0  0  0  0  0  0  0
  150.7646  144.7195  160.1270 H   0  0  0  0  0  0  0  0  0  0  0  0
  151.8750  143.7569  162.6978 H   0  0  0  0  0  0  0  0  0  0  0  0
  155.5822  140.6322  160.4648 H   0  0  0  0  0  0  0  0  0  0  0  0
  155.3796  140.5743  162.1971 H   0  0  0  0  0  0  0  0  0  0  0  0
  154.8331  138.3650  161.3784 H   0  0  0  0  0  0  0  0  0  0  0  0
  153.3141  139.1074  161.8480 H   0  0  0  0  0  0  0  0  0  0  0  0
  153.6114  139.7405  159.1599 H   0  0  0  0  0  0  0  0  0  0  0  0
  153.0389  136.9410  157.3442 H   0  0  0  0  0  0  0  0  0  0  0  0
  150.6791  136.7248  157.7915 H   0  0  0  0  0  0  0  0  0  0  0  0
  150.5839  138.3265  158.5339 H   0  0  0  0  0  0  0  0  0  0  0  0
  151.0830  137.6790  155.6153 H   0  0  0  0  0  0  0  0  0  0  0  0
  149.8787  138.7947  156.2706 H   0  0  0  0  0  0  0  0  0  0  0  0
  152.3203  139.7177  155.4264 H   0  0  0  0  0  0  0  0  0  0  0  0
  151.5714  140.3940  156.8747 H   0  0  0  0  0  0  0  0  0  0  0  0
  1  2  1  0  0  0  0
  1 18  1  0  0  0  0
  1 19  1  0  0  0  0
  1 20  1  0  0  0  0
  2  3  1  0  0  0  0
  2 21  1  0  0  0  0
  2 22  1  0  0  0  0
  3 17  1  0  0  0  0
  3  4  2  0  0  0  0
  4  5  1  0  0  0  0
  4 23  1  0  0  0  0
  5  6  2  0  0  0  0
  6  7  1  0  0  0  0
  6 17  1  0  0  0  0
  7  8  1  0  0  0  0
  7 24  1  0  0  0  0
  7 25  1  0  0  0  0
  8  9  1  0  0  0  0
  8 26  1  0  0  0  0
  8 27  1  0  0  0  0
  9 10  1  0  0  0  0
  9 28  1  0  0  0  0
 10 11  2  0  0  0  0
 10 12  1  0  0  0  0
 12 16  1  0  0  0  0
 12 13  1  0  0  0  0
 12 29  1  0  0  0  0
 13 14  1  0  0  0  0
 13 30  1  0  0  0  0
 13 31  1  0  0  0  0
 14 15  1  0  0  0  0
 14 32  1  0  0  0  0
 14 33  1  0  0  0  0
 15 16  1  0  0  0  0
 15 34  1  0  0  0  0
 15 35  1  0  0  0  0
M  END
> <s_m_source_file>
AV-unprocessed.smi

> <i_m_source_file_index>
3229

> <i_lp_mmshare_version>
43012

> <i_f3d_flags>
0

> <s_epik_input>
W0NIM11bQ0gyXWMxW2NIXW5jKHMxKVtDSDJdW0NIMl1bTkhdQyg9TylbQ0BASF0yW0NIMl1bQ0gyXVtDSDJdTzI=

> <s_epik_cmdline>
J2VwaWtfcHl0aG9uJywgJy1waCcsICc3LjAnLCAnLXRuJywgJzgnLCAnLW1hJywgJzIwMCcsICctbWV0YWxfYmluZGluZycsICctaW1hZScsICc8aW5maWxlLm1hZT4nLCAnLW9tYWUnLCAnPG91dGZpbGUubWFlPic=

> <r_epik_Ionization_Penalty>
0.000508191

> <r_epik_Ionization_Penalty_Charging>
0

> <r_epik_Ionization_Penalty_Neutral>
0.000508191

> <r_epik_State_Penalty>
0.000316483

> <r_epik_Charging_Adjusted_Penalty>
0.000316483

> <i_epik_Tot_Q>
0

> <i_epik_Tot_abs_Q>
0

> <r_epik_Metal_State_Penalty>
-0

> <b_epik_Metal_Only>
0

> <s_lp_Force_Field>
OPLS_2005

> <r_lp_Energy>
10.5911

> <b_lp_Chiralities_Consistent>
1

> <s_lp_Variant>
AV-unprocessed.smi:3229-2

> <Gold.Version>
5.8.1

> <Gold.Id.Protein>
6NUR|6NUR_protein|mol2

> <Gold.PLP.Fitness>
41.2783

> <Gold.PLP.PLP>
-36.5966

> <Gold.PLP.part.hbond>
-2.0000

> <Gold.PLP.part.metal>
0.0000

> <Gold.PLP.part.buried>
-5.3889

> <Gold.PLP.part.nonpolar>
-28.4184

> <Gold.PLP.part.repulsive>
0.1088

> <Gold.PLP.ligand.clash>
0.0000

> <Gold.PLP.ligand.torsion>
0.6782

> <Gold.PLP.Chemscore.Hbond>
2.0000

> <Gold.PLP.Chemscore.CHOScore>
0.0000

> <Gold.PLP.Chemscore.Metal>
0.0000

> <Gold.Chemscore.Hbonds>
donor molecule, donor type, donor heavy atom, donor atom, acceptor molecule, acceptor atom, score
      P1  H  6896  6908       L1    11  1.00
      P1  H  7997  8010       L1    16  1.00

> <Gold.PLP.Chemscore.Internal.Correction>
0.0382

> <Gold.Rescore>
     Score         DG    S(hbond)    S(metal)    S(lipo)     H(rot)  DE(clash)    DE(int)     intcor
     19.51     -20.10       1.89        0.00     106.19       1.60       0.01       0.58       ----

> <Gold.Chemscore.Fitness>
19.5119

> <Gold.Chemscore.DG>
-20.1004

> <Gold.Chemscore.ZeroCoef>
-5.4800

> <Gold.Chemscore.Hbond>
1.8871

> <Gold.Chemscore.Metal>
0.0000

> <Gold.Chemscore.Lipo>
106.1870

> <Gold.Chemscore.Internal_Hbond>
0.0000

> <Gold.Chemscore.DEClash>
0.0096

> <Gold.Chemscore.DEInternal>
0.5788

> <Gold.Chemscore.Rot>
1.6040

> <Gold.Chemscore.Internal.Correction>
   9.000000E+99

> <Gold.Chemscore.Hbonds>
donor molecule, donor type, donor heavy atom, donor atom, acceptor molecule, acceptor atom, score
      P1  H  6896  6908       L1    11  0.97
      P1  H  7997  8010       L1    16  0.50

> <Gold.Chemscore.Hbond.Weighted>
-6.3028

> <Gold.Chemscore.Metal.Weighted>
-0.0000

> <Gold.Chemscore.Lipo.Weighted>
-12.4239

> <Gold.Chemscore.Internal_Hbond.Weighted>
0.0000

> <Gold.Chemscore.DEClash.Weighted>
0.0096

> <Gold.Chemscore.DEInternal.Weighted>
0.5788

> <Gold.Chemscore.Rot.Weighted>
4.1062

> <Gold.Chemscore.Internal.Correction.Weighted>
   9.000000E+99

> <Gold.Protein.RotatedTorsions>
[ 6907 6896 6895 6894 ] final  -90.64 input  -60.11 | X-H torsion
[ 7974 7965 7964 7962 ] final  -56.83 input  175.53 | X-H torsion
[ 8008 7997 7996 7995 ] final   46.42 input   59.86 | X-H torsion
[ 10167 10162 10161 10158 ] final   52.06 input  -65.29 | X-H torsion
[ 10718 10713 10712 10709 ] final  161.12 input   66.30 | X-H torsion
[ 10763 10752 10751 10750 ] final  -57.49 input  -60.55 | X-H torsion
[ 11005 11000 10999 10996 ] final -105.40 input  -57.11 | X-H torsion

> <Gold.Protein.ActiveResidues>
 VAL166  LYS551  ARG553  GLY616  TRP617  ASP618  TYR619  PRO620  LYS621  CYS622 
 ASP623  PHE694  ASN695  SER759  ASP760  ASP761  ALA762  ILE779  LEU786  VAL792 
 PHE793  MET794  SER795  GLU796  ALA797  LYS798  CYS799  TRP800  GLU811  SER814 

> <Gold.Protein.RotatedAtoms>
  150.6884  134.2400  159.4468 H   0  0  0  0  0  0  0  0  0  0  0  0  # atno 6907 bound_to 6896
  152.0345  134.9745  160.0582 H   0  0  0  0  0  0  0  0  0  0  0  0  # atno 6908 bound_to 6896
  152.1272  133.4352  159.4740 H   0  0  0  0  0  0  0  0  0  0  0  0  # atno 6909 bound_to 6896
  145.8581  140.8305  142.9951 H   0  0  0  0  0  0  0  0  0  0  0  0  # atno 7974 bound_to 7965
  155.3521  140.3414  155.4239 H   0  0  0  0  0  0  0  0  0  0  0  0  # atno 8008 bound_to 7997
  156.1758  140.1647  156.8400 H   0  0  0  0  0  0  0  0  0  0  0  0  # atno 8009 bound_to 7997
  154.5280  140.0751  156.8277 H   0  0  0  0  0  0  0  0  0  0  0  0  # atno 8010 bound_to 7997
  140.2553  144.3433  150.6335 H   0  0  0  0  0  0  0  0  0  0  0  0  # atno 10167 bound_to 10162
  157.1410  131.0540  151.2326 H   0  0  0  0  0  0  0  0  0  0  0  0  # atno 10718 bound_to 10713
  154.2232  135.6374  153.5151 H   0  0  0  0  0  0  0  0  0  0  0  0  # atno 10763 bound_to 10752
  152.9964  135.5501  154.6092 H   0  0  0  0  0  0  0  0  0  0  0  0  # atno 10764 bound_to 10752
  154.5557  135.2905  155.0941 H   0  0  0  0  0  0  0  0  0  0  0  0  # atno 10765 bound_to 10752
  141.1055  133.8805  157.1730 H   0  0  0  0  0  0  0  0  0  0  0  0  # atno 11005 bound_to 11000
  144.6727  140.1055  143.7458 LP  0  0  0  0  0  0  0  0  0  0  0  0  # atno 17320 bound_to 7965
  145.9279  139.2587  143.1342 LP  0  0  0  0  0  0  0  0  0  0  0  0  # atno 17321 bound_to 7965
  140.6008  143.2167  151.7075 LP  0  0  0  0  0  0  0  0  0  0  0  0  # atno 17342 bound_to 10162
  139.5033  144.3795  152.0390 LP  0  0  0  0  0  0  0  0  0  0  0  0  # atno 17343 bound_to 10162
  157.4307  130.7489  149.6988 LP  0  0  0  0  0  0  0  0  0  0  0  0  # atno 17370 bound_to 10713
  155.9788  130.4046  150.3623 LP  0  0  0  0  0  0  0  0  0  0  0  0  # atno 17371 bound_to 10713
  139.9923  135.0060  157.0004 LP  0  0  0  0  0  0  0  0  0  0  0  0  # atno 17394 bound_to 11000
  140.4913  134.1190  155.7233 LP  0  0  0  0  0  0  0  0  0  0  0  0  # atno 17395 bound_to 11000

$$$$
