AV-unprocessed.smi:747|AV-procd|sdf|3581|dock5
  -GOLD-   22720 0573D 1   1.00000     0.00000
 Structure written by MMmdl.
 48 49  0  0  0  0  0  0  0  0  1 V2000
  146.7091  134.9642  162.7768 C   0  0  0  0  0  0  0  0  0  0  0  0
  147.1374  135.0051  161.3942 N   0  0  0  0  0  0  0  0  0  0  0  0
  147.1842  133.8028  160.6474 C   0  0  0  0  0  0  0  0  0  0  0  0
  146.8792  132.7099  161.1256 O   0  0  0  0  0  0  0  0  0  0  0  0
  147.6228  133.9681  159.2664 C   0  0  0  0  0  0  0  0  0  0  0  0
  147.9464  135.1867  158.7809 C   0  0  0  0  0  0  0  0  0  0  0  0
  147.8908  136.3459  159.5332 N   0  0  0  0  0  0  0  0  0  0  0  0
  148.2396  137.6328  158.9196 C   0  0  0  0  0  0  0  0  0  0  0  0
  149.7126  137.6860  158.4999 C   0  0  0  0  0  0  0  0  0  0  0  0
  150.4928  136.8063  158.8651 O   0  0  0  0  0  0  0  0  0  0  0  0
  150.0723  138.7305  157.7372 N   0  0  0  0  0  0  0  0  0  0  0  0
  151.3974  138.9576  157.1502 C   0  0  1  0  0  0  0  0  0  0  0  0
  151.2379  139.2790  155.6392 C   0  0  0  0  0  0  0  0  0  0  0  0
  150.9247  138.0588  154.7610 C   0  0  0  0  0  0  0  0  0  0  0  0
  149.9179  138.1759  153.8919 N   0  0  0  0  0  0  0  0  0  0  0  0
  151.5831  137.0258  154.8632 O   0  0  0  0  0  0  0  0  0  0  0  0
  152.1433  140.0688  157.9440 C   0  0  0  0  0  0  0  0  0  0  0  0
  152.4248  139.6632  159.4119 C   0  0  0  0  0  0  0  0  0  0  0  0
  153.1461  140.7695  160.1987 C   0  0  0  0  0  0  0  0  0  0  0  0
  152.3615  142.0864  160.1607 C   0  0  0  0  0  0  0  0  0  0  0  0
  152.1005  142.5180  158.7126 C   0  0  0  0  0  0  0  0  0  0  0  0
  151.3751  141.4158  157.9246 C   0  0  0  0  0  0  0  0  0  0  0  0
  147.4778  136.2756  160.8813 C   0  0  0  0  0  0  0  0  0  0  0  0
  147.4186  137.2930  161.5772 O   0  0  0  0  0  0  0  0  0  0  0  0
  146.4849  133.9466  163.0944 H   0  0  0  0  0  0  0  0  0  0  0  0
  145.8134  135.5831  162.8545 H   0  0  0  0  0  0  0  0  0  0  0  0
  147.5248  135.3663  163.3804 H   0  0  0  0  0  0  0  0  0  0  0  0
  147.6867  133.1028  158.6230 H   0  0  0  0  0  0  0  0  0  0  0  0
  148.2603  135.2563  157.7496 H   0  0  0  0  0  0  0  0  0  0  0  0
  147.5909  137.8266  158.0631 H   0  0  0  0  0  0  0  0  0  0  0  0
  148.0550  138.4477  159.6207 H   0  0  0  0  0  0  0  0  0  0  0  0
  149.3576  139.4048  157.5048 H   0  0  0  0  0  0  0  0  0  0  0  0
  151.9958  138.0482  157.2323 H   0  0  0  0  0  0  0  0  0  0  0  0
  150.4624  140.0347  155.5047 H   0  0  0  0  0  0  0  0  0  0  0  0
  152.1565  139.7066  155.2405 H   0  0  0  0  0  0  0  0  0  0  0  0
  149.6788  137.4043  153.2865 H   0  0  0  0  0  0  0  0  0  0  0  0
  149.4034  139.0433  153.8383 H   0  0  0  0  0  0  0  0  0  0  0  0
  153.1061  140.2342  157.4576 H   0  0  0  0  0  0  0  0  0  0  0  0
  151.4871  139.4144  159.9107 H   0  0  0  0  0  0  0  0  0  0  0  0
  153.0446  138.7689  159.4546 H   0  0  0  0  0  0  0  0  0  0  0  0
  153.2911  140.4549  161.2325 H   0  0  0  0  0  0  0  0  0  0  0  0
  154.1417  140.9244  159.7808 H   0  0  0  0  0  0  0  0  0  0  0  0
  151.4132  141.9651  160.6857 H   0  0  0  0  0  0  0  0  0  0  0  0
  152.9128  142.8646  160.6889 H   0  0  0  0  0  0  0  0  0  0  0  0
  151.5084  143.4335  158.6998 H   0  0  0  0  0  0  0  0  0  0  0  0
  153.0467  142.7545  158.2242 H   0  0  0  0  0  0  0  0  0  0  0  0
  151.2344  141.7681  156.9029 H   0  0  0  0  0  0  0  0  0  0  0  0
  150.3760  141.2720  158.3383 H   0  0  0  0  0  0  0  0  0  0  0  0
  1  2  1  0  0  0  0
  1 25  1  0  0  0  0
  1 26  1  0  0  0  0
  1 27  1  0  0  0  0
  2 23  1  0  0  0  0
  2  3  1  0  0  0  0
  3  4  2  0  0  0  0
  3  5  1  0  0  0  0
  5  6  2  0  0  0  0
  5 28  1  0  0  0  0
  6  7  1  0  0  0  0
  6 29  1  0  0  0  0
  7  8  1  0  0  0  0
  7 23  1  0  0  0  0
  8  9  1  0  0  0  0
  8 30  1  0  0  0  0
  8 31  1  0  0  0  0
  9 10  2  0  0  0  0
  9 11  1  0  0  0  0
 11 12  1  0  0  0  0
 11 32  1  0  0  0  0
 12 13  1  0  0  0  0
 12 17  1  0  0  0  0
 12 33  1  0  0  0  0
 13 14  1  0  0  0  0
 13 34  1  0  0  0  0
 13 35  1  0  0  0  0
 14 15  1  0  0  0  0
 14 16  2  0  0  0  0
 15 36  1  0  0  0  0
 15 37  1  0  0  0  0
 17 22  1  0  0  0  0
 17 18  1  0  0  0  0
 17 38  1  0  0  0  0
 18 19  1  0  0  0  0
 18 39  1  0  0  0  0
 18 40  1  0  0  0  0
 19 20  1  0  0  0  0
 19 41  1  0  0  0  0
 19 42  1  0  0  0  0
 20 21  1  0  0  0  0
 20 43  1  0  0  0  0
 20 44  1  0  0  0  0
 21 22  1  0  0  0  0
 21 45  1  0  0  0  0
 21 46  1  0  0  0  0
 22 47  1  0  0  0  0
 22 48  1  0  0  0  0
 23 24  2  0  0  0  0
M  END
> <s_m_source_file>
AV-unprocessed.smi

> <i_m_source_file_index>
747

> <i_lp_mmshare_version>
43012

> <i_f3d_flags>
0

> <s_epik_input>
W0NIM11uMWMoPU8pW2NIXVtjSF1uKGMxPU8pW0NIMl1DKD1PKVtOSF1bQ0BIXShbQ0gyXUMoPU8pW05IMl0pW0NIXTJbQ0gyXVtDSDJdW0NIMl1bQ0gyXVtDSDJdMg==

> <s_epik_cmdline>
J2VwaWtfcHl0aG9uJywgJy1waCcsICc3LjAnLCAnLXRuJywgJzgnLCAnLW1hJywgJzIwMCcsICctbWV0YWxfYmluZGluZycsICctaW1hZScsICc8aW5maWxlLm1hZT4nLCAnLW9tYWUnLCAnPG91dGZpbGUubWFlPic=

> <r_lp_tautomer_probability>
1

> <r_epik_Ionization_Penalty>
6.11221e-08

> <r_epik_Ionization_Penalty_Charging>
1.14855e-08

> <r_epik_Ionization_Penalty_Neutral>
4.96365e-08

> <r_epik_State_Penalty>
-0

> <r_epik_Charging_Adjusted_Penalty>
1.14855e-08

> <i_epik_Tot_Q>
0

> <i_epik_Tot_abs_Q>
0

> <r_epik_Metal_State_Penalty>
-0

> <b_epik_Metal_Only>
0

> <s_lp_Force_Field>
OPLS_2005

> <r_lp_Energy>
16.3445

> <b_lp_Chiralities_Consistent>
1

> <s_lp_Variant>
AV-unprocessed.smi:747-2

> <Gold.Version>
5.8.1

> <Gold.Id.Protein>
6NUR|6NUR_protein|mol2

> <Gold.PLP.Fitness>
58.1257

> <Gold.PLP.PLP>
-44.8311

> <Gold.PLP.part.hbond>
-5.1604

> <Gold.PLP.part.metal>
0.0000

> <Gold.PLP.part.buried>
-6.6581

> <Gold.PLP.part.nonpolar>
-34.0919

> <Gold.PLP.part.repulsive>
0.2310

> <Gold.PLP.ligand.clash>
0.0000

> <Gold.PLP.ligand.torsion>
0.5468

> <Gold.PLP.Chemscore.Hbond>
4.7520

> <Gold.PLP.Chemscore.CHOScore>
0.0000

> <Gold.PLP.Chemscore.Metal>
0.0000

> <Gold.Chemscore.Hbonds>
donor molecule, donor type, donor heavy atom, donor atom, acceptor molecule, acceptor atom, score
      L1  H    15    36       P1  7948  1.00
      P1  H  6896  6907       L1    10  0.88
      P1  H  6931  6943       L1    24  0.86
      P1  H  6934  6947       L1    24  0.85
      P1  H 10752 10765       L1    16  1.00

> <Gold.PLP.Chemscore.Internal.Correction>
0.1322

> <Gold.Rescore>
     Score         DG    S(hbond)    S(metal)    S(lipo)     H(rot)  DE(clash)    DE(int)     intcor
     21.50     -22.19       4.60        0.00      75.33       2.91       0.07       0.62       ----

> <Gold.Chemscore.Fitness>
21.4994

> <Gold.Chemscore.DG>
-22.1873

> <Gold.Chemscore.ZeroCoef>
-5.4800

> <Gold.Chemscore.Hbond>
4.5954

> <Gold.Chemscore.Metal>
0.0000

> <Gold.Chemscore.Lipo>
75.3345

> <Gold.Chemscore.Internal_Hbond>
0.0000

> <Gold.Chemscore.DEClash>
0.0653

> <Gold.Chemscore.DEInternal>
0.6225

> <Gold.Chemscore.Rot>
2.9122

> <Gold.Chemscore.Internal.Correction>
   9.000000E+99

> <Gold.Chemscore.Hbonds>
donor molecule, donor type, donor heavy atom, donor atom, acceptor molecule, acceptor atom, score
      L1  H    15    36       P1  7948  0.69
      P1  H  6896  6907       L1    10  0.85
      P1  H  6931  6943       L1    24  0.84
      P1  H  6934  6947       L1    24  0.83
      P1  H 10752 10765       L1    16  0.97

> <Gold.Chemscore.Hbond.Weighted>
-15.3485

> <Gold.Chemscore.Metal.Weighted>
-0.0000

> <Gold.Chemscore.Lipo.Weighted>
-8.8141

> <Gold.Chemscore.Internal_Hbond.Weighted>
0.0000

> <Gold.Chemscore.DEClash.Weighted>
0.0653

> <Gold.Chemscore.DEInternal.Weighted>
0.6225

> <Gold.Chemscore.Rot.Weighted>
7.4553

> <Gold.Chemscore.Internal.Correction.Weighted>
   9.000000E+99

> <Gold.Protein.RotatedTorsions>
[ 6907 6896 6895 6894 ] final  -26.00 input  -60.11 | X-H torsion
[ 7974 7965 7964 7962 ] final  123.58 input  175.53 | X-H torsion
[ 8008 7997 7996 7995 ] final   50.71 input   59.86 | X-H torsion
[ 10167 10162 10161 10158 ] final   93.53 input  -65.29 | X-H torsion
[ 10718 10713 10712 10709 ] final  -39.91 input   66.30 | X-H torsion
[ 10763 10752 10751 10750 ] final  172.49 input  -60.55 | X-H torsion
[ 11005 11000 10999 10996 ] final   75.95 input  -57.11 | X-H torsion

> <Gold.Protein.ActiveResidues>
 VAL166  LYS551  ARG553  GLY616  TRP617  ASP618  TYR619  PRO620  LYS621  CYS622 
 ASP623  PHE694  ASN695  SER759  ASP760  ASP761  ALA762  ILE779  LEU786  VAL792 
 PHE793  MET794  SER795  GLU796  ALA797  LYS798  CYS799  TRP800  GLU811  SER814 

> <Gold.Protein.RotatedAtoms>
  151.1671  135.0300  159.8735 H   0  0  0  0  0  0  0  0  0  0  0  0  # atno 6907 bound_to 6896
  152.5450  134.1213  159.8410 H   0  0  0  0  0  0  0  0  0  0  0  0  # atno 6908 bound_to 6896
  151.1314  133.4988  159.2631 H   0  0  0  0  0  0  0  0  0  0  0  0  # atno 6909 bound_to 6896
  145.0942  139.3564  143.4845 H   0  0  0  0  0  0  0  0  0  0  0  0  # atno 7974 bound_to 7965
  155.4233  140.3447  155.4273 H   0  0  0  0  0  0  0  0  0  0  0  0  # atno 8008 bound_to 7997
  156.1380  140.1533  156.8996 H   0  0  0  0  0  0  0  0  0  0  0  0  # atno 8009 bound_to 7997
  154.4947  140.0831  156.7652 H   0  0  0  0  0  0  0  0  0  0  0  0  # atno 8010 bound_to 7997
  139.8171  144.6748  150.9566 H   0  0  0  0  0  0  0  0  0  0  0  0  # atno 10167 bound_to 10162
  156.2872  130.4224  149.8275 H   0  0  0  0  0  0  0  0  0  0  0  0  # atno 10718 bound_to 10713
  154.4268  135.2759  155.1939 H   0  0  0  0  0  0  0  0  0  0  0  0  # atno 10763 bound_to 10752
  154.3862  135.6076  153.5821 H   0  0  0  0  0  0  0  0  0  0  0  0  # atno 10764 bound_to 10752
  152.9834  135.5892  154.4573 H   0  0  0  0  0  0  0  0  0  0  0  0  # atno 10765 bound_to 10752
  139.9320  134.7560  156.1335 H   0  0  0  0  0  0  0  0  0  0  0  0  # atno 11005 bound_to 11000
  146.3531  140.0791  142.8619 LP  0  0  0  0  0  0  0  0  0  0  0  0  # atno 17320 bound_to 7965
  145.1030  140.9357  143.4701 LP  0  0  0  0  0  0  0  0  0  0  0  0  # atno 17321 bound_to 7965
  140.7815  143.4128  151.0965 LP  0  0  0  0  0  0  0  0  0  0  0  0  # atno 17342 bound_to 10162
  139.7791  143.8382  152.3134 LP  0  0  0  0  0  0  0  0  0  0  0  0  # atno 17343 bound_to 10162
  156.5701  130.8421  151.3354 LP  0  0  0  0  0  0  0  0  0  0  0  0  # atno 17370 bound_to 10713
  157.7332  130.9727  150.1966 LP  0  0  0  0  0  0  0  0  0  0  0  0  # atno 17371 bound_to 10713
  141.0914  133.6713  156.2549 LP  0  0  0  0  0  0  0  0  0  0  0  0  # atno 17394 bound_to 11000
  140.6176  134.5394  157.5543 LP  0  0  0  0  0  0  0  0  0  0  0  0  # atno 17395 bound_to 11000

$$$$
