AV-unprocessed.smi:3308|AV-procd|sdf|12708|dock7
  -GOLD-   2272019 43D 1   1.00000     0.00000
 Structure written by MMmdl.
 41 42  0  0  0  0  0  0  0  0  2 V2000
  148.2580  141.9493  156.9864 C   0  0  0  0  0  0  0  0  0  0  0  0
  148.9724  140.6289  156.6393 C   0  0  2  0  0  0  0  0  0  0  0  0
  150.0920  140.3955  157.5821 N   0  3  0  0  0  0  0  0  0  0  0  0
  151.1924  141.3821  157.5237 C   0  0  0  0  0  0  0  0  0  0  0  0
  152.3281  141.0400  158.4983 C   0  0  0  0  0  0  0  0  0  0  0  0
  152.9844  140.0103  158.3326 O   0  0  0  0  0  0  0  0  0  0  0  0
  152.5718  141.8907  159.5163 N   0  0  0  0  0  0  0  0  0  0  0  0
  153.6114  141.6728  160.5203 C   0  0  0  0  0  0  0  0  0  0  0  0
  153.3562  142.7123  161.6114 C   0  0  0  0  0  0  0  0  0  0  0  0
  152.6333  143.8402  160.8882 C   0  0  0  0  0  0  0  0  0  0  0  0
  151.8492  143.1348  159.7809 C   0  0  0  0  0  0  0  0  0  0  0  0
  149.5000  140.6075  155.1779 C   0  0  2  0  0  0  0  0  0  0  0  0
  148.3753  140.6004  154.1256 C   0  0  0  0  0  0  0  0  0  0  0  0
  150.3937  139.4788  154.9382 N   0  0  0  0  0  0  0  0  0  0  0  0
  150.0668  138.1428  154.8257 C   0  0  0  0  0  0  0  0  0  0  0  0
  151.2275  137.4532  154.6224 C   0  0  0  0  0  0  0  0  0  0  0  0
  152.2289  138.4633  154.6393 C   0  0  0  0  0  0  0  0  0  0  0  0
  151.7282  139.6726  154.8327 N   0  0  0  0  0  0  0  0  0  0  0  0
  147.3818  142.1102  156.3593 H   0  0  0  0  0  0  0  0  0  0  0  0
  148.9213  142.8049  156.8575 H   0  0  0  0  0  0  0  0  0  0  0  0
  147.9039  141.9579  158.0168 H   0  0  0  0  0  0  0  0  0  0  0  0
  148.2579  139.8122  156.7541 H   0  0  0  0  0  0  0  0  0  0  0  0
  149.7111  140.4441  158.5169 H   0  0  0  0  0  0  0  0  0  0  0  0
  151.5948  141.4260  156.5119 H   0  0  0  0  0  0  0  0  0  0  0  0
  150.7973  142.3686  157.7698 H   0  0  0  0  0  0  0  0  0  0  0  0
  153.5884  140.6599  160.9253 H   0  0  0  0  0  0  0  0  0  0  0  0
  154.5878  141.8319  160.0602 H   0  0  0  0  0  0  0  0  0  0  0  0
  152.7008  142.2887  162.3738 H   0  0  0  0  0  0  0  0  0  0  0  0
  154.2716  143.0420  162.1036 H   0  0  0  0  0  0  0  0  0  0  0  0
  151.9960  144.4279  161.5498 H   0  0  0  0  0  0  0  0  0  0  0  0
  153.3659  144.5154  160.4442 H   0  0  0  0  0  0  0  0  0  0  0  0
  151.7712  143.7676  158.8956 H   0  0  0  0  0  0  0  0  0  0  0  0
  150.8404  142.8977  160.1221 H   0  0  0  0  0  0  0  0  0  0  0  0
  150.0902  141.5119  155.0204 H   0  0  0  0  0  0  0  0  0  0  0  0
  147.7847  141.5152  154.1562 H   0  0  0  0  0  0  0  0  0  0  0  0
  147.6974  139.7587  154.2715 H   0  0  0  0  0  0  0  0  0  0  0  0
  148.7852  140.5229  153.1179 H   0  0  0  0  0  0  0  0  0  0  0  0
  149.0461  137.7964  154.8974 H   0  0  0  0  0  0  0  0  0  0  0  0
  151.3445  136.3879  154.4885 H   0  0  0  0  0  0  0  0  0  0  0  0
  153.2968  138.3543  154.5202 H   0  0  0  0  0  0  0  0  0  0  0  0
  150.4640  139.4672  157.4400 H   0  0  0  0  0  0  0  0  0  0  0  0
  1  2  1  0  0  0  0
  1 19  1  0  0  0  0
  1 20  1  0  0  0  0
  1 21  1  0  0  0  0
  2  3  1  0  0  0  0
  2 12  1  0  0  0  0
  2 22  1  0  0  0  0
  3  4  1  0  0  0  0
  3 23  1  0  0  0  0
  3 41  1  0  0  0  0
  4  5  1  0  0  0  0
  4 24  1  0  0  0  0
  4 25  1  0  0  0  0
  5  6  2  0  0  0  0
  5  7  1  0  0  0  0
  7 11  1  0  0  0  0
  7  8  1  0  0  0  0
  8  9  1  0  0  0  0
  8 26  1  0  0  0  0
  8 27  1  0  0  0  0
  9 10  1  0  0  0  0
  9 28  1  0  0  0  0
  9 29  1  0  0  0  0
 10 11  1  0  0  0  0
 10 30  1  0  0  0  0
 10 31  1  0  0  0  0
 11 32  1  0  0  0  0
 11 33  1  0  0  0  0
 12 13  1  0  0  0  0
 12 14  1  0  0  0  0
 12 34  1  0  0  0  0
 13 35  1  0  0  0  0
 13 36  1  0  0  0  0
 13 37  1  0  0  0  0
 14 18  1  0  0  0  0
 14 15  1  0  0  0  0
 15 16  2  0  0  0  0
 15 38  1  0  0  0  0
 16 17  1  0  0  0  0
 16 39  1  0  0  0  0
 17 18  2  0  0  0  0
 17 40  1  0  0  0  0
M  CHG  1   3   1
M  END
> <s_m_source_file>
AV-unprocessed.smi

> <i_m_source_file_index>
3308

> <i_lp_mmshare_version>
43012

> <i_f3d_flags>
0

> <s_epik_input>
bjFbY0hdW2NIXVtjSF1uMVtDQEBIXShbQ0gzXSlbQ0BIXShbQ0gzXSlbTkhdW0NIMl1DKD1PKU4yW0NIMl1bQ0gyXVtDSDJdW0NIMl0y

> <s_epik_cmdline>
J2VwaWtfcHl0aG9uJywgJy1waCcsICc3LjAnLCAnLXRuJywgJzgnLCAnLW1hJywgJzIwMCcsICctbWV0YWxfYmluZGluZycsICctaW1hZScsICc8aW5maWxlLm1hZT4nLCAnLW9tYWUnLCAnPG91dGZpbGUubWFlPic=

> <r_lp_tautomer_probability>
1

> <r_epik_Ionization_Penalty>
0.141739

> <r_epik_Ionization_Penalty_Charging>
0.141731

> <r_epik_Ionization_Penalty_Neutral>
8.82171e-06

> <r_epik_State_Penalty>
0.131043

> <r_epik_Charging_Adjusted_Penalty>
0.272773

> <i_epik_Tot_Q>
1

> <i_epik_Tot_abs_Q>
1

> <r_epik_Metal_State_Penalty>
0.131385

> <b_epik_Metal_Only>
0

> <s_lp_Force_Field>
OPLS_2005

> <r_lp_Energy>
31.7083

> <b_lp_Chiralities_Consistent>
1

> <s_lp_Variant>
AV-unprocessed.smi:3308-1

> <Gold.Version>
5.8.1

> <Gold.Id.Protein>
6NUR|6NUR_protein|mol2

> <Gold.PLP.Fitness>
45.7370

> <Gold.PLP.PLP>
-40.4878

> <Gold.PLP.part.hbond>
-1.9842

> <Gold.PLP.part.metal>
0.0000

> <Gold.PLP.part.buried>
-4.5336

> <Gold.PLP.part.nonpolar>
-33.4724

> <Gold.PLP.part.repulsive>
0.1445

> <Gold.PLP.ligand.clash>
0.0000

> <Gold.PLP.ligand.torsion>
0.3502

> <Gold.PLP.Chemscore.Hbond>
1.9500

> <Gold.PLP.Chemscore.CHOScore>
0.0000

> <Gold.PLP.Chemscore.Metal>
0.0000

> <Gold.Chemscore.Hbonds>
donor molecule, donor type, donor heavy atom, donor atom, acceptor molecule, acceptor atom, score
      P1  H  7989  7998       L1    18  0.85
      P1  H  7997  8010       L1     6  0.89

> <Gold.PLP.Chemscore.Internal.Correction>
0.0996

> <Gold.Rescore>
     Score         DG    S(hbond)    S(metal)    S(lipo)     H(rot)  DE(clash)    DE(int)     intcor
     17.23     -17.45       1.91        0.00      86.91       1.78       0.04       0.18       ----

> <Gold.Chemscore.Fitness>
17.2347

> <Gold.Chemscore.DG>
-17.4546

> <Gold.Chemscore.ZeroCoef>
-5.4800

> <Gold.Chemscore.Hbond>
1.9078

> <Gold.Chemscore.Metal>
0.0000

> <Gold.Chemscore.Lipo>
86.9098

> <Gold.Chemscore.Internal_Hbond>
0.0000

> <Gold.Chemscore.DEClash>
0.0407

> <Gold.Chemscore.DEInternal>
0.1791

> <Gold.Chemscore.Rot>
1.7836

> <Gold.Chemscore.Internal.Correction>
   9.000000E+99

> <Gold.Chemscore.Hbonds>
donor molecule, donor type, donor heavy atom, donor atom, acceptor molecule, acceptor atom, score
      P1  H  7989  7998       L1    18  0.14
      P1  H  7997  8010       L1     6  0.81

> <Gold.Chemscore.Hbond.Weighted>
-6.3721

> <Gold.Chemscore.Metal.Weighted>
-0.0000

> <Gold.Chemscore.Lipo.Weighted>
-10.1684

> <Gold.Chemscore.Internal_Hbond.Weighted>
0.0000

> <Gold.Chemscore.DEClash.Weighted>
0.0407

> <Gold.Chemscore.DEInternal.Weighted>
0.1791

> <Gold.Chemscore.Rot.Weighted>
4.5660

> <Gold.Chemscore.Internal.Correction.Weighted>
   9.000000E+99

> <Gold.Protein.RotatedTorsions>
[ 6907 6896 6895 6894 ] final  127.03 input  -60.11 | X-H torsion
[ 7974 7965 7964 7962 ] final    2.54 input  175.53 | X-H torsion
[ 8008 7997 7996 7995 ] final   41.81 input   59.86 | X-H torsion
[ 10167 10162 10161 10158 ] final  -38.90 input  -65.29 | X-H torsion
[ 10718 10713 10712 10709 ] final   26.53 input   66.30 | X-H torsion
[ 10763 10752 10751 10750 ] final  -26.97 input  -60.55 | X-H torsion
[ 11005 11000 10999 10996 ] final   16.33 input  -57.11 | X-H torsion

> <Gold.Protein.ActiveResidues>
 VAL166  LYS551  ARG553  GLY616  TRP617  ASP618  TYR619  PRO620  LYS621  CYS622 
 ASP623  PHE694  ASN695  SER759  ASP760  ASP761  ALA762  ILE779  LEU786  VAL792 
 PHE793  MET794  SER795  GLU796  ALA797  LYS798  CYS799  TRP800  GLU811  SER814 

> <Gold.Protein.RotatedAtoms>
  152.3850  133.6598  159.6191 H   0  0  0  0  0  0  0  0  0  0  0  0  # atno 6907 bound_to 6896
  150.7771  133.9050  159.3361 H   0  0  0  0  0  0  0  0  0  0  0  0  # atno 6908 bound_to 6896
  151.6849  135.0957  160.0274 H   0  0  0  0  0  0  0  0  0  0  0  0  # atno 6909 bound_to 6896
  146.2444  140.0821  142.8356 H   0  0  0  0  0  0  0  0  0  0  0  0  # atno 7974 bound_to 7965
  155.2759  140.3369  155.4262 H   0  0  0  0  0  0  0  0  0  0  0  0  # atno 8008 bound_to 7997
  156.2112  140.1770  156.7732 H   0  0  0  0  0  0  0  0  0  0  0  0  # atno 8009 bound_to 7997
  154.5689  140.0673  156.8918 H   0  0  0  0  0  0  0  0  0  0  0  0  # atno 8010 bound_to 7997
  140.7079  143.3248  151.2706 H   0  0  0  0  0  0  0  0  0  0  0  0  # atno 10167 bound_to 10162
  157.2080  130.6921  149.6216 H   0  0  0  0  0  0  0  0  0  0  0  0  # atno 10718 bound_to 10713
  153.7245  135.6943  153.5004 H   0  0  0  0  0  0  0  0  0  0  0  0  # atno 10763 bound_to 10752
  153.2180  135.4380  155.0455 H   0  0  0  0  0  0  0  0  0  0  0  0  # atno 10764 bound_to 10752
  154.8273  135.3453  154.6777 H   0  0  0  0  0  0  0  0  0  0  0  0  # atno 10765 bound_to 10752
  140.4483  134.1250  155.7699 H   0  0  0  0  0  0  0  0  0  0  0  0  # atno 11005 bound_to 11000
  145.0724  140.9164  143.4874 LP  0  0  0  0  0  0  0  0  0  0  0  0  # atno 17320 bound_to 7965
  145.0958  139.2858  143.5712 LP  0  0  0  0  0  0  0  0  0  0  0  0  # atno 17321 bound_to 7965
  139.6713  144.0016  152.2754 LP  0  0  0  0  0  0  0  0  0  0  0  0  # atno 17342 bound_to 10162
  139.9615  144.6554  150.8075 LP  0  0  0  0  0  0  0  0  0  0  0  0  # atno 17343 bound_to 10162
  155.9693  130.4560  150.5910 LP  0  0  0  0  0  0  0  0  0  0  0  0  # atno 17370 bound_to 10713
  157.3700  131.0764  151.1565 LP  0  0  0  0  0  0  0  0  0  0  0  0  # atno 17371 bound_to 10713
  141.1675  133.8674  157.1671 LP  0  0  0  0  0  0  0  0  0  0  0  0  # atno 17394 bound_to 11000
  140.0023  135.0022  157.0217 LP  0  0  0  0  0  0  0  0  0  0  0  0  # atno 17395 bound_to 11000

$$$$
