AV-unprocessed.smi:434|AV-procd|sdf|2552|dock5
  -GOLD-   2262022513D 1   1.00000     0.00000
 Structure written by MMmdl.
 39 41  0  0  0  0  0  0  0  0  1 V2000
  151.3837  139.0881  155.0066 C   0  0  0  0  0  0  0  0  0  0  0  0
  151.4259  140.1294  156.0795 C   0  0  0  0  0  0  0  0  0  0  0  0
  152.2028  140.0103  157.1562 N   0  0  0  0  0  0  0  0  0  0  0  0
  151.9224  141.1650  157.8613 C   0  0  0  0  0  0  0  0  0  0  0  0
  152.4280  141.6335  159.0953 C   0  0  0  0  0  0  0  0  0  0  0  0
  151.9868  142.8632  159.6267 C   0  0  0  0  0  0  0  0  0  0  0  0
  151.0361  143.6403  158.9338 C   0  0  0  0  0  0  0  0  0  0  0  0
  150.5197  143.1925  157.7028 C   0  0  0  0  0  0  0  0  0  0  0  0
  150.9636  141.9646  157.1761 C   0  0  0  0  0  0  0  0  0  0  0  0
  150.6701  141.2531  156.0163 N   0  0  0  0  0  0  0  0  0  0  0  0
  149.7408  141.6489  154.9659 C   0  0  0  0  0  0  0  0  0  0  0  0
  148.5525  140.6763  154.8246 C   0  0  2  0  0  0  0  0  0  0  0  0
  148.0969  140.6938  153.4857 O   0  0  0  0  0  0  0  0  0  0  0  0
  147.3813  141.0624  155.7415 C   0  0  0  0  0  0  0  0  0  0  0  0
  146.8435  142.2996  155.3053 O   0  0  0  0  0  0  0  0  0  0  0  0
  145.5049  142.1873  154.8554 C   0  0  0  0  0  0  0  0  0  0  0  0
  145.2452  143.3779  153.9962 C   0  0  0  0  0  0  0  0  0  0  0  0
  145.7830  143.8267  152.8215 C   0  0  0  0  0  0  0  0  0  0  0  0
  145.1024  145.0350  152.5047 C   0  0  0  0  0  0  0  0  0  0  0  0
  144.2000  145.2334  153.5106 C   0  0  0  0  0  0  0  0  0  0  0  0
  144.2741  144.2312  154.4289 O   0  0  0  0  0  0  0  0  0  0  0  0
  152.1050  138.2966  155.2133 H   0  0  0  0  0  0  0  0  0  0  0  0
  151.6269  139.5267  154.0392 H   0  0  0  0  0  0  0  0  0  0  0  0
  150.3908  138.6414  154.9538 H   0  0  0  0  0  0  0  0  0  0  0  0
  153.1571  141.0461  159.6334 H   0  0  0  0  0  0  0  0  0  0  0  0
  152.3801  143.2122  160.5703 H   0  0  0  0  0  0  0  0  0  0  0  0
  150.7040  144.5815  159.3474 H   0  0  0  0  0  0  0  0  0  0  0  0
  149.7939  143.7874  157.1684 H   0  0  0  0  0  0  0  0  0  0  0  0
  149.3826  142.6565  155.1785 H   0  0  0  0  0  0  0  0  0  0  0  0
  150.2878  141.7173  154.0245 H   0  0  0  0  0  0  0  0  0  0  0  0
  148.8855  139.6670  155.0680 H   0  0  0  0  0  0  0  0  0  0  0  0
  148.7345  140.2507  152.9467 H   0  0  0  0  0  0  0  0  0  0  0  0
  146.5952  140.3086  155.6736 H   0  0  0  0  0  0  0  0  0  0  0  0
  147.6956  141.1074  156.7860 H   0  0  0  0  0  0  0  0  0  0  0  0
  145.3641  141.2684  154.2844 H   0  0  0  0  0  0  0  0  0  0  0  0
  144.8152  142.1698  155.7003 H   0  0  0  0  0  0  0  0  0  0  0  0
  146.5680  143.3436  152.2589 H   0  0  0  0  0  0  0  0  0  0  0  0
  145.2537  145.6771  151.6498 H   0  0  0  0  0  0  0  0  0  0  0  0
  143.4646  145.9966  153.7189 H   0  0  0  0  0  0  0  0  0  0  0  0
  1  2  1  0  0  0  0
  1 22  1  0  0  0  0
  1 23  1  0  0  0  0
  1 24  1  0  0  0  0
  2 10  1  0  0  0  0
  2  3  2  0  0  0  0
  3  4  1  0  0  0  0
  4  9  2  0  0  0  0
  4  5  1  0  0  0  0
  5  6  2  0  0  0  0
  5 25  1  0  0  0  0
  6  7  1  0  0  0  0
  6 26  1  0  0  0  0
  7  8  2  0  0  0  0
  7 27  1  0  0  0  0
  8  9  1  0  0  0  0
  8 28  1  0  0  0  0
  9 10  1  0  0  0  0
 10 11  1  0  0  0  0
 11 12  1  0  0  0  0
 11 29  1  0  0  0  0
 11 30  1  0  0  0  0
 12 13  1  0  0  0  0
 12 14  1  0  0  0  0
 12 31  1  0  0  0  0
 13 32  1  0  0  0  0
 14 15  1  0  0  0  0
 14 33  1  0  0  0  0
 14 34  1  0  0  0  0
 15 16  1  0  0  0  0
 16 17  1  0  0  0  0
 16 35  1  0  0  0  0
 16 36  1  0  0  0  0
 17 21  1  0  0  0  0
 17 18  2  0  0  0  0
 18 19  1  0  0  0  0
 18 37  1  0  0  0  0
 19 20  2  0  0  0  0
 19 38  1  0  0  0  0
 20 21  1  0  0  0  0
 20 39  1  0  0  0  0
M  END
> <s_m_source_file>
AV-unprocessed.smi

> <i_m_source_file_index>
434

> <i_lp_mmshare_version>
43012

> <i_f3d_flags>
0

> <s_epik_input>
W2NIXTFbY0hdW2NIXVtjSF1jKGMxMiluKGMobjIpW0NIM10pW0NIMl1bQ0BIXShbT0hdKVtDSDJdT1tDSDJdYzNbY0hdW2NIXVtjSF1vMw==

> <s_epik_cmdline>
J2VwaWtfcHl0aG9uJywgJy1waCcsICc3LjAnLCAnLXRuJywgJzgnLCAnLW1hJywgJzIwMCcsICctbWV0YWxfYmluZGluZycsICctaW1hZScsICc8aW5maWxlLm1hZT4nLCAnLW9tYWUnLCAnPG91dGZpbGUubWFlPic=

> <r_epik_Ionization_Penalty>
0.126634

> <r_epik_Ionization_Penalty_Charging>
0

> <r_epik_Ionization_Penalty_Neutral>
0.126634

> <r_epik_State_Penalty>
0.116082

> <r_epik_Charging_Adjusted_Penalty>
0.116082

> <i_epik_Tot_Q>
0

> <i_epik_Tot_abs_Q>
0

> <r_epik_Metal_State_Penalty>
0.00012822

> <b_epik_Metal_Only>
0

> <s_lp_Force_Field>
OPLS_2005

> <r_lp_Energy>
9.40114

> <b_lp_Chiralities_Consistent>
1

> <s_lp_Variant>
AV-unprocessed.smi:434-1

> <Gold.Version>
5.8.1

> <Gold.Id.Protein>
6NUR|6NUR_protein|mol2

> <Gold.PLP.Fitness>
48.4963

> <Gold.PLP.PLP>
-44.1474

> <Gold.PLP.part.hbond>
-2.0000

> <Gold.PLP.part.metal>
0.0000

> <Gold.PLP.part.buried>
-4.7413

> <Gold.PLP.part.nonpolar>
-35.9419

> <Gold.PLP.part.repulsive>
0.2870

> <Gold.PLP.ligand.clash>
0.0000

> <Gold.PLP.ligand.torsion>
0.8529

> <Gold.PLP.Chemscore.Hbond>
2.0000

> <Gold.PLP.Chemscore.CHOScore>
0.0000

> <Gold.PLP.Chemscore.Metal>
0.0000

> <Gold.Chemscore.Hbonds>
donor molecule, donor type, donor heavy atom, donor atom, acceptor molecule, acceptor atom, score
      L1  H    13    32       P1  7957  0.96
      P1  H  7997  8008       L1     3  0.39

> <Gold.PLP.Chemscore.Internal.Correction>
0.0547

> <Gold.Rescore>
     Score         DG    S(hbond)    S(metal)    S(lipo)     H(rot)  DE(clash)    DE(int)     intcor
     16.36     -17.45       1.42        0.00     113.39       2.36       0.26       0.83       ----

> <Gold.Chemscore.Fitness>
16.3607

> <Gold.Chemscore.DG>
-17.4526

> <Gold.Chemscore.ZeroCoef>
-5.4800

> <Gold.Chemscore.Hbond>
1.4208

> <Gold.Chemscore.Metal>
0.0000

> <Gold.Chemscore.Lipo>
113.3892

> <Gold.Chemscore.Internal_Hbond>
0.0000

> <Gold.Chemscore.DEClash>
0.2608

> <Gold.Chemscore.DEInternal>
0.8312

> <Gold.Chemscore.Rot>
2.3591

> <Gold.Chemscore.Internal.Correction>
   9.000000E+99

> <Gold.Chemscore.Hbonds>
donor molecule, donor type, donor heavy atom, donor atom, acceptor molecule, acceptor atom, score
      L1  H    13    32       P1  7957  0.89
      P1  H  7997  8008       L1     3  0.13

> <Gold.Chemscore.Hbond.Weighted>
-4.7453

> <Gold.Chemscore.Metal.Weighted>
-0.0000

> <Gold.Chemscore.Lipo.Weighted>
-13.2665

> <Gold.Chemscore.Internal_Hbond.Weighted>
0.0000

> <Gold.Chemscore.DEClash.Weighted>
0.2608

> <Gold.Chemscore.DEInternal.Weighted>
0.8312

> <Gold.Chemscore.Rot.Weighted>
6.0393

> <Gold.Chemscore.Internal.Correction.Weighted>
   9.000000E+99

> <Gold.Protein.RotatedTorsions>
[ 6907 6896 6895 6894 ] final  -96.38 input  -60.11 | X-H torsion
[ 7974 7965 7964 7962 ] final   85.42 input  175.53 | X-H torsion
[ 8008 7997 7996 7995 ] final  -43.12 input   59.86 | X-H torsion
[ 10167 10162 10161 10158 ] final  141.42 input  -65.29 | X-H torsion
[ 10718 10713 10712 10709 ] final  -40.49 input   66.30 | X-H torsion
[ 10763 10752 10751 10750 ] final -128.77 input  -60.55 | X-H torsion
[ 11005 11000 10999 10996 ] final  -63.91 input  -57.11 | X-H torsion

> <Gold.Protein.ActiveResidues>
 VAL166  LYS551  ARG553  GLY616  TRP617  ASP618  TYR619  PRO620  LYS621  CYS622 
 ASP623  PHE694  ASN695  SER759  ASP760  ASP761  ALA762  ILE779  LEU786  VAL792 
 PHE793  MET794  SER795  GLU796  ALA797  LYS798  CYS799  TRP800  GLU811  SER814 

> <Gold.Protein.RotatedAtoms>
  150.6987  134.1512  159.4140 H   0  0  0  0  0  0  0  0  0  0  0  0  # atno 6907 bound_to 6896
  151.9494  135.0174  160.0550 H   0  0  0  0  0  0  0  0  0  0  0  0  # atno 6908 bound_to 6896
  152.2024  133.4815  159.5102 H   0  0  0  0  0  0  0  0  0  0  0  0  # atno 6909 bound_to 6896
  145.5857  139.2331  143.2327 H   0  0  0  0  0  0  0  0  0  0  0  0  # atno 7974 bound_to 7965
  154.3997  140.1456  156.3467 H   0  0  0  0  0  0  0  0  0  0  0  0  # atno 8008 bound_to 7997
  155.8306  140.3466  155.5549 H   0  0  0  0  0  0  0  0  0  0  0  0  # atno 8009 bound_to 7997
  155.8192  140.0895  157.1849 H   0  0  0  0  0  0  0  0  0  0  0  0  # atno 8010 bound_to 7997
  139.5021  144.6172  151.6135 H   0  0  0  0  0  0  0  0  0  0  0  0  # atno 10167 bound_to 10162
  156.2807  130.4217  149.8339 H   0  0  0  0  0  0  0  0  0  0  0  0  # atno 10718 bound_to 10713
  154.8757  135.3917  154.3812 H   0  0  0  0  0  0  0  0  0  0  0  0  # atno 10763 bound_to 10752
  153.4559  135.7028  153.6085 H   0  0  0  0  0  0  0  0  0  0  0  0  # atno 10764 bound_to 10752
  153.4605  135.3813  155.2304 H   0  0  0  0  0  0  0  0  0  0  0  0  # atno 10765 bound_to 10752
  141.1408  133.6658  156.5753 H   0  0  0  0  0  0  0  0  0  0  0  0  # atno 11005 bound_to 11000
  146.1683  140.6684  142.9245 LP  0  0  0  0  0  0  0  0  0  0  0  0  # atno 17320 bound_to 7965
  144.7373  140.4846  143.6894 LP  0  0  0  0  0  0  0  0  0  0  0  0  # atno 17321 bound_to 7965
  140.5864  143.9856  150.6298 LP  0  0  0  0  0  0  0  0  0  0  0  0  # atno 17342 bound_to 10162
  140.3022  143.3253  152.0960 LP  0  0  0  0  0  0  0  0  0  0  0  0  # atno 17343 bound_to 10162
  156.5788  130.8456  151.3377 LP  0  0  0  0  0  0  0  0  0  0  0  0  # atno 17370 bound_to 10713
  157.7313  130.9699  150.1876 LP  0  0  0  0  0  0  0  0  0  0  0  0  # atno 17371 bound_to 10713
  140.3881  134.7465  157.4704 LP  0  0  0  0  0  0  0  0  0  0  0  0  # atno 17394 bound_to 11000
  140.0587  134.6027  155.8774 LP  0  0  0  0  0  0  0  0  0  0  0  0  # atno 17395 bound_to 11000

$$$$
