AV-unprocessed.smi:107|AV-procd|sdf|1022|dock5
  -GOLD-   2262018 23D 1   1.00000     0.00000
 Structure written by MMmdl.
 30 31  0  0  0  0  0  0  0  0  2 V2000
  152.5933  142.7374  160.9322 C   0  0  0  0  0  0  0  0  0  0  0  0
  152.4339  141.8201  159.7325 C   0  0  0  0  0  0  0  0  0  0  0  0
  151.3481  141.8658  158.9287 C   0  0  0  0  0  0  0  0  0  0  0  0
  151.2077  141.0255  157.8382 N   0  0  0  0  0  0  0  0  0  0  0  0
  149.9712  141.0852  156.9741 C   0  0  1  0  0  0  0  0  0  0  0  0
  150.2644  141.7684  155.6446 C   0  0  0  0  0  0  0  0  0  0  0  0
  149.2679  141.0914  154.7110 C   0  0  1  0  0  0  0  0  0  0  0  0
  149.8995  140.7560  153.4890 O   0  0  0  0  0  0  0  0  0  0  0  0
  148.7272  139.8792  155.5096 C   0  0  1  0  0  0  0  0  0  0  0  0
  148.7172  138.5267  154.7724 C   0  0  0  0  0  0  0  0  0  0  0  0
  148.4132  138.7189  153.4071 O   0  0  0  0  0  0  0  0  0  0  0  0
  149.5748  139.7950  156.6490 O   0  0  0  0  0  0  0  0  0  0  0  0
  152.2085  140.0590  157.5613 C   0  0  0  0  0  0  0  0  0  0  0  0
  152.0322  139.2967  156.6106 O   0  0  0  0  0  0  0  0  0  0  0  0
  153.3120  140.0117  158.3612 N   0  5  0  0  0  0  0  0  0  0  0  0
  153.4857  140.8413  159.4302 C   0  0  0  0  0  0  0  0  0  0  0  0
  154.4885  140.7893  160.1421 O   0  0  0  0  0  0  0  0  0  0  0  0
  151.7384  143.4058  161.0371 H   0  0  0  0  0  0  0  0  0  0  0  0
  153.4896  143.3492  160.8277 H   0  0  0  0  0  0  0  0  0  0  0  0
  152.6792  142.1528  161.8487 H   0  0  0  0  0  0  0  0  0  0  0  0
  150.5661  142.5762  159.1522 H   0  0  0  0  0  0  0  0  0  0  0  0
  149.1811  141.5642  157.5557 H   0  0  0  0  0  0  0  0  0  0  0  0
  150.1366  142.8483  155.7234 H   0  0  0  0  0  0  0  0  0  0  0  0
  151.2932  141.5516  155.3507 H   0  0  0  0  0  0  0  0  0  0  0  0
  148.4447  141.7710  154.4876 H   0  0  0  0  0  0  0  0  0  0  0  0
  149.3303  140.1778  153.0050 H   0  0  0  0  0  0  0  0  0  0  0  0
  147.7201  140.1250  155.8523 H   0  0  0  0  0  0  0  0  0  0  0  0
  149.7022  138.0610  154.8117 H   0  0  0  0  0  0  0  0  0  0  0  0
  148.0075  137.8342  155.2266 H   0  0  0  0  0  0  0  0  0  0  0  0
  148.5832  137.9122  152.9451 H   0  0  0  0  0  0  0  0  0  0  0  0
  1  2  1  0  0  0  0
  1 18  1  0  0  0  0
  1 19  1  0  0  0  0
  1 20  1  0  0  0  0
  2 16  1  0  0  0  0
  2  3  2  0  0  0  0
  3  4  1  0  0  0  0
  3 21  1  0  0  0  0
  4  5  1  0  0  0  0
  4 13  1  0  0  0  0
  5 12  1  0  0  0  0
  5  6  1  0  0  0  0
  5 22  1  0  0  0  0
  6  7  1  0  0  0  0
  6 23  1  0  0  0  0
  6 24  1  0  0  0  0
  7  8  1  0  0  0  0
  7  9  1  0  0  0  0
  7 25  1  0  0  0  0
  8 26  1  0  0  0  0
  9 10  1  0  0  0  0
  9 12  1  0  0  0  0
  9 27  1  0  0  0  0
 10 11  1  0  0  0  0
 10 28  1  0  0  0  0
 10 29  1  0  0  0  0
 11 30  1  0  0  0  0
 13 14  2  0  0  0  0
 13 15  1  0  0  0  0
 15 16  1  0  0  0  0
 16 17  2  0  0  0  0
M  CHG  1  15  -1
M  END
> <s_m_source_file>
AV-unprocessed.smi

> <i_m_source_file_index>
107

> <i_lp_mmshare_version>
43012

> <i_f3d_flags>
0

> <s_epik_input>
Tz1jMVtuSF1jKD1PKW4oW2NIXWMxW0NIM10pW0NAQEhdMltDSDJdW0NAQEhdKFtPSF0pW0NASF0oTzIpW0NIMl1bT0hd

> <s_epik_cmdline>
J2VwaWtfcHl0aG9uJywgJy1waCcsICc3LjAnLCAnLXRuJywgJzgnLCAnLW1hJywgJzIwMCcsICctbWV0YWxfYmluZGluZycsICctaW1hZScsICc8aW5maWxlLm1hZT4nLCAnLW9tYWUnLCAnPG91dGZpbGUubWFlPic=

> <r_lp_tautomer_probability>
0.999537

> <r_epik_Ionization_Penalty>
3.66603

> <r_epik_Ionization_Penalty_Charging>
1.09773e-07

> <r_epik_Ionization_Penalty_Neutral>
3.66603

> <r_epik_State_Penalty>
3.66562

> <r_epik_Charging_Adjusted_Penalty>
3.66562

> <i_epik_Tot_Q>
-1

> <i_epik_Tot_abs_Q>
1

> <r_epik_Metal_State_Penalty>
0.234536

> <b_epik_Metal_Only>
1

> <s_epik_Chemistry_Notes>
This compound contains an acetal/aminal-like group ( X-CH(R)-Y where X, Y are N, S, or O) that may be acid/base labile, releasing an aldehyde.

> <s_lp_Force_Field>
OPLS_2005

> <r_lp_Energy>
40.7451

> <b_lp_Chiralities_Consistent>
1

> <s_lp_Variant>
AV-unprocessed.smi:107-10

> <Gold.Version>
5.8.1

> <Gold.Id.Protein>
6NUR|6NUR_protein|mol2

> <Gold.PLP.Fitness>
41.6041

> <Gold.PLP.PLP>
-28.9430

> <Gold.PLP.part.hbond>
-5.2086

> <Gold.PLP.part.metal>
0.0000

> <Gold.PLP.part.buried>
-2.4955

> <Gold.PLP.part.nonpolar>
-19.7823

> <Gold.PLP.part.repulsive>
0.0000

> <Gold.PLP.ligand.clash>
0.0000

> <Gold.PLP.ligand.torsion>
0.7615

> <Gold.PLP.Chemscore.Hbond>
4.7200

> <Gold.PLP.Chemscore.CHOScore>
0.0000

> <Gold.PLP.Chemscore.Metal>
0.0000

> <Gold.Chemscore.Hbonds>
donor molecule, donor type, donor heavy atom, donor atom, acceptor molecule, acceptor atom, score
      L1  H     8    26       P1  7957  0.35
      L1  H    11    30       P1  7948  1.00
      P1  H  7989  7998       L1     8  0.37
      P1  H  7997  8008       L1    15  2.00
      P1  H  8011  8017       L1     8  1.00

> <Gold.PLP.Chemscore.Internal.Correction>
0.0242

> <Gold.Rescore>
     Score         DG    S(hbond)    S(metal)    S(lipo)     H(rot)  DE(clash)    DE(int)     intcor
     10.19     -12.76       2.49        0.00      50.04       2.69       0.05       2.52       ----

> <Gold.Chemscore.Fitness>
10.1883

> <Gold.Chemscore.DG>
-12.7604

> <Gold.Chemscore.ZeroCoef>
-5.4800

> <Gold.Chemscore.Hbond>
2.4864

> <Gold.Chemscore.Metal>
0.0000

> <Gold.Chemscore.Lipo>
50.0403

> <Gold.Chemscore.Internal_Hbond>
0.0000

> <Gold.Chemscore.DEClash>
0.0492

> <Gold.Chemscore.DEInternal>
2.5229

> <Gold.Chemscore.Rot>
2.6871

> <Gold.Chemscore.Internal.Correction>
   9.000000E+99

> <Gold.Chemscore.Hbonds>
donor molecule, donor type, donor heavy atom, donor atom, acceptor molecule, acceptor atom, score
      L1  H     8    26       P1  7957  0.34
      L1  H    11    30       P1  7948  0.95
      P1  H  7989  7998       L1     8  0.33
      P1  H  7997  8008       L1    15  0.33
      P1  H  8011  8017       L1     8  0.14

> <Gold.Chemscore.Hbond.Weighted>
-8.3047

> <Gold.Chemscore.Metal.Weighted>
-0.0000

> <Gold.Chemscore.Lipo.Weighted>
-5.8547

> <Gold.Chemscore.Internal_Hbond.Weighted>
0.0000

> <Gold.Chemscore.DEClash.Weighted>
0.0492

> <Gold.Chemscore.DEInternal.Weighted>
2.5229

> <Gold.Chemscore.Rot.Weighted>
6.8791

> <Gold.Chemscore.Internal.Correction.Weighted>
   9.000000E+99

> <Gold.Protein.RotatedTorsions>
[ 6907 6896 6895 6894 ] final -137.41 input  -60.11 | X-H torsion
[ 7974 7965 7964 7962 ] final -136.41 input  175.53 | X-H torsion
[ 8008 7997 7996 7995 ] final  -96.57 input   59.86 | X-H torsion
[ 10167 10162 10161 10158 ] final  -15.42 input  -65.29 | X-H torsion
[ 10718 10713 10712 10709 ] final   41.62 input   66.30 | X-H torsion
[ 10763 10752 10751 10750 ] final -153.80 input  -60.55 | X-H torsion
[ 11005 11000 10999 10996 ] final   46.74 input  -57.11 | X-H torsion

> <Gold.Protein.ActiveResidues>
 VAL166  LYS551  ARG553  GLY616  TRP617  ASP618  TYR619  PRO620  LYS621  CYS622 
 ASP623  PHE694  ASN695  SER759  ASP760  ASP761  ALA762  ILE779  LEU786  VAL792 
 PHE793  MET794  SER795  GLU796  ALA797  LYS798  CYS799  TRP800  GLU811  SER814 

> <Gold.Protein.RotatedAtoms>
  151.0222  133.5866  159.2669 H   0  0  0  0  0  0  0  0  0  0  0  0  # atno 6907 bound_to 6896
  151.2979  135.0759  159.9237 H   0  0  0  0  0  0  0  0  0  0  0  0  # atno 6908 bound_to 6896
  152.5326  133.9909  159.7904 H   0  0  0  0  0  0  0  0  0  0  0  0  # atno 6909 bound_to 6896
  144.8929  140.6667  143.5133 H   0  0  0  0  0  0  0  0  0  0  0  0  # atno 7974 bound_to 7965
  154.7763  140.0470  157.1091 H   0  0  0  0  0  0  0  0  0  0  0  0  # atno 8008 bound_to 7997
  154.9759  140.3095  155.4948 H   0  0  0  0  0  0  0  0  0  0  0  0  # atno 8009 bound_to 7997
  156.2929  140.2245  156.4855 H   0  0  0  0  0  0  0  0  0  0  0  0  # atno 8010 bound_to 7997
  140.7218  143.5220  150.9623 H   0  0  0  0  0  0  0  0  0  0  0  0  # atno 10167 bound_to 10162
  157.3957  130.7831  149.7306 H   0  0  0  0  0  0  0  0  0  0  0  0  # atno 10718 bound_to 10713
  154.7902  135.3204  154.7793 H   0  0  0  0  0  0  0  0  0  0  0  0  # atno 10763 bound_to 10752
  153.8484  135.6864  153.4799 H   0  0  0  0  0  0  0  0  0  0  0  0  # atno 10764 bound_to 10752
  153.1570  135.4676  154.9658 H   0  0  0  0  0  0  0  0  0  0  0  0  # atno 10765 bound_to 10752
  140.1341  134.4667  155.8498 H   0  0  0  0  0  0  0  0  0  0  0  0  # atno 11005 bound_to 11000
  145.3750  139.1650  143.4311 LP  0  0  0  0  0  0  0  0  0  0  0  0  # atno 17320 bound_to 7965
  146.3064  140.3826  142.8685 LP  0  0  0  0  0  0  0  0  0  0  0  0  # atno 17321 bound_to 7965
  139.8937  143.6921  152.3141 LP  0  0  0  0  0  0  0  0  0  0  0  0  # atno 17342 bound_to 10162
  139.7246  144.7595  151.0899 LP  0  0  0  0  0  0  0  0  0  0  0  0  # atno 17343 bound_to 10162
  155.9810  130.4024  150.3498 LP  0  0  0  0  0  0  0  0  0  0  0  0  # atno 17370 bound_to 10713
  157.1620  131.0347  151.2836 LP  0  0  0  0  0  0  0  0  0  0  0  0  # atno 17371 bound_to 10713
  141.2175  133.6807  156.7125 LP  0  0  0  0  0  0  0  0  0  0  0  0  # atno 17394 bound_to 11000
  140.2804  134.8321  157.3928 LP  0  0  0  0  0  0  0  0  0  0  0  0  # atno 17395 bound_to 11000

$$$$
