AV-unprocessed.smi:2799|AV-procd|sdf|10792|dock6
  -GOLD-   2272015223D 1   1.00000     0.00000
 Structure written by MMmdl.
 52 53  0  0  0  0  0  0  0  0  2 V2000
  148.5335  140.6655  155.6438 C   0  0  0  0  0  0  0  0  0  0  0  0
  148.2294  140.5329  154.1435 C   0  0  0  0  0  0  0  0  0  0  0  0
  146.9744  141.3445  153.7796 C   0  0  0  0  0  0  0  0  0  0  0  0
  148.0894  139.0420  153.7525 C   0  0  0  0  0  0  0  0  0  0  0  0
  149.3011  138.2108  154.0295 N   0  3  1  0  0  0  0  0  0  0  0  0
  150.5400  139.0441  154.0584 C   0  0  0  0  0  0  0  0  0  0  0  0
  151.8100  138.1942  154.1878 C   0  0  0  0  0  0  0  0  0  0  0  0
  151.7491  137.3345  155.4468 C   0  0  0  0  0  0  0  0  0  0  0  0
  150.4798  136.4826  155.4143 C   0  0  0  0  0  0  0  0  0  0  0  0
  149.1965  137.3391  155.2514 C   0  0  2  0  0  0  0  0  0  0  0  0
  147.9435  136.4145  155.2502 C   0  0  0  0  0  0  0  0  0  0  0  0
  147.7151  135.7560  153.9663 N   0  0  0  0  0  0  0  0  0  0  0  0
  146.7830  134.8197  153.7372 C   0  0  0  0  0  0  0  0  0  0  0  0
  146.0047  134.4231  154.6040 O   0  0  0  0  0  0  0  0  0  0  0  0
  146.8269  134.4015  152.4588 N   0  0  0  0  0  0  0  0  0  0  0  0
  146.0610  133.4176  151.8080 C   0  0  0  0  0  0  0  0  0  0  0  0
  145.1177  133.6661  150.8643 C   0  0  0  0  0  0  0  0  0  0  0  0
  144.3731  132.5889  150.2579 C   0  0  0  0  0  0  0  0  0  0  0  0
  144.6286  131.3345  150.6546 C   0  0  0  0  0  0  0  0  0  0  0  0
  145.5941  131.0542  151.6361 N   0  0  0  0  0  0  0  0  0  0  0  0
  145.8007  129.6506  152.0022 C   0  0  0  0  0  0  0  0  0  0  0  0
  146.3319  132.0323  152.2408 C   0  0  0  0  0  0  0  0  0  0  0  0
  147.1741  131.7573  153.0993 O   0  0  0  0  0  0  0  0  0  0  0  0
  147.7202  140.2686  156.2525 H   0  0  0  0  0  0  0  0  0  0  0  0
  148.6795  141.7088  155.9250 H   0  0  0  0  0  0  0  0  0  0  0  0
  149.4424  140.1250  155.9102 H   0  0  0  0  0  0  0  0  0  0  0  0
  149.0807  140.9749  153.6291 H   0  0  0  0  0  0  0  0  0  0  0  0
  146.0886  140.9513  154.2796 H   0  0  0  0  0  0  0  0  0  0  0  0
  146.7849  141.3301  152.7061 H   0  0  0  0  0  0  0  0  0  0  0  0
  147.0847  142.3887  154.0739 H   0  0  0  0  0  0  0  0  0  0  0  0
  147.2303  138.5954  154.2557 H   0  0  0  0  0  0  0  0  0  0  0  0
  147.8522  139.0470  152.6933 H   0  0  0  0  0  0  0  0  0  0  0  0
  150.6403  139.6297  153.1475 H   0  0  0  0  0  0  0  0  0  0  0  0
  150.4802  139.7559  154.8834 H   0  0  0  0  0  0  0  0  0  0  0  0
  151.9226  137.5593  153.3079 H   0  0  0  0  0  0  0  0  0  0  0  0
  152.6887  138.8390  154.2205 H   0  0  0  0  0  0  0  0  0  0  0  0
  152.6312  136.6968  155.5128 H   0  0  0  0  0  0  0  0  0  0  0  0
  151.7508  137.9680  156.3348 H   0  0  0  0  0  0  0  0  0  0  0  0
  150.5465  135.7630  154.5968 H   0  0  0  0  0  0  0  0  0  0  0  0
  150.4449  135.8978  156.3334 H   0  0  0  0  0  0  0  0  0  0  0  0
  149.1242  138.0073  156.1111 H   0  0  0  0  0  0  0  0  0  0  0  0
  148.0165  135.6158  155.9862 H   0  0  0  0  0  0  0  0  0  0  0  0
  147.0522  136.9910  155.4991 H   0  0  0  0  0  0  0  0  0  0  0  0
  148.3116  136.0312  153.1993 H   0  0  0  0  0  0  0  0  0  0  0  0
  147.4934  134.8681  151.8605 H   0  0  0  0  0  0  0  0  0  0  0  0
  144.8791  134.6657  150.5413 H   0  0  0  0  0  0  0  0  0  0  0  0
  143.6276  132.7889  149.5024 H   0  0  0  0  0  0  0  0  0  0  0  0
  144.1144  130.4756  150.2488 H   0  0  0  0  0  0  0  0  0  0  0  0
  145.6632  129.5070  153.0749 H   0  0  0  0  0  0  0  0  0  0  0  0
  146.8124  129.3355  151.7433 H   0  0  0  0  0  0  0  0  0  0  0  0
  145.1090  128.9765  151.4958 H   0  0  0  0  0  0  0  0  0  0  0  0
  149.3941  137.5804  153.2458 H   0  0  0  0  0  0  0  0  0  0  0  0
  1  2  1  0  0  0  0
  1 24  1  0  0  0  0
  1 25  1  0  0  0  0
  1 26  1  0  0  0  0
  2  3  1  0  0  0  0
  2  4  1  0  0  0  0
  2 27  1  0  0  0  0
  3 28  1  0  0  0  0
  3 29  1  0  0  0  0
  3 30  1  0  0  0  0
  4  5  1  0  0  0  0
  4 31  1  0  0  0  0
  4 32  1  0  0  0  0
  5 10  1  0  0  0  0
  5  6  1  0  0  0  0
  5 52  1  0  0  0  0
  6  7  1  0  0  0  0
  6 33  1  0  0  0  0
  6 34  1  0  0  0  0
  7  8  1  0  0  0  0
  7 35  1  0  0  0  0
  7 36  1  0  0  0  0
  8  9  1  0  0  0  0
  8 37  1  0  0  0  0
  8 38  1  0  0  0  0
  9 10  1  0  0  0  0
  9 39  1  0  0  0  0
  9 40  1  0  0  0  0
 10 11  1  0  0  0  0
 10 41  1  0  0  0  0
 11 12  1  0  0  0  0
 11 42  1  0  0  0  0
 11 43  1  0  0  0  0
 12 13  1  0  0  0  0
 12 44  1  0  0  0  0
 13 14  2  0  0  0  0
 13 15  1  0  0  0  0
 15 16  1  0  0  0  0
 15 45  1  0  0  0  0
 16 22  1  0  0  0  0
 16 17  2  0  0  0  0
 17 18  1  0  0  0  0
 17 46  1  0  0  0  0
 18 19  2  0  0  0  0
 18 47  1  0  0  0  0
 19 20  1  0  0  0  0
 19 48  1  0  0  0  0
 20 21  1  0  0  0  0
 20 22  1  0  0  0  0
 21 49  1  0  0  0  0
 21 50  1  0  0  0  0
 21 51  1  0  0  0  0
 22 23  2  0  0  0  0
M  CHG  1   5   1
M  END
> <s_m_source_file>
AV-unprocessed.smi

> <i_m_source_file_index>
2799

> <i_lp_mmshare_version>
43012

> <i_f3d_flags>
0

> <s_epik_input>
W0NIM11bQ0hdKFtDSDNdKVtDSDJdTjFbQ0gyXVtDSDJdW0NIMl1bQ0gyXVtDQEhdMVtDSDJdW05IXUMoPU8pW05IXWMyW2NIXVtjSF1bY0hdbihbQ0gzXSljMj1P

> <s_epik_cmdline>
J2VwaWtfcHl0aG9uJywgJy1waCcsICc3LjAnLCAnLXRuJywgJzgnLCAnLW1hJywgJzIwMCcsICctbWV0YWxfYmluZGluZycsICctaW1hZScsICc8aW5maWxlLm1hZT4nLCAnLW9tYWUnLCAnPG91dGZpbGUubWFlPic=

> <r_lp_tautomer_probability>
1

> <r_epik_Ionization_Penalty>
0.0010885

> <r_epik_Ionization_Penalty_Charging>
0.00106921

> <r_epik_Ionization_Penalty_Neutral>
1.92865e-05

> <r_epik_State_Penalty>
0.000697184

> <r_epik_Charging_Adjusted_Penalty>
0.0017664

> <i_epik_Tot_Q>
1

> <i_epik_Tot_abs_Q>
1

> <r_epik_Metal_State_Penalty>
-0

> <b_epik_Metal_Only>
0

> <s_lp_Force_Field>
OPLS_2005

> <r_lp_Energy>
36.993

> <b_lp_Chiralities_Consistent>
1

> <s_lp_Variant>
AV-unprocessed.smi:2799-4

> <Gold.Version>
5.8.1

> <Gold.Id.Protein>
6NUR|6NUR_protein|mol2

> <Gold.PLP.Fitness>
48.7432

> <Gold.PLP.PLP>
-39.6618

> <Gold.PLP.part.hbond>
-2.9973

> <Gold.PLP.part.metal>
0.0000

> <Gold.PLP.part.buried>
-5.7876

> <Gold.PLP.part.nonpolar>
-31.7831

> <Gold.PLP.part.repulsive>
0.2241

> <Gold.PLP.ligand.clash>
0.0000

> <Gold.PLP.ligand.torsion>
1.3739

> <Gold.PLP.Chemscore.Hbond>
3.9120

> <Gold.PLP.Chemscore.CHOScore>
0.0000

> <Gold.PLP.Chemscore.Metal>
0.0000

> <Gold.Chemscore.Hbonds>
donor molecule, donor type, donor heavy atom, donor atom, acceptor molecule, acceptor atom, score
      L1  H     5    52       P1  7948  2.00
      L1  H    12    44       P1  7948  0.89
      L1  H    15    45       P1  7948  0.90

> <Gold.PLP.Chemscore.Internal.Correction>
0.0932

> <Gold.Rescore>
     Score         DG    S(hbond)    S(metal)    S(lipo)     H(rot)  DE(clash)    DE(int)     intcor
     19.75     -21.43       2.63        0.00      95.52       1.57       0.13       1.55       ----

> <Gold.Chemscore.Fitness>
19.7528

> <Gold.Chemscore.DG>
-21.4349

> <Gold.Chemscore.ZeroCoef>
-5.4800

> <Gold.Chemscore.Hbond>
2.6331

> <Gold.Chemscore.Metal>
0.0000

> <Gold.Chemscore.Lipo>
95.5239

> <Gold.Chemscore.Internal_Hbond>
0.0000

> <Gold.Chemscore.DEClash>
0.1271

> <Gold.Chemscore.DEInternal>
1.5550

> <Gold.Chemscore.Rot>
1.5688

> <Gold.Chemscore.Internal.Correction>
   9.000000E+99

> <Gold.Chemscore.Hbonds>
donor molecule, donor type, donor heavy atom, donor atom, acceptor molecule, acceptor atom, score
      L1  H     5    52       P1  7948  0.95
      L1  H    12    44       P1  7948  0.87
      L1  H    15    45       P1  7948  0.65

> <Gold.Chemscore.Hbond.Weighted>
-8.7946

> <Gold.Chemscore.Metal.Weighted>
-0.0000

> <Gold.Chemscore.Lipo.Weighted>
-11.1763

> <Gold.Chemscore.Internal_Hbond.Weighted>
0.0000

> <Gold.Chemscore.DEClash.Weighted>
0.1271

> <Gold.Chemscore.DEInternal.Weighted>
1.5550

> <Gold.Chemscore.Rot.Weighted>
4.0161

> <Gold.Chemscore.Internal.Correction.Weighted>
   9.000000E+99

> <Gold.Protein.RotatedTorsions>
[ 6907 6896 6895 6894 ] final   14.62 input  -60.11 | X-H torsion
[ 7974 7965 7964 7962 ] final  -33.38 input  175.53 | X-H torsion
[ 8008 7997 7996 7995 ] final   86.93 input   59.86 | X-H torsion
[ 10167 10162 10161 10158 ] final   29.06 input  -65.29 | X-H torsion
[ 10718 10713 10712 10709 ] final   45.97 input   66.30 | X-H torsion
[ 10763 10752 10751 10750 ] final  -24.44 input  -60.55 | X-H torsion
[ 11005 11000 10999 10996 ] final -135.80 input  -57.11 | X-H torsion

> <Gold.Protein.ActiveResidues>
 VAL166  LYS551  ARG553  GLY616  TRP617  ASP618  TYR619  PRO620  LYS621  CYS622 
 ASP623  PHE694  ASN695  SER759  ASP760  ASP761  ALA762  ILE779  LEU786  VAL792 
 PHE793  MET794  SER795  GLU796  ALA797  LYS798  CYS799  TRP800  GLU811  SER814 

> <Gold.Protein.RotatedAtoms>
  151.8051  135.0697  160.0405 H   0  0  0  0  0  0  0  0  0  0  0  0  # atno 6907 bound_to 6896
  152.3061  133.5700  159.5658 H   0  0  0  0  0  0  0  0  0  0  0  0  # atno 6908 bound_to 6896
  150.7296  134.0137  159.3720 H   0  0  0  0  0  0  0  0  0  0  0  0  # atno 6909 bound_to 6896
  146.0915  140.5908  142.8862 H   0  0  0  0  0  0  0  0  0  0  0  0  # atno 7974 bound_to 7965
  155.9690  140.3387  155.6558 H   0  0  0  0  0  0  0  0  0  0  0  0  # atno 8008 bound_to 7997
  155.6700  140.0726  157.2542 H   0  0  0  0  0  0  0  0  0  0  0  0  # atno 8009 bound_to 7997
  154.4161  140.1693  156.1856 H   0  0  0  0  0  0  0  0  0  0  0  0  # atno 8010 bound_to 7997
  140.4798  144.0633  150.6262 H   0  0  0  0  0  0  0  0  0  0  0  0  # atno 10167 bound_to 10162
  157.4432  130.8094  149.7715 H   0  0  0  0  0  0  0  0  0  0  0  0  # atno 10718 bound_to 10713
  153.6838  135.6965  153.5110 H   0  0  0  0  0  0  0  0  0  0  0  0  # atno 10763 bound_to 10752
  153.2465  135.4289  155.0752 H   0  0  0  0  0  0  0  0  0  0  0  0  # atno 10764 bound_to 10752
  154.8392  135.3521  154.6380 H   0  0  0  0  0  0  0  0  0  0  0  0  # atno 10765 bound_to 10752
  140.8864  134.1867  157.4557 H   0  0  0  0  0  0  0  0  0  0  0  0  # atno 11005 bound_to 11000
  144.7364  140.4820  143.6901 LP  0  0  0  0  0  0  0  0  0  0  0  0  # atno 17320 bound_to 7965
  145.6029  139.1505  143.3119 LP  0  0  0  0  0  0  0  0  0  0  0  0  # atno 17321 bound_to 7965
  140.3872  143.2771  152.0102 LP  0  0  0  0  0  0  0  0  0  0  0  0  # atno 17342 bound_to 10162
  139.4831  144.6107  151.7439 LP  0  0  0  0  0  0  0  0  0  0  0  0  # atno 17343 bound_to 10162
  155.9957  130.3910  150.2809 LP  0  0  0  0  0  0  0  0  0  0  0  0  # atno 17370 bound_to 10713
  157.0975  131.0186  151.3098 LP  0  0  0  0  0  0  0  0  0  0  0  0  # atno 17371 bound_to 10713
  139.8725  134.9840  156.5220 LP  0  0  0  0  0  0  0  0  0  0  0  0  # atno 17394 bound_to 11000
  140.8399  133.8213  155.9065 LP  0  0  0  0  0  0  0  0  0  0  0  0  # atno 17395 bound_to 11000

$$$$
