AV-unprocessed.smi:2670|AV-procd|sdf|10345|dock4
  -GOLD-   2272014373D 1   1.00000     0.00000
 Structure written by MMmdl.
 40 41  0  0  0  0  0  0  0  0  2 V2000
  153.5451  140.2836  160.9852 C   0  0  0  0  0  0  0  0  0  0  0  0
  152.9061  141.3499  160.1456 C   0  0  0  0  0  0  0  0  0  0  0  0
  152.9718  142.7612  160.3132 C   0  0  0  0  0  0  0  0  0  0  0  0
  152.2188  143.2592  159.2873 C   0  0  0  0  0  0  0  0  0  0  0  0
  151.9085  144.6764  158.9282 C   0  0  0  0  0  0  0  0  0  0  0  0
  151.7515  142.1715  158.5673 N   0  0  0  0  0  0  0  0  0  0  0  0
  150.8977  142.1410  157.3883 C   0  0  0  0  0  0  0  0  0  0  0  0
  150.9391  140.7761  156.6976 C   0  0  0  0  0  0  0  0  0  0  0  0
  151.3505  140.6971  155.5414 O   0  0  0  0  0  0  0  0  0  0  0  0
  150.4825  139.7460  157.4336 N   0  0  0  0  0  0  0  0  0  0  0  0
  150.3413  138.3065  157.1560 C   0  0  0  0  0  0  0  0  0  0  0  0
  149.7966  137.6989  158.4731 C   0  0  0  0  0  0  0  0  0  0  0  0
  150.5021  136.8538  159.0682 O   0  0  0  0  0  0  0  0  0  0  0  0
  148.6545  138.0487  158.8485 O   0  5  0  0  0  0  0  0  0  0  0  0
  149.4075  137.9172  155.9624 C   0  0  0  0  0  0  0  0  0  0  0  0
  149.9940  138.2326  154.5713 C   0  0  0  0  0  0  0  0  0  0  0  0
  151.3868  137.6194  154.3950 C   0  0  0  0  0  0  0  0  0  0  0  0
  152.3250  138.0909  155.5108 C   0  0  0  0  0  0  0  0  0  0  0  0
  151.7639  137.7303  156.8965 C   0  0  0  0  0  0  0  0  0  0  0  0
  152.1705  141.0036  159.1027 N   0  0  0  0  0  0  0  0  0  0  0  0
  154.1898  140.7174  161.7497 H   0  0  0  0  0  0  0  0  0  0  0  0
  154.1559  139.6166  160.3763 H   0  0  0  0  0  0  0  0  0  0  0  0
  152.7917  139.6794  161.4910 H   0  0  0  0  0  0  0  0  0  0  0  0
  153.4934  143.3241  161.0729 H   0  0  0  0  0  0  0  0  0  0  0  0
  152.1306  145.3458  159.7595 H   0  0  0  0  0  0  0  0  0  0  0  0
  150.8560  144.7997  158.6730 H   0  0  0  0  0  0  0  0  0  0  0  0
  152.5051  144.9970  158.0740 H   0  0  0  0  0  0  0  0  0  0  0  0
  149.8684  142.3634  157.6744 H   0  0  0  0  0  0  0  0  0  0  0  0
  151.2139  142.9336  156.7086 H   0  0  0  0  0  0  0  0  0  0  0  0
  150.1581  140.0019  158.3546 H   0  0  0  0  0  0  0  0  0  0  0  0
  149.2279  136.8412  155.9964 H   0  0  0  0  0  0  0  0  0  0  0  0
  148.4192  138.3663  156.0611 H   0  0  0  0  0  0  0  0  0  0  0  0
  149.3247  137.8555  153.7980 H   0  0  0  0  0  0  0  0  0  0  0  0
  150.0569  139.3087  154.4165 H   0  0  0  0  0  0  0  0  0  0  0  0
  151.3157  136.5311  154.4071 H   0  0  0  0  0  0  0  0  0  0  0  0
  151.7947  137.8947  153.4220 H   0  0  0  0  0  0  0  0  0  0  0  0
  153.3083  137.6379  155.3820 H   0  0  0  0  0  0  0  0  0  0  0  0
  152.4708  139.1695  155.4390 H   0  0  0  0  0  0  0  0  0  0  0  0
  152.4655  138.0753  157.6582 H   0  0  0  0  0  0  0  0  0  0  0  0
  151.7415  136.6422  156.9823 H   0  0  0  0  0  0  0  0  0  0  0  0
  1  2  1  0  0  0  0
  1 21  1  0  0  0  0
  1 22  1  0  0  0  0
  1 23  1  0  0  0  0
  2 20  2  0  0  0  0
  2  3  1  0  0  0  0
  3  4  2  0  0  0  0
  3 24  1  0  0  0  0
  4  5  1  0  0  0  0
  4  6  1  0  0  0  0
  5 25  1  0  0  0  0
  5 26  1  0  0  0  0
  5 27  1  0  0  0  0
  6  7  1  0  0  0  0
  6 20  1  0  0  0  0
  7  8  1  0  0  0  0
  7 28  1  0  0  0  0
  7 29  1  0  0  0  0
  8  9  2  0  0  0  0
  8 10  1  0  0  0  0
 10 11  1  0  0  0  0
 10 30  1  0  0  0  0
 11 19  1  0  0  0  0
 11 12  1  0  0  0  0
 11 15  1  0  0  0  0
 12 13  2  0  0  0  0
 12 14  1  0  0  0  0
 15 16  1  0  0  0  0
 15 31  1  0  0  0  0
 15 32  1  0  0  0  0
 16 17  1  0  0  0  0
 16 33  1  0  0  0  0
 16 34  1  0  0  0  0
 17 18  1  0  0  0  0
 17 35  1  0  0  0  0
 17 36  1  0  0  0  0
 18 19  1  0  0  0  0
 18 37  1  0  0  0  0
 18 38  1  0  0  0  0
 19 39  1  0  0  0  0
 19 40  1  0  0  0  0
M  CHG  1  14  -1
M  END
> <s_m_source_file>
AV-unprocessed.smi

> <i_m_source_file_index>
2670

> <i_lp_mmshare_version>
43012

> <i_f3d_flags>
0

> <s_epik_input>
W0NIM11jMVtjSF1jKFtDSDNdKW4objEpW0NIMl1DKD1PKVtOSF1DMihDKD1PKVtPSF0pW0NIMl1bQ0gyXVtDSDJdW0NIMl1bQ0gyXTI=

> <s_epik_cmdline>
J2VwaWtfcHl0aG9uJywgJy1waCcsICc3LjAnLCAnLXRuJywgJzgnLCAnLW1hJywgJzIwMCcsICctbWV0YWxfYmluZGluZycsICctaW1hZScsICc8aW5maWxlLm1hZT4nLCAnLW9tYWUnLCAnPG91dGZpbGUubWFlPic=

> <r_lp_tautomer_probability>
1

> <r_epik_Ionization_Penalty>
0.000789686

> <r_epik_Ionization_Penalty_Charging>
0.000323848

> <r_epik_Ionization_Penalty_Neutral>
0.000465838

> <r_epik_State_Penalty>
-0

> <r_epik_Charging_Adjusted_Penalty>
0.000323848

> <i_epik_Tot_Q>
-1

> <i_epik_Tot_abs_Q>
1

> <r_epik_Metal_State_Penalty>
-0

> <b_epik_Metal_Only>
0

> <s_lp_Force_Field>
OPLS_2005

> <r_lp_Energy>
8.13654

> <b_lp_Chiralities_Consistent>
1

> <s_lp_Variant>
AV-unprocessed.smi:2670-1

> <Gold.Version>
5.8.1

> <Gold.Id.Protein>
6NUR|6NUR_protein|mol2

> <Gold.PLP.Fitness>
47.4368

> <Gold.PLP.PLP>
-39.5567

> <Gold.PLP.part.hbond>
-3.5370

> <Gold.PLP.part.metal>
0.0000

> <Gold.PLP.part.buried>
-5.3169

> <Gold.PLP.part.nonpolar>
-32.0970

> <Gold.PLP.part.repulsive>
0.0696

> <Gold.PLP.ligand.clash>
0.0000

> <Gold.PLP.ligand.torsion>
0.2444

> <Gold.PLP.Chemscore.Hbond>
2.7680

> <Gold.PLP.Chemscore.CHOScore>
0.0000

> <Gold.PLP.Chemscore.Metal>
0.0000

> <Gold.Chemscore.Hbonds>
donor molecule, donor type, donor heavy atom, donor atom, acceptor molecule, acceptor atom, score
      P1  H  6896  6909       L1    13  1.98
      P1  H  7989  7998       L1     9  0.71

> <Gold.PLP.Chemscore.Internal.Correction>
0.0649

> <Gold.Rescore>
     Score         DG    S(hbond)    S(metal)    S(lipo)     H(rot)  DE(clash)    DE(int)     intcor
     13.85     -18.03       1.83        0.00      96.78       1.91       0.13       4.05       ----

> <Gold.Chemscore.Fitness>
13.8476

> <Gold.Chemscore.DG>
-18.0288

> <Gold.Chemscore.ZeroCoef>
-5.4800

> <Gold.Chemscore.Hbond>
1.8348

> <Gold.Chemscore.Metal>
0.0000

> <Gold.Chemscore.Lipo>
96.7772

> <Gold.Chemscore.Internal_Hbond>
0.0000

> <Gold.Chemscore.DEClash>
0.1327

> <Gold.Chemscore.DEInternal>
4.0485

> <Gold.Chemscore.Rot>
1.9149

> <Gold.Chemscore.Internal.Correction>
   9.000000E+99

> <Gold.Chemscore.Hbonds>
donor molecule, donor type, donor heavy atom, donor atom, acceptor molecule, acceptor atom, score
      P1  H  6896  6909       L1    13  0.92
      P1  H  7989  7998       L1     9  0.67

> <Gold.Chemscore.Hbond.Weighted>
-6.1282

> <Gold.Chemscore.Metal.Weighted>
-0.0000

> <Gold.Chemscore.Lipo.Weighted>
-11.3229

> <Gold.Chemscore.Internal_Hbond.Weighted>
0.0000

> <Gold.Chemscore.DEClash.Weighted>
0.1327

> <Gold.Chemscore.DEInternal.Weighted>
4.0485

> <Gold.Chemscore.Rot.Weighted>
4.9023

> <Gold.Chemscore.Internal.Correction.Weighted>
   9.000000E+99

> <Gold.Protein.RotatedTorsions>
[ 6907 6896 6895 6894 ] final   86.89 input  -60.11 | X-H torsion
[ 7974 7965 7964 7962 ] final   82.55 input  175.53 | X-H torsion
[ 8008 7997 7996 7995 ] final  109.43 input   59.86 | X-H torsion
[ 10167 10162 10161 10158 ] final  -68.90 input  -65.29 | X-H torsion
[ 10718 10713 10712 10709 ] final  -31.76 input   66.30 | X-H torsion
[ 10763 10752 10751 10750 ] final  -61.59 input  -60.55 | X-H torsion
[ 11005 11000 10999 10996 ] final  -55.23 input  -57.11 | X-H torsion

> <Gold.Protein.ActiveResidues>
 VAL166  LYS551  ARG553  GLY616  TRP617  ASP618  TYR619  PRO620  LYS621  CYS622 
 ASP623  PHE694  ASN695  SER759  ASP760  ASP761  ALA762  ILE779  LEU786  VAL792 
 PHE793  MET794  SER795  GLU796  ALA797  LYS798  CYS799  TRP800  GLU811  SER814 

> <Gold.Protein.RotatedAtoms>
  152.5402  134.2361  159.8843 H   0  0  0  0  0  0  0  0  0  0  0  0  # atno 6907 bound_to 6896
  151.2331  133.4433  159.2612 H   0  0  0  0  0  0  0  0  0  0  0  0  # atno 6908 bound_to 6896
  151.0697  134.9804  159.8358 H   0  0  0  0  0  0  0  0  0  0  0  0  # atno 6909 bound_to 6896
  145.6236  139.2390  143.2124 H   0  0  0  0  0  0  0  0  0  0  0  0  # atno 7974 bound_to 7965
  156.1978  140.3058  155.9464 H   0  0  0  0  0  0  0  0  0  0  0  0  # atno 8008 bound_to 7997
  155.3024  140.0447  157.3047 H   0  0  0  0  0  0  0  0  0  0  0  0  # atno 8009 bound_to 7997
  154.5532  140.2298  155.8460 H   0  0  0  0  0  0  0  0  0  0  0  0  # atno 8010 bound_to 7997
  140.5472  143.2313  151.6979 H   0  0  0  0  0  0  0  0  0  0  0  0  # atno 10167 bound_to 10162
  156.3832  130.4360  149.7452 H   0  0  0  0  0  0  0  0  0  0  0  0  # atno 10718 bound_to 10713
  154.2870  135.6261  153.5369 H   0  0  0  0  0  0  0  0  0  0  0  0  # atno 10763 bound_to 10752
  152.9858  135.5646  154.5433 H   0  0  0  0  0  0  0  0  0  0  0  0  # atno 10764 bound_to 10752
  154.5035  135.2873  155.1377 H   0  0  0  0  0  0  0  0  0  0  0  0  # atno 10765 bound_to 10752
  141.1064  133.6613  156.4438 H   0  0  0  0  0  0  0  0  0  0  0  0  # atno 11005 bound_to 11000
  146.1412  140.7055  142.9366 LP  0  0  0  0  0  0  0  0  0  0  0  0  # atno 17320 bound_to 7965
  144.7221  140.4408  143.7000 LP  0  0  0  0  0  0  0  0  0  0  0  0  # atno 17321 bound_to 7965
  139.5012  144.3876  152.0313 LP  0  0  0  0  0  0  0  0  0  0  0  0  # atno 17342 bound_to 10162
  140.2990  144.3668  150.6066 LP  0  0  0  0  0  0  0  0  0  0  0  0  # atno 17343 bound_to 10162
  156.4534  130.7918  151.2939 LP  0  0  0  0  0  0  0  0  0  0  0  0  # atno 17370 bound_to 10713
  157.7494  131.0088  150.3243 LP  0  0  0  0  0  0  0  0  0  0  0  0  # atno 17371 bound_to 10713
  140.4892  134.6592  157.5203 LP  0  0  0  0  0  0  0  0  0  0  0  0  # atno 17394 bound_to 11000
  139.9936  134.6947  155.9648 LP  0  0  0  0  0  0  0  0  0  0  0  0  # atno 17395 bound_to 11000

$$$$
