AV-unprocessed.smi:2079|AV-procd|sdf|8486|dock8
  -GOLD-   2272011193D 1   1.00000     0.00000
 Structure written by MMmdl.
 41 42  0  0  0  0  0  0  0  0  3 V2000
  145.9443  133.6747  162.0740 C   0  0  0  0  0  0  0  0  0  0  0  0
  146.6524  134.8659  161.5262 C   0  0  0  0  0  0  0  0  0  0  0  0
  147.4934  135.0403  160.4636 C   0  0  0  0  0  0  0  0  0  0  0  0
  147.7954  136.4270  160.5167 C   0  0  0  0  0  0  0  0  0  0  0  0
  148.6625  137.0164  159.5589 N   0  0  0  0  0  0  0  0  0  0  0  0
  149.4627  136.4115  158.6623 C   0  0  0  0  0  0  0  0  0  0  0  0
  149.5132  135.1770  158.6020 O   0  0  0  0  0  0  0  0  0  0  0  0
  150.1455  137.3051  157.8937 N   0  5  0  0  0  0  0  0  0  0  0  0
  150.8567  138.4745  158.4078 C   0  0  0  0  0  0  0  0  0  0  0  0
  150.4661  139.7348  157.6094 C   0  0  0  0  0  0  0  0  0  0  0  0
  150.8069  140.9770  158.3602 N   0  3  1  0  0  0  0  0  0  0  0  0
  152.2726  141.0607  158.6197 C   0  0  0  0  0  0  0  0  0  0  0  0
  152.6338  142.2517  159.5158 C   0  0  0  0  0  0  0  0  0  0  0  0
  152.1470  143.5556  158.8835 C   0  0  0  0  0  0  0  0  0  0  0  0
  150.6389  143.4652  158.6364 C   0  0  0  0  0  0  0  0  0  0  0  0
  150.2551  142.2421  157.7728 C   0  0  2  0  0  0  0  0  0  0  0  0
  148.7183  142.2138  157.6280 C   0  0  0  0  0  0  0  0  0  0  0  0
  147.1926  137.0427  161.5231 N   0  0  0  0  0  0  0  0  0  0  0  0
  146.4568  136.0458  162.1742 O   0  0  0  0  0  0  0  0  0  0  0  0
  146.4104  132.7520  161.7278 H   0  0  0  0  0  0  0  0  0  0  0  0
  144.9016  133.6674  161.7570 H   0  0  0  0  0  0  0  0  0  0  0  0
  145.9678  133.6758  163.1639 H   0  0  0  0  0  0  0  0  0  0  0  0
  147.8360  134.2951  159.7616 H   0  0  0  0  0  0  0  0  0  0  0  0
  148.6811  138.0252  159.5507 H   0  0  0  0  0  0  0  0  0  0  0  0
  150.6242  138.6418  159.4598 H   0  0  0  0  0  0  0  0  0  0  0  0
  151.9396  138.3477  158.3690 H   0  0  0  0  0  0  0  0  0  0  0  0
  150.9845  139.7250  156.6489 H   0  0  0  0  0  0  0  0  0  0  0  0
  149.4093  139.7054  157.3462 H   0  0  0  0  0  0  0  0  0  0  0  0
  152.6104  140.1407  159.0994 H   0  0  0  0  0  0  0  0  0  0  0  0
  152.8051  141.1363  157.6700 H   0  0  0  0  0  0  0  0  0  0  0  0
  152.1849  142.1237  160.5018 H   0  0  0  0  0  0  0  0  0  0  0  0
  153.7130  142.2909  159.6670 H   0  0  0  0  0  0  0  0  0  0  0  0
  152.3730  144.3995  159.5361 H   0  0  0  0  0  0  0  0  0  0  0  0
  152.6700  143.7347  157.9432 H   0  0  0  0  0  0  0  0  0  0  0  0
  150.1227  143.4133  159.5964 H   0  0  0  0  0  0  0  0  0  0  0  0
  150.2973  144.3831  158.1561 H   0  0  0  0  0  0  0  0  0  0  0  0
  150.6936  142.3686  156.7814 H   0  0  0  0  0  0  0  0  0  0  0  0
  148.3455  143.1724  157.2663 H   0  0  0  0  0  0  0  0  0  0  0  0
  148.2348  142.0152  158.5850 H   0  0  0  0  0  0  0  0  0  0  0  0
  148.3725  141.4624  156.9194 H   0  0  0  0  0  0  0  0  0  0  0  0
  150.3678  140.8737  159.2638 H   0  0  0  0  0  0  0  0  0  0  0  0
  1  2  1  0  0  0  0
  1 20  1  0  0  0  0
  1 21  1  0  0  0  0
  1 22  1  0  0  0  0
  2 19  1  0  0  0  0
  2  3  2  0  0  0  0
  3  4  1  0  0  0  0
  3 23  1  0  0  0  0
  4  5  1  0  0  0  0
  4 18  2  0  0  0  0
  5  6  1  0  0  0  0
  5 24  1  0  0  0  0
  6  7  2  0  0  0  0
  6  8  1  0  0  0  0
  8  9  1  0  0  0  0
  9 10  1  0  0  0  0
  9 25  1  0  0  0  0
  9 26  1  0  0  0  0
 10 11  1  0  0  0  0
 10 27  1  0  0  0  0
 10 28  1  0  0  0  0
 11 16  1  0  0  0  0
 11 12  1  0  0  0  0
 11 41  1  0  0  0  0
 12 13  1  0  0  0  0
 12 29  1  0  0  0  0
 12 30  1  0  0  0  0
 13 14  1  0  0  0  0
 13 31  1  0  0  0  0
 13 32  1  0  0  0  0
 14 15  1  0  0  0  0
 14 33  1  0  0  0  0
 14 34  1  0  0  0  0
 15 16  1  0  0  0  0
 15 35  1  0  0  0  0
 15 36  1  0  0  0  0
 16 17  1  0  0  0  0
 16 37  1  0  0  0  0
 17 38  1  0  0  0  0
 17 39  1  0  0  0  0
 17 40  1  0  0  0  0
 18 19  1  0  0  0  0
M  CHG  1   8  -1
M  CHG  1  11   1
M  END
> <s_m_source_file>
AV-unprocessed.smi

> <i_m_source_file_index>
2079

> <i_lp_mmshare_version>
43012

> <i_f3d_flags>
0

> <s_epik_input>
W0NIM11jMVtjSF1jKG5vMSlbTkhdQyg9TylbTkhdW0NIMl1bQ0gyXU4yW0NIMl1bQ0gyXVtDSDJdW0NIMl1bQ0BIXTJbQ0gzXQ==

> <s_epik_cmdline>
J2VwaWtfcHl0aG9uJywgJy1waCcsICc3LjAnLCAnLXRuJywgJzgnLCAnLW1hJywgJzIwMCcsICctbWV0YWxfYmluZGluZycsICctaW1hZScsICc8aW5maWxlLm1hZT4nLCAnLW9tYWUnLCAnPG91dGZpbGUubWFlPic=

> <r_epik_Ionization_Penalty>
6.7666

> <r_epik_Ionization_Penalty_Charging>
6.7666

> <r_epik_Ionization_Penalty_Neutral>
5.77131e-06

> <r_epik_State_Penalty>
6.79217

> <r_epik_Charging_Adjusted_Penalty>
13.5588

> <i_epik_Tot_Q>
0

> <i_epik_Tot_abs_Q>
2

> <r_epik_Metal_State_Penalty>
2.72569

> <b_epik_Metal_Only>
1

> <s_lp_Force_Field>
OPLS_2005

> <r_lp_Energy>
14.3166

> <b_lp_Chiralities_Consistent>
1

> <s_lp_Variant>
AV-unprocessed.smi:2079-12

> <Gold.Version>
5.8.1

> <Gold.Id.Protein>
6NUR|6NUR_protein|mol2

> <Gold.PLP.Fitness>
38.3261

> <Gold.PLP.PLP>
-32.4537

> <Gold.PLP.part.hbond>
-3.0000

> <Gold.PLP.part.metal>
0.0000

> <Gold.PLP.part.buried>
-4.0715

> <Gold.PLP.part.nonpolar>
-25.3475

> <Gold.PLP.part.repulsive>
0.3678

> <Gold.PLP.ligand.clash>
0.0000

> <Gold.PLP.ligand.torsion>
0.5880

> <Gold.PLP.Chemscore.Hbond>
2.3344

> <Gold.PLP.Chemscore.CHOScore>
0.0000

> <Gold.PLP.Chemscore.Metal>
0.0000

> <Gold.Chemscore.Hbonds>
donor molecule, donor type, donor heavy atom, donor atom, acceptor molecule, acceptor atom, score
      P1  H  6896  6907       L1     7  1.00
      P1  H  6931  6943       L1    18  0.25
      P1  H  6934  6947       L1    18  0.92

> <Gold.PLP.Chemscore.Internal.Correction>
0.0452

> <Gold.Rescore>
     Score         DG    S(hbond)    S(metal)    S(lipo)     H(rot)  DE(clash)    DE(int)     intcor
     15.47     -17.50       1.89        0.00      82.46       1.54       0.06       1.96       ----

> <Gold.Chemscore.Fitness>
15.4686

> <Gold.Chemscore.DG>
-17.4952

> <Gold.Chemscore.ZeroCoef>
-5.4800

> <Gold.Chemscore.Hbond>
1.8897

> <Gold.Chemscore.Metal>
0.0000

> <Gold.Chemscore.Lipo>
82.4624

> <Gold.Chemscore.Internal_Hbond>
0.0000

> <Gold.Chemscore.DEClash>
0.0640

> <Gold.Chemscore.DEInternal>
1.9626

> <Gold.Chemscore.Rot>
1.5409

> <Gold.Chemscore.Internal.Correction>
   9.000000E+99

> <Gold.Chemscore.Hbonds>
donor molecule, donor type, donor heavy atom, donor atom, acceptor molecule, acceptor atom, score
      P1  H  6896  6907       L1     7  0.97
      P1  H  6931  6943       L1    18  0.01
      P1  H  6934  6947       L1    18  0.37

> <Gold.Chemscore.Hbond.Weighted>
-6.3117

> <Gold.Chemscore.Metal.Weighted>
-0.0000

> <Gold.Chemscore.Lipo.Weighted>
-9.6481

> <Gold.Chemscore.Internal_Hbond.Weighted>
0.0000

> <Gold.Chemscore.DEClash.Weighted>
0.0640

> <Gold.Chemscore.DEInternal.Weighted>
1.9626

> <Gold.Chemscore.Rot.Weighted>
3.9446

> <Gold.Chemscore.Internal.Correction.Weighted>
   9.000000E+99

> <Gold.Protein.RotatedTorsions>
[ 6907 6896 6895 6894 ] final  -85.74 input  -60.11 | X-H torsion
[ 7974 7965 7964 7962 ] final   85.54 input  175.53 | X-H torsion
[ 8008 7997 7996 7995 ] final   99.15 input   59.86 | X-H torsion
[ 10167 10162 10161 10158 ] final -148.16 input  -65.29 | X-H torsion
[ 10718 10713 10712 10709 ] final -126.23 input   66.30 | X-H torsion
[ 10763 10752 10751 10750 ] final -142.67 input  -60.55 | X-H torsion
[ 11005 11000 10999 10996 ] final  171.20 input  -57.11 | X-H torsion

> <Gold.Protein.ActiveResidues>
 VAL166  LYS551  ARG553  GLY616  TRP617  ASP618  TYR619  PRO620  LYS621  CYS622 
 ASP623  PHE694  ASN695  SER759  ASP760  ASP761  ALA762  ILE779  LEU786  VAL792 
 PHE793  MET794  SER795  GLU796  ALA797  LYS798  CYS799  TRP800  GLU811  SER814 

> <Gold.Protein.RotatedAtoms>
  150.6869  134.3158  159.4765 H   0  0  0  0  0  0  0  0  0  0  0  0  # atno 6907 bound_to 6896
  152.1039  134.9320  160.0578 H   0  0  0  0  0  0  0  0  0  0  0  0  # atno 6908 bound_to 6896
  152.0588  133.4018  159.4446 H   0  0  0  0  0  0  0  0  0  0  0  0  # atno 6909 bound_to 6896
  145.5842  139.2329  143.2336 H   0  0  0  0  0  0  0  0  0  0  0  0  # atno 7974 bound_to 7965
  156.1076  140.3233  155.8028 H   0  0  0  0  0  0  0  0  0  0  0  0  # atno 8008 bound_to 7997
  155.4728  140.0548  157.2994 H   0  0  0  0  0  0  0  0  0  0  0  0  # atno 8009 bound_to 7997
  154.4738  140.2023  155.9942 H   0  0  0  0  0  0  0  0  0  0  0  0  # atno 8010 bound_to 7997
  139.7556  143.8452  152.2596 H   0  0  0  0  0  0  0  0  0  0  0  0  # atno 10167 bound_to 10162
  156.1746  130.6691  151.0225 H   0  0  0  0  0  0  0  0  0  0  0  0  # atno 10718 bound_to 10713
  154.8500  135.3489  154.6065 H   0  0  0  0  0  0  0  0  0  0  0  0  # atno 10763 bound_to 10752
  153.6673  135.6986  153.5163 H   0  0  0  0  0  0  0  0  0  0  0  0  # atno 10764 bound_to 10752
  153.2770  135.4275  155.0999 H   0  0  0  0  0  0  0  0  0  0  0  0  # atno 10765 bound_to 10752
  140.3164  134.7474  157.4031 H   0  0  0  0  0  0  0  0  0  0  0  0  # atno 11005 bound_to 11000
  146.1694  140.6668  142.9240 LP  0  0  0  0  0  0  0  0  0  0  0  0  # atno 17320 bound_to 7965
  144.7380  140.4864  143.6889 LP  0  0  0  0  0  0  0  0  0  0  0  0  # atno 17321 bound_to 7965
  139.8444  144.7195  150.9291 LP  0  0  0  0  0  0  0  0  0  0  0  0  # atno 17342 bound_to 10162
  140.7802  143.3955  151.1237 LP  0  0  0  0  0  0  0  0  0  0  0  0  # atno 17343 bound_to 10162
  157.6827  131.0833  150.7327 LP  0  0  0  0  0  0  0  0  0  0  0  0  # atno 17370 bound_to 10713
  156.7386  130.4732  149.5483 LP  0  0  0  0  0  0  0  0  0  0  0  0  # atno 17371 bound_to 10713
  140.0979  134.5512  155.8380 LP  0  0  0  0  0  0  0  0  0  0  0  0  # atno 17394 bound_to 11000
  141.2096  133.6686  156.6454 LP  0  0  0  0  0  0  0  0  0  0  0  0  # atno 17395 bound_to 11000

$$$$
