AV-unprocessed.smi:2784|AV-procd|sdf|10726|dock1
  -GOLD-   2272015163D 1   1.00000     0.00000
 Structure written by MMmdl.
 31 32  0  0  0  0  0  0  0  0  1 V2000
  148.7115  145.2335  160.9189 C   0  0  0  0  0  0  0  0  0  0  0  0
  149.8868  145.5409  160.1858 O   0  0  0  0  0  0  0  0  0  0  0  0
  150.6174  144.3940  159.7734 C   0  0  2  0  0  0  0  0  0  0  0  0
  151.7026  144.0821  160.8077 C   0  0  0  0  0  0  0  0  0  0  0  0
  152.7986  143.3854  160.0092 C   0  0  0  0  0  0  0  0  0  0  0  0
  152.8167  144.1385  158.6796 C   0  0  0  0  0  0  0  0  0  0  0  0
  151.3668  144.6019  158.4369 C   0  0  1  0  0  0  0  0  0  0  0  0
  150.7419  143.8214  157.3717 N   0  0  0  0  0  0  0  0  0  0  0  0
  150.9033  142.5037  157.1850 C   0  0  0  0  0  0  0  0  0  0  0  0
  151.6001  141.7941  157.9111 O   0  0  0  0  0  0  0  0  0  0  0  0
  150.2097  142.0739  156.1178 N   0  0  0  0  0  0  0  0  0  0  0  0
  150.1570  140.7567  155.5964 C   0  0  0  0  0  0  0  0  0  0  0  0
  151.1875  140.0362  155.1513 N   0  0  0  0  0  0  0  0  0  0  0  0
  150.6251  138.8344  154.7461 C   0  0  0  0  0  0  0  0  0  0  0  0
  149.2740  138.8971  154.9715 C   0  0  0  0  0  0  0  0  0  0  0  0
  148.9613  140.1157  155.5119 O   0  0  0  0  0  0  0  0  0  0  0  0
  148.2227  146.1577  161.2267 H   0  0  0  0  0  0  0  0  0  0  0  0
  148.9454  144.6628  161.8184 H   0  0  0  0  0  0  0  0  0  0  0  0
  148.0000  144.6646  160.3199 H   0  0  0  0  0  0  0  0  0  0  0  0
  149.9543  143.5280  159.7154 H   0  0  0  0  0  0  0  0  0  0  0  0
  152.0975  145.0095  161.2254 H   0  0  0  0  0  0  0  0  0  0  0  0
  151.3321  143.4769  161.6354 H   0  0  0  0  0  0  0  0  0  0  0  0
  153.7641  143.4020  160.5153 H   0  0  0  0  0  0  0  0  0  0  0  0
  152.5259  142.3429  159.8402 H   0  0  0  0  0  0  0  0  0  0  0  0
  153.4608  145.0140  158.7728 H   0  0  0  0  0  0  0  0  0  0  0  0
  153.2217  143.5305  157.8694 H   0  0  0  0  0  0  0  0  0  0  0  0
  151.3724  145.6617  158.1744 H   0  0  0  0  0  0  0  0  0  0  0  0
  150.1493  144.3255  156.7286 H   0  0  0  0  0  0  0  0  0  0  0  0
  149.6677  142.7635  155.6187 H   0  0  0  0  0  0  0  0  0  0  0  0
  151.2240  138.0365  154.3325 H   0  0  0  0  0  0  0  0  0  0  0  0
  148.4551  138.2109  154.8135 H   0  0  0  0  0  0  0  0  0  0  0  0
  1  2  1  0  0  0  0
  1 17  1  0  0  0  0
  1 18  1  0  0  0  0
  1 19  1  0  0  0  0
  2  3  1  0  0  0  0
  3  7  1  0  0  0  0
  3  4  1  0  0  0  0
  3 20  1  0  0  0  0
  4  5  1  0  0  0  0
  4 21  1  0  0  0  0
  4 22  1  0  0  0  0
  5  6  1  0  0  0  0
  5 23  1  0  0  0  0
  5 24  1  0  0  0  0
  6  7  1  0  0  0  0
  6 25  1  0  0  0  0
  6 26  1  0  0  0  0
  7  8  1  0  0  0  0
  7 27  1  0  0  0  0
  8  9  1  0  0  0  0
  8 28  1  0  0  0  0
  9 10  2  0  0  0  0
  9 11  1  0  0  0  0
 11 12  1  0  0  0  0
 11 29  1  0  0  0  0
 12 16  1  0  0  0  0
 12 13  2  0  0  0  0
 13 14  1  0  0  0  0
 14 15  2  0  0  0  0
 14 30  1  0  0  0  0
 15 16  1  0  0  0  0
 15 31  1  0  0  0  0
M  END
> <s_m_source_file>
AV-unprocessed.smi

> <i_m_source_file_index>
2784

> <i_lp_mmshare_version>
43012

> <i_f3d_flags>
0

> <s_epik_input>
W0NIM11PW0NAQEhdMVtDSDJdW0NIMl1bQ0gyXVtDQEhdMVtOSF1DKD1PKVtOSF1jMm5bY0hdW2NIXW8y

> <s_epik_cmdline>
J2VwaWtfcHl0aG9uJywgJy1waCcsICc3LjAnLCAnLXRuJywgJzgnLCAnLW1hJywgJzIwMCcsICctbWV0YWxfYmluZGluZycsICctaW1hZScsICc8aW5maWxlLm1hZT4nLCAnLW9tYWUnLCAnPG91dGZpbGUubWFlPic=

> <r_lp_tautomer_probability>
0.785861

> <r_epik_Ionization_Penalty>
4.58897e-05

> <r_epik_Ionization_Penalty_Charging>
0

> <r_epik_Ionization_Penalty_Neutral>
4.58897e-05

> <r_epik_State_Penalty>
0.0380021

> <r_epik_Charging_Adjusted_Penalty>
0.0380021

> <i_epik_Tot_Q>
0

> <i_epik_Tot_abs_Q>
0

> <r_epik_Metal_State_Penalty>
0.0585611

> <b_epik_Metal_Only>
0

> <s_lp_Force_Field>
OPLS_2005

> <r_lp_Energy>
17.9939

> <b_lp_Chiralities_Consistent>
1

> <s_lp_Variant>
AV-unprocessed.smi:2784-1

> <Gold.Version>
5.8.1

> <Gold.Id.Protein>
6NUR|6NUR_protein|mol2

> <Gold.PLP.Fitness>
43.4075

> <Gold.PLP.PLP>
-37.1238

> <Gold.PLP.part.hbond>
-4.0000

> <Gold.PLP.part.metal>
0.0000

> <Gold.PLP.part.buried>
-6.4514

> <Gold.PLP.part.nonpolar>
-28.7813

> <Gold.PLP.part.repulsive>
0.5108

> <Gold.PLP.ligand.clash>
0.0000

> <Gold.PLP.ligand.torsion>
1.2541

> <Gold.PLP.Chemscore.Hbond>
2.9280

> <Gold.PLP.Chemscore.CHOScore>
0.0000

> <Gold.PLP.Chemscore.Metal>
0.0000

> <Gold.Chemscore.Hbonds>
donor molecule, donor type, donor heavy atom, donor atom, acceptor molecule, acceptor atom, score
      L1  H     8    28       P1  8028  1.00
      L1  H    11    29       P1  8028  0.74
      P1  H  7989  7998       L1    13  1.00

> <Gold.PLP.Chemscore.Internal.Correction>
0.0078

> <Gold.Rescore>
     Score         DG    S(hbond)    S(metal)    S(lipo)     H(rot)  DE(clash)    DE(int)     intcor
     13.90     -17.52       1.85        0.00      78.93       1.32       0.00       3.62       ----

> <Gold.Chemscore.Fitness>
13.8995

> <Gold.Chemscore.DG>
-17.5206

> <Gold.Chemscore.ZeroCoef>
-5.4800

> <Gold.Chemscore.Hbond>
1.8545

> <Gold.Chemscore.Metal>
0.0000

> <Gold.Chemscore.Lipo>
78.9288

> <Gold.Chemscore.Internal_Hbond>
0.0000

> <Gold.Chemscore.DEClash>
0.0000

> <Gold.Chemscore.DEInternal>
3.6211

> <Gold.Chemscore.Rot>
1.3235

> <Gold.Chemscore.Internal.Correction>
   9.000000E+99

> <Gold.Chemscore.Hbonds>
donor molecule, donor type, donor heavy atom, donor atom, acceptor molecule, acceptor atom, score
      L1  H     8    28       P1  8028  0.96
      L1  H    11    29       P1  8028  0.72
      P1  H  7989  7998       L1    13  0.18

> <Gold.Chemscore.Hbond.Weighted>
-6.1941

> <Gold.Chemscore.Metal.Weighted>
-0.0000

> <Gold.Chemscore.Lipo.Weighted>
-9.2347

> <Gold.Chemscore.Internal_Hbond.Weighted>
0.0000

> <Gold.Chemscore.DEClash.Weighted>
0.0000

> <Gold.Chemscore.DEInternal.Weighted>
3.6211

> <Gold.Chemscore.Rot.Weighted>
3.3882

> <Gold.Chemscore.Internal.Correction.Weighted>
   9.000000E+99

> <Gold.Protein.RotatedTorsions>
[ 6907 6896 6895 6894 ] final  136.84 input  -60.11 | X-H torsion
[ 7974 7965 7964 7962 ] final -152.24 input  175.53 | X-H torsion
[ 8008 7997 7996 7995 ] final -105.00 input   59.86 | X-H torsion
[ 10167 10162 10161 10158 ] final   70.37 input  -65.29 | X-H torsion
[ 10718 10713 10712 10709 ] final  124.42 input   66.30 | X-H torsion
[ 10763 10752 10751 10750 ] final -127.81 input  -60.55 | X-H torsion
[ 11005 11000 10999 10996 ] final -102.87 input  -57.11 | X-H torsion

> <Gold.Protein.ActiveResidues>
 VAL166  LYS551  ARG553  GLY616  TRP617  ASP618  TYR619  PRO620  LYS621  CYS622 
 ASP623  PHE694  ASN695  SER759  ASP760  ASP761  ALA762  ILE779  LEU786  VAL792 
 PHE793  MET794  SER795  GLU796  ALA797  LYS798  CYS799  TRP800  GLU811  SER814 

> <Gold.Protein.RotatedAtoms>
  152.2848  133.5504  159.5519 H   0  0  0  0  0  0  0  0  0  0  0  0  # atno 6907 bound_to 6896
  150.7210  134.0513  159.3808 H   0  0  0  0  0  0  0  0  0  0  0  0  # atno 6908 bound_to 6896
  151.8422  135.0586  160.0500 H   0  0  0  0  0  0  0  0  0  0  0  0  # atno 6909 bound_to 6896
  144.7805  140.4688  143.5843 H   0  0  0  0  0  0  0  0  0  0  0  0  # atno 7974 bound_to 7965
  154.8934  140.0415  157.1852 H   0  0  0  0  0  0  0  0  0  0  0  0  # atno 8008 bound_to 7997
  154.8517  140.2930  155.5573 H   0  0  0  0  0  0  0  0  0  0  0  0  # atno 8009 bound_to 7997
  156.2996  140.2463  156.3477 H   0  0  0  0  0  0  0  0  0  0  0  0  # atno 8010 bound_to 7997
  140.0577  144.5259  150.7317 H   0  0  0  0  0  0  0  0  0  0  0  0  # atno 10167 bound_to 10162
  157.5586  131.1090  150.8577 H   0  0  0  0  0  0  0  0  0  0  0  0  # atno 10718 bound_to 10713
  154.8754  135.3949  154.3654 H   0  0  0  0  0  0  0  0  0  0  0  0  # atno 10763 bound_to 10752
  153.4420  135.7027  153.6168 H   0  0  0  0  0  0  0  0  0  0  0  0  # atno 10764 bound_to 10752
  153.4744  135.3783  155.2378 H   0  0  0  0  0  0  0  0  0  0  0  0  # atno 10765 bound_to 10752
  141.1170  133.8594  157.1415 H   0  0  0  0  0  0  0  0  0  0  0  0  # atno 11005 bound_to 11000
  145.6064  139.1509  143.3100 LP  0  0  0  0  0  0  0  0  0  0  0  0  # atno 17320 bound_to 7965
  146.2010  140.6183  142.9102 LP  0  0  0  0  0  0  0  0  0  0  0  0  # atno 17321 bound_to 7965
  140.7187  143.2568  151.4351 LP  0  0  0  0  0  0  0  0  0  0  0  0  # atno 17342 bound_to 10162
  139.5913  144.1493  152.2091 LP  0  0  0  0  0  0  0  0  0  0  0  0  # atno 17343 bound_to 10162
  156.9081  130.5271  149.5281 LP  0  0  0  0  0  0  0  0  0  0  0  0  # atno 17370 bound_to 10713
  156.0642  130.5688  150.9254 LP  0  0  0  0  0  0  0  0  0  0  0  0  # atno 17371 bound_to 10713
  140.0100  134.9992  157.0374 LP  0  0  0  0  0  0  0  0  0  0  0  0  # atno 17394 bound_to 11000
  140.4616  134.1478  155.7192 LP  0  0  0  0  0  0  0  0  0  0  0  0  # atno 17395 bound_to 11000

$$$$
