AV-unprocessed.smi:3166|AV-procd|sdf|12096|dock1
  -GOLD-   2272017533D 1   1.00000     0.00000
 Structure written by MMmdl.
 40 41  0  0  0  0  0  0  0  0  1 V2000
  147.4654  141.7422  155.6402 C   0  0  0  0  0  0  0  0  0  0  0  0
  148.6721  140.8019  155.7881 C   0  0  1  0  0  0  0  0  0  0  0  0
  149.0284  140.0831  154.4624 C   0  0  0  0  0  0  0  0  0  0  0  0
  150.2407  139.2825  154.5373 N   0  0  0  0  0  0  0  0  0  0  0  0
  150.3913  137.9319  154.3001 C   0  0  0  0  0  0  0  0  0  0  0  0
  151.7088  137.6287  154.4896 C   0  0  0  0  0  0  0  0  0  0  0  0
  152.2946  138.8765  154.8422 C   0  0  0  0  0  0  0  0  0  0  0  0
  151.4153  139.8648  154.8654 N   0  0  0  0  0  0  0  0  0  0  0  0
  149.8006  141.5477  156.3557 N   0  0  0  0  0  0  0  0  0  0  0  0
  149.4921  142.3746  157.5249 C   0  0  0  0  0  0  0  0  0  0  0  0
  150.7472  143.0651  158.1049 C   0  0  0  0  0  0  0  0  0  0  0  0
  151.3111  143.8453  157.0656 O   0  0  0  0  0  0  0  0  0  0  0  0
  150.3244  144.0314  159.2371 C   0  0  0  0  0  0  0  0  0  0  0  0
  151.5200  144.6985  159.9407 C   0  0  0  0  0  0  0  0  0  0  0  0
  152.5095  143.6512  160.4692 C   0  0  0  0  0  0  0  0  0  0  0  0
  152.9825  142.7262  159.3396 C   0  0  0  0  0  0  0  0  0  0  0  0
  151.7950  142.0505  158.6306 C   0  0  0  0  0  0  0  0  0  0  0  0
  146.6045  141.2124  155.2321 H   0  0  0  0  0  0  0  0  0  0  0  0
  147.6844  142.5813  154.9790 H   0  0  0  0  0  0  0  0  0  0  0  0
  147.1696  142.1536  156.6057 H   0  0  0  0  0  0  0  0  0  0  0  0
  148.3818  140.0307  156.5026 H   0  0  0  0  0  0  0  0  0  0  0  0
  148.2133  139.4450  154.1222 H   0  0  0  0  0  0  0  0  0  0  0  0
  149.1585  140.8273  153.6749 H   0  0  0  0  0  0  0  0  0  0  0  0
  149.5568  137.3059  154.0212 H   0  0  0  0  0  0  0  0  0  0  0  0
  152.1821  136.6631  154.3914 H   0  0  0  0  0  0  0  0  0  0  0  0
  153.3262  139.0925  155.0784 H   0  0  0  0  0  0  0  0  0  0  0  0
  150.2186  142.1303  155.6370 H   0  0  0  0  0  0  0  0  0  0  0  0
  148.7500  143.1294  157.2613 H   0  0  0  0  0  0  0  0  0  0  0  0
  149.0424  141.7610  158.3045 H   0  0  0  0  0  0  0  0  0  0  0  0
  150.6182  144.3390  156.6542 H   0  0  0  0  0  0  0  0  0  0  0  0
  149.6525  144.7986  158.8492 H   0  0  0  0  0  0  0  0  0  0  0  0
  149.7500  143.4798  159.9828 H   0  0  0  0  0  0  0  0  0  0  0  0
  152.0303  145.3704  159.2496 H   0  0  0  0  0  0  0  0  0  0  0  0
  151.1642  145.3192  160.7636 H   0  0  0  0  0  0  0  0  0  0  0  0
  153.3656  144.1459  160.9290 H   0  0  0  0  0  0  0  0  0  0  0  0
  152.0350  143.0597  161.2533 H   0  0  0  0  0  0  0  0  0  0  0  0
  153.5666  143.2984  158.6178 H   0  0  0  0  0  0  0  0  0  0  0  0
  153.6532  141.9659  159.7409 H   0  0  0  0  0  0  0  0  0  0  0  0
  151.3113  141.3682  159.3308 H   0  0  0  0  0  0  0  0  0  0  0  0
  152.1735  141.4300  157.8177 H   0  0  0  0  0  0  0  0  0  0  0  0
  1  2  1  0  0  0  0
  1 18  1  0  0  0  0
  1 19  1  0  0  0  0
  1 20  1  0  0  0  0
  2  3  1  0  0  0  0
  2  9  1  0  0  0  0
  2 21  1  0  0  0  0
  3  4  1  0  0  0  0
  3 22  1  0  0  0  0
  3 23  1  0  0  0  0
  4  8  1  0  0  0  0
  4  5  1  0  0  0  0
  5  6  2  0  0  0  0
  5 24  1  0  0  0  0
  6  7  1  0  0  0  0
  6 25  1  0  0  0  0
  7  8  2  0  0  0  0
  7 26  1  0  0  0  0
  9 10  1  0  0  0  0
  9 27  1  0  0  0  0
 10 11  1  0  0  0  0
 10 28  1  0  0  0  0
 10 29  1  0  0  0  0
 11 17  1  0  0  0  0
 11 12  1  0  0  0  0
 11 13  1  0  0  0  0
 12 30  1  0  0  0  0
 13 14  1  0  0  0  0
 13 31  1  0  0  0  0
 13 32  1  0  0  0  0
 14 15  1  0  0  0  0
 14 33  1  0  0  0  0
 14 34  1  0  0  0  0
 15 16  1  0  0  0  0
 15 35  1  0  0  0  0
 15 36  1  0  0  0  0
 16 17  1  0  0  0  0
 16 37  1  0  0  0  0
 16 38  1  0  0  0  0
 17 39  1  0  0  0  0
 17 40  1  0  0  0  0
M  END
> <s_m_source_file>
AV-unprocessed.smi

> <i_m_source_file_index>
3166

> <i_lp_mmshare_version>
43012

> <i_f3d_flags>
0

> <s_epik_input>
bjFbY0hdW2NIXVtjSF1uMVtDSDJdW0NAQEhdKFtDSDNdKVtOSF1bQ0gyXUMyKFtPSF0pW0NIMl1bQ0gyXVtDSDJdW0NIMl1bQ0gyXTI=

> <s_epik_cmdline>
J2VwaWtfcHl0aG9uJywgJy1waCcsICc3LjAnLCAnLXRuJywgJzgnLCAnLW1hJywgJzIwMCcsICctbWV0YWxfYmluZGluZycsICctaW1hZScsICc8aW5maWxlLm1hZT4nLCAnLW9tYWUnLCAnPG91dGZpbGUubWFlPic=

> <r_lp_tautomer_probability>
1

> <r_epik_Ionization_Penalty>
2.35964

> <r_epik_Ionization_Penalty_Charging>
0

> <r_epik_Ionization_Penalty_Neutral>
2.35964

> <r_epik_State_Penalty>
2.51455

> <r_epik_Charging_Adjusted_Penalty>
2.51455

> <i_epik_Tot_Q>
0

> <i_epik_Tot_abs_Q>
0

> <r_epik_Metal_State_Penalty>
2.51451

> <b_epik_Metal_Only>
0

> <s_lp_Force_Field>
OPLS_2005

> <r_lp_Energy>
22.3921

> <b_lp_Chiralities_Consistent>
1

> <s_lp_Variant>
AV-unprocessed.smi:3166-4

> <Gold.Version>
5.8.1

> <Gold.Id.Protein>
6NUR|6NUR_protein|mol2

> <Gold.PLP.Fitness>
46.2044

> <Gold.PLP.PLP>
-37.3702

> <Gold.PLP.part.hbond>
-2.0000

> <Gold.PLP.part.metal>
0.0000

> <Gold.PLP.part.buried>
-4.1499

> <Gold.PLP.part.nonpolar>
-32.0890

> <Gold.PLP.part.repulsive>
0.0612

> <Gold.PLP.ligand.clash>
0.0000

> <Gold.PLP.ligand.torsion>
0.1000

> <Gold.PLP.Chemscore.Hbond>
2.0000

> <Gold.PLP.Chemscore.CHOScore>
1.0000

> <Gold.PLP.Chemscore.Metal>
0.0000

> <Gold.Chemscore.Hbonds>
donor molecule, donor type, donor heavy atom, donor atom, acceptor molecule, acceptor atom, score
      L1  H    12    30       P1  8028  1.00
      P1  H  7989  7998       L1     8  1.00
      L1  C     5    24       P1  7948  1.00

> <Gold.PLP.Chemscore.Internal.Correction>
0.0342

> <Gold.Rescore>
     Score         DG    S(hbond)    S(metal)    S(lipo)     H(rot)  DE(clash)    DE(int)     intcor
     18.17     -18.57       1.89        0.00     104.34       2.12       0.18       0.22       ----

> <Gold.Chemscore.Fitness>
18.1734

> <Gold.Chemscore.DG>
-18.5744

> <Gold.Chemscore.ZeroCoef>
-5.4800

> <Gold.Chemscore.Hbond>
1.8910

> <Gold.Chemscore.Metal>
0.0000

> <Gold.Chemscore.Lipo>
104.3425

> <Gold.Chemscore.Internal_Hbond>
0.0000

> <Gold.Chemscore.DEClash>
0.1830

> <Gold.Chemscore.DEInternal>
0.2180

> <Gold.Chemscore.Rot>
2.1209

> <Gold.Chemscore.Internal.Correction>
   9.000000E+99

> <Gold.Chemscore.Hbonds>
donor molecule, donor type, donor heavy atom, donor atom, acceptor molecule, acceptor atom, score
      L1  H    12    30       P1  8028  0.95
      P1  H  7989  7998       L1     8  0.18

> <Gold.Chemscore.Hbond.Weighted>
-6.3160

> <Gold.Chemscore.Metal.Weighted>
-0.0000

> <Gold.Chemscore.Lipo.Weighted>
-12.2081

> <Gold.Chemscore.Internal_Hbond.Weighted>
0.0000

> <Gold.Chemscore.DEClash.Weighted>
0.1830

> <Gold.Chemscore.DEInternal.Weighted>
0.2180

> <Gold.Chemscore.Rot.Weighted>
5.4296

> <Gold.Chemscore.Internal.Correction.Weighted>
   9.000000E+99

> <Gold.Protein.RotatedTorsions>
[ 6907 6896 6895 6894 ] final   11.62 input  -60.11 | X-H torsion
[ 7974 7965 7964 7962 ] final  -32.50 input  175.53 | X-H torsion
[ 8008 7997 7996 7995 ] final   53.69 input   59.86 | X-H torsion
[ 10167 10162 10161 10158 ] final -140.95 input  -65.29 | X-H torsion
[ 10718 10713 10712 10709 ] final    4.18 input   66.30 | X-H torsion
[ 10763 10752 10751 10750 ] final  -27.34 input  -60.55 | X-H torsion
[ 11005 11000 10999 10996 ] final  -28.38 input  -57.11 | X-H torsion

> <Gold.Protein.ActiveResidues>
 VAL166  LYS551  ARG553  GLY616  TRP617  ASP618  TYR619  PRO620  LYS621  CYS622 
 ASP623  PHE694  ASN695  SER759  ASP760  ASP761  ALA762  ILE779  LEU786  VAL792 
 PHE793  MET794  SER795  GLU796  ALA797  LYS798  CYS799  TRP800  GLU811  SER814 

> <Gold.Protein.RotatedAtoms>
  151.7572  135.0818  160.0339 H   0  0  0  0  0  0  0  0  0  0  0  0  # atno 6907 bound_to 6896
  152.3377  133.6026  159.5862 H   0  0  0  0  0  0  0  0  0  0  0  0  # atno 6908 bound_to 6896
  150.7460  133.9687  159.3580 H   0  0  0  0  0  0  0  0  0  0  0  0  # atno 6909 bound_to 6896
  146.0985  140.5800  142.8832 H   0  0  0  0  0  0  0  0  0  0  0  0  # atno 7974 bound_to 7965
  155.4724  140.3465  155.4327 H   0  0  0  0  0  0  0  0  0  0  0  0  # atno 8008 bound_to 7997
  156.1092  140.1456  156.9391 H   0  0  0  0  0  0  0  0  0  0  0  0  # atno 8009 bound_to 7997
  154.4745  140.0890  156.7205 H   0  0  0  0  0  0  0  0  0  0  0  0  # atno 8010 bound_to 7997
  139.8232  143.7546  152.2666 H   0  0  0  0  0  0  0  0  0  0  0  0  # atno 10167 bound_to 10162
  156.8889  130.5680  149.5650 H   0  0  0  0  0  0  0  0  0  0  0  0  # atno 10718 bound_to 10713
  153.7306  135.6939  153.4990 H   0  0  0  0  0  0  0  0  0  0  0  0  # atno 10763 bound_to 10752
  153.2139  135.4393  155.0410 H   0  0  0  0  0  0  0  0  0  0  0  0  # atno 10764 bound_to 10752
  154.8254  135.3443  154.6836 H   0  0  0  0  0  0  0  0  0  0  0  0  # atno 10765 bound_to 10752
  140.9203  133.7403  156.0792 H   0  0  0  0  0  0  0  0  0  0  0  0  # atno 11005 bound_to 11000
  144.7414  140.4951  143.6867 LP  0  0  0  0  0  0  0  0  0  0  0  0  # atno 17320 bound_to 7965
  145.5902  139.1495  143.3187 LP  0  0  0  0  0  0  0  0  0  0  0  0  # atno 17321 bound_to 7965
  139.7730  144.7470  151.0196 LP  0  0  0  0  0  0  0  0  0  0  0  0  # atno 17342 bound_to 10162
  140.7812  143.4624  151.0260 LP  0  0  0  0  0  0  0  0  0  0  0  0  # atno 17343 bound_to 10162
  156.0639  130.5686  150.9249 LP  0  0  0  0  0  0  0  0  0  0  0  0  # atno 17370 bound_to 10713
  157.6096  131.0937  150.8819 LP  0  0  0  0  0  0  0  0  0  0  0  0  # atno 17371 bound_to 10713
  140.7997  134.3523  157.5443 LP  0  0  0  0  0  0  0  0  0  0  0  0  # atno 17394 bound_to 11000
  139.8774  134.9190  156.3216 LP  0  0  0  0  0  0  0  0  0  0  0  0  # atno 17395 bound_to 11000

$$$$
