AV-unprocessed.smi:2790|AV-procd|sdf|10767|dock8
  -GOLD-   2272015203D 1   1.00000     0.00000
 Structure written by MMmdl.
 47 48  0  0  0  0  0  0  0  0  3 V2000
  147.1236  134.1940  154.4615 C   0  0  0  0  0  0  0  0  0  0  0  0
  148.5627  134.5071  154.2981 N   0  3  0  0  0  0  0  0  0  0  0  0
  149.3300  133.3288  153.8391 C   0  0  0  0  0  0  0  0  0  0  0  0
  149.1633  135.1359  155.5027 C   0  0  0  0  0  0  0  0  0  0  0  0
  150.1309  136.2758  155.1685 C   0  0  0  0  0  0  0  0  0  0  0  0
  151.2419  136.0335  154.6964 O   0  0  0  0  0  0  0  0  0  0  0  0
  149.6940  137.5170  155.4310 N   0  0  0  0  0  0  0  0  0  0  0  0
  150.4440  138.7512  155.1965 C   0  0  0  0  0  0  0  0  0  0  0  0
  149.7730  140.0100  155.8258 C   0  0  0  0  0  0  0  0  0  0  0  0
  148.4546  140.3000  155.0712 C   0  0  0  0  0  0  0  0  0  0  0  0
  148.2834  141.5403  154.4050 C   0  0  0  0  0  0  0  0  0  0  0  0
  147.0864  141.8142  153.7136 C   0  0  0  0  0  0  0  0  0  0  0  0
  146.0988  140.8964  153.6917 N   0  3  0  0  0  0  0  0  0  0  0  0
  146.2005  139.7051  154.3160 C   0  0  0  0  0  0  0  0  0  0  0  0
  147.3752  139.3776  155.0236 C   0  0  0  0  0  0  0  0  0  0  0  0
  149.4404  139.7378  157.3227 C   0  0  0  0  0  0  0  0  0  0  0  0
  150.6746  139.5974  158.2336 C   0  0  0  0  0  0  0  0  0  0  0  0
  151.5880  140.8239  158.1362 C   0  0  0  0  0  0  0  0  0  0  0  0
  151.9863  141.0909  156.6810 C   0  0  0  0  0  0  0  0  0  0  0  0
  150.7440  141.2327  155.7830 C   0  0  0  0  0  0  0  0  0  0  0  0
  146.9722  133.4510  155.2456 H   0  0  0  0  0  0  0  0  0  0  0  0
  146.7104  133.7980  153.5332 H   0  0  0  0  0  0  0  0  0  0  0  0
  146.5503  135.0843  154.7213 H   0  0  0  0  0  0  0  0  0  0  0  0
  149.3346  132.5450  154.5980 H   0  0  0  0  0  0  0  0  0  0  0  0
  150.3632  133.6012  153.6211 H   0  0  0  0  0  0  0  0  0  0  0  0
  148.8984  132.9187  152.9254 H   0  0  0  0  0  0  0  0  0  0  0  0
  148.3763  135.4872  156.1727 H   0  0  0  0  0  0  0  0  0  0  0  0
  149.7373  134.3910  156.0560 H   0  0  0  0  0  0  0  0  0  0  0  0
  148.7727  137.6182  155.8321 H   0  0  0  0  0  0  0  0  0  0  0  0
  151.4301  138.6013  155.6368 H   0  0  0  0  0  0  0  0  0  0  0  0
  150.6345  138.8849  154.1321 H   0  0  0  0  0  0  0  0  0  0  0  0
  149.0615  142.2888  154.4178 H   0  0  0  0  0  0  0  0  0  0  0  0
  146.8914  142.7343  153.1819 H   0  0  0  0  0  0  0  0  0  0  0  0
  145.3440  139.0522  154.2320 H   0  0  0  0  0  0  0  0  0  0  0  0
  147.4169  138.4177  155.5140 H   0  0  0  0  0  0  0  0  0  0  0  0
  148.8296  140.5573  157.7050 H   0  0  0  0  0  0  0  0  0  0  0  0
  148.8329  138.8394  157.4302 H   0  0  0  0  0  0  0  0  0  0  0  0
  150.3530  139.4641  159.2669 H   0  0  0  0  0  0  0  0  0  0  0  0
  151.2343  138.6984  157.9757 H   0  0  0  0  0  0  0  0  0  0  0  0
  151.0731  141.6963  158.5408 H   0  0  0  0  0  0  0  0  0  0  0  0
  152.4784  140.6777  158.7482 H   0  0  0  0  0  0  0  0  0  0  0  0
  152.5815  142.0030  156.6283 H   0  0  0  0  0  0  0  0  0  0  0  0
  152.6326  140.2915  156.3201 H   0  0  0  0  0  0  0  0  0  0  0  0
  151.0670  141.4413  154.7631 H   0  0  0  0  0  0  0  0  0  0  0  0
  150.2132  142.1239  156.1216 H   0  0  0  0  0  0  0  0  0  0  0  0
  148.6304  135.1928  153.5587 H   0  0  0  0  0  0  0  0  0  0  0  0
  145.2404  141.1123  153.1836 H   0  0  0  0  0  0  0  0  0  0  0  0
  1  2  1  0  0  0  0
  1 21  1  0  0  0  0
  1 22  1  0  0  0  0
  1 23  1  0  0  0  0
  2  3  1  0  0  0  0
  2  4  1  0  0  0  0
  2 46  1  0  0  0  0
  3 24  1  0  0  0  0
  3 25  1  0  0  0  0
  3 26  1  0  0  0  0
  4  5  1  0  0  0  0
  4 27  1  0  0  0  0
  4 28  1  0  0  0  0
  5  6  2  0  0  0  0
  5  7  1  0  0  0  0
  7  8  1  0  0  0  0
  7 29  1  0  0  0  0
  8  9  1  0  0  0  0
  8 30  1  0  0  0  0
  8 31  1  0  0  0  0
  9 20  1  0  0  0  0
  9 10  1  0  0  0  0
  9 16  1  0  0  0  0
 10 15  1  0  0  0  0
 10 11  2  0  0  0  0
 11 12  1  0  0  0  0
 11 32  1  0  0  0  0
 12 13  2  0  0  0  0
 12 33  1  0  0  0  0
 13 14  1  0  0  0  0
 13 47  1  0  0  0  0
 14 15  2  0  0  0  0
 14 34  1  0  0  0  0
 15 35  1  0  0  0  0
 16 17  1  0  0  0  0
 16 36  1  0  0  0  0
 16 37  1  0  0  0  0
 17 18  1  0  0  0  0
 17 38  1  0  0  0  0
 17 39  1  0  0  0  0
 18 19  1  0  0  0  0
 18 40  1  0  0  0  0
 18 41  1  0  0  0  0
 19 20  1  0  0  0  0
 19 42  1  0  0  0  0
 19 43  1  0  0  0  0
 20 44  1  0  0  0  0
 20 45  1  0  0  0  0
M  CHG  1   2   1
M  CHG  1  13   1
M  END
> <s_m_source_file>
AV-unprocessed.smi

> <i_m_source_file_index>
2790

> <i_lp_mmshare_version>
43012

> <i_f3d_flags>
0

> <s_epik_input>
W0NIM11OKFtDSDNdKVtDSDJdQyg9TylbTkhdW0NIMl1DMShbQ0gyXVtDSDJdW0NIMl1bQ0gyXVtDSDJdMSljMltjSF1bY0hdbltjSF1bY0hdMg==

> <s_epik_cmdline>
J2VwaWtfcHl0aG9uJywgJy1waCcsICc3LjAnLCAnLXRuJywgJzgnLCAnLW1hJywgJzIwMCcsICctbWV0YWxfYmluZGluZycsICctaW1hZScsICc8aW5maWxlLm1hZT4nLCAnLW9tYWUnLCAnPG91dGZpbGUubWFlPic=

> <r_epik_Ionization_Penalty>
1.49613

> <r_epik_Ionization_Penalty_Charging>
1.4961

> <r_epik_Ionization_Penalty_Neutral>
2.84587e-05

> <r_epik_State_Penalty>
1.54102

> <r_epik_Charging_Adjusted_Penalty>
3.03712

> <i_epik_Tot_Q>
2

> <i_epik_Tot_abs_Q>
2

> <r_epik_Metal_State_Penalty>
1.62888

> <b_epik_Metal_Only>
0

> <s_lp_Force_Field>
OPLS_2005

> <r_lp_Energy>
33.1663

> <b_lp_Chiralities_Consistent>
1

> <s_lp_Variant>
AV-unprocessed.smi:2790-2

> <Gold.Version>
5.8.1

> <Gold.Id.Protein>
6NUR|6NUR_protein|mol2

> <Gold.PLP.Fitness>
40.2623

> <Gold.PLP.PLP>
-26.8276

> <Gold.PLP.part.hbond>
-3.0000

> <Gold.PLP.part.metal>
0.0000

> <Gold.PLP.part.buried>
-5.7898

> <Gold.PLP.part.nonpolar>
-18.7063

> <Gold.PLP.part.repulsive>
0.1746

> <Gold.PLP.ligand.clash>
0.0000

> <Gold.PLP.ligand.torsion>
0.7793

> <Gold.PLP.Chemscore.Hbond>
4.9840

> <Gold.PLP.Chemscore.CHOScore>
0.0000

> <Gold.PLP.Chemscore.Metal>
0.0000

> <Gold.Chemscore.Hbonds>
donor molecule, donor type, donor heavy atom, donor atom, acceptor molecule, acceptor atom, score
      L1  H     2    46       P1  7948  2.00
      L1  H    13    47       P1 10175  1.92
      P1  H 10752 10764       L1     6  1.00

> <Gold.PLP.Chemscore.Internal.Correction>
0.0413

> <Gold.Rescore>
     Score         DG    S(hbond)    S(metal)    S(lipo)     H(rot)  DE(clash)    DE(int)     intcor
     16.61     -17.88       2.59        0.00      69.89       1.73       0.15       1.11       ----

> <Gold.Chemscore.Fitness>
16.6100

> <Gold.Chemscore.DG>
-17.8794

> <Gold.Chemscore.ZeroCoef>
-5.4800

> <Gold.Chemscore.Hbond>
2.5931

> <Gold.Chemscore.Metal>
0.0000

> <Gold.Chemscore.Lipo>
69.8893

> <Gold.Chemscore.Internal_Hbond>
0.0000

> <Gold.Chemscore.DEClash>
0.1549

> <Gold.Chemscore.DEInternal>
1.1144

> <Gold.Chemscore.Rot>
1.7339

> <Gold.Chemscore.Internal.Correction>
   9.000000E+99

> <Gold.Chemscore.Hbonds>
donor molecule, donor type, donor heavy atom, donor atom, acceptor molecule, acceptor atom, score
      L1  H     2    46       P1  7948  0.83
      L1  H    13    47       P1 10175  0.24
      P1  H 10752 10764       L1     6  1.00

> <Gold.Chemscore.Hbond.Weighted>
-8.6610

> <Gold.Chemscore.Metal.Weighted>
-0.0000

> <Gold.Chemscore.Lipo.Weighted>
-8.1770

> <Gold.Chemscore.Internal_Hbond.Weighted>
0.0000

> <Gold.Chemscore.DEClash.Weighted>
0.1549

> <Gold.Chemscore.DEInternal.Weighted>
1.1144

> <Gold.Chemscore.Rot.Weighted>
4.4387

> <Gold.Chemscore.Internal.Correction.Weighted>
   9.000000E+99

> <Gold.Protein.RotatedTorsions>
[ 6907 6896 6895 6894 ] final    9.39 input  -60.11 | X-H torsion
[ 7974 7965 7964 7962 ] final  -25.33 input  175.53 | X-H torsion
[ 8008 7997 7996 7995 ] final  -90.74 input   59.86 | X-H torsion
[ 10167 10162 10161 10158 ] final -165.17 input  -65.29 | X-H torsion
[ 10718 10713 10712 10709 ] final  -51.00 input   66.30 | X-H torsion
[ 10763 10752 10751 10750 ] final  -55.81 input  -60.55 | X-H torsion
[ 11005 11000 10999 10996 ] final -146.86 input  -57.11 | X-H torsion

> <Gold.Protein.ActiveResidues>
 VAL166  LYS551  ARG553  GLY616  TRP617  ASP618  TYR619  PRO620  LYS621  CYS622 
 ASP623  PHE694  ASN695  SER759  ASP760  ASP761  ALA762  ILE779  LEU786  VAL792 
 PHE793  MET794  SER795  GLU796  ALA797  LYS798  CYS799  TRP800  GLU811  SER814 

> <Gold.Protein.RotatedAtoms>
  151.7214  135.0893  160.0284 H   0  0  0  0  0  0  0  0  0  0  0  0  # atno 6907 bound_to 6896
  152.3599  133.6279  159.6016 H   0  0  0  0  0  0  0  0  0  0  0  0  # atno 6908 bound_to 6896
  150.7597  133.9356  159.3482 H   0  0  0  0  0  0  0  0  0  0  0  0  # atno 6909 bound_to 6896
  146.1497  140.4872  142.8616 H   0  0  0  0  0  0  0  0  0  0  0  0  # atno 7974 bound_to 7965
  154.7023  140.0527  157.0470 H   0  0  0  0  0  0  0  0  0  0  0  0  # atno 8008 bound_to 7997
  155.0668  140.3195  155.4624 H   0  0  0  0  0  0  0  0  0  0  0  0  # atno 8009 bound_to 7997
  156.2764  140.2089  156.5795 H   0  0  0  0  0  0  0  0  0  0  0  0  # atno 8010 bound_to 7997
  139.6200  144.0642  152.1924 H   0  0  0  0  0  0  0  0  0  0  0  0  # atno 10167 bound_to 10162
  156.1749  130.4150  149.9592 H   0  0  0  0  0  0  0  0  0  0  0  0  # atno 10718 bound_to 10713
  154.1967  135.6418  153.5075 H   0  0  0  0  0  0  0  0  0  0  0  0  # atno 10763 bound_to 10752
  153.0022  135.5441  154.6358 H   0  0  0  0  0  0  0  0  0  0  0  0  # atno 10764 bound_to 10752
  154.5761  135.2921  155.0752 H   0  0  0  0  0  0  0  0  0  0  0  0  # atno 10765 bound_to 10752
  140.7777  134.3116  157.5055 H   0  0  0  0  0  0  0  0  0  0  0  0  # atno 11005 bound_to 11000
  144.7889  140.5993  143.6554 LP  0  0  0  0  0  0  0  0  0  0  0  0  # atno 17320 bound_to 7965
  145.4852  139.1492  143.3740 LP  0  0  0  0  0  0  0  0  0  0  0  0  # atno 17321 bound_to 7965
  140.0282  144.6101  150.7510 LP  0  0  0  0  0  0  0  0  0  0  0  0  # atno 17342 bound_to 10162
  140.7376  143.2767  151.3719 LP  0  0  0  0  0  0  0  0  0  0  0  0  # atno 17343 bound_to 10162
  156.7380  130.9068  151.3630 LP  0  0  0  0  0  0  0  0  0  0  0  0  # atno 17370 bound_to 10713
  157.6829  130.9157  150.0312 LP  0  0  0  0  0  0  0  0  0  0  0  0  # atno 17371 bound_to 10713
  139.8747  134.9299  156.3489 LP  0  0  0  0  0  0  0  0  0  0  0  0  # atno 17394 bound_to 11000
  140.9513  133.7449  156.0276 LP  0  0  0  0  0  0  0  0  0  0  0  0  # atno 17395 bound_to 11000

$$$$
