AV-unprocessed.smi:3116|AV-procd|sdf|11872|dock2
  -GOLD-   2272017253D 1   1.00000     0.00000
 Structure written by MMmdl.
 33 33  0  0  0  0  0  0  0  0  1 V2000
  149.3781  142.1292  157.8562 C   0  0  0  0  0  0  0  0  0  0  0  0
  150.6903  142.0121  157.0656 C   0  0  2  0  0  0  0  0  0  0  0  0
  151.3692  143.3188  157.0382 N   0  0  0  0  0  0  0  0  0  0  0  0
  152.3073  143.5639  158.1348 C   0  0  1  0  0  0  0  0  0  0  0  0
  153.2074  144.7485  157.7404 C   0  0  0  0  0  0  0  0  0  0  0  0
  151.5386  143.8027  159.4619 C   0  0  2  0  0  0  0  0  0  0  0  0
  151.3180  145.2941  159.7744 C   0  0  0  0  0  0  0  0  0  0  0  0
  152.1189  143.0978  160.6021 N   0  0  0  0  0  0  0  0  0  0  0  0
  152.2972  143.5387  161.8991 C   0  0  0  0  0  0  0  0  0  0  0  0
  152.9000  142.5318  162.5964 C   0  0  0  0  0  0  0  0  0  0  0  0
  153.0591  141.5011  161.6296 C   0  0  0  0  0  0  0  0  0  0  0  0
  152.5948  141.8428  160.4391 N   0  0  0  0  0  0  0  0  0  0  0  0
  150.4227  141.4433  155.6627 C   0  0  0  0  0  0  0  0  0  0  0  0
  149.6795  142.1824  154.8355 N   0  0  0  0  0  0  0  0  0  0  0  0
  150.8680  140.3443  155.3370 O   0  0  0  0  0  0  0  0  0  0  0  0
  148.8620  141.1699  157.9129 H   0  0  0  0  0  0  0  0  0  0  0  0
  148.6958  142.8482  157.4005 H   0  0  0  0  0  0  0  0  0  0  0  0
  149.5677  142.4579  158.8786 H   0  0  0  0  0  0  0  0  0  0  0  0
  151.3334  141.3141  157.6048 H   0  0  0  0  0  0  0  0  0  0  0  0
  151.8203  143.4895  156.1506 H   0  0  0  0  0  0  0  0  0  0  0  0
  152.9476  142.6947  158.2915 H   0  0  0  0  0  0  0  0  0  0  0  0
  153.9027  144.9922  158.5440 H   0  0  0  0  0  0  0  0  0  0  0  0
  152.6270  145.6457  157.5217 H   0  0  0  0  0  0  0  0  0  0  0  0
  153.8017  144.5187  156.8560 H   0  0  0  0  0  0  0  0  0  0  0  0
  150.5406  143.3860  159.3136 H   0  0  0  0  0  0  0  0  0  0  0  0
  150.8053  145.7935  158.9520 H   0  0  0  0  0  0  0  0  0  0  0  0
  152.2584  145.8189  159.9433 H   0  0  0  0  0  0  0  0  0  0  0  0
  150.7048  145.4186  160.6675 H   0  0  0  0  0  0  0  0  0  0  0  0
  151.9854  144.5232  162.2152 H   0  0  0  0  0  0  0  0  0  0  0  0
  153.1863  142.5324  163.6376 H   0  0  0  0  0  0  0  0  0  0  0  0
  153.4969  140.5220  161.7560 H   0  0  0  0  0  0  0  0  0  0  0  0
  149.4769  141.8488  153.9044 H   0  0  0  0  0  0  0  0  0  0  0  0
  149.3217  143.0740  155.1465 H   0  0  0  0  0  0  0  0  0  0  0  0
  1  2  1  0  0  0  0
  1 16  1  0  0  0  0
  1 17  1  0  0  0  0
  1 18  1  0  0  0  0
  2  3  1  0  0  0  0
  2 13  1  0  0  0  0
  2 19  1  0  0  0  0
  3  4  1  0  0  0  0
  3 20  1  0  0  0  0
  4  5  1  0  0  0  0
  4  6  1  0  0  0  0
  4 21  1  0  0  0  0
  5 22  1  0  0  0  0
  5 23  1  0  0  0  0
  5 24  1  0  0  0  0
  6  7  1  0  0  0  0
  6  8  1  0  0  0  0
  6 25  1  0  0  0  0
  7 26  1  0  0  0  0
  7 27  1  0  0  0  0
  7 28  1  0  0  0  0
  8 12  1  0  0  0  0
  8  9  1  0  0  0  0
  9 10  2  0  0  0  0
  9 29  1  0  0  0  0
 10 11  1  0  0  0  0
 10 30  1  0  0  0  0
 11 12  2  0  0  0  0
 11 31  1  0  0  0  0
 13 14  1  0  0  0  0
 13 15  2  0  0  0  0
 14 32  1  0  0  0  0
 14 33  1  0  0  0  0
M  END
> <s_m_source_file>
AV-unprocessed.smi

> <i_m_source_file_index>
3116

> <i_lp_mmshare_version>
43012

> <i_f3d_flags>
0

> <s_epik_input>
W05IMl1DKD1PKVtDQEhdKFtDSDNdKVtOSF1bQ0BIXShbQ0gzXSlbQ0BIXShbQ0gzXSluMVtjSF1bY0hdW2NIXW4x

> <s_epik_cmdline>
J2VwaWtfcHl0aG9uJywgJy1waCcsICc3LjAnLCAnLXRuJywgJzgnLCAnLW1hJywgJzIwMCcsICctbWV0YWxfYmluZGluZycsICctaW1hZScsICc8aW5maWxlLm1hZT4nLCAnLW9tYWUnLCAnPG91dGZpbGUubWFlPic=

> <r_lp_tautomer_probability>
1

> <r_epik_Ionization_Penalty>
0.865977

> <r_epik_Ionization_Penalty_Charging>
0

> <r_epik_Ionization_Penalty_Neutral>
0.865977

> <r_epik_State_Penalty>
0.901888

> <r_epik_Charging_Adjusted_Penalty>
0.901888

> <i_epik_Tot_Q>
0

> <i_epik_Tot_abs_Q>
0

> <r_epik_Metal_State_Penalty>
0.901181

> <b_epik_Metal_Only>
0

> <s_lp_Force_Field>
OPLS_2005

> <r_lp_Energy>
10.1697

> <b_lp_Chiralities_Consistent>
1

> <s_lp_Variant>
AV-unprocessed.smi:3116-11

> <Gold.Version>
5.8.1

> <Gold.Id.Protein>
6NUR|6NUR_protein|mol2

> <Gold.PLP.Fitness>
44.6616

> <Gold.PLP.PLP>
-42.3729

> <Gold.PLP.part.hbond>
-3.0000

> <Gold.PLP.part.metal>
0.0000

> <Gold.PLP.part.buried>
-7.9606

> <Gold.PLP.part.nonpolar>
-31.3755

> <Gold.PLP.part.repulsive>
0.2679

> <Gold.PLP.ligand.clash>
0.0000

> <Gold.PLP.ligand.torsion>
2.0183

> <Gold.PLP.Chemscore.Hbond>
1.9920

> <Gold.PLP.Chemscore.CHOScore>
0.0000

> <Gold.PLP.Chemscore.Metal>
0.0000

> <Gold.Chemscore.Hbonds>
donor molecule, donor type, donor heavy atom, donor atom, acceptor molecule, acceptor atom, score
      L1  H    14    33       P1  8028  1.00
      P1  H  7989  7998       L1    15  0.85

> <Gold.PLP.Chemscore.Internal.Correction>
0.3493

> <Gold.Rescore>
     Score         DG    S(hbond)    S(metal)    S(lipo)     H(rot)  DE(clash)    DE(int)     intcor
     13.93     -16.57       1.77        0.00      96.47       2.38       0.65       1.99       ----

> <Gold.Chemscore.Fitness>
13.9339

> <Gold.Chemscore.DG>
-16.5672

> <Gold.Chemscore.ZeroCoef>
-5.4800

> <Gold.Chemscore.Hbond>
1.7672

> <Gold.Chemscore.Metal>
0.0000

> <Gold.Chemscore.Lipo>
96.4686

> <Gold.Chemscore.Internal_Hbond>
0.0000

> <Gold.Chemscore.DEClash>
0.6457

> <Gold.Chemscore.DEInternal>
1.9876

> <Gold.Chemscore.Rot>
2.3836

> <Gold.Chemscore.Internal.Correction>
   9.000000E+99

> <Gold.Chemscore.Hbonds>
donor molecule, donor type, donor heavy atom, donor atom, acceptor molecule, acceptor atom, score
      L1  H    14    33       P1  8028  1.00
      P1  H  7989  7998       L1    15  0.16

> <Gold.Chemscore.Hbond.Weighted>
-5.9024

> <Gold.Chemscore.Metal.Weighted>
-0.0000

> <Gold.Chemscore.Lipo.Weighted>
-11.2868

> <Gold.Chemscore.Internal_Hbond.Weighted>
0.0000

> <Gold.Chemscore.DEClash.Weighted>
0.6457

> <Gold.Chemscore.DEInternal.Weighted>
1.9876

> <Gold.Chemscore.Rot.Weighted>
6.1020

> <Gold.Chemscore.Internal.Correction.Weighted>
   9.000000E+99

> <Gold.Protein.RotatedTorsions>
[ 6907 6896 6895 6894 ] final -140.80 input  -60.11 | X-H torsion
[ 7974 7965 7964 7962 ] final  -43.81 input  175.53 | X-H torsion
[ 8008 7997 7996 7995 ] final  -57.17 input   59.86 | X-H torsion
[ 10167 10162 10161 10158 ] final  157.00 input  -65.29 | X-H torsion
[ 10718 10713 10712 10709 ] final   43.83 input   66.30 | X-H torsion
[ 10763 10752 10751 10750 ] final   45.32 input  -60.55 | X-H torsion
[ 11005 11000 10999 10996 ] final  -62.80 input  -57.11 | X-H torsion

> <Gold.Protein.ActiveResidues>
 VAL166  LYS551  ARG553  GLY616  TRP617  ASP618  TYR619  PRO620  LYS621  CYS622 
 ASP623  PHE694  ASN695  SER759  ASP760  ASP761  ALA762  ILE779  LEU786  VAL792 
 PHE793  MET794  SER795  GLU796  ALA797  LYS798  CYS799  TRP800  GLU811  SER814 

> <Gold.Protein.RotatedAtoms>
  151.0655  133.5509  159.2630 H   0  0  0  0  0  0  0  0  0  0  0  0  # atno 6907 bound_to 6896
  151.2468  135.0607  159.9056 H   0  0  0  0  0  0  0  0  0  0  0  0  # atno 6908 bound_to 6896
  152.5404  134.0421  159.8126 H   0  0  0  0  0  0  0  0  0  0  0  0  # atno 6909 bound_to 6896
  145.9983  140.7103  142.9283 H   0  0  0  0  0  0  0  0  0  0  0  0  # atno 7974 bound_to 7965
  154.4258  140.1113  156.5755 H   0  0  0  0  0  0  0  0  0  0  0  0  # atno 8008 bound_to 7997
  155.6167  140.3494  155.4620 H   0  0  0  0  0  0  0  0  0  0  0  0  # atno 8009 bound_to 7997
  156.0056  140.1208  157.0494 H   0  0  0  0  0  0  0  0  0  0  0  0  # atno 8010 bound_to 7997
  139.4822  144.4958  151.8242 H   0  0  0  0  0  0  0  0  0  0  0  0  # atno 10167 bound_to 10162
  157.4202  130.7964  149.7508 H   0  0  0  0  0  0  0  0  0  0  0  0  # atno 10718 bound_to 10713
  152.9826  135.6043  154.3417 H   0  0  0  0  0  0  0  0  0  0  0  0  # atno 10763 bound_to 10752
  154.3113  135.2771  155.2566 H   0  0  0  0  0  0  0  0  0  0  0  0  # atno 10764 bound_to 10752
  154.4774  135.5926  153.6421 H   0  0  0  0  0  0  0  0  0  0  0  0  # atno 10765 bound_to 10752
  141.1372  133.6644  156.5582 H   0  0  0  0  0  0  0  0  0  0  0  0  # atno 11005 bound_to 11000
  144.6911  140.3188  143.7236 LP  0  0  0  0  0  0  0  0  0  0  0  0  # atno 17320 bound_to 7965
  145.7527  139.1799  143.2312 LP  0  0  0  0  0  0  0  0  0  0  0  0  # atno 17321 bound_to 7965
  140.4446  144.1939  150.5893 LP  0  0  0  0  0  0  0  0  0  0  0  0  # atno 17342 bound_to 10162
  140.4648  143.2435  151.9171 LP  0  0  0  0  0  0  0  0  0  0  0  0  # atno 17343 bound_to 10162
  155.9878  130.3964  150.3148 LP  0  0  0  0  0  0  0  0  0  0  0  0  # atno 17370 bound_to 10713
  157.1295  131.0268  151.2975 LP  0  0  0  0  0  0  0  0  0  0  0  0  # atno 17371 bound_to 10713
  140.4009  134.7357  157.4779 LP  0  0  0  0  0  0  0  0  0  0  0  0  # atno 17394 bound_to 11000
  140.0497  134.6149  155.8877 LP  0  0  0  0  0  0  0  0  0  0  0  0  # atno 17395 bound_to 11000

$$$$
