AV-unprocessed.smi:2475|AV-procd|sdf|9755|dock2
  -GOLD-   2272013393D 1   1.00000     0.00000
 Structure written by MMmdl.
 37 38  0  0  0  0  0  0  0  0  1 V2000
  151.7835  138.0659  154.7487 C   0  0  0  0  0  0  0  0  0  0  0  0
  150.9598  139.3317  154.8548 C   0  0  0  0  0  0  0  0  0  0  0  0
  151.3413  140.3927  155.7024 C   0  0  0  0  0  0  0  0  0  0  0  0
  150.5043  141.5306  155.7278 C   0  0  0  0  0  0  0  0  0  0  0  0
  150.9130  142.5810  156.5898 N   0  0  0  0  0  0  0  0  0  0  0  0
  151.7022  142.5075  157.6790 C   0  0  0  0  0  0  0  0  0  0  0  0
  152.2352  141.4725  158.0811 O   0  0  0  0  0  0  0  0  0  0  0  0
  151.9602  143.8278  158.4210 C   0  0  2  0  0  0  0  0  0  0  0  0
  152.8881  143.7065  159.6463 C   0  0  0  0  0  0  0  0  0  0  0  0
  152.0838  144.3113  160.7854 C   0  0  0  0  0  0  0  0  0  0  0  0
  151.0431  145.1528  160.0603 C   0  0  0  0  0  0  0  0  0  0  0  0
  150.7359  144.3513  158.9334 O   0  0  0  0  0  0  0  0  0  0  0  0
  149.3912  141.5683  154.9548 N   0  0  0  0  0  0  0  0  0  0  0  0
  149.1163  140.5079  154.1881 C   0  0  0  0  0  0  0  0  0  0  0  0
  147.8639  140.5853  153.3246 C   0  0  0  0  0  0  0  0  0  0  0  0
  146.9630  141.7631  153.7261 C   0  0  0  0  0  0  0  0  0  0  0  0
  147.1132  139.2454  153.2754 C   0  0  0  0  0  0  0  0  0  0  0  0
  149.8446  139.3918  154.0974 N   0  0  0  0  0  0  0  0  0  0  0  0
  152.6670  138.1158  155.3855 H   0  0  0  0  0  0  0  0  0  0  0  0
  152.1127  137.9130  153.7206 H   0  0  0  0  0  0  0  0  0  0  0  0
  151.1918  137.2021  155.0530 H   0  0  0  0  0  0  0  0  0  0  0  0
  152.2357  140.3351  156.3060 H   0  0  0  0  0  0  0  0  0  0  0  0
  150.5604  143.4986  156.3596 H   0  0  0  0  0  0  0  0  0  0  0  0
  152.3746  144.5513  157.7174 H   0  0  0  0  0  0  0  0  0  0  0  0
  153.1807  142.6823  159.8822 H   0  0  0  0  0  0  0  0  0  0  0  0
  153.8019  144.2769  159.4770 H   0  0  0  0  0  0  0  0  0  0  0  0
  151.5885  143.5198  161.3493 H   0  0  0  0  0  0  0  0  0  0  0  0
  152.6930  144.8925  161.4779 H   0  0  0  0  0  0  0  0  0  0  0  0
  150.1604  145.3506  160.6690 H   0  0  0  0  0  0  0  0  0  0  0  0
  151.4635  146.1057  159.7343 H   0  0  0  0  0  0  0  0  0  0  0  0
  148.1907  140.7866  152.3028 H   0  0  0  0  0  0  0  0  0  0  0  0
  147.5077  142.7062  153.6766 H   0  0  0  0  0  0  0  0  0  0  0  0
  146.5868  141.6480  154.7432 H   0  0  0  0  0  0  0  0  0  0  0  0
  146.1024  141.8431  153.0614 H   0  0  0  0  0  0  0  0  0  0  0  0
  147.7633  138.4452  152.9204 H   0  0  0  0  0  0  0  0  0  0  0  0
  146.2575  139.2997  152.6020 H   0  0  0  0  0  0  0  0  0  0  0  0
  146.7411  138.9606  154.2602 H   0  0  0  0  0  0  0  0  0  0  0  0
  1  2  1  0  0  0  0
  1 19  1  0  0  0  0
  1 20  1  0  0  0  0
  1 21  1  0  0  0  0
  2 18  1  0  0  0  0
  2  3  2  0  0  0  0
  3  4  1  0  0  0  0
  3 22  1  0  0  0  0
  4  5  1  0  0  0  0
  4 13  2  0  0  0  0
  5  6  1  0  0  0  0
  5 23  1  0  0  0  0
  6  7  2  0  0  0  0
  6  8  1  0  0  0  0
  8 12  1  0  0  0  0
  8  9  1  0  0  0  0
  8 24  1  0  0  0  0
  9 10  1  0  0  0  0
  9 25  1  0  0  0  0
  9 26  1  0  0  0  0
 10 11  1  0  0  0  0
 10 27  1  0  0  0  0
 10 28  1  0  0  0  0
 11 12  1  0  0  0  0
 11 29  1  0  0  0  0
 11 30  1  0  0  0  0
 13 14  1  0  0  0  0
 14 15  1  0  0  0  0
 14 18  2  0  0  0  0
 15 16  1  0  0  0  0
 15 17  1  0  0  0  0
 15 31  1  0  0  0  0
 16 32  1  0  0  0  0
 16 33  1  0  0  0  0
 16 34  1  0  0  0  0
 17 35  1  0  0  0  0
 17 36  1  0  0  0  0
 17 37  1  0  0  0  0
M  END
> <s_m_source_file>
AV-unprocessed.smi

> <i_m_source_file_index>
2475

> <i_lp_mmshare_version>
43012

> <i_f3d_flags>
0

> <s_epik_input>
W0NIM11bQ0hdKFtDSDNdKWMobjEpbmMoW2NIXWMxW0NIM10pW05IXUMoPU8pW0NAQEhdMltDSDJdW0NIMl1bQ0gyXU8y

> <s_epik_cmdline>
J2VwaWtfcHl0aG9uJywgJy1waCcsICc3LjAnLCAnLXRuJywgJzgnLCAnLW1hJywgJzIwMCcsICctbWV0YWxfYmluZGluZycsICctaW1hZScsICc8aW5maWxlLm1hZT4nLCAnLW9tYWUnLCAnPG91dGZpbGUubWFlPic=

> <r_lp_tautomer_probability>
1

> <r_epik_Ionization_Penalty>
1.42804e-05

> <r_epik_Ionization_Penalty_Charging>
0

> <r_epik_Ionization_Penalty_Neutral>
1.42804e-05

> <r_epik_State_Penalty>
-0

> <r_epik_Charging_Adjusted_Penalty>
0

> <i_epik_Tot_Q>
0

> <i_epik_Tot_abs_Q>
0

> <r_epik_Metal_State_Penalty>
-0

> <b_epik_Metal_Only>
0

> <s_lp_Force_Field>
OPLS_2005

> <r_lp_Energy>
10.8571

> <b_lp_Chiralities_Consistent>
1

> <s_lp_Variant>
AV-unprocessed.smi:2475-1

> <Gold.Version>
5.8.1

> <Gold.Id.Protein>
6NUR|6NUR_protein|mol2

> <Gold.PLP.Fitness>
43.5081

> <Gold.PLP.PLP>
-41.6623

> <Gold.PLP.part.hbond>
-1.0000

> <Gold.PLP.part.metal>
0.0000

> <Gold.PLP.part.buried>
-5.3853

> <Gold.PLP.part.nonpolar>
-36.6693

> <Gold.PLP.part.repulsive>
1.5160

> <Gold.PLP.ligand.clash>
0.0000

> <Gold.PLP.ligand.torsion>
0.5542

> <Gold.PLP.Chemscore.Hbond>
0.9600

> <Gold.PLP.Chemscore.CHOScore>
0.0000

> <Gold.PLP.Chemscore.Metal>
0.0000

> <Gold.Chemscore.Hbonds>
donor molecule, donor type, donor heavy atom, donor atom, acceptor molecule, acceptor atom, score
      L1  H     5    23       P1  8028  0.62

> <Gold.PLP.Chemscore.Internal.Correction>
0.0743

> <Gold.Rescore>
     Score         DG    S(hbond)    S(metal)    S(lipo)     H(rot)  DE(clash)    DE(int)     intcor
     14.02     -16.44       0.96        0.00      92.12       1.18       0.19       2.24       ----

> <Gold.Chemscore.Fitness>
14.0157

> <Gold.Chemscore.DG>
-16.4402

> <Gold.Chemscore.ZeroCoef>
-5.4800

> <Gold.Chemscore.Hbond>
0.9620

> <Gold.Chemscore.Metal>
0.0000

> <Gold.Chemscore.Lipo>
92.1250

> <Gold.Chemscore.Internal_Hbond>
0.0000

> <Gold.Chemscore.DEClash>
0.1869

> <Gold.Chemscore.DEInternal>
2.2377

> <Gold.Chemscore.Rot>
1.1842

> <Gold.Chemscore.Internal.Correction>
   9.000000E+99

> <Gold.Chemscore.Hbonds>
donor molecule, donor type, donor heavy atom, donor atom, acceptor molecule, acceptor atom, score
      L1  H     5    23       P1  8028  0.58

> <Gold.Chemscore.Hbond.Weighted>
-3.2131

> <Gold.Chemscore.Metal.Weighted>
-0.0000

> <Gold.Chemscore.Lipo.Weighted>
-10.7786

> <Gold.Chemscore.Internal_Hbond.Weighted>
0.0000

> <Gold.Chemscore.DEClash.Weighted>
0.1869

> <Gold.Chemscore.DEInternal.Weighted>
2.2377

> <Gold.Chemscore.Rot.Weighted>
3.0315

> <Gold.Chemscore.Internal.Correction.Weighted>
   9.000000E+99

> <Gold.Protein.RotatedTorsions>
[ 6907 6896 6895 6894 ] final   69.00 input  -60.11 | X-H torsion
[ 7974 7965 7964 7962 ] final  -50.00 input  175.53 | X-H torsion
[ 8008 7997 7996 7995 ] final  -77.05 input   59.86 | X-H torsion
[ 10167 10162 10161 10158 ] final  -29.54 input  -65.29 | X-H torsion
[ 10718 10713 10712 10709 ] final  151.21 input   66.30 | X-H torsion
[ 10763 10752 10751 10750 ] final   80.08 input  -60.55 | X-H torsion
[ 11005 11000 10999 10996 ] final  169.50 input  -57.11 | X-H torsion

> <Gold.Protein.ActiveResidues>
 VAL166  LYS551  ARG553  GLY616  TRP617  ASP618  TYR619  PRO620  LYS621  CYS622 
 ASP623  PHE694  ASN695  SER759  ASP760  ASP761  ALA762  ILE779  LEU786  VAL792 
 PHE793  MET794  SER795  GLU796  ALA797  LYS798  CYS799  TRP800  GLU811  SER814 

> <Gold.Protein.RotatedAtoms>
  152.4657  134.5080  159.9744 H   0  0  0  0  0  0  0  0  0  0  0  0  # atno 6907 bound_to 6896
  151.5119  133.3477  159.2894 H   0  0  0  0  0  0  0  0  0  0  0  0  # atno 6908 bound_to 6896
  150.8641  134.8028  159.7167 H   0  0  0  0  0  0  0  0  0  0  0  0  # atno 6909 bound_to 6896
  145.9346  140.7718  142.9582 H   0  0  0  0  0  0  0  0  0  0  0  0  # atno 7974 bound_to 7965
  154.5561  140.0717  156.8745 H   0  0  0  0  0  0  0  0  0  0  0  0  # atno 8008 bound_to 7997
  155.2900  140.3377  155.4235 H   0  0  0  0  0  0  0  0  0  0  0  0  # atno 8009 bound_to 7997
  156.2003  140.1719  156.7899 H   0  0  0  0  0  0  0  0  0  0  0  0  # atno 8010 bound_to 7997
  140.7259  143.3920  151.1412 H   0  0  0  0  0  0  0  0  0  0  0  0  # atno 10167 bound_to 10162
  157.2736  131.0822  151.1582 H   0  0  0  0  0  0  0  0  0  0  0  0  # atno 10718 bound_to 10713
  153.1004  135.4816  154.8857 H   0  0  0  0  0  0  0  0  0  0  0  0  # atno 10763 bound_to 10752
  154.7373  135.3074  154.8792 H   0  0  0  0  0  0  0  0  0  0  0  0  # atno 10764 bound_to 10752
  153.9410  135.6834  153.4797 H   0  0  0  0  0  0  0  0  0  0  0  0  # atno 10765 bound_to 10752
  140.2984  134.7615  157.3896 H   0  0  0  0  0  0  0  0  0  0  0  0  # atno 11005 bound_to 11000
  144.6770  140.2182  143.7369 LP  0  0  0  0  0  0  0  0  0  0  0  0  # atno 17320 bound_to 7965
  145.8381  139.2117  143.1843 LP  0  0  0  0  0  0  0  0  0  0  0  0  # atno 17321 bound_to 7965
  139.7527  143.8754  152.3081 LP  0  0  0  0  0  0  0  0  0  0  0  0  # atno 17342 bound_to 10162
  139.8613  144.7115  150.9096 LP  0  0  0  0  0  0  0  0  0  0  0  0  # atno 17343 bound_to 10162
  157.3044  130.6859  149.6181 LP  0  0  0  0  0  0  0  0  0  0  0  0  # atno 17370 bound_to 10713
  155.9663  130.4382  150.5208 LP  0  0  0  0  0  0  0  0  0  0  0  0  # atno 17371 bound_to 10713
  140.1131  134.5318  155.8248 LP  0  0  0  0  0  0  0  0  0  0  0  0  # atno 17394 bound_to 11000
  141.2133  133.6731  156.6727 LP  0  0  0  0  0  0  0  0  0  0  0  0  # atno 17395 bound_to 11000

$$$$
