AV-unprocessed.smi:1192|AV-procd|sdf|4988|dock3
  -GOLD-   22720 3583D 1   1.00000     0.00000
 Structure written by MMmdl.
 39 40  0  0  0  0  0  0  0  0  1 V2000
  156.1223  138.6562  159.3756 C   0  0  0  0  0  0  0  0  0  0  0  0
  155.2868  139.7996  159.3777 O   0  0  0  0  0  0  0  0  0  0  0  0
  154.4076  139.8256  160.4900 C   0  0  0  0  0  0  0  0  0  0  0  0
  153.7779  141.2171  160.5929 C   0  0  0  0  0  0  0  0  0  0  0  0
  153.0158  141.4462  159.4138 O   0  0  0  0  0  0  0  0  0  0  0  0
  152.4036  142.6701  159.2394 C   0  0  0  0  0  0  0  0  0  0  0  0
  152.7140  143.6753  160.0965 N   0  0  0  0  0  0  0  0  0  0  0  0
  152.1227  144.8752  159.9210 C   0  0  0  0  0  0  0  0  0  0  0  0
  151.1999  145.1369  158.8913 C   0  0  0  0  0  0  0  0  0  0  0  0
  150.8782  144.0949  158.0021 C   0  0  0  0  0  0  0  0  0  0  0  0
  151.4852  142.8328  158.1744 C   0  0  0  0  0  0  0  0  0  0  0  0
  151.1598  141.6938  157.2194 C   0  0  0  0  0  0  0  0  0  0  0  0
  150.0412  141.9929  156.3285 N   0  0  0  0  0  0  0  0  0  0  0  0
  149.6401  141.2408  155.2911 C   0  0  0  0  0  0  0  0  0  0  0  0
  150.1756  140.1774  154.9768 O   0  0  0  0  0  0  0  0  0  0  0  0
  148.4318  141.7752  154.5114 C   0  0  0  0  0  0  0  0  0  0  0  0
  147.1494  142.0127  155.3335 C   0  0  0  0  0  0  0  0  0  0  0  0
  146.3555  141.3537  154.2024 C   0  0  0  0  0  0  0  0  0  0  0  0
  147.6573  140.6913  153.7431 C   0  0  0  0  0  0  0  0  0  0  0  0
  156.7653  138.6753  158.4960 H   0  0  0  0  0  0  0  0  0  0  0  0
  155.5354  137.7375  159.3425 H   0  0  0  0  0  0  0  0  0  0  0  0
  156.7601  138.6343  160.2605 H   0  0  0  0  0  0  0  0  0  0  0  0
  153.6233  139.0809  160.3458 H   0  0  0  0  0  0  0  0  0  0  0  0
  154.9348  139.5751  161.4119 H   0  0  0  0  0  0  0  0  0  0  0  0
  153.1609  141.2819  161.4908 H   0  0  0  0  0  0  0  0  0  0  0  0
  154.5638  141.9701  160.6674 H   0  0  0  0  0  0  0  0  0  0  0  0
  152.3949  145.6503  160.6218 H   0  0  0  0  0  0  0  0  0  0  0  0
  150.7508  146.1135  158.7858 H   0  0  0  0  0  0  0  0  0  0  0  0
  150.1744  144.2657  157.2009 H   0  0  0  0  0  0  0  0  0  0  0  0
  152.0289  141.4742  156.5986 H   0  0  0  0  0  0  0  0  0  0  0  0
  150.9772  140.7955  157.8111 H   0  0  0  0  0  0  0  0  0  0  0  0
  149.5300  142.8434  156.5153 H   0  0  0  0  0  0  0  0  0  0  0  0
  148.6810  142.6331  153.8838 H   0  0  0  0  0  0  0  0  0  0  0  0
  147.0909  141.4440  156.2633 H   0  0  0  0  0  0  0  0  0  0  0  0
  146.8994  143.0611  155.4931 H   0  0  0  0  0  0  0  0  0  0  0  0
  145.5823  140.6588  154.5319 H   0  0  0  0  0  0  0  0  0  0  0  0
  145.9718  142.0761  153.4803 H   0  0  0  0  0  0  0  0  0  0  0  0
  147.8087  140.7087  152.6633 H   0  0  0  0  0  0  0  0  0  0  0  0
  147.7866  139.6858  154.1488 H   0  0  0  0  0  0  0  0  0  0  0  0
  1  2  1  0  0  0  0
  1 20  1  0  0  0  0
  1 21  1  0  0  0  0
  1 22  1  0  0  0  0
  2  3  1  0  0  0  0
  3  4  1  0  0  0  0
  3 23  1  0  0  0  0
  3 24  1  0  0  0  0
  4  5  1  0  0  0  0
  4 25  1  0  0  0  0
  4 26  1  0  0  0  0
  5  6  1  0  0  0  0
  6 11  1  0  0  0  0
  6  7  2  0  0  0  0
  7  8  1  0  0  0  0
  8  9  2  0  0  0  0
  8 27  1  0  0  0  0
  9 10  1  0  0  0  0
  9 28  1  0  0  0  0
 10 11  2  0  0  0  0
 10 29  1  0  0  0  0
 11 12  1  0  0  0  0
 12 13  1  0  0  0  0
 12 30  1  0  0  0  0
 12 31  1  0  0  0  0
 13 14  1  0  0  0  0
 13 32  1  0  0  0  0
 14 15  2  0  0  0  0
 14 16  1  0  0  0  0
 16 19  1  0  0  0  0
 16 17  1  0  0  0  0
 16 33  1  0  0  0  0
 17 18  1  0  0  0  0
 17 34  1  0  0  0  0
 17 35  1  0  0  0  0
 18 19  1  0  0  0  0
 18 36  1  0  0  0  0
 18 37  1  0  0  0  0
 19 38  1  0  0  0  0
 19 39  1  0  0  0  0
M  END
> <s_m_source_file>
AV-unprocessed.smi

> <i_m_source_file_index>
1192

> <i_lp_mmshare_version>
43012

> <i_f3d_flags>
0

> <s_epik_input>
W0NIM11PW0NIMl1bQ0gyXU9jMW5bY0hdW2NIXVtjSF1jMVtDSDJdW05IXUMoPU8pW0NIXTJbQ0gyXVtDSDJdW0NIMl0y

> <s_epik_cmdline>
J2VwaWtfcHl0aG9uJywgJy1waCcsICc3LjAnLCAnLXRuJywgJzgnLCAnLW1hJywgJzIwMCcsICctbWV0YWxfYmluZGluZycsICctaW1hZScsICc8aW5maWxlLm1hZT4nLCAnLW9tYWUnLCAnPG91dGZpbGUubWFlPic=

> <r_lp_tautomer_probability>
1

> <r_epik_Ionization_Penalty>
6.50215e-05

> <r_epik_Ionization_Penalty_Charging>
0

> <r_epik_Ionization_Penalty_Neutral>
6.50215e-05

> <r_epik_State_Penalty>
-0

> <r_epik_Charging_Adjusted_Penalty>
0

> <i_epik_Tot_Q>
0

> <i_epik_Tot_abs_Q>
0

> <r_epik_Metal_State_Penalty>
-0

> <b_epik_Metal_Only>
0

> <s_lp_Force_Field>
OPLS_2005

> <r_lp_Energy>
11.4086

> <b_lp_Chiralities_Consistent>
1

> <s_lp_Variant>
AV-unprocessed.smi:1192-1

> <Gold.Version>
5.8.1

> <Gold.Id.Protein>
6NUR|6NUR_protein|mol2

> <Gold.PLP.Fitness>
47.0490

> <Gold.PLP.PLP>
-38.9492

> <Gold.PLP.part.hbond>
-3.0000

> <Gold.PLP.part.metal>
0.0000

> <Gold.PLP.part.buried>
0.1271

> <Gold.PLP.part.nonpolar>
-35.9815

> <Gold.PLP.part.repulsive>
0.1842

> <Gold.PLP.ligand.clash>
0.0000

> <Gold.PLP.ligand.torsion>
0.5831

> <Gold.PLP.Chemscore.Hbond>
2.9333

> <Gold.PLP.Chemscore.CHOScore>
0.0000

> <Gold.PLP.Chemscore.Metal>
0.0000

> <Gold.Chemscore.Hbonds>
donor molecule, donor type, donor heavy atom, donor atom, acceptor molecule, acceptor atom, score
      L1  H    13    32       P1  8028  0.60
      P1  H  7989  7998       L1    15  0.62
      P1  H  7997  8008       L1     2  0.80

> <Gold.PLP.Chemscore.Internal.Correction>
0.4661

> <Gold.Rescore>
     Score         DG    S(hbond)    S(metal)    S(lipo)     H(rot)  DE(clash)    DE(int)     intcor
     17.13     -18.59       2.12        0.00      97.85       2.12       0.58       0.88       ----

> <Gold.Chemscore.Fitness>
17.1286

> <Gold.Chemscore.DG>
-18.5873

> <Gold.Chemscore.ZeroCoef>
-5.4800

> <Gold.Chemscore.Hbond>
2.1232

> <Gold.Chemscore.Metal>
0.0000

> <Gold.Chemscore.Lipo>
97.8501

> <Gold.Chemscore.Internal_Hbond>
0.0000

> <Gold.Chemscore.DEClash>
0.5820

> <Gold.Chemscore.DEInternal>
0.8767

> <Gold.Chemscore.Rot>
2.1221

> <Gold.Chemscore.Internal.Correction>
   9.000000E+99

> <Gold.Chemscore.Hbonds>
donor molecule, donor type, donor heavy atom, donor atom, acceptor molecule, acceptor atom, score
      L1  H    13    32       P1  8028  0.58
      P1  H  7989  7998       L1    15  0.15
      P1  H  7997  8008       L1     2  0.11

> <Gold.Chemscore.Hbond.Weighted>
-7.0914

> <Gold.Chemscore.Metal.Weighted>
-0.0000

> <Gold.Chemscore.Lipo.Weighted>
-11.4485

> <Gold.Chemscore.Internal_Hbond.Weighted>
0.0000

> <Gold.Chemscore.DEClash.Weighted>
0.5820

> <Gold.Chemscore.DEInternal.Weighted>
0.8767

> <Gold.Chemscore.Rot.Weighted>
5.4326

> <Gold.Chemscore.Internal.Correction.Weighted>
   9.000000E+99

> <Gold.Protein.RotatedTorsions>
[ 6907 6896 6895 6894 ] final  -49.80 input  -60.11 | X-H torsion
[ 7974 7965 7964 7962 ] final -171.03 input  175.53 | X-H torsion
[ 8008 7997 7996 7995 ] final -125.34 input   59.86 | X-H torsion
[ 10167 10162 10161 10158 ] final  -60.94 input  -65.29 | X-H torsion
[ 10718 10713 10712 10709 ] final -146.52 input   66.30 | X-H torsion
[ 10763 10752 10751 10750 ] final  149.39 input  -60.55 | X-H torsion
[ 11005 11000 10999 10996 ] final  169.03 input  -57.11 | X-H torsion

> <Gold.Protein.ActiveResidues>
 VAL166  LYS551  ARG553  GLY616  TRP617  ASP618  TYR619  PRO620  LYS621  CYS622 
 ASP623  PHE694  ASN695  SER759  ASP760  ASP761  ALA762  ILE779  LEU786  VAL792 
 PHE793  MET794  SER795  GLU796  ALA797  LYS798  CYS799  TRP800  GLU811  SER814 

> <Gold.Protein.RotatedAtoms>
  150.8769  134.8153  159.7195 H   0  0  0  0  0  0  0  0  0  0  0  0  # atno 6907 bound_to 6896
  152.4752  134.4858  159.9689 H   0  0  0  0  0  0  0  0  0  0  0  0  # atno 6908 bound_to 6896
  151.4938  133.3480  159.2893 H   0  0  0  0  0  0  0  0  0  0  0  0  # atno 6909 bound_to 6896
  144.7162  140.1983  143.6341 H   0  0  0  0  0  0  0  0  0  0  0  0  # atno 7974 bound_to 7965
  155.2117  140.0419  157.2934 H   0  0  0  0  0  0  0  0  0  0  0  0  # atno 8008 bound_to 7997
  154.6007  140.2451  155.7767 H   0  0  0  0  0  0  0  0  0  0  0  0  # atno 8009 bound_to 7997
  156.2319  140.2935  156.0220 H   0  0  0  0  0  0  0  0  0  0  0  0  # atno 8010 bound_to 7997
  140.6039  143.2368  151.5866 H   0  0  0  0  0  0  0  0  0  0  0  0  # atno 10167 bound_to 10162
  156.3959  130.7909  151.2116 H   0  0  0  0  0  0  0  0  0  0  0  0  # atno 10718 bound_to 10713
  154.0704  135.2867  155.3309 H   0  0  0  0  0  0  0  0  0  0  0  0  # atno 10763 bound_to 10752
  154.6750  135.5285  153.8191 H   0  0  0  0  0  0  0  0  0  0  0  0  # atno 10764 bound_to 10752
  153.0487  135.6567  154.0886 H   0  0  0  0  0  0  0  0  0  0  0  0  # atno 10765 bound_to 10752
  140.2934  134.7654  157.3857 H   0  0  0  0  0  0  0  0  0  0  0  0  # atno 11005 bound_to 11000
  145.8703  139.2269  143.1664 LP  0  0  0  0  0  0  0  0  0  0  0  0  # atno 17320 bound_to 7965
  146.0091  140.8452  142.9980 LP  0  0  0  0  0  0  0  0  0  0  0  0  # atno 17321 bound_to 7965
  139.5310  144.2915  152.1148 LP  0  0  0  0  0  0  0  0  0  0  0  0  # atno 17342 bound_to 10162
  140.2101  144.4571  150.6390 LP  0  0  0  0  0  0  0  0  0  0  0  0  # atno 17343 bound_to 10162
  157.7501  131.0301  150.4124 LP  0  0  0  0  0  0  0  0  0  0  0  0  # atno 17370 bound_to 10713
  156.4394  130.3988  149.6707 LP  0  0  0  0  0  0  0  0  0  0  0  0  # atno 17371 bound_to 10713
  140.1174  134.5265  155.8213 LP  0  0  0  0  0  0  0  0  0  0  0  0  # atno 17394 bound_to 11000
  141.2142  133.6745  156.6803 LP  0  0  0  0  0  0  0  0  0  0  0  0  # atno 17395 bound_to 11000

$$$$
