AV-unprocessed.smi:2669|AV-procd|sdf|10343|dock3
  -GOLD-   2272014363D 1   1.00000     0.00000
 Structure written by MMmdl.
 39 41  0  0  0  0  0  0  0  0  1 V2000
  149.0370  143.0126  158.9523 C   0  0  0  0  0  0  0  0  0  0  0  0
  149.3852  142.5307  157.6250 N   0  0  0  0  0  0  0  0  0  0  0  0
  150.4060  141.5849  157.4563 C   0  0  0  0  0  0  0  0  0  0  0  0
  151.3065  141.3818  158.4461 N   0  0  0  0  0  0  0  0  0  0  0  0
  152.2678  140.4722  158.2418 C   0  0  0  0  0  0  0  0  0  0  0  0
  152.4861  139.6993  157.1669 N   0  0  0  0  0  0  0  0  0  0  0  0
  151.5977  139.8902  156.1821 C   0  0  0  0  0  0  0  0  0  0  0  0
  151.5828  139.2310  154.9650 N   0  0  0  0  0  0  0  0  0  0  0  0
  150.5237  139.7787  154.3745 C   0  0  0  0  0  0  0  0  0  0  0  0
  149.8431  140.7171  155.0613 N   0  0  0  0  0  0  0  0  0  0  0  0
  148.6634  141.4297  154.5998 C   0  0  0  0  0  0  0  0  0  0  0  0
  147.5081  140.4818  154.2205 C   0  0  2  0  0  0  0  0  0  0  0  0
  147.7428  139.9151  152.9466 O   0  0  0  0  0  0  0  0  0  0  0  0
  146.1496  141.1972  154.1895 C   0  0  0  0  0  0  0  0  0  0  0  0
  145.9957  141.9486  155.3864 O   0  0  0  0  0  0  0  0  0  0  0  0
  145.0840  142.9820  155.3963 C   0  0  0  0  0  0  0  0  0  0  0  0
  144.7923  143.5892  154.1573 C   0  0  0  0  0  0  0  0  0  0  0  0
  143.8718  144.6516  154.0735 C   0  0  0  0  0  0  0  0  0  0  0  0
  143.2307  145.1198  155.2355 C   0  0  0  0  0  0  0  0  0  0  0  0
  142.1012  146.4202  155.1366 Cl  0  0  0  0  0  0  0  0  0  0  0  0
  143.5132  144.5241  156.4789 C   0  0  0  0  0  0  0  0  0  0  0  0
  144.4344  143.4617  156.5620 C   0  0  0  0  0  0  0  0  0  0  0  0
  150.5244  140.8274  156.2731 C   0  0  0  0  0  0  0  0  0  0  0  0
  148.2779  143.7911  158.8781 H   0  0  0  0  0  0  0  0  0  0  0  0
  149.9090  143.4339  159.4537 H   0  0  0  0  0  0  0  0  0  0  0  0
  148.6375  142.2032  159.5640 H   0  0  0  0  0  0  0  0  0  0  0  0
  149.0016  142.9996  156.8169 H   0  0  0  0  0  0  0  0  0  0  0  0
  152.9654  140.3431  159.0559 H   0  0  0  0  0  0  0  0  0  0  0  0
  150.2227  139.4789  153.3813 H   0  0  0  0  0  0  0  0  0  0  0  0
  148.3447  142.1027  155.3968 H   0  0  0  0  0  0  0  0  0  0  0  0
  148.9361  142.0676  153.7597 H   0  0  0  0  0  0  0  0  0  0  0  0
  147.4613  139.6614  154.9381 H   0  0  0  0  0  0  0  0  0  0  0  0
  148.5255  140.3019  152.5845 H   0  0  0  0  0  0  0  0  0  0  0  0
  146.0883  141.8452  153.3133 H   0  0  0  0  0  0  0  0  0  0  0  0
  145.3479  140.4595  154.1224 H   0  0  0  0  0  0  0  0  0  0  0  0
  145.2791  143.2356  153.2601 H   0  0  0  0  0  0  0  0  0  0  0  0
  143.6591  145.1053  153.1167 H   0  0  0  0  0  0  0  0  0  0  0  0
  143.0233  144.8813  157.3728 H   0  0  0  0  0  0  0  0  0  0  0  0
  144.6249  143.0319  157.5334 H   0  0  0  0  0  0  0  0  0  0  0  0
  1  2  1  0  0  0  0
  1 24  1  0  0  0  0
  1 25  1  0  0  0  0
  1 26  1  0  0  0  0
  2  3  1  0  0  0  0
  2 27  1  0  0  0  0
  3 23  1  0  0  0  0
  3  4  2  0  0  0  0
  4  5  1  0  0  0  0
  5  6  2  0  0  0  0
  5 28  1  0  0  0  0
  6  7  1  0  0  0  0
  7 23  2  0  0  0  0
  7  8  1  0  0  0  0
  8  9  2  0  0  0  0
  9 10  1  0  0  0  0
  9 29  1  0  0  0  0
 10 11  1  0  0  0  0
 10 23  1  0  0  0  0
 11 12  1  0  0  0  0
 11 30  1  0  0  0  0
 11 31  1  0  0  0  0
 12 13  1  0  0  0  0
 12 14  1  0  0  0  0
 12 32  1  0  0  0  0
 13 33  1  0  0  0  0
 14 15  1  0  0  0  0
 14 34  1  0  0  0  0
 14 35  1  0  0  0  0
 15 16  1  0  0  0  0
 16 22  1  0  0  0  0
 16 17  2  0  0  0  0
 17 18  1  0  0  0  0
 17 36  1  0  0  0  0
 18 19  2  0  0  0  0
 18 37  1  0  0  0  0
 19 20  1  0  0  0  0
 19 21  1  0  0  0  0
 21 22  2  0  0  0  0
 21 38  1  0  0  0  0
 22 39  1  0  0  0  0
M  END
> <s_m_source_file>
AV-unprocessed.smi

> <i_m_source_file_index>
2669

> <i_lp_mmshare_version>
43012

> <i_f3d_flags>
0

> <s_epik_input>
bjFbY0hdbmMoW05IXVtDSDNdKWMoYzEyKW4oW2NIXW4yKVtDSDJdW0NASF0oW09IXSlbQ0gyXU9jM1tjSF1bY0hdYyhDbClbY0hdW2NIXTM=

> <s_epik_cmdline>
J2VwaWtfcHl0aG9uJywgJy1waCcsICc3LjAnLCAnLXRuJywgJzgnLCAnLW1hJywgJzIwMCcsICctbWV0YWxfYmluZGluZycsICctaW1hZScsICc8aW5maWxlLm1hZT4nLCAnLW9tYWUnLCAnPG91dGZpbGUubWFlPic=

> <r_lp_tautomer_probability>
1

> <r_epik_Ionization_Penalty>
0.00733592

> <r_epik_Ionization_Penalty_Charging>
0

> <r_epik_Ionization_Penalty_Neutral>
0.00733592

> <r_epik_State_Penalty>
-0

> <r_epik_Charging_Adjusted_Penalty>
0

> <i_epik_Tot_Q>
0

> <i_epik_Tot_abs_Q>
0

> <r_epik_Metal_State_Penalty>
-0

> <b_epik_Metal_Only>
0

> <s_lp_Force_Field>
OPLS_2005

> <r_lp_Energy>
12.7517

> <b_lp_Chiralities_Consistent>
1

> <s_lp_Variant>
AV-unprocessed.smi:2669-1

> <Gold.Version>
5.8.1

> <Gold.Id.Protein>
6NUR|6NUR_protein|mol2

> <Gold.PLP.Fitness>
50.4204

> <Gold.PLP.PLP>
-40.0695

> <Gold.PLP.part.hbond>
-3.4503

> <Gold.PLP.part.metal>
0.0000

> <Gold.PLP.part.buried>
-2.4754

> <Gold.PLP.part.nonpolar>
-34.3471

> <Gold.PLP.part.repulsive>
0.2302

> <Gold.PLP.ligand.clash>
0.0000

> <Gold.PLP.ligand.torsion>
0.7524

> <Gold.PLP.Chemscore.Hbond>
2.9440

> <Gold.PLP.Chemscore.CHOScore>
1.0000

> <Gold.PLP.Chemscore.Metal>
0.0000

> <Gold.Chemscore.Hbonds>
donor molecule, donor type, donor heavy atom, donor atom, acceptor molecule, acceptor atom, score
      L1  H     2    27       P1  8028  0.86
      L1  H    13    33       P1  7957  0.75
      P1  H  7997  8008       L1     6  0.94
      L1  C     9    29       P1  7957  1.00

> <Gold.PLP.Chemscore.Internal.Correction>
0.0237

> <Gold.Rescore>
     Score         DG    S(hbond)    S(metal)    S(lipo)     H(rot)  DE(clash)    DE(int)     intcor
     10.90     -13.35       2.14        0.00      71.22       2.97       1.50       0.94       ----

> <Gold.Chemscore.Fitness>
10.9027

> <Gold.Chemscore.DG>
-13.3454

> <Gold.Chemscore.ZeroCoef>
-5.4800

> <Gold.Chemscore.Hbond>
2.1399

> <Gold.Chemscore.Metal>
0.0000

> <Gold.Chemscore.Lipo>
71.2228

> <Gold.Chemscore.Internal_Hbond>
0.0000

> <Gold.Chemscore.DEClash>
1.5029

> <Gold.Chemscore.DEInternal>
0.9398

> <Gold.Chemscore.Rot>
2.9746

> <Gold.Chemscore.Internal.Correction>
   9.000000E+99

> <Gold.Chemscore.Hbonds>
donor molecule, donor type, donor heavy atom, donor atom, acceptor molecule, acceptor atom, score
      L1  H     2    27       P1  8028  0.76
      L1  H    13    33       P1  7957  0.74
      P1  H  7997  8008       L1     6  0.37

> <Gold.Chemscore.Hbond.Weighted>
-7.1473

> <Gold.Chemscore.Metal.Weighted>
-0.0000

> <Gold.Chemscore.Lipo.Weighted>
-8.3331

> <Gold.Chemscore.Internal_Hbond.Weighted>
0.0000

> <Gold.Chemscore.DEClash.Weighted>
1.5029

> <Gold.Chemscore.DEInternal.Weighted>
0.9398

> <Gold.Chemscore.Rot.Weighted>
7.6150

> <Gold.Chemscore.Internal.Correction.Weighted>
   9.000000E+99

> <Gold.Protein.RotatedTorsions>
[ 6907 6896 6895 6894 ] final  -41.87 input  -60.11 | X-H torsion
[ 7974 7965 7964 7962 ] final  -86.16 input  175.53 | X-H torsion
[ 8008 7997 7996 7995 ] final  -43.57 input   59.86 | X-H torsion
[ 10167 10162 10161 10158 ] final  -87.45 input  -65.29 | X-H torsion
[ 10718 10713 10712 10709 ] final -129.34 input   66.30 | X-H torsion
[ 10763 10752 10751 10750 ] final  -11.95 input  -60.55 | X-H torsion
[ 11005 11000 10999 10996 ] final   61.29 input  -57.11 | X-H torsion

> <Gold.Protein.ActiveResidues>
 VAL166  LYS551  ARG553  GLY616  TRP617  ASP618  TYR619  PRO620  LYS621  CYS622 
 ASP623  PHE694  ASN695  SER759  ASP760  ASP761  ALA762  ILE779  LEU786  VAL792 
 PHE793  MET794  SER795  GLU796  ALA797  LYS798  CYS799  TRP800  GLU811  SER814 

> <Gold.Protein.RotatedAtoms>
  150.9617  134.9004  159.7734 H   0  0  0  0  0  0  0  0  0  0  0  0  # atno 6907 bound_to 6896
  152.5158  134.3664  159.9312 H   0  0  0  0  0  0  0  0  0  0  0  0  # atno 6908 bound_to 6896
  151.3675  133.3826  159.2731 H   0  0  0  0  0  0  0  0  0  0  0  0  # atno 6909 bound_to 6896
  145.4836  140.9556  143.1851 H   0  0  0  0  0  0  0  0  0  0  0  0  # atno 7974 bound_to 7965
  154.3997  140.1444  156.3541 H   0  0  0  0  0  0  0  0  0  0  0  0  # atno 8008 bound_to 7997
  155.8241  140.3468  155.5511 H   0  0  0  0  0  0  0  0  0  0  0  0  # atno 8009 bound_to 7997
  155.8257  140.0904  157.1813 H   0  0  0  0  0  0  0  0  0  0  0  0  # atno 8010 bound_to 7997
  140.3844  143.2734  151.9344 H   0  0  0  0  0  0  0  0  0  0  0  0  # atno 10167 bound_to 10162
  156.2037  130.6874  151.0569 H   0  0  0  0  0  0  0  0  0  0  0  0  # atno 10718 bound_to 10713
  153.4912  135.7017  153.5883 H   0  0  0  0  0  0  0  0  0  0  0  0  # atno 10763 bound_to 10752
  153.4055  135.3861  155.2016 H   0  0  0  0  0  0  0  0  0  0  0  0  # atno 10764 bound_to 10752
  154.8716  135.3892  154.4373 H   0  0  0  0  0  0  0  0  0  0  0  0  # atno 10765 bound_to 10752
  140.0171  134.6208  155.9693 H   0  0  0  0  0  0  0  0  0  0  0  0  # atno 11005 bound_to 11000
  144.7874  139.6398  143.7128 LP  0  0  0  0  0  0  0  0  0  0  0  0  # atno 17320 bound_to 7965
  146.2326  139.5843  142.9545 LP  0  0  0  0  0  0  0  0  0  0  0  0  # atno 17321 bound_to 7965
  139.4793  144.5788  151.7967 LP  0  0  0  0  0  0  0  0  0  0  0  0  # atno 17342 bound_to 10162
  140.4905  144.1318  150.5949 LP  0  0  0  0  0  0  0  0  0  0  0  0  # atno 17343 bound_to 10162
  157.7000  131.0779  150.6849 LP  0  0  0  0  0  0  0  0  0  0  0  0  # atno 17370 bound_to 10713
  156.6907  130.4594  149.5600 LP  0  0  0  0  0  0  0  0  0  0  0  0  # atno 17371 bound_to 10713
  141.1750  133.6539  156.4794 LP  0  0  0  0  0  0  0  0  0  0  0  0  # atno 17394 bound_to 11000
  140.4452  134.6979  157.5012 LP  0  0  0  0  0  0  0  0  0  0  0  0  # atno 17395 bound_to 11000

$$$$
