AV-unprocessed.smi:249|AV-procd|sdf|1916|dock9
  -GOLD-   2262021 13D 1   1.00000     0.00000
 Structure written by MMmdl.
 64 67  0  0  0  0  0  0  0  0  2 V2000
  142.8978  133.0427  151.1396 C   0  0  0  0  0  0  0  0  0  0  0  0
  143.9859  133.8310  151.8849 C   0  0  0  0  0  0  0  0  0  0  0  0
  145.2438  133.9849  151.0960 N   0  3  2  0  0  0  0  0  0  0  0  0
  145.9822  132.7093  150.8732 C   0  0  0  0  0  0  0  0  0  0  0  0
  146.6853  132.2179  152.1531 C   0  0  0  0  0  0  0  0  0  0  0  0
  147.6263  133.3034  152.7117 C   0  0  2  0  0  0  0  0  0  0  0  0
  148.3220  132.8726  153.9297 N   0  0  0  0  0  0  0  0  0  0  0  0
  149.6571  133.3903  154.2286 C   0  0  0  0  0  0  0  0  0  0  0  0
  147.5172  132.6191  154.9940 C   0  0  0  0  0  0  0  0  0  0  0  0
  146.5391  131.6798  154.8904 N   0  0  0  0  0  0  0  0  0  0  0  0
  145.7543  131.4049  155.9362 C   0  0  0  0  0  0  0  0  0  0  0  0
  145.7772  131.9379  157.1589 N   0  0  0  0  0  0  0  0  0  0  0  0
  146.7530  132.8838  157.2691 C   0  0  0  0  0  0  0  0  0  0  0  0
  147.6540  133.2872  156.2436 C   0  0  0  0  0  0  0  0  0  0  0  0
  148.4914  134.2909  156.7171 N   0  0  0  0  0  0  0  0  0  0  0  0
  148.1137  134.4638  157.9542 C   0  0  0  0  0  0  0  0  0  0  0  0
  147.0938  133.6409  158.3769 N   0  0  0  0  0  0  0  0  0  0  0  0
  146.4861  133.6262  159.6959 C   0  0  0  0  0  0  0  0  0  0  0  0
  147.4812  133.4619  160.8794 C   0  0  2  0  0  0  0  0  0  0  0  0
  146.9511  132.3642  161.8339 C   0  0  0  0  0  0  0  0  0  0  0  0
  146.9018  131.1046  161.1956 O   0  0  0  0  0  0  0  0  0  0  0  0
  147.7628  134.7892  161.6474 C   0  0  2  0  0  0  0  0  0  0  0  0
  146.5650  135.4372  162.3288 C   0  0  0  0  0  0  0  0  0  0  0  0
  147.0180  136.8788  162.5332 C   0  0  0  0  0  0  0  0  0  0  0  0
  147.9440  137.1497  161.4906 O   0  0  0  0  0  0  0  0  0  0  0  0
  148.2038  135.9595  160.7574 C   0  0  0  0  0  0  0  0  0  0  0  0
  146.8654  134.6306  152.8984 C   0  0  0  0  0  0  0  0  0  0  0  0
  146.1747  135.0491  151.5836 C   0  0  2  0  0  0  0  0  0  0  0  0
  145.5268  136.4423  151.6744 C   0  0  0  0  0  0  0  0  0  0  0  0
  141.9538  133.0911  151.6831 H   0  0  0  0  0  0  0  0  0  0  0  0
  143.1490  131.9875  151.0377 H   0  0  0  0  0  0  0  0  0  0  0  0
  142.7239  133.4507  150.1435 H   0  0  0  0  0  0  0  0  0  0  0  0
  143.5621  134.8107  152.0960 H   0  0  0  0  0  0  0  0  0  0  0  0
  144.1846  133.3714  152.8528 H   0  0  0  0  0  0  0  0  0  0  0  0
  145.3291  131.9346  150.4755 H   0  0  0  0  0  0  0  0  0  0  0  0
  146.7310  132.8792  150.0982 H   0  0  0  0  0  0  0  0  0  0  0  0
  145.9426  131.9314  152.8978 H   0  0  0  0  0  0  0  0  0  0  0  0
  147.2534  131.3142  151.9288 H   0  0  0  0  0  0  0  0  0  0  0  0
  148.3702  133.4905  151.9379 H   0  0  0  0  0  0  0  0  0  0  0  0
  150.0994  132.8550  155.0697 H   0  0  0  0  0  0  0  0  0  0  0  0
  149.6196  134.4502  154.4817 H   0  0  0  0  0  0  0  0  0  0  0  0
  150.3295  133.2651  153.3813 H   0  0  0  0  0  0  0  0  0  0  0  0
  145.0030  130.6465  155.7713 H   0  0  0  0  0  0  0  0  0  0  0  0
  148.5822  135.1912  158.6011 H   0  0  0  0  0  0  0  0  0  0  0  0
  145.9123  134.5450  159.8232 H   0  0  0  0  0  0  0  0  0  0  0  0
  145.7587  132.8142  159.6922 H   0  0  0  0  0  0  0  0  0  0  0  0
  148.4333  133.1039  160.4863 H   0  0  0  0  0  0  0  0  0  0  0  0
  147.5967  132.2410  162.7020 H   0  0  0  0  0  0  0  0  0  0  0  0
  145.9587  132.6202  162.2063 H   0  0  0  0  0  0  0  0  0  0  0  0
  147.7639  130.8992  160.8675 H   0  0  0  0  0  0  0  0  0  0  0  0
  148.5383  134.6166  162.3952 H   0  0  0  0  0  0  0  0  0  0  0  0
  145.6933  135.4094  161.6732 H   0  0  0  0  0  0  0  0  0  0  0  0
  146.2942  134.9774  163.2770 H   0  0  0  0  0  0  0  0  0  0  0  0
  146.1835  137.5803  162.5171 H   0  0  0  0  0  0  0  0  0  0  0  0
  147.5327  136.9856  163.4889 H   0  0  0  0  0  0  0  0  0  0  0  0
  149.2571  135.9058  160.4816 H   0  0  0  0  0  0  0  0  0  0  0  0
  147.6142  135.9888  159.8398 H   0  0  0  0  0  0  0  0  0  0  0  0
  146.1228  134.5495  153.6916 H   0  0  0  0  0  0  0  0  0  0  0  0
  147.5650  135.4070  153.2105 H   0  0  0  0  0  0  0  0  0  0  0  0
  146.9518  135.1372  150.8224 H   0  0  0  0  0  0  0  0  0  0  0  0
  146.2883  137.2086  151.8233 H   0  0  0  0  0  0  0  0  0  0  0  0
  144.8325  136.5223  152.5108 H   0  0  0  0  0  0  0  0  0  0  0  0
  144.9897  136.6904  150.7585 H   0  0  0  0  0  0  0  0  0  0  0  0
  144.9423  134.2907  150.1818 H   0  0  0  0  0  0  0  0  0  0  0  0
  1  2  1  0  0  0  0
  1 30  1  0  0  0  0
  1 31  1  0  0  0  0
  1 32  1  0  0  0  0
  2  3  1  0  0  0  0
  2 33  1  0  0  0  0
  2 34  1  0  0  0  0
  3 28  1  0  0  0  0
  3  4  1  0  0  0  0
  3 64  1  0  0  0  0
  4  5  1  0  0  0  0
  4 35  1  0  0  0  0
  4 36  1  0  0  0  0
  5  6  1  0  0  0  0
  5 37  1  0  0  0  0
  5 38  1  0  0  0  0
  6  7  1  0  0  0  0
  6 27  1  0  0  0  0
  6 39  1  0  0  0  0
  7  8  1  0  0  0  0
  7  9  1  0  0  0  0
  8 40  1  0  0  0  0
  8 41  1  0  0  0  0
  8 42  1  0  0  0  0
  9 14  1  0  0  0  0
  9 10  2  0  0  0  0
 10 11  1  0  0  0  0
 11 12  2  0  0  0  0
 11 43  1  0  0  0  0
 12 13  1  0  0  0  0
 13 17  1  0  0  0  0
 13 14  2  0  0  0  0
 14 15  1  0  0  0  0
 15 16  2  0  0  0  0
 16 17  1  0  0  0  0
 16 44  1  0  0  0  0
 17 18  1  0  0  0  0
 18 19  1  0  0  0  0
 18 45  1  0  0  0  0
 18 46  1  0  0  0  0
 19 20  1  0  0  0  0
 19 22  1  0  0  0  0
 19 47  1  0  0  0  0
 20 21  1  0  0  0  0
 20 48  1  0  0  0  0
 20 49  1  0  0  0  0
 21 50  1  0  0  0  0
 22 26  1  0  0  0  0
 22 23  1  0  0  0  0
 22 51  1  0  0  0  0
 23 24  1  0  0  0  0
 23 52  1  0  0  0  0
 23 53  1  0  0  0  0
 24 25  1  0  0  0  0
 24 54  1  0  0  0  0
 24 55  1  0  0  0  0
 25 26  1  0  0  0  0
 26 56  1  0  0  0  0
 26 57  1  0  0  0  0
 27 28  1  0  0  0  0
 27 58  1  0  0  0  0
 27 59  1  0  0  0  0
 28 29  1  0  0  0  0
 28 60  1  0  0  0  0
 29 61  1  0  0  0  0
 29 62  1  0  0  0  0
 29 63  1  0  0  0  0
M  CHG  1   3   1
M  END
> <s_m_source_file>
AV-unprocessed.smi

> <i_m_source_file_index>
249

> <i_lp_mmshare_version>
43012

> <i_f3d_flags>
0

> <s_epik_input>
W0NIM11bQ0gyXU4xW0NIMl1bQ0gyXVtDQEhdKFtDSDJdW0NASF0xW0NIM10pTihbQ0gzXSljKG5bY0hdbjIpYyhjMjMpbltjSF1uM1tDSDJdW0NASF0oW0NIMl1bT0hdKVtDQEBIXTRbQ0gyXVtDSDJdT1tDSDJdNA==

> <s_epik_cmdline>
J2VwaWtfcHl0aG9uJywgJy1waCcsICc3LjAnLCAnLXRuJywgJzgnLCAnLW1hJywgJzIwMCcsICctbWV0YWxfYmluZGluZycsICctaW1hZScsICc8aW5maWxlLm1hZT4nLCAnLW9tYWUnLCAnPG91dGZpbGUubWFlPic=

> <r_lp_tautomer_probability>
1

> <r_epik_Ionization_Penalty>
0.00294688

> <r_epik_Ionization_Penalty_Charging>
0.00169971

> <r_epik_Ionization_Penalty_Neutral>
0.00124717

> <r_epik_State_Penalty>
-0

> <r_epik_Charging_Adjusted_Penalty>
0.00169971

> <i_epik_Tot_Q>
1

> <i_epik_Tot_abs_Q>
1

> <r_epik_Metal_State_Penalty>
-0

> <b_epik_Metal_Only>
0

> <s_lp_Force_Field>
OPLS_2005

> <r_lp_Energy>
55.1027

> <b_lp_Chiralities_Consistent>
1

> <s_lp_Variant>
AV-unprocessed.smi:249-19

> <Gold.Version>
5.8.1

> <Gold.Id.Protein>
6NUR|6NUR_protein|mol2

> <Gold.PLP.Fitness>
43.7358

> <Gold.PLP.PLP>
-37.8604

> <Gold.PLP.part.hbond>
-2.0000

> <Gold.PLP.part.metal>
0.0000

> <Gold.PLP.part.buried>
-0.1699

> <Gold.PLP.part.nonpolar>
-36.0412

> <Gold.PLP.part.repulsive>
0.2102

> <Gold.PLP.ligand.clash>
0.0000

> <Gold.PLP.ligand.torsion>
1.8901

> <Gold.PLP.Chemscore.Hbond>
1.8080

> <Gold.PLP.Chemscore.CHOScore>
1.0000

> <Gold.PLP.Chemscore.Metal>
0.0000

> <Gold.Chemscore.Hbonds>
donor molecule, donor type, donor heavy atom, donor atom, acceptor molecule, acceptor atom, score
      P1  H  6931  6943       L1    25  1.00
      P1  H  6934  6947       L1    25  0.51
      L1  C    11    43       P1 10956  1.00

> <Gold.PLP.Chemscore.Internal.Correction>
1.2316

> <Gold.Rescore>
     Score         DG    S(hbond)    S(metal)    S(lipo)     H(rot)  DE(clash)    DE(int)     intcor
     10.83     -15.43       1.41        0.00     102.80       2.65       0.05       4.55       ----

> <Gold.Chemscore.Fitness>
10.8332

> <Gold.Chemscore.DG>
-15.4338

> <Gold.Chemscore.ZeroCoef>
-5.4800

> <Gold.Chemscore.Hbond>
1.4113

> <Gold.Chemscore.Metal>
0.0000

> <Gold.Chemscore.Lipo>
102.8040

> <Gold.Chemscore.Internal_Hbond>
0.0000

> <Gold.Chemscore.DEClash>
0.0538

> <Gold.Chemscore.DEInternal>
4.5469

> <Gold.Chemscore.Rot>
2.6515

> <Gold.Chemscore.Internal.Correction>
   9.000000E+99

> <Gold.Chemscore.Hbonds>
donor molecule, donor type, donor heavy atom, donor atom, acceptor molecule, acceptor atom, score
      P1  H  6931  6943       L1    25  0.80
      P1  H  6934  6947       L1    25  0.10

> <Gold.Chemscore.Hbond.Weighted>
-4.7137

> <Gold.Chemscore.Metal.Weighted>
-0.0000

> <Gold.Chemscore.Lipo.Weighted>
-12.0281

> <Gold.Chemscore.Internal_Hbond.Weighted>
0.0000

> <Gold.Chemscore.DEClash.Weighted>
0.0538

> <Gold.Chemscore.DEInternal.Weighted>
4.5469

> <Gold.Chemscore.Rot.Weighted>
6.7880

> <Gold.Chemscore.Internal.Correction.Weighted>
   9.000000E+99

> <Gold.Protein.RotatedTorsions>
[ 6907 6896 6895 6894 ] final  103.01 input  -60.11 | X-H torsion
[ 7974 7965 7964 7962 ] final  -20.74 input  175.53 | X-H torsion
[ 8008 7997 7996 7995 ] final -164.24 input   59.86 | X-H torsion
[ 10167 10162 10161 10158 ] final  127.23 input  -65.29 | X-H torsion
[ 10718 10713 10712 10709 ] final   29.26 input   66.30 | X-H torsion
[ 10763 10752 10751 10750 ] final   59.65 input  -60.55 | X-H torsion
[ 11005 11000 10999 10996 ] final   12.37 input  -57.11 | X-H torsion

> <Gold.Protein.ActiveResidues>
 VAL166  LYS551  ARG553  GLY616  TRP617  ASP618  TYR619  PRO620  LYS621  CYS622 
 ASP623  PHE694  ASN695  SER759  ASP760  ASP761  ALA762  ILE779  LEU786  VAL792 
 PHE793  MET794  SER795  GLU796  ALA797  LYS798  CYS799  TRP800  GLU811  SER814 

> <Gold.Protein.RotatedAtoms>
  152.5308  133.9890  159.7841 H   0  0  0  0  0  0  0  0  0  0  0  0  # atno 6907 bound_to 6896
  151.0129  133.5940  159.2687 H   0  0  0  0  0  0  0  0  0  0  0  0  # atno 6908 bound_to 6896
  151.3008  135.0775  159.9291 H   0  0  0  0  0  0  0  0  0  0  0  0  # atno 6909 bound_to 6896
  146.1772  140.4244  142.8509 H   0  0  0  0  0  0  0  0  0  0  0  0  # atno 7974 bound_to 7965
  155.8328  140.0936  157.1782 H   0  0  0  0  0  0  0  0  0  0  0  0  # atno 8008 bound_to 7997
  154.3980  140.1415  156.3695 H   0  0  0  0  0  0  0  0  0  0  0  0  # atno 8009 bound_to 7997
  155.8147  140.3448  155.5481 H   0  0  0  0  0  0  0  0  0  0  0  0  # atno 8010 bound_to 7997
  139.5589  144.6868  151.4100 H   0  0  0  0  0  0  0  0  0  0  0  0  # atno 10167 bound_to 10162
  157.2442  130.7084  149.6373 H   0  0  0  0  0  0  0  0  0  0  0  0  # atno 10718 bound_to 10713
  152.9900  135.5564  154.5746 H   0  0  0  0  0  0  0  0  0  0  0  0  # atno 10763 bound_to 10752
  154.5140  135.2804  155.1321 H   0  0  0  0  0  0  0  0  0  0  0  0  # atno 10764 bound_to 10752
  154.2701  135.6364  153.5360 H   0  0  0  0  0  0  0  0  0  0  0  0  # atno 10765 bound_to 10752
  140.4928  134.0824  155.7775 H   0  0  0  0  0  0  0  0  0  0  0  0  # atno 11005 bound_to 11000
  144.8255  140.6621  143.6325 LP  0  0  0  0  0  0  0  0  0  0  0  0  # atno 17320 bound_to 7965
  145.4179  139.1569  143.4090 LP  0  0  0  0  0  0  0  0  0  0  0  0  # atno 17321 bound_to 7965
  140.6866  143.7959  150.7195 LP  0  0  0  0  0  0  0  0  0  0  0  0  # atno 17342 bound_to 10162
  140.1429  143.4425  152.2182 LP  0  0  0  0  0  0  0  0  0  0  0  0  # atno 17343 bound_to 10162
  155.9668  130.4448  150.5477 LP  0  0  0  0  0  0  0  0  0  0  0  0  # atno 17370 bound_to 10713
  157.3346  131.0706  151.1834 LP  0  0  0  0  0  0  0  0  0  0  0  0  # atno 17371 bound_to 10713
  141.1475  133.9028  157.2179 LP  0  0  0  0  0  0  0  0  0  0  0  0  # atno 17394 bound_to 11000
  139.9759  135.0114  156.9630 LP  0  0  0  0  0  0  0  0  0  0  0  0  # atno 17395 bound_to 11000

$$$$
