AV-unprocessed.smi:12|AV-procd|sdf|66|dock9
  -GOLD-   2262015183D 1   1.00000     0.00000
 Structure written by MMmdl.
 41 44  0  0  0  0  0  0  0  0  1 V2000
  152.2245  142.2864  158.7507 C   0  0  0  0  0  0  0  0  0  0  0  0
  151.6584  141.5089  157.5761 C   0  0  0  0  0  0  0  0  0  0  0  0
  150.7240  142.0419  156.7539 C   0  0  0  0  0  0  0  0  0  0  0  0
  150.2443  141.2979  155.7124 N   0  0  0  0  0  0  0  0  0  0  0  0
  150.7388  139.9934  155.4969 C   0  0  0  0  0  0  0  0  0  0  0  0
  151.6309  139.4135  156.2382 N   0  0  0  0  0  0  0  0  0  0  0  0
  152.1494  140.1287  157.3349 C   0  0  0  0  0  0  0  0  0  0  0  0
  152.9919  139.6172  158.0712 O   0  0  0  0  0  0  0  0  0  0  0  0
  150.1406  139.4706  154.3910 O   0  0  0  0  0  0  0  0  0  0  0  0
  149.2348  140.4300  153.8291 C   0  0  1  0  0  0  0  0  0  0  0  0
  147.7908  139.9449  153.9205 C   0  0  2  0  0  0  0  0  0  0  0  0
  147.2942  139.6056  152.6413 O   0  0  0  0  0  0  0  0  0  0  0  0
  147.0445  141.1474  154.5066 C   0  0  1  0  0  0  0  0  0  0  0  0
  145.7943  140.7851  155.3179 C   0  0  0  0  0  0  0  0  0  0  0  0
  144.9337  141.9107  155.3810 O   0  0  0  0  0  0  0  0  0  0  0  0
  145.0639  142.8072  156.3777 C   0  0  0  0  0  0  0  0  0  0  0  0
  145.5679  142.5434  157.4712 O   0  0  0  0  0  0  0  0  0  0  0  0
  144.5366  144.1550  156.0169 C   0  0  0  0  0  0  0  0  0  0  0  0
  144.1212  144.4041  154.6877 C   0  0  0  0  0  0  0  0  0  0  0  0
  143.6149  145.6656  154.3187 C   0  0  0  0  0  0  0  0  0  0  0  0
  143.5188  146.6942  155.2742 C   0  0  0  0  0  0  0  0  0  0  0  0
  143.9314  146.4601  156.5989 C   0  0  0  0  0  0  0  0  0  0  0  0
  144.4373  145.1989  156.9699 C   0  0  0  0  0  0  0  0  0  0  0  0
  148.0066  141.7571  155.3518 O   0  0  0  0  0  0  0  0  0  0  0  0
  149.2437  141.6868  154.7201 C   0  0  1  0  0  0  0  0  0  0  0  0
  151.7796  143.2797  158.8196 H   0  0  0  0  0  0  0  0  0  0  0  0
  153.3030  142.4066  158.6447 H   0  0  0  0  0  0  0  0  0  0  0  0
  152.0263  141.7628  159.6864 H   0  0  0  0  0  0  0  0  0  0  0  0
  150.3492  143.0428  156.9112 H   0  0  0  0  0  0  0  0  0  0  0  0
  149.5319  140.7103  152.8173 H   0  0  0  0  0  0  0  0  0  0  0  0
  147.7204  139.0876  154.5919 H   0  0  0  0  0  0  0  0  0  0  0  0
  148.0237  139.5449  152.0433 H   0  0  0  0  0  0  0  0  0  0  0  0
  146.7950  141.8651  153.7224 H   0  0  0  0  0  0  0  0  0  0  0  0
  145.2780  139.9357  154.8684 H   0  0  0  0  0  0  0  0  0  0  0  0
  146.0828  140.4959  156.3295 H   0  0  0  0  0  0  0  0  0  0  0  0
  144.1845  143.6298  153.9367 H   0  0  0  0  0  0  0  0  0  0  0  0
  143.2995  145.8434  153.3010 H   0  0  0  0  0  0  0  0  0  0  0  0
  143.1294  147.6612  154.9913 H   0  0  0  0  0  0  0  0  0  0  0  0
  143.8594  147.2490  157.3331 H   0  0  0  0  0  0  0  0  0  0  0  0
  144.7445  145.0537  157.9954 H   0  0  0  0  0  0  0  0  0  0  0  0
  149.5942  142.6072  154.2517 H   0  0  0  0  0  0  0  0  0  0  0  0
  1  2  1  0  0  0  0
  1 26  1  0  0  0  0
  1 27  1  0  0  0  0
  1 28  1  0  0  0  0
  2  7  1  0  0  0  0
  2  3  2  0  0  0  0
  3  4  1  0  0  0  0
  3 29  1  0  0  0  0
  4 25  1  0  0  0  0
  4  5  1  0  0  0  0
  5  6  2  0  0  0  0
  5  9  1  0  0  0  0
  6  7  1  0  0  0  0
  7  8  2  0  0  0  0
  9 10  1  0  0  0  0
 10 25  1  0  0  0  0
 10 11  1  0  0  0  0
 10 30  1  0  0  0  0
 11 12  1  0  0  0  0
 11 13  1  0  0  0  0
 11 31  1  0  0  0  0
 12 32  1  0  0  0  0
 13 14  1  0  0  0  0
 13 24  1  0  0  0  0
 13 33  1  0  0  0  0
 14 15  1  0  0  0  0
 14 34  1  0  0  0  0
 14 35  1  0  0  0  0
 15 16  1  0  0  0  0
 16 17  2  0  0  0  0
 16 18  1  0  0  0  0
 18 23  1  0  0  0  0
 18 19  2  0  0  0  0
 19 20  1  0  0  0  0
 19 36  1  0  0  0  0
 20 21  2  0  0  0  0
 20 37  1  0  0  0  0
 21 22  1  0  0  0  0
 21 38  1  0  0  0  0
 22 23  2  0  0  0  0
 22 39  1  0  0  0  0
 23 40  1  0  0  0  0
 24 25  1  0  0  0  0
 25 41  1  0  0  0  0
M  END
> <s_m_source_file>
AV-unprocessed.smi

> <i_m_source_file_index>
12

> <i_lp_mmshare_version>
43012

> <i_f3d_flags>
0

> <s_epik_input>
W0NIM11jKFtjSF0xKWMoPU8pbmMobjEyKU9bQ0BIXTNbQ0BASF0yT1tDQEBIXShbQ0BASF0zW09IXSlbQ0gyXU9DKD1PKWM0W2NIXVtjSF1bY0hdW2NIXVtjSF00

> <s_epik_cmdline>
J2VwaWtfcHl0aG9uJywgJy1waCcsICc3LjAnLCAnLXRuJywgJzgnLCAnLW1hJywgJzIwMCcsICctbWV0YWxfYmluZGluZycsICctaW1hZScsICc8aW5maWxlLm1hZT4nLCAnLW9tYWUnLCAnPG91dGZpbGUubWFlPic=

> <r_lp_tautomer_probability>
0.933681

> <r_epik_Ionization_Penalty>
0.00399549

> <r_epik_Ionization_Penalty_Charging>
3.09373e-09

> <r_epik_Ionization_Penalty_Neutral>
0.00399549

> <r_epik_State_Penalty>
0.00284953

> <r_epik_Charging_Adjusted_Penalty>
0.00284953

> <i_epik_Tot_Q>
0

> <i_epik_Tot_abs_Q>
0

> <r_epik_Metal_State_Penalty>
-0

> <b_epik_Metal_Only>
0

> <s_epik_Chemistry_Notes>
This compound has an ester and may undergo hydrolysis at high or low pH. This compound contains an acetal/aminal-like group ( X-CH(R)-Y where X, Y are N, S, or O) that may be acid/base labile, releasing an aldehyde.

> <s_lp_Force_Field>
OPLS_2005

> <r_lp_Energy>
41.0284

> <b_lp_Chiralities_Consistent>
1

> <s_lp_Variant>
AV-unprocessed.smi:12-6

> <Gold.Version>
5.8.1

> <Gold.Id.Protein>
6NUR|6NUR_protein|mol2

> <Gold.PLP.Fitness>
45.4098

> <Gold.PLP.PLP>
-38.0037

> <Gold.PLP.part.hbond>
-2.4730

> <Gold.PLP.part.metal>
0.0000

> <Gold.PLP.part.buried>
-1.2473

> <Gold.PLP.part.nonpolar>
-34.8411

> <Gold.PLP.part.repulsive>
0.7064

> <Gold.PLP.ligand.clash>
0.0000

> <Gold.PLP.ligand.torsion>
0.8010

> <Gold.PLP.Chemscore.Hbond>
2.0000

> <Gold.PLP.Chemscore.CHOScore>
1.0000

> <Gold.PLP.Chemscore.Metal>
0.0000

> <Gold.Chemscore.Hbonds>
donor molecule, donor type, donor heavy atom, donor atom, acceptor molecule, acceptor atom, score
      L1  H    12    32       P1  7957  1.00
      P1  H  7997  8010       L1     8  0.95
      L1  C     3    29       P1  8028  0.96

> <Gold.PLP.Chemscore.Internal.Correction>
0.0080

> <Gold.Rescore>
     Score         DG    S(hbond)    S(metal)    S(lipo)     H(rot)  DE(clash)    DE(int)     intcor
     12.30     -14.95       1.70        0.00      80.21       2.18       1.90       0.75       ----

> <Gold.Chemscore.Fitness>
12.2983

> <Gold.Chemscore.DG>
-14.9460

> <Gold.Chemscore.ZeroCoef>
-5.4800

> <Gold.Chemscore.Hbond>
1.6952

> <Gold.Chemscore.Metal>
0.0000

> <Gold.Chemscore.Lipo>
80.2126

> <Gold.Chemscore.Internal_Hbond>
0.0000

> <Gold.Chemscore.DEClash>
1.8992

> <Gold.Chemscore.DEInternal>
0.7484

> <Gold.Chemscore.Rot>
2.1800

> <Gold.Chemscore.Internal.Correction>
   9.000000E+99

> <Gold.Chemscore.Hbonds>
donor molecule, donor type, donor heavy atom, donor atom, acceptor molecule, acceptor atom, score
      L1  H    12    32       P1  7957  1.00
      P1  H  7997  8010       L1     8  0.21

> <Gold.Chemscore.Hbond.Weighted>
-5.6618

> <Gold.Chemscore.Metal.Weighted>
-0.0000

> <Gold.Chemscore.Lipo.Weighted>
-9.3849

> <Gold.Chemscore.Internal_Hbond.Weighted>
0.0000

> <Gold.Chemscore.DEClash.Weighted>
1.8992

> <Gold.Chemscore.DEInternal.Weighted>
0.7484

> <Gold.Chemscore.Rot.Weighted>
5.5807

> <Gold.Chemscore.Internal.Correction.Weighted>
   9.000000E+99

> <Gold.Protein.RotatedTorsions>
[ 6907 6896 6895 6894 ] final  179.43 input  -60.11 | X-H torsion
[ 7974 7965 7964 7962 ] final  -17.65 input  175.53 | X-H torsion
[ 8008 7997 7996 7995 ] final   34.10 input   59.86 | X-H torsion
[ 10167 10162 10161 10158 ] final   63.84 input  -65.29 | X-H torsion
[ 10718 10713 10712 10709 ] final    0.17 input   66.30 | X-H torsion
[ 10763 10752 10751 10750 ] final -142.83 input  -60.55 | X-H torsion
[ 11005 11000 10999 10996 ] final -178.52 input  -57.11 | X-H torsion

> <Gold.Protein.ActiveResidues>
 VAL166  LYS551  ARG553  GLY616  TRP617  ASP618  TYR619  PRO620  LYS621  CYS622 
 ASP623  PHE694  ASN695  SER759  ASP760  ASP761  ALA762  ILE779  LEU786  VAL792 
 PHE793  MET794  SER795  GLU796  ALA797  LYS798  CYS799  TRP800  GLU811  SER814 

> <Gold.Protein.RotatedAtoms>
  151.6717  133.3314  159.3197 H   0  0  0  0  0  0  0  0  0  0  0  0  # atno 6907 bound_to 6896
  150.7864  134.6856  159.6478 H   0  0  0  0  0  0  0  0  0  0  0  0  # atno 6908 bound_to 6896
  152.3935  134.6407  160.0150 H   0  0  0  0  0  0  0  0  0  0  0  0  # atno 6909 bound_to 6896
  146.1931  140.3809  142.8451 H   0  0  0  0  0  0  0  0  0  0  0  0  # atno 7974 bound_to 7965
  155.1494  140.3273  155.4434 H   0  0  0  0  0  0  0  0  0  0  0  0  # atno 8008 bound_to 7997
  156.2579  140.1979  156.6556 H   0  0  0  0  0  0  0  0  0  0  0  0  # atno 8009 bound_to 7997
  154.6484  140.0561  156.9914 H   0  0  0  0  0  0  0  0  0  0  0  0  # atno 8010 bound_to 7997
  140.1287  144.4663  150.6877 H   0  0  0  0  0  0  0  0  0  0  0  0  # atno 10167 bound_to 10162
  156.8294  130.5483  149.5688 H   0  0  0  0  0  0  0  0  0  0  0  0  # atno 10718 bound_to 10713
  154.8494  135.3485  154.6091 H   0  0  0  0  0  0  0  0  0  0  0  0  # atno 10763 bound_to 10752
  153.6699  135.6985  153.5155 H   0  0  0  0  0  0  0  0  0  0  0  0  # atno 10764 bound_to 10752
  153.2750  135.4281  155.0981 H   0  0  0  0  0  0  0  0  0  0  0  0  # atno 10765 bound_to 10752
  140.4289  134.6537  157.4702 H   0  0  0  0  0  0  0  0  0  0  0  0  # atno 11005 bound_to 11000
  144.8525  140.7023  143.6159 LP  0  0  0  0  0  0  0  0  0  0  0  0  # atno 17320 bound_to 7965
  145.3730  139.1654  143.4321 LP  0  0  0  0  0  0  0  0  0  0  0  0  # atno 17321 bound_to 7965
  140.6830  143.2336  151.5335 LP  0  0  0  0  0  0  0  0  0  0  0  0  # atno 17342 bound_to 10162
  139.5531  144.2345  152.1565 LP  0  0  0  0  0  0  0  0  0  0  0  0  # atno 17343 bound_to 10162
  156.0943  130.5920  150.9787 LP  0  0  0  0  0  0  0  0  0  0  0  0  # atno 17370 bound_to 10713
  157.6415  131.0909  150.8241 LP  0  0  0  0  0  0  0  0  0  0  0  0  # atno 17371 bound_to 10713
  140.0148  134.6635  155.9326 LP  0  0  0  0  0  0  0  0  0  0  0  0  # atno 17394 bound_to 11000
  141.1754  133.6540  156.4808 LP  0  0  0  0  0  0  0  0  0  0  0  0  # atno 17395 bound_to 11000

$$$$
