AV-unprocessed.smi:2123|AV-procd|sdf|8649|dock2
  -GOLD-   2272011393D 1   1.00000     0.00000
 Structure written by MMmdl.
 47 48  0  0  0  0  0  0  0  0  1 V2000
  149.0866  131.7456  153.2007 C   0  0  0  0  0  0  0  0  0  0  0  0
  148.4684  133.3896  153.6441 S   0  0  0  0  0  0  0  0  0  0  0  0
  149.9770  134.0893  154.3652 C   0  0  0  0  0  0  0  0  0  0  0  0
  149.6581  135.2563  155.3150 C   0  0  0  0  0  0  0  0  0  0  0  0
  150.6868  136.3905  155.2588 C   0  0  0  0  0  0  0  0  0  0  0  0
  151.4340  136.6148  156.2117 O   0  0  0  0  0  0  0  0  0  0  0  0
  150.7111  137.1031  154.1220 N   0  0  0  0  0  0  0  0  0  0  0  0
  151.6020  138.2253  153.8486 C   0  0  0  0  0  0  0  0  0  0  0  0
  151.6092  139.2539  154.9650 C   0  0  0  0  0  0  0  0  0  0  0  0
  150.6795  140.3116  154.9818 C   0  0  0  0  0  0  0  0  0  0  0  0
  150.7254  141.2432  156.0366 C   0  0  0  0  0  0  0  0  0  0  0  0
  151.6986  141.0896  157.0532 C   0  0  0  0  0  0  0  0  0  0  0  0
  151.7690  142.0151  158.1173 N   0  0  0  0  0  0  0  0  0  0  0  0
  151.7868  143.4399  157.7922 C   0  0  0  0  0  0  0  0  0  0  0  0
  151.5214  144.2972  159.0449 C   0  0  1  0  0  0  0  0  0  0  0  0
  150.0464  144.2994  159.4851 C   0  0  0  0  0  0  0  0  0  0  0  0
  152.4007  143.9105  160.1033 O   0  0  0  0  0  0  0  0  0  0  0  0
  152.3400  142.5289  160.4555 C   0  0  2  0  0  0  0  0  0  0  0  0
  153.3355  142.2867  161.5950 C   0  0  0  0  0  0  0  0  0  0  0  0
  152.6576  141.6658  159.2210 C   0  0  0  0  0  0  0  0  0  0  0  0
  152.5921  140.0693  157.0298 N   0  0  0  0  0  0  0  0  0  0  0  0
  152.5452  139.1800  156.0159 C   0  0  0  0  0  0  0  0  0  0  0  0
  148.2934  131.1568  152.7401 H   0  0  0  0  0  0  0  0  0  0  0  0
  149.4386  131.2189  154.0878 H   0  0  0  0  0  0  0  0  0  0  0  0
  149.9125  131.8276  152.4940 H   0  0  0  0  0  0  0  0  0  0  0  0
  150.5049  133.2965  154.8972 H   0  0  0  0  0  0  0  0  0  0  0  0
  150.6259  134.4232  153.5547 H   0  0  0  0  0  0  0  0  0  0  0  0
  148.6765  135.6652  155.0715 H   0  0  0  0  0  0  0  0  0  0  0  0
  149.6017  134.8920  156.3414 H   0  0  0  0  0  0  0  0  0  0  0  0
  150.0630  136.8480  153.3909 H   0  0  0  0  0  0  0  0  0  0  0  0
  152.6204  137.8766  153.6680 H   0  0  0  0  0  0  0  0  0  0  0  0
  151.2773  138.7004  152.9225 H   0  0  0  0  0  0  0  0  0  0  0  0
  149.9447  140.4144  154.1972 H   0  0  0  0  0  0  0  0  0  0  0  0
  150.0294  142.0686  156.0434 H   0  0  0  0  0  0  0  0  0  0  0  0
  152.7638  143.6900  157.3764 H   0  0  0  0  0  0  0  0  0  0  0  0
  151.0432  143.6714  157.0284 H   0  0  0  0  0  0  0  0  0  0  0  0
  151.7771  145.3284  158.7996 H   0  0  0  0  0  0  0  0  0  0  0  0
  149.4128  144.7256  158.7070 H   0  0  0  0  0  0  0  0  0  0  0  0
  149.9105  144.8988  160.3854 H   0  0  0  0  0  0  0  0  0  0  0  0
  149.6733  143.2964  159.6901 H   0  0  0  0  0  0  0  0  0  0  0  0
  151.3430  142.2868  160.8241 H   0  0  0  0  0  0  0  0  0  0  0  0
  153.3206  141.2445  161.9148 H   0  0  0  0  0  0  0  0  0  0  0  0
  153.0929  142.9029  162.4611 H   0  0  0  0  0  0  0  0  0  0  0  0
  154.3532  142.5289  161.2876 H   0  0  0  0  0  0  0  0  0  0  0  0
  152.5757  140.6143  159.4915 H   0  0  0  0  0  0  0  0  0  0  0  0
  153.6881  141.8298  158.9028 H   0  0  0  0  0  0  0  0  0  0  0  0
  153.2796  138.3889  156.0452 H   0  0  0  0  0  0  0  0  0  0  0  0
  1  2  1  0  0  0  0
  1 23  1  0  0  0  0
  1 24  1  0  0  0  0
  1 25  1  0  0  0  0
  2  3  1  0  0  0  0
  3  4  1  0  0  0  0
  3 26  1  0  0  0  0
  3 27  1  0  0  0  0
  4  5  1  0  0  0  0
  4 28  1  0  0  0  0
  4 29  1  0  0  0  0
  5  6  2  0  0  0  0
  5  7  1  0  0  0  0
  7  8  1  0  0  0  0
  7 30  1  0  0  0  0
  8  9  1  0  0  0  0
  8 31  1  0  0  0  0
  8 32  1  0  0  0  0
  9 22  1  0  0  0  0
  9 10  2  0  0  0  0
 10 11  1  0  0  0  0
 10 33  1  0  0  0  0
 11 12  2  0  0  0  0
 11 34  1  0  0  0  0
 12 13  1  0  0  0  0
 12 21  1  0  0  0  0
 13 20  1  0  0  0  0
 13 14  1  0  0  0  0
 14 15  1  0  0  0  0
 14 35  1  0  0  0  0
 14 36  1  0  0  0  0
 15 16  1  0  0  0  0
 15 17  1  0  0  0  0
 15 37  1  0  0  0  0
 16 38  1  0  0  0  0
 16 39  1  0  0  0  0
 16 40  1  0  0  0  0
 17 18  1  0  0  0  0
 18 19  1  0  0  0  0
 18 20  1  0  0  0  0
 18 41  1  0  0  0  0
 19 42  1  0  0  0  0
 19 43  1  0  0  0  0
 19 44  1  0  0  0  0
 20 45  1  0  0  0  0
 20 46  1  0  0  0  0
 21 22  2  0  0  0  0
 22 47  1  0  0  0  0
M  END
> <s_m_source_file>
AV-unprocessed.smi

> <i_m_source_file_index>
2123

> <i_lp_mmshare_version>
43012

> <i_f3d_flags>
0

> <s_epik_input>
W0NIM11TW0NIMl1bQ0gyXUMoPU8pW05IXVtDSDJdYzFbY0hdW2NIXWMobltjSF0xKU4yW0NIMl1bQ0BASF0oW0NIM10pT1tDQEBIXShbQ0gzXSlbQ0gyXTI=

> <s_epik_cmdline>
J2VwaWtfcHl0aG9uJywgJy1waCcsICc3LjAnLCAnLXRuJywgJzgnLCAnLW1hJywgJzIwMCcsICctbWV0YWxfYmluZGluZycsICctaW1hZScsICc8aW5maWxlLm1hZT4nLCAnLW9tYWUnLCAnPG91dGZpbGUubWFlPic=

> <r_lp_tautomer_probability>
1

> <r_epik_Ionization_Penalty>
0.00642497

> <r_epik_Ionization_Penalty_Charging>
0

> <r_epik_Ionization_Penalty_Neutral>
0.00642497

> <r_epik_State_Penalty>
0.0047515

> <r_epik_Charging_Adjusted_Penalty>
0.0047515

> <i_epik_Tot_Q>
0

> <i_epik_Tot_abs_Q>
0

> <r_epik_Metal_State_Penalty>
-0

> <b_epik_Metal_Only>
0

> <s_lp_Force_Field>
OPLS_2005

> <r_lp_Energy>
17.9077

> <b_lp_Chiralities_Consistent>
1

> <s_lp_Variant>
AV-unprocessed.smi:2123-3

> <Gold.Version>
5.8.1

> <Gold.Id.Protein>
6NUR|6NUR_protein|mol2

> <Gold.PLP.Fitness>
49.2570

> <Gold.PLP.PLP>
-46.5419

> <Gold.PLP.part.hbond>
-2.9602

> <Gold.PLP.part.metal>
0.0000

> <Gold.PLP.part.buried>
-4.5137

> <Gold.PLP.part.nonpolar>
-39.2799

> <Gold.PLP.part.repulsive>
0.1084

> <Gold.PLP.ligand.clash>
0.0000

> <Gold.PLP.ligand.torsion>
1.0453

> <Gold.PLP.Chemscore.Hbond>
1.4488

> <Gold.PLP.Chemscore.CHOScore>
0.0000

> <Gold.PLP.Chemscore.Metal>
0.0000

> <Gold.Chemscore.Hbonds>
donor molecule, donor type, donor heavy atom, donor atom, acceptor molecule, acceptor atom, score
      L1  H     7    30       P1  7948  0.80
      P1  H  7997  8009       L1    21  0.38

> <Gold.PLP.Chemscore.Internal.Correction>
0.4594

> <Gold.Rescore>
     Score         DG    S(hbond)    S(metal)    S(lipo)     H(rot)  DE(clash)    DE(int)     intcor
     15.03     -17.89       0.91        0.00     117.46       1.70       0.10       2.77       ----

> <Gold.Chemscore.Fitness>
15.0256

> <Gold.Chemscore.DG>
-17.8935

> <Gold.Chemscore.ZeroCoef>
-5.4800

> <Gold.Chemscore.Hbond>
0.9086

> <Gold.Chemscore.Metal>
0.0000

> <Gold.Chemscore.Lipo>
117.4642

> <Gold.Chemscore.Internal_Hbond>
0.0000

> <Gold.Chemscore.DEClash>
0.0998

> <Gold.Chemscore.DEInternal>
2.7680

> <Gold.Chemscore.Rot>
1.7049

> <Gold.Chemscore.Internal.Correction>
   9.000000E+99

> <Gold.Chemscore.Hbonds>
donor molecule, donor type, donor heavy atom, donor atom, acceptor molecule, acceptor atom, score
      L1  H     7    30       P1  7948  0.12
      P1  H  7997  8009       L1    21  0.02

> <Gold.Chemscore.Hbond.Weighted>
-3.0348

> <Gold.Chemscore.Metal.Weighted>
-0.0000

> <Gold.Chemscore.Lipo.Weighted>
-13.7433

> <Gold.Chemscore.Internal_Hbond.Weighted>
0.0000

> <Gold.Chemscore.DEClash.Weighted>
0.0998

> <Gold.Chemscore.DEInternal.Weighted>
2.7680

> <Gold.Chemscore.Rot.Weighted>
4.3647

> <Gold.Chemscore.Internal.Correction.Weighted>
   9.000000E+99

> <Gold.Protein.RotatedTorsions>
[ 6907 6896 6895 6894 ] final   15.60 input  -60.11 | X-H torsion
[ 7974 7965 7964 7962 ] final  125.17 input  175.53 | X-H torsion
[ 8008 7997 7996 7995 ] final  158.61 input   59.86 | X-H torsion
[ 10167 10162 10161 10158 ] final -108.34 input  -65.29 | X-H torsion
[ 10718 10713 10712 10709 ] final  -26.09 input   66.30 | X-H torsion
[ 10763 10752 10751 10750 ] final  -67.44 input  -60.55 | X-H torsion
[ 11005 11000 10999 10996 ] final  130.93 input  -57.11 | X-H torsion

> <Gold.Protein.ActiveResidues>
 VAL166  LYS551  ARG553  GLY616  TRP617  ASP618  TYR619  PRO620  LYS621  CYS622 
 ASP623  PHE694  ASN695  SER759  ASP760  ASP761  ALA762  ILE779  LEU786  VAL792 
 PHE793  MET794  SER795  GLU796  ALA797  LYS798  CYS799  TRP800  GLU811  SER814 

> <Gold.Protein.RotatedAtoms>
  151.8206  135.0653  160.0424 H   0  0  0  0  0  0  0  0  0  0  0  0  # atno 6907 bound_to 6896
  152.2954  133.5598  159.5592 H   0  0  0  0  0  0  0  0  0  0  0  0  # atno 6908 bound_to 6896
  150.7249  134.0285  159.3767 H   0  0  0  0  0  0  0  0  0  0  0  0  # atno 6909 bound_to 6896
  145.0760  139.3693  143.4933 H   0  0  0  0  0  0  0  0  0  0  0  0  # atno 7974 bound_to 7965
  156.2292  140.1853  156.7286 H   0  0  0  0  0  0  0  0  0  0  0  0  # atno 8008 bound_to 7997
  154.5993  140.0638  156.9374 H   0  0  0  0  0  0  0  0  0  0  0  0  # atno 8009 bound_to 7997
  155.2202  140.3307  155.4319 H   0  0  0  0  0  0  0  0  0  0  0  0  # atno 8010 bound_to 7997
  140.1672  143.4072  152.1382 H   0  0  0  0  0  0  0  0  0  0  0  0  # atno 10167 bound_to 10162
  156.4558  130.4493  149.6960 H   0  0  0  0  0  0  0  0  0  0  0  0  # atno 10718 bound_to 10713
  154.3746  135.6088  153.5758 H   0  0  0  0  0  0  0  0  0  0  0  0  # atno 10763 bound_to 10752
  152.9789  135.5846  154.4482 H   0  0  0  0  0  0  0  0  0  0  0  0  # atno 10764 bound_to 10752
  154.4241  135.2846  155.1933 H   0  0  0  0  0  0  0  0  0  0  0  0  # atno 10765 bound_to 10752
  139.9701  134.9580  156.9366 H   0  0  0  0  0  0  0  0  0  0  0  0  # atno 11005 bound_to 11000
  146.3530  140.0527  142.8634 LP  0  0  0  0  0  0  0  0  0  0  0  0  # atno 17320 bound_to 7965
  145.1235  140.9476  143.4586 LP  0  0  0  0  0  0  0  0  0  0  0  0  # atno 17321 bound_to 7965
  139.5354  144.7204  151.4911 LP  0  0  0  0  0  0  0  0  0  0  0  0  # atno 17342 bound_to 10162
  140.6605  143.8508  150.6883 LP  0  0  0  0  0  0  0  0  0  0  0  0  # atno 17343 bound_to 10162
  156.3768  130.7558  151.2547 LP  0  0  0  0  0  0  0  0  0  0  0  0  # atno 17370 bound_to 10713
  157.7500  131.0307  150.4149 LP  0  0  0  0  0  0  0  0  0  0  0  0  # atno 17371 bound_to 10713
  140.5312  134.0811  155.7316 LP  0  0  0  0  0  0  0  0  0  0  0  0  # atno 17394 bound_to 11000
  141.1380  133.9187  157.2389 LP  0  0  0  0  0  0  0  0  0  0  0  0  # atno 17395 bound_to 11000

$$$$
