AV-unprocessed.smi:1748|AV-procd|sdf|7043|dock7
  -GOLD-   22720 8263D 1   1.00000     0.00000
 Structure written by MMmdl.
 39 40  0  0  0  0  0  0  0  0  3 V2000
  143.8784  137.9513  154.3373 C   0  0  0  0  0  0  0  0  0  0  0  0
  144.8790  138.6747  153.5238 N   0  3  2  0  0  0  0  0  0  0  0  0
  145.6289  137.7705  152.6164 C   0  0  0  0  0  0  0  0  0  0  0  0
  146.5682  138.5676  151.6962 C   0  0  0  0  0  0  0  0  0  0  0  0
  147.5234  139.4496  152.5125 C   0  0  0  0  0  0  0  0  0  0  0  0
  146.7253  140.3542  153.4656 C   0  0  2  0  0  0  0  0  0  0  0  0
  147.6392  141.1453  154.2844 N   0  0  0  0  0  0  0  0  0  0  0  0
  148.4741  140.6481  155.2086 C   0  0  0  0  0  0  0  0  0  0  0  0
  148.5588  139.4459  155.4591 O   0  0  0  0  0  0  0  0  0  0  0  0
  149.1962  141.6278  155.7815 N   0  0  0  0  0  0  0  0  0  0  0  0
  150.1536  141.5424  156.8066 C   0  0  0  0  0  0  0  0  0  0  0  0
  150.2576  142.4175  157.8450 C   0  0  0  0  0  0  0  0  0  0  0  0
  151.2856  142.2891  158.8710 C   0  0  0  0  0  0  0  0  0  0  0  0
  151.4433  143.2331  160.0490 C   0  0  0  0  0  0  0  0  0  0  0  0
  150.4333  144.1018  160.0812 F   0  0  0  0  0  0  0  0  0  0  0  0
  151.4343  142.5488  161.1926 F   0  0  0  0  0  0  0  0  0  0  0  0
  152.5851  143.9171  159.9765 F   0  0  0  0  0  0  0  0  0  0  0  0
  152.1173  141.2098  158.6498 C   0  0  0  0  0  0  0  0  0  0  0  0
  152.0888  140.3048  157.6470 N   0  5  0  0  0  0  0  0  0  0  0  0
  151.1210  140.4307  156.6953 C   0  0  0  0  0  0  0  0  0  0  0  0
  151.0372  139.6421  155.7528 O   0  0  0  0  0  0  0  0  0  0  0  0
  145.7856  139.5087  154.3517 C   0  0  0  0  0  0  0  0  0  0  0  0
  144.3605  137.2379  155.0071 H   0  0  0  0  0  0  0  0  0  0  0  0
  143.1841  137.4052  153.6980 H   0  0  0  0  0  0  0  0  0  0  0  0
  143.2957  138.6481  154.9405 H   0  0  0  0  0  0  0  0  0  0  0  0
  146.2007  137.0524  153.2065 H   0  0  0  0  0  0  0  0  0  0  0  0
  144.9274  137.1960  152.0100 H   0  0  0  0  0  0  0  0  0  0  0  0
  147.1390  137.8854  151.0654 H   0  0  0  0  0  0  0  0  0  0  0  0
  145.9786  139.1911  151.0228 H   0  0  0  0  0  0  0  0  0  0  0  0
  148.2078  138.8179  153.0806 H   0  0  0  0  0  0  0  0  0  0  0  0
  148.1375  140.0523  151.8420 H   0  0  0  0  0  0  0  0  0  0  0  0
  146.1224  141.0341  152.8599 H   0  0  0  0  0  0  0  0  0  0  0  0
  147.6341  142.1447  154.1406 H   0  0  0  0  0  0  0  0  0  0  0  0
  149.0716  142.5580  155.4094 H   0  0  0  0  0  0  0  0  0  0  0  0
  149.5857  143.2558  157.9269 H   0  0  0  0  0  0  0  0  0  0  0  0
  152.9289  141.0523  159.3923 H   0  0  0  0  0  0  0  0  0  0  0  0
  145.1862  140.1629  154.9864 H   0  0  0  0  0  0  0  0  0  0  0  0
  146.3650  138.8663  155.0174 H   0  0  0  0  0  0  0  0  0  0  0  0
  144.3621  139.3124  152.9349 H   0  0  0  0  0  0  0  0  0  0  0  0
  1  2  1  0  0  0  0
  1 23  1  0  0  0  0
  1 24  1  0  0  0  0
  1 25  1  0  0  0  0
  2 22  1  0  0  0  0
  2  3  1  0  0  0  0
  2 39  1  0  0  0  0
  3  4  1  0  0  0  0
  3 26  1  0  0  0  0
  3 27  1  0  0  0  0
  4  5  1  0  0  0  0
  4 28  1  0  0  0  0
  4 29  1  0  0  0  0
  5  6  1  0  0  0  0
  5 30  1  0  0  0  0
  5 31  1  0  0  0  0
  6  7  1  0  0  0  0
  6 22  1  0  0  0  0
  6 32  1  0  0  0  0
  7  8  1  0  0  0  0
  7 33  1  0  0  0  0
  8  9  2  0  0  0  0
  8 10  1  0  0  0  0
 10 11  1  0  0  0  0
 10 34  1  0  0  0  0
 11 20  1  0  0  0  0
 11 12  2  0  0  0  0
 12 13  1  0  0  0  0
 12 35  1  0  0  0  0
 13 14  1  0  0  0  0
 13 18  2  0  0  0  0
 14 15  1  0  0  0  0
 14 16  1  0  0  0  0
 14 17  1  0  0  0  0
 18 19  1  0  0  0  0
 18 36  1  0  0  0  0
 19 20  1  0  0  0  0
 20 21  2  0  0  0  0
 22 37  1  0  0  0  0
 22 38  1  0  0  0  0
M  CHG  1   2   1
M  CHG  1  19  -1
M  END
> <s_m_source_file>
AV-unprocessed.smi

> <i_m_source_file_index>
1748

> <i_lp_mmshare_version>
43012

> <i_f3d_flags>
0

> <s_epik_input>
W0NIM11OMVtDSDJdW0NIMl1bQ0gyXVtDQEhdKFtDSDJdMSlbTkhdQyg9TylbTkhdYzJbY0hdYyhDKEYpKEYpRilbY0hdW25IXWMyPU8=

> <s_epik_cmdline>
J2VwaWtfcHl0aG9uJywgJy1waCcsICc3LjAnLCAnLXRuJywgJzgnLCAnLW1hJywgJzIwMCcsICctbWV0YWxfYmluZGluZycsICctaW1hZScsICc8aW5maWxlLm1hZT4nLCAnLW9tYWUnLCAnPG91dGZpbGUubWFlPic=

> <r_lp_tautomer_probability>
1

> <r_epik_Ionization_Penalty>
3.00907

> <r_epik_Ionization_Penalty_Charging>
0.148702

> <r_epik_Ionization_Penalty_Neutral>
2.86036

> <r_epik_State_Penalty>
2.85557

> <r_epik_Charging_Adjusted_Penalty>
3.00428

> <i_epik_Tot_Q>
0

> <i_epik_Tot_abs_Q>
2

> <r_epik_Metal_State_Penalty>
0.443779

> <b_epik_Metal_Only>
1

> <s_lp_Force_Field>
OPLS_2005

> <r_lp_Energy>
26.5131

> <b_lp_Chiralities_Consistent>
1

> <s_lp_Variant>
AV-unprocessed.smi:1748-8

> <Gold.Version>
5.8.1

> <Gold.Id.Protein>
6NUR|6NUR_protein|mol2

> <Gold.PLP.Fitness>
44.2997

> <Gold.PLP.PLP>
-29.2847

> <Gold.PLP.part.hbond>
-3.7065

> <Gold.PLP.part.metal>
0.0000

> <Gold.PLP.part.buried>
5.5398

> <Gold.PLP.part.nonpolar>
-31.0958

> <Gold.PLP.part.repulsive>
0.3361

> <Gold.PLP.ligand.clash>
0.0000

> <Gold.PLP.ligand.torsion>
0.4652

> <Gold.PLP.Chemscore.Hbond>
5.3135

> <Gold.PLP.Chemscore.CHOScore>
0.0000

> <Gold.PLP.Chemscore.Metal>
0.0000

> <Gold.Chemscore.Hbonds>
donor molecule, donor type, donor heavy atom, donor atom, acceptor molecule, acceptor atom, score
      L1  H     2    39       P1 10175  1.43
      L1  H    10    34       P1  8028  0.63

> <Gold.PLP.Chemscore.Internal.Correction>
0.0048

> <Gold.Rescore>
     Score         DG    S(hbond)    S(metal)    S(lipo)     H(rot)  DE(clash)    DE(int)     intcor
     12.69     -21.34       2.96        0.00      72.88       1.00       3.18       5.47       ----

> <Gold.Chemscore.Fitness>
12.6871

> <Gold.Chemscore.DG>
-21.3385

> <Gold.Chemscore.ZeroCoef>
-5.4800

> <Gold.Chemscore.Hbond>
2.9615

> <Gold.Chemscore.Metal>
0.0000

> <Gold.Chemscore.Lipo>
72.8802

> <Gold.Chemscore.Internal_Hbond>
0.0000

> <Gold.Chemscore.DEClash>
3.1788

> <Gold.Chemscore.DEInternal>
5.4727

> <Gold.Chemscore.Rot>
1.0000

> <Gold.Chemscore.Internal.Correction>
   9.000000E+99

> <Gold.Chemscore.Hbonds>
donor molecule, donor type, donor heavy atom, donor atom, acceptor molecule, acceptor atom, score
      L1  H     2    39       P1 10175  0.71
      L1  H    10    34       P1  8028  0.60

> <Gold.Chemscore.Hbond.Weighted>
-9.8915

> <Gold.Chemscore.Metal.Weighted>
-0.0000

> <Gold.Chemscore.Lipo.Weighted>
-8.5270

> <Gold.Chemscore.Internal_Hbond.Weighted>
0.0000

> <Gold.Chemscore.DEClash.Weighted>
3.1788

> <Gold.Chemscore.DEInternal.Weighted>
5.4727

> <Gold.Chemscore.Rot.Weighted>
2.5600

> <Gold.Chemscore.Internal.Correction.Weighted>
   9.000000E+99

> <Gold.Protein.RotatedTorsions>
[ 6907 6896 6895 6894 ] final   79.68 input  -60.11 | X-H torsion
[ 7974 7965 7964 7962 ] final  -87.56 input  175.53 | X-H torsion
[ 8008 7997 7996 7995 ] final -161.38 input   59.86 | X-H torsion
[ 10167 10162 10161 10158 ] final   93.20 input  -65.29 | X-H torsion
[ 10718 10713 10712 10709 ] final  126.42 input   66.30 | X-H torsion
[ 10763 10752 10751 10750 ] final  -41.46 input  -60.55 | X-H torsion
[ 11005 11000 10999 10996 ] final  177.04 input  -57.11 | X-H torsion

> <Gold.Protein.ActiveResidues>
 VAL166  LYS551  ARG553  GLY616  TRP617  ASP618  TYR619  PRO620  LYS621  CYS622 
 ASP623  PHE694  ASN695  SER759  ASP760  ASP761  ALA762  ILE779  LEU786  VAL792 
 PHE793  MET794  SER795  GLU796  ALA797  LYS798  CYS799  TRP800  GLU811  SER814 

> <Gold.Protein.RotatedAtoms>
  152.5207  134.3474  159.9238 H   0  0  0  0  0  0  0  0  0  0  0  0  # atno 6907 bound_to 6896
  151.3424  133.3951  159.2680 H   0  0  0  0  0  0  0  0  0  0  0  0  # atno 6908 bound_to 6896
  150.9792  134.9169  159.7892 H   0  0  0  0  0  0  0  0  0  0  0  0  # atno 6909 bound_to 6896
  145.4648  140.9560  143.1949 H   0  0  0  0  0  0  0  0  0  0  0  0  # atno 7974 bound_to 7965
  155.7913  140.0879  157.2007 H   0  0  0  0  0  0  0  0  0  0  0  0  # atno 8008 bound_to 7997
  154.3985  140.1489  156.3225 H   0  0  0  0  0  0  0  0  0  0  0  0  # atno 8009 bound_to 7997
  155.8555  140.3432  155.5724 H   0  0  0  0  0  0  0  0  0  0  0  0  # atno 8010 bound_to 7997
  139.8202  144.6734  150.9528 H   0  0  0  0  0  0  0  0  0  0  0  0  # atno 10167 bound_to 10162
  157.5420  131.1096  150.8843 H   0  0  0  0  0  0  0  0  0  0  0  0  # atno 10718 bound_to 10713
  153.9629  135.6737  153.4745 H   0  0  0  0  0  0  0  0  0  0  0  0  # atno 10763 bound_to 10752
  153.0829  135.4914  154.8536 H   0  0  0  0  0  0  0  0  0  0  0  0  # atno 10764 bound_to 10752
  154.7262  135.3128  154.8927 H   0  0  0  0  0  0  0  0  0  0  0  0  # atno 10765 bound_to 10752
  140.3797  134.6957  157.4443 H   0  0  0  0  0  0  0  0  0  0  0  0  # atno 11005 bound_to 11000
  144.7981  139.6195  143.7084 LP  0  0  0  0  0  0  0  0  0  0  0  0  # atno 17320 bound_to 7965
  146.2430  139.6041  142.9478 LP  0  0  0  0  0  0  0  0  0  0  0  0  # atno 17321 bound_to 7965
  140.7813  143.4099  151.1010 LP  0  0  0  0  0  0  0  0  0  0  0  0  # atno 17342 bound_to 10162
  139.7760  143.8425  152.3129 LP  0  0  0  0  0  0  0  0  0  0  0  0  # atno 17343 bound_to 10162
  156.9393  130.5378  149.5280 LP  0  0  0  0  0  0  0  0  0  0  0  0  # atno 17370 bound_to 10713
  156.0504  130.5575  150.8977 LP  0  0  0  0  0  0  0  0  0  0  0  0  # atno 17371 bound_to 10713
  140.0488  134.6161  155.8888 LP  0  0  0  0  0  0  0  0  0  0  0  0  # atno 17394 bound_to 11000
  141.1927  133.6576  156.5516 LP  0  0  0  0  0  0  0  0  0  0  0  0  # atno 17395 bound_to 11000

$$$$
