AV-unprocessed.smi:244|AV-procd|sdf|1874|dock8
  -GOLD-   2262020513D 1   1.00000     0.00000
 Structure written by MMmdl.
 56 60  0  0  0  0  0  0  0  0  1 V2000
  150.4410  143.8523  158.9014 C   0  0  0  0  0  0  0  0  0  0  0  0
  151.5295  143.3515  158.0694 N   0  0  0  0  0  0  0  0  0  0  0  0
  152.5596  142.6473  158.8358 C   0  0  0  0  0  0  0  0  0  0  0  0
  152.0770  141.2804  159.3615 C   0  0  0  0  0  0  0  0  0  0  0  0
  151.5412  140.3921  158.2299 C   0  0  2  0  0  0  0  0  0  0  0  0
  152.6225  139.9706  157.4016 O   0  0  0  0  0  0  0  0  0  0  0  0
  152.1945  139.0808  156.3764 C   0  0  0  0  0  0  0  0  0  0  0  0
  151.1872  139.7926  155.4598 C   0  0  0  0  0  0  0  0  0  0  0  0
  150.0853  140.3420  156.2501 N   0  0  0  0  0  0  0  0  0  0  0  0
  148.9738  140.7611  155.5887 C   0  0  0  0  0  0  0  0  0  0  0  0
  148.9792  140.8152  154.2295 N   0  0  0  0  0  0  0  0  0  0  0  0
  147.9036  141.2448  153.5639 C   0  0  0  0  0  0  0  0  0  0  0  0
  146.7325  141.6584  154.0497 N   0  0  0  0  0  0  0  0  0  0  0  0
  146.7122  141.5943  155.4115 C   0  0  0  0  0  0  0  0  0  0  0  0
  147.7787  141.1641  156.2519 C   0  0  0  0  0  0  0  0  0  0  0  0
  147.3826  141.2303  157.5831 N   0  0  0  0  0  0  0  0  0  0  0  0
  146.1613  141.6859  157.5330 C   0  0  0  0  0  0  0  0  0  0  0  0
  145.6749  141.9213  156.2674 N   0  0  0  0  0  0  0  0  0  0  0  0
  144.3515  142.4177  155.9220 C   0  0  0  0  0  0  0  0  0  0  0  0
  144.3495  143.8503  155.3323 C   0  0  0  0  0  0  0  0  0  0  0  0
  145.0063  144.7000  156.2567 O   0  0  0  0  0  0  0  0  0  0  0  0
  145.0898  143.9401  153.9796 C   0  0  0  0  0  0  0  0  0  0  0  0
  144.9007  145.3110  153.3061 C   0  0  0  0  0  0  0  0  0  0  0  0
  143.5155  145.6014  153.1645 O   0  0  0  0  0  0  0  0  0  0  0  0
  142.8443  145.7021  154.4146 C   0  0  0  0  0  0  0  0  0  0  0  0
  142.9030  144.3528  155.1521 C   0  0  0  0  0  0  0  0  0  0  0  0
  150.5027  141.1639  157.3884 C   0  0  2  0  0  0  0  0  0  0  0  0
  151.0578  142.5427  156.9448 C   0  0  0  0  0  0  0  0  0  0  0  0
  150.8315  144.5107  159.6777 H   0  0  0  0  0  0  0  0  0  0  0  0
  149.8838  143.0521  159.3871 H   0  0  0  0  0  0  0  0  0  0  0  0
  149.7412  144.4316  158.2985 H   0  0  0  0  0  0  0  0  0  0  0  0
  153.4256  142.4997  158.1894 H   0  0  0  0  0  0  0  0  0  0  0  0
  152.8962  143.2747  159.6618 H   0  0  0  0  0  0  0  0  0  0  0  0
  152.8936  140.7719  159.8746 H   0  0  0  0  0  0  0  0  0  0  0  0
  151.2985  141.4250  160.1106 H   0  0  0  0  0  0  0  0  0  0  0  0
  151.0776  139.5084  158.6721 H   0  0  0  0  0  0  0  0  0  0  0  0
  153.0618  138.7564  155.8016 H   0  0  0  0  0  0  0  0  0  0  0  0
  151.7529  138.1859  156.8175 H   0  0  0  0  0  0  0  0  0  0  0  0
  151.6834  140.5921  154.9081 H   0  0  0  0  0  0  0  0  0  0  0  0
  150.8052  139.0836  154.7242 H   0  0  0  0  0  0  0  0  0  0  0  0
  147.9951  141.2608  152.4879 H   0  0  0  0  0  0  0  0  0  0  0  0
  145.5734  141.8540  158.4236 H   0  0  0  0  0  0  0  0  0  0  0  0
  143.9099  141.7207  155.2088 H   0  0  0  0  0  0  0  0  0  0  0  0
  143.7252  142.3740  156.8141 H   0  0  0  0  0  0  0  0  0  0  0  0
  144.3962  144.9303  156.9404 H   0  0  0  0  0  0  0  0  0  0  0  0
  146.1549  143.7408  154.1038 H   0  0  0  0  0  0  0  0  0  0  0  0
  144.7088  143.1682  153.3098 H   0  0  0  0  0  0  0  0  0  0  0  0
  145.3927  146.0999  153.8771 H   0  0  0  0  0  0  0  0  0  0  0  0
  145.3603  145.3057  152.3175 H   0  0  0  0  0  0  0  0  0  0  0  0
  143.2847  146.4998  155.0152 H   0  0  0  0  0  0  0  0  0  0  0  0
  141.8063  145.9816  154.2336 H   0  0  0  0  0  0  0  0  0  0  0  0
  142.3365  143.6214  154.5741 H   0  0  0  0  0  0  0  0  0  0  0  0
  142.4017  144.4317  156.1177 H   0  0  0  0  0  0  0  0  0  0  0  0
  149.6419  141.3333  158.0313 H   0  0  0  0  0  0  0  0  0  0  0  0
  150.3006  143.1021  156.3940 H   0  0  0  0  0  0  0  0  0  0  0  0
  151.8953  142.4054  156.2604 H   0  0  0  0  0  0  0  0  0  0  0  0
  1  2  1  0  0  0  0
  1 29  1  0  0  0  0
  1 30  1  0  0  0  0
  1 31  1  0  0  0  0
  2 28  1  0  0  0  0
  2  3  1  0  0  0  0
  3  4  1  0  0  0  0
  3 32  1  0  0  0  0
  3 33  1  0  0  0  0
  4  5  1  0  0  0  0
  4 34  1  0  0  0  0
  4 35  1  0  0  0  0
  5 27  1  0  0  0  0
  5  6  1  0  0  0  0
  5 36  1  0  0  0  0
  6  7  1  0  0  0  0
  7  8  1  0  0  0  0
  7 37  1  0  0  0  0
  7 38  1  0  0  0  0
  8  9  1  0  0  0  0
  8 39  1  0  0  0  0
  8 40  1  0  0  0  0
  9 10  1  0  0  0  0
  9 27  1  0  0  0  0
 10 15  1  0  0  0  0
 10 11  2  0  0  0  0
 11 12  1  0  0  0  0
 12 13  2  0  0  0  0
 12 41  1  0  0  0  0
 13 14  1  0  0  0  0
 14 18  1  0  0  0  0
 14 15  2  0  0  0  0
 15 16  1  0  0  0  0
 16 17  2  0  0  0  0
 17 18  1  0  0  0  0
 17 42  1  0  0  0  0
 18 19  1  0  0  0  0
 19 20  1  0  0  0  0
 19 43  1  0  0  0  0
 19 44  1  0  0  0  0
 20 26  1  0  0  0  0
 20 21  1  0  0  0  0
 20 22  1  0  0  0  0
 21 45  1  0  0  0  0
 22 23  1  0  0  0  0
 22 46  1  0  0  0  0
 22 47  1  0  0  0  0
 23 24  1  0  0  0  0
 23 48  1  0  0  0  0
 23 49  1  0  0  0  0
 24 25  1  0  0  0  0
 25 26  1  0  0  0  0
 25 50  1  0  0  0  0
 25 51  1  0  0  0  0
 26 52  1  0  0  0  0
 26 53  1  0  0  0  0
 27 28  1  0  0  0  0
 27 54  1  0  0  0  0
 28 55  1  0  0  0  0
 28 56  1  0  0  0  0
M  END
> <s_m_source_file>
AV-unprocessed.smi

> <i_m_source_file_index>
244

> <i_lp_mmshare_version>
43012

> <i_f3d_flags>
0

> <s_epik_input>
W0NIMl0xW0NIMl1OKFtDSDNdKVtDSDJdW0NAQEhdKFtDQEhdMTIpTihbQ0gyXVtDSDJdTzIpYyhuW2NIXW4zKWMoYzM0KW5bY0hdbjRbQ0gyXUM1KFtPSF0pW0NIMl1bQ0gyXU9bQ0gyXVtDSDJdNQ==

> <s_epik_cmdline>
J2VwaWtfcHl0aG9uJywgJy1waCcsICc3LjAnLCAnLXRuJywgJzgnLCAnLW1hJywgJzIwMCcsICctbWV0YWxfYmluZGluZycsICctaW1hZScsICc8aW5maWxlLm1hZT4nLCAnLW9tYWUnLCAnPG91dGZpbGUubWFlPic=

> <r_lp_tautomer_probability>
1

> <r_epik_Ionization_Penalty>
2.27765

> <r_epik_Ionization_Penalty_Charging>
0

> <r_epik_Ionization_Penalty_Neutral>
2.27765

> <r_epik_State_Penalty>
2.4114

> <r_epik_Charging_Adjusted_Penalty>
2.4114

> <i_epik_Tot_Q>
0

> <i_epik_Tot_abs_Q>
0

> <r_epik_Metal_State_Penalty>
2.39769

> <b_epik_Metal_Only>
0

> <s_lp_Force_Field>
OPLS_2005

> <r_lp_Energy>
43.9701

> <b_lp_Chiralities_Consistent>
1

> <s_lp_Variant>
AV-unprocessed.smi:244-11

> <Gold.Version>
5.8.1

> <Gold.Id.Protein>
6NUR|6NUR_protein|mol2

> <Gold.PLP.Fitness>
45.2992

> <Gold.PLP.PLP>
-39.8307

> <Gold.PLP.part.hbond>
-2.0924

> <Gold.PLP.part.metal>
0.0000

> <Gold.PLP.part.buried>
-6.8093

> <Gold.PLP.part.nonpolar>
-31.7173

> <Gold.PLP.part.repulsive>
0.5948

> <Gold.PLP.ligand.clash>
0.0000

> <Gold.PLP.ligand.torsion>
0.3121

> <Gold.PLP.Chemscore.Hbond>
0.9920

> <Gold.PLP.Chemscore.CHOScore>
0.8943

> <Gold.PLP.Chemscore.Metal>
0.0000

> <Gold.Chemscore.Hbonds>
donor molecule, donor type, donor heavy atom, donor atom, acceptor molecule, acceptor atom, score
      P1  H  7997  8009       L1     6  0.90
      L1  C    12    41       P1  7957  0.96

> <Gold.PLP.Chemscore.Internal.Correction>
0.4339

> <Gold.Rescore>
     Score         DG    S(hbond)    S(metal)    S(lipo)     H(rot)  DE(clash)    DE(int)     intcor
     10.63     -12.99       0.81        0.00      86.09       2.06       0.74       1.63       ----

> <Gold.Chemscore.Fitness>
10.6271

> <Gold.Chemscore.DG>
-12.9950

> <Gold.Chemscore.ZeroCoef>
-5.4800

> <Gold.Chemscore.Hbond>
0.8140

> <Gold.Chemscore.Metal>
0.0000

> <Gold.Chemscore.Lipo>
86.0925

> <Gold.Chemscore.Internal_Hbond>
0.0000

> <Gold.Chemscore.DEClash>
0.7371

> <Gold.Chemscore.DEInternal>
1.6307

> <Gold.Chemscore.Rot>
2.0611

> <Gold.Chemscore.Internal.Correction>
   9.000000E+99

> <Gold.Chemscore.Hbonds>
donor molecule, donor type, donor heavy atom, donor atom, acceptor molecule, acceptor atom, score
      P1  H  7997  8009       L1     6  0.17

> <Gold.Chemscore.Hbond.Weighted>
-2.7187

> <Gold.Chemscore.Metal.Weighted>
-0.0000

> <Gold.Chemscore.Lipo.Weighted>
-10.0728

> <Gold.Chemscore.Internal_Hbond.Weighted>
0.0000

> <Gold.Chemscore.DEClash.Weighted>
0.7371

> <Gold.Chemscore.DEInternal.Weighted>
1.6307

> <Gold.Chemscore.Rot.Weighted>
5.2765

> <Gold.Chemscore.Internal.Correction.Weighted>
   9.000000E+99

> <Gold.Protein.RotatedTorsions>
[ 6907 6896 6895 6894 ] final  177.62 input  -60.11 | X-H torsion
[ 7974 7965 7964 7962 ] final   38.35 input  175.53 | X-H torsion
[ 8008 7997 7996 7995 ] final  162.68 input   59.86 | X-H torsion
[ 10167 10162 10161 10158 ] final -155.13 input  -65.29 | X-H torsion
[ 10718 10713 10712 10709 ] final  -99.68 input   66.30 | X-H torsion
[ 10763 10752 10751 10750 ] final -161.26 input  -60.55 | X-H torsion
[ 11005 11000 10999 10996 ] final -146.53 input  -57.11 | X-H torsion

> <Gold.Protein.ActiveResidues>
 VAL166  LYS551  ARG553  GLY616  TRP617  ASP618  TYR619  PRO620  LYS621  CYS622 
 ASP623  PHE694  ASN695  SER759  ASP760  ASP761  ALA762  ILE779  LEU786  VAL792 
 PHE793  MET794  SER795  GLU796  ALA797  LYS798  CYS799  TRP800  GLU811  SER814 

> <Gold.Protein.RotatedAtoms>
  151.7010  133.3311  159.3266 H   0  0  0  0  0  0  0  0  0  0  0  0  # atno 6907 bound_to 6896
  150.7736  134.6615  159.6352 H   0  0  0  0  0  0  0  0  0  0  0  0  # atno 6908 bound_to 6896
  152.3769  134.6652  160.0208 H   0  0  0  0  0  0  0  0  0  0  0  0  # atno 6909 bound_to 6896
  146.1068  139.5782  142.9378 H   0  0  0  0  0  0  0  0  0  0  0  0  # atno 7974 bound_to 7965
  156.2014  140.1744  156.7892 H   0  0  0  0  0  0  0  0  0  0  0  0  # atno 8008 bound_to 7997
  154.5596  140.0702  156.8829 H   0  0  0  0  0  0  0  0  0  0  0  0  # atno 8009 bound_to 7997
  155.2873  140.3353  155.4257 H   0  0  0  0  0  0  0  0  0  0  0  0  # atno 8010 bound_to 7997
  139.6957  143.9347  152.2406 H   0  0  0  0  0  0  0  0  0  0  0  0  # atno 10167 bound_to 10162
  156.0141  130.5293  150.6706 H   0  0  0  0  0  0  0  0  0  0  0  0  # atno 10718 bound_to 10713
  154.7319  135.3048  154.8877 H   0  0  0  0  0  0  0  0  0  0  0  0  # atno 10763 bound_to 10752
  153.9718  135.6741  153.4751 H   0  0  0  0  0  0  0  0  0  0  0  0  # atno 10764 bound_to 10752
  153.0926  135.4952  154.8640 H   0  0  0  0  0  0  0  0  0  0  0  0  # atno 10765 bound_to 10752
  140.7810  134.3078  157.5045 H   0  0  0  0  0  0  0  0  0  0  0  0  # atno 11005 bound_to 11000
  145.5744  141.0390  143.2156 LP  0  0  0  0  0  0  0  0  0  0  0  0  # atno 17320 bound_to 7965
  144.7478  139.7275  143.7285 LP  0  0  0  0  0  0  0  0  0  0  0  0  # atno 17321 bound_to 7965
  139.9175  144.6820  150.8496 LP  0  0  0  0  0  0  0  0  0  0  0  0  # atno 17342 bound_to 10162
  140.7695  143.3399  151.2231 LP  0  0  0  0  0  0  0  0  0  0  0  0  # atno 17343 bound_to 10162
  157.4429  131.0863  151.0925 LP  0  0  0  0  0  0  0  0  0  0  0  0  # atno 17370 bound_to 10713
  157.1463  130.6165  149.5569 LP  0  0  0  0  0  0  0  0  0  0  0  0  # atno 17371 bound_to 10713
  139.8742  134.9318  156.3539 LP  0  0  0  0  0  0  0  0  0  0  0  0  # atno 17394 bound_to 11000
  140.9482  133.7469  156.0236 LP  0  0  0  0  0  0  0  0  0  0  0  0  # atno 17395 bound_to 11000

$$$$
