AV-unprocessed.smi:2353|AV-procd|sdf|9380|dock2
  -GOLD-   2272013 03D 1   1.00000     0.00000
 Structure written by MMmdl.
 45 47  0  0  0  0  0  0  0  0  1 V2000
  155.8555  132.7781  160.9768 C   0  0  0  0  0  0  0  0  0  0  0  0
  155.5861  133.9576  161.8884 C   0  0  0  0  0  0  0  0  0  0  0  0
  155.3914  133.7597  163.2690 C   0  0  0  0  0  0  0  0  0  0  0  0
  155.1465  134.8609  164.1087 C   0  0  0  0  0  0  0  0  0  0  0  0
  155.0938  136.1650  163.5747 C   0  0  0  0  0  0  0  0  0  0  0  0
  154.8288  137.3417  164.4949 C   0  0  0  0  0  0  0  0  0  0  0  0
  155.2834  136.3780  162.1896 C   0  0  0  0  0  0  0  0  0  0  0  0
  155.2143  137.6780  161.7325 O   0  0  0  0  0  0  0  0  0  0  0  0
  155.9855  138.0425  160.5958 C   0  0  0  0  0  0  0  0  0  0  0  0
  155.1427  138.9744  159.7092 C   0  0  2  0  0  0  0  0  0  0  0  0
  155.8994  139.2417  158.5443 O   0  0  0  0  0  0  0  0  0  0  0  0
  154.8504  140.3223  160.4054 C   0  0  0  0  0  0  0  0  0  0  0  0
  153.6638  140.9831  159.8486 N   0  0  0  0  0  0  0  0  0  0  0  0
  153.2409  140.4531  158.6431 N   0  0  0  0  0  0  0  0  0  0  0  0
  152.1933  140.9146  158.0425 C   0  0  0  0  0  0  0  0  0  0  0  0
  151.7564  140.3384  156.7834 N   0  0  0  0  0  0  0  0  0  0  0  0
  152.3379  139.1931  156.2374 C   0  0  0  0  0  0  0  0  0  0  0  0
  151.6708  138.9590  155.0551 C   0  0  0  0  0  0  0  0  0  0  0  0
  150.6935  139.9323  154.8559 N   0  0  0  0  0  0  0  0  0  0  0  0
  150.8047  140.7174  155.9192 C   0  0  0  0  0  0  0  0  0  0  0  0
  151.4515  142.0229  158.6342 C   0  0  0  0  0  0  0  0  0  0  0  0
  151.8758  142.5353  159.8096 C   0  0  0  0  0  0  0  0  0  0  0  0
  153.0508  142.0123  160.5036 C   0  0  0  0  0  0  0  0  0  0  0  0
  153.4505  142.4545  161.5802 O   0  0  0  0  0  0  0  0  0  0  0  0
  155.5332  135.2604  161.3525 C   0  0  0  0  0  0  0  0  0  0  0  0
  155.7149  131.8313  161.4989 H   0  0  0  0  0  0  0  0  0  0  0  0
  156.8800  132.8151  160.6062 H   0  0  0  0  0  0  0  0  0  0  0  0
  155.1795  132.7967  160.1216 H   0  0  0  0  0  0  0  0  0  0  0  0
  155.4299  132.7654  163.6897 H   0  0  0  0  0  0  0  0  0  0  0  0
  154.9991  134.6994  165.1665 H   0  0  0  0  0  0  0  0  0  0  0  0
  153.8862  137.8226  164.2317 H   0  0  0  0  0  0  0  0  0  0  0  0
  155.6274  138.0788  164.4068 H   0  0  0  0  0  0  0  0  0  0  0  0
  154.7722  137.0286  165.5379 H   0  0  0  0  0  0  0  0  0  0  0  0
  156.8720  138.5749  160.9438 H   0  0  0  0  0  0  0  0  0  0  0  0
  156.3189  137.1677  160.0344 H   0  0  0  0  0  0  0  0  0  0  0  0
  154.2111  138.4745  159.4405 H   0  0  0  0  0  0  0  0  0  0  0  0
  156.6687  139.7317  158.7907 H   0  0  0  0  0  0  0  0  0  0  0  0
  154.6885  140.1620  161.4728 H   0  0  0  0  0  0  0  0  0  0  0  0
  155.7224  140.9776  160.3518 H   0  0  0  0  0  0  0  0  0  0  0  0
  153.1468  138.6340  156.6785 H   0  0  0  0  0  0  0  0  0  0  0  0
  151.8205  138.1691  154.3340 H   0  0  0  0  0  0  0  0  0  0  0  0
  150.1788  141.5846  156.0708 H   0  0  0  0  0  0  0  0  0  0  0  0
  150.5816  142.4535  158.1678 H   0  0  0  0  0  0  0  0  0  0  0  0
  151.3324  143.3574  160.2521 H   0  0  0  0  0  0  0  0  0  0  0  0
  155.6902  135.3783  160.2911 H   0  0  0  0  0  0  0  0  0  0  0  0
  1  2  1  0  0  0  0
  1 26  1  0  0  0  0
  1 27  1  0  0  0  0
  1 28  1  0  0  0  0
  2 25  1  0  0  0  0
  2  3  2  0  0  0  0
  3  4  1  0  0  0  0
  3 29  1  0  0  0  0
  4  5  2  0  0  0  0
  4 30  1  0  0  0  0
  5  6  1  0  0  0  0
  5  7  1  0  0  0  0
  6 31  1  0  0  0  0
  6 32  1  0  0  0  0
  6 33  1  0  0  0  0
  7  8  1  0  0  0  0
  7 25  2  0  0  0  0
  8  9  1  0  0  0  0
  9 10  1  0  0  0  0
  9 34  1  0  0  0  0
  9 35  1  0  0  0  0
 10 11  1  0  0  0  0
 10 12  1  0  0  0  0
 10 36  1  0  0  0  0
 11 37  1  0  0  0  0
 12 13  1  0  0  0  0
 12 38  1  0  0  0  0
 12 39  1  0  0  0  0
 13 23  1  0  0  0  0
 13 14  1  0  0  0  0
 14 15  2  0  0  0  0
 15 16  1  0  0  0  0
 15 21  1  0  0  0  0
 16 20  1  0  0  0  0
 16 17  1  0  0  0  0
 17 18  2  0  0  0  0
 17 40  1  0  0  0  0
 18 19  1  0  0  0  0
 18 41  1  0  0  0  0
 19 20  2  0  0  0  0
 20 42  1  0  0  0  0
 21 22  2  0  0  0  0
 21 43  1  0  0  0  0
 22 23  1  0  0  0  0
 22 44  1  0  0  0  0
 23 24  2  0  0  0  0
 25 45  1  0  0  0  0
M  END
> <s_m_source_file>
AV-unprocessed.smi

> <i_m_source_file_index>
2353

> <i_lp_mmshare_version>
43012

> <i_f3d_flags>
0

> <s_epik_input>
W0NIM11jMVtjSF1bY0hdYyhbQ0gzXSljKFtjSF0xKU9bQ0gyXVtDQEhdKFtPSF0pW0NIMl1uMm5jKFtjSF1bY0hdYzI9TyktbjNbY0hdW2NIXW5bY0hdMw==

> <s_epik_cmdline>
J2VwaWtfcHl0aG9uJywgJy1waCcsICc3LjAnLCAnLXRuJywgJzgnLCAnLW1hJywgJzIwMCcsICctbWV0YWxfYmluZGluZycsICctaW1hZScsICc8aW5maWxlLm1hZT4nLCAnLW9tYWUnLCAnPG91dGZpbGUubWFlPic=

> <r_lp_tautomer_probability>
1

> <r_epik_Ionization_Penalty>
0.03707

> <r_epik_Ionization_Penalty_Charging>
0.0370699

> <r_epik_Ionization_Penalty_Neutral>
1.17174e-07

> <r_epik_State_Penalty>
0.0310055

> <r_epik_Charging_Adjusted_Penalty>
0.0680754

> <i_epik_Tot_Q>
0

> <i_epik_Tot_abs_Q>
0

> <r_epik_Metal_State_Penalty>
0.0291724

> <b_epik_Metal_Only>
0

> <s_lp_Force_Field>
OPLS_2005

> <r_lp_Energy>
36.9493

> <b_lp_Chiralities_Consistent>
1

> <s_lp_Variant>
AV-unprocessed.smi:2353-1

> <Gold.Version>
5.8.1

> <Gold.Id.Protein>
6NUR|6NUR_protein|mol2

> <Gold.PLP.Fitness>
51.9085

> <Gold.PLP.PLP>
-48.1150

> <Gold.PLP.part.hbond>
-2.9097

> <Gold.PLP.part.metal>
0.0000

> <Gold.PLP.part.buried>
-5.5443

> <Gold.PLP.part.nonpolar>
-39.7300

> <Gold.PLP.part.repulsive>
0.0985

> <Gold.PLP.ligand.clash>
0.0000

> <Gold.PLP.ligand.torsion>
1.1295

> <Gold.PLP.Chemscore.Hbond>
2.0000

> <Gold.PLP.Chemscore.CHOScore>
0.0000

> <Gold.PLP.Chemscore.Metal>
0.0000

> <Gold.Chemscore.Hbonds>
donor molecule, donor type, donor heavy atom, donor atom, acceptor molecule, acceptor atom, score
      P1  H  7989  7998       L1    19  0.80
      P1  H  7997  8008       L1    11  0.94

> <Gold.PLP.Chemscore.Internal.Correction>
0.0524

> <Gold.Rescore>
     Score         DG    S(hbond)    S(metal)    S(lipo)     H(rot)  DE(clash)    DE(int)     intcor
     11.58     -12.92       0.78        0.00      98.31       2.60       0.01       1.34       ----

> <Gold.Chemscore.Fitness>
11.5755

> <Gold.Chemscore.DG>
-12.9223

> <Gold.Chemscore.ZeroCoef>
-5.4800

> <Gold.Chemscore.Hbond>
0.7763

> <Gold.Chemscore.Metal>
0.0000

> <Gold.Chemscore.Lipo>
98.3070

> <Gold.Chemscore.Internal_Hbond>
0.0000

> <Gold.Chemscore.DEClash>
0.0088

> <Gold.Chemscore.DEInternal>
1.3380

> <Gold.Chemscore.Rot>
2.5986

> <Gold.Chemscore.Internal.Correction>
   9.000000E+99

> <Gold.Chemscore.Hbonds>
donor molecule, donor type, donor heavy atom, donor atom, acceptor molecule, acceptor atom, score
      P1  H  7989  7998       L1    19  0.05
      P1  H  7997  8008       L1    11  0.52

> <Gold.Chemscore.Hbond.Weighted>
-2.5928

> <Gold.Chemscore.Metal.Weighted>
-0.0000

> <Gold.Chemscore.Lipo.Weighted>
-11.5019

> <Gold.Chemscore.Internal_Hbond.Weighted>
0.0000

> <Gold.Chemscore.DEClash.Weighted>
0.0088

> <Gold.Chemscore.DEInternal.Weighted>
1.3380

> <Gold.Chemscore.Rot.Weighted>
6.6524

> <Gold.Chemscore.Internal.Correction.Weighted>
   9.000000E+99

> <Gold.Protein.RotatedTorsions>
[ 6907 6896 6895 6894 ] final  -10.18 input  -60.11 | X-H torsion
[ 7974 7965 7964 7962 ] final -115.26 input  175.53 | X-H torsion
[ 8008 7997 7996 7995 ] final -124.58 input   59.86 | X-H torsion
[ 10167 10162 10161 10158 ] final  140.13 input  -65.29 | X-H torsion
[ 10718 10713 10712 10709 ] final    0.39 input   66.30 | X-H torsion
[ 10763 10752 10751 10750 ] final -118.12 input  -60.55 | X-H torsion
[ 11005 11000 10999 10996 ] final  142.57 input  -57.11 | X-H torsion

> <Gold.Protein.ActiveResidues>
 VAL166  LYS551  ARG553  GLY616  TRP617  ASP618  TYR619  PRO620  LYS621  CYS622 
 ASP623  PHE694  ASN695  SER759  ASP760  ASP761  ALA762  ILE779  LEU786  VAL792 
 PHE793  MET794  SER795  GLU796  ALA797  LYS798  CYS799  TRP800  GLU811  SER814 

> <Gold.Protein.RotatedAtoms>
  151.4061  135.0978  159.9570 H   0  0  0  0  0  0  0  0  0  0  0  0  # atno 6907 bound_to 6896
  152.5035  133.8842  159.7372 H   0  0  0  0  0  0  0  0  0  0  0  0  # atno 6908 bound_to 6896
  150.9327  133.6692  159.2835 H   0  0  0  0  0  0  0  0  0  0  0  0  # atno 6909 bound_to 6896
  145.1105  140.8609  143.3872 H   0  0  0  0  0  0  0  0  0  0  0  0  # atno 7974 bound_to 7965
  155.1992  140.0415  157.2914 H   0  0  0  0  0  0  0  0  0  0  0  0  # atno 8008 bound_to 7997
  154.6086  140.2471  155.7670 H   0  0  0  0  0  0  0  0  0  0  0  0  # atno 8009 bound_to 7997
  156.2365  140.2919  156.0337 H   0  0  0  0  0  0  0  0  0  0  0  0  # atno 8010 bound_to 7997
  139.5058  144.6253  151.5953 H   0  0  0  0  0  0  0  0  0  0  0  0  # atno 10167 bound_to 10162
  156.8327  130.5494  149.5685 H   0  0  0  0  0  0  0  0  0  0  0  0  # atno 10718 bound_to 10713
  154.8577  135.4285  154.2088 H   0  0  0  0  0  0  0  0  0  0  0  0  # atno 10763 bound_to 10752
  153.3118  135.6976  153.7114 H   0  0  0  0  0  0  0  0  0  0  0  0  # atno 10764 bound_to 10752
  153.6204  135.3503  155.2983 H   0  0  0  0  0  0  0  0  0  0  0  0  # atno 10765 bound_to 10752
  140.0487  134.9267  157.0977 H   0  0  0  0  0  0  0  0  0  0  0  0  # atno 11005 bound_to 11000
  145.0852  139.2930  143.5763 LP  0  0  0  0  0  0  0  0  0  0  0  0  # atno 17320 bound_to 7965
  146.3526  140.0371  142.8646 LP  0  0  0  0  0  0  0  0  0  0  0  0  # atno 17321 bound_to 7965
  140.5967  143.9682  150.6359 LP  0  0  0  0  0  0  0  0  0  0  0  0  # atno 17342 bound_to 10162
  140.2881  143.3343  152.1088 LP  0  0  0  0  0  0  0  0  0  0  0  0  # atno 17343 bound_to 10162
  156.0925  130.5907  150.9757 LP  0  0  0  0  0  0  0  0  0  0  0  0  # atno 17370 bound_to 10713
  157.6398  131.0911  150.8274 LP  0  0  0  0  0  0  0  0  0  0  0  0  # atno 17371 bound_to 10713
  140.3952  134.2141  155.7165 LP  0  0  0  0  0  0  0  0  0  0  0  0  # atno 17394 bound_to 11000
  141.1919  133.8184  157.0859 LP  0  0  0  0  0  0  0  0  0  0  0  0  # atno 17395 bound_to 11000

$$$$
