AV-unprocessed.smi:1726|AV-procd|sdf|6962|dock6
  -GOLD-   22720 8173D 1   1.00000     0.00000
 Structure written by MMmdl.
 42 43  0  0  0  0  0  0  0  0  3 V2000
  145.5285  132.2507  150.4056 C   0  0  0  0  0  0  0  0  0  0  0  0
  144.9719  131.8211  151.7710 C   0  0  0  0  0  0  0  0  0  0  0  0
  144.3630  132.9537  152.5117 N   0  3  2  0  0  0  0  0  0  0  0  0
  143.4490  133.7634  151.6646 C   0  0  0  0  0  0  0  0  0  0  0  0
  142.7140  134.8274  152.4990 C   0  0  0  0  0  0  0  0  0  0  0  0
  143.7009  135.7119  153.2802 C   0  0  0  0  0  0  0  0  0  0  0  0
  144.6756  134.8543  154.1072 C   0  0  1  0  0  0  0  0  0  0  0  0
  143.9611  134.2127  155.2116 N   0  0  0  0  0  0  0  0  0  0  0  0
  144.1756  134.4441  156.5149 C   0  0  0  0  0  0  0  0  0  0  0  0
  145.0135  135.2469  156.9238 O   0  0  0  0  0  0  0  0  0  0  0  0
  143.3609  133.6900  157.2742 N   0  0  0  0  0  0  0  0  0  0  0  0
  143.2854  133.5780  158.6735 C   0  0  0  0  0  0  0  0  0  0  0  0
  143.7394  134.5085  159.5593 C   0  0  0  0  0  0  0  0  0  0  0  0
  143.6417  134.3227  161.0020 C   0  0  0  0  0  0  0  0  0  0  0  0
  144.1192  135.3317  162.0307 C   0  0  0  0  0  0  0  0  0  0  0  0
  143.1124  135.6884  162.8276 F   0  0  0  0  0  0  0  0  0  0  0  0
  145.0762  134.7984  162.7893 F   0  0  0  0  0  0  0  0  0  0  0  0
  144.6052  136.4286  161.4495 F   0  0  0  0  0  0  0  0  0  0  0  0
  143.0598  133.1174  161.3392 C   0  0  0  0  0  0  0  0  0  0  0  0
  142.5954  132.1412  160.5291 N   0  5  0  0  0  0  0  0  0  0  0  0
  142.6868  132.3260  159.1821 C   0  0  0  0  0  0  0  0  0  0  0  0
  142.2854  131.4758  158.3866 O   0  0  0  0  0  0  0  0  0  0  0  0
  145.3641  133.8175  153.1918 C   0  0  0  0  0  0  0  0  0  0  0  0
  146.0354  131.4171  149.9190 H   0  0  0  0  0  0  0  0  0  0  0  0
  146.2526  133.0591  150.5125 H   0  0  0  0  0  0  0  0  0  0  0  0
  144.7449  132.5903  149.7292 H   0  0  0  0  0  0  0  0  0  0  0  0
  144.2481  131.0128  151.6579 H   0  0  0  0  0  0  0  0  0  0  0  0
  145.8005  131.4140  152.3518 H   0  0  0  0  0  0  0  0  0  0  0  0
  144.0188  134.2388  150.8645 H   0  0  0  0  0  0  0  0  0  0  0  0
  142.7132  133.1147  151.1874 H   0  0  0  0  0  0  0  0  0  0  0  0
  142.0959  135.4471  151.8488 H   0  0  0  0  0  0  0  0  0  0  0  0
  142.0300  134.3367  153.1926 H   0  0  0  0  0  0  0  0  0  0  0  0
  144.2670  136.3250  152.5777 H   0  0  0  0  0  0  0  0  0  0  0  0
  143.1595  136.4062  153.9242 H   0  0  0  0  0  0  0  0  0  0  0  0
  145.4346  135.5123  154.5340 H   0  0  0  0  0  0  0  0  0  0  0  0
  143.2415  133.5491  154.9637 H   0  0  0  0  0  0  0  0  0  0  0  0
  142.6839  133.1256  156.7818 H   0  0  0  0  0  0  0  0  0  0  0  0
  144.2048  135.4174  159.2183 H   0  0  0  0  0  0  0  0  0  0  0  0
  142.9521  132.9085  162.4251 H   0  0  0  0  0  0  0  0  0  0  0  0
  146.0562  133.2125  153.7757 H   0  0  0  0  0  0  0  0  0  0  0  0
  145.9700  134.3281  152.4414 H   0  0  0  0  0  0  0  0  0  0  0  0
  143.7894  132.5435  153.2349 H   0  0  0  0  0  0  0  0  0  0  0  0
  1  2  1  0  0  0  0
  1 24  1  0  0  0  0
  1 25  1  0  0  0  0
  1 26  1  0  0  0  0
  2  3  1  0  0  0  0
  2 27  1  0  0  0  0
  2 28  1  0  0  0  0
  3 23  1  0  0  0  0
  3  4  1  0  0  0  0
  3 42  1  0  0  0  0
  4  5  1  0  0  0  0
  4 29  1  0  0  0  0
  4 30  1  0  0  0  0
  5  6  1  0  0  0  0
  5 31  1  0  0  0  0
  5 32  1  0  0  0  0
  6  7  1  0  0  0  0
  6 33  1  0  0  0  0
  6 34  1  0  0  0  0
  7  8  1  0  0  0  0
  7 23  1  0  0  0  0
  7 35  1  0  0  0  0
  8  9  1  0  0  0  0
  8 36  1  0  0  0  0
  9 10  2  0  0  0  0
  9 11  1  0  0  0  0
 11 12  1  0  0  0  0
 11 37  1  0  0  0  0
 12 21  1  0  0  0  0
 12 13  2  0  0  0  0
 13 14  1  0  0  0  0
 13 38  1  0  0  0  0
 14 15  1  0  0  0  0
 14 19  2  0  0  0  0
 15 16  1  0  0  0  0
 15 17  1  0  0  0  0
 15 18  1  0  0  0  0
 19 20  1  0  0  0  0
 19 39  1  0  0  0  0
 20 21  1  0  0  0  0
 21 22  2  0  0  0  0
 23 40  1  0  0  0  0
 23 41  1  0  0  0  0
M  CHG  1   3   1
M  CHG  1  20  -1
M  END
> <s_m_source_file>
AV-unprocessed.smi

> <i_m_source_file_index>
1726

> <i_lp_mmshare_version>
43012

> <i_f3d_flags>
0

> <s_epik_input>
W0NIM11bQ0gyXU4xW0NIMl1bQ0gyXVtDSDJdW0NASF0oW0NIMl0xKVtOSF1DKD1PKVtOSF1jMltjSF1jKEMoRikoRilGKVtjSF1bbkhdYzI9Tw==

> <s_epik_cmdline>
J2VwaWtfcHl0aG9uJywgJy1waCcsICc3LjAnLCAnLXRuJywgJzgnLCAnLW1hJywgJzIwMCcsICctbWV0YWxfYmluZGluZycsICctaW1hZScsICc8aW5maWxlLm1hZT4nLCAnLW9tYWUnLCAnPG91dGZpbGUubWFlPic=

> <r_lp_tautomer_probability>
1

> <r_epik_Ionization_Penalty>
3.01007

> <r_epik_Ionization_Penalty_Charging>
0.14897

> <r_epik_Ionization_Penalty_Neutral>
2.8611

> <r_epik_State_Penalty>
2.85632

> <r_epik_Charging_Adjusted_Penalty>
3.00529

> <i_epik_Tot_Q>
0

> <i_epik_Tot_abs_Q>
2

> <r_epik_Metal_State_Penalty>
0.443826

> <b_epik_Metal_Only>
1

> <s_lp_Force_Field>
OPLS_2005

> <r_lp_Energy>
34.8935

> <b_lp_Chiralities_Consistent>
1

> <s_lp_Variant>
AV-unprocessed.smi:1726-6

> <Gold.Version>
5.8.1

> <Gold.Id.Protein>
6NUR|6NUR_protein|mol2

> <Gold.PLP.Fitness>
37.0241

> <Gold.PLP.PLP>
-28.7054

> <Gold.PLP.part.hbond>
-3.2979

> <Gold.PLP.part.metal>
0.0000

> <Gold.PLP.part.buried>
-6.3698

> <Gold.PLP.part.nonpolar>
-19.0513

> <Gold.PLP.part.repulsive>
0.2503

> <Gold.PLP.ligand.clash>
0.0000

> <Gold.PLP.ligand.torsion>
0.2641

> <Gold.PLP.Chemscore.Hbond>
2.9358

> <Gold.PLP.Chemscore.CHOScore>
0.0000

> <Gold.PLP.Chemscore.Metal>
0.0000

> <Gold.Chemscore.Hbonds>
donor molecule, donor type, donor heavy atom, donor atom, acceptor molecule, acceptor atom, score
      L1  H     3    42       P1 10957  1.82
      L1  H     8    36       P1 10957  0.99
      L1  H    11    37       P1 10957  0.12

> <Gold.PLP.Chemscore.Internal.Correction>
0.0394

> <Gold.Rescore>
     Score         DG    S(hbond)    S(metal)    S(lipo)     H(rot)  DE(clash)    DE(int)     intcor
     13.79     -15.01       1.97        0.00      53.28       1.28       0.02       1.21       ----

> <Gold.Chemscore.Fitness>
13.7855

> <Gold.Chemscore.DG>
-15.0136

> <Gold.Chemscore.ZeroCoef>
-5.4800

> <Gold.Chemscore.Hbond>
1.9687

> <Gold.Chemscore.Metal>
0.0000

> <Gold.Chemscore.Lipo>
53.2807

> <Gold.Chemscore.Internal_Hbond>
0.0000

> <Gold.Chemscore.DEClash>
0.0162

> <Gold.Chemscore.DEInternal>
1.2119

> <Gold.Chemscore.Rot>
1.2796

> <Gold.Chemscore.Internal.Correction>
   9.000000E+99

> <Gold.Chemscore.Hbonds>
donor molecule, donor type, donor heavy atom, donor atom, acceptor molecule, acceptor atom, score
      L1  H     3    42       P1 10957  0.19
      L1  H     8    36       P1 10957  0.94
      L1  H    11    37       P1 10957  0.13

> <Gold.Chemscore.Hbond.Weighted>
-6.5756

> <Gold.Chemscore.Metal.Weighted>
-0.0000

> <Gold.Chemscore.Lipo.Weighted>
-6.2338

> <Gold.Chemscore.Internal_Hbond.Weighted>
0.0000

> <Gold.Chemscore.DEClash.Weighted>
0.0162

> <Gold.Chemscore.DEInternal.Weighted>
1.2119

> <Gold.Chemscore.Rot.Weighted>
3.2759

> <Gold.Chemscore.Internal.Correction.Weighted>
   9.000000E+99

> <Gold.Protein.RotatedTorsions>
[ 6907 6896 6895 6894 ] final   80.15 input  -60.11 | X-H torsion
[ 7974 7965 7964 7962 ] final -168.31 input  175.53 | X-H torsion
[ 8008 7997 7996 7995 ] final  168.94 input   59.86 | X-H torsion
[ 10167 10162 10161 10158 ] final    5.19 input  -65.29 | X-H torsion
[ 10718 10713 10712 10709 ] final  138.37 input   66.30 | X-H torsion
[ 10763 10752 10751 10750 ] final  102.32 input  -60.55 | X-H torsion
[ 11005 11000 10999 10996 ] final    6.55 input  -57.11 | X-H torsion

> <Gold.Protein.ActiveResidues>
 VAL166  LYS551  ARG553  GLY616  TRP617  ASP618  TYR619  PRO620  LYS621  CYS622 
 ASP623  PHE694  ASN695  SER759  ASP760  ASP761  ALA762  ILE779  LEU786  VAL792 
 PHE793  MET794  SER795  GLU796  ALA797  LYS798  CYS799  TRP800  GLU811  SER814 

> <Gold.Protein.RotatedAtoms>
  152.5224  134.3403  159.9214 H   0  0  0  0  0  0  0  0  0  0  0  0  # atno 6907 bound_to 6896
  151.3352  133.3978  159.2674 H   0  0  0  0  0  0  0  0  0  0  0  0  # atno 6908 bound_to 6896
  150.9848  134.9213  159.7923 H   0  0  0  0  0  0  0  0  0  0  0  0  # atno 6909 bound_to 6896
  144.7205  140.2389  143.6294 H   0  0  0  0  0  0  0  0  0  0  0  0  # atno 7974 bound_to 7965
  156.1502  140.1577  156.8782 H   0  0  0  0  0  0  0  0  0  0  0  0  # atno 8008 bound_to 7997
  154.5064  140.0812  156.7940 H   0  0  0  0  0  0  0  0  0  0  0  0  # atno 8009 bound_to 7997
  155.3911  140.3410  155.4253 H   0  0  0  0  0  0  0  0  0  0  0  0  # atno 8010 bound_to 7997
  140.6495  143.7580  150.7552 H   0  0  0  0  0  0  0  0  0  0  0  0  # atno 10167 bound_to 10162
  157.4260  131.1043  151.0302 H   0  0  0  0  0  0  0  0  0  0  0  0  # atno 10718 bound_to 10713
  153.3380  135.4014  155.1549 H   0  0  0  0  0  0  0  0  0  0  0  0  # atno 10763 bound_to 10752
  154.8637  135.3626  154.5383 H   0  0  0  0  0  0  0  0  0  0  0  0  # atno 10764 bound_to 10752
  153.5826  135.7076  153.5516 H   0  0  0  0  0  0  0  0  0  0  0  0  # atno 10765 bound_to 10752
  140.5582  134.0218  155.7961 H   0  0  0  0  0  0  0  0  0  0  0  0  # atno 11005 bound_to 11000
  145.8339  139.2098  143.1867 LP  0  0  0  0  0  0  0  0  0  0  0  0  # atno 17320 bound_to 7965
  146.0406  140.8168  142.9830 LP  0  0  0  0  0  0  0  0  0  0  0  0  # atno 17321 bound_to 7965
  140.1228  143.4597  152.2303 LP  0  0  0  0  0  0  0  0  0  0  0  0  # atno 17342 bound_to 10162
  139.5709  144.7462  151.3895 LP  0  0  0  0  0  0  0  0  0  0  0  0  # atno 17343 bound_to 10162
  157.1215  130.6064  149.5506 LP  0  0  0  0  0  0  0  0  0  0  0  0  # atno 17370 bound_to 10713
  155.9896  130.4945  150.7223 LP  0  0  0  0  0  0  0  0  0  0  0  0  # atno 17371 bound_to 10713
  141.1131  133.9585  157.2874 LP  0  0  0  0  0  0  0  0  0  0  0  0  # atno 17394 bound_to 11000
  139.9421  135.0189  156.8740 LP  0  0  0  0  0  0  0  0  0  0  0  0  # atno 17395 bound_to 11000

$$$$
