AV-unprocessed.smi:1982|AV-procd|sdf|8024|dock2
  -GOLD-   2272010213D 1   1.00000     0.00000
 Structure written by MMmdl.
 36 37  0  0  0  0  0  0  0  0  1 V2000
  152.3910  142.7186  162.0484 C   0  0  0  0  0  0  0  0  0  0  0  0
  152.8887  143.4867  160.8065 C   0  0  2  0  0  0  0  0  0  0  0  0
  151.9908  144.7008  160.4928 C   0  0  0  0  0  0  0  0  0  0  0  0
  150.6348  144.2832  159.9027 C   0  0  0  0  0  0  0  0  0  0  0  0
  150.8205  143.4127  158.6524 C   0  0  0  0  0  0  0  0  0  0  0  0
  151.7067  142.1837  158.9325 C   0  0  1  0  0  0  0  0  0  0  0  0
  151.8956  141.4518  157.6799 N   0  0  0  0  0  0  0  0  0  0  0  0
  150.9219  141.0275  156.8589 C   0  0  0  0  0  0  0  0  0  0  0  0
  149.7231  141.2012  157.0834 O   0  0  0  0  0  0  0  0  0  0  0  0
  151.3946  140.2916  155.5995 C   0  0  0  0  0  0  0  0  0  0  0  0
  151.9685  138.9887  155.8886 N   0  0  0  0  0  0  0  0  0  0  0  0
  151.6290  137.7677  155.4696 C   0  0  0  0  0  0  0  0  0  0  0  0
  152.4261  136.8384  155.9745 N   0  0  0  0  0  0  0  0  0  0  0  0
  153.3072  137.5692  156.7538 N   0  0  0  0  0  0  0  0  0  0  0  0
  153.0404  138.8456  156.7073 N   0  0  0  0  0  0  0  0  0  0  0  0
  153.0707  142.6037  159.5422 C   0  0  2  0  0  0  0  0  0  0  0  0
  154.0155  141.4115  159.7926 C   0  0  0  0  0  0  0  0  0  0  0  0
  151.4294  142.2361  161.8776 H   0  0  0  0  0  0  0  0  0  0  0  0
  152.2730  143.3912  162.8983 H   0  0  0  0  0  0  0  0  0  0  0  0
  153.0982  141.9474  162.3530 H   0  0  0  0  0  0  0  0  0  0  0  0
  153.8704  143.8833  161.0692 H   0  0  0  0  0  0  0  0  0  0  0  0
  151.8377  145.3007  161.3904 H   0  0  0  0  0  0  0  0  0  0  0  0
  152.5022  145.3507  159.7815 H   0  0  0  0  0  0  0  0  0  0  0  0
  150.0531  143.7390  160.6472 H   0  0  0  0  0  0  0  0  0  0  0  0
  150.0530  145.1701  159.6507 H   0  0  0  0  0  0  0  0  0  0  0  0
  149.8457  143.0925  158.2825 H   0  0  0  0  0  0  0  0  0  0  0  0
  151.2666  144.0165  157.8607 H   0  0  0  0  0  0  0  0  0  0  0  0
  151.1839  141.5539  159.6537 H   0  0  0  0  0  0  0  0  0  0  0  0
  152.8500  141.2599  157.4122 H   0  0  0  0  0  0  0  0  0  0  0  0
  150.5562  140.1682  154.9119 H   0  0  0  0  0  0  0  0  0  0  0  0
  152.1469  140.8938  155.0885 H   0  0  0  0  0  0  0  0  0  0  0  0
  150.8073  137.5632  154.7993 H   0  0  0  0  0  0  0  0  0  0  0  0
  153.5691  143.2316  158.8015 H   0  0  0  0  0  0  0  0  0  0  0  0
  153.5474  140.6538  160.4213 H   0  0  0  0  0  0  0  0  0  0  0  0
  154.9343  141.7344  160.2825 H   0  0  0  0  0  0  0  0  0  0  0  0
  154.3036  140.9276  158.8593 H   0  0  0  0  0  0  0  0  0  0  0  0
  1  2  1  0  0  0  0
  1 18  1  0  0  0  0
  1 19  1  0  0  0  0
  1 20  1  0  0  0  0
  2 16  1  0  0  0  0
  2  3  1  0  0  0  0
  2 21  1  0  0  0  0
  3  4  1  0  0  0  0
  3 22  1  0  0  0  0
  3 23  1  0  0  0  0
  4  5  1  0  0  0  0
  4 24  1  0  0  0  0
  4 25  1  0  0  0  0
  5  6  1  0  0  0  0
  5 26  1  0  0  0  0
  5 27  1  0  0  0  0
  6  7  1  0  0  0  0
  6 16  1  0  0  0  0
  6 28  1  0  0  0  0
  7  8  1  0  0  0  0
  7 29  1  0  0  0  0
  8  9  2  0  0  0  0
  8 10  1  0  0  0  0
 10 11  1  0  0  0  0
 10 30  1  0  0  0  0
 10 31  1  0  0  0  0
 11 15  1  0  0  0  0
 11 12  1  0  0  0  0
 12 13  2  0  0  0  0
 12 32  1  0  0  0  0
 13 14  1  0  0  0  0
 14 15  2  0  0  0  0
 16 17  1  0  0  0  0
 16 33  1  0  0  0  0
 17 34  1  0  0  0  0
 17 35  1  0  0  0  0
 17 36  1  0  0  0  0
M  END
> <s_m_source_file>
AV-unprocessed.smi

> <i_m_source_file_index>
1982

> <i_lp_mmshare_version>
43012

> <i_f3d_flags>
0

> <s_epik_input>
W0NIM11bQ0BASF0xW0NIMl1bQ0gyXVtDSDJdW0NASF0oW0NASF0xW0NIM10pW05IXUMoPU8pW0NIMl1uMltjSF1ubm4y

> <s_epik_cmdline>
J2VwaWtfcHl0aG9uJywgJy1waCcsICc3LjAnLCAnLXRuJywgJzgnLCAnLW1hJywgJzIwMCcsICctbWV0YWxfYmluZGluZycsICctaW1hZScsICc8aW5maWxlLm1hZT4nLCAnLW9tYWUnLCAnPG91dGZpbGUubWFlPic=

> <r_lp_tautomer_probability>
1

> <r_epik_Ionization_Penalty>
5.03816e-07

> <r_epik_Ionization_Penalty_Charging>
0

> <r_epik_Ionization_Penalty_Neutral>
5.03816e-07

> <r_epik_State_Penalty>
-0

> <r_epik_Charging_Adjusted_Penalty>
0

> <i_epik_Tot_Q>
0

> <i_epik_Tot_abs_Q>
0

> <r_epik_Metal_State_Penalty>
-0

> <b_epik_Metal_Only>
0

> <s_lp_Force_Field>
OPLS_2005

> <r_lp_Energy>
16.2726

> <b_lp_Chiralities_Consistent>
1

> <s_lp_Variant>
AV-unprocessed.smi:1982-5

> <Gold.Version>
5.8.1

> <Gold.Id.Protein>
6NUR|6NUR_protein|mol2

> <Gold.PLP.Fitness>
40.3362

> <Gold.PLP.PLP>
-34.6961

> <Gold.PLP.part.hbond>
-2.0000

> <Gold.PLP.part.metal>
0.0000

> <Gold.PLP.part.buried>
-3.5152

> <Gold.PLP.part.nonpolar>
-29.2243

> <Gold.PLP.part.repulsive>
0.1458

> <Gold.PLP.ligand.clash>
0.0000

> <Gold.PLP.ligand.torsion>
0.1228

> <Gold.PLP.Chemscore.Hbond>
1.9600

> <Gold.PLP.Chemscore.CHOScore>
0.0000

> <Gold.PLP.Chemscore.Metal>
0.0000

> <Gold.Chemscore.Hbonds>
donor molecule, donor type, donor heavy atom, donor atom, acceptor molecule, acceptor atom, score
      P1  H  7997  8009       L1    15  1.00
      P1  H 10752 10765       L1    13  0.96

> <Gold.PLP.Chemscore.Internal.Correction>
0.0056

> <Gold.Rescore>
     Score         DG    S(hbond)    S(metal)    S(lipo)     H(rot)  DE(clash)    DE(int)     intcor
     15.11     -17.41       1.82        0.00      91.79       1.91       0.13       2.16       ----

> <Gold.Chemscore.Fitness>
15.1102

> <Gold.Chemscore.DG>
-17.4055

> <Gold.Chemscore.ZeroCoef>
-5.4800

> <Gold.Chemscore.Hbond>
1.8159

> <Gold.Chemscore.Metal>
0.0000

> <Gold.Chemscore.Lipo>
91.7875

> <Gold.Chemscore.Internal_Hbond>
0.0000

> <Gold.Chemscore.DEClash>
0.1325

> <Gold.Chemscore.DEInternal>
2.1629

> <Gold.Chemscore.Rot>
1.9058

> <Gold.Chemscore.Internal.Correction>
   9.000000E+99

> <Gold.Chemscore.Hbonds>
donor molecule, donor type, donor heavy atom, donor atom, acceptor molecule, acceptor atom, score
      P1  H  7997  8009       L1    15  0.83
      P1  H 10752 10765       L1    13  0.86

> <Gold.Chemscore.Hbond.Weighted>
-6.0652

> <Gold.Chemscore.Metal.Weighted>
-0.0000

> <Gold.Chemscore.Lipo.Weighted>
-10.7391

> <Gold.Chemscore.Internal_Hbond.Weighted>
0.0000

> <Gold.Chemscore.DEClash.Weighted>
0.1325

> <Gold.Chemscore.DEInternal.Weighted>
2.1629

> <Gold.Chemscore.Rot.Weighted>
4.8788

> <Gold.Chemscore.Internal.Correction.Weighted>
   9.000000E+99

> <Gold.Protein.RotatedTorsions>
[ 6907 6896 6895 6894 ] final -160.96 input  -60.11 | X-H torsion
[ 7974 7965 7964 7962 ] final -100.30 input  175.53 | X-H torsion
[ 8008 7997 7996 7995 ] final -165.72 input   59.86 | X-H torsion
[ 10167 10162 10161 10158 ] final   38.33 input  -65.29 | X-H torsion
[ 10718 10713 10712 10709 ] final   61.30 input   66.30 | X-H torsion
[ 10763 10752 10751 10750 ] final -154.60 input  -60.55 | X-H torsion
[ 11005 11000 10999 10996 ] final   38.94 input  -57.11 | X-H torsion

> <Gold.Protein.ActiveResidues>
 VAL166  LYS551  ARG553  GLY616  TRP617  ASP618  TYR619  PRO620  LYS621  CYS622 
 ASP623  PHE694  ASN695  SER759  ASP760  ASP761  ALA762  ILE779  LEU786  VAL792 
 PHE793  MET794  SER795  GLU796  ALA797  LYS798  CYS799  TRP800  GLU811  SER814 

> <Gold.Protein.RotatedAtoms>
  151.3572  133.3903  159.2685 H   0  0  0  0  0  0  0  0  0  0  0  0  # atno 6907 bound_to 6896
  150.9754  134.9121  159.7823 H   0  0  0  0  0  0  0  0  0  0  0  0  # atno 6908 bound_to 6896
  152.5199  134.3534  159.9311 H   0  0  0  0  0  0  0  0  0  0  0  0  # atno 6909 bound_to 6896
  145.2964  140.9366  143.2848 H   0  0  0  0  0  0  0  0  0  0  0  0  # atno 7974 bound_to 7965
  155.8537  140.0967  157.1658 H   0  0  0  0  0  0  0  0  0  0  0  0  # atno 8008 bound_to 7997
  154.3986  140.1378  156.3938 H   0  0  0  0  0  0  0  0  0  0  0  0  # atno 8009 bound_to 7997
  155.7933  140.3455  155.5364 H   0  0  0  0  0  0  0  0  0  0  0  0  # atno 8010 bound_to 7997
  140.3947  144.1805  150.6131 H   0  0  0  0  0  0  0  0  0  0  0  0  # atno 10167 bound_to 10162
  157.5817  130.8987  149.9443 H   0  0  0  0  0  0  0  0  0  0  0  0  # atno 10718 bound_to 10713
  154.7847  135.3186  154.7913 H   0  0  0  0  0  0  0  0  0  0  0  0  # atno 10763 bound_to 10752
  153.8616  135.6853  153.4786 H   0  0  0  0  0  0  0  0  0  0  0  0  # atno 10764 bound_to 10752
  153.1494  135.4705  154.9553 H   0  0  0  0  0  0  0  0  0  0  0  0  # atno 10765 bound_to 10752
  140.2077  134.3794  155.8064 H   0  0  0  0  0  0  0  0  0  0  0  0  # atno 11005 bound_to 11000
  144.9130  139.4505  143.6578 LP  0  0  0  0  0  0  0  0  0  0  0  0  # atno 17320 bound_to 7965
  146.3167  139.7948  142.8978 LP  0  0  0  0  0  0  0  0  0  0  0  0  # atno 17321 bound_to 7965
  140.4803  143.2381  151.8964 LP  0  0  0  0  0  0  0  0  0  0  0  0  # atno 17342 bound_to 10162
  139.4787  144.5276  151.8713 LP  0  0  0  0  0  0  0  0  0  0  0  0  # atno 17343 bound_to 10162
  156.0864  130.3667  150.0480 LP  0  0  0  0  0  0  0  0  0  0  0  0  # atno 17370 bound_to 10713
  156.8618  130.9494  151.3617 LP  0  0  0  0  0  0  0  0  0  0  0  0  # atno 17371 bound_to 10713
  141.2227  133.7126  156.8364 LP  0  0  0  0  0  0  0  0  0  0  0  0  # atno 17394 bound_to 11000
  140.1985  134.8914  157.3142 LP  0  0  0  0  0  0  0  0  0  0  0  0  # atno 17395 bound_to 11000

$$$$
