AV-unprocessed.smi:415|AV-procd|sdf|2525|dock3
  -GOLD-   2262022483D 1   1.00000     0.00000
 Structure written by MMmdl.
 53 54  0  0  0  0  0  0  0  0  1 V2000
  152.8846  138.1733  154.7932 C   0  0  0  0  0  0  0  0  0  0  0  0
  152.0806  137.0273  155.0085 O   0  0  0  0  0  0  0  0  0  0  0  0
  150.7177  137.3522  155.2265 C   0  0  0  0  0  0  0  0  0  0  0  0
  150.1435  138.0249  153.9685 C   0  0  0  0  0  0  0  0  0  0  0  0
  149.1607  139.0501  154.2670 N   0  0  0  0  0  0  0  0  0  0  0  0
  147.8218  138.9640  153.8945 C   0  0  0  0  0  0  0  0  0  0  0  0
  147.3774  137.8648  153.1820 N   0  0  0  0  0  0  0  0  0  0  0  0
  146.9410  139.9417  154.2029 C   0  0  0  0  0  0  0  0  0  0  0  0
  147.3413  141.1371  154.9322 C   0  0  0  0  0  0  0  0  0  0  0  0
  146.5490  142.0277  155.2409 O   0  0  0  0  0  0  0  0  0  0  0  0
  148.7106  141.2171  155.2747 N   0  0  0  0  0  0  0  0  0  0  0  0
  149.1953  142.3977  156.0233 C   0  0  0  0  0  0  0  0  0  0  0  0
  149.6673  142.0549  157.4437 C   0  0  0  0  0  0  0  0  0  0  0  0
  148.8548  141.8685  158.3504 O   0  0  0  0  0  0  0  0  0  0  0  0
  150.9953  141.9860  157.6200 N   0  0  0  0  0  0  0  0  0  0  0  0
  151.6684  141.6679  158.8776 C   0  0  1  0  0  0  0  0  0  0  0  0
  152.3590  140.2923  158.7612 C   0  0  0  0  0  0  0  0  0  0  0  0
  153.1509  139.9393  160.0276 C   0  0  0  0  0  0  0  0  0  0  0  0
  154.1645  141.0413  160.3728 C   0  0  0  0  0  0  0  0  0  0  0  0
  153.4951  142.4230  160.5199 C   0  0  2  0  0  0  0  0  0  0  0  0
  152.6776  142.5230  161.8243 C   0  0  0  0  0  0  0  0  0  0  0  0
  152.6932  142.7749  159.2380 C   0  0  2  0  0  0  0  0  0  0  0  0
  152.0641  144.1806  159.3060 C   0  0  0  0  0  0  0  0  0  0  0  0
  149.6347  140.1965  154.9543 C   0  0  0  0  0  0  0  0  0  0  0  0
  150.8223  140.3099  155.2727 O   0  0  0  0  0  0  0  0  0  0  0  0
  153.9189  137.8693  154.6340 H   0  0  0  0  0  0  0  0  0  0  0  0
  152.8586  138.8416  155.6549 H   0  0  0  0  0  0  0  0  0  0  0  0
  152.5567  138.7254  153.9112 H   0  0  0  0  0  0  0  0  0  0  0  0
  150.1562  136.4413  155.4384 H   0  0  0  0  0  0  0  0  0  0  0  0
  150.6154  138.0035  156.0960 H   0  0  0  0  0  0  0  0  0  0  0  0
  150.9289  138.4842  153.3695 H   0  0  0  0  0  0  0  0  0  0  0  0
  149.6701  137.3018  153.3020 H   0  0  0  0  0  0  0  0  0  0  0  0
  148.0015  137.1149  152.9212 H   0  0  0  0  0  0  0  0  0  0  0  0
  146.3919  137.6898  153.0466 H   0  0  0  0  0  0  0  0  0  0  0  0
  145.9073  139.8433  153.9029 H   0  0  0  0  0  0  0  0  0  0  0  0
  150.0067  142.8836  155.4779 H   0  0  0  0  0  0  0  0  0  0  0  0
  148.4306  143.1715  156.1005 H   0  0  0  0  0  0  0  0  0  0  0  0
  151.5872  142.1588  156.8206 H   0  0  0  0  0  0  0  0  0  0  0  0
  150.9186  141.6205  159.6690 H   0  0  0  0  0  0  0  0  0  0  0  0
  151.6202  139.5135  158.5682 H   0  0  0  0  0  0  0  0  0  0  0  0
  153.0345  140.2922  157.9043 H   0  0  0  0  0  0  0  0  0  0  0  0
  152.4641  139.7869  160.8605 H   0  0  0  0  0  0  0  0  0  0  0  0
  153.6706  138.9917  159.8849 H   0  0  0  0  0  0  0  0  0  0  0  0
  154.7023  140.7813  161.2849 H   0  0  0  0  0  0  0  0  0  0  0  0
  154.9168  141.0899  159.5845 H   0  0  0  0  0  0  0  0  0  0  0  0
  154.3009  143.1528  160.6098 H   0  0  0  0  0  0  0  0  0  0  0  0
  151.8083  141.8663  161.8179 H   0  0  0  0  0  0  0  0  0  0  0  0
  152.3231  143.5388  161.9980 H   0  0  0  0  0  0  0  0  0  0  0  0
  153.2870  142.2497  162.6860 H   0  0  0  0  0  0  0  0  0  0  0  0
  153.4199  142.8105  158.4243 H   0  0  0  0  0  0  0  0  0  0  0  0
  151.2347  144.2159  160.0123 H   0  0  0  0  0  0  0  0  0  0  0  0
  151.6786  144.4933  158.3354 H   0  0  0  0  0  0  0  0  0  0  0  0
  152.7991  144.9245  159.6137 H   0  0  0  0  0  0  0  0  0  0  0  0
  1  2  1  0  0  0  0
  1 26  1  0  0  0  0
  1 27  1  0  0  0  0
  1 28  1  0  0  0  0
  2  3  1  0  0  0  0
  3  4  1  0  0  0  0
  3 29  1  0  0  0  0
  3 30  1  0  0  0  0
  4  5  1  0  0  0  0
  4 31  1  0  0  0  0
  4 32  1  0  0  0  0
  5 24  1  0  0  0  0
  5  6  1  0  0  0  0
  6  7  1  0  0  0  0
  6  8  2  0  0  0  0
  7 33  1  0  0  0  0
  7 34  1  0  0  0  0
  8  9  1  0  0  0  0
  8 35  1  0  0  0  0
  9 10  2  0  0  0  0
  9 11  1  0  0  0  0
 11 12  1  0  0  0  0
 11 24  1  0  0  0  0
 12 13  1  0  0  0  0
 12 36  1  0  0  0  0
 12 37  1  0  0  0  0
 13 14  2  0  0  0  0
 13 15  1  0  0  0  0
 15 16  1  0  0  0  0
 15 38  1  0  0  0  0
 16 22  1  0  0  0  0
 16 17  1  0  0  0  0
 16 39  1  0  0  0  0
 17 18  1  0  0  0  0
 17 40  1  0  0  0  0
 17 41  1  0  0  0  0
 18 19  1  0  0  0  0
 18 42  1  0  0  0  0
 18 43  1  0  0  0  0
 19 20  1  0  0  0  0
 19 44  1  0  0  0  0
 19 45  1  0  0  0  0
 20 21  1  0  0  0  0
 20 22  1  0  0  0  0
 20 46  1  0  0  0  0
 21 47  1  0  0  0  0
 21 48  1  0  0  0  0
 21 49  1  0  0  0  0
 22 23  1  0  0  0  0
 22 50  1  0  0  0  0
 23 51  1  0  0  0  0
 23 52  1  0  0  0  0
 23 53  1  0  0  0  0
 24 25  2  0  0  0  0
M  END
> <s_m_source_file>
AV-unprocessed.smi

> <i_m_source_file_index>
415

> <i_lp_mmshare_version>
43012

> <i_f3d_flags>
0

> <s_epik_input>
W0NIM11PW0NIMl1bQ0gyXW4xYyhbTkgyXSlbY0hdYyg9TyluKGMxPU8pW0NIMl1DKD1PKVtOSF1bQ0BASF0yW0NIMl1bQ0gyXVtDSDJdW0NAQEhdKFtDSDNdKVtDQEhdMltDSDNd

> <s_epik_cmdline>
J2VwaWtfcHl0aG9uJywgJy1waCcsICc3LjAnLCAnLXRuJywgJzgnLCAnLW1hJywgJzIwMCcsICctbWV0YWxfYmluZGluZycsICctaW1hZScsICc8aW5maWxlLm1hZT4nLCAnLW9tYWUnLCAnPG91dGZpbGUubWFlPic=

> <r_lp_tautomer_probability>
1

> <r_epik_Ionization_Penalty>
8.6647e-06

> <r_epik_Ionization_Penalty_Charging>
1.81162e-08

> <r_epik_Ionization_Penalty_Neutral>
8.64658e-06

> <r_epik_State_Penalty>
-0

> <r_epik_Charging_Adjusted_Penalty>
1.81162e-08

> <i_epik_Tot_Q>
0

> <i_epik_Tot_abs_Q>
0

> <r_epik_Metal_State_Penalty>
-0

> <b_epik_Metal_Only>
0

> <s_lp_Force_Field>
OPLS_2005

> <r_lp_Energy>
23.106

> <b_lp_Chiralities_Consistent>
1

> <s_lp_Variant>
AV-unprocessed.smi:415-8

> <Gold.Version>
5.8.1

> <Gold.Id.Protein>
6NUR|6NUR_protein|mol2

> <Gold.PLP.Fitness>
51.9981

> <Gold.PLP.PLP>
-45.4482

> <Gold.PLP.part.hbond>
-3.1003

> <Gold.PLP.part.metal>
0.0000

> <Gold.PLP.part.buried>
-1.1843

> <Gold.PLP.part.nonpolar>
-42.4213

> <Gold.PLP.part.repulsive>
0.3997

> <Gold.PLP.ligand.clash>
0.0000

> <Gold.PLP.ligand.torsion>
0.5861

> <Gold.PLP.Chemscore.Hbond>
2.5680

> <Gold.PLP.Chemscore.CHOScore>
0.0000

> <Gold.PLP.Chemscore.Metal>
0.0000

> <Gold.Chemscore.Hbonds>
donor molecule, donor type, donor heavy atom, donor atom, acceptor molecule, acceptor atom, score
      L1  H     7    33       P1  7948  1.00
      P1  H  7989  7998       L1    25  1.00
      P1  H 10752 10765       L1     2  0.93

> <Gold.PLP.Chemscore.Internal.Correction>
0.0181

> <Gold.Rescore>
     Score         DG    S(hbond)    S(metal)    S(lipo)     H(rot)  DE(clash)    DE(int)     intcor
     17.34     -22.04       2.63        0.00     116.09       2.26       1.94       2.76       ----

> <Gold.Chemscore.Fitness>
17.3449

> <Gold.Chemscore.DG>
-22.0415

> <Gold.Chemscore.ZeroCoef>
-5.4800

> <Gold.Chemscore.Hbond>
2.6277

> <Gold.Chemscore.Metal>
0.0000

> <Gold.Chemscore.Lipo>
116.0869

> <Gold.Chemscore.Internal_Hbond>
0.0000

> <Gold.Chemscore.DEClash>
1.9387

> <Gold.Chemscore.DEInternal>
2.7579

> <Gold.Chemscore.Rot>
2.2645

> <Gold.Chemscore.Internal.Correction>
   9.000000E+99

> <Gold.Chemscore.Hbonds>
donor molecule, donor type, donor heavy atom, donor atom, acceptor molecule, acceptor atom, score
      L1  H     7    33       P1  7948  0.97
      P1  H  7989  7998       L1    25  0.27
      P1  H 10752 10765       L1     2  0.64

> <Gold.Chemscore.Hbond.Weighted>
-8.7764

> <Gold.Chemscore.Metal.Weighted>
-0.0000

> <Gold.Chemscore.Lipo.Weighted>
-13.5822

> <Gold.Chemscore.Internal_Hbond.Weighted>
0.0000

> <Gold.Chemscore.DEClash.Weighted>
1.9387

> <Gold.Chemscore.DEInternal.Weighted>
2.7579

> <Gold.Chemscore.Rot.Weighted>
5.7972

> <Gold.Chemscore.Internal.Correction.Weighted>
   9.000000E+99

> <Gold.Protein.RotatedTorsions>
[ 6907 6896 6895 6894 ] final   57.47 input  -60.11 | X-H torsion
[ 7974 7965 7964 7962 ] final  100.88 input  175.53 | X-H torsion
[ 8008 7997 7996 7995 ] final  -61.15 input   59.86 | X-H torsion
[ 10167 10162 10161 10158 ] final   84.68 input  -65.29 | X-H torsion
[ 10718 10713 10712 10709 ] final   49.37 input   66.30 | X-H torsion
[ 10763 10752 10751 10750 ] final  175.08 input  -60.55 | X-H torsion
[ 11005 11000 10999 10996 ] final -126.59 input  -57.11 | X-H torsion

> <Gold.Protein.ActiveResidues>
 VAL166  LYS551  ARG553  GLY616  TRP617  ASP618  TYR619  PRO620  LYS621  CYS622 
 ASP623  PHE694  ASN695  SER759  ASP760  ASP761  ALA762  ILE779  LEU786  VAL792 
 PHE793  MET794  SER795  GLU796  ALA797  LYS798  CYS799  TRP800  GLU811  SER814 

> <Gold.Protein.RotatedAtoms>
  152.3734  134.6700  160.0168 H   0  0  0  0  0  0  0  0  0  0  0  0  # atno 6907 bound_to 6896
  151.6986  133.3305  159.3269 H   0  0  0  0  0  0  0  0  0  0  0  0  # atno 6908 bound_to 6896
  150.7691  134.6571  159.6364 H   0  0  0  0  0  0  0  0  0  0  0  0  # atno 6909 bound_to 6896
  145.3797  139.2382  143.3410 H   0  0  0  0  0  0  0  0  0  0  0  0  # atno 7974 bound_to 7965
  154.4434  140.1024  156.6386 H   0  0  0  0  0  0  0  0  0  0  0  0  # atno 8008 bound_to 7997
  155.5526  140.3486  155.4453 H   0  0  0  0  0  0  0  0  0  0  0  0  # atno 8009 bound_to 7997
  156.0518  140.1305  157.0031 H   0  0  0  0  0  0  0  0  0  0  0  0  # atno 8010 bound_to 7997
  139.9056  144.6303  150.8591 H   0  0  0  0  0  0  0  0  0  0  0  0  # atno 10167 bound_to 10162
  157.4780  130.8297  149.8061 H   0  0  0  0  0  0  0  0  0  0  0  0  # atno 10718 bound_to 10713
  154.4627  135.2768  155.1701 H   0  0  0  0  0  0  0  0  0  0  0  0  # atno 10763 bound_to 10752
  154.3482  135.6155  153.5633 H   0  0  0  0  0  0  0  0  0  0  0  0  # atno 10764 bound_to 10752
  152.9856  135.5805  154.4993 H   0  0  0  0  0  0  0  0  0  0  0  0  # atno 10765 bound_to 10752
  140.9669  134.0859  157.3910 H   0  0  0  0  0  0  0  0  0  0  0  0  # atno 11005 bound_to 11000
  146.2847  140.4463  142.8762 LP  0  0  0  0  0  0  0  0  0  0  0  0  # atno 17320 bound_to 7965
  144.8516  140.7010  143.6164 LP  0  0  0  0  0  0  0  0  0  0  0  0  # atno 17321 bound_to 7965
  140.7697  143.3404  151.2220 LP  0  0  0  0  0  0  0  0  0  0  0  0  # atno 17342 bound_to 10162
  139.6987  143.9569  152.2895 LP  0  0  0  0  0  0  0  0  0  0  0  0  # atno 17343 bound_to 10162
  156.0106  130.3835  150.2277 LP  0  0  0  0  0  0  0  0  0  0  0  0  # atno 17370 bound_to 10713
  157.0462  131.0049  151.3268 LP  0  0  0  0  0  0  0  0  0  0  0  0  # atno 17371 bound_to 10713
  139.8898  135.0107  156.6699 LP  0  0  0  0  0  0  0  0  0  0  0  0  # atno 17394 bound_to 11000
  140.7386  133.8997  155.8261 LP  0  0  0  0  0  0  0  0  0  0  0  0  # atno 17395 bound_to 11000

$$$$
