AV-unprocessed.smi:1127|AV-procd|sdf|4840|dock8
  -GOLD-   22720 3403D 1   1.00000     0.00000
 Structure written by MMmdl.
 42 43  0  0  0  0  0  0  0  0  1 V2000
  143.9447  141.0541  155.8797 C   0  0  0  0  0  0  0  0  0  0  0  0
  145.6804  141.6537  156.1407 S   0  0  2  0  0  0  0  0  0  0  0  0
  145.8331  142.9533  155.3482 O   0  0  0  0  0  0  0  0  0  0  0  0
  146.4463  140.3819  155.0745 C   0  0  0  0  0  0  0  0  0  0  0  0
  145.9025  139.1845  154.8368 N   0  0  0  0  0  0  0  0  0  0  0  0
  146.8015  138.5435  154.0059 N   0  0  0  0  0  0  0  0  0  0  0  0
  147.7886  139.4244  153.8300 C   0  0  0  0  0  0  0  0  0  0  0  0
  147.6289  140.5952  154.4672 N   0  0  0  0  0  0  0  0  0  0  0  0
  148.5124  141.7475  154.4845 C   0  0  0  0  0  0  0  0  0  0  0  0
  149.8004  141.4343  155.2451 C   0  0  0  0  0  0  0  0  0  0  0  0
  150.4798  140.4584  154.9291 O   0  0  0  0  0  0  0  0  0  0  0  0
  150.1121  142.2630  156.2534 N   0  0  0  0  0  0  0  0  0  0  0  0
  151.2729  142.1450  157.1331 C   0  0  0  0  0  0  0  0  0  0  0  0
  150.8210  141.5735  158.4969 C   0  0  0  0  0  0  0  0  0  0  0  0
  151.9224  141.2701  159.5305 C   0  0  0  0  0  0  0  0  0  0  0  0
  152.6879  142.4673  160.1302 C   0  0  0  0  0  0  0  0  0  0  0  0
  151.8407  143.7136  160.4591 C   0  0  0  0  0  0  0  0  0  0  0  0
  151.9332  144.8477  159.4177 C   0  0  0  0  0  0  0  0  0  0  0  0
  151.2743  144.5892  158.0484 C   0  0  0  0  0  0  0  0  0  0  0  0
  151.9780  143.5176  157.1889 C   0  0  0  0  0  0  0  0  0  0  0  0
  143.9206  139.9723  155.7465 H   0  0  0  0  0  0  0  0  0  0  0  0
  143.5128  141.5223  154.9952 H   0  0  0  0  0  0  0  0  0  0  0  0
  143.3274  141.3080  156.7411 H   0  0  0  0  0  0  0  0  0  0  0  0
  148.6535  139.2080  153.2202 H   0  0  0  0  0  0  0  0  0  0  0  0
  148.7526  142.0238  153.4569 H   0  0  0  0  0  0  0  0  0  0  0  0
  147.9919  142.5967  154.9293 H   0  0  0  0  0  0  0  0  0  0  0  0
  149.4912  143.0387  156.4320 H   0  0  0  0  0  0  0  0  0  0  0  0
  151.9730  141.4415  156.6787 H   0  0  0  0  0  0  0  0  0  0  0  0
  150.0588  142.2104  158.9411 H   0  0  0  0  0  0  0  0  0  0  0  0
  150.3057  140.6307  158.3095 H   0  0  0  0  0  0  0  0  0  0  0  0
  151.4469  140.7393  160.3561 H   0  0  0  0  0  0  0  0  0  0  0  0
  152.6368  140.5638  159.1065 H   0  0  0  0  0  0  0  0  0  0  0  0
  153.1489  142.1170  161.0545 H   0  0  0  0  0  0  0  0  0  0  0  0
  153.5341  142.7383  159.5009 H   0  0  0  0  0  0  0  0  0  0  0  0
  150.8031  143.4501  160.6640 H   0  0  0  0  0  0  0  0  0  0  0  0
  152.2142  144.1209  161.3993 H   0  0  0  0  0  0  0  0  0  0  0  0
  151.4606  145.7310  159.8490 H   0  0  0  0  0  0  0  0  0  0  0  0
  152.9783  145.1232  159.2718 H   0  0  0  0  0  0  0  0  0  0  0  0
  150.2123  144.3739  158.1644 H   0  0  0  0  0  0  0  0  0  0  0  0
  151.3099  145.5288  157.4959 H   0  0  0  0  0  0  0  0  0  0  0  0
  153.0154  143.4016  157.4968 H   0  0  0  0  0  0  0  0  0  0  0  0
  152.0556  143.8955  156.1680 H   0  0  0  0  0  0  0  0  0  0  0  0
  1  2  1  0  0  0  0
  1 21  1  0  0  0  0
  1 22  1  0  0  0  0
  1 23  1  0  0  0  0
  2  3  2  0  0  0  0
  2  4  1  0  0  0  0
  4  8  1  0  0  0  0
  4  5  2  0  0  0  0
  5  6  1  0  0  0  0
  6  7  2  0  0  0  0
  7  8  1  0  0  0  0
  7 24  1  0  0  0  0
  8  9  1  0  0  0  0
  9 10  1  0  0  0  0
  9 25  1  0  0  0  0
  9 26  1  0  0  0  0
 10 11  2  0  0  0  0
 10 12  1  0  0  0  0
 12 13  1  0  0  0  0
 12 27  1  0  0  0  0
 13 20  1  0  0  0  0
 13 14  1  0  0  0  0
 13 28  1  0  0  0  0
 14 15  1  0  0  0  0
 14 29  1  0  0  0  0
 14 30  1  0  0  0  0
 15 16  1  0  0  0  0
 15 31  1  0  0  0  0
 15 32  1  0  0  0  0
 16 17  1  0  0  0  0
 16 33  1  0  0  0  0
 16 34  1  0  0  0  0
 17 18  1  0  0  0  0
 17 35  1  0  0  0  0
 17 36  1  0  0  0  0
 18 19  1  0  0  0  0
 18 37  1  0  0  0  0
 18 38  1  0  0  0  0
 19 20  1  0  0  0  0
 19 39  1  0  0  0  0
 19 40  1  0  0  0  0
 20 41  1  0  0  0  0
 20 42  1  0  0  0  0
M  END
> <s_m_source_file>
AV-unprocessed.smi

> <i_m_source_file_index>
1127

> <i_lp_mmshare_version>
43012

> <i_f3d_flags>
0

> <s_epik_input>
W0NIM11bU0BdKD1PKWMxbm5bY0hdbjFbQ0gyXUMoPU8pW05IXVtDSF0yW0NIMl1bQ0gyXVtDSDJdW0NIMl1bQ0gyXVtDSDJdW0NIMl0y

> <s_epik_cmdline>
J2VwaWtfcHl0aG9uJywgJy1waCcsICc3LjAnLCAnLXRuJywgJzgnLCAnLW1hJywgJzIwMCcsICctbWV0YWxfYmluZGluZycsICctaW1hZScsICc8aW5maWxlLm1hZT4nLCAnLW9tYWUnLCAnPG91dGZpbGUubWFlPic=

> <r_lp_tautomer_probability>
1

> <r_epik_Ionization_Penalty>
7.34999e-08

> <r_epik_Ionization_Penalty_Charging>
0

> <r_epik_Ionization_Penalty_Neutral>
7.34999e-08

> <r_epik_State_Penalty>
-0

> <r_epik_Charging_Adjusted_Penalty>
0

> <i_epik_Tot_Q>
0

> <i_epik_Tot_abs_Q>
0

> <r_epik_Metal_State_Penalty>
-0

> <b_epik_Metal_Only>
0

> <s_lp_Force_Field>
OPLS_2005

> <r_lp_Energy>
17.7529

> <b_lp_Chiralities_Consistent>
1

> <s_lp_Variant>
AV-unprocessed.smi:1127-1

> <Gold.Version>
5.8.1

> <Gold.Id.Protein>
6NUR|6NUR_protein|mol2

> <Gold.PLP.Fitness>
43.8091

> <Gold.PLP.PLP>
-35.7476

> <Gold.PLP.part.hbond>
-2.0000

> <Gold.PLP.part.metal>
0.0000

> <Gold.PLP.part.buried>
-5.3083

> <Gold.PLP.part.nonpolar>
-28.3247

> <Gold.PLP.part.repulsive>
0.5855

> <Gold.PLP.ligand.clash>
0.0000

> <Gold.PLP.ligand.torsion>
0.7851

> <Gold.PLP.Chemscore.Hbond>
1.8640

> <Gold.PLP.Chemscore.CHOScore>
1.0000

> <Gold.PLP.Chemscore.Metal>
0.0000

> <Gold.Chemscore.Hbonds>
donor molecule, donor type, donor heavy atom, donor atom, acceptor molecule, acceptor atom, score
      L1  H    12    27       P1  8028  0.83
      P1  H  7989  7998       L1    11  1.00
      L1  C     7    24       P1  7957  1.00

> <Gold.PLP.Chemscore.Internal.Correction>
1.0397

> <Gold.Rescore>
     Score         DG    S(hbond)    S(metal)    S(lipo)     H(rot)  DE(clash)    DE(int)     intcor
     15.74     -17.33       1.61        0.00      92.75       1.70       0.68       0.92       ----

> <Gold.Chemscore.Fitness>
15.7402

> <Gold.Chemscore.DG>
-17.3323

> <Gold.Chemscore.ZeroCoef>
-5.4800

> <Gold.Chemscore.Hbond>
1.6060

> <Gold.Chemscore.Metal>
0.0000

> <Gold.Chemscore.Lipo>
92.7481

> <Gold.Chemscore.Internal_Hbond>
0.0000

> <Gold.Chemscore.DEClash>
0.6753

> <Gold.Chemscore.DEInternal>
0.9168

> <Gold.Chemscore.Rot>
1.7044

> <Gold.Chemscore.Internal.Correction>
   9.000000E+99

> <Gold.Chemscore.Hbonds>
donor molecule, donor type, donor heavy atom, donor atom, acceptor molecule, acceptor atom, score
      L1  H    12    27       P1  8028  0.82
      P1  H  7989  7998       L1    11  0.72

> <Gold.Chemscore.Hbond.Weighted>
-5.3640

> <Gold.Chemscore.Metal.Weighted>
-0.0000

> <Gold.Chemscore.Lipo.Weighted>
-10.8515

> <Gold.Chemscore.Internal_Hbond.Weighted>
0.0000

> <Gold.Chemscore.DEClash.Weighted>
0.6753

> <Gold.Chemscore.DEInternal.Weighted>
0.9168

> <Gold.Chemscore.Rot.Weighted>
4.3631

> <Gold.Chemscore.Internal.Correction.Weighted>
   9.000000E+99

> <Gold.Protein.RotatedTorsions>
[ 6907 6896 6895 6894 ] final  -77.24 input  -60.11 | X-H torsion
[ 7974 7965 7964 7962 ] final -138.94 input  175.53 | X-H torsion
[ 8008 7997 7996 7995 ] final   10.73 input   59.86 | X-H torsion
[ 10167 10162 10161 10158 ] final  138.99 input  -65.29 | X-H torsion
[ 10718 10713 10712 10709 ] final  -40.49 input   66.30 | X-H torsion
[ 10763 10752 10751 10750 ] final   12.05 input  -60.55 | X-H torsion
[ 11005 11000 10999 10996 ] final  152.55 input  -57.11 | X-H torsion

> <Gold.Protein.ActiveResidues>
 VAL166  LYS551  ARG553  GLY616  TRP617  ASP618  TYR619  PRO620  LYS621  CYS622 
 ASP623  PHE694  ASN695  SER759  ASP760  ASP761  ALA762  ILE779  LEU786  VAL792 
 PHE793  MET794  SER795  GLU796  ALA797  LYS798  CYS799  TRP800  GLU811  SER814 

> <Gold.Protein.RotatedAtoms>
  150.7004  134.4452  159.5310 H   0  0  0  0  0  0  0  0  0  0  0  0  # atno 6907 bound_to 6896
  152.2155  134.8459  160.0501 H   0  0  0  0  0  0  0  0  0  0  0  0  # atno 6908 bound_to 6896
  151.9329  133.3581  159.3974 H   0  0  0  0  0  0  0  0  0  0  0  0  # atno 6909 bound_to 6896
  144.8717  140.6377  143.5262 H   0  0  0  0  0  0  0  0  0  0  0  0  # atno 7974 bound_to 7965
  154.7974  140.2846  155.5947 H   0  0  0  0  0  0  0  0  0  0  0  0  # atno 8008 bound_to 7997
  156.2972  140.2593  156.2764 H   0  0  0  0  0  0  0  0  0  0  0  0  # atno 8009 bound_to 7997
  154.9598  140.0378  157.2174 H   0  0  0  0  0  0  0  0  0  0  0  0  # atno 8010 bound_to 7997
  139.5093  144.6321  151.5791 H   0  0  0  0  0  0  0  0  0  0  0  0  # atno 10167 bound_to 10162
  156.2807  130.4217  149.8340 H   0  0  0  0  0  0  0  0  0  0  0  0  # atno 10718 bound_to 10713
  153.1863  135.6835  153.8412 H   0  0  0  0  0  0  0  0  0  0  0  0  # atno 10763 bound_to 10752
  153.7726  135.3194  155.3355 H   0  0  0  0  0  0  0  0  0  0  0  0  # atno 10764 bound_to 10752
  154.8090  135.4729  154.0564 H   0  0  0  0  0  0  0  0  0  0  0  0  # atno 10765 bound_to 10752
  140.1318  134.8797  157.2214 H   0  0  0  0  0  0  0  0  0  0  0  0  # atno 11005 bound_to 11000
  145.4118  139.1579  143.4122 LP  0  0  0  0  0  0  0  0  0  0  0  0  # atno 17320 bound_to 7965
  146.2935  140.4222  142.8730 LP  0  0  0  0  0  0  0  0  0  0  0  0  # atno 17321 bound_to 7965
  140.6057  143.9529  150.6417 LP  0  0  0  0  0  0  0  0  0  0  0  0  # atno 17342 bound_to 10162
  140.2755  143.3426  152.1199 LP  0  0  0  0  0  0  0  0  0  0  0  0  # atno 17343 bound_to 10162
  156.5788  130.8456  151.3377 LP  0  0  0  0  0  0  0  0  0  0  0  0  # atno 17370 bound_to 10713
  157.7313  130.9699  150.1875 LP  0  0  0  0  0  0  0  0  0  0  0  0  # atno 17371 bound_to 10713
  140.2833  134.3325  155.7336 LP  0  0  0  0  0  0  0  0  0  0  0  0  # atno 17394 bound_to 11000
  141.2171  133.7491  156.9395 LP  0  0  0  0  0  0  0  0  0  0  0  0  # atno 17395 bound_to 11000

$$$$
