AV-unprocessed.smi:3287|AV-procd|sdf|12603|dock7
  -GOLD-   2272018533D 1   1.00000     0.00000
 Structure written by MMmdl.
 43 44  0  0  0  0  0  0  0  0  2 V2000
  145.7352  143.2370  154.3417 C   0  0  0  0  0  0  0  0  0  0  0  0
  146.6243  142.0821  154.8360 C   0  0  1  0  0  0  0  0  0  0  0  0
  147.9164  142.0219  153.9962 C   0  0  0  0  0  0  0  0  0  0  0  0
  148.8463  140.8813  154.4395 C   0  0  0  0  0  0  0  0  0  0  0  0
  149.1928  140.9683  155.9352 C   0  0  1  0  0  0  0  0  0  0  0  0
  150.0932  142.1168  156.1912 N   0  3  0  0  0  0  0  0  0  0  0  0
  151.0944  141.9198  157.2618 C   0  0  0  0  0  0  0  0  0  0  0  0
  151.4753  143.2552  157.9236 C   0  0  1  0  0  0  0  0  0  0  0  0
  150.3236  144.0742  157.9917 O   0  0  0  0  0  0  0  0  0  0  0  0
  152.0914  143.0305  159.2957 C   0  0  0  0  0  0  0  0  0  0  0  0
  153.0828  142.0461  159.5011 C   0  0  0  0  0  0  0  0  0  0  0  0
  153.6208  141.8912  160.7944 C   0  0  0  0  0  0  0  0  0  0  0  0
  153.2386  142.6403  161.8507 N   0  0  0  0  0  0  0  0  0  0  0  0
  152.2925  143.5818  161.6482 C   0  0  0  0  0  0  0  0  0  0  0  0
  151.6903  143.8172  160.3959 C   0  0  0  0  0  0  0  0  0  0  0  0
  147.8998  141.0324  156.7749 C   0  0  0  0  0  0  0  0  0  0  0  0
  146.9565  142.1789  156.3489 C   0  0  2  0  0  0  0  0  0  0  0  0
  145.7005  142.1755  157.2386 C   0  0  0  0  0  0  0  0  0  0  0  0
  146.1916  144.2059  154.5466 H   0  0  0  0  0  0  0  0  0  0  0  0
  144.7523  143.2222  154.8119 H   0  0  0  0  0  0  0  0  0  0  0  0
  145.5699  143.1702  153.2659 H   0  0  0  0  0  0  0  0  0  0  0  0
  146.0772  141.1531  154.6673 H   0  0  0  0  0  0  0  0  0  0  0  0
  147.6672  141.8905  152.9425 H   0  0  0  0  0  0  0  0  0  0  0  0
  148.4449  142.9736  154.0655 H   0  0  0  0  0  0  0  0  0  0  0  0
  148.3564  139.9272  154.2397 H   0  0  0  0  0  0  0  0  0  0  0  0
  149.7563  140.8848  153.8384 H   0  0  0  0  0  0  0  0  0  0  0  0
  149.7393  140.0623  156.2006 H   0  0  0  0  0  0  0  0  0  0  0  0
  150.5998  142.3051  155.3381 H   0  0  0  0  0  0  0  0  0  0  0  0
  150.7148  141.2278  158.0136 H   0  0  0  0  0  0  0  0  0  0  0  0
  151.9837  141.4625  156.8257 H   0  0  0  0  0  0  0  0  0  0  0  0
  152.2054  143.7724  157.2992 H   0  0  0  0  0  0  0  0  0  0  0  0
  149.9080  144.0783  157.1423 H   0  0  0  0  0  0  0  0  0  0  0  0
  153.4277  141.4217  158.6898 H   0  0  0  0  0  0  0  0  0  0  0  0
  154.3798  141.1467  160.9843 H   0  0  0  0  0  0  0  0  0  0  0  0
  152.0070  144.1669  162.5101 H   0  0  0  0  0  0  0  0  0  0  0  0
  150.9389  144.5857  160.2888 H   0  0  0  0  0  0  0  0  0  0  0  0
  147.3705  140.0845  156.6665 H   0  0  0  0  0  0  0  0  0  0  0  0
  148.1336  141.1116  157.8362 H   0  0  0  0  0  0  0  0  0  0  0  0
  147.4749  143.1227  156.5243 H   0  0  0  0  0  0  0  0  0  0  0  0
  145.0893  141.2903  157.0600 H   0  0  0  0  0  0  0  0  0  0  0  0
  145.0786  143.0535  157.0664 H   0  0  0  0  0  0  0  0  0  0  0  0
  145.9698  142.1831  158.2953 H   0  0  0  0  0  0  0  0  0  0  0  0
  149.5330  142.9277  156.4134 H   0  0  0  0  0  0  0  0  0  0  0  0
  1  2  1  0  0  0  0
  1 19  1  0  0  0  0
  1 20  1  0  0  0  0
  1 21  1  0  0  0  0
  2 17  1  0  0  0  0
  2  3  1  0  0  0  0
  2 22  1  0  0  0  0
  3  4  1  0  0  0  0
  3 23  1  0  0  0  0
  3 24  1  0  0  0  0
  4  5  1  0  0  0  0
  4 25  1  0  0  0  0
  4 26  1  0  0  0  0
  5  6  1  0  0  0  0
  5 16  1  0  0  0  0
  5 27  1  0  0  0  0
  6  7  1  0  0  0  0
  6 28  1  0  0  0  0
  6 43  1  0  0  0  0
  7  8  1  0  0  0  0
  7 29  1  0  0  0  0
  7 30  1  0  0  0  0
  8  9  1  0  0  0  0
  8 10  1  0  0  0  0
  8 31  1  0  0  0  0
  9 32  1  0  0  0  0
 10 15  1  0  0  0  0
 10 11  2  0  0  0  0
 11 12  1  0  0  0  0
 11 33  1  0  0  0  0
 12 13  2  0  0  0  0
 12 34  1  0  0  0  0
 13 14  1  0  0  0  0
 14 15  2  0  0  0  0
 14 35  1  0  0  0  0
 15 36  1  0  0  0  0
 16 17  1  0  0  0  0
 16 37  1  0  0  0  0
 16 38  1  0  0  0  0
 17 18  1  0  0  0  0
 17 39  1  0  0  0  0
 18 40  1  0  0  0  0
 18 41  1  0  0  0  0
 18 42  1  0  0  0  0
M  CHG  1   6   1
M  END
> <s_m_source_file>
AV-unprocessed.smi

> <i_m_source_file_index>
3287

> <i_lp_mmshare_version>
43012

> <i_f3d_flags>
0

> <s_epik_input>
W0NIM11bQ0BASF0xW0NIMl1bQ0gyXVtDQEhdKFtDSDJdW0NASF0xW0NIM10pW05IXVtDSDJdW0NASF0oW09IXSljMltjSF1bY0hdbltjSF1bY0hdMg==

> <s_epik_cmdline>
J2VwaWtfcHl0aG9uJywgJy1waCcsICc3LjAnLCAnLXRuJywgJzgnLCAnLW1hJywgJzIwMCcsICctbWV0YWxfYmluZGluZycsICctaW1hZScsICc8aW5maWxlLm1hZT4nLCAnLW9tYWUnLCAnPG91dGZpbGUubWFlPic=

> <r_lp_tautomer_probability>
1

> <r_epik_Ionization_Penalty>
0.00537262

> <r_epik_Ionization_Penalty_Charging>
0.00321624

> <r_epik_Ionization_Penalty_Neutral>
0.00215638

> <r_epik_State_Penalty>
-0

> <r_epik_Charging_Adjusted_Penalty>
0.00321624

> <i_epik_Tot_Q>
1

> <i_epik_Tot_abs_Q>
1

> <r_epik_Metal_State_Penalty>
-0

> <b_epik_Metal_Only>
0

> <s_lp_Force_Field>
OPLS_2005

> <r_lp_Energy>
19.4184

> <b_lp_Chiralities_Consistent>
1

> <s_lp_Variant>
AV-unprocessed.smi:3287-14

> <Gold.Version>
5.8.1

> <Gold.Id.Protein>
6NUR|6NUR_protein|mol2

> <Gold.PLP.Fitness>
49.3258

> <Gold.PLP.PLP>
-42.5832

> <Gold.PLP.part.hbond>
-2.8858

> <Gold.PLP.part.metal>
0.0000

> <Gold.PLP.part.buried>
-3.1662

> <Gold.PLP.part.nonpolar>
-35.9172

> <Gold.PLP.part.repulsive>
0.1708

> <Gold.PLP.ligand.clash>
0.0000

> <Gold.PLP.ligand.torsion>
1.1363

> <Gold.PLP.Chemscore.Hbond>
3.0000

> <Gold.PLP.Chemscore.CHOScore>
0.0000

> <Gold.PLP.Chemscore.Metal>
0.0000

> <Gold.Chemscore.Hbonds>
donor molecule, donor type, donor heavy atom, donor atom, acceptor molecule, acceptor atom, score
      L1  H     6    43       P1  8028  1.66
      L1  H     9    32       P1  8028  1.00

> <Gold.PLP.Chemscore.Internal.Correction>
0.0152

> <Gold.Rescore>
     Score         DG    S(hbond)    S(metal)    S(lipo)     H(rot)  DE(clash)    DE(int)     intcor
     19.04     -19.86       1.83        0.00     112.18       1.90       0.06       0.76       ----

> <Gold.Chemscore.Fitness>
19.0379

> <Gold.Chemscore.DG>
-19.8579

> <Gold.Chemscore.ZeroCoef>
-5.4800

> <Gold.Chemscore.Hbond>
1.8339

> <Gold.Chemscore.Metal>
0.0000

> <Gold.Chemscore.Lipo>
112.1825

> <Gold.Chemscore.Internal_Hbond>
0.0000

> <Gold.Chemscore.DEClash>
0.0561

> <Gold.Chemscore.DEInternal>
0.7638

> <Gold.Chemscore.Rot>
1.9035

> <Gold.Chemscore.Internal.Correction>
   9.000000E+99

> <Gold.Chemscore.Hbonds>
donor molecule, donor type, donor heavy atom, donor atom, acceptor molecule, acceptor atom, score
      L1  H     6    43       P1  8028  0.76
      L1  H     9    32       P1  8028  0.77

> <Gold.Chemscore.Hbond.Weighted>
-6.1254

> <Gold.Chemscore.Metal.Weighted>
-0.0000

> <Gold.Chemscore.Lipo.Weighted>
-13.1253

> <Gold.Chemscore.Internal_Hbond.Weighted>
0.0000

> <Gold.Chemscore.DEClash.Weighted>
0.0561

> <Gold.Chemscore.DEInternal.Weighted>
0.7638

> <Gold.Chemscore.Rot.Weighted>
4.8729

> <Gold.Chemscore.Internal.Correction.Weighted>
   9.000000E+99

> <Gold.Protein.RotatedTorsions>
[ 6907 6896 6895 6894 ] final   -1.95 input  -60.11 | X-H torsion
[ 7974 7965 7964 7962 ] final -115.07 input  175.53 | X-H torsion
[ 8008 7997 7996 7995 ] final  -26.35 input   59.86 | X-H torsion
[ 10167 10162 10161 10158 ] final  146.40 input  -65.29 | X-H torsion
[ 10718 10713 10712 10709 ] final  119.89 input   66.30 | X-H torsion
[ 10763 10752 10751 10750 ] final  163.95 input  -60.55 | X-H torsion
[ 11005 11000 10999 10996 ] final   79.48 input  -57.11 | X-H torsion

> <Gold.Protein.ActiveResidues>
 VAL166  LYS551  ARG553  GLY616  TRP617  ASP618  TYR619  PRO620  LYS621  CYS622 
 ASP623  PHE694  ASN695  SER759  ASP760  ASP761  ALA762  ILE779  LEU786  VAL792 
 PHE793  MET794  SER795  GLU796  ALA797  LYS798  CYS799  TRP800  GLU811  SER814 

> <Gold.Protein.RotatedAtoms>
  151.5377  135.1068  159.9918 H   0  0  0  0  0  0  0  0  0  0  0  0  # atno 6907 bound_to 6896
  152.4549  133.7700  159.6804 H   0  0  0  0  0  0  0  0  0  0  0  0  # atno 6908 bound_to 6896
  150.8490  133.7751  159.3057 H   0  0  0  0  0  0  0  0  0  0  0  0  # atno 6909 bound_to 6896
  145.1127  140.8621  143.3860 H   0  0  0  0  0  0  0  0  0  0  0  0  # atno 7974 bound_to 7965
  154.4429  140.1902  156.0762 H   0  0  0  0  0  0  0  0  0  0  0  0  # atno 8008 bound_to 7997
  156.0474  140.3312  155.7285 H   0  0  0  0  0  0  0  0  0  0  0  0  # atno 8009 bound_to 7997
  155.5609  140.0603  157.2820 H   0  0  0  0  0  0  0  0  0  0  0  0  # atno 8010 bound_to 7997
  139.4908  144.5832  151.6830 H   0  0  0  0  0  0  0  0  0  0  0  0  # atno 10167 bound_to 10162
  157.5929  131.1062  150.7960 H   0  0  0  0  0  0  0  0  0  0  0  0  # atno 10718 bound_to 10713
  154.3016  135.2759  155.2608 H   0  0  0  0  0  0  0  0  0  0  0  0  # atno 10763 bound_to 10752
  154.5043  135.5800  153.6558 H   0  0  0  0  0  0  0  0  0  0  0  0  # atno 10764 bound_to 10752
  152.9900  135.6165  154.3187 H   0  0  0  0  0  0  0  0  0  0  0  0  # atno 10765 bound_to 10752
  139.9171  134.7846  156.1784 H   0  0  0  0  0  0  0  0  0  0  0  0  # atno 11005 bound_to 11000
  145.0829  139.2946  143.5774 LP  0  0  0  0  0  0  0  0  0  0  0  0  # atno 17320 bound_to 7965
  146.3525  140.0341  142.8648 LP  0  0  0  0  0  0  0  0  0  0  0  0  # atno 17321 bound_to 7965
  140.5443  144.0529  150.6100 LP  0  0  0  0  0  0  0  0  0  0  0  0  # atno 17342 bound_to 10162
  140.3562  143.2934  152.0434 LP  0  0  0  0  0  0  0  0  0  0  0  0  # atno 17343 bound_to 10162
  156.8377  130.5037  149.5324 LP  0  0  0  0  0  0  0  0  0  0  0  0  # atno 17370 bound_to 10713
  156.0987  130.5952  150.9857 LP  0  0  0  0  0  0  0  0  0  0  0  0  # atno 17371 bound_to 10713
  141.0657  133.6820  156.2040 LP  0  0  0  0  0  0  0  0  0  0  0  0  # atno 17394 bound_to 11000
  140.6589  134.4989  157.5582 LP  0  0  0  0  0  0  0  0  0  0  0  0  # atno 17395 bound_to 11000

$$$$
