AV-unprocessed.smi:2062|AV-procd|sdf|8403|dock10
  -GOLD-   2272011 93D 1   1.00000     0.00000
 Structure written by MMmdl.
 42 43  0  0  0  0  0  0  0  0  3 V2000
  144.8314  132.9968  150.4064 C   0  0  0  0  0  0  0  0  0  0  0  0
  146.0302  132.1961  150.9358 C   0  0  0  0  0  0  0  0  0  0  0  0
  145.5765  130.8063  151.4137 C   0  0  0  0  0  0  0  0  0  0  0  0
  146.7581  132.9810  152.0492 C   0  0  0  0  0  0  0  0  0  0  0  0
  147.9908  132.3010  152.5322 N   0  3  2  0  0  0  0  0  0  0  0  0
  147.7237  131.1975  153.4864 C   0  0  0  0  0  0  0  0  0  0  0  0
  147.4237  131.7414  154.8936 C   0  0  0  0  0  0  0  0  0  0  0  0
  148.5145  132.5440  155.3220 O   0  0  0  0  0  0  0  0  0  0  0  0
  148.7121  133.6885  154.4974 C   0  0  1  0  0  0  0  0  0  0  0  0
  149.8526  134.5369  155.0871 C   0  0  0  0  0  0  0  0  0  0  0  0
  149.9356  135.8438  154.4437 N   0  0  0  0  0  0  0  0  0  0  0  0
  150.8298  136.8027  154.7211 C   0  0  0  0  0  0  0  0  0  0  0  0
  151.7030  136.6054  155.5692 O   0  0  0  0  0  0  0  0  0  0  0  0
  150.6526  137.9329  154.0010 N   0  5  0  0  0  0  0  0  0  0  0  0
  150.7435  139.1313  154.6006 C   0  0  0  0  0  0  0  0  0  0  0  0
  151.6209  139.3953  155.5760 N   0  0  0  0  0  0  0  0  0  0  0  0
  151.5381  140.7030  156.0576 C   0  0  0  0  0  0  0  0  0  0  0  0
  150.5686  141.4492  155.4414 C   0  0  0  0  0  0  0  0  0  0  0  0
  149.7268  140.5263  154.2292 S   0  0  0  0  0  0  0  0  0  0  0  0
  149.0402  133.2082  153.0662 C   0  0  0  0  0  0  0  0  0  0  0  0
  144.0919  133.1698  151.1891 H   0  0  0  0  0  0  0  0  0  0  0  0
  144.3346  132.4692  149.5916 H   0  0  0  0  0  0  0  0  0  0  0  0
  145.1446  133.9684  150.0231 H   0  0  0  0  0  0  0  0  0  0  0  0
  146.7076  132.0555  150.0940 H   0  0  0  0  0  0  0  0  0  0  0  0
  144.8902  130.8808  152.2579 H   0  0  0  0  0  0  0  0  0  0  0  0
  146.4226  130.1935  151.7253 H   0  0  0  0  0  0  0  0  0  0  0  0
  145.0635  130.2668  150.6170 H   0  0  0  0  0  0  0  0  0  0  0  0
  146.9963  133.9893  151.7106 H   0  0  0  0  0  0  0  0  0  0  0  0
  146.0645  133.1033  152.8821 H   0  0  0  0  0  0  0  0  0  0  0  0
  146.9096  130.5649  153.1314 H   0  0  0  0  0  0  0  0  0  0  0  0
  148.6082  130.5606  153.5298 H   0  0  0  0  0  0  0  0  0  0  0  0
  146.4967  132.3166  154.9116 H   0  0  0  0  0  0  0  0  0  0  0  0
  147.2988  130.9166  155.5953 H   0  0  0  0  0  0  0  0  0  0  0  0
  147.8030  134.2918  154.4904 H   0  0  0  0  0  0  0  0  0  0  0  0
  149.7448  134.6384  156.1683 H   0  0  0  0  0  0  0  0  0  0  0  0
  150.8062  134.0355  154.9199 H   0  0  0  0  0  0  0  0  0  0  0  0
  149.2458  136.0493  153.7359 H   0  0  0  0  0  0  0  0  0  0  0  0
  152.2090  141.0174  156.8430 H   0  0  0  0  0  0  0  0  0  0  0  0
  150.2987  142.4780  155.6251 H   0  0  0  0  0  0  0  0  0  0  0  0
  149.9817  132.6574  153.0804 H   0  0  0  0  0  0  0  0  0  0  0  0
  149.1997  134.0575  152.4035 H   0  0  0  0  0  0  0  0  0  0  0  0
  148.3822  131.8617  151.7111 H   0  0  0  0  0  0  0  0  0  0  0  0
  1  2  1  0  0  0  0
  1 21  1  0  0  0  0
  1 22  1  0  0  0  0
  1 23  1  0  0  0  0
  2  3  1  0  0  0  0
  2  4  1  0  0  0  0
  2 24  1  0  0  0  0
  3 25  1  0  0  0  0
  3 26  1  0  0  0  0
  3 27  1  0  0  0  0
  4  5  1  0  0  0  0
  4 28  1  0  0  0  0
  4 29  1  0  0  0  0
  5 20  1  0  0  0  0
  5  6  1  0  0  0  0
  5 42  1  0  0  0  0
  6  7  1  0  0  0  0
  6 30  1  0  0  0  0
  6 31  1  0  0  0  0
  7  8  1  0  0  0  0
  7 32  1  0  0  0  0
  7 33  1  0  0  0  0
  8  9  1  0  0  0  0
  9 10  1  0  0  0  0
  9 20  1  0  0  0  0
  9 34  1  0  0  0  0
 10 11  1  0  0  0  0
 10 35  1  0  0  0  0
 10 36  1  0  0  0  0
 11 12  1  0  0  0  0
 11 37  1  0  0  0  0
 12 13  2  0  0  0  0
 12 14  1  0  0  0  0
 14 15  1  0  0  0  0
 15 19  1  0  0  0  0
 15 16  2  0  0  0  0
 16 17  1  0  0  0  0
 17 18  2  0  0  0  0
 17 38  1  0  0  0  0
 18 19  1  0  0  0  0
 18 39  1  0  0  0  0
 20 40  1  0  0  0  0
 20 41  1  0  0  0  0
M  CHG  1   5   1
M  CHG  1  14  -1
M  END
> <s_m_source_file>
AV-unprocessed.smi

> <i_m_source_file_index>
2062

> <i_lp_mmshare_version>
43012

> <i_f3d_flags>
0

> <s_epik_input>
W0NIM11bQ0hdKFtDSDNdKVtDSDJdTjFbQ0gyXVtDSDJdT1tDQEhdKFtDSDJdMSlbQ0gyXVtOSF1DKD1PKVtOSF1jMm5bY0hdW2NIXXMy

> <s_epik_cmdline>
J2VwaWtfcHl0aG9uJywgJy1waCcsICc3LjAnLCAnLXRuJywgJzgnLCAnLW1hJywgJzIwMCcsICctbWV0YWxfYmluZGluZycsICctaW1hZScsICc8aW5maWxlLm1hZT4nLCAnLW9tYWUnLCAnPG91dGZpbGUubWFlPic=

> <r_lp_tautomer_probability>
0.999

> <r_epik_Ionization_Penalty>
6.35835

> <r_epik_Ionization_Penalty_Charging>
5.49938

> <r_epik_Ionization_Penalty_Neutral>
0.858963

> <r_epik_State_Penalty>
5.49328

> <r_epik_Charging_Adjusted_Penalty>
10.9927

> <i_epik_Tot_Q>
0

> <i_epik_Tot_abs_Q>
2

> <r_epik_Metal_State_Penalty>
1.51523

> <b_epik_Metal_Only>
1

> <s_lp_Force_Field>
OPLS_2005

> <r_lp_Energy>
10.4353

> <b_lp_Chiralities_Consistent>
1

> <s_lp_Variant>
AV-unprocessed.smi:2062-8

> <Gold.Version>
5.8.1

> <Gold.Id.Protein>
6NUR|6NUR_protein|mol2

> <Gold.PLP.Fitness>
46.1589

> <Gold.PLP.PLP>
-36.6632

> <Gold.PLP.part.hbond>
-3.1826

> <Gold.PLP.part.metal>
0.0000

> <Gold.PLP.part.buried>
-4.8974

> <Gold.PLP.part.nonpolar>
-28.7208

> <Gold.PLP.part.repulsive>
0.3747

> <Gold.PLP.ligand.clash>
0.0000

> <Gold.PLP.ligand.torsion>
0.9491

> <Gold.PLP.Chemscore.Hbond>
2.7520

> <Gold.PLP.Chemscore.CHOScore>
1.0000

> <Gold.PLP.Chemscore.Metal>
0.0000

> <Gold.Chemscore.Hbonds>
donor molecule, donor type, donor heavy atom, donor atom, acceptor molecule, acceptor atom, score
      L1  H     5    42       P1 10747  1.00
      L1  H    11    37       P1  7948  0.86
      P1  H 10752 10763       L1    13  1.00
      L1  C    18    39       P1  8028  0.71

> <Gold.PLP.Chemscore.Internal.Correction>
0.1380

> <Gold.Rescore>
     Score         DG    S(hbond)    S(metal)    S(lipo)     H(rot)  DE(clash)    DE(int)     intcor
     16.33     -18.91       2.45        0.00      82.60       1.72       0.08       2.50       ----

> <Gold.Chemscore.Fitness>
16.3317

> <Gold.Chemscore.DG>
-18.9123

> <Gold.Chemscore.ZeroCoef>
-5.4800

> <Gold.Chemscore.Hbond>
2.4460

> <Gold.Chemscore.Metal>
0.0000

> <Gold.Chemscore.Lipo>
82.6021

> <Gold.Chemscore.Internal_Hbond>
0.0000

> <Gold.Chemscore.DEClash>
0.0784

> <Gold.Chemscore.DEInternal>
2.5022

> <Gold.Chemscore.Rot>
1.7194

> <Gold.Chemscore.Internal.Correction>
   9.000000E+99

> <Gold.Chemscore.Hbonds>
donor molecule, donor type, donor heavy atom, donor atom, acceptor molecule, acceptor atom, score
      L1  H     5    42       P1 10747  1.00
      L1  H    11    37       P1  7948  0.70
      P1  H 10752 10763       L1    13  0.25

> <Gold.Chemscore.Hbond.Weighted>
-8.1695

> <Gold.Chemscore.Metal.Weighted>
-0.0000

> <Gold.Chemscore.Lipo.Weighted>
-9.6645

> <Gold.Chemscore.Internal_Hbond.Weighted>
0.0000

> <Gold.Chemscore.DEClash.Weighted>
0.0784

> <Gold.Chemscore.DEInternal.Weighted>
2.5022

> <Gold.Chemscore.Rot.Weighted>
4.4017

> <Gold.Chemscore.Internal.Correction.Weighted>
   9.000000E+99

> <Gold.Protein.RotatedTorsions>
[ 6907 6896 6895 6894 ] final -147.60 input  -60.11 | X-H torsion
[ 7974 7965 7964 7962 ] final -161.29 input  175.53 | X-H torsion
[ 8008 7997 7996 7995 ] final  176.83 input   59.86 | X-H torsion
[ 10167 10162 10161 10158 ] final -121.44 input  -65.29 | X-H torsion
[ 10718 10713 10712 10709 ] final   12.17 input   66.30 | X-H torsion
[ 10763 10752 10751 10750 ] final   54.55 input  -60.55 | X-H torsion
[ 11005 11000 10999 10996 ] final  -52.14 input  -57.11 | X-H torsion

> <Gold.Protein.ActiveResidues>
 VAL166  LYS551  ARG553  GLY616  TRP617  ASP618  TYR619  PRO620  LYS621  CYS622 
 ASP623  PHE694  ASN695  SER759  ASP760  ASP761  ALA762  ILE779  LEU786  VAL792 
 PHE793  MET794  SER795  GLU796  ALA797  LYS798  CYS799  TRP800  GLU811  SER814 

> <Gold.Protein.RotatedAtoms>
  151.1580  133.4864  159.2594 H   0  0  0  0  0  0  0  0  0  0  0  0  # atno 6907 bound_to 6896
  151.1484  135.0215  159.8667 H   0  0  0  0  0  0  0  0  0  0  0  0  # atno 6908 bound_to 6896
  152.5463  134.1466  159.8554 H   0  0  0  0  0  0  0  0  0  0  0  0  # atno 6909 bound_to 6896
  144.7396  140.3419  143.6133 H   0  0  0  0  0  0  0  0  0  0  0  0  # atno 7974 bound_to 7965
  156.0722  140.1374  156.9814 H   0  0  0  0  0  0  0  0  0  0  0  0  # atno 8008 bound_to 7997
  154.4538  140.0969  156.6748 H   0  0  0  0  0  0  0  0  0  0  0  0  # atno 8009 bound_to 7997
  155.5209  140.3456  155.4409 H   0  0  0  0  0  0  0  0  0  0  0  0  # atno 8010 bound_to 7997
  140.0250  143.5306  152.2203 H   0  0  0  0  0  0  0  0  0  0  0  0  # atno 10167 bound_to 10162
  157.0062  130.6099  149.5702 H   0  0  0  0  0  0  0  0  0  0  0  0  # atno 10718 bound_to 10713
  152.9806  135.5741  154.4923 H   0  0  0  0  0  0  0  0  0  0  0  0  # atno 10763 bound_to 10752
  154.4455  135.2777  155.1819 H   0  0  0  0  0  0  0  0  0  0  0  0  # atno 10764 bound_to 10752
  154.3469  135.6217  153.5677 H   0  0  0  0  0  0  0  0  0  0  0  0  # atno 10765 bound_to 10752
  141.0909  133.6633  156.3981 H   0  0  0  0  0  0  0  0  0  0  0  0  # atno 11005 bound_to 11000
  145.7366  139.1751  143.2400 LP  0  0  0  0  0  0  0  0  0  0  0  0  # atno 17320 bound_to 7965
  146.1166  140.7362  142.9477 LP  0  0  0  0  0  0  0  0  0  0  0  0  # atno 17321 bound_to 7965
  139.6114  144.7609  151.2943 LP  0  0  0  0  0  0  0  0  0  0  0  0  # atno 17342 bound_to 10162
  140.7326  143.6818  150.7995 LP  0  0  0  0  0  0  0  0  0  0  0  0  # atno 17343 bound_to 10162
  156.0153  130.5246  150.8114 LP  0  0  0  0  0  0  0  0  0  0  0  0  # atno 17370 bound_to 10713
  157.5354  131.0938  150.9899 LP  0  0  0  0  0  0  0  0  0  0  0  0  # atno 17371 bound_to 10713
  140.5255  134.6263  157.5332 LP  0  0  0  0  0  0  0  0  0  0  0  0  # atno 17394 bound_to 11000
  139.9734  134.7255  155.9996 LP  0  0  0  0  0  0  0  0  0  0  0  0  # atno 17395 bound_to 11000

$$$$
