AV-unprocessed.smi:1057|AV-procd|sdf|4651|dock2
  -GOLD-   22720 3163D 1   1.00000     0.00000
 Structure written by MMmdl.
 45 46  0  0  0  0  0  0  0  0  2 V2000
  148.6820  133.1627  153.4103 C   0  0  0  0  0  0  0  0  0  0  0  0
  149.4008  133.5095  154.3345 C   0  0  0  0  0  0  0  0  0  0  0  0
  150.2644  133.9407  155.4437 C   0  0  0  0  0  0  0  0  0  0  0  0
  149.5648  134.8247  156.3637 N   0  0  0  0  0  0  0  0  0  0  0  0
  149.2789  134.5181  157.6369 C   0  0  0  0  0  0  0  0  0  0  0  0
  149.5925  133.4465  158.1580 O   0  0  0  0  0  0  0  0  0  0  0  0
  148.5461  135.6000  158.4396 C   0  0  0  0  0  0  0  0  0  0  0  0
  148.6425  136.9239  157.8288 N   0  0  0  0  0  0  0  0  0  0  0  0
  149.4398  137.9139  158.2556 C   0  0  0  0  0  0  0  0  0  0  0  0
  150.1672  137.8246  159.2445 O   0  0  0  0  0  0  0  0  0  0  0  0
  149.3541  138.9885  157.4543 N   0  0  0  0  0  0  0  0  0  0  0  0
  150.0521  140.2240  157.5676 C   0  0  0  0  0  0  0  0  0  0  0  0
  151.1300  140.4128  158.4696 C   0  0  0  0  0  0  0  0  0  0  0  0
  151.7613  141.6703  158.5491 C   0  0  0  0  0  0  0  0  0  0  0  0
  151.3015  142.7213  157.7338 C   0  0  0  0  0  0  0  0  0  0  0  0
  150.2642  142.5137  156.8955 N   0  3  0  0  0  0  0  0  0  0  0  0
  149.6249  141.3240  156.7816 C   0  0  0  0  0  0  0  0  0  0  0  0
  148.5555  141.2192  155.8777 N   0  0  0  0  0  0  0  0  0  0  0  0
  147.3732  141.9713  156.2889 C   0  0  0  0  0  0  0  0  0  0  0  0
  146.1707  141.6255  155.3939 C   0  0  0  0  0  0  0  0  0  0  0  0
  146.5133  141.8294  153.9090 C   0  0  0  0  0  0  0  0  0  0  0  0
  147.7818  141.0423  153.5416 C   0  0  0  0  0  0  0  0  0  0  0  0
  148.9443  141.4040  154.4820 C   0  0  0  0  0  0  0  0  0  0  0  0
  148.0518  132.8636  152.6030 H   0  0  0  0  0  0  0  0  0  0  0  0
  150.6165  133.0507  155.9672 H   0  0  0  0  0  0  0  0  0  0  0  0
  151.1334  134.4485  155.0232 H   0  0  0  0  0  0  0  0  0  0  0  0
  149.2783  135.7259  156.0094 H   0  0  0  0  0  0  0  0  0  0  0  0
  147.4923  135.3288  158.5046 H   0  0  0  0  0  0  0  0  0  0  0  0
  148.9257  135.6264  159.4626 H   0  0  0  0  0  0  0  0  0  0  0  0
  148.0852  137.0807  157.0018 H   0  0  0  0  0  0  0  0  0  0  0  0
  148.7945  138.8785  156.6212 H   0  0  0  0  0  0  0  0  0  0  0  0
  151.4741  139.6175  159.1134 H   0  0  0  0  0  0  0  0  0  0  0  0
  152.5840  141.8271  159.2315 H   0  0  0  0  0  0  0  0  0  0  0  0
  151.7241  143.7155  157.7314 H   0  0  0  0  0  0  0  0  0  0  0  0
  147.1370  141.7487  157.3304 H   0  0  0  0  0  0  0  0  0  0  0  0
  147.5840  143.0400  156.2296 H   0  0  0  0  0  0  0  0  0  0  0  0
  145.8783  140.5878  155.5611 H   0  0  0  0  0  0  0  0  0  0  0  0
  145.3113  142.2376  155.6683 H   0  0  0  0  0  0  0  0  0  0  0  0
  145.6788  141.5138  153.2821 H   0  0  0  0  0  0  0  0  0  0  0  0
  146.6697  142.8905  153.7106 H   0  0  0  0  0  0  0  0  0  0  0  0
  147.5788  139.9725  153.6071 H   0  0  0  0  0  0  0  0  0  0  0  0
  148.0610  141.2423  152.5069 H   0  0  0  0  0  0  0  0  0  0  0  0
  149.2416  142.4411  154.3200 H   0  0  0  0  0  0  0  0  0  0  0  0
  149.8120  140.7827  154.2559 H   0  0  0  0  0  0  0  0  0  0  0  0
  149.9459  143.2929  156.3189 H   0  0  0  0  0  0  0  0  0  0  0  0
  1  2  3  0  0  0  0
  1 24  1  0  0  0  0
  2  3  1  0  0  0  0
  3  4  1  0  0  0  0
  3 25  1  0  0  0  0
  3 26  1  0  0  0  0
  4  5  1  0  0  0  0
  4 27  1  0  0  0  0
  5  6  2  0  0  0  0
  5  7  1  0  0  0  0
  7  8  1  0  0  0  0
  7 28  1  0  0  0  0
  7 29  1  0  0  0  0
  8  9  1  0  0  0  0
  8 30  1  0  0  0  0
  9 10  2  0  0  0  0
  9 11  1  0  0  0  0
 11 12  1  0  0  0  0
 11 31  1  0  0  0  0
 12 17  1  0  0  0  0
 12 13  2  0  0  0  0
 13 14  1  0  0  0  0
 13 32  1  0  0  0  0
 14 15  2  0  0  0  0
 14 33  1  0  0  0  0
 15 16  1  0  0  0  0
 15 34  1  0  0  0  0
 16 17  2  0  0  0  0
 16 45  1  0  0  0  0
 17 18  1  0  0  0  0
 18 23  1  0  0  0  0
 18 19  1  0  0  0  0
 19 20  1  0  0  0  0
 19 35  1  0  0  0  0
 19 36  1  0  0  0  0
 20 21  1  0  0  0  0
 20 37  1  0  0  0  0
 20 38  1  0  0  0  0
 21 22  1  0  0  0  0
 21 39  1  0  0  0  0
 21 40  1  0  0  0  0
 22 23  1  0  0  0  0
 22 41  1  0  0  0  0
 22 42  1  0  0  0  0
 23 43  1  0  0  0  0
 23 44  1  0  0  0  0
M  CHG  1  16   1
M  END
> <s_m_source_file>
AV-unprocessed.smi

> <i_m_source_file_index>
1057

> <i_lp_mmshare_version>
43012

> <i_f3d_flags>
0

> <s_epik_input>
W0NIXSNDW0NIMl1bTkhdQyg9TylbQ0gyXVtOSF1DKD1PKVtOSF1jMVtjSF1bY0hdW2NIXW5jMU4yW0NIMl1bQ0gyXVtDSDJdW0NIMl1bQ0gyXTI=

> <s_epik_cmdline>
J2VwaWtfcHl0aG9uJywgJy1waCcsICc3LjAnLCAnLXRuJywgJzgnLCAnLW1hJywgJzIwMCcsICctbWV0YWxfYmluZGluZycsICctaW1hZScsICc8aW5maWxlLm1hZT4nLCAnLW9tYWUnLCAnPG91dGZpbGUubWFlPic=

> <r_lp_tautomer_probability>
0.999994

> <r_epik_Ionization_Penalty>
0.641093

> <r_epik_Ionization_Penalty_Charging>
0.641074

> <r_epik_Ionization_Penalty_Neutral>
1.89753e-05

> <r_epik_State_Penalty>
0.658761

> <r_epik_Charging_Adjusted_Penalty>
1.29984

> <i_epik_Tot_Q>
1

> <i_epik_Tot_abs_Q>
1

> <r_epik_Metal_State_Penalty>
0.833895

> <b_epik_Metal_Only>
0

> <s_lp_Force_Field>
OPLS_2005

> <r_lp_Energy>
23.0781

> <b_lp_Chiralities_Consistent>
1

> <s_lp_Variant>
AV-unprocessed.smi:1057-2

> <Gold.Version>
5.8.1

> <Gold.Id.Protein>
6NUR|6NUR_protein|mol2

> <Gold.PLP.Fitness>
42.3691

> <Gold.PLP.PLP>
-34.1692

> <Gold.PLP.part.hbond>
-2.4773

> <Gold.PLP.part.metal>
0.0000

> <Gold.PLP.part.buried>
-3.1757

> <Gold.PLP.part.nonpolar>
-27.3799

> <Gold.PLP.part.repulsive>
0.2651

> <Gold.PLP.ligand.clash>
0.0000

> <Gold.PLP.ligand.torsion>
0.5041

> <Gold.PLP.Chemscore.Hbond>
3.0000

> <Gold.PLP.Chemscore.CHOScore>
0.0000

> <Gold.PLP.Chemscore.Metal>
0.0000

> <Gold.Chemscore.Hbonds>
donor molecule, donor type, donor heavy atom, donor atom, acceptor molecule, acceptor atom, score
      L1  H    16    45       P1  8028  2.00
      P1  H  6896  6909       L1     6  1.00

> <Gold.PLP.Chemscore.Internal.Correction>
0.2081

> <Gold.Rescore>
     Score         DG    S(hbond)    S(metal)    S(lipo)     H(rot)  DE(clash)    DE(int)     intcor
     14.28     -16.22       1.96        0.00      75.50       1.82       0.01       1.93       ----

> <Gold.Chemscore.Fitness>
14.2776

> <Gold.Chemscore.DG>
-16.2241

> <Gold.Chemscore.ZeroCoef>
-5.4800

> <Gold.Chemscore.Hbond>
1.9639

> <Gold.Chemscore.Metal>
0.0000

> <Gold.Chemscore.Lipo>
75.4992

> <Gold.Chemscore.Internal_Hbond>
0.0000

> <Gold.Chemscore.DEClash>
0.0140

> <Gold.Chemscore.DEInternal>
1.9325

> <Gold.Chemscore.Rot>
1.8159

> <Gold.Chemscore.Internal.Correction>
   9.000000E+99

> <Gold.Chemscore.Hbonds>
donor molecule, donor type, donor heavy atom, donor atom, acceptor molecule, acceptor atom, score
      L1  H    16    45       P1  8028  1.00
      P1  H  6896  6909       L1     6  0.45

> <Gold.Chemscore.Hbond.Weighted>
-6.5593

> <Gold.Chemscore.Metal.Weighted>
-0.0000

> <Gold.Chemscore.Lipo.Weighted>
-8.8334

> <Gold.Chemscore.Internal_Hbond.Weighted>
0.0000

> <Gold.Chemscore.DEClash.Weighted>
0.0140

> <Gold.Chemscore.DEInternal.Weighted>
1.9325

> <Gold.Chemscore.Rot.Weighted>
4.6486

> <Gold.Chemscore.Internal.Correction.Weighted>
   9.000000E+99

> <Gold.Protein.RotatedTorsions>
[ 6907 6896 6895 6894 ] final    5.34 input  -60.11 | X-H torsion
[ 7974 7965 7964 7962 ] final   -1.11 input  175.53 | X-H torsion
[ 8008 7997 7996 7995 ] final  -56.55 input   59.86 | X-H torsion
[ 10167 10162 10161 10158 ] final   40.66 input  -65.29 | X-H torsion
[ 10718 10713 10712 10709 ] final -151.41 input   66.30 | X-H torsion
[ 10763 10752 10751 10750 ] final    6.42 input  -60.55 | X-H torsion
[ 11005 11000 10999 10996 ] final  -54.31 input  -57.11 | X-H torsion

> <Gold.Protein.ActiveResidues>
 VAL166  LYS551  ARG553  GLY616  TRP617  ASP618  TYR619  PRO620  LYS621  CYS622 
 ASP623  PHE694  ASN695  SER759  ASP760  ASP761  ALA762  ILE779  LEU786  VAL792 
 PHE793  MET794  SER795  GLU796  ALA797  LYS798  CYS799  TRP800  GLU811  SER814 

> <Gold.Protein.RotatedAtoms>
  151.6560  135.0995  160.0169 H   0  0  0  0  0  0  0  0  0  0  0  0  # atno 6907 bound_to 6896
  152.3974  133.6762  159.6296 H   0  0  0  0  0  0  0  0  0  0  0  0  # atno 6908 bound_to 6896
  150.7879  133.8767  159.3315 H   0  0  0  0  0  0  0  0  0  0  0  0  # atno 6909 bound_to 6896
  146.2420  140.1370  142.8336 H   0  0  0  0  0  0  0  0  0  0  0  0  # atno 7974 bound_to 7965
  154.4234  140.1127  156.5655 H   0  0  0  0  0  0  0  0  0  0  0  0  # atno 8008 bound_to 7997
  155.6267  140.3495  155.4650 H   0  0  0  0  0  0  0  0  0  0  0  0  # atno 8009 bound_to 7997
  155.9981  140.1193  157.0564 H   0  0  0  0  0  0  0  0  0  0  0  0  # atno 8010 bound_to 7997
  140.3720  144.2092  150.6133 H   0  0  0  0  0  0  0  0  0  0  0  0  # atno 10167 bound_to 10162
  156.4588  130.8203  151.2434 H   0  0  0  0  0  0  0  0  0  0  0  0  # atno 10718 bound_to 10713
  153.2479  135.6910  153.7711 H   0  0  0  0  0  0  0  0  0  0  0  0  # atno 10763 bound_to 10752
  153.6816  135.3327  155.3180 H   0  0  0  0  0  0  0  0  0  0  0  0  # atno 10764 bound_to 10752
  154.8382  135.4524  154.1426 H   0  0  0  0  0  0  0  0  0  0  0  0  # atno 10765 bound_to 10752
  141.1019  133.6617  156.4301 H   0  0  0  0  0  0  0  0  0  0  0  0  # atno 11005 bound_to 11000
  145.0278  140.8846  143.5128 LP  0  0  0  0  0  0  0  0  0  0  0  0  # atno 17320 bound_to 7965
  145.1430  139.2561  143.5480 LP  0  0  0  0  0  0  0  0  0  0  0  0  # atno 17321 bound_to 7965
  140.5024  143.2314  151.8659 LP  0  0  0  0  0  0  0  0  0  0  0  0  # atno 17342 bound_to 10162
  139.4803  144.5044  151.9017 LP  0  0  0  0  0  0  0  0  0  0  0  0  # atno 17343 bound_to 10162
  157.7499  131.0114  150.3343 LP  0  0  0  0  0  0  0  0  0  0  0  0  # atno 17370 bound_to 10713
  156.3738  130.3868  149.7155 LP  0  0  0  0  0  0  0  0  0  0  0  0  # atno 17371 bound_to 10713
  140.5000  134.6495  157.5245 LP  0  0  0  0  0  0  0  0  0  0  0  0  # atno 17394 bound_to 11000
  139.9874  134.7040  155.9750 LP  0  0  0  0  0  0  0  0  0  0  0  0  # atno 17395 bound_to 11000

$$$$
