AV-unprocessed.smi:1589|AV-procd|sdf|6394|dock5
  -GOLD-   22720 7 33D 1   1.00000     0.00000
 Structure written by MMmdl.
 43 44  0  0  0  0  0  0  0  0  1 V2000
  150.9514  142.6810  156.7672 C   0  0  0  0  0  0  0  0  0  0  0  0
  149.8872  141.8359  156.0327 C   0  0  0  0  0  0  0  0  0  0  0  0
  149.0613  141.0693  157.0888 C   0  0  0  0  0  0  0  0  0  0  0  0
  150.4980  140.9243  155.0436 N   0  0  0  0  0  0  0  0  0  0  0  0
  149.5773  139.8346  154.6754 C   0  0  0  0  0  0  0  0  0  0  0  0
  150.2170  138.8855  153.6444 C   0  0  0  0  0  0  0  0  0  0  0  0
  151.4351  138.3129  154.2289 N   0  0  0  0  0  0  0  0  0  0  0  0
  151.6270  137.0331  154.6374 C   0  0  0  0  0  0  0  0  0  0  0  0
  152.6519  136.6660  155.2132 O   0  0  0  0  0  0  0  0  0  0  0  0
  150.6090  136.2020  154.3447 N   0  0  0  0  0  0  0  0  0  0  0  0
  150.5047  134.8197  154.6400 C   0  0  0  0  0  0  0  0  0  0  0  0
  151.4327  133.9610  155.2940 C   0  0  0  0  0  0  0  0  0  0  0  0
  150.9617  132.7253  155.3734 N   0  0  0  0  0  0  0  0  0  0  0  0
  149.7449  132.7702  154.7751 N   0  0  0  0  0  0  0  0  0  0  0  0
  148.9383  131.5626  154.6903 C   0  0  0  0  0  0  0  0  0  0  0  0
  147.4904  131.8452  154.2696 C   0  0  0  0  0  0  0  0  0  0  0  0
  147.1596  131.5212  153.0172 N   0  0  0  0  0  0  0  0  0  0  0  0
  146.6808  132.3475  155.0479 O   0  0  0  0  0  0  0  0  0  0  0  0
  149.4365  134.0376  154.3194 C   0  0  0  0  0  0  0  0  0  0  0  0
  152.3852  139.3881  154.5136 C   0  0  0  0  0  0  0  0  0  0  0  0
  151.7555  140.3429  155.5462 C   0  0  0  0  0  0  0  0  0  0  0  0
  150.5074  143.2373  157.5931 H   0  0  0  0  0  0  0  0  0  0  0  0
  151.4105  143.4275  156.1201 H   0  0  0  0  0  0  0  0  0  0  0  0
  151.7417  142.0545  157.1827 H   0  0  0  0  0  0  0  0  0  0  0  0
  149.2153  142.5178  155.5091 H   0  0  0  0  0  0  0  0  0  0  0  0
  148.7401  141.7335  157.8917 H   0  0  0  0  0  0  0  0  0  0  0  0
  149.6416  140.2651  157.5427 H   0  0  0  0  0  0  0  0  0  0  0  0
  148.1489  140.6424  156.6737 H   0  0  0  0  0  0  0  0  0  0  0  0
  149.2796  139.2788  155.5659 H   0  0  0  0  0  0  0  0  0  0  0  0
  148.6703  140.2333  154.2250 H   0  0  0  0  0  0  0  0  0  0  0  0
  149.4842  138.1419  153.3319 H   0  0  0  0  0  0  0  0  0  0  0  0
  150.4743  139.4346  152.7370 H   0  0  0  0  0  0  0  0  0  0  0  0
  149.8168  136.6122  153.8722 H   0  0  0  0  0  0  0  0  0  0  0  0
  152.4077  134.1751  155.7053 H   0  0  0  0  0  0  0  0  0  0  0  0
  149.3911  130.8713  153.9775 H   0  0  0  0  0  0  0  0  0  0  0  0
  148.9519  131.0744  155.6656 H   0  0  0  0  0  0  0  0  0  0  0  0
  146.2190  131.6786  152.6856 H   0  0  0  0  0  0  0  0  0  0  0  0
  147.8528  131.1130  152.4064 H   0  0  0  0  0  0  0  0  0  0  0  0
  148.5070  134.2634  153.8176 H   0  0  0  0  0  0  0  0  0  0  0  0
  153.3390  139.0172  154.8909 H   0  0  0  0  0  0  0  0  0  0  0  0
  152.6202  139.9251  153.5932 H   0  0  0  0  0  0  0  0  0  0  0  0
  152.4861  141.1238  155.7490 H   0  0  0  0  0  0  0  0  0  0  0  0
  151.5748  139.8165  156.4848 H   0  0  0  0  0  0  0  0  0  0  0  0
  1  2  1  0  0  0  0
  1 22  1  0  0  0  0
  1 23  1  0  0  0  0
  1 24  1  0  0  0  0
  2  3  1  0  0  0  0
  2  4  1  0  0  0  0
  2 25  1  0  0  0  0
  3 26  1  0  0  0  0
  3 27  1  0  0  0  0
  3 28  1  0  0  0  0
  4 21  1  0  0  0  0
  4  5  1  0  0  0  0
  5  6  1  0  0  0  0
  5 29  1  0  0  0  0
  5 30  1  0  0  0  0
  6  7  1  0  0  0  0
  6 31  1  0  0  0  0
  6 32  1  0  0  0  0
  7  8  1  0  0  0  0
  7 20  1  0  0  0  0
  8  9  2  0  0  0  0
  8 10  1  0  0  0  0
 10 11  1  0  0  0  0
 10 33  1  0  0  0  0
 11 19  2  0  0  0  0
 11 12  1  0  0  0  0
 12 13  2  0  0  0  0
 12 34  1  0  0  0  0
 13 14  1  0  0  0  0
 14 15  1  0  0  0  0
 14 19  1  0  0  0  0
 15 16  1  0  0  0  0
 15 35  1  0  0  0  0
 15 36  1  0  0  0  0
 16 17  1  0  0  0  0
 16 18  2  0  0  0  0
 17 37  1  0  0  0  0
 17 38  1  0  0  0  0
 19 39  1  0  0  0  0
 20 21  1  0  0  0  0
 20 40  1  0  0  0  0
 20 41  1  0  0  0  0
 21 42  1  0  0  0  0
 21 43  1  0  0  0  0
M  END
> <s_m_source_file>
AV-unprocessed.smi

> <i_m_source_file_index>
1589

> <i_lp_mmshare_version>
43012

> <i_f3d_flags>
0

> <s_epik_input>
W0NIM11bQ0hdKFtDSDNdKU4xW0NIMl1bQ0gyXU4oW0NIMl1bQ0gyXTEpQyg9TylbTkhdYzJbY0hdbm4oW2NIXTIpW0NIMl1DKD1PKVtOSDJd

> <s_epik_cmdline>
J2VwaWtfcHl0aG9uJywgJy1waCcsICc3LjAnLCAnLXRuJywgJzgnLCAnLW1hJywgJzIwMCcsICctbWV0YWxfYmluZGluZycsICctaW1hZScsICc8aW5maWxlLm1hZT4nLCAnLW9tYWUnLCAnPG91dGZpbGUubWFlPic=

> <r_lp_tautomer_probability>
1

> <r_epik_Ionization_Penalty>
0.648545

> <r_epik_Ionization_Penalty_Charging>
0

> <r_epik_Ionization_Penalty_Neutral>
0.648545

> <r_epik_State_Penalty>
0.6668

> <r_epik_Charging_Adjusted_Penalty>
0.6668

> <i_epik_Tot_Q>
0

> <i_epik_Tot_abs_Q>
0

> <r_epik_Metal_State_Penalty>
0.666798

> <b_epik_Metal_Only>
0

> <s_lp_Force_Field>
OPLS_2005

> <r_lp_Energy>
50.3263

> <b_lp_Chiralities_Consistent>
1

> <s_lp_Variant>
AV-unprocessed.smi:1589-2

> <Gold.Version>
5.8.1

> <Gold.Id.Protein>
6NUR|6NUR_protein|mol2

> <Gold.PLP.Fitness>
45.8260

> <Gold.PLP.PLP>
-34.7132

> <Gold.PLP.part.hbond>
-4.8504

> <Gold.PLP.part.metal>
0.0000

> <Gold.PLP.part.buried>
-1.3237

> <Gold.PLP.part.nonpolar>
-29.6174

> <Gold.PLP.part.repulsive>
0.2708

> <Gold.PLP.ligand.clash>
0.0000

> <Gold.PLP.ligand.torsion>
0.7226

> <Gold.PLP.Chemscore.Hbond>
3.3700

> <Gold.PLP.Chemscore.CHOScore>
0.7994

> <Gold.PLP.Chemscore.Metal>
0.0000

> <Gold.Chemscore.Hbonds>
donor molecule, donor type, donor heavy atom, donor atom, acceptor molecule, acceptor atom, score
      L1  H    10    33       P1  7948  0.37
      L1  H    17    38       P1 10747  0.05
      P1  H 10752 10765       L1     9  0.23
      L1  C    19    39       P1  7948  0.23

> <Gold.PLP.Chemscore.Internal.Correction>
0.0499

> <Gold.Rescore>
     Score         DG    S(hbond)    S(metal)    S(lipo)     H(rot)  DE(clash)    DE(int)     intcor
     12.46     -15.09       2.13        0.00      61.07       1.82       0.89       1.74       ----

> <Gold.Chemscore.Fitness>
12.4644

> <Gold.Chemscore.DG>
-15.0883

> <Gold.Chemscore.ZeroCoef>
-5.4800

> <Gold.Chemscore.Hbond>
2.1320

> <Gold.Chemscore.Metal>
0.0000

> <Gold.Chemscore.Lipo>
61.0667

> <Gold.Chemscore.Internal_Hbond>
0.0000

> <Gold.Chemscore.DEClash>
0.8886

> <Gold.Chemscore.DEInternal>
1.7354

> <Gold.Chemscore.Rot>
1.8193

> <Gold.Chemscore.Internal.Correction>
   9.000000E+99

> <Gold.Chemscore.Hbonds>
donor molecule, donor type, donor heavy atom, donor atom, acceptor molecule, acceptor atom, score
      L1  H    10    33       P1  7948  0.18
      L1  H    17    38       P1 10747  0.10
      P1  H 10752 10765       L1     9  0.23

> <Gold.Chemscore.Hbond.Weighted>
-7.1210

> <Gold.Chemscore.Metal.Weighted>
-0.0000

> <Gold.Chemscore.Lipo.Weighted>
-7.1448

> <Gold.Chemscore.Internal_Hbond.Weighted>
0.0000

> <Gold.Chemscore.DEClash.Weighted>
0.8886

> <Gold.Chemscore.DEInternal.Weighted>
1.7354

> <Gold.Chemscore.Rot.Weighted>
4.6575

> <Gold.Chemscore.Internal.Correction.Weighted>
   9.000000E+99

> <Gold.Protein.RotatedTorsions>
[ 6907 6896 6895 6894 ] final    9.61 input  -60.11 | X-H torsion
[ 7974 7965 7964 7962 ] final   63.77 input  175.53 | X-H torsion
[ 8008 7997 7996 7995 ] final  160.63 input   59.86 | X-H torsion
[ 10167 10162 10161 10158 ] final   36.91 input  -65.29 | X-H torsion
[ 10718 10713 10712 10709 ] final  146.16 input   66.30 | X-H torsion
[ 10763 10752 10751 10750 ] final -133.26 input  -60.55 | X-H torsion
[ 11005 11000 10999 10996 ] final  119.92 input  -57.11 | X-H torsion

> <Gold.Protein.ActiveResidues>
 VAL166  LYS551  ARG553  GLY616  TRP617  ASP618  TYR619  PRO620  LYS621  CYS622 
 ASP623  PHE694  ASN695  SER759  ASP760  ASP761  ALA762  ILE779  LEU786  VAL792 
 PHE793  MET794  SER795  GLU796  ALA797  LYS798  CYS799  TRP800  GLU811  SER814 

> <Gold.Protein.RotatedAtoms>
  151.7249  135.0887  160.0290 H   0  0  0  0  0  0  0  0  0  0  0  0  # atno 6907 bound_to 6896
  152.3578  133.6255  159.6001 H   0  0  0  0  0  0  0  0  0  0  0  0  # atno 6908 bound_to 6896
  150.7583  133.9388  159.3491 H   0  0  0  0  0  0  0  0  0  0  0  0  # atno 6909 bound_to 6896
  145.8579  139.3296  143.0836 H   0  0  0  0  0  0  0  0  0  0  0  0  # atno 7974 bound_to 7965
  156.2159  140.1799  156.7590 H   0  0  0  0  0  0  0  0  0  0  0  0  # atno 8008 bound_to 7997
  154.5791  140.0669  156.9106 H   0  0  0  0  0  0  0  0  0  0  0  0  # atno 8009 bound_to 7997
  155.2535  140.3330  155.4282 H   0  0  0  0  0  0  0  0  0  0  0  0  # atno 8010 bound_to 7997
  140.4082  144.1629  150.6137 H   0  0  0  0  0  0  0  0  0  0  0  0  # atno 10167 bound_to 10162
  157.3365  131.0929  151.1119 H   0  0  0  0  0  0  0  0  0  0  0  0  # atno 10718 bound_to 10713
  154.8734  135.3772  154.4543 H   0  0  0  0  0  0  0  0  0  0  0  0  # atno 10763 bound_to 10752
  153.5216  135.7029  153.5733 H   0  0  0  0  0  0  0  0  0  0  0  0  # atno 10764 bound_to 10752
  153.3978  135.3956  155.1932 H   0  0  0  0  0  0  0  0  0  0  0  0  # atno 10765 bound_to 10752
  139.9165  134.9631  156.7729 H   0  0  0  0  0  0  0  0  0  0  0  0  # atno 11005 bound_to 11000
  145.9282  140.9067  143.0370 LP  0  0  0  0  0  0  0  0  0  0  0  0  # atno 17320 bound_to 7965
  144.6727  140.1381  143.7439 LP  0  0  0  0  0  0  0  0  0  0  0  0  # atno 17321 bound_to 7965
  140.4666  143.2428  151.9147 LP  0  0  0  0  0  0  0  0  0  0  0  0  # atno 17342 bound_to 10162
  139.4783  144.5413  151.8524 LP  0  0  0  0  0  0  0  0  0  0  0  0  # atno 17343 bound_to 10162
  157.2347  130.6541  149.5864 LP  0  0  0  0  0  0  0  0  0  0  0  0  # atno 17370 bound_to 10713
  155.9702  130.4587  150.6011 LP  0  0  0  0  0  0  0  0  0  0  0  0  # atno 17371 bound_to 10713
  140.6606  133.9648  155.7803 LP  0  0  0  0  0  0  0  0  0  0  0  0  # atno 17394 bound_to 11000
  141.0646  134.0296  157.3612 LP  0  0  0  0  0  0  0  0  0  0  0  0  # atno 17395 bound_to 11000

$$$$
