AV-unprocessed.smi:2060|AV-procd|sdf|8358|dock2
  -GOLD-   2272011 23D 1   1.00000     0.00000
 Structure written by MMmdl.
 45 46  0  0  0  0  0  0  0  0  3 V2000
  144.9945  143.3349  156.2550 C   0  0  0  0  0  0  0  0  0  0  0  0
  144.9664  142.0180  155.4415 C   0  0  0  0  0  0  0  0  0  0  0  0
  146.2869  141.5163  154.7329 C   0  0  1  0  0  0  0  0  0  0  0  0
  146.7704  142.6698  153.8041 C   0  0  0  0  0  0  0  0  0  0  0  0
  147.3927  141.1811  155.8012 C   0  0  0  0  0  0  0  0  0  0  0  0
  148.7293  141.2085  155.1976 N   0  5  0  0  0  0  0  0  0  0  0  0
  149.8896  141.3339  155.8969 C   0  0  0  0  0  0  0  0  0  0  0  0
  150.9360  140.6940  155.7403 O   0  0  0  0  0  0  0  0  0  0  0  0
  149.8068  142.2810  156.8493 N   0  0  0  0  0  0  0  0  0  0  0  0
  150.8023  142.7098  157.7662 C   0  0  0  0  0  0  0  0  0  0  0  0
  151.3308  141.8125  158.7324 C   0  0  0  0  0  0  0  0  0  0  0  0
  152.2337  142.5836  159.4089 C   0  0  0  0  0  0  0  0  0  0  0  0
  153.1519  142.3061  160.5492 C   0  0  0  0  0  0  0  0  0  0  0  0
  152.2571  143.8444  158.8980 O   0  0  0  0  0  0  0  0  0  0  0  0
  151.3376  143.9191  157.8453 N   0  0  0  0  0  0  0  0  0  0  0  0
  146.0437  140.2531  153.9203 N   0  3  0  0  0  0  0  0  0  0  0  0
  147.0400  139.9027  152.8667 C   0  0  0  0  0  0  0  0  0  0  0  0
  146.5258  138.7457  151.9911 C   0  0  0  0  0  0  0  0  0  0  0  0
  146.2091  137.6183  152.7941 O   0  0  0  0  0  0  0  0  0  0  0  0
  145.1898  137.9197  153.7350 C   0  0  0  0  0  0  0  0  0  0  0  0
  145.6941  139.0152  154.6850 C   0  0  0  0  0  0  0  0  0  0  0  0
  144.0000  143.5512  156.6454 H   0  0  0  0  0  0  0  0  0  0  0  0
  145.2854  144.1908  155.6478 H   0  0  0  0  0  0  0  0  0  0  0  0
  145.6613  143.2842  157.1156 H   0  0  0  0  0  0  0  0  0  0  0  0
  144.5657  141.2417  156.0967 H   0  0  0  0  0  0  0  0  0  0  0  0
  144.2013  142.1818  154.6825 H   0  0  0  0  0  0  0  0  0  0  0  0
  146.9523  143.5993  154.3449 H   0  0  0  0  0  0  0  0  0  0  0  0
  146.0212  142.8914  153.0432 H   0  0  0  0  0  0  0  0  0  0  0  0
  147.7023  142.4514  153.2804 H   0  0  0  0  0  0  0  0  0  0  0  0
  147.3264  141.9005  156.6178 H   0  0  0  0  0  0  0  0  0  0  0  0
  147.1698  140.2178  156.2600 H   0  0  0  0  0  0  0  0  0  0  0  0
  148.9202  142.7577  156.9167 H   0  0  0  0  0  0  0  0  0  0  0  0
  151.0880  140.7744  158.9036 H   0  0  0  0  0  0  0  0  0  0  0  0
  153.0021  141.2970  160.9336 H   0  0  0  0  0  0  0  0  0  0  0  0
  152.9782  143.0078  161.3649 H   0  0  0  0  0  0  0  0  0  0  0  0
  154.1925  142.3988  160.2379 H   0  0  0  0  0  0  0  0  0  0  0  0
  147.2257  140.7343  152.1896 H   0  0  0  0  0  0  0  0  0  0  0  0
  147.9899  139.6363  153.3323 H   0  0  0  0  0  0  0  0  0  0  0  0
  145.6487  139.0546  151.4199 H   0  0  0  0  0  0  0  0  0  0  0  0
  147.2882  138.4575  151.2672 H   0  0  0  0  0  0  0  0  0  0  0  0
  144.2762  138.2316  153.2258 H   0  0  0  0  0  0  0  0  0  0  0  0
  144.9509  137.0165  154.2964 H   0  0  0  0  0  0  0  0  0  0  0  0
  146.5692  138.6461  155.2217 H   0  0  0  0  0  0  0  0  0  0  0  0
  144.9210  139.2061  155.4285 H   0  0  0  0  0  0  0  0  0  0  0  0
  145.2078  140.4894  153.4021 H   0  0  0  0  0  0  0  0  0  0  0  0
  1  2  1  0  0  0  0
  1 22  1  0  0  0  0
  1 23  1  0  0  0  0
  1 24  1  0  0  0  0
  2  3  1  0  0  0  0
  2 25  1  0  0  0  0
  2 26  1  0  0  0  0
  3  4  1  0  0  0  0
  3  5  1  0  0  0  0
  3 16  1  0  0  0  0
  4 27  1  0  0  0  0
  4 28  1  0  0  0  0
  4 29  1  0  0  0  0
  5  6  1  0  0  0  0
  5 30  1  0  0  0  0
  5 31  1  0  0  0  0
  6  7  1  0  0  0  0
  7  8  2  0  0  0  0
  7  9  1  0  0  0  0
  9 10  1  0  0  0  0
  9 32  1  0  0  0  0
 10 15  2  0  0  0  0
 10 11  1  0  0  0  0
 11 12  2  0  0  0  0
 11 33  1  0  0  0  0
 12 13  1  0  0  0  0
 12 14  1  0  0  0  0
 13 34  1  0  0  0  0
 13 35  1  0  0  0  0
 13 36  1  0  0  0  0
 14 15  1  0  0  0  0
 16 21  1  0  0  0  0
 16 17  1  0  0  0  0
 16 45  1  0  0  0  0
 17 18  1  0  0  0  0
 17 37  1  0  0  0  0
 17 38  1  0  0  0  0
 18 19  1  0  0  0  0
 18 39  1  0  0  0  0
 18 40  1  0  0  0  0
 19 20  1  0  0  0  0
 20 21  1  0  0  0  0
 20 41  1  0  0  0  0
 20 42  1  0  0  0  0
 21 43  1  0  0  0  0
 21 44  1  0  0  0  0
M  CHG  1   6  -1
M  CHG  1  16   1
M  END
> <s_m_source_file>
AV-unprocessed.smi

> <i_m_source_file_index>
2060

> <i_lp_mmshare_version>
43012

> <i_f3d_flags>
0

> <s_epik_input>
W0NIMl0xW0NIMl1PW0NIMl1bQ0gyXU4xW0NAQF0oW0NIM10pKFtDSDJdW0NIM10pW0NIMl1bTkhdQyg9TylbTkhdYzJbY0hdYyhbQ0gzXSlvbjI=

> <s_epik_cmdline>
J2VwaWtfcHl0aG9uJywgJy1waCcsICc3LjAnLCAnLXRuJywgJzgnLCAnLW1hJywgJzIwMCcsICctbWV0YWxfYmluZGluZycsICctaW1hZScsICc8aW5maWxlLm1hZT4nLCAnLW9tYWUnLCAnPG91dGZpbGUubWFlPic=

> <r_epik_Ionization_Penalty>
6.79469

> <r_epik_Ionization_Penalty_Charging>
6.79469

> <r_epik_Ionization_Penalty_Neutral>
5.68576e-06

> <r_epik_State_Penalty>
7.33145

> <r_epik_Charging_Adjusted_Penalty>
14.1261

> <i_epik_Tot_Q>
0

> <i_epik_Tot_abs_Q>
2

> <r_epik_Metal_State_Penalty>
3.24803

> <b_epik_Metal_Only>
1

> <s_lp_Force_Field>
OPLS_2005

> <r_lp_Energy>
29.3309

> <b_lp_Chiralities_Consistent>
1

> <s_lp_Variant>
AV-unprocessed.smi:2060-5

> <Gold.Version>
5.8.1

> <Gold.Id.Protein>
6NUR|6NUR_protein|mol2

> <Gold.PLP.Fitness>
41.4321

> <Gold.PLP.PLP>
-35.0562

> <Gold.PLP.part.hbond>
-3.0000

> <Gold.PLP.part.metal>
0.0000

> <Gold.PLP.part.buried>
-5.8023

> <Gold.PLP.part.nonpolar>
-27.2111

> <Gold.PLP.part.repulsive>
0.6175

> <Gold.PLP.ligand.clash>
0.0000

> <Gold.PLP.ligand.torsion>
1.6501

> <Gold.PLP.Chemscore.Hbond>
3.1476

> <Gold.PLP.Chemscore.CHOScore>
0.0000

> <Gold.PLP.Chemscore.Metal>
0.0000

> <Gold.Chemscore.Hbonds>
donor molecule, donor type, donor heavy atom, donor atom, acceptor molecule, acceptor atom, score
      L1  H     9    32       P1  8028  0.07
      L1  H    16    45       P1 10175  2.00
      P1  H  7989  7998       L1     8  0.18

> <Gold.PLP.Chemscore.Internal.Correction>
0.2332

> <Gold.Rescore>
     Score         DG    S(hbond)    S(metal)    S(lipo)     H(rot)  DE(clash)    DE(int)     intcor
     13.15     -16.19       1.92        0.00      74.60       1.73       1.49       1.55       ----

> <Gold.Chemscore.Fitness>
13.1504

> <Gold.Chemscore.DG>
-16.1921

> <Gold.Chemscore.ZeroCoef>
-5.4800

> <Gold.Chemscore.Hbond>
1.9195

> <Gold.Chemscore.Metal>
0.0000

> <Gold.Chemscore.Lipo>
74.6014

> <Gold.Chemscore.Internal_Hbond>
0.0000

> <Gold.Chemscore.DEClash>
1.4878

> <Gold.Chemscore.DEInternal>
1.5540

> <Gold.Chemscore.Rot>
1.7294

> <Gold.Chemscore.Internal.Correction>
   9.000000E+99

> <Gold.Chemscore.Hbonds>
donor molecule, donor type, donor heavy atom, donor atom, acceptor molecule, acceptor atom, score
      L1  H     9    32       P1  8028  0.07
      L1  H    16    45       P1 10175  0.98
      P1  H  7989  7998       L1     8  0.12

> <Gold.Chemscore.Hbond.Weighted>
-6.4110

> <Gold.Chemscore.Metal.Weighted>
-0.0000

> <Gold.Chemscore.Lipo.Weighted>
-8.7284

> <Gold.Chemscore.Internal_Hbond.Weighted>
0.0000

> <Gold.Chemscore.DEClash.Weighted>
1.4878

> <Gold.Chemscore.DEInternal.Weighted>
1.5540

> <Gold.Chemscore.Rot.Weighted>
4.4272

> <Gold.Chemscore.Internal.Correction.Weighted>
   9.000000E+99

> <Gold.Protein.RotatedTorsions>
[ 6907 6896 6895 6894 ] final  179.43 input  -60.11 | X-H torsion
[ 7974 7965 7964 7962 ] final   87.44 input  175.53 | X-H torsion
[ 8008 7997 7996 7995 ] final  168.60 input   59.86 | X-H torsion
[ 10167 10162 10161 10158 ] final  -56.60 input  -65.29 | X-H torsion
[ 10718 10713 10712 10709 ] final    0.33 input   66.30 | X-H torsion
[ 10763 10752 10751 10750 ] final -162.95 input  -60.55 | X-H torsion
[ 11005 11000 10999 10996 ] final -164.09 input  -57.11 | X-H torsion

> <Gold.Protein.ActiveResidues>
 VAL166  LYS551  ARG553  GLY616  TRP617  ASP618  TYR619  PRO620  LYS621  CYS622 
 ASP623  PHE694  ASN695  SER759  ASP760  ASP761  ALA762  ILE779  LEU786  VAL792 
 PHE793  MET794  SER795  GLU796  ALA797  LYS798  CYS799  TRP800  GLU811  SER814 

> <Gold.Protein.RotatedAtoms>
  151.6717  133.3314  159.3197 H   0  0  0  0  0  0  0  0  0  0  0  0  # atno 6907 bound_to 6896
  150.7864  134.6856  159.6478 H   0  0  0  0  0  0  0  0  0  0  0  0  # atno 6908 bound_to 6896
  152.3935  134.6407  160.0150 H   0  0  0  0  0  0  0  0  0  0  0  0  # atno 6909 bound_to 6896
  145.5589  139.2302  143.2470 H   0  0  0  0  0  0  0  0  0  0  0  0  # atno 7974 bound_to 7965
  156.1532  140.1586  156.8735 H   0  0  0  0  0  0  0  0  0  0  0  0  # atno 8008 bound_to 7997
  154.5090  140.0805  156.7989 H   0  0  0  0  0  0  0  0  0  0  0  0  # atno 8009 bound_to 7997
  155.3855  140.3407  155.4251 H   0  0  0  0  0  0  0  0  0  0  0  0  # atno 8010 bound_to 7997
  140.6308  143.2458  151.5247 H   0  0  0  0  0  0  0  0  0  0  0  0  # atno 10167 bound_to 10162
  156.8318  130.5491  149.5686 H   0  0  0  0  0  0  0  0  0  0  0  0  # atno 10718 bound_to 10713
  154.7168  135.3017  154.9111 H   0  0  0  0  0  0  0  0  0  0  0  0  # atno 10763 bound_to 10752
  153.9996  135.6708  153.4762 H   0  0  0  0  0  0  0  0  0  0  0  0  # atno 10764 bound_to 10752
  153.0800  135.5014  154.8398 H   0  0  0  0  0  0  0  0  0  0  0  0  # atno 10765 bound_to 10752
  140.5908  134.5047  157.5192 H   0  0  0  0  0  0  0  0  0  0  0  0  # atno 11005 bound_to 11000
  146.1865  140.6413  142.9165 LP  0  0  0  0  0  0  0  0  0  0  0  0  # atno 17320 bound_to 7965
  144.7492  140.5148  143.6813 LP  0  0  0  0  0  0  0  0  0  0  0  0  # atno 17321 bound_to 7965
  139.5522  144.2366  152.1550 LP  0  0  0  0  0  0  0  0  0  0  0  0  # atno 17342 bound_to 10162
  140.1609  144.5026  150.6633 LP  0  0  0  0  0  0  0  0  0  0  0  0  # atno 17343 bound_to 10162
  156.0930  130.5910  150.9765 LP  0  0  0  0  0  0  0  0  0  0  0  0  # atno 17370 bound_to 10713
  157.6403  131.0911  150.8265 LP  0  0  0  0  0  0  0  0  0  0  0  0  # atno 17371 bound_to 10713
  139.9275  134.8028  156.1026 LP  0  0  0  0  0  0  0  0  0  0  0  0  # atno 17394 bound_to 11000
  141.0936  133.6704  156.2595 LP  0  0  0  0  0  0  0  0  0  0  0  0  # atno 17395 bound_to 11000

$$$$
