AV-unprocessed.smi:1836|AV-procd|sdf|7477|dock4
  -GOLD-   22720 9173D 1   1.00000     0.00000
 Structure written by MMmdl.
 33 34  0  0  0  0  0  0  0  0  1 V2000
  147.7810  140.6618  154.0071 C   0  0  0  0  0  0  0  0  0  0  0  0
  148.3458  139.3292  154.5189 C   0  0  2  0  0  0  0  0  0  0  0  0
  149.8883  139.3699  154.5912 C   0  0  0  0  0  0  0  0  0  0  0  0
  150.3668  140.0832  155.7745 N   0  0  0  0  0  0  0  0  0  0  0  0
  149.5516  141.1122  156.3978 C   0  0  0  0  0  0  0  0  0  0  0  0
  150.2826  141.4623  157.7013 C   0  0  0  0  0  0  0  0  0  0  0  0
  151.6893  140.8710  157.5598 C   0  0  0  0  0  0  0  0  0  0  0  0
  151.5636  139.9489  156.3591 C   0  0  0  0  0  0  0  0  0  0  0  0
  152.4647  139.1907  156.0038 O   0  0  0  0  0  0  0  0  0  0  0  0
  147.9002  138.2706  153.6148 N   0  0  0  0  0  0  0  0  0  0  0  0
  146.6253  137.9149  153.3977 C   0  0  0  0  0  0  0  0  0  0  0  0
  145.6643  138.4622  153.9386 O   0  0  0  0  0  0  0  0  0  0  0  0
  146.5494  136.8922  152.5314 N   0  0  0  0  0  0  0  0  0  0  0  0
  145.3896  136.2061  152.0930 C   0  0  0  0  0  0  0  0  0  0  0  0
  144.2662  136.3525  152.8054 N   0  0  0  0  0  0  0  0  0  0  0  0
  143.2097  135.6289  152.2658 N   0  0  0  0  0  0  0  0  0  0  0  0
  143.5776  134.9671  151.1645 C   0  0  0  0  0  0  0  0  0  0  0  0
  145.2512  135.1624  150.6749 S   0  0  0  0  0  0  0  0  0  0  0  0
  148.0589  141.4847  154.6664 H   0  0  0  0  0  0  0  0  0  0  0  0
  146.6917  140.6352  153.9600 H   0  0  0  0  0  0  0  0  0  0  0  0
  148.1526  140.8953  153.0086 H   0  0  0  0  0  0  0  0  0  0  0  0
  147.9427  139.1748  155.5215 H   0  0  0  0  0  0  0  0  0  0  0  0
  150.3077  138.3629  154.5497 H   0  0  0  0  0  0  0  0  0  0  0  0
  150.2811  139.8901  153.7163 H   0  0  0  0  0  0  0  0  0  0  0  0
  149.4958  141.9775  155.7357 H   0  0  0  0  0  0  0  0  0  0  0  0
  148.5371  140.7583  156.5852 H   0  0  0  0  0  0  0  0  0  0  0  0
  150.3057  142.5386  157.8749 H   0  0  0  0  0  0  0  0  0  0  0  0
  149.7732  141.0039  158.5500 H   0  0  0  0  0  0  0  0  0  0  0  0
  152.4283  141.6445  157.3492 H   0  0  0  0  0  0  0  0  0  0  0  0
  151.9970  140.3234  158.4513 H   0  0  0  0  0  0  0  0  0  0  0  0
  148.6222  137.7590  153.1289 H   0  0  0  0  0  0  0  0  0  0  0  0
  147.4217  136.5550  152.1520 H   0  0  0  0  0  0  0  0  0  0  0  0
  142.8570  134.3603  150.6363 H   0  0  0  0  0  0  0  0  0  0  0  0
  1  2  1  0  0  0  0
  1 19  1  0  0  0  0
  1 20  1  0  0  0  0
  1 21  1  0  0  0  0
  2  3  1  0  0  0  0
  2 10  1  0  0  0  0
  2 22  1  0  0  0  0
  3  4  1  0  0  0  0
  3 23  1  0  0  0  0
  3 24  1  0  0  0  0
  4  8  1  0  0  0  0
  4  5  1  0  0  0  0
  5  6  1  0  0  0  0
  5 25  1  0  0  0  0
  5 26  1  0  0  0  0
  6  7  1  0  0  0  0
  6 27  1  0  0  0  0
  6 28  1  0  0  0  0
  7  8  1  0  0  0  0
  7 29  1  0  0  0  0
  7 30  1  0  0  0  0
  8  9  2  0  0  0  0
 10 11  1  0  0  0  0
 10 31  1  0  0  0  0
 11 12  2  0  0  0  0
 11 13  1  0  0  0  0
 13 14  1  0  0  0  0
 13 32  1  0  0  0  0
 14 18  1  0  0  0  0
 14 15  2  0  0  0  0
 15 16  1  0  0  0  0
 16 17  2  0  0  0  0
 17 18  1  0  0  0  0
 17 33  1  0  0  0  0
M  END
> <s_m_source_file>
AV-unprocessed.smi

> <i_m_source_file_index>
1836

> <i_lp_mmshare_version>
43012

> <i_f3d_flags>
0

> <s_epik_input>
Tz1DMVtDSDJdW0NIMl1bQ0gyXU4xW0NIMl1bQ0BASF0oW0NIM10pW05IXUMoPU8pW05IXWMybm5bY0hdczI=

> <s_epik_cmdline>
J2VwaWtfcHl0aG9uJywgJy1waCcsICc3LjAnLCAnLXRuJywgJzgnLCAnLW1hJywgJzIwMCcsICctbWV0YWxfYmluZGluZycsICctaW1hZScsICc8aW5maWxlLm1hZT4nLCAnLW9tYWUnLCAnPG91dGZpbGUubWFlPic=

> <r_lp_tautomer_probability>
1

> <r_epik_Ionization_Penalty>
0.00192022

> <r_epik_Ionization_Penalty_Charging>
0

> <r_epik_Ionization_Penalty_Neutral>
0.00192022

> <r_epik_State_Penalty>
-0

> <r_epik_Charging_Adjusted_Penalty>
0

> <i_epik_Tot_Q>
0

> <i_epik_Tot_abs_Q>
0

> <r_epik_Metal_State_Penalty>
0.336618

> <b_epik_Metal_Only>
0

> <s_lp_Force_Field>
OPLS_2005

> <r_lp_Energy>
16.7835

> <b_lp_Chiralities_Consistent>
1

> <s_lp_Variant>
AV-unprocessed.smi:1836-1

> <Gold.Version>
5.8.1

> <Gold.Id.Protein>
6NUR|6NUR_protein|mol2

> <Gold.PLP.Fitness>
36.8978

> <Gold.PLP.PLP>
-26.5130

> <Gold.PLP.part.hbond>
-2.9815

> <Gold.PLP.part.metal>
0.0000

> <Gold.PLP.part.buried>
-4.7263

> <Gold.PLP.part.nonpolar>
-20.2676

> <Gold.PLP.part.repulsive>
0.4523

> <Gold.PLP.ligand.clash>
0.0000

> <Gold.PLP.ligand.torsion>
0.5852

> <Gold.PLP.Chemscore.Hbond>
2.8406

> <Gold.PLP.Chemscore.CHOScore>
1.0000

> <Gold.PLP.Chemscore.Metal>
0.0000

> <Gold.Chemscore.Hbonds>
donor molecule, donor type, donor heavy atom, donor atom, acceptor molecule, acceptor atom, score
      L1  H    10    31       P1  7948  0.90
      L1  H    13    32       P1  7948  1.00
      P1  H  7997  8008       L1     9  0.76
      L1  C    17    33       P1 10186  1.00

> <Gold.PLP.Chemscore.Internal.Correction>
0.0334

> <Gold.Rescore>
     Score         DG    S(hbond)    S(metal)    S(lipo)     H(rot)  DE(clash)    DE(int)     intcor
     13.29     -15.44       2.74        0.00      45.36       1.76       0.02       2.13       ----

> <Gold.Chemscore.Fitness>
13.2901

> <Gold.Chemscore.DG>
-15.4359

> <Gold.Chemscore.ZeroCoef>
-5.4800

> <Gold.Chemscore.Hbond>
2.7387

> <Gold.Chemscore.Metal>
0.0000

> <Gold.Chemscore.Lipo>
45.3572

> <Gold.Chemscore.Internal_Hbond>
0.0000

> <Gold.Chemscore.DEClash>
0.0174

> <Gold.Chemscore.DEInternal>
2.1284

> <Gold.Chemscore.Rot>
1.7571

> <Gold.Chemscore.Internal.Correction>
   9.000000E+99

> <Gold.Chemscore.Hbonds>
donor molecule, donor type, donor heavy atom, donor atom, acceptor molecule, acceptor atom, score
      L1  H    10    31       P1  7948  0.85
      L1  H    13    32       P1  7948  0.97
      P1  H  7997  8008       L1     9  0.60

> <Gold.Chemscore.Hbond.Weighted>
-9.1474

> <Gold.Chemscore.Metal.Weighted>
-0.0000

> <Gold.Chemscore.Lipo.Weighted>
-5.3068

> <Gold.Chemscore.Internal_Hbond.Weighted>
0.0000

> <Gold.Chemscore.DEClash.Weighted>
0.0174

> <Gold.Chemscore.DEInternal.Weighted>
2.1284

> <Gold.Chemscore.Rot.Weighted>
4.4983

> <Gold.Chemscore.Internal.Correction.Weighted>
   9.000000E+99

> <Gold.Protein.RotatedTorsions>
[ 6907 6896 6895 6894 ] final  -58.68 input  -60.11 | X-H torsion
[ 7974 7965 7964 7962 ] final -138.38 input  175.53 | X-H torsion
[ 8008 7997 7996 7995 ] final  -32.98 input   59.86 | X-H torsion
[ 10167 10162 10161 10158 ] final  -84.58 input  -65.29 | X-H torsion
[ 10718 10713 10712 10709 ] final   92.58 input   66.30 | X-H torsion
[ 10763 10752 10751 10750 ] final  132.00 input  -60.55 | X-H torsion
[ 11005 11000 10999 10996 ] final   65.11 input  -57.11 | X-H torsion

> <Gold.Protein.ActiveResidues>
 VAL166  LYS551  ARG553  GLY616  TRP617  ASP618  TYR619  PRO620  LYS621  CYS622 
 ASP623  PHE694  ASN695  SER759  ASP760  ASP761  ALA762  ILE779  LEU786  VAL792 
 PHE793  MET794  SER795  GLU796  ALA797  LYS798  CYS799  TRP800  GLU811  SER814 

> <Gold.Protein.RotatedAtoms>
  150.7988  134.7068  159.6580 H   0  0  0  0  0  0  0  0  0  0  0  0  # atno 6907 bound_to 6896
  152.4103  134.6132  160.0041 H   0  0  0  0  0  0  0  0  0  0  0  0  # atno 6908 bound_to 6896
  151.6377  133.3291  159.3159 H   0  0  0  0  0  0  0  0  0  0  0  0  # atno 6909 bound_to 6896
  144.8763  140.6442  143.5235 H   0  0  0  0  0  0  0  0  0  0  0  0  # atno 7974 bound_to 7965
  154.4163  140.1723  156.1814 H   0  0  0  0  0  0  0  0  0  0  0  0  # atno 8008 bound_to 7997
  155.9679  140.3388  155.6525 H   0  0  0  0  0  0  0  0  0  0  0  0  # atno 8009 bound_to 7997
  155.6663  140.0706  157.2527 H   0  0  0  0  0  0  0  0  0  0  0  0  # atno 8010 bound_to 7997
  140.4118  143.2619  151.9007 H   0  0  0  0  0  0  0  0  0  0  0  0  # atno 10167 bound_to 10162
  157.6958  131.0448  150.3903 H   0  0  0  0  0  0  0  0  0  0  0  0  # atno 10718 bound_to 10713
  153.7836  135.3165  155.3369 H   0  0  0  0  0  0  0  0  0  0  0  0  # atno 10763 bound_to 10752
  154.8152  135.4641  154.0627 H   0  0  0  0  0  0  0  0  0  0  0  0  # atno 10764 bound_to 10752
  153.1923  135.6910  153.8422 H   0  0  0  0  0  0  0  0  0  0  0  0  # atno 10765 bound_to 10752
  139.9915  134.6584  156.0083 H   0  0  0  0  0  0  0  0  0  0  0  0  # atno 11005 bound_to 11000
  145.4037  139.1593  143.4163 LP  0  0  0  0  0  0  0  0  0  0  0  0  # atno 17320 bound_to 7965
  146.2965  140.4136  142.8720 LP  0  0  0  0  0  0  0  0  0  0  0  0  # atno 17321 bound_to 7965
  139.4782  144.5528  151.8359 LP  0  0  0  0  0  0  0  0  0  0  0  0  # atno 17342 bound_to 10162
  140.4629  144.1696  150.5908 LP  0  0  0  0  0  0  0  0  0  0  0  0  # atno 17343 bound_to 10162
  156.4307  130.3971  149.6762 LP  0  0  0  0  0  0  0  0  0  0  0  0  # atno 17370 bound_to 10713
  156.3980  130.7661  151.2666 LP  0  0  0  0  0  0  0  0  0  0  0  0  # atno 17371 bound_to 10713
  141.1570  133.6542  156.4193 LP  0  0  0  0  0  0  0  0  0  0  0  0  # atno 17394 bound_to 11000
  140.4899  134.6585  157.5206 LP  0  0  0  0  0  0  0  0  0  0  0  0  # atno 17395 bound_to 11000

$$$$
