AV-unprocessed.smi:2763|AV-procd|sdf|10639|dock9
  -GOLD-   2272015 93D 1   1.00000     0.00000
 Structure written by MMmdl.
 37 38  0  0  0  0  0  0  0  0  1 V2000
  152.9347  139.6689  158.1633 O   0  0  0  0  0  0  0  0  0  0  0  0
  152.1634  140.5604  157.8080 C   0  0  0  0  0  0  0  0  0  0  0  0
  151.5266  140.5651  156.6281 N   0  0  0  0  0  0  0  0  0  0  0  0
  151.6428  139.5369  155.6000 C   0  0  0  0  0  0  0  0  0  0  0  0
  150.2905  138.8423  155.3787 C   0  0  0  0  0  0  0  0  0  0  0  0
  149.2922  139.7072  154.5918 C   0  0  1  0  0  0  0  0  0  0  0  0
  147.9604  138.9707  154.3470 C   0  0  0  0  0  0  0  0  0  0  0  0
  146.9594  139.8853  153.6314 C   0  0  0  0  0  0  0  0  0  0  0  0
  146.8190  141.2024  154.4020 C   0  0  0  0  0  0  0  0  0  0  0  0
  148.2016  141.8259  154.6492 C   0  0  0  0  0  0  0  0  0  0  0  0
  149.0352  140.8970  155.3355 O   0  0  0  0  0  0  0  0  0  0  0  0
  151.8417  141.6446  158.5359 N   0  0  0  0  0  0  0  0  0  0  0  0
  152.3135  142.0100  159.8251 C   0  0  0  0  0  0  0  0  0  0  0  0
  151.8828  143.2763  160.2826 C   0  0  0  0  0  0  0  0  0  0  0  0
  152.2970  143.7340  161.5488 C   0  0  0  0  0  0  0  0  0  0  0  0
  153.1336  142.9117  162.3239 C   0  0  0  0  0  0  0  0  0  0  0  0
  153.5581  143.3092  163.5467 F   0  0  0  0  0  0  0  0  0  0  0  0
  153.5179  141.6653  161.7957 C   0  0  0  0  0  0  0  0  0  0  0  0
  153.1209  141.2254  160.5826 N   0  0  0  0  0  0  0  0  0  0  0  0
  150.9110  141.3388  156.4255 H   0  0  0  0  0  0  0  0  0  0  0  0
  151.9956  139.9606  154.6583 H   0  0  0  0  0  0  0  0  0  0  0  0
  152.3914  138.8117  155.9207 H   0  0  0  0  0  0  0  0  0  0  0  0
  150.4544  137.9086  154.8388 H   0  0  0  0  0  0  0  0  0  0  0  0
  149.8569  138.5686  156.3416 H   0  0  0  0  0  0  0  0  0  0  0  0
  149.7395  139.9729  153.6322 H   0  0  0  0  0  0  0  0  0  0  0  0
  148.1278  138.0701  153.7553 H   0  0  0  0  0  0  0  0  0  0  0  0
  147.5389  138.6456  155.2992 H   0  0  0  0  0  0  0  0  0  0  0  0
  147.3068  140.0879  152.6175 H   0  0  0  0  0  0  0  0  0  0  0  0
  145.9910  139.3929  153.5394 H   0  0  0  0  0  0  0  0  0  0  0  0
  146.1835  141.8965  153.8514 H   0  0  0  0  0  0  0  0  0  0  0  0
  146.3277  141.0180  155.3582 H   0  0  0  0  0  0  0  0  0  0  0  0
  148.6683  142.1252  153.7094 H   0  0  0  0  0  0  0  0  0  0  0  0
  148.1036  142.7262  155.2561 H   0  0  0  0  0  0  0  0  0  0  0  0
  151.1827  142.2846  158.1181 H   0  0  0  0  0  0  0  0  0  0  0  0
  151.2405  143.8950  159.6724 H   0  0  0  0  0  0  0  0  0  0  0  0
  151.9787  144.6981  161.9168 H   0  0  0  0  0  0  0  0  0  0  0  0
  154.1598  141.0047  162.3596 H   0  0  0  0  0  0  0  0  0  0  0  0
  1  2  2  0  0  0  0
  2  3  1  0  0  0  0
  2 12  1  0  0  0  0
  3  4  1  0  0  0  0
  3 20  1  0  0  0  0
  4  5  1  0  0  0  0
  4 21  1  0  0  0  0
  4 22  1  0  0  0  0
  5  6  1  0  0  0  0
  5 23  1  0  0  0  0
  5 24  1  0  0  0  0
  6 11  1  0  0  0  0
  6  7  1  0  0  0  0
  6 25  1  0  0  0  0
  7  8  1  0  0  0  0
  7 26  1  0  0  0  0
  7 27  1  0  0  0  0
  8  9  1  0  0  0  0
  8 28  1  0  0  0  0
  8 29  1  0  0  0  0
  9 10  1  0  0  0  0
  9 30  1  0  0  0  0
  9 31  1  0  0  0  0
 10 11  1  0  0  0  0
 10 32  1  0  0  0  0
 10 33  1  0  0  0  0
 12 13  1  0  0  0  0
 12 34  1  0  0  0  0
 13 19  1  0  0  0  0
 13 14  2  0  0  0  0
 14 15  1  0  0  0  0
 14 35  1  0  0  0  0
 15 16  2  0  0  0  0
 15 36  1  0  0  0  0
 16 17  1  0  0  0  0
 16 18  1  0  0  0  0
 18 19  2  0  0  0  0
 18 37  1  0  0  0  0
M  END
> <s_m_source_file>
AV-unprocessed.smi

> <i_m_source_file_index>
2763

> <i_lp_mmshare_version>
43012

> <i_f3d_flags>
0

> <s_epik_input>
bjFbY0hdYyhGKVtjSF1bY0hdYzFbTkhdQyg9TylbTkhdW0NIMl1bQ0gyXVtDQEBIXTJbQ0gyXVtDSDJdW0NIMl1bQ0gyXU8y

> <s_epik_cmdline>
J2VwaWtfcHl0aG9uJywgJy1waCcsICc3LjAnLCAnLXRuJywgJzgnLCAnLW1hJywgJzIwMCcsICctbWV0YWxfYmluZGluZycsICctaW1hZScsICc8aW5maWxlLm1hZT4nLCAnLW9tYWUnLCAnPG91dGZpbGUubWFlPic=

> <r_lp_tautomer_probability>
1

> <r_epik_Ionization_Penalty>
3.67849e-05

> <r_epik_Ionization_Penalty_Charging>
0

> <r_epik_Ionization_Penalty_Neutral>
3.67849e-05

> <r_epik_State_Penalty>
-0

> <r_epik_Charging_Adjusted_Penalty>
0

> <i_epik_Tot_Q>
0

> <i_epik_Tot_abs_Q>
0

> <r_epik_Metal_State_Penalty>
-0

> <b_epik_Metal_Only>
0

> <s_lp_Force_Field>
OPLS_2005

> <r_lp_Energy>
13.3257

> <b_lp_Chiralities_Consistent>
1

> <s_lp_Variant>
AV-unprocessed.smi:2763-2

> <Gold.Version>
5.8.1

> <Gold.Id.Protein>
6NUR|6NUR_protein|mol2

> <Gold.PLP.Fitness>
44.9408

> <Gold.PLP.PLP>
-42.0682

> <Gold.PLP.part.hbond>
-1.0000

> <Gold.PLP.part.metal>
0.0000

> <Gold.PLP.part.buried>
-1.7368

> <Gold.PLP.part.nonpolar>
-37.7980

> <Gold.PLP.part.repulsive>
0.3363

> <Gold.PLP.ligand.clash>
0.0000

> <Gold.PLP.ligand.torsion>
0.0683

> <Gold.PLP.Chemscore.Hbond>
1.0000

> <Gold.PLP.Chemscore.CHOScore>
0.0000

> <Gold.PLP.Chemscore.Metal>
0.0000

> <Gold.Chemscore.Hbonds>
donor molecule, donor type, donor heavy atom, donor atom, acceptor molecule, acceptor atom, score
      P1  H  7997  8010       L1     1  0.85

> <Gold.PLP.Chemscore.Internal.Correction>
0.0093

> <Gold.Rescore>
     Score         DG    S(hbond)    S(metal)    S(lipo)     H(rot)  DE(clash)    DE(int)     intcor
     11.82     -15.18       0.85        0.00      92.39       1.54       0.67       2.69       ----

> <Gold.Chemscore.Fitness>
11.8185

> <Gold.Chemscore.DG>
-15.1826

> <Gold.Chemscore.ZeroCoef>
-5.4800

> <Gold.Chemscore.Hbond>
0.8476

> <Gold.Chemscore.Metal>
0.0000

> <Gold.Chemscore.Lipo>
92.3923

> <Gold.Chemscore.Internal_Hbond>
0.0000

> <Gold.Chemscore.DEClash>
0.6748

> <Gold.Chemscore.DEInternal>
2.6893

> <Gold.Chemscore.Rot>
1.5384

> <Gold.Chemscore.Internal.Correction>
   9.000000E+99

> <Gold.Chemscore.Hbonds>
donor molecule, donor type, donor heavy atom, donor atom, acceptor molecule, acceptor atom, score
      P1  H  7997  8010       L1     1  0.16

> <Gold.Chemscore.Hbond.Weighted>
-2.8309

> <Gold.Chemscore.Metal.Weighted>
-0.0000

> <Gold.Chemscore.Lipo.Weighted>
-10.8099

> <Gold.Chemscore.Internal_Hbond.Weighted>
0.0000

> <Gold.Chemscore.DEClash.Weighted>
0.6748

> <Gold.Chemscore.DEInternal.Weighted>
2.6893

> <Gold.Chemscore.Rot.Weighted>
3.9382

> <Gold.Chemscore.Internal.Correction.Weighted>
   9.000000E+99

> <Gold.Protein.RotatedTorsions>
[ 6907 6896 6895 6894 ] final   61.37 input  -60.11 | X-H torsion
[ 7974 7965 7964 7962 ] final  127.04 input  175.53 | X-H torsion
[ 8008 7997 7996 7995 ] final   47.40 input   59.86 | X-H torsion
[ 10167 10162 10161 10158 ] final   67.02 input  -65.29 | X-H torsion
[ 10718 10713 10712 10709 ] final  -21.58 input   66.30 | X-H torsion
[ 10763 10752 10751 10750 ] final  -65.34 input  -60.55 | X-H torsion
[ 11005 11000 10999 10996 ] final   75.67 input  -57.11 | X-H torsion

> <Gold.Protein.ActiveResidues>
 VAL166  LYS551  ARG553  GLY616  TRP617  ASP618  TYR619  PRO620  LYS621  CYS622 
 ASP623  PHE694  ASN695  SER759  ASP760  ASP761  ALA762  ILE779  LEU786  VAL792 
 PHE793  MET794  SER795  GLU796  ALA797  LYS798  CYS799  TRP800  GLU811  SER814 

> <Gold.Protein.RotatedAtoms>
  152.4083  134.6169  160.0040 H   0  0  0  0  0  0  0  0  0  0  0  0  # atno 6907 bound_to 6896
  151.6354  133.3323  159.3126 H   0  0  0  0  0  0  0  0  0  0  0  0  # atno 6908 bound_to 6896
  150.7976  134.7087  159.6636 H   0  0  0  0  0  0  0  0  0  0  0  0  # atno 6909 bound_to 6896
  145.0549  139.3852  143.5035 H   0  0  0  0  0  0  0  0  0  0  0  0  # atno 7974 bound_to 7965
  155.3685  140.3422  155.4242 H   0  0  0  0  0  0  0  0  0  0  0  0  # atno 8008 bound_to 7997
  156.1675  140.1621  156.8539 H   0  0  0  0  0  0  0  0  0  0  0  0  # atno 8009 bound_to 7997
  154.5200  140.0769  156.8136 H   0  0  0  0  0  0  0  0  0  0  0  0  # atno 8010 bound_to 7997
  140.0941  144.4962  150.7079 H   0  0  0  0  0  0  0  0  0  0  0  0  # atno 10167 bound_to 10162
  156.5162  130.4621  149.6621 H   0  0  0  0  0  0  0  0  0  0  0  0  # atno 10718 bound_to 10713
  154.3436  135.6151  153.5608 H   0  0  0  0  0  0  0  0  0  0  0  0  # atno 10763 bound_to 10752
  152.9802  135.5775  154.4824 H   0  0  0  0  0  0  0  0  0  0  0  0  # atno 10764 bound_to 10752
  154.4533  135.2853  155.1743 H   0  0  0  0  0  0  0  0  0  0  0  0  # atno 10765 bound_to 10752
  139.9333  134.7537  156.1300 H   0  0  0  0  0  0  0  0  0  0  0  0  # atno 11005 bound_to 11000
  146.3520  140.0219  142.8658 LP  0  0  0  0  0  0  0  0  0  0  0  0  # atno 17320 bound_to 7965
  145.1480  140.9608  143.4449 LP  0  0  0  0  0  0  0  0  0  0  0  0  # atno 17321 bound_to 7965
  140.7013  143.2436  151.4857 LP  0  0  0  0  0  0  0  0  0  0  0  0  # atno 17342 bound_to 10162
  139.5708  144.1934  152.1833 LP  0  0  0  0  0  0  0  0  0  0  0  0  # atno 17343 bound_to 10162
  156.3192  130.7271  151.2180 LP  0  0  0  0  0  0  0  0  0  0  0  0  # atno 17370 bound_to 10713
  157.7443  131.0460  150.4872 LP  0  0  0  0  0  0  0  0  0  0  0  0  # atno 17371 bound_to 10713
  141.0934  133.6705  156.2590 LP  0  0  0  0  0  0  0  0  0  0  0  0  # atno 17394 bound_to 11000
  140.6143  134.5426  157.5538 LP  0  0  0  0  0  0  0  0  0  0  0  0  # atno 17395 bound_to 11000

$$$$
