AV-unprocessed.smi:876|AV-procd|sdf|4025|dock4
  -GOLD-   22720 1513D 1   1.00000     0.00000
 Structure written by MMmdl.
 40 41  0  0  0  0  0  0  0  0  1 V2000
  136.0969  139.3373  154.0165 C   0  0  0  0  0  0  0  0  0  0  0  0
  136.8335  138.0964  154.2224 N   0  0  0  0  0  0  0  0  0  0  0  0
  136.1448  136.9198  154.7432 C   0  0  0  0  0  0  0  0  0  0  0  0
  138.2047  138.0181  153.8873 C   0  0  0  0  0  0  0  0  0  0  0  0
  138.9314  136.8088  154.0200 C   0  0  0  0  0  0  0  0  0  0  0  0
  140.2957  136.7799  153.6715 C   0  0  0  0  0  0  0  0  0  0  0  0
  140.9059  137.9605  153.1892 C   0  0  0  0  0  0  0  0  0  0  0  0
  142.2744  138.0688  152.8211 N   0  0  0  0  0  0  0  0  0  0  0  0
  143.1606  137.0878  152.5780 C   0  0  0  0  0  0  0  0  0  0  0  0
  142.9199  135.8814  152.6163 O   0  0  0  0  0  0  0  0  0  0  0  0
  144.3623  137.5904  152.2627 N   0  0  0  0  0  0  0  0  0  0  0  0
  145.5391  136.7944  151.9325 C   0  0  2  0  0  0  0  0  0  0  0  0
  145.3256  136.0468  150.6453 C   0  0  0  0  0  0  0  0  0  0  0  0
  145.4464  134.7293  150.7893 C   0  0  0  0  0  0  0  0  0  0  0  0
  145.7436  134.3196  152.2094 C   0  0  1  0  0  0  0  0  0  0  0  0
  147.0313  133.4866  152.3315 C   0  0  0  0  0  0  0  0  0  0  0  0
  146.9249  132.2928  151.5839 O   0  0  0  0  0  0  0  0  0  0  0  0
  145.8169  135.6708  152.9660 C   0  0  0  0  0  0  0  0  0  0  0  0
  140.1072  139.1173  153.1041 C   0  0  0  0  0  0  0  0  0  0  0  0
  138.8002  139.1492  153.4362 N   0  0  0  0  0  0  0  0  0  0  0  0
  146.4111  137.4405  151.8161 H   0  0  0  0  0  0  0  0  0  0  0  0
  144.8953  133.7417  152.5793 H   0  0  0  0  0  0  0  0  0  0  0  0
  136.1284  139.6328  152.9676 H   0  0  0  0  0  0  0  0  0  0  0  0
  136.5218  140.1403  154.6197 H   0  0  0  0  0  0  0  0  0  0  0  0
  135.0496  139.2287  154.2986 H   0  0  0  0  0  0  0  0  0  0  0  0
  136.6271  136.5643  155.6542 H   0  0  0  0  0  0  0  0  0  0  0  0
  136.1550  136.1141  154.0085 H   0  0  0  0  0  0  0  0  0  0  0  0
  135.1047  137.1404  154.9828 H   0  0  0  0  0  0  0  0  0  0  0  0
  138.4723  135.9027  154.3851 H   0  0  0  0  0  0  0  0  0  0  0  0
  140.8430  135.8587  153.7951 H   0  0  0  0  0  0  0  0  0  0  0  0
  142.6071  139.0107  152.6755 H   0  0  0  0  0  0  0  0  0  0  0  0
  144.4721  138.5939  152.2474 H   0  0  0  0  0  0  0  0  0  0  0  0
  145.1109  136.5524  149.7152 H   0  0  0  0  0  0  0  0  0  0  0  0
  145.3342  134.0060  149.9950 H   0  0  0  0  0  0  0  0  0  0  0  0
  147.8956  134.0530  151.9824 H   0  0  0  0  0  0  0  0  0  0  0  0
  147.2152  133.2250  153.3739 H   0  0  0  0  0  0  0  0  0  0  0  0
  147.7927  132.0196  151.3283 H   0  0  0  0  0  0  0  0  0  0  0  0
  146.7985  135.8189  153.4182 H   0  0  0  0  0  0  0  0  0  0  0  0
  145.0947  135.6834  153.7837 H   0  0  0  0  0  0  0  0  0  0  0  0
  140.5271  140.0493  152.7547 H   0  0  0  0  0  0  0  0  0  0  0  0
  1  2  1  0  0  0  0
  1 23  1  0  0  0  0
  1 24  1  0  0  0  0
  1 25  1  0  0  0  0
  2  3  1  0  0  0  0
  2  4  1  0  0  0  0
  3 26  1  0  0  0  0
  3 27  1  0  0  0  0
  3 28  1  0  0  0  0
  4 20  1  0  0  0  0
  4  5  2  0  0  0  0
  5  6  1  0  0  0  0
  5 29  1  0  0  0  0
  6  7  2  0  0  0  0
  6 30  1  0  0  0  0
  7  8  1  0  0  0  0
  7 19  1  0  0  0  0
  8  9  1  0  0  0  0
  8 31  1  0  0  0  0
  9 10  2  0  0  0  0
  9 11  1  0  0  0  0
 11 12  1  0  0  0  0
 11 32  1  0  0  0  0
 12 21  1  0  0  0  0
 12 18  1  0  0  0  0
 12 13  1  0  0  0  0
 13 14  2  0  0  0  0
 13 33  1  0  0  0  0
 14 15  1  0  0  0  0
 14 34  1  0  0  0  0
 15 22  1  0  0  0  0
 15 16  1  0  0  0  0
 15 18  1  0  0  0  0
 16 17  1  0  0  0  0
 16 35  1  0  0  0  0
 16 36  1  0  0  0  0
 17 37  1  0  0  0  0
 18 38  1  0  0  0  0
 18 39  1  0  0  0  0
 19 20  2  0  0  0  0
 19 40  1  0  0  0  0
M  END
> <s_m_source_file>
AV-unprocessed.smi

> <i_m_source_file_index>
876

> <i_lp_mmshare_version>
43012

> <i_f3d_flags>
0

> <s_epik_input>
W0NIM11OKFtDSDNdKWMxW2NIXVtjSF1jKFtjSF1uMSlbTkhdQyg9TylbTkhdW0NAQEhdMltDSF09W0NIXVtDQEBIXShbQ0gyXTIpW0NIMl1bT0hd

> <s_epik_cmdline>
J2VwaWtfcHl0aG9uJywgJy1waCcsICc3LjAnLCAnLXRuJywgJzgnLCAnLW1hJywgJzIwMCcsICctbWV0YWxfYmluZGluZycsICctaW1hZScsICc8aW5maWxlLm1hZT4nLCAnLW9tYWUnLCAnPG91dGZpbGUubWFlPic=

> <r_lp_tautomer_probability>
1

> <r_epik_Ionization_Penalty>
0.617998

> <r_epik_Ionization_Penalty_Charging>
0

> <r_epik_Ionization_Penalty_Neutral>
0.617998

> <r_epik_State_Penalty>
0.632637

> <r_epik_Charging_Adjusted_Penalty>
0.632637

> <i_epik_Tot_Q>
0

> <i_epik_Tot_abs_Q>
0

> <r_epik_Metal_State_Penalty>
0.305596

> <b_epik_Metal_Only>
0

> <s_lp_Force_Field>
OPLS_2005

> <r_lp_Energy>
20.6099

> <b_lp_Chiralities_Consistent>
1

> <s_lp_Variant>
AV-unprocessed.smi:876-7

> <Gold.Version>
5.8.1

> <Gold.Id.Protein>
6NUR|6NUR_protein|mol2

> <Gold.PLP.Fitness>
47.4923

> <Gold.PLP.PLP>
-36.2516

> <Gold.PLP.part.hbond>
-4.0000

> <Gold.PLP.part.metal>
0.0000

> <Gold.PLP.part.buried>
-1.8959

> <Gold.PLP.part.nonpolar>
-31.1679

> <Gold.PLP.part.repulsive>
0.3261

> <Gold.PLP.ligand.clash>
0.0000

> <Gold.PLP.ligand.torsion>
0.1203

> <Gold.PLP.Chemscore.Hbond>
2.9760

> <Gold.PLP.Chemscore.CHOScore>
0.8460

> <Gold.PLP.Chemscore.Metal>
0.0000

> <Gold.Chemscore.Hbonds>
donor molecule, donor type, donor heavy atom, donor atom, acceptor molecule, acceptor atom, score
      L1  H     8    31       P1 10175  1.00
      L1  H    11    32       P1 10175  0.99
      L1  H    17    37       P1 10747  1.00
      L1  C    19    40       P1 10160  0.64

> <Gold.PLP.Chemscore.Internal.Correction>
0.0152

> <Gold.Rescore>
     Score         DG    S(hbond)    S(metal)    S(lipo)     H(rot)  DE(clash)    DE(int)     intcor
     15.54     -18.32       2.82        0.00      68.44       1.80       0.21       2.56       ----

> <Gold.Chemscore.Fitness>
15.5390

> <Gold.Chemscore.DG>
-18.3152

> <Gold.Chemscore.ZeroCoef>
-5.4800

> <Gold.Chemscore.Hbond>
2.8237

> <Gold.Chemscore.Metal>
0.0000

> <Gold.Chemscore.Lipo>
68.4357

> <Gold.Chemscore.Internal_Hbond>
0.0000

> <Gold.Chemscore.DEClash>
0.2137

> <Gold.Chemscore.DEInternal>
2.5625

> <Gold.Chemscore.Rot>
1.7980

> <Gold.Chemscore.Internal.Correction>
   9.000000E+99

> <Gold.Chemscore.Hbonds>
donor molecule, donor type, donor heavy atom, donor atom, acceptor molecule, acceptor atom, score
      L1  H     8    31       P1 10175  1.00
      L1  H    11    32       P1 10175  0.87
      L1  H    17    37       P1 10747  0.94

> <Gold.Chemscore.Hbond.Weighted>
-9.4311

> <Gold.Chemscore.Metal.Weighted>
-0.0000

> <Gold.Chemscore.Lipo.Weighted>
-8.0070

> <Gold.Chemscore.Internal_Hbond.Weighted>
0.0000

> <Gold.Chemscore.DEClash.Weighted>
0.2137

> <Gold.Chemscore.DEInternal.Weighted>
2.5625

> <Gold.Chemscore.Rot.Weighted>
4.6029

> <Gold.Chemscore.Internal.Correction.Weighted>
   9.000000E+99

> <Gold.Protein.RotatedTorsions>
[ 6907 6896 6895 6894 ] final   32.75 input  -60.11 | X-H torsion
[ 7974 7965 7964 7962 ] final  -63.61 input  175.53 | X-H torsion
[ 8008 7997 7996 7995 ] final  112.65 input   59.86 | X-H torsion
[ 10167 10162 10161 10158 ] final   61.71 input  -65.29 | X-H torsion
[ 10718 10713 10712 10709 ] final  -54.13 input   66.30 | X-H torsion
[ 10763 10752 10751 10750 ] final  -36.44 input  -60.55 | X-H torsion
[ 11005 11000 10999 10996 ] final -143.79 input  -57.11 | X-H torsion

> <Gold.Protein.ActiveResidues>
 VAL166  LYS551  ARG553  GLY616  TRP617  ASP618  TYR619  PRO620  LYS621  CYS622 
 ASP623  PHE694  ASN695  SER759  ASP760  ASP761  ALA762  ILE779  LEU786  VAL792 
 PHE793  MET794  SER795  GLU796  ALA797  LYS798  CYS799  TRP800  GLU811  SER814 

> <Gold.Protein.RotatedAtoms>
  152.0789  134.9484  160.0573 H   0  0  0  0  0  0  0  0  0  0  0  0  # atno 6907 bound_to 6896
  152.0781  133.4134  159.4497 H   0  0  0  0  0  0  0  0  0  0  0  0  # atno 6908 bound_to 6896
  150.6836  134.2934  159.4719 H   0  0  0  0  0  0  0  0  0  0  0  0  # atno 6909 bound_to 6896
  145.7769  140.8783  143.0350 H   0  0  0  0  0  0  0  0  0  0  0  0  # atno 7974 bound_to 7965
  156.2206  140.2995  155.9943 H   0  0  0  0  0  0  0  0  0  0  0  0  # atno 8008 bound_to 7997
  155.2491  140.0425  157.3001 H   0  0  0  0  0  0  0  0  0  0  0  0  # atno 8009 bound_to 7997
  154.5835  140.2381  155.8029 H   0  0  0  0  0  0  0  0  0  0  0  0  # atno 8010 bound_to 7997
  140.1518  144.4455  150.6755 H   0  0  0  0  0  0  0  0  0  0  0  0  # atno 10167 bound_to 10162
  156.1477  130.4152  149.9997 H   0  0  0  0  0  0  0  0  0  0  0  0  # atno 10718 bound_to 10713
  153.8798  135.6823  153.4768 H   0  0  0  0  0  0  0  0  0  0  0  0  # atno 10763 bound_to 10752
  153.1240  135.4727  154.9239 H   0  0  0  0  0  0  0  0  0  0  0  0  # atno 10764 bound_to 10752
  154.7674  135.3228  154.8210 H   0  0  0  0  0  0  0  0  0  0  0  0  # atno 10765 bound_to 10752
  140.8090  134.2767  157.4948 H   0  0  0  0  0  0  0  0  0  0  0  0  # atno 11005 bound_to 11000
  144.6803  139.9934  143.7484 LP  0  0  0  0  0  0  0  0  0  0  0  0  # atno 17320 bound_to 7965
  146.0113  139.3172  143.0868 LP  0  0  0  0  0  0  0  0  0  0  0  0  # atno 17321 bound_to 7965
  140.6698  143.2281  151.5654 LP  0  0  0  0  0  0  0  0  0  0  0  0  # atno 17342 bound_to 10162
  139.5422  144.2616  152.1373 LP  0  0  0  0  0  0  0  0  0  0  0  0  # atno 17343 bound_to 10162
  156.7864  130.9240  151.3646 LP  0  0  0  0  0  0  0  0  0  0  0  0  # atno 17370 bound_to 10713
  157.6630  130.8983  149.9871 LP  0  0  0  0  0  0  0  0  0  0  0  0  # atno 17371 bound_to 10713
  139.8715  134.9472  156.3961 LP  0  0  0  0  0  0  0  0  0  0  0  0  # atno 17394 bound_to 11000
  140.9217  133.7640  155.9915 LP  0  0  0  0  0  0  0  0  0  0  0  0  # atno 17395 bound_to 11000

$$$$
