AV-unprocessed.smi:2218|AV-procd|sdf|8976|dock9
  -GOLD-   2272012193D 1   1.00000     0.00000
 Structure written by MMmdl.
 32 32  0  0  0  0  0  0  0  0  2 V2000
  153.2332  142.6090  160.7782 C   0  0  0  0  0  0  0  0  0  0  0  0
  152.5021  142.9364  159.5217 C   0  0  0  0  0  0  0  0  0  0  0  0
  151.7630  142.0529  158.8459 N   0  0  0  0  0  0  0  0  0  0  0  0
  151.1835  142.6021  157.6968 C   0  0  0  0  0  0  0  0  0  0  0  0
  150.3159  141.7503  156.8125 C   0  0  0  0  0  0  0  0  0  0  0  0
  148.8963  141.5843  157.3717 C   0  0  0  0  0  0  0  0  0  0  0  0
  148.5700  140.5803  158.0074 O   0  0  0  0  0  0  0  0  0  0  0  0
  148.0490  142.5915  157.1108 N   0  0  0  0  0  0  0  0  0  0  0  0
  146.6449  142.6311  157.5024 C   0  0  0  0  0  0  0  0  0  0  0  0
  146.4926  142.8804  159.0115 C   0  0  0  0  0  0  0  0  0  0  0  0
  145.9545  144.2830  159.3267 C   0  0  0  0  0  0  0  0  0  0  0  0
  146.0285  144.6112  160.8312 C   0  0  0  0  0  0  0  0  0  0  0  0
  147.4378  144.9973  161.2993 C   0  0  0  0  0  0  0  0  0  0  0  0
  148.3130  144.1091  161.2070 O   0  0  0  0  0  0  0  0  0  0  0  0
  147.6319  146.1550  161.7330 O   0  5  0  0  0  0  0  0  0  0  0  0
  151.4911  143.9287  157.5183 C   0  0  0  0  0  0  0  0  0  0  0  0
  152.5314  144.5309  158.7790 S   0  0  0  0  0  0  0  0  0  0  0  0
  152.8678  141.6732  161.2023 H   0  0  0  0  0  0  0  0  0  0  0  0
  153.0903  143.4031  161.5111 H   0  0  0  0  0  0  0  0  0  0  0  0
  154.2990  142.5085  160.5725 H   0  0  0  0  0  0  0  0  0  0  0  0
  150.2519  142.1799  155.8120 H   0  0  0  0  0  0  0  0  0  0  0  0
  150.7583  140.7605  156.6946 H   0  0  0  0  0  0  0  0  0  0  0  0
  148.3968  143.3802  156.5851 H   0  0  0  0  0  0  0  0  0  0  0  0
  146.1133  143.3936  156.9305 H   0  0  0  0  0  0  0  0  0  0  0  0
  146.1943  141.6743  157.2374 H   0  0  0  0  0  0  0  0  0  0  0  0
  145.8215  142.1324  159.4357 H   0  0  0  0  0  0  0  0  0  0  0  0
  147.4558  142.7469  159.5056 H   0  0  0  0  0  0  0  0  0  0  0  0
  146.5246  145.0200  158.7590 H   0  0  0  0  0  0  0  0  0  0  0  0
  144.9213  144.3547  158.9832 H   0  0  0  0  0  0  0  0  0  0  0  0
  145.3517  145.4343  161.0638 H   0  0  0  0  0  0  0  0  0  0  0  0
  145.6944  143.7537  161.4161 H   0  0  0  0  0  0  0  0  0  0  0  0
  151.1749  144.5830  156.7197 H   0  0  0  0  0  0  0  0  0  0  0  0
  1  2  1  0  0  0  0
  1 18  1  0  0  0  0
  1 19  1  0  0  0  0
  1 20  1  0  0  0  0
  2 17  1  0  0  0  0
  2  3  2  0  0  0  0
  3  4  1  0  0  0  0
  4  5  1  0  0  0  0
  4 16  2  0  0  0  0
  5  6  1  0  0  0  0
  5 21  1  0  0  0  0
  5 22  1  0  0  0  0
  6  7  2  0  0  0  0
  6  8  1  0  0  0  0
  8  9  1  0  0  0  0
  8 23  1  0  0  0  0
  9 10  1  0  0  0  0
  9 24  1  0  0  0  0
  9 25  1  0  0  0  0
 10 11  1  0  0  0  0
 10 26  1  0  0  0  0
 10 27  1  0  0  0  0
 11 12  1  0  0  0  0
 11 28  1  0  0  0  0
 11 29  1  0  0  0  0
 12 13  1  0  0  0  0
 12 30  1  0  0  0  0
 12 31  1  0  0  0  0
 13 14  2  0  0  0  0
 13 15  1  0  0  0  0
 16 17  1  0  0  0  0
 16 32  1  0  0  0  0
M  CHG  1  15  -1
M  END
> <s_m_source_file>
AV-unprocessed.smi

> <i_m_source_file_index>
2218

> <i_lp_mmshare_version>
43012

> <i_f3d_flags>
0

> <s_epik_input>
W0NIM11jMW5jKFtjSF1zMSlbQ0gyXUMoPU8pW05IXVtDSDJdW0NIMl1bQ0gyXVtDSDJdQyg9TylbT0hd

> <s_epik_cmdline>
J2VwaWtfcHl0aG9uJywgJy1waCcsICc3LjAnLCAnLXRuJywgJzgnLCAnLW1hJywgJzIwMCcsICctbWV0YWxfYmluZGluZycsICctaW1hZScsICc8aW5maWxlLm1hZT4nLCAnLW9tYWUnLCAnPG91dGZpbGUubWFlPic=

> <r_epik_Ionization_Penalty>
0.0039764

> <r_epik_Ionization_Penalty_Charging>
0.00392012

> <r_epik_Ionization_Penalty_Neutral>
5.62812e-05

> <r_epik_State_Penalty>
0.00280293

> <r_epik_Charging_Adjusted_Penalty>
0.00672305

> <i_epik_Tot_Q>
-1

> <i_epik_Tot_abs_Q>
1

> <r_epik_Metal_State_Penalty>
-0

> <b_epik_Metal_Only>
0

> <s_lp_Force_Field>
OPLS_2005

> <r_lp_Energy>
1.59535

> <b_lp_Chiralities_Consistent>
1

> <s_lp_Variant>
AV-unprocessed.smi:2218-1

> <Gold.Version>
5.8.1

> <Gold.Id.Protein>
6NUR|6NUR_protein|mol2

> <Gold.PLP.Fitness>
47.6938

> <Gold.PLP.PLP>
-38.0006

> <Gold.PLP.part.hbond>
-4.3762

> <Gold.PLP.part.metal>
0.0000

> <Gold.PLP.part.buried>
-5.2293

> <Gold.PLP.part.nonpolar>
-28.3907

> <Gold.PLP.part.repulsive>
0.4647

> <Gold.PLP.ligand.clash>
0.0000

> <Gold.PLP.ligand.torsion>
1.1253

> <Gold.PLP.Chemscore.Hbond>
3.0000

> <Gold.PLP.Chemscore.CHOScore>
0.9703

> <Gold.PLP.Chemscore.Metal>
0.0000

> <Gold.Chemscore.Hbonds>
donor molecule, donor type, donor heavy atom, donor atom, acceptor molecule, acceptor atom, score
      L1  H     8    23       P1  8028  1.00
      P1  H  6933  6944       L1    14  1.98
      L1  C    16    32       P1  8028  0.97

> <Gold.PLP.Chemscore.Internal.Correction>
0.0326

> <Gold.Rescore>
     Score         DG    S(hbond)    S(metal)    S(lipo)     H(rot)  DE(clash)    DE(int)     intcor
     12.54     -13.62       1.97        0.00      75.37       2.83       0.03       1.05       ----

> <Gold.Chemscore.Fitness>
12.5363

> <Gold.Chemscore.DG>
-13.6154

> <Gold.Chemscore.ZeroCoef>
-5.4800

> <Gold.Chemscore.Hbond>
1.9656

> <Gold.Chemscore.Metal>
0.0000

> <Gold.Chemscore.Lipo>
75.3713

> <Gold.Chemscore.Internal_Hbond>
0.0000

> <Gold.Chemscore.DEClash>
0.0256

> <Gold.Chemscore.DEInternal>
1.0536

> <Gold.Chemscore.Rot>
2.8313

> <Gold.Chemscore.Internal.Correction>
   9.000000E+99

> <Gold.Chemscore.Hbonds>
donor molecule, donor type, donor heavy atom, donor atom, acceptor molecule, acceptor atom, score
      L1  H     8    23       P1  8028  0.40
      P1  H  6933  6944       L1    14  0.94

> <Gold.Chemscore.Hbond.Weighted>
-6.5652

> <Gold.Chemscore.Metal.Weighted>
-0.0000

> <Gold.Chemscore.Lipo.Weighted>
-8.8184

> <Gold.Chemscore.Internal_Hbond.Weighted>
0.0000

> <Gold.Chemscore.DEClash.Weighted>
0.0256

> <Gold.Chemscore.DEInternal.Weighted>
1.0536

> <Gold.Chemscore.Rot.Weighted>
7.2482

> <Gold.Chemscore.Internal.Correction.Weighted>
   9.000000E+99

> <Gold.Protein.RotatedTorsions>
[ 6907 6896 6895 6894 ] final  -28.33 input  -60.11 | X-H torsion
[ 7974 7965 7964 7962 ] final -108.57 input  175.53 | X-H torsion
[ 8008 7997 7996 7995 ] final  146.99 input   59.86 | X-H torsion
[ 10167 10162 10161 10158 ] final  108.35 input  -65.29 | X-H torsion
[ 10718 10713 10712 10709 ] final  105.30 input   66.30 | X-H torsion
[ 10763 10752 10751 10750 ] final   64.42 input  -60.55 | X-H torsion
[ 11005 11000 10999 10996 ] final   20.07 input  -57.11 | X-H torsion

> <Gold.Protein.ActiveResidues>
 VAL166  LYS551  ARG553  GLY616  TRP617  ASP618  TYR619  PRO620  LYS621  CYS622 
 ASP623  PHE694  ASN695  SER759  ASP760  ASP761  ALA762  ILE779  LEU786  VAL792 
 PHE793  MET794  SER795  GLU796  ALA797  LYS798  CYS799  TRP800  GLU811  SER814 

> <Gold.Protein.RotatedAtoms>
  151.1345  135.0147  159.8597 H   0  0  0  0  0  0  0  0  0  0  0  0  # atno 6907 bound_to 6896
  152.5451  134.1571  159.8553 H   0  0  0  0  0  0  0  0  0  0  0  0  # atno 6908 bound_to 6896
  151.1641  133.4781  159.2627 H   0  0  0  0  0  0  0  0  0  0  0  0  # atno 6909 bound_to 6896
  145.1912  140.9015  143.3423 H   0  0  0  0  0  0  0  0  0  0  0  0  # atno 7974 bound_to 7965
  156.2838  140.2167  156.5466 H   0  0  0  0  0  0  0  0  0  0  0  0  # atno 8008 bound_to 7997
  154.7325  140.0494  157.0762 H   0  0  0  0  0  0  0  0  0  0  0  0  # atno 8009 bound_to 7997
  155.0335  140.3137  155.4753 H   0  0  0  0  0  0  0  0  0  0  0  0  # atno 8010 bound_to 7997
  139.6853  144.7114  151.1443 H   0  0  0  0  0  0  0  0  0  0  0  0  # atno 10167 bound_to 10162
  157.6710  131.0824  150.5836 H   0  0  0  0  0  0  0  0  0  0  0  0  # atno 10718 bound_to 10713
  153.0055  135.5393  154.6508 H   0  0  0  0  0  0  0  0  0  0  0  0  # atno 10763 bound_to 10752
  154.5740  135.2844  155.0801 H   0  0  0  0  0  0  0  0  0  0  0  0  # atno 10764 bound_to 10752
  154.1956  135.6493  153.5125 H   0  0  0  0  0  0  0  0  0  0  0  0  # atno 10765 bound_to 10752
  140.4067  134.1661  155.7665 H   0  0  0  0  0  0  0  0  0  0  0  0  # atno 11005 bound_to 11000
  145.0039  139.3572  143.6153 LP  0  0  0  0  0  0  0  0  0  0  0  0  # atno 17320 bound_to 7965
  146.3436  139.9274  142.8758 LP  0  0  0  0  0  0  0  0  0  0  0  0  # atno 17321 bound_to 7965
  140.7665  143.5638  150.9069 LP  0  0  0  0  0  0  0  0  0  0  0  0  # atno 17342 bound_to 10162
  139.9313  143.6490  152.3075 LP  0  0  0  0  0  0  0  0  0  0  0  0  # atno 17343 bound_to 10162
  156.6137  130.4387  149.5849 LP  0  0  0  0  0  0  0  0  0  0  0  0  # atno 17370 bound_to 10713
  156.2410  130.6851  151.1556 LP  0  0  0  0  0  0  0  0  0  0  0  0  # atno 17371 bound_to 10713
  141.1836  133.8360  157.1167 LP  0  0  0  0  0  0  0  0  0  0  0  0  # atno 17394 bound_to 11000
  140.0297  134.9907  157.0756 LP  0  0  0  0  0  0  0  0  0  0  0  0  # atno 17395 bound_to 11000

$$$$
