AV-unprocessed.smi:1765|AV-procd|sdf|7134|dock4
  -GOLD-   22720 8373D 1   1.00000     0.00000
 Structure written by MMmdl.
 39 40  0  0  0  0  0  0  0  0  1 V2000
  146.3433  138.5251  151.9077 C   0  0  0  0  0  0  0  0  0  0  0  0
  147.5607  138.6658  152.6923 N   0  0  0  0  0  0  0  0  0  0  0  0
  147.8515  139.7274  153.4623 C   0  0  0  0  0  0  0  0  0  0  0  0
  147.0838  140.6865  153.5580 O   0  0  0  0  0  0  0  0  0  0  0  0
  149.1382  139.6219  154.1550 C   0  0  0  0  0  0  0  0  0  0  0  0
  150.0499  138.5018  153.9741 C   0  0  0  0  0  0  0  0  0  0  0  0
  151.2236  138.4598  154.6347 C   0  0  0  0  0  0  0  0  0  0  0  0
  151.6303  139.5255  155.5548 C   0  0  0  0  0  0  0  0  0  0  0  0
  152.7023  139.4922  156.1597 O   0  0  0  0  0  0  0  0  0  0  0  0
  150.7437  140.5566  155.6994 N   0  0  0  0  0  0  0  0  0  0  0  0
  151.0429  141.6837  156.5987 C   0  0  0  0  0  0  0  0  0  0  0  0
  151.0452  141.2893  158.0822 C   0  0  0  0  0  0  0  0  0  0  0  0
  150.0189  140.8807  158.6270 O   0  0  0  0  0  0  0  0  0  0  0  0
  152.2222  141.3974  158.7169 N   0  0  0  0  0  0  0  0  0  0  0  0
  152.4549  141.0753  160.1222 C   0  0  0  0  0  0  0  0  0  0  0  0
  152.8743  142.3321  160.9097 C   0  0  0  0  0  0  0  0  0  0  0  0
  154.1250  141.9417  161.6991 C   0  0  0  0  0  0  0  0  0  0  0  0
  154.7831  140.8557  160.8543 C   0  0  0  0  0  0  0  0  0  0  0  0
  153.6066  140.0637  160.2841 C   0  0  0  0  0  0  0  0  0  0  0  0
  149.5192  140.5969  155.0037 C   0  0  0  0  0  0  0  0  0  0  0  0
  146.3416  137.5639  151.3937 H   0  0  0  0  0  0  0  0  0  0  0  0
  146.2716  139.3134  151.1573 H   0  0  0  0  0  0  0  0  0  0  0  0
  145.4611  138.5707  152.5474 H   0  0  0  0  0  0  0  0  0  0  0  0
  148.2258  137.9075  152.6518 H   0  0  0  0  0  0  0  0  0  0  0  0
  149.8114  137.6840  153.3103 H   0  0  0  0  0  0  0  0  0  0  0  0
  151.8844  137.6188  154.4835 H   0  0  0  0  0  0  0  0  0  0  0  0
  152.0161  142.1164  156.3633 H   0  0  0  0  0  0  0  0  0  0  0  0
  150.3269  142.4918  156.4357 H   0  0  0  0  0  0  0  0  0  0  0  0
  153.0150  141.7338  158.1897 H   0  0  0  0  0  0  0  0  0  0  0  0
  151.5439  140.6623  160.5600 H   0  0  0  0  0  0  0  0  0  0  0  0
  153.1230  143.1490  160.2303 H   0  0  0  0  0  0  0  0  0  0  0  0
  152.0792  142.6908  161.5639 H   0  0  0  0  0  0  0  0  0  0  0  0
  154.7855  142.7891  161.8851 H   0  0  0  0  0  0  0  0  0  0  0  0
  153.8346  141.5272  162.6654 H   0  0  0  0  0  0  0  0  0  0  0  0
  155.3475  141.3136  160.0410 H   0  0  0  0  0  0  0  0  0  0  0  0
  155.4697  140.2333  161.4288 H   0  0  0  0  0  0  0  0  0  0  0  0
  153.3100  139.2966  161.0006 H   0  0  0  0  0  0  0  0  0  0  0  0
  153.8699  139.5500  159.3587 H   0  0  0  0  0  0  0  0  0  0  0  0
  148.9214  141.4748  155.2058 H   0  0  0  0  0  0  0  0  0  0  0  0
  1  2  1  0  0  0  0
  1 21  1  0  0  0  0
  1 22  1  0  0  0  0
  1 23  1  0  0  0  0
  2  3  1  0  0  0  0
  2 24  1  0  0  0  0
  3  4  2  0  0  0  0
  3  5  1  0  0  0  0
  5 20  2  0  0  0  0
  5  6  1  0  0  0  0
  6  7  2  0  0  0  0
  6 25  1  0  0  0  0
  7  8  1  0  0  0  0
  7 26  1  0  0  0  0
  8  9  2  0  0  0  0
  8 10  1  0  0  0  0
 10 11  1  0  0  0  0
 10 20  1  0  0  0  0
 11 12  1  0  0  0  0
 11 27  1  0  0  0  0
 11 28  1  0  0  0  0
 12 13  2  0  0  0  0
 12 14  1  0  0  0  0
 14 15  1  0  0  0  0
 14 29  1  0  0  0  0
 15 19  1  0  0  0  0
 15 16  1  0  0  0  0
 15 30  1  0  0  0  0
 16 17  1  0  0  0  0
 16 31  1  0  0  0  0
 16 32  1  0  0  0  0
 17 18  1  0  0  0  0
 17 33  1  0  0  0  0
 17 34  1  0  0  0  0
 18 19  1  0  0  0  0
 18 35  1  0  0  0  0
 18 36  1  0  0  0  0
 19 37  1  0  0  0  0
 19 38  1  0  0  0  0
 20 39  1  0  0  0  0
M  END
> <s_m_source_file>
AV-unprocessed.smi

> <i_m_source_file_index>
1765

> <i_lp_mmshare_version>
43012

> <i_f3d_flags>
0

> <s_epik_input>
W0NIM11bTkhdQyg9TyljMVtjSF1bY0hdYyg9TyluKFtjSF0xKVtDSDJdQyg9TylbTkhdW0NIXTJbQ0gyXVtDSDJdW0NIMl1bQ0gyXTI=

> <s_epik_cmdline>
J2VwaWtfcHl0aG9uJywgJy1waCcsICc3LjAnLCAnLXRuJywgJzgnLCAnLW1hJywgJzIwMCcsICctbWV0YWxfYmluZGluZycsICctaW1hZScsICc8aW5maWxlLm1hZT4nLCAnLW9tYWUnLCAnPG91dGZpbGUubWFlPic=

> <r_lp_tautomer_probability>
1

> <r_epik_Ionization_Penalty>
3.69544e-07

> <r_epik_Ionization_Penalty_Charging>
4.98828e-08

> <r_epik_Ionization_Penalty_Neutral>
3.19661e-07

> <r_epik_State_Penalty>
-0

> <r_epik_Charging_Adjusted_Penalty>
4.98828e-08

> <i_epik_Tot_Q>
0

> <i_epik_Tot_abs_Q>
0

> <r_epik_Metal_State_Penalty>
-0

> <b_epik_Metal_Only>
0

> <s_lp_Force_Field>
OPLS_2005

> <r_lp_Energy>
30.5558

> <b_lp_Chiralities_Consistent>
1

> <s_lp_Variant>
AV-unprocessed.smi:1765-1

> <Gold.Version>
5.8.1

> <Gold.Id.Protein>
6NUR|6NUR_protein|mol2

> <Gold.PLP.Fitness>
45.4810

> <Gold.PLP.PLP>
-39.6792

> <Gold.PLP.part.hbond>
-3.0000

> <Gold.PLP.part.metal>
0.0000

> <Gold.PLP.part.buried>
4.5050

> <Gold.PLP.part.nonpolar>
-41.3413

> <Gold.PLP.part.repulsive>
0.3440

> <Gold.PLP.ligand.clash>
0.0000

> <Gold.PLP.ligand.torsion>
0.1035

> <Gold.PLP.Chemscore.Hbond>
2.0000

> <Gold.PLP.Chemscore.CHOScore>
0.0000

> <Gold.PLP.Chemscore.Metal>
0.0000

> <Gold.Chemscore.Hbonds>
donor molecule, donor type, donor heavy atom, donor atom, acceptor molecule, acceptor atom, score
      L1  H     2    24       P1  7948  1.00
      P1  H  7997  8008       L1     9  1.00

> <Gold.PLP.Chemscore.Internal.Correction>
0.0087

> <Gold.Rescore>
     Score         DG    S(hbond)    S(metal)    S(lipo)     H(rot)  DE(clash)    DE(int)     intcor
     15.81     -18.65       1.85        0.00      93.26       1.52       2.73       0.11       ----

> <Gold.Chemscore.Fitness>
15.8093

> <Gold.Chemscore.DG>
-18.6524

> <Gold.Chemscore.ZeroCoef>
-5.4800

> <Gold.Chemscore.Hbond>
1.8459

> <Gold.Chemscore.Metal>
0.0000

> <Gold.Chemscore.Lipo>
93.2568

> <Gold.Chemscore.Internal_Hbond>
0.0000

> <Gold.Chemscore.DEClash>
2.7286

> <Gold.Chemscore.DEInternal>
0.1145

> <Gold.Chemscore.Rot>
1.5250

> <Gold.Chemscore.Internal.Correction>
   9.000000E+99

> <Gold.Chemscore.Hbonds>
donor molecule, donor type, donor heavy atom, donor atom, acceptor molecule, acceptor atom, score
      L1  H     2    24       P1  7948  0.95
      P1  H  7997  8008       L1     9  0.98

> <Gold.Chemscore.Hbond.Weighted>
-6.1653

> <Gold.Chemscore.Metal.Weighted>
-0.0000

> <Gold.Chemscore.Lipo.Weighted>
-10.9110

> <Gold.Chemscore.Internal_Hbond.Weighted>
0.0000

> <Gold.Chemscore.DEClash.Weighted>
2.7286

> <Gold.Chemscore.DEInternal.Weighted>
0.1145

> <Gold.Chemscore.Rot.Weighted>
3.9039

> <Gold.Chemscore.Internal.Correction.Weighted>
   9.000000E+99

> <Gold.Protein.RotatedTorsions>
[ 6907 6896 6895 6894 ] final -127.17 input  -60.11 | X-H torsion
[ 7974 7965 7964 7962 ] final  132.59 input  175.53 | X-H torsion
[ 8008 7997 7996 7995 ] final  -24.59 input   59.86 | X-H torsion
[ 10167 10162 10161 10158 ] final  -54.20 input  -65.29 | X-H torsion
[ 10718 10713 10712 10709 ] final -160.45 input   66.30 | X-H torsion
[ 10763 10752 10751 10750 ] final -135.11 input  -60.55 | X-H torsion
[ 11005 11000 10999 10996 ] final   58.20 input  -57.11 | X-H torsion

> <Gold.Protein.ActiveResidues>
 VAL166  LYS551  ARG553  GLY616  TRP617  ASP618  TYR619  PRO620  LYS621  CYS622 
 ASP623  PHE694  ASN695  SER759  ASP760  ASP761  ALA762  ILE779  LEU786  VAL792 
 PHE793  MET794  SER795  GLU796  ALA797  LYS798  CYS799  TRP800  GLU811  SER814 

> <Gold.Protein.RotatedAtoms>
  150.9045  133.7076  159.2870 H   0  0  0  0  0  0  0  0  0  0  0  0  # atno 6907 bound_to 6896
  151.4584  135.1035  159.9727 H   0  0  0  0  0  0  0  0  0  0  0  0  # atno 6908 bound_to 6896
  152.4895  133.8414  159.7209 H   0  0  0  0  0  0  0  0  0  0  0  0  # atno 6909 bound_to 6896
  144.9952  139.4366  143.5319 H   0  0  0  0  0  0  0  0  0  0  0  0  # atno 7974 bound_to 7965
  154.4521  140.1949  156.0488 H   0  0  0  0  0  0  0  0  0  0  0  0  # atno 8008 bound_to 7997
  156.0670  140.3289  155.7502 H   0  0  0  0  0  0  0  0  0  0  0  0  # atno 8009 bound_to 7997
  155.5323  140.0579  157.2877 H   0  0  0  0  0  0  0  0  0  0  0  0  # atno 8010 bound_to 7997
  140.6444  143.2526  151.4901 H   0  0  0  0  0  0  0  0  0  0  0  0  # atno 10167 bound_to 10162
  156.5823  130.8735  151.2868 H   0  0  0  0  0  0  0  0  0  0  0  0  # atno 10718 bound_to 10713
  154.8708  135.3713  154.4845 H   0  0  0  0  0  0  0  0  0  0  0  0  # atno 10763 bound_to 10752
  153.5496  135.7025  153.5602 H   0  0  0  0  0  0  0  0  0  0  0  0  # atno 10764 bound_to 10752
  153.3727  135.4017  155.1764 H   0  0  0  0  0  0  0  0  0  0  0  0  # atno 10765 bound_to 10752
  140.0395  134.5894  155.9400 H   0  0  0  0  0  0  0  0  0  0  0  0  # atno 11005 bound_to 11000
  146.3440  139.9308  142.8754 LP  0  0  0  0  0  0  0  0  0  0  0  0  # atno 17320 bound_to 7965
  145.2229  140.9942  143.4035 LP  0  0  0  0  0  0  0  0  0  0  0  0  # atno 17321 bound_to 7965
  139.5654  144.2056  152.1756 LP  0  0  0  0  0  0  0  0  0  0  0  0  # atno 17342 bound_to 10162
  140.1336  144.5266  150.6787 LP  0  0  0  0  0  0  0  0  0  0  0  0  # atno 17343 bound_to 10162
  157.7323  130.9714  150.1924 LP  0  0  0  0  0  0  0  0  0  0  0  0  # atno 17370 bound_to 10713
  156.2621  130.3712  149.8120 LP  0  0  0  0  0  0  0  0  0  0  0  0  # atno 17371 bound_to 10713
  141.1875  133.6560  156.5286 LP  0  0  0  0  0  0  0  0  0  0  0  0  # atno 17394 bound_to 11000
  140.4092  134.7287  157.4826 LP  0  0  0  0  0  0  0  0  0  0  0  0  # atno 17395 bound_to 11000

$$$$
