AV-unprocessed.smi:679|AV-procd|sdf|3321|dock6
  -GOLD-   22720 0293D 1   1.00000     0.00000
 Structure written by MMmdl.
 41 43  0  0  0  0  0  0  0  0  1 V2000
  153.5581  141.9505  160.5739 C   0  0  0  0  0  0  0  0  0  0  0  0
  152.1400  142.5198  160.4944 C   0  0  0  0  0  0  0  0  0  0  0  0
  151.3692  141.7046  159.6290 O   0  0  0  0  0  0  0  0  0  0  0  0
  151.7287  141.8510  158.2643 C   0  0  2  0  0  0  0  0  0  0  0  0
  150.9554  142.9392  157.5130 C   0  0  0  0  0  0  0  0  0  0  0  0
  150.9733  141.9778  156.3230 C   0  0  2  0  0  0  0  0  0  0  0  0
  149.7366  142.0173  155.5539 N   0  0  0  0  0  0  0  0  0  0  0  0
  149.3083  141.0298  154.7544 C   0  0  0  0  0  0  0  0  0  0  0  0
  149.9684  140.0218  154.5041 O   0  0  0  0  0  0  0  0  0  0  0  0
  147.9029  141.1884  154.1771 C   0  0  0  0  0  0  0  0  0  0  0  0
  146.9798  141.6185  155.2106 N   0  0  0  0  0  0  0  0  0  0  0  0
  145.6529  141.7628  155.1957 C   0  0  0  0  0  0  0  0  0  0  0  0
  145.1905  142.1503  156.3746 N   0  0  0  0  0  0  0  0  0  0  0  0
  146.3362  142.2432  157.1474 N   0  0  0  0  0  0  0  0  0  0  0  0
  147.4011  141.9286  156.4623 N   0  0  0  0  0  0  0  0  0  0  0  0
  151.0622  140.8058  157.3351 C   0  0  0  0  0  0  0  0  0  0  0  0
  151.8971  139.5861  156.9581 C   0  0  0  0  0  0  0  0  0  0  0  0
  151.5253  138.4575  157.9276 C   0  0  0  0  0  0  0  0  0  0  0  0
  150.1914  138.8650  158.5615 C   0  0  0  0  0  0  0  0  0  0  0  0
  149.7708  140.1430  157.8357 C   0  0  0  0  0  0  0  0  0  0  0  0
  154.1845  142.5545  161.2303 H   0  0  0  0  0  0  0  0  0  0  0  0
  154.0264  141.9301  159.5895 H   0  0  0  0  0  0  0  0  0  0  0  0
  153.5493  140.9320  160.9625 H   0  0  0  0  0  0  0  0  0  0  0  0
  151.6939  142.5460  161.4895 H   0  0  0  0  0  0  0  0  0  0  0  0
  152.1702  143.5434  160.1179 H   0  0  0  0  0  0  0  0  0  0  0  0
  152.8082  141.9167  158.1078 H   0  0  0  0  0  0  0  0  0  0  0  0
  149.9593  143.1188  157.9226 H   0  0  0  0  0  0  0  0  0  0  0  0
  151.5061  143.8676  157.3605 H   0  0  0  0  0  0  0  0  0  0  0  0
  151.8809  142.0889  155.7244 H   0  0  0  0  0  0  0  0  0  0  0  0
  149.1296  142.8109  155.7012 H   0  0  0  0  0  0  0  0  0  0  0  0
  147.9069  141.9145  153.3627 H   0  0  0  0  0  0  0  0  0  0  0  0
  147.5547  140.2397  153.7667 H   0  0  0  0  0  0  0  0  0  0  0  0
  145.0313  141.5756  154.3322 H   0  0  0  0  0  0  0  0  0  0  0  0
  151.6617  139.2779  155.9388 H   0  0  0  0  0  0  0  0  0  0  0  0
  152.9677  139.7913  156.9823 H   0  0  0  0  0  0  0  0  0  0  0  0
  151.4485  137.5034  157.4051 H   0  0  0  0  0  0  0  0  0  0  0  0
  152.2871  138.3477  158.7004 H   0  0  0  0  0  0  0  0  0  0  0  0
  149.4361  138.0830  158.4792 H   0  0  0  0  0  0  0  0  0  0  0  0
  150.3374  139.0716  159.6225 H   0  0  0  0  0  0  0  0  0  0  0  0
  149.1774  140.7931  158.4796 H   0  0  0  0  0  0  0  0  0  0  0  0
  149.1316  139.8646  156.9974 H   0  0  0  0  0  0  0  0  0  0  0  0
  1  2  1  0  0  0  0
  1 21  1  0  0  0  0
  1 22  1  0  0  0  0
  1 23  1  0  0  0  0
  2  3  1  0  0  0  0
  2 24  1  0  0  0  0
  2 25  1  0  0  0  0
  3  4  1  0  0  0  0
  4 16  1  0  0  0  0
  4  5  1  0  0  0  0
  4 26  1  0  0  0  0
  5  6  1  0  0  0  0
  5 27  1  0  0  0  0
  5 28  1  0  0  0  0
  6  7  1  0  0  0  0
  6 16  1  0  0  0  0
  6 29  1  0  0  0  0
  7  8  1  0  0  0  0
  7 30  1  0  0  0  0
  8  9  2  0  0  0  0
  8 10  1  0  0  0  0
 10 11  1  0  0  0  0
 10 31  1  0  0  0  0
 10 32  1  0  0  0  0
 11 15  1  0  0  0  0
 11 12  1  0  0  0  0
 12 13  2  0  0  0  0
 12 33  1  0  0  0  0
 13 14  1  0  0  0  0
 14 15  2  0  0  0  0
 16 20  1  0  0  0  0
 16 17  1  0  0  0  0
 17 18  1  0  0  0  0
 17 34  1  0  0  0  0
 17 35  1  0  0  0  0
 18 19  1  0  0  0  0
 18 36  1  0  0  0  0
 18 37  1  0  0  0  0
 19 20  1  0  0  0  0
 19 38  1  0  0  0  0
 19 39  1  0  0  0  0
 20 40  1  0  0  0  0
 20 41  1  0  0  0  0
M  END
> <s_m_source_file>
AV-unprocessed.smi

> <i_m_source_file_index>
679

> <i_lp_mmshare_version>
43012

> <i_f3d_flags>
0

> <s_epik_input>
W0NIMl0xW0NIMl1bQ0gyXVtDSDJdQzEyW0NASF0oT1tDSDJdW0NIM10pW0NIMl1bQ0BIXTJbTkhdQyg9TylbQ0gyXW4zW2NIXW5ubjM=

> <s_epik_cmdline>
J2VwaWtfcHl0aG9uJywgJy1waCcsICc3LjAnLCAnLXRuJywgJzgnLCAnLW1hJywgJzIwMCcsICctbWV0YWxfYmluZGluZycsICctaW1hZScsICc8aW5maWxlLm1hZT4nLCAnLW9tYWUnLCAnPG91dGZpbGUubWFlPic=

> <r_lp_tautomer_probability>
1

> <r_epik_Ionization_Penalty>
7.96741e-07

> <r_epik_Ionization_Penalty_Charging>
0

> <r_epik_Ionization_Penalty_Neutral>
7.96741e-07

> <r_epik_State_Penalty>
-0

> <r_epik_Charging_Adjusted_Penalty>
0

> <i_epik_Tot_Q>
0

> <i_epik_Tot_abs_Q>
0

> <r_epik_Metal_State_Penalty>
-0

> <b_epik_Metal_Only>
0

> <s_lp_Force_Field>
OPLS_2005

> <r_lp_Energy>
37

> <b_lp_Chiralities_Consistent>
1

> <s_lp_Variant>
AV-unprocessed.smi:679-3

> <Gold.Version>
5.8.1

> <Gold.Id.Protein>
6NUR|6NUR_protein|mol2

> <Gold.PLP.Fitness>
41.9521

> <Gold.PLP.PLP>
-33.8082

> <Gold.PLP.part.hbond>
-2.4154

> <Gold.PLP.part.metal>
0.0000

> <Gold.PLP.part.buried>
-5.2388

> <Gold.PLP.part.nonpolar>
-26.0735

> <Gold.PLP.part.repulsive>
0.7456

> <Gold.PLP.ligand.clash>
0.0000

> <Gold.PLP.ligand.torsion>
0.6064

> <Gold.PLP.Chemscore.Hbond>
2.0000

> <Gold.PLP.Chemscore.CHOScore>
1.0000

> <Gold.PLP.Chemscore.Metal>
0.0000

> <Gold.Chemscore.Hbonds>
donor molecule, donor type, donor heavy atom, donor atom, acceptor molecule, acceptor atom, score
      L1  H     7    30       P1  8028  0.98
      P1  H  7989  7998       L1     9  0.80
      L1  C    12    33       P1 10175  1.00

> <Gold.PLP.Chemscore.Internal.Correction>
0.3567

> <Gold.Rescore>
     Score         DG    S(hbond)    S(metal)    S(lipo)     H(rot)  DE(clash)    DE(int)     intcor
     11.54     -13.93       1.64        0.00      78.07       2.41       0.39       2.01       ----

> <Gold.Chemscore.Fitness>
11.5376

> <Gold.Chemscore.DG>
-13.9330

> <Gold.Chemscore.ZeroCoef>
-5.4800

> <Gold.Chemscore.Hbond>
1.6424

> <Gold.Chemscore.Metal>
0.0000

> <Gold.Chemscore.Lipo>
78.0691

> <Gold.Chemscore.Internal_Hbond>
0.0000

> <Gold.Chemscore.DEClash>
0.3874

> <Gold.Chemscore.DEInternal>
2.0080

> <Gold.Chemscore.Rot>
2.4089

> <Gold.Chemscore.Internal.Correction>
   9.000000E+99

> <Gold.Chemscore.Hbonds>
donor molecule, donor type, donor heavy atom, donor atom, acceptor molecule, acceptor atom, score
      L1  H     7    30       P1  8028  0.93
      P1  H  7989  7998       L1     9  0.23

> <Gold.Chemscore.Hbond.Weighted>
-5.4858

> <Gold.Chemscore.Metal.Weighted>
-0.0000

> <Gold.Chemscore.Lipo.Weighted>
-9.1341

> <Gold.Chemscore.Internal_Hbond.Weighted>
0.0000

> <Gold.Chemscore.DEClash.Weighted>
0.3874

> <Gold.Chemscore.DEInternal.Weighted>
2.0080

> <Gold.Chemscore.Rot.Weighted>
6.1668

> <Gold.Chemscore.Internal.Correction.Weighted>
   9.000000E+99

> <Gold.Protein.RotatedTorsions>
[ 6907 6896 6895 6894 ] final   83.43 input  -60.11 | X-H torsion
[ 7974 7965 7964 7962 ] final -155.55 input  175.53 | X-H torsion
[ 8008 7997 7996 7995 ] final   36.15 input   59.86 | X-H torsion
[ 10167 10162 10161 10158 ] final -151.71 input  -65.29 | X-H torsion
[ 10718 10713 10712 10709 ] final   30.93 input   66.30 | X-H torsion
[ 10763 10752 10751 10750 ] final  -23.23 input  -60.55 | X-H torsion
[ 11005 11000 10999 10996 ] final   35.87 input  -57.11 | X-H torsion

> <Gold.Protein.ActiveResidues>
 VAL166  LYS551  ARG553  GLY616  TRP617  ASP618  TYR619  PRO620  LYS621  CYS622 
 ASP623  PHE694  ASN695  SER759  ASP760  ASP761  ALA762  ILE779  LEU786  VAL792 
 PHE793  MET794  SER795  GLU796  ALA797  LYS798  CYS799  TRP800  GLU811  SER814 

> <Gold.Protein.RotatedAtoms>
  152.5327  134.2897  159.9038 H   0  0  0  0  0  0  0  0  0  0  0  0  # atno 6907 bound_to 6896
  151.2849  133.4186  159.2637 H   0  0  0  0  0  0  0  0  0  0  0  0  # atno 6908 bound_to 6896
  151.0251  134.9513  159.8137 H   0  0  0  0  0  0  0  0  0  0  0  0  # atno 6909 bound_to 6896
  144.7635  140.4234  143.5959 H   0  0  0  0  0  0  0  0  0  0  0  0  # atno 7974 bound_to 7965
  155.1827  140.3301  155.4372 H   0  0  0  0  0  0  0  0  0  0  0  0  # atno 8008 bound_to 7997
  156.2471  140.1924  156.6875 H   0  0  0  0  0  0  0  0  0  0  0  0  # atno 8009 bound_to 7997
  154.6260  140.0589  156.9659 H   0  0  0  0  0  0  0  0  0  0  0  0  # atno 8010 bound_to 7997
  139.7244  143.8906  152.2514 H   0  0  0  0  0  0  0  0  0  0  0  0  # atno 10167 bound_to 10162
  157.2659  130.7184  149.6478 H   0  0  0  0  0  0  0  0  0  0  0  0  # atno 10718 bound_to 10713
  153.6645  135.6975  153.5167 H   0  0  0  0  0  0  0  0  0  0  0  0  # atno 10763 bound_to 10752
  153.2606  135.4246  155.0889 H   0  0  0  0  0  0  0  0  0  0  0  0  # atno 10764 bound_to 10752
  154.8443  135.3554  154.6190 H   0  0  0  0  0  0  0  0  0  0  0  0  # atno 10765 bound_to 10752
  140.2382  134.3446  155.7936 H   0  0  0  0  0  0  0  0  0  0  0  0  # atno 11005 bound_to 11000
  145.6544  139.1570  143.2844 LP  0  0  0  0  0  0  0  0  0  0  0  0  # atno 17320 bound_to 7965
  146.1721  140.6630  142.9228 LP  0  0  0  0  0  0  0  0  0  0  0  0  # atno 17321 bound_to 7965
  139.8811  144.7017  150.8876 LP  0  0  0  0  0  0  0  0  0  0  0  0  # atno 17342 bound_to 10162
  140.7760  143.3660  151.1738 LP  0  0  0  0  0  0  0  0  0  0  0  0  # atno 17343 bound_to 10162
  155.9663  130.4383  150.5210 LP  0  0  0  0  0  0  0  0  0  0  0  0  # atno 17370 bound_to 10713
  157.3124  131.0666  151.1991 LP  0  0  0  0  0  0  0  0  0  0  0  0  # atno 17371 bound_to 10713
  141.2212  133.7284  156.8843 LP  0  0  0  0  0  0  0  0  0  0  0  0  # atno 17394 bound_to 11000
  140.1680  134.9120  157.2798 LP  0  0  0  0  0  0  0  0  0  0  0  0  # atno 17395 bound_to 11000

$$$$
