AV-unprocessed.smi:3134|AV-procd|sdf|11942|dock2
  -GOLD-   2272017333D 1   1.00000     0.00000
 Structure written by MMmdl.
 37 37  0  0  0  0  0  0  0  0  2 V2000
  149.4777  140.3382  154.6031 C   0  0  0  0  0  0  0  0  0  0  0  0
  149.4032  138.8039  154.5464 C   0  0  0  0  0  0  0  0  0  0  0  0
  150.7538  138.1838  154.1653 C   0  0  0  0  0  0  0  0  0  0  0  0
  148.3856  138.3780  153.5898 N   0  0  0  0  0  0  0  0  0  0  0  0
  147.0686  138.6071  153.7079 C   0  0  0  0  0  0  0  0  0  0  0  0
  146.5683  139.1990  154.6653 O   0  0  0  0  0  0  0  0  0  0  0  0
  146.1765  138.0843  152.5733 C   0  0  1  0  0  0  0  0  0  0  0  0
  146.5235  138.7999  151.2591 C   0  0  0  0  0  0  0  0  0  0  0  0
  146.3359  136.6230  152.4078 N   0  3  0  0  0  0  0  0  0  0  0  0
  145.5952  136.0394  151.2678 C   0  0  0  0  0  0  0  0  0  0  0  0
  144.3985  135.2046  151.7514 C   0  0  0  0  0  0  0  0  0  0  0  0
  144.2854  133.9434  151.0383 N   0  0  0  0  0  0  0  0  0  0  0  0
  145.0643  133.4699  150.0033 C   0  0  0  0  0  0  0  0  0  0  0  0
  144.5803  132.2400  149.6602 C   0  0  0  0  0  0  0  0  0  0  0  0
  143.4822  132.0491  150.5447 C   0  0  0  0  0  0  0  0  0  0  0  0
  143.3043  133.0734  151.3630 N   0  0  0  0  0  0  0  0  0  0  0  0
  150.2324  140.6661  155.3186 H   0  0  0  0  0  0  0  0  0  0  0  0
  148.5257  140.7716  154.9119 H   0  0  0  0  0  0  0  0  0  0  0  0
  149.7361  140.7601  153.6313 H   0  0  0  0  0  0  0  0  0  0  0  0
  149.1371  138.4329  155.5378 H   0  0  0  0  0  0  0  0  0  0  0  0
  151.5270  138.4600  154.8827 H   0  0  0  0  0  0  0  0  0  0  0  0
  151.0814  138.5166  153.1797 H   0  0  0  0  0  0  0  0  0  0  0  0
  150.6959  137.0949  154.1481 H   0  0  0  0  0  0  0  0  0  0  0  0
  148.7111  137.8780  152.7750 H   0  0  0  0  0  0  0  0  0  0  0  0
  145.1309  138.2918  152.8090 H   0  0  0  0  0  0  0  0  0  0  0  0
  146.3898  139.8789  151.3482 H   0  0  0  0  0  0  0  0  0  0  0  0
  145.8808  138.4592  150.4468 H   0  0  0  0  0  0  0  0  0  0  0  0
  147.5572  138.6163  150.9622 H   0  0  0  0  0  0  0  0  0  0  0  0
  147.3156  136.4110  152.2861 H   0  0  0  0  0  0  0  0  0  0  0  0
  145.2451  136.8253  150.5971 H   0  0  0  0  0  0  0  0  0  0  0  0
  146.2789  135.4194  150.6870 H   0  0  0  0  0  0  0  0  0  0  0  0
  144.4997  134.9858  152.8151 H   0  0  0  0  0  0  0  0  0  0  0  0
  143.4695  135.7637  151.6314 H   0  0  0  0  0  0  0  0  0  0  0  0
  145.8920  134.0371  149.6037 H   0  0  0  0  0  0  0  0  0  0  0  0
  144.9518  131.5780  148.8922 H   0  0  0  0  0  0  0  0  0  0  0  0
  142.8134  131.2040  150.6149 H   0  0  0  0  0  0  0  0  0  0  0  0
  146.0133  136.1862  153.2601 H   0  0  0  0  0  0  0  0  0  0  0  0
  1  2  1  0  0  0  0
  1 17  1  0  0  0  0
  1 18  1  0  0  0  0
  1 19  1  0  0  0  0
  2  3  1  0  0  0  0
  2  4  1  0  0  0  0
  2 20  1  0  0  0  0
  3 21  1  0  0  0  0
  3 22  1  0  0  0  0
  3 23  1  0  0  0  0
  4  5  1  0  0  0  0
  4 24  1  0  0  0  0
  5  6  2  0  0  0  0
  5  7  1  0  0  0  0
  7  8  1  0  0  0  0
  7  9  1  0  0  0  0
  7 25  1  0  0  0  0
  8 26  1  0  0  0  0
  8 27  1  0  0  0  0
  8 28  1  0  0  0  0
  9 10  1  0  0  0  0
  9 29  1  0  0  0  0
  9 37  1  0  0  0  0
 10 11  1  0  0  0  0
 10 30  1  0  0  0  0
 10 31  1  0  0  0  0
 11 12  1  0  0  0  0
 11 32  1  0  0  0  0
 11 33  1  0  0  0  0
 12 16  1  0  0  0  0
 12 13  1  0  0  0  0
 13 14  2  0  0  0  0
 13 34  1  0  0  0  0
 14 15  1  0  0  0  0
 14 35  1  0  0  0  0
 15 16  2  0  0  0  0
 15 36  1  0  0  0  0
M  CHG  1   9   1
M  END
> <s_m_source_file>
AV-unprocessed.smi

> <i_m_source_file_index>
3134

> <i_lp_mmshare_version>
43012

> <i_f3d_flags>
0

> <s_epik_input>
W0NIM11bQ0hdKFtDSDNdKVtOSF1DKD1PKVtDQEhdKFtDSDNdKVtOSF1bQ0gyXVtDSDJdbjFbY0hdW2NIXVtjSF1uMQ==

> <s_epik_cmdline>
J2VwaWtfcHl0aG9uJywgJy1waCcsICc3LjAnLCAnLXRuJywgJzgnLCAnLW1hJywgJzIwMCcsICctbWV0YWxfYmluZGluZycsICctaW1hZScsICc8aW5maWxlLm1hZT4nLCAnLW9tYWUnLCAnPG91dGZpbGUubWFlPic=

> <r_lp_tautomer_probability>
1

> <r_epik_Ionization_Penalty>
0.20398

> <r_epik_Ionization_Penalty_Charging>
0.203977

> <r_epik_Ionization_Penalty_Neutral>
3.23345e-06

> <r_epik_State_Penalty>
0.193898

> <r_epik_Charging_Adjusted_Penalty>
0.397875

> <i_epik_Tot_Q>
1

> <i_epik_Tot_abs_Q>
1

> <r_epik_Metal_State_Penalty>
0.194184

> <b_epik_Metal_Only>
0

> <s_lp_Force_Field>
OPLS_2005

> <r_lp_Energy>
4.47428

> <b_lp_Chiralities_Consistent>
1

> <s_lp_Variant>
AV-unprocessed.smi:3134-2

> <Gold.Version>
5.8.1

> <Gold.Id.Protein>
6NUR|6NUR_protein|mol2

> <Gold.PLP.Fitness>
45.7083

> <Gold.PLP.PLP>
-31.9920

> <Gold.PLP.part.hbond>
-2.6556

> <Gold.PLP.part.metal>
0.0000

> <Gold.PLP.part.buried>
-1.5916

> <Gold.PLP.part.nonpolar>
-29.8481

> <Gold.PLP.part.repulsive>
0.3839

> <Gold.PLP.ligand.clash>
0.0000

> <Gold.PLP.ligand.torsion>
0.7311

> <Gold.PLP.Chemscore.Hbond>
3.0000

> <Gold.PLP.Chemscore.CHOScore>
1.9888

> <Gold.PLP.Chemscore.Metal>
0.0000

> <Gold.Chemscore.Hbonds>
donor molecule, donor type, donor heavy atom, donor atom, acceptor molecule, acceptor atom, score
      L1  H     4    24       P1  7948  1.00
      L1  H     9    29       P1  7948  2.00
      L1  C    13    34       P1  7921  0.98
      L1  C    15    36       P1 10952  1.00

> <Gold.PLP.Chemscore.Internal.Correction>
0.2122

> <Gold.Rescore>
     Score         DG    S(hbond)    S(metal)    S(lipo)     H(rot)  DE(clash)    DE(int)     intcor
     15.02     -15.84       1.99        0.00      78.51       2.13       0.11       0.71       ----

> <Gold.Chemscore.Fitness>
15.0221

> <Gold.Chemscore.DG>
-15.8389

> <Gold.Chemscore.ZeroCoef>
-5.4800

> <Gold.Chemscore.Hbond>
1.9865

> <Gold.Chemscore.Metal>
0.0000

> <Gold.Chemscore.Lipo>
78.5084

> <Gold.Chemscore.Internal_Hbond>
0.0000

> <Gold.Chemscore.DEClash>
0.1057

> <Gold.Chemscore.DEInternal>
0.7110

> <Gold.Chemscore.Rot>
2.1334

> <Gold.Chemscore.Internal.Correction>
   9.000000E+99

> <Gold.Chemscore.Hbonds>
donor molecule, donor type, donor heavy atom, donor atom, acceptor molecule, acceptor atom, score
      L1  H     4    24       P1  7948  0.95
      L1  H     9    29       P1  7948  1.00

> <Gold.Chemscore.Hbond.Weighted>
-6.6349

> <Gold.Chemscore.Metal.Weighted>
-0.0000

> <Gold.Chemscore.Lipo.Weighted>
-9.1855

> <Gold.Chemscore.Internal_Hbond.Weighted>
0.0000

> <Gold.Chemscore.DEClash.Weighted>
0.1057

> <Gold.Chemscore.DEInternal.Weighted>
0.7110

> <Gold.Chemscore.Rot.Weighted>
5.4615

> <Gold.Chemscore.Internal.Correction.Weighted>
   9.000000E+99

> <Gold.Protein.RotatedTorsions>
[ 6907 6896 6895 6894 ] final  -48.85 input  -60.11 | X-H torsion
[ 7974 7965 7964 7962 ] final    4.29 input  175.53 | X-H torsion
[ 8008 7997 7996 7995 ] final  104.79 input   59.86 | X-H torsion
[ 10167 10162 10161 10158 ] final -158.03 input  -65.29 | X-H torsion
[ 10718 10713 10712 10709 ] final    9.86 input   66.30 | X-H torsion
[ 10763 10752 10751 10750 ] final   69.54 input  -60.55 | X-H torsion
[ 11005 11000 10999 10996 ] final  126.83 input  -57.11 | X-H torsion

> <Gold.Protein.ActiveResidues>
 VAL166  LYS551  ARG553  GLY616  TRP617  ASP618  TYR619  PRO620  LYS621  CYS622 
 ASP623  PHE694  ASN695  SER759  ASP760  ASP761  ALA762  ILE779  LEU786  VAL792 
 PHE793  MET794  SER795  GLU796  ALA797  LYS798  CYS799  TRP800  GLU811  SER814 

> <Gold.Protein.RotatedAtoms>
  150.8864  134.8262  159.7261 H   0  0  0  0  0  0  0  0  0  0  0  0  # atno 6907 bound_to 6896
  152.4810  134.4716  159.9647 H   0  0  0  0  0  0  0  0  0  0  0  0  # atno 6908 bound_to 6896
  151.4784  133.3513  159.2870 H   0  0  0  0  0  0  0  0  0  0  0  0  # atno 6909 bound_to 6896
  146.2444  140.0557  142.8372 H   0  0  0  0  0  0  0  0  0  0  0  0  # atno 7974 bound_to 7965
  156.1604  140.3141  155.8797 H   0  0  0  0  0  0  0  0  0  0  0  0  # atno 8008 bound_to 7997
  155.3794  140.0487  157.3061 H   0  0  0  0  0  0  0  0  0  0  0  0  # atno 8009 bound_to 7997
  154.5141  140.2175  155.9111 H   0  0  0  0  0  0  0  0  0  0  0  0  # atno 8010 bound_to 7997
  139.6724  143.9722  152.2291 H   0  0  0  0  0  0  0  0  0  0  0  0  # atno 10167 bound_to 10162
  156.9725  130.5974  149.5670 H   0  0  0  0  0  0  0  0  0  0  0  0  # atno 10718 bound_to 10713
  153.0292  135.5207  154.7303 H   0  0  0  0  0  0  0  0  0  0  0  0  # atno 10763 bound_to 10752
  154.6333  135.2903  155.0193 H   0  0  0  0  0  0  0  0  0  0  0  0  # atno 10764 bound_to 10752
  154.1137  135.6618  153.4942 H   0  0  0  0  0  0  0  0  0  0  0  0  # atno 10765 bound_to 10752
  139.9476  134.9627  156.8765 H   0  0  0  0  0  0  0  0  0  0  0  0  # atno 11005 bound_to 11000
  145.0945  140.9306  143.4749 LP  0  0  0  0  0  0  0  0  0  0  0  0  # atno 17320 bound_to 7965
  145.0737  139.3012  143.5819 LP  0  0  0  0  0  0  0  0  0  0  0  0  # atno 17321 bound_to 7965
  139.9490  144.6633  150.8191 LP  0  0  0  0  0  0  0  0  0  0  0  0  # atno 17342 bound_to 10162
  140.7623  143.3195  151.2656 LP  0  0  0  0  0  0  0  0  0  0  0  0  # atno 17343 bound_to 10162
  156.0277  130.5370  150.8451 LP  0  0  0  0  0  0  0  0  0  0  0  0  # atno 17370 bound_to 10713
  157.5583  131.0945  150.9597 LP  0  0  0  0  0  0  0  0  0  0  0  0  # atno 17371 bound_to 10713
  140.5797  134.0364  155.7459 LP  0  0  0  0  0  0  0  0  0  0  0  0  # atno 17394 bound_to 11000
  141.1131  133.9585  157.2874 LP  0  0  0  0  0  0  0  0  0  0  0  0  # atno 17395 bound_to 11000

$$$$
