AV-unprocessed.smi:2640|AV-procd|sdf|10269|dock1
  -GOLD-   2272014283D 1   1.00000     0.00000
 Structure written by MMmdl.
 42 43  0  0  0  0  0  0  0  0  2 V2000
  146.3859  139.8203  153.9235 O   0  0  0  0  0  0  0  0  0  0  0  0
  147.0131  138.9958  153.2573 C   0  0  0  0  0  0  0  0  0  0  0  0
  146.3258  138.2093  152.1403 C   0  0  0  0  0  0  0  0  0  0  0  0
  146.3535  136.7528  152.3841 N   0  3  0  0  0  0  0  0  0  0  0  0
  145.6465  135.9597  151.3604 C   0  0  0  0  0  0  0  0  0  0  0  0
  146.2720  134.5652  151.2115 C   0  0  0  0  0  0  0  0  0  0  0  0
  145.2839  133.5664  150.8512 N   0  0  0  0  0  0  0  0  0  0  0  0
  144.5123  133.4938  149.7101 C   0  0  0  0  0  0  0  0  0  0  0  0
  143.7357  132.3756  149.8155 C   0  0  0  0  0  0  0  0  0  0  0  0
  144.1114  131.8197  151.0704 C   0  0  0  0  0  0  0  0  0  0  0  0
  145.0402  132.5336  151.6866 N   0  0  0  0  0  0  0  0  0  0  0  0
  148.3115  138.7188  153.4586 N   0  0  0  0  0  0  0  0  0  0  0  0
  149.1729  139.3495  154.4622 C   0  0  1  0  0  0  0  0  0  0  0  0
  150.6272  138.9190  154.1619 C   0  0  0  0  0  0  0  0  0  0  0  0
  151.5717  139.0284  155.3713 C   0  0  0  0  0  0  0  0  0  0  0  0
  151.8099  140.4577  155.8806 C   0  0  0  0  0  0  0  0  0  0  0  0
  150.5372  141.1495  156.3979 C   0  0  0  0  0  0  0  0  0  0  0  0
  149.6953  141.6327  155.3114 N   0  0  0  0  0  0  0  0  0  0  0  0
  149.0712  140.8915  154.3835 C   0  0  0  0  0  0  0  0  0  0  0  0
  148.4303  141.4334  153.4829 O   0  0  0  0  0  0  0  0  0  0  0  0
  145.2899  138.5391  152.0468 H   0  0  0  0  0  0  0  0  0  0  0  0
  146.8276  138.4316  151.1978 H   0  0  0  0  0  0  0  0  0  0  0  0
  147.3186  136.4558  152.4162 H   0  0  0  0  0  0  0  0  0  0  0  0
  144.5956  135.8744  151.6399 H   0  0  0  0  0  0  0  0  0  0  0  0
  145.6860  136.4888  150.4073 H   0  0  0  0  0  0  0  0  0  0  0  0
  147.0477  134.5771  150.4446 H   0  0  0  0  0  0  0  0  0  0  0  0
  146.7506  134.2573  152.1424 H   0  0  0  0  0  0  0  0  0  0  0  0
  144.5779  134.2348  148.9269 H   0  0  0  0  0  0  0  0  0  0  0  0
  143.0107  132.0090  149.1038 H   0  0  0  0  0  0  0  0  0  0  0  0
  143.7405  130.9246  151.5477 H   0  0  0  0  0  0  0  0  0  0  0  0
  148.7476  138.0308  152.8618 H   0  0  0  0  0  0  0  0  0  0  0  0
  148.8752  139.0037  155.4540 H   0  0  0  0  0  0  0  0  0  0  0  0
  150.6310  137.8733  153.8502 H   0  0  0  0  0  0  0  0  0  0  0  0
  151.0329  139.4757  153.3151 H   0  0  0  0  0  0  0  0  0  0  0  0
  151.1899  138.4121  156.1861 H   0  0  0  0  0  0  0  0  0  0  0  0
  152.5346  138.5949  155.0992 H   0  0  0  0  0  0  0  0  0  0  0  0
  152.5317  140.4094  156.6967 H   0  0  0  0  0  0  0  0  0  0  0  0
  152.2787  141.0626  155.1032 H   0  0  0  0  0  0  0  0  0  0  0  0
  149.9709  140.4934  157.0601 H   0  0  0  0  0  0  0  0  0  0  0  0
  150.8194  142.0175  156.9941 H   0  0  0  0  0  0  0  0  0  0  0  0
  149.5996  142.6353  155.2371 H   0  0  0  0  0  0  0  0  0  0  0  0
  145.9324  136.5729  153.2844 H   0  0  0  0  0  0  0  0  0  0  0  0
  1  2  2  0  0  0  0
  2  3  1  0  0  0  0
  2 12  1  0  0  0  0
  3  4  1  0  0  0  0
  3 21  1  0  0  0  0
  3 22  1  0  0  0  0
  4  5  1  0  0  0  0
  4 23  1  0  0  0  0
  4 42  1  0  0  0  0
  5  6  1  0  0  0  0
  5 24  1  0  0  0  0
  5 25  1  0  0  0  0
  6  7  1  0  0  0  0
  6 26  1  0  0  0  0
  6 27  1  0  0  0  0
  7 11  1  0  0  0  0
  7  8  1  0  0  0  0
  8  9  2  0  0  0  0
  8 28  1  0  0  0  0
  9 10  1  0  0  0  0
  9 29  1  0  0  0  0
 10 11  2  0  0  0  0
 10 30  1  0  0  0  0
 12 13  1  0  0  0  0
 12 31  1  0  0  0  0
 13 19  1  0  0  0  0
 13 14  1  0  0  0  0
 13 32  1  0  0  0  0
 14 15  1  0  0  0  0
 14 33  1  0  0  0  0
 14 34  1  0  0  0  0
 15 16  1  0  0  0  0
 15 35  1  0  0  0  0
 15 36  1  0  0  0  0
 16 17  1  0  0  0  0
 16 37  1  0  0  0  0
 16 38  1  0  0  0  0
 17 18  1  0  0  0  0
 17 39  1  0  0  0  0
 17 40  1  0  0  0  0
 18 19  1  0  0  0  0
 18 41  1  0  0  0  0
 19 20  2  0  0  0  0
M  CHG  1   4   1
M  END
> <s_m_source_file>
AV-unprocessed.smi

> <i_m_source_file_index>
2640

> <i_lp_mmshare_version>
43012

> <i_f3d_flags>
0

> <s_epik_input>
Tz1DMVtOSF1bQ0gyXVtDSDJdW0NIMl1bQ0gyXVtDQEhdMVtOSF1DKD1PKVtDSDJdW05IXVtDSDJdW0NIMl1uMltjSF1bY0hdW2NIXW4y

> <s_epik_cmdline>
J2VwaWtfcHl0aG9uJywgJy1waCcsICc3LjAnLCAnLXRuJywgJzgnLCAnLW1hJywgJzIwMCcsICctbWV0YWxfYmluZGluZycsICctaW1hZScsICc8aW5maWxlLm1hZT4nLCAnLW9tYWUnLCAnPG91dGZpbGUubWFlPic=

> <r_lp_tautomer_probability>
1

> <r_epik_Ionization_Penalty>
0.245908

> <r_epik_Ionization_Penalty_Charging>
0.245903

> <r_epik_Ionization_Penalty_Neutral>
5.38378e-06

> <r_epik_State_Penalty>
0.237496

> <r_epik_Charging_Adjusted_Penalty>
0.483398

> <i_epik_Tot_Q>
1

> <i_epik_Tot_abs_Q>
1

> <r_epik_Metal_State_Penalty>
0.237698

> <b_epik_Metal_Only>
0

> <s_lp_Force_Field>
OPLS_2005

> <r_lp_Energy>
9.28835

> <b_lp_Chiralities_Consistent>
1

> <s_lp_Variant>
AV-unprocessed.smi:2640-2

> <Gold.Version>
5.8.1

> <Gold.Id.Protein>
6NUR|6NUR_protein|mol2

> <Gold.PLP.Fitness>
53.9775

> <Gold.PLP.PLP>
-39.2601

> <Gold.PLP.part.hbond>
-4.3998

> <Gold.PLP.part.metal>
0.0000

> <Gold.PLP.part.buried>
-3.1042

> <Gold.PLP.part.nonpolar>
-33.6845

> <Gold.PLP.part.repulsive>
1.8509

> <Gold.PLP.ligand.clash>
0.0000

> <Gold.PLP.ligand.torsion>
0.4914

> <Gold.PLP.Chemscore.Hbond>
4.1957

> <Gold.PLP.Chemscore.CHOScore>
1.0000

> <Gold.PLP.Chemscore.Metal>
0.0000

> <Gold.Chemscore.Hbonds>
donor molecule, donor type, donor heavy atom, donor atom, acceptor molecule, acceptor atom, score
      L1  H     4    23       P1  7948  2.00
      L1  H    12    31       P1  7948  0.98
      L1  H    18    41       P1  8028  0.49
      P1  H  8011  8017       L1    20  0.75
      L1  C     8    28       P1  7921  1.00

> <Gold.PLP.Chemscore.Internal.Correction>
0.1132

> <Gold.Rescore>
     Score         DG    S(hbond)    S(metal)    S(lipo)     H(rot)  DE(clash)    DE(int)     intcor
     12.99     -18.14       2.82        0.00      81.23       2.45       0.24       4.91       ----

> <Gold.Chemscore.Fitness>
12.9867

> <Gold.Chemscore.DG>
-18.1368

> <Gold.Chemscore.ZeroCoef>
-5.4800

> <Gold.Chemscore.Hbond>
2.8187

> <Gold.Chemscore.Metal>
0.0000

> <Gold.Chemscore.Lipo>
81.2349

> <Gold.Chemscore.Internal_Hbond>
0.0000

> <Gold.Chemscore.DEClash>
0.2373

> <Gold.Chemscore.DEInternal>
4.9127

> <Gold.Chemscore.Rot>
2.4462

> <Gold.Chemscore.Internal.Correction>
   9.000000E+99

> <Gold.Chemscore.Hbonds>
donor molecule, donor type, donor heavy atom, donor atom, acceptor molecule, acceptor atom, score
      L1  H     4    23       P1  7948  0.99
      L1  H    12    31       P1  7948  0.91
      L1  H    18    41       P1  8028  0.48
      P1  H  8011  8017       L1    20  0.43

> <Gold.Chemscore.Hbond.Weighted>
-9.4146

> <Gold.Chemscore.Metal.Weighted>
-0.0000

> <Gold.Chemscore.Lipo.Weighted>
-9.5045

> <Gold.Chemscore.Internal_Hbond.Weighted>
0.0000

> <Gold.Chemscore.DEClash.Weighted>
0.2373

> <Gold.Chemscore.DEInternal.Weighted>
4.9127

> <Gold.Chemscore.Rot.Weighted>
6.2623

> <Gold.Chemscore.Internal.Correction.Weighted>
   9.000000E+99

> <Gold.Protein.RotatedTorsions>
[ 6907 6896 6895 6894 ] final   54.66 input  -60.11 | X-H torsion
[ 7974 7965 7964 7962 ] final  -88.64 input  175.53 | X-H torsion
[ 8008 7997 7996 7995 ] final   53.39 input   59.86 | X-H torsion
[ 10167 10162 10161 10158 ] final  -65.07 input  -65.29 | X-H torsion
[ 10718 10713 10712 10709 ] final -148.91 input   66.30 | X-H torsion
[ 10763 10752 10751 10750 ] final -160.33 input  -60.55 | X-H torsion
[ 11005 11000 10999 10996 ] final -164.42 input  -57.11 | X-H torsion

> <Gold.Protein.ActiveResidues>
 VAL166  LYS551  ARG553  GLY616  TRP617  ASP618  TYR619  PRO620  LYS621  CYS622 
 ASP623  PHE694  ASN695  SER759  ASP760  ASP761  ALA762  ILE779  LEU786  VAL792 
 PHE793  MET794  SER795  GLU796  ALA797  LYS798  CYS799  TRP800  GLU811  SER814 

> <Gold.Protein.RotatedAtoms>
  152.3462  134.7068  160.0249 H   0  0  0  0  0  0  0  0  0  0  0  0  # atno 6907 bound_to 6896
  151.7437  133.3318  159.3381 H   0  0  0  0  0  0  0  0  0  0  0  0  # atno 6908 bound_to 6896
  150.7510  134.6188  159.6169 H   0  0  0  0  0  0  0  0  0  0  0  0  # atno 6909 bound_to 6896
  145.4505  140.9560  143.2025 H   0  0  0  0  0  0  0  0  0  0  0  0  # atno 7974 bound_to 7965
  155.4675  140.3464  155.4321 H   0  0  0  0  0  0  0  0  0  0  0  0  # atno 8008 bound_to 7997
  156.1122  140.1464  156.9352 H   0  0  0  0  0  0  0  0  0  0  0  0  # atno 8009 bound_to 7997
  154.4764  140.0884  156.7251 H   0  0  0  0  0  0  0  0  0  0  0  0  # atno 8010 bound_to 7997
  140.5756  143.2321  151.6449 H   0  0  0  0  0  0  0  0  0  0  0  0  # atno 10167 bound_to 10162
  156.4263  130.8053  151.2278 H   0  0  0  0  0  0  0  0  0  0  0  0  # atno 10718 bound_to 10713
  154.7399  135.3066  154.8746 H   0  0  0  0  0  0  0  0  0  0  0  0  # atno 10763 bound_to 10752
  153.9563  135.6758  153.4749 H   0  0  0  0  0  0  0  0  0  0  0  0  # atno 10764 bound_to 10752
  153.0999  135.4917  154.8772 H   0  0  0  0  0  0  0  0  0  0  0  0  # atno 10765 bound_to 10752
  140.5871  134.5082  157.5187 H   0  0  0  0  0  0  0  0  0  0  0  0  # atno 11005 bound_to 11000
  144.8065  139.6042  143.7049 LP  0  0  0  0  0  0  0  0  0  0  0  0  # atno 17320 bound_to 7965
  146.2507  139.6193  142.9429 LP  0  0  0  0  0  0  0  0  0  0  0  0  # atno 17321 bound_to 7965
  139.5141  144.3422  152.0729 LP  0  0  0  0  0  0  0  0  0  0  0  0  # atno 17342 bound_to 10162
  140.2565  144.4113  150.6201 LP  0  0  0  0  0  0  0  0  0  0  0  0  # atno 17343 bound_to 10162
  157.7508  131.0212  150.3742 LP  0  0  0  0  0  0  0  0  0  0  0  0  # atno 17370 bound_to 10713
  156.4069  130.3926  149.6919 LP  0  0  0  0  0  0  0  0  0  0  0  0  # atno 17371 bound_to 10713
  139.9291  134.7999  156.0983 LP  0  0  0  0  0  0  0  0  0  0  0  0  # atno 17394 bound_to 11000
  141.0959  133.6696  156.2644 LP  0  0  0  0  0  0  0  0  0  0  0  0  # atno 17395 bound_to 11000

$$$$
