AV-unprocessed.smi:3280|AV-procd|sdf|12553|dock5
  -GOLD-   2272018473D 1   1.00000     0.00000
 Structure written by MMmdl.
 39 40  0  0  0  0  0  0  0  0  2 V2000
  150.8465  135.2895  154.1391 C   0  0  0  0  0  0  0  0  0  0  0  0
  149.9232  136.1216  155.0414 C   0  0  0  0  0  0  0  0  0  0  0  0
  148.4369  135.7844  154.8509 C   0  0  0  0  0  0  0  0  0  0  0  0
  150.1822  137.5902  154.8967 C   0  0  0  0  0  0  0  0  0  0  0  0
  151.0535  138.0525  154.0069 N   0  0  0  0  0  0  0  0  0  0  0  0
  150.9951  139.4421  154.1841 O   0  0  0  0  0  0  0  0  0  0  0  0
  150.1011  139.6492  155.1797 C   0  0  0  0  0  0  0  0  0  0  0  0
  149.7740  141.0496  155.5755 C   0  0  0  0  0  0  0  0  0  0  0  0
  150.9137  141.7146  156.3572 C   0  0  0  0  0  0  0  0  0  0  0  0
  150.3878  142.6327  157.3873 N   0  3  0  0  0  0  0  0  0  0  0  0
  151.4044  143.1626  158.3220 C   0  0  1  0  0  0  0  0  0  0  0  0
  150.7853  144.2766  159.1875 C   0  0  0  0  0  0  0  0  0  0  0  0
  151.8022  144.9191  160.1454 C   0  0  0  0  0  0  0  0  0  0  0  0
  152.3944  143.9077  161.1367 C   0  0  0  0  0  0  0  0  0  0  0  0
  153.2983  142.5959  160.2709 S   0  0  0  0  0  0  0  0  0  0  0  0
  151.9649  142.0187  159.1853 C   0  0  0  0  0  0  0  0  0  0  0  0
  149.5465  138.5343  155.6468 N   0  0  0  0  0  0  0  0  0  0  0  0
  151.8952  135.5016  154.3495 H   0  0  0  0  0  0  0  0  0  0  0  0
  150.6682  135.5010  153.0844 H   0  0  0  0  0  0  0  0  0  0  0  0
  150.6880  134.2220  154.2943 H   0  0  0  0  0  0  0  0  0  0  0  0
  150.1705  135.8483  156.0688 H   0  0  0  0  0  0  0  0  0  0  0  0
  147.8158  136.3367  155.5569 H   0  0  0  0  0  0  0  0  0  0  0  0
  148.2526  134.7217  155.0100 H   0  0  0  0  0  0  0  0  0  0  0  0
  148.0985  136.0321  153.8443 H   0  0  0  0  0  0  0  0  0  0  0  0
  149.5516  141.6220  154.6739 H   0  0  0  0  0  0  0  0  0  0  0  0
  148.8615  141.0377  156.1731 H   0  0  0  0  0  0  0  0  0  0  0  0
  151.5314  140.9537  156.8365 H   0  0  0  0  0  0  0  0  0  0  0  0
  151.5564  142.2727  155.6747 H   0  0  0  0  0  0  0  0  0  0  0  0
  149.9471  143.4140  156.9230 H   0  0  0  0  0  0  0  0  0  0  0  0
  152.2281  143.5926  157.7487 H   0  0  0  0  0  0  0  0  0  0  0  0
  150.3734  145.0522  158.5404 H   0  0  0  0  0  0  0  0  0  0  0  0
  149.9460  143.8799  159.7606 H   0  0  0  0  0  0  0  0  0  0  0  0
  152.6047  145.3872  159.5738 H   0  0  0  0  0  0  0  0  0  0  0  0
  151.3155  145.7218  160.7002 H   0  0  0  0  0  0  0  0  0  0  0  0
  153.0775  144.4077  161.8238 H   0  0  0  0  0  0  0  0  0  0  0  0
  151.6054  143.4588  161.7408 H   0  0  0  0  0  0  0  0  0  0  0  0
  151.1778  141.5773  159.7980 H   0  0  0  0  0  0  0  0  0  0  0  0
  152.3615  141.2234  158.5531 H   0  0  0  0  0  0  0  0  0  0  0  0
  149.6864  142.1434  157.9249 H   0  0  0  0  0  0  0  0  0  0  0  0
  1  2  1  0  0  0  0
  1 18  1  0  0  0  0
  1 19  1  0  0  0  0
  1 20  1  0  0  0  0
  2  3  1  0  0  0  0
  2  4  1  0  0  0  0
  2 21  1  0  0  0  0
  3 22  1  0  0  0  0
  3 23  1  0  0  0  0
  3 24  1  0  0  0  0
  4 17  1  0  0  0  0
  4  5  2  0  0  0  0
  5  6  1  0  0  0  0
  6  7  1  0  0  0  0
  7  8  1  0  0  0  0
  7 17  2  0  0  0  0
  8  9  1  0  0  0  0
  8 25  1  0  0  0  0
  8 26  1  0  0  0  0
  9 10  1  0  0  0  0
  9 27  1  0  0  0  0
  9 28  1  0  0  0  0
 10 11  1  0  0  0  0
 10 29  1  0  0  0  0
 10 39  1  0  0  0  0
 11 16  1  0  0  0  0
 11 12  1  0  0  0  0
 11 30  1  0  0  0  0
 12 13  1  0  0  0  0
 12 31  1  0  0  0  0
 12 32  1  0  0  0  0
 13 14  1  0  0  0  0
 13 33  1  0  0  0  0
 13 34  1  0  0  0  0
 14 15  1  0  0  0  0
 14 35  1  0  0  0  0
 14 36  1  0  0  0  0
 15 16  1  0  0  0  0
 16 37  1  0  0  0  0
 16 38  1  0  0  0  0
M  CHG  1  10   1
M  END
> <s_m_source_file>
AV-unprocessed.smi

> <i_m_source_file_index>
3280

> <i_lp_mmshare_version>
43012

> <i_f3d_flags>
0

> <s_epik_input>
W0NIM11bQ0hdKFtDSDNdKWMxbm9jKG4xKVtDSDJdW0NIMl1bTkhdW0NAQEhdMltDSDJdW0NIMl1bQ0gyXVNbQ0gyXTI=

> <s_epik_cmdline>
J2VwaWtfcHl0aG9uJywgJy1waCcsICc3LjAnLCAnLXRuJywgJzgnLCAnLW1hJywgJzIwMCcsICctbWV0YWxfYmluZGluZycsICctaW1hZScsICc8aW5maWxlLm1hZT4nLCAnLW9tYWUnLCAnPG91dGZpbGUubWFlPic=

> <r_lp_tautomer_probability>
1

> <r_epik_Ionization_Penalty>
0.0103043

> <r_epik_Ionization_Penalty_Charging>
0.0103043

> <r_epik_Ionization_Penalty_Neutral>
2.61801e-13

> <r_epik_State_Penalty>
0.0078728

> <r_epik_Charging_Adjusted_Penalty>
0.0181771

> <i_epik_Tot_Q>
1

> <i_epik_Tot_abs_Q>
1

> <r_epik_Metal_State_Penalty>
0.0078728

> <b_epik_Metal_Only>
0

> <s_lp_Force_Field>
OPLS_2005

> <r_lp_Energy>
2.51022

> <b_lp_Chiralities_Consistent>
1

> <s_lp_Variant>
AV-unprocessed.smi:3280-2

> <Gold.Version>
5.8.1

> <Gold.Id.Protein>
6NUR|6NUR_protein|mol2

> <Gold.PLP.Fitness>
43.3616

> <Gold.PLP.PLP>
-35.1366

> <Gold.PLP.part.hbond>
-2.0000

> <Gold.PLP.part.metal>
0.0000

> <Gold.PLP.part.buried>
-5.5147

> <Gold.PLP.part.nonpolar>
-27.9302

> <Gold.PLP.part.repulsive>
0.4174

> <Gold.PLP.ligand.clash>
0.0000

> <Gold.PLP.ligand.torsion>
0.4288

> <Gold.PLP.Chemscore.Hbond>
3.0000

> <Gold.PLP.Chemscore.CHOScore>
0.0000

> <Gold.PLP.Chemscore.Metal>
0.0000

> <Gold.Chemscore.Hbonds>
donor molecule, donor type, donor heavy atom, donor atom, acceptor molecule, acceptor atom, score
      L1  H    10    29       P1  8028  1.66
      P1  H  7989  7998       L1     6  1.00

> <Gold.PLP.Chemscore.Internal.Correction>
0.0828

> <Gold.Rescore>
     Score         DG    S(hbond)    S(metal)    S(lipo)     H(rot)  DE(clash)    DE(int)     intcor
     18.00     -18.44       1.94        0.00      93.91       1.76       0.03       0.40       ----

> <Gold.Chemscore.Fitness>
18.0019

> <Gold.Chemscore.DG>
-18.4376

> <Gold.Chemscore.ZeroCoef>
-5.4800

> <Gold.Chemscore.Hbond>
1.9367

> <Gold.Chemscore.Metal>
0.0000

> <Gold.Chemscore.Lipo>
93.9092

> <Gold.Chemscore.Internal_Hbond>
0.0000

> <Gold.Chemscore.DEClash>
0.0316

> <Gold.Chemscore.DEInternal>
0.4041

> <Gold.Chemscore.Rot>
1.7572

> <Gold.Chemscore.Internal.Correction>
   9.000000E+99

> <Gold.Chemscore.Hbonds>
donor molecule, donor type, donor heavy atom, donor atom, acceptor molecule, acceptor atom, score
      L1  H    10    29       P1  8028  0.82
      P1  H  7989  7998       L1     6  0.91

> <Gold.Chemscore.Hbond.Weighted>
-6.4686

> <Gold.Chemscore.Metal.Weighted>
-0.0000

> <Gold.Chemscore.Lipo.Weighted>
-10.9874

> <Gold.Chemscore.Internal_Hbond.Weighted>
0.0000

> <Gold.Chemscore.DEClash.Weighted>
0.0316

> <Gold.Chemscore.DEInternal.Weighted>
0.4041

> <Gold.Chemscore.Rot.Weighted>
4.4984

> <Gold.Chemscore.Internal.Correction.Weighted>
   9.000000E+99

> <Gold.Protein.RotatedTorsions>
[ 6907 6896 6895 6894 ] final -115.69 input  -60.11 | X-H torsion
[ 7974 7965 7964 7962 ] final -149.08 input  175.53 | X-H torsion
[ 8008 7997 7996 7995 ] final -121.99 input   59.86 | X-H torsion
[ 10167 10162 10161 10158 ] final -165.17 input  -65.29 | X-H torsion
[ 10718 10713 10712 10709 ] final  109.76 input   66.30 | X-H torsion
[ 10763 10752 10751 10750 ] final  108.40 input  -60.55 | X-H torsion
[ 11005 11000 10999 10996 ] final  -98.77 input  -57.11 | X-H torsion

> <Gold.Protein.ActiveResidues>
 VAL166  LYS551  ARG553  GLY616  TRP617  ASP618  TYR619  PRO620  LYS621  CYS622 
 ASP623  PHE694  ASN695  SER759  ASP760  ASP761  ALA762  ILE779  LEU786  VAL792 
 PHE793  MET794  SER795  GLU796  ALA797  LYS798  CYS799  TRP800  GLU811  SER814 

> <Gold.Protein.RotatedAtoms>
  150.7997  133.8623  159.3235 H   0  0  0  0  0  0  0  0  0  0  0  0  # atno 6907 bound_to 6896
  151.6438  135.1008  160.0156 H   0  0  0  0  0  0  0  0  0  0  0  0  # atno 6908 bound_to 6896
  152.4083  133.6884  159.6410 H   0  0  0  0  0  0  0  0  0  0  0  0  # atno 6909 bound_to 6896
  144.7990  140.5112  143.5720 H   0  0  0  0  0  0  0  0  0  0  0  0  # atno 7974 bound_to 7965
  155.1570  140.0405  157.2834 H   0  0  0  0  0  0  0  0  0  0  0  0  # atno 8008 bound_to 7997
  154.6363  140.2536  155.7347 H   0  0  0  0  0  0  0  0  0  0  0  0  # atno 8009 bound_to 7997
  156.2510  140.2865  156.0737 H   0  0  0  0  0  0  0  0  0  0  0  0  # atno 8010 bound_to 7997
  139.6200  144.0643  152.1924 H   0  0  0  0  0  0  0  0  0  0  0  0  # atno 10167 bound_to 10162
  157.6526  131.0920  150.6501 H   0  0  0  0  0  0  0  0  0  0  0  0  # atno 10718 bound_to 10713
  153.4201  135.3813  155.2105 H   0  0  0  0  0  0  0  0  0  0  0  0  # atno 10763 bound_to 10752
  154.8744  135.3815  154.4395 H   0  0  0  0  0  0  0  0  0  0  0  0  # atno 10764 bound_to 10752
  153.4914  135.7088  153.5945 H   0  0  0  0  0  0  0  0  0  0  0  0  # atno 10765 bound_to 10752
  141.1333  133.8271  157.0884 H   0  0  0  0  0  0  0  0  0  0  0  0  # atno 11005 bound_to 11000
  145.5601  139.1479  143.3346 LP  0  0  0  0  0  0  0  0  0  0  0  0  # atno 17320 bound_to 7965
  146.2266  140.5737  142.8994 LP  0  0  0  0  0  0  0  0  0  0  0  0  # atno 17321 bound_to 7965
  140.0282  144.6101  150.7509 LP  0  0  0  0  0  0  0  0  0  0  0  0  # atno 17342 bound_to 10162
  140.7376  143.2767  151.3719 LP  0  0  0  0  0  0  0  0  0  0  0  0  # atno 17343 bound_to 10162
  156.6811  130.4567  149.5627 LP  0  0  0  0  0  0  0  0  0  0  0  0  # atno 17370 bound_to 10713
  156.1928  130.6571  151.1081 LP  0  0  0  0  0  0  0  0  0  0  0  0  # atno 17371 bound_to 10713
  140.0408  134.9855  157.0957 LP  0  0  0  0  0  0  0  0  0  0  0  0  # atno 17394 bound_to 11000
  140.4139  134.1952  155.7163 LP  0  0  0  0  0  0  0  0  0  0  0  0  # atno 17395 bound_to 11000

$$$$
