AV-unprocessed.smi:744|AV-procd|sdf|3569|dock3
  -GOLD-   22720 0563D 1   1.00000     0.00000
 Structure written by MMmdl.
 34 35  0  0  0  0  0  0  0  0  1 V2000
  145.0968  137.9694  153.0457 O   0  0  0  0  0  0  0  0  0  0  0  0
  146.1449  137.4307  152.6881 C   0  0  0  0  0  0  0  0  0  0  0  0
  146.1900  136.2392  152.0746 N   0  0  0  0  0  0  0  0  0  0  0  0
  145.0265  135.4244  151.7406 C   0  0  0  0  0  0  0  0  0  0  0  0
  145.4117  134.1763  150.9179 C   0  0  1  0  0  0  0  0  0  0  0  0
  146.1099  133.0637  151.7118 C   0  0  0  0  0  0  0  0  0  0  0  0
  145.8828  131.7729  150.9102 C   0  0  0  0  0  0  0  0  0  0  0  0
  144.8419  132.1048  149.8290 C   0  0  0  0  0  0  0  0  0  0  0  0
  144.2467  133.4625  150.2165 C   0  0  1  0  0  0  0  0  0  0  0  0
  143.1580  133.2527  151.0971 O   0  0  0  0  0  0  0  0  0  0  0  0
  147.3781  137.9420  152.8495 N   0  0  0  0  0  0  0  0  0  0  0  0
  147.7465  139.1726  153.4560 C   0  0  0  0  0  0  0  0  0  0  0  0
  149.0045  139.1690  154.1004 C   0  0  0  0  0  0  0  0  0  0  0  0
  149.4615  140.3405  154.7345 C   0  0  0  0  0  0  0  0  0  0  0  0
  148.6475  141.4871  154.7087 C   0  0  0  0  0  0  0  0  0  0  0  0
  147.4093  141.4062  154.0456 C   0  0  0  0  0  0  0  0  0  0  0  0
  146.9695  140.2846  153.4368 N   0  0  0  0  0  0  0  0  0  0  0  0
  147.0929  135.8704  151.8142 H   0  0  0  0  0  0  0  0  0  0  0  0
  144.5510  135.1320  152.6772 H   0  0  0  0  0  0  0  0  0  0  0  0
  144.2946  136.0244  151.1975 H   0  0  0  0  0  0  0  0  0  0  0  0
  146.1008  134.4909  150.1318 H   0  0  0  0  0  0  0  0  0  0  0  0
  147.1693  133.2728  151.8648 H   0  0  0  0  0  0  0  0  0  0  0  0
  145.6508  132.9637  152.6963 H   0  0  0  0  0  0  0  0  0  0  0  0
  146.8095  131.4226  150.4541 H   0  0  0  0  0  0  0  0  0  0  0  0
  145.5236  130.9797  151.5667 H   0  0  0  0  0  0  0  0  0  0  0  0
  145.3490  132.2005  148.8680 H   0  0  0  0  0  0  0  0  0  0  0  0
  144.0879  131.3245  149.7161 H   0  0  0  0  0  0  0  0  0  0  0  0
  143.8936  134.0155  149.3454 H   0  0  0  0  0  0  0  0  0  0  0  0
  142.3714  133.5726  150.6824 H   0  0  0  0  0  0  0  0  0  0  0  0
  148.1433  137.3851  152.4994 H   0  0  0  0  0  0  0  0  0  0  0  0
  149.6172  138.2790  154.1111 H   0  0  0  0  0  0  0  0  0  0  0  0
  150.4199  140.3581  155.2322 H   0  0  0  0  0  0  0  0  0  0  0  0
  148.9635  142.4039  155.1842 H   0  0  0  0  0  0  0  0  0  0  0  0
  146.7544  142.2640  154.0023 H   0  0  0  0  0  0  0  0  0  0  0  0
  1  2  2  0  0  0  0
  2  3  1  0  0  0  0
  2 11  1  0  0  0  0
  3  4  1  0  0  0  0
  3 18  1  0  0  0  0
  4  5  1  0  0  0  0
  4 19  1  0  0  0  0
  4 20  1  0  0  0  0
  5  9  1  0  0  0  0
  5  6  1  0  0  0  0
  5 21  1  0  0  0  0
  6  7  1  0  0  0  0
  6 22  1  0  0  0  0
  6 23  1  0  0  0  0
  7  8  1  0  0  0  0
  7 24  1  0  0  0  0
  7 25  1  0  0  0  0
  8  9  1  0  0  0  0
  8 26  1  0  0  0  0
  8 27  1  0  0  0  0
  9 10  1  0  0  0  0
  9 28  1  0  0  0  0
 10 29  1  0  0  0  0
 11 12  1  0  0  0  0
 11 30  1  0  0  0  0
 12 17  1  0  0  0  0
 12 13  2  0  0  0  0
 13 14  1  0  0  0  0
 13 31  1  0  0  0  0
 14 15  2  0  0  0  0
 14 32  1  0  0  0  0
 15 16  1  0  0  0  0
 15 33  1  0  0  0  0
 16 17  2  0  0  0  0
 16 34  1  0  0  0  0
M  END
> <s_m_source_file>
AV-unprocessed.smi

> <i_m_source_file_index>
744

> <i_lp_mmshare_version>
43012

> <i_f3d_flags>
0

> <s_epik_input>
bjFbY0hdW2NIXVtjSF1bY0hdYzFbTkhdQyg9TylbTkhdW0NIMl1bQ0BASF0yW0NIMl1bQ0gyXVtDSDJdW0NASF0yW09IXQ==

> <s_epik_cmdline>
J2VwaWtfcHl0aG9uJywgJy1waCcsICc3LjAnLCAnLXRuJywgJzgnLCAnLW1hJywgJzIwMCcsICctbWV0YWxfYmluZGluZycsICctaW1hZScsICc8aW5maWxlLm1hZT4nLCAnLW9tYWUnLCAnPG91dGZpbGUubWFlPic=

> <r_lp_tautomer_probability>
1

> <r_epik_Ionization_Penalty>
5.04769e-05

> <r_epik_Ionization_Penalty_Charging>
0

> <r_epik_Ionization_Penalty_Neutral>
5.04769e-05

> <r_epik_State_Penalty>
-0

> <r_epik_Charging_Adjusted_Penalty>
0

> <i_epik_Tot_Q>
0

> <i_epik_Tot_abs_Q>
0

> <r_epik_Metal_State_Penalty>
-0

> <b_epik_Metal_Only>
0

> <s_lp_Force_Field>
OPLS_2005

> <r_lp_Energy>
27.3906

> <b_lp_Chiralities_Consistent>
1

> <s_lp_Variant>
AV-unprocessed.smi:744-2

> <Gold.Version>
5.8.1

> <Gold.Id.Protein>
6NUR|6NUR_protein|mol2

> <Gold.PLP.Fitness>
39.2440

> <Gold.PLP.PLP>
-31.1909

> <Gold.PLP.part.hbond>
-2.9495

> <Gold.PLP.part.metal>
0.0000

> <Gold.PLP.part.buried>
-4.1388

> <Gold.PLP.part.nonpolar>
-26.4567

> <Gold.PLP.part.repulsive>
1.9009

> <Gold.PLP.ligand.clash>
0.0000

> <Gold.PLP.ligand.torsion>
0.3190

> <Gold.PLP.Chemscore.Hbond>
2.8960

> <Gold.PLP.Chemscore.CHOScore>
0.0000

> <Gold.PLP.Chemscore.Metal>
0.0000

> <Gold.Chemscore.Hbonds>
donor molecule, donor type, donor heavy atom, donor atom, acceptor molecule, acceptor atom, score
      L1  H     3    18       P1  7948  0.90
      L1  H    10    29       P1 10186  1.00
      L1  H    11    30       P1  7948  1.00

> <Gold.PLP.Chemscore.Internal.Correction>
0.0031

> <Gold.Rescore>
     Score         DG    S(hbond)    S(metal)    S(lipo)     H(rot)  DE(clash)    DE(int)     intcor
     17.07     -18.53       2.92        0.00      67.69       1.81       0.18       1.28       ----

> <Gold.Chemscore.Fitness>
17.0679

> <Gold.Chemscore.DG>
-18.5279

> <Gold.Chemscore.ZeroCoef>
-5.4800

> <Gold.Chemscore.Hbond>
2.9191

> <Gold.Chemscore.Metal>
0.0000

> <Gold.Chemscore.Lipo>
67.6883

> <Gold.Chemscore.Internal_Hbond>
0.0000

> <Gold.Chemscore.DEClash>
0.1812

> <Gold.Chemscore.DEInternal>
1.2789

> <Gold.Chemscore.Rot>
1.8052

> <Gold.Chemscore.Internal.Correction>
   9.000000E+99

> <Gold.Chemscore.Hbonds>
donor molecule, donor type, donor heavy atom, donor atom, acceptor molecule, acceptor atom, score
      L1  H     3    18       P1  7948  0.88
      L1  H    10    29       P1 10186  0.91
      L1  H    11    30       P1  7948  0.93

> <Gold.Chemscore.Hbond.Weighted>
-9.7496

> <Gold.Chemscore.Metal.Weighted>
-0.0000

> <Gold.Chemscore.Lipo.Weighted>
-7.9195

> <Gold.Chemscore.Internal_Hbond.Weighted>
0.0000

> <Gold.Chemscore.DEClash.Weighted>
0.1812

> <Gold.Chemscore.DEInternal.Weighted>
1.2789

> <Gold.Chemscore.Rot.Weighted>
4.6212

> <Gold.Chemscore.Internal.Correction.Weighted>
   9.000000E+99

> <Gold.Protein.RotatedTorsions>
[ 6907 6896 6895 6894 ] final -112.47 input  -60.11 | X-H torsion
[ 7974 7965 7964 7962 ] final   46.84 input  175.53 | X-H torsion
[ 8008 7997 7996 7995 ] final -108.09 input   59.86 | X-H torsion
[ 10167 10162 10161 10158 ] final  178.83 input  -65.29 | X-H torsion
[ 10718 10713 10712 10709 ] final   91.41 input   66.30 | X-H torsion
[ 10763 10752 10751 10750 ] final  112.05 input  -60.55 | X-H torsion
[ 11005 11000 10999 10996 ] final -122.69 input  -57.11 | X-H torsion

> <Gold.Protein.ActiveResidues>
 VAL166  LYS551  ARG553  GLY616  TRP617  ASP618  TYR619  PRO620  LYS621  CYS622 
 ASP623  PHE694  ASN695  SER759  ASP760  ASP761  ALA762  ILE779  LEU786  VAL792 
 PHE793  MET794  SER795  GLU796  ALA797  LYS798  CYS799  TRP800  GLU811  SER814 

> <Gold.Protein.RotatedAtoms>
  150.7760  133.9085  159.3362 H   0  0  0  0  0  0  0  0  0  0  0  0  # atno 6907 bound_to 6896
  151.6960  135.0936  160.0251 H   0  0  0  0  0  0  0  0  0  0  0  0  # atno 6908 bound_to 6896
  152.3796  133.6490  159.6187 H   0  0  0  0  0  0  0  0  0  0  0  0  # atno 6909 bound_to 6896
  146.0353  139.4813  142.9812 H   0  0  0  0  0  0  0  0  0  0  0  0  # atno 7974 bound_to 7965
  154.9391  140.0403  157.2087 H   0  0  0  0  0  0  0  0  0  0  0  0  # atno 8008 bound_to 7997
  154.8086  140.2864  155.5847 H   0  0  0  0  0  0  0  0  0  0  0  0  # atno 8009 bound_to 7997
  156.2969  140.2541  156.2970 H   0  0  0  0  0  0  0  0  0  0  0  0  # atno 8010 bound_to 7997
  139.5310  144.2633  152.0688 H   0  0  0  0  0  0  0  0  0  0  0  0  # atno 10167 bound_to 10162
  157.6960  131.0406  150.3726 H   0  0  0  0  0  0  0  0  0  0  0  0  # atno 10718 bound_to 10713
  153.4722  135.3698  155.2397 H   0  0  0  0  0  0  0  0  0  0  0  0  # atno 10763 bound_to 10752
  154.8757  135.3934  154.3798 H   0  0  0  0  0  0  0  0  0  0  0  0  # atno 10764 bound_to 10752
  153.4388  135.7084  153.6247 H   0  0  0  0  0  0  0  0  0  0  0  0  # atno 10765 bound_to 10752
  140.9976  134.0450  157.3578 H   0  0  0  0  0  0  0  0  0  0  0  0  # atno 11005 bound_to 11000
  145.6974  141.0146  143.1522 LP  0  0  0  0  0  0  0  0  0  0  0  0  # atno 17320 bound_to 7965
  144.7049  139.8604  143.7433 LP  0  0  0  0  0  0  0  0  0  0  0  0  # atno 17321 bound_to 7965
  140.2097  144.4575  150.6392 LP  0  0  0  0  0  0  0  0  0  0  0  0  # atno 17342 bound_to 10162
  140.6488  143.2220  151.6124 LP  0  0  0  0  0  0  0  0  0  0  0  0  # atno 17343 bound_to 10162
  156.4149  130.3941  149.6865 LP  0  0  0  0  0  0  0  0  0  0  0  0  # atno 17370 bound_to 10713
  156.4137  130.7734  151.2749 LP  0  0  0  0  0  0  0  0  0  0  0  0  # atno 17371 bound_to 10713
  139.9022  135.0168  156.7323 LP  0  0  0  0  0  0  0  0  0  0  0  0  # atno 17394 bound_to 11000
  140.6941  133.9364  155.7984 LP  0  0  0  0  0  0  0  0  0  0  0  0  # atno 17395 bound_to 11000

$$$$
