AV-unprocessed.smi:1643|AV-procd|sdf|6574|dock8
  -GOLD-   22720 7263D 1   1.00000     0.00000
 Structure written by MMmdl.
 54 56  0  0  0  0  0  0  0  0  2 V2000
  142.3602  141.4347  155.2546 C   0  0  0  0  0  0  0  0  0  0  0  0
  143.5842  140.7347  155.8509 C   0  0  0  0  0  0  0  0  0  0  0  0
  143.6093  139.5042  155.8378 O   0  0  0  0  0  0  0  0  0  0  0  0
  144.5948  141.4807  156.3618 N   0  0  0  0  0  0  0  0  0  0  0  0
  144.4979  142.9453  156.4481 C   0  0  0  0  0  0  0  0  0  0  0  0
  145.2487  143.6548  155.2973 C   0  0  0  0  0  0  0  0  0  0  0  0
  146.1526  142.7532  154.4248 C   0  0  0  0  0  0  0  0  0  0  0  0
  147.3109  142.1276  155.1310 N   0  3  2  0  0  0  0  0  0  0  0  0
  147.9066  140.9927  154.3737 C   0  0  0  0  0  0  0  0  0  0  0  0
  149.2960  140.5795  154.8986 C   0  0  1  0  0  0  0  0  0  0  0  0
  150.0941  140.1641  153.8064 O   0  0  0  0  0  0  0  0  0  0  0  0
  149.9999  141.7362  155.6336 C   0  0  0  0  0  0  0  0  0  0  0  0
  150.9543  141.2632  156.6201 N   0  0  0  0  0  0  0  0  0  0  0  0
  151.7163  140.1545  156.5526 C   0  0  0  0  0  0  0  0  0  0  0  0
  152.5264  139.9095  157.5784 N   0  0  0  0  0  0  0  0  0  0  0  0
  152.2622  140.9866  158.4068 C   0  0  0  0  0  0  0  0  0  0  0  0
  152.7958  141.3260  159.6693 C   0  0  0  0  0  0  0  0  0  0  0  0
  152.3727  142.4927  160.3452 C   0  0  0  0  0  0  0  0  0  0  0  0
  152.9717  142.8184  161.7021 C   0  0  0  0  0  0  0  0  0  0  0  0
  151.4007  143.3417  159.7574 C   0  0  0  0  0  0  0  0  0  0  0  0
  150.9305  144.6002  160.4654 C   0  0  0  0  0  0  0  0  0  0  0  0
  150.8582  143.0182  158.4962 C   0  0  0  0  0  0  0  0  0  0  0  0
  151.2859  141.8535  157.8348 C   0  0  0  0  0  0  0  0  0  0  0  0
  147.1037  141.7970  156.5708 C   0  0  0  0  0  0  0  0  0  0  0  0
  145.8598  140.9208  156.8701 C   0  0  0  0  0  0  0  0  0  0  0  0
  142.6571  142.2003  154.5371 H   0  0  0  0  0  0  0  0  0  0  0  0
  141.7604  141.8959  156.0394 H   0  0  0  0  0  0  0  0  0  0  0  0
  141.7271  140.7181  154.7301 H   0  0  0  0  0  0  0  0  0  0  0  0
  143.4610  143.2849  156.4738 H   0  0  0  0  0  0  0  0  0  0  0  0
  144.8990  143.2678  157.4095 H   0  0  0  0  0  0  0  0  0  0  0  0
  144.5063  144.1105  154.6412 H   0  0  0  0  0  0  0  0  0  0  0  0
  145.8295  144.4866  155.6974 H   0  0  0  0  0  0  0  0  0  0  0  0
  145.5453  141.9834  153.9463 H   0  0  0  0  0  0  0  0  0  0  0  0
  146.5450  143.3621  153.6106 H   0  0  0  0  0  0  0  0  0  0  0  0
  147.2485  140.1238  154.4233 H   0  0  0  0  0  0  0  0  0  0  0  0
  147.9674  141.2641  153.3186 H   0  0  0  0  0  0  0  0  0  0  0  0
  149.2038  139.7435  155.5908 H   0  0  0  0  0  0  0  0  0  0  0  0
  149.5851  140.2355  153.0129 H   0  0  0  0  0  0  0  0  0  0  0  0
  150.5173  142.3850  154.9252 H   0  0  0  0  0  0  0  0  0  0  0  0
  149.2658  142.3579  156.1478 H   0  0  0  0  0  0  0  0  0  0  0  0
  151.6713  139.4869  155.7045 H   0  0  0  0  0  0  0  0  0  0  0  0
  153.5361  140.6792  160.1170 H   0  0  0  0  0  0  0  0  0  0  0  0
  153.4365  143.8045  161.6895 H   0  0  0  0  0  0  0  0  0  0  0  0
  153.7363  142.0939  161.9844 H   0  0  0  0  0  0  0  0  0  0  0  0
  152.1993  142.8084  162.4715 H   0  0  0  0  0  0  0  0  0  0  0  0
  150.1702  145.1231  159.8846 H   0  0  0  0  0  0  0  0  0  0  0  0
  151.7642  145.2860  160.6190 H   0  0  0  0  0  0  0  0  0  0  0  0
  150.4996  144.3551  161.4364 H   0  0  0  0  0  0  0  0  0  0  0  0
  150.1179  143.6565  158.0374 H   0  0  0  0  0  0  0  0  0  0  0  0
  147.9923  141.2984  156.9593 H   0  0  0  0  0  0  0  0  0  0  0  0
  147.0626  142.7285  157.1352 H   0  0  0  0  0  0  0  0  0  0  0  0
  145.7630  140.7820  157.9476 H   0  0  0  0  0  0  0  0  0  0  0  0
  146.0580  139.9330  156.4558 H   0  0  0  0  0  0  0  0  0  0  0  0
  148.0302  142.8371  155.1448 H   0  0  0  0  0  0  0  0  0  0  0  0
  1  2  1  0  0  0  0
  1 26  1  0  0  0  0
  1 27  1  0  0  0  0
  1 28  1  0  0  0  0
  2  3  2  0  0  0  0
  2  4  1  0  0  0  0
  4 25  1  0  0  0  0
  4  5  1  0  0  0  0
  5  6  1  0  0  0  0
  5 29  1  0  0  0  0
  5 30  1  0  0  0  0
  6  7  1  0  0  0  0
  6 31  1  0  0  0  0
  6 32  1  0  0  0  0
  7  8  1  0  0  0  0
  7 33  1  0  0  0  0
  7 34  1  0  0  0  0
  8  9  1  0  0  0  0
  8 24  1  0  0  0  0
  8 54  1  0  0  0  0
  9 10  1  0  0  0  0
  9 35  1  0  0  0  0
  9 36  1  0  0  0  0
 10 11  1  0  0  0  0
 10 12  1  0  0  0  0
 10 37  1  0  0  0  0
 11 38  1  0  0  0  0
 12 13  1  0  0  0  0
 12 39  1  0  0  0  0
 12 40  1  0  0  0  0
 13 23  1  0  0  0  0
 13 14  1  0  0  0  0
 14 15  2  0  0  0  0
 14 41  1  0  0  0  0
 15 16  1  0  0  0  0
 16 23  2  0  0  0  0
 16 17  1  0  0  0  0
 17 18  2  0  0  0  0
 17 42  1  0  0  0  0
 18 19  1  0  0  0  0
 18 20  1  0  0  0  0
 19 43  1  0  0  0  0
 19 44  1  0  0  0  0
 19 45  1  0  0  0  0
 20 21  1  0  0  0  0
 20 22  2  0  0  0  0
 21 46  1  0  0  0  0
 21 47  1  0  0  0  0
 21 48  1  0  0  0  0
 22 23  1  0  0  0  0
 22 49  1  0  0  0  0
 24 25  1  0  0  0  0
 24 50  1  0  0  0  0
 24 51  1  0  0  0  0
 25 52  1  0  0  0  0
 25 53  1  0  0  0  0
M  CHG  1   8   1
M  END
> <s_m_source_file>
AV-unprocessed.smi

> <i_m_source_file_index>
1643

> <i_lp_mmshare_version>
43012

> <i_f3d_flags>
0

> <s_epik_input>
W0NIM11DKD1PKU4xW0NIMl1bQ0gyXVtDSDJdTihbQ0gyXVtDSDJdMSlbQ0gyXVtDQEhdKFtPSF0pW0NIMl1uKFtjSF1uMiljKGMyMylbY0hdYyhbQ0gzXSljKFtjSF0zKVtDSDNd

> <s_epik_cmdline>
J2VwaWtfcHl0aG9uJywgJy1waCcsICc3LjAnLCAnLXRuJywgJzgnLCAnLW1hJywgJzIwMCcsICctbWV0YWxfYmluZGluZycsICctaW1hZScsICc8aW5maWxlLm1hZT4nLCAnLW9tYWUnLCAnPG91dGZpbGUubWFlPic=

> <r_epik_Ionization_Penalty>
0.189467

> <r_epik_Ionization_Penalty_Charging>
0.101761

> <r_epik_Ionization_Penalty_Neutral>
0.0877056

> <r_epik_State_Penalty>
0.170758

> <r_epik_Charging_Adjusted_Penalty>
0.272519

> <i_epik_Tot_Q>
1

> <i_epik_Tot_abs_Q>
1

> <r_epik_Metal_State_Penalty>
0.0948013

> <b_epik_Metal_Only>
0

> <s_lp_Force_Field>
OPLS_2005

> <r_lp_Energy>
48.7512

> <b_lp_Chiralities_Consistent>
1

> <s_lp_Variant>
AV-unprocessed.smi:1643-3

> <Gold.Version>
5.8.1

> <Gold.Id.Protein>
6NUR|6NUR_protein|mol2

> <Gold.PLP.Fitness>
58.3118

> <Gold.PLP.PLP>
-46.6354

> <Gold.PLP.part.hbond>
-4.0000

> <Gold.PLP.part.metal>
0.0000

> <Gold.PLP.part.buried>
-6.4795

> <Gold.PLP.part.nonpolar>
-35.4674

> <Gold.PLP.part.repulsive>
0.1784

> <Gold.PLP.ligand.clash>
0.0000

> <Gold.PLP.ligand.torsion>
1.2006

> <Gold.PLP.Chemscore.Hbond>
4.6640

> <Gold.PLP.Chemscore.CHOScore>
0.0000

> <Gold.PLP.Chemscore.Metal>
0.0000

> <Gold.Chemscore.Hbonds>
donor molecule, donor type, donor heavy atom, donor atom, acceptor molecule, acceptor atom, score
      L1  H     8    54       P1  8028  1.62
      L1  H    11    38       P1  7957  0.90
      P1  H  7989  7998       L1    11  0.80
      P1  H  7997  8008       L1    15  0.88

> <Gold.PLP.Chemscore.Internal.Correction>
0.0856

> <Gold.Rescore>
     Score         DG    S(hbond)    S(metal)    S(lipo)     H(rot)  DE(clash)    DE(int)     intcor
     21.00     -22.17       2.83        0.00     108.08       2.12       0.06       1.10       ----

> <Gold.Chemscore.Fitness>
20.9975

> <Gold.Chemscore.DG>
-22.1652

> <Gold.Chemscore.ZeroCoef>
-5.4800

> <Gold.Chemscore.Hbond>
2.8329

> <Gold.Chemscore.Metal>
0.0000

> <Gold.Chemscore.Lipo>
108.0753

> <Gold.Chemscore.Internal_Hbond>
0.0000

> <Gold.Chemscore.DEClash>
0.0632

> <Gold.Chemscore.DEInternal>
1.1044

> <Gold.Chemscore.Rot>
2.1178

> <Gold.Chemscore.Internal.Correction>
   9.000000E+99

> <Gold.Chemscore.Hbonds>
donor molecule, donor type, donor heavy atom, donor atom, acceptor molecule, acceptor atom, score
      L1  H     8    54       P1  8028  0.74
      L1  H    11    38       P1  7957  0.88
      P1  H  7989  7998       L1    11  0.43
      P1  H  7997  8008       L1    15  0.36

> <Gold.Chemscore.Hbond.Weighted>
-9.4618

> <Gold.Chemscore.Metal.Weighted>
-0.0000

> <Gold.Chemscore.Lipo.Weighted>
-12.6448

> <Gold.Chemscore.Internal_Hbond.Weighted>
0.0000

> <Gold.Chemscore.DEClash.Weighted>
0.0632

> <Gold.Chemscore.DEInternal.Weighted>
1.1044

> <Gold.Chemscore.Rot.Weighted>
5.4215

> <Gold.Chemscore.Internal.Correction.Weighted>
   9.000000E+99

> <Gold.Protein.RotatedTorsions>
[ 6907 6896 6895 6894 ] final   27.83 input  -60.11 | X-H torsion
[ 7974 7965 7964 7962 ] final   66.99 input  175.53 | X-H torsion
[ 8008 7997 7996 7995 ] final  -74.80 input   59.86 | X-H torsion
[ 10167 10162 10161 10158 ] final  155.89 input  -65.29 | X-H torsion
[ 10718 10713 10712 10709 ] final   26.52 input   66.30 | X-H torsion
[ 10763 10752 10751 10750 ] final   54.89 input  -60.55 | X-H torsion
[ 11005 11000 10999 10996 ] final  171.08 input  -57.11 | X-H torsion

> <Gold.Protein.ActiveResidues>
 VAL166  LYS551  ARG553  GLY616  TRP617  ASP618  TYR619  PRO620  LYS621  CYS622 
 ASP623  PHE694  ASN695  SER759  ASP760  ASP761  ALA762  ILE779  LEU786  VAL792 
 PHE793  MET794  SER795  GLU796  ALA797  LYS798  CYS799  TRP800  GLU811  SER814 

> <Gold.Protein.RotatedAtoms>
  152.0081  134.9891  160.0567 H   0  0  0  0  0  0  0  0  0  0  0  0  # atno 6907 bound_to 6896
  152.1455  133.4485  159.4796 H   0  0  0  0  0  0  0  0  0  0  0  0  # atno 6908 bound_to 6896
  150.6869  134.2171  159.4425 H   0  0  0  0  0  0  0  0  0  0  0  0  # atno 6909 bound_to 6896
  145.8200  139.3079  143.1049 H   0  0  0  0  0  0  0  0  0  0  0  0  # atno 7974 bound_to 7965
  154.5362  140.0755  156.8431 H   0  0  0  0  0  0  0  0  0  0  0  0  # atno 8008 bound_to 7997
  155.3274  140.3399  155.4222 H   0  0  0  0  0  0  0  0  0  0  0  0  # atno 8009 bound_to 7997
  156.1830  140.1659  156.8225 H   0  0  0  0  0  0  0  0  0  0  0  0  # atno 8010 bound_to 7997
  139.4821  144.5058  151.8100 H   0  0  0  0  0  0  0  0  0  0  0  0  # atno 10167 bound_to 10162
  157.2079  130.6920  149.6216 H   0  0  0  0  0  0  0  0  0  0  0  0  # atno 10718 bound_to 10713
  152.9810  135.5729  154.4977 H   0  0  0  0  0  0  0  0  0  0  0  0  # atno 10763 bound_to 10752
  154.4502  135.2778  155.1789 H   0  0  0  0  0  0  0  0  0  0  0  0  # atno 10764 bound_to 10752
  154.3420  135.6227  153.5654 H   0  0  0  0  0  0  0  0  0  0  0  0  # atno 10765 bound_to 10752
  140.3152  134.7483  157.4022 H   0  0  0  0  0  0  0  0  0  0  0  0  # atno 11005 bound_to 11000
  145.9685  140.8779  143.0174 LP  0  0  0  0  0  0  0  0  0  0  0  0  # atno 17320 bound_to 7965
  144.6748  140.1912  143.7396 LP  0  0  0  0  0  0  0  0  0  0  0  0  # atno 17321 bound_to 7965
  140.4556  144.1794  150.5901 LP  0  0  0  0  0  0  0  0  0  0  0  0  # atno 17342 bound_to 10162
  140.4539  143.2475  151.9311 LP  0  0  0  0  0  0  0  0  0  0  0  0  # atno 17343 bound_to 10162
  155.9693  130.4561  150.5911 LP  0  0  0  0  0  0  0  0  0  0  0  0  # atno 17370 bound_to 10713
  157.3701  131.0764  151.1564 LP  0  0  0  0  0  0  0  0  0  0  0  0  # atno 17371 bound_to 10713
  140.0990  134.5499  155.8371 LP  0  0  0  0  0  0  0  0  0  0  0  0  # atno 17394 bound_to 11000
  141.2099  133.6689  156.6472 LP  0  0  0  0  0  0  0  0  0  0  0  0  # atno 17395 bound_to 11000

$$$$
