AV-unprocessed.smi:2507|AV-procd|sdf|9863|dock6
  -GOLD-   2272013493D 1   1.00000     0.00000
 Structure written by MMmdl.
 44 45  0  0  0  0  0  0  0  0  1 V2000
  141.5472  135.5460  153.5332 C   0  0  0  0  0  0  0  0  0  0  0  0
  142.5290  136.6465  153.1155 C   0  0  0  0  0  0  0  0  0  0  0  0
  143.7043  136.0960  152.3548 C   0  0  0  0  0  0  0  0  0  0  0  0
  143.6777  134.8460  151.9117 N   0  0  0  0  0  0  0  0  0  0  0  0
  144.8616  134.6674  151.2786 N   0  0  0  0  0  0  0  0  0  0  0  0
  145.1549  133.3866  150.6723 C   0  0  0  0  0  0  0  0  0  0  0  0
  145.6496  135.7993  151.3140 C   0  0  0  0  0  0  0  0  0  0  0  0
  144.9257  136.7321  152.0016 C   0  0  0  0  0  0  0  0  0  0  0  0
  145.2696  138.0699  152.3257 N   0  0  0  0  0  0  0  0  0  0  0  0
  146.4725  138.6552  152.2070 C   0  0  0  0  0  0  0  0  0  0  0  0
  147.4843  138.1129  151.7621 O   0  0  0  0  0  0  0  0  0  0  0  0
  146.4426  139.9230  152.6385 N   0  0  0  0  0  0  0  0  0  0  0  0
  147.5922  140.8173  152.6425 C   0  0  0  0  0  0  0  0  0  0  0  0
  147.8967  141.3020  154.0677 C   0  0  0  0  0  0  0  0  0  0  0  0
  149.3667  141.0950  154.4666 C   0  0  2  0  0  0  0  0  0  0  0  0
  149.7625  139.6054  154.4619 C   0  0  0  0  0  0  0  0  0  0  0  0
  151.2088  139.4303  154.9391 C   0  0  0  0  0  0  0  0  0  0  0  0
  151.3949  140.1254  156.2918 C   0  0  0  0  0  0  0  0  0  0  0  0
  150.9114  141.5823  156.2156 C   0  0  0  0  0  0  0  0  0  0  0  0
  149.5565  141.6223  155.7784 O   0  0  0  0  0  0  0  0  0  0  0  0
  140.7005  135.9669  154.0758 H   0  0  0  0  0  0  0  0  0  0  0  0
  142.0282  134.8152  154.1841 H   0  0  0  0  0  0  0  0  0  0  0  0
  141.1565  135.0162  152.6638 H   0  0  0  0  0  0  0  0  0  0  0  0
  142.0044  137.3855  152.5095 H   0  0  0  0  0  0  0  0  0  0  0  0
  142.8752  137.1780  154.0026 H   0  0  0  0  0  0  0  0  0  0  0  0
  146.1104  133.4307  150.1492 H   0  0  0  0  0  0  0  0  0  0  0  0
  144.3726  133.1269  149.9583 H   0  0  0  0  0  0  0  0  0  0  0  0
  145.2073  132.6177  151.4437 H   0  0  0  0  0  0  0  0  0  0  0  0
  146.6276  135.8315  150.8572 H   0  0  0  0  0  0  0  0  0  0  0  0
  144.5234  138.6363  152.7018 H   0  0  0  0  0  0  0  0  0  0  0  0
  145.5703  140.2929  152.9868 H   0  0  0  0  0  0  0  0  0  0  0  0
  148.4608  140.2987  152.2333 H   0  0  0  0  0  0  0  0  0  0  0  0
  147.3846  141.6657  151.9889 H   0  0  0  0  0  0  0  0  0  0  0  0
  147.6376  142.3574  154.1637 H   0  0  0  0  0  0  0  0  0  0  0  0
  147.2567  140.7635  154.7680 H   0  0  0  0  0  0  0  0  0  0  0  0
  150.0019  141.6386  153.7647 H   0  0  0  0  0  0  0  0  0  0  0  0
  149.0929  139.0440  155.1148 H   0  0  0  0  0  0  0  0  0  0  0  0
  149.6482  139.1858  153.4619 H   0  0  0  0  0  0  0  0  0  0  0  0
  151.4593  138.3721  155.0165 H   0  0  0  0  0  0  0  0  0  0  0  0
  151.8920  139.8626  154.2068 H   0  0  0  0  0  0  0  0  0  0  0  0
  150.8289  139.5938  157.0576 H   0  0  0  0  0  0  0  0  0  0  0  0
  152.4418  140.0899  156.5943 H   0  0  0  0  0  0  0  0  0  0  0  0
  150.9776  142.0506  157.1977 H   0  0  0  0  0  0  0  0  0  0  0  0
  151.5390  142.1671  155.5416 H   0  0  0  0  0  0  0  0  0  0  0  0
  1  2  1  0  0  0  0
  1 21  1  0  0  0  0
  1 22  1  0  0  0  0
  1 23  1  0  0  0  0
  2  3  1  0  0  0  0
  2 24  1  0  0  0  0
  2 25  1  0  0  0  0
  3  8  1  0  0  0  0
  3  4  2  0  0  0  0
  4  5  1  0  0  0  0
  5  6  1  0  0  0  0
  5  7  1  0  0  0  0
  6 26  1  0  0  0  0
  6 27  1  0  0  0  0
  6 28  1  0  0  0  0
  7  8  2  0  0  0  0
  7 29  1  0  0  0  0
  8  9  1  0  0  0  0
  9 10  1  0  0  0  0
  9 30  1  0  0  0  0
 10 11  2  0  0  0  0
 10 12  1  0  0  0  0
 12 13  1  0  0  0  0
 12 31  1  0  0  0  0
 13 14  1  0  0  0  0
 13 32  1  0  0  0  0
 13 33  1  0  0  0  0
 14 15  1  0  0  0  0
 14 34  1  0  0  0  0
 14 35  1  0  0  0  0
 15 20  1  0  0  0  0
 15 16  1  0  0  0  0
 15 36  1  0  0  0  0
 16 17  1  0  0  0  0
 16 37  1  0  0  0  0
 16 38  1  0  0  0  0
 17 18  1  0  0  0  0
 17 39  1  0  0  0  0
 17 40  1  0  0  0  0
 18 19  1  0  0  0  0
 18 41  1  0  0  0  0
 18 42  1  0  0  0  0
 19 20  1  0  0  0  0
 19 43  1  0  0  0  0
 19 44  1  0  0  0  0
M  END
> <s_m_source_file>
AV-unprocessed.smi

> <i_m_source_file_index>
2507

> <i_lp_mmshare_version>
43012

> <i_f3d_flags>
0

> <s_epik_input>
W0NIM11bQ0gyXWMxbm4oW0NIM10pW2NIXWMxW05IXUMoPU8pW05IXVtDSDJdW0NIMl1bQ0BASF0yW0NIMl1bQ0gyXVtDSDJdW0NIMl1PMg==

> <s_epik_cmdline>
J2VwaWtfcHl0aG9uJywgJy1waCcsICc3LjAnLCAnLXRuJywgJzgnLCAnLW1hJywgJzIwMCcsICctbWV0YWxfYmluZGluZycsICctaW1hZScsICc8aW5maWxlLm1hZT4nLCAnLW9tYWUnLCAnPG91dGZpbGUubWFlPic=

> <r_lp_tautomer_probability>
1

> <r_epik_Ionization_Penalty>
0.00072031

> <r_epik_Ionization_Penalty_Charging>
0

> <r_epik_Ionization_Penalty_Neutral>
0.00072031

> <r_epik_State_Penalty>
-0

> <r_epik_Charging_Adjusted_Penalty>
0

> <i_epik_Tot_Q>
0

> <i_epik_Tot_abs_Q>
0

> <r_epik_Metal_State_Penalty>
-0

> <b_epik_Metal_Only>
0

> <s_lp_Force_Field>
OPLS_2005

> <r_lp_Energy>
7.60695

> <b_lp_Chiralities_Consistent>
1

> <s_lp_Variant>
AV-unprocessed.smi:2507-1

> <Gold.Version>
5.8.1

> <Gold.Id.Protein>
6NUR|6NUR_protein|mol2

> <Gold.PLP.Fitness>
44.6492

> <Gold.PLP.PLP>
-35.1449

> <Gold.PLP.part.hbond>
-4.0000

> <Gold.PLP.part.metal>
0.0000

> <Gold.PLP.part.buried>
-0.8962

> <Gold.PLP.part.nonpolar>
-35.8272

> <Gold.PLP.part.repulsive>
6.7890

> <Gold.PLP.ligand.clash>
0.0000

> <Gold.PLP.ligand.torsion>
0.5220

> <Gold.PLP.Chemscore.Hbond>
2.6000

> <Gold.PLP.Chemscore.CHOScore>
0.9023

> <Gold.PLP.Chemscore.Metal>
0.0000

> <Gold.Chemscore.Hbonds>
donor molecule, donor type, donor heavy atom, donor atom, acceptor molecule, acceptor atom, score
      L1  H     9    30       P1 10175  0.82
      L1  H    12    31       P1 10175  0.82
      P1  H  7954  7966       L1    11  1.00
      L1  C     7    29       P1  7948  1.00

> <Gold.PLP.Chemscore.Internal.Correction>
0.0412

> <Gold.Rescore>
     Score         DG    S(hbond)    S(metal)    S(lipo)     H(rot)  DE(clash)    DE(int)     intcor
     14.23     -20.43       2.55        0.00      87.85       1.50       4.64       1.56       ----

> <Gold.Chemscore.Fitness>
14.2294

> <Gold.Chemscore.DG>
-20.4275

> <Gold.Chemscore.ZeroCoef>
-5.4800

> <Gold.Chemscore.Hbond>
2.5508

> <Gold.Chemscore.Metal>
0.0000

> <Gold.Chemscore.Lipo>
87.8512

> <Gold.Chemscore.Internal_Hbond>
0.0000

> <Gold.Chemscore.DEClash>
4.6371

> <Gold.Chemscore.DEInternal>
1.5611

> <Gold.Chemscore.Rot>
1.5042

> <Gold.Chemscore.Internal.Correction>
   9.000000E+99

> <Gold.Chemscore.Hbonds>
donor molecule, donor type, donor heavy atom, donor atom, acceptor molecule, acceptor atom, score
      L1  H     9    30       P1 10175  0.77
      L1  H    12    31       P1 10175  0.77
      P1  H  7954  7966       L1    11  0.96

> <Gold.Chemscore.Hbond.Weighted>
-8.5196

> <Gold.Chemscore.Metal.Weighted>
-0.0000

> <Gold.Chemscore.Lipo.Weighted>
-10.2786

> <Gold.Chemscore.Internal_Hbond.Weighted>
0.0000

> <Gold.Chemscore.DEClash.Weighted>
4.6371

> <Gold.Chemscore.DEInternal.Weighted>
1.5611

> <Gold.Chemscore.Rot.Weighted>
3.8507

> <Gold.Chemscore.Internal.Correction.Weighted>
   9.000000E+99

> <Gold.Protein.RotatedTorsions>
[ 6907 6896 6895 6894 ] final  140.00 input  -60.11 | X-H torsion
[ 7974 7965 7964 7962 ] final  131.56 input  175.53 | X-H torsion
[ 8008 7997 7996 7995 ] final  -31.64 input   59.86 | X-H torsion
[ 10167 10162 10161 10158 ] final  165.57 input  -65.29 | X-H torsion
[ 10718 10713 10712 10709 ] final  140.52 input   66.30 | X-H torsion
[ 10763 10752 10751 10750 ] final    7.19 input  -60.55 | X-H torsion
[ 11005 11000 10999 10996 ] final   80.86 input  -57.11 | X-H torsion

> <Gold.Protein.ActiveResidues>
 VAL166  LYS551  ARG553  GLY616  TRP617  ASP618  TYR619  PRO620  LYS621  CYS622 
 ASP623  PHE694  ASN695  SER759  ASP760  ASP761  ALA762  ILE779  LEU786  VAL792 
 PHE793  MET794  SER795  GLU796  ALA797  LYS798  CYS799  TRP800  GLU811  SER814 

> <Gold.Protein.RotatedAtoms>
  152.2482  133.5192  159.5309 H   0  0  0  0  0  0  0  0  0  0  0  0  # atno 6907 bound_to 6896
  150.7085  134.0996  159.3970 H   0  0  0  0  0  0  0  0  0  0  0  0  # atno 6908 bound_to 6896
  151.8916  135.0414  160.0549 H   0  0  0  0  0  0  0  0  0  0  0  0  # atno 6909 bound_to 6896
  145.0060  139.4266  143.5268 H   0  0  0  0  0  0  0  0  0  0  0  0  # atno 7974 bound_to 7965
  154.4207  140.1759  156.1599 H   0  0  0  0  0  0  0  0  0  0  0  0  # atno 8008 bound_to 7997
  155.9847  140.3374  155.6671 H   0  0  0  0  0  0  0  0  0  0  0  0  # atno 8009 bound_to 7997
  155.6453  140.0684  157.2595 H   0  0  0  0  0  0  0  0  0  0  0  0  # atno 8010 bound_to 7997
  139.4908  144.4118  151.9290 H   0  0  0  0  0  0  0  0  0  0  0  0  # atno 10167 bound_to 10162
  157.4023  131.1018  151.0539 H   0  0  0  0  0  0  0  0  0  0  0  0  # atno 10718 bound_to 10713
  153.2391  135.6901  153.7803 H   0  0  0  0  0  0  0  0  0  0  0  0  # atno 10763 bound_to 10752
  153.6940  135.3308  155.3210 H   0  0  0  0  0  0  0  0  0  0  0  0  # atno 10764 bound_to 10752
  154.8347  135.4552  154.1306 H   0  0  0  0  0  0  0  0  0  0  0  0  # atno 10765 bound_to 10752
  139.9119  134.7952  156.1965 H   0  0  0  0  0  0  0  0  0  0  0  0  # atno 11005 bound_to 11000
  146.3461  139.9476  142.8733 LP  0  0  0  0  0  0  0  0  0  0  0  0  # atno 17320 bound_to 7965
  145.2088  140.9886  143.4112 LP  0  0  0  0  0  0  0  0  0  0  0  0  # atno 17321 bound_to 7965
  140.3560  144.3031  150.5941 LP  0  0  0  0  0  0  0  0  0  0  0  0  # atno 17342 bound_to 10162
  140.5444  143.2217  151.8031 LP  0  0  0  0  0  0  0  0  0  0  0  0  # atno 17343 bound_to 10162
  157.1533  130.6194  149.5589 LP  0  0  0  0  0  0  0  0  0  0  0  0  # atno 17370 bound_to 10713
  155.9827  130.4841  150.6893 LP  0  0  0  0  0  0  0  0  0  0  0  0  # atno 17371 bound_to 10713
  141.0551  133.6869  156.1846 LP  0  0  0  0  0  0  0  0  0  0  0  0  # atno 17394 bound_to 11000
  140.6749  134.4829  157.5588 LP  0  0  0  0  0  0  0  0  0  0  0  0  # atno 17395 bound_to 11000

$$$$
