AV-unprocessed.smi:2163|AV-procd|sdf|8804|dock9
  -GOLD-   2272011593D 1   1.00000     0.00000
 Structure written by MMmdl.
 43 45  0  0  0  0  0  0  0  0  1 V2000
  154.1639  141.6675  162.8823 C   0  0  0  0  0  0  0  0  0  0  0  0
  153.5061  142.5014  161.8290 C   0  0  0  0  0  0  0  0  0  0  0  0
  152.7606  143.5655  162.1282 N   0  0  0  0  0  0  0  0  0  0  0  0
  152.3699  144.0216  160.8839 C   0  0  0  0  0  0  0  0  0  0  0  0
  151.5637  145.1239  160.5203 C   0  0  0  0  0  0  0  0  0  0  0  0
  151.2998  145.3980  159.1621 C   0  0  0  0  0  0  0  0  0  0  0  0
  151.8368  144.5760  158.1500 C   0  0  0  0  0  0  0  0  0  0  0  0
  152.6416  143.4717  158.4905 C   0  0  0  0  0  0  0  0  0  0  0  0
  152.9011  143.2025  159.8476 C   0  0  0  0  0  0  0  0  0  0  0  0
  153.6309  142.2198  160.5084 N   0  0  0  0  0  0  0  0  0  0  0  0
  154.3688  141.1330  159.8799 C   0  0  0  0  0  0  0  0  0  0  0  0
  153.4534  139.9696  159.4499 C   0  0  2  0  0  0  0  0  0  0  0  0
  154.0660  139.2323  158.4109 O   0  0  0  0  0  0  0  0  0  0  0  0
  152.0803  140.4553  158.9633 C   0  0  0  0  0  0  0  0  0  0  0  0
  151.5932  139.5410  157.9900 O   0  0  0  0  0  0  0  0  0  0  0  0
  150.6556  139.9865  157.0839 C   0  0  0  0  0  0  0  0  0  0  0  0
  150.2764  141.3441  156.9292 C   0  0  0  0  0  0  0  0  0  0  0  0
  149.3080  141.7090  155.9735 C   0  0  0  0  0  0  0  0  0  0  0  0
  148.7065  140.7277  155.1615 C   0  0  0  0  0  0  0  0  0  0  0  0
  147.6694  141.1212  154.1306 C   0  0  0  0  0  0  0  0  0  0  0  0
  146.6154  141.9700  154.7066 C   0  0  0  0  0  0  0  0  0  0  0  0
  145.7864  142.6379  155.1596 N   0  0  0  0  0  0  0  0  0  0  0  0
  149.0788  139.3776  155.3097 C   0  0  0  0  0  0  0  0  0  0  0  0
  150.0466  139.0134  156.2652 C   0  0  0  0  0  0  0  0  0  0  0  0
  153.9044  142.0317  163.8769 H   0  0  0  0  0  0  0  0  0  0  0  0
  155.2479  141.7100  162.7739 H   0  0  0  0  0  0  0  0  0  0  0  0
  153.8402  140.6297  162.8022 H   0  0  0  0  0  0  0  0  0  0  0  0
  151.1483  145.7598  161.2879 H   0  0  0  0  0  0  0  0  0  0  0  0
  150.6824  146.2432  158.8956 H   0  0  0  0  0  0  0  0  0  0  0  0
  151.6304  144.7933  157.1122 H   0  0  0  0  0  0  0  0  0  0  0  0
  153.0546  142.8392  157.7188 H   0  0  0  0  0  0  0  0  0  0  0  0
  154.8864  141.5414  159.0111 H   0  0  0  0  0  0  0  0  0  0  0  0
  155.1481  140.7774  160.5540 H   0  0  0  0  0  0  0  0  0  0  0  0
  153.3077  139.2886  160.2895 H   0  0  0  0  0  0  0  0  0  0  0  0
  153.4887  138.5250  158.1666 H   0  0  0  0  0  0  0  0  0  0  0  0
  151.3893  140.5316  159.8046 H   0  0  0  0  0  0  0  0  0  0  0  0
  152.1785  141.4453  158.5141 H   0  0  0  0  0  0  0  0  0  0  0  0
  150.7151  142.1255  157.5305 H   0  0  0  0  0  0  0  0  0  0  0  0
  149.0295  142.7469  155.8639 H   0  0  0  0  0  0  0  0  0  0  0  0
  148.1432  141.6654  153.3133 H   0  0  0  0  0  0  0  0  0  0  0  0
  147.2035  140.2317  153.7057 H   0  0  0  0  0  0  0  0  0  0  0  0
  148.6244  138.6186  154.6898 H   0  0  0  0  0  0  0  0  0  0  0  0
  150.3248  137.9750  156.3710 H   0  0  0  0  0  0  0  0  0  0  0  0
  1  2  1  0  0  0  0
  1 25  1  0  0  0  0
  1 26  1  0  0  0  0
  1 27  1  0  0  0  0
  2 10  1  0  0  0  0
  2  3  2  0  0  0  0
  3  4  1  0  0  0  0
  4  9  2  0  0  0  0
  4  5  1  0  0  0  0
  5  6  2  0  0  0  0
  5 28  1  0  0  0  0
  6  7  1  0  0  0  0
  6 29  1  0  0  0  0
  7  8  2  0  0  0  0
  7 30  1  0  0  0  0
  8  9  1  0  0  0  0
  8 31  1  0  0  0  0
  9 10  1  0  0  0  0
 10 11  1  0  0  0  0
 11 12  1  0  0  0  0
 11 32  1  0  0  0  0
 11 33  1  0  0  0  0
 12 13  1  0  0  0  0
 12 14  1  0  0  0  0
 12 34  1  0  0  0  0
 13 35  1  0  0  0  0
 14 15  1  0  0  0  0
 14 36  1  0  0  0  0
 14 37  1  0  0  0  0
 15 16  1  0  0  0  0
 16 24  1  0  0  0  0
 16 17  2  0  0  0  0
 17 18  1  0  0  0  0
 17 38  1  0  0  0  0
 18 19  2  0  0  0  0
 18 39  1  0  0  0  0
 19 20  1  0  0  0  0
 19 23  1  0  0  0  0
 20 21  1  0  0  0  0
 20 40  1  0  0  0  0
 20 41  1  0  0  0  0
 21 22  3  0  0  0  0
 23 24  2  0  0  0  0
 23 42  1  0  0  0  0
 24 43  1  0  0  0  0
M  END
> <s_m_source_file>
AV-unprocessed.smi

> <i_m_source_file_index>
2163

> <i_lp_mmshare_version>
43012

> <i_f3d_flags>
0

> <s_epik_input>
W2NIXTFbY0hdW2NIXVtjSF1jKGMxMiluKGMobjIpW0NIM10pW0NIMl1bQ0BIXShbT0hdKVtDSDJdT2MzW2NIXVtjSF1jKFtDSDJdQyNOKVtjSF1bY0hdMw==

> <s_epik_cmdline>
J2VwaWtfcHl0aG9uJywgJy1waCcsICc3LjAnLCAnLXRuJywgJzgnLCAnLW1hJywgJzIwMCcsICctbWV0YWxfYmluZGluZycsICctaW1hZScsICc8aW5maWxlLm1hZT4nLCAnLW9tYWUnLCAnPG91dGZpbGUubWFlPic=

> <r_lp_tautomer_probability>
1

> <r_epik_Ionization_Penalty>
0.114213

> <r_epik_Ionization_Penalty_Charging>
0

> <r_epik_Ionization_Penalty_Neutral>
0.114213

> <r_epik_State_Penalty>
0.103875

> <r_epik_Charging_Adjusted_Penalty>
0.103875

> <i_epik_Tot_Q>
0

> <i_epik_Tot_abs_Q>
0

> <r_epik_Metal_State_Penalty>
0.000113526

> <b_epik_Metal_Only>
0

> <s_lp_Force_Field>
OPLS_2005

> <r_lp_Energy>
15.1167

> <b_lp_Chiralities_Consistent>
1

> <s_lp_Variant>
AV-unprocessed.smi:2163-1

> <Gold.Version>
5.8.1

> <Gold.Id.Protein>
6NUR|6NUR_protein|mol2

> <Gold.PLP.Fitness>
58.4823

> <Gold.PLP.PLP>
-57.8650

> <Gold.PLP.part.hbond>
-1.0000

> <Gold.PLP.part.metal>
0.0000

> <Gold.PLP.part.buried>
-4.0492

> <Gold.PLP.part.nonpolar>
-52.3885

> <Gold.PLP.part.repulsive>
0.3539

> <Gold.PLP.ligand.clash>
0.0000

> <Gold.PLP.ligand.torsion>
1.2160

> <Gold.PLP.Chemscore.Hbond>
1.0000

> <Gold.PLP.Chemscore.CHOScore>
0.0000

> <Gold.PLP.Chemscore.Metal>
0.0000

> <Gold.Chemscore.Hbonds>
donor molecule, donor type, donor heavy atom, donor atom, acceptor molecule, acceptor atom, score
      P1  H  7997  8008       L1    13  1.00

> <Gold.PLP.Chemscore.Internal.Correction>
0.0493

> <Gold.Rescore>
     Score         DG    S(hbond)    S(metal)    S(lipo)     H(rot)  DE(clash)    DE(int)     intcor
     17.69     -19.57       0.96        0.00     147.92       2.51       0.90       0.97       ----

> <Gold.Chemscore.Fitness>
17.6916

> <Gold.Chemscore.DG>
-19.5673

> <Gold.Chemscore.ZeroCoef>
-5.4800

> <Gold.Chemscore.Hbond>
0.9611

> <Gold.Chemscore.Metal>
0.0000

> <Gold.Chemscore.Lipo>
147.9214

> <Gold.Chemscore.Internal_Hbond>
0.0000

> <Gold.Chemscore.DEClash>
0.9014

> <Gold.Chemscore.DEInternal>
0.9743

> <Gold.Chemscore.Rot>
2.5115

> <Gold.Chemscore.Internal.Correction>
   9.000000E+99

> <Gold.Chemscore.Hbonds>
donor molecule, donor type, donor heavy atom, donor atom, acceptor molecule, acceptor atom, score
      P1  H  7997  8008       L1    13  0.86

> <Gold.Chemscore.Hbond.Weighted>
-3.2100

> <Gold.Chemscore.Metal.Weighted>
-0.0000

> <Gold.Chemscore.Lipo.Weighted>
-17.3068

> <Gold.Chemscore.Internal_Hbond.Weighted>
0.0000

> <Gold.Chemscore.DEClash.Weighted>
0.9014

> <Gold.Chemscore.DEInternal.Weighted>
0.9743

> <Gold.Chemscore.Rot.Weighted>
6.4296

> <Gold.Chemscore.Internal.Correction.Weighted>
   9.000000E+99

> <Gold.Protein.RotatedTorsions>
[ 6907 6896 6895 6894 ] final   87.71 input  -60.11 | X-H torsion
[ 7974 7965 7964 7962 ] final -160.17 input  175.53 | X-H torsion
[ 8008 7997 7996 7995 ] final  -93.84 input   59.86 | X-H torsion
[ 10167 10162 10161 10158 ] final -175.35 input  -65.29 | X-H torsion
[ 10718 10713 10712 10709 ] final   11.81 input   66.30 | X-H torsion
[ 10763 10752 10751 10750 ] final   86.11 input  -60.55 | X-H torsion
[ 11005 11000 10999 10996 ] final -128.86 input  -57.11 | X-H torsion

> <Gold.Protein.ActiveResidues>
 VAL166  LYS551  ARG553  GLY616  TRP617  ASP618  TYR619  PRO620  LYS621  CYS622 
 ASP623  PHE694  ASN695  SER759  ASP760  ASP761  ALA762  ILE779  LEU786  VAL792 
 PHE793  MET794  SER795  GLU796  ALA797  LYS798  CYS799  TRP800  GLU811  SER814 

> <Gold.Protein.RotatedAtoms>
  152.5415  134.2235  159.8796 H   0  0  0  0  0  0  0  0  0  0  0  0  # atno 6907 bound_to 6896
  151.2210  133.4495  159.2608 H   0  0  0  0  0  0  0  0  0  0  0  0  # atno 6908 bound_to 6896
  151.0805  134.9868  159.8409 H   0  0  0  0  0  0  0  0  0  0  0  0  # atno 6909 bound_to 6896
  144.7437  140.3580  143.6102 H   0  0  0  0  0  0  0  0  0  0  0  0  # atno 7974 bound_to 7965
  154.7408  140.0495  157.0809 H   0  0  0  0  0  0  0  0  0  0  0  0  # atno 8008 bound_to 7997
  155.0181  140.3144  155.4785 H   0  0  0  0  0  0  0  0  0  0  0  0  # atno 8009 bound_to 7997
  156.2864  140.2172  156.5298 H   0  0  0  0  0  0  0  0  0  0  0  0  # atno 8010 bound_to 7997
  139.5585  144.1928  152.1200 H   0  0  0  0  0  0  0  0  0  0  0  0  # atno 10167 bound_to 10162
  157.0011  130.6080  149.5696 H   0  0  0  0  0  0  0  0  0  0  0  0  # atno 10718 bound_to 10713
  153.1538  135.4592  154.9675 H   0  0  0  0  0  0  0  0  0  0  0  0  # atno 10763 bound_to 10752
  154.7846  135.3199  154.7918 H   0  0  0  0  0  0  0  0  0  0  0  0  # atno 10764 bound_to 10752
  153.8418  135.6929  153.4856 H   0  0  0  0  0  0  0  0  0  0  0  0  # atno 10765 bound_to 10752
  140.9481  134.1103  157.4088 H   0  0  0  0  0  0  0  0  0  0  0  0  # atno 11005 bound_to 11000
  145.7206  139.1709  143.2486 LP  0  0  0  0  0  0  0  0  0  0  0  0  # atno 17320 bound_to 7965
  146.1280  140.7223  142.9426 LP  0  0  0  0  0  0  0  0  0  0  0  0  # atno 17321 bound_to 7965
  140.1437  144.5179  150.6729 LP  0  0  0  0  0  0  0  0  0  0  0  0  # atno 17342 bound_to 10162
  140.6862  143.2351  151.5254 LP  0  0  0  0  0  0  0  0  0  0  0  0  # atno 17343 bound_to 10162
  156.0171  130.5265  150.8166 LP  0  0  0  0  0  0  0  0  0  0  0  0  # atno 17370 bound_to 10713
  157.5390  131.0940  150.9854 LP  0  0  0  0  0  0  0  0  0  0  0  0  # atno 17371 bound_to 10713
  139.8839  135.0057  156.6333 LP  0  0  0  0  0  0  0  0  0  0  0  0  # atno 17394 bound_to 11000
  140.7641  133.8792  155.8441 LP  0  0  0  0  0  0  0  0  0  0  0  0  # atno 17395 bound_to 11000

$$$$
