AV-unprocessed.smi:1644|AV-procd|sdf|6597|dock8
  -GOLD-   22720 7303D 1   1.00000     0.00000
 Structure written by MMmdl.
 49 51  0  0  0  0  0  0  0  0  3 V2000
  148.4757  132.7709  153.2889 C   0  0  0  0  0  0  0  0  0  0  0  0
  149.3321  133.4390  154.3703 C   0  0  0  0  0  0  0  0  0  0  0  0
  148.5886  133.5747  155.7090 C   0  0  0  0  0  0  0  0  0  0  0  0
  149.2116  134.6286  156.6493 C   0  0  1  0  0  0  0  0  0  0  0  0
  150.4977  134.1945  157.1560 N   0  5  0  0  0  0  0  0  0  0  0  0
  151.4367  135.0959  156.7863 C   0  0  0  0  0  0  0  0  0  0  0  0
  152.6406  135.0479  157.0360 O   0  0  0  0  0  0  0  0  0  0  0  0
  150.8914  136.0954  156.0678 N   0  0  0  0  0  0  0  0  0  0  0  0
  151.6346  137.2116  155.4730 C   0  0  0  0  0  0  0  0  0  0  0  0
  150.9426  138.5629  155.7470 C   0  0  2  0  0  0  0  0  0  0  0  0
  149.9982  138.8016  154.7217 O   0  0  0  0  0  0  0  0  0  0  0  0
  151.9510  139.7281  155.7709 C   0  0  0  0  0  0  0  0  0  0  0  0
  151.4137  140.9325  156.4204 N   0  0  0  0  0  0  0  0  0  0  0  0
  150.4829  141.8163  155.9701 C   0  0  0  0  0  0  0  0  0  0  0  0
  150.3192  142.7666  156.9317 N   0  3  0  0  0  0  0  0  0  0  0  0
  151.1618  142.4877  158.0099 C   0  0  0  0  0  0  0  0  0  0  0  0
  151.3544  143.1599  159.2109 C   0  0  0  0  0  0  0  0  0  0  0  0
  152.2997  142.6169  160.1100 C   0  0  0  0  0  0  0  0  0  0  0  0
  152.5356  143.3286  161.4312 C   0  0  0  0  0  0  0  0  0  0  0  0
  153.0159  141.4346  159.7899 C   0  0  0  0  0  0  0  0  0  0  0  0
  154.0334  140.8620  160.7619 C   0  0  0  0  0  0  0  0  0  0  0  0
  152.8037  140.7644  158.5638 C   0  0  0  0  0  0  0  0  0  0  0  0
  151.8681  141.3124  157.6889 C   0  0  0  0  0  0  0  0  0  0  0  0
  149.5773  135.9027  155.9155 C   0  0  0  0  0  0  0  0  0  0  0  0
  148.7817  136.6040  155.2888 O   0  0  0  0  0  0  0  0  0  0  0  0
  149.0289  132.6847  152.3535 H   0  0  0  0  0  0  0  0  0  0  0  0
  147.5726  133.3485  153.0897 H   0  0  0  0  0  0  0  0  0  0  0  0
  148.1733  131.7678  153.5909 H   0  0  0  0  0  0  0  0  0  0  0  0
  150.2435  132.8582  154.5157 H   0  0  0  0  0  0  0  0  0  0  0  0
  149.6461  134.4231  154.0205 H   0  0  0  0  0  0  0  0  0  0  0  0
  147.5388  133.8093  155.5238 H   0  0  0  0  0  0  0  0  0  0  0  0
  148.5955  132.6025  156.2039 H   0  0  0  0  0  0  0  0  0  0  0  0
  148.5110  134.8818  157.4462 H   0  0  0  0  0  0  0  0  0  0  0  0
  152.6350  137.2182  155.9094 H   0  0  0  0  0  0  0  0  0  0  0  0
  151.7940  137.0605  154.4036 H   0  0  0  0  0  0  0  0  0  0  0  0
  150.4207  138.5318  156.7047 H   0  0  0  0  0  0  0  0  0  0  0  0
  149.2666  138.2157  154.8487 H   0  0  0  0  0  0  0  0  0  0  0  0
  152.8380  139.4362  156.3343 H   0  0  0  0  0  0  0  0  0  0  0  0
  152.2964  139.9787  154.7674 H   0  0  0  0  0  0  0  0  0  0  0  0
  149.9681  141.7712  155.0211 H   0  0  0  0  0  0  0  0  0  0  0  0
  150.8066  144.0605  159.4470 H   0  0  0  0  0  0  0  0  0  0  0  0
  152.2751  142.6790  162.2672 H   0  0  0  0  0  0  0  0  0  0  0  0
  151.9316  144.2331  161.5105 H   0  0  0  0  0  0  0  0  0  0  0  0
  153.5820  143.6182  161.5298 H   0  0  0  0  0  0  0  0  0  0  0  0
  154.4799  139.9441  160.3780 H   0  0  0  0  0  0  0  0  0  0  0  0
  153.5629  140.6285  161.7173 H   0  0  0  0  0  0  0  0  0  0  0  0
  154.8388  141.5756  160.9371 H   0  0  0  0  0  0  0  0  0  0  0  0
  153.3546  139.8691  158.3164 H   0  0  0  0  0  0  0  0  0  0  0  0
  149.6809  143.5481  156.8545 H   0  0  0  0  0  0  0  0  0  0  0  0
  1  2  1  0  0  0  0
  1 26  1  0  0  0  0
  1 27  1  0  0  0  0
  1 28  1  0  0  0  0
  2  3  1  0  0  0  0
  2 29  1  0  0  0  0
  2 30  1  0  0  0  0
  3  4  1  0  0  0  0
  3 31  1  0  0  0  0
  3 32  1  0  0  0  0
  4 24  1  0  0  0  0
  4  5  1  0  0  0  0
  4 33  1  0  0  0  0
  5  6  1  0  0  0  0
  6  7  2  0  0  0  0
  6  8  1  0  0  0  0
  8  9  1  0  0  0  0
  8 24  1  0  0  0  0
  9 10  1  0  0  0  0
  9 34  1  0  0  0  0
  9 35  1  0  0  0  0
 10 11  1  0  0  0  0
 10 12  1  0  0  0  0
 10 36  1  0  0  0  0
 11 37  1  0  0  0  0
 12 13  1  0  0  0  0
 12 38  1  0  0  0  0
 12 39  1  0  0  0  0
 13 23  1  0  0  0  0
 13 14  1  0  0  0  0
 14 15  2  0  0  0  0
 14 40  1  0  0  0  0
 15 16  1  0  0  0  0
 15 49  1  0  0  0  0
 16 23  2  0  0  0  0
 16 17  1  0  0  0  0
 17 18  2  0  0  0  0
 17 41  1  0  0  0  0
 18 19  1  0  0  0  0
 18 20  1  0  0  0  0
 19 42  1  0  0  0  0
 19 43  1  0  0  0  0
 19 44  1  0  0  0  0
 20 21  1  0  0  0  0
 20 22  2  0  0  0  0
 21 45  1  0  0  0  0
 21 46  1  0  0  0  0
 21 47  1  0  0  0  0
 22 23  1  0  0  0  0
 22 48  1  0  0  0  0
 24 25  2  0  0  0  0
M  CHG  1   5  -1
M  CHG  1  15   1
M  END
> <s_m_source_file>
AV-unprocessed.smi

> <i_m_source_file_index>
1644

> <i_lp_mmshare_version>
43012

> <i_f3d_flags>
0

> <s_epik_input>
W0NIM11bQ0gyXVtDSDJdW0NAQEhdMVtOSF1DKD1PKU4oQzE9TylbQ0gyXVtDQEhdKFtPSF0pW0NIMl1uKFtjSF1uMiljKGMyMylbY0hdYyhbQ0gzXSljKFtjSF0zKVtDSDNd

> <s_epik_cmdline>
J2VwaWtfcHl0aG9uJywgJy1waCcsICc3LjAnLCAnLXRuJywgJzgnLCAnLW1hJywgJzIwMCcsICctbWV0YWxfYmluZGluZycsICctaW1hZScsICc8aW5maWxlLm1hZT4nLCAnLW9tYWUnLCAnPG91dGZpbGUubWFlPic=

> <r_lp_tautomer_probability>
1

> <r_epik_Ionization_Penalty>
6.86868

> <r_epik_Ionization_Penalty_Charging>
6.86868

> <r_epik_Ionization_Penalty_Neutral>
5.84798e-07

> <r_epik_State_Penalty>
6.92818

> <r_epik_Charging_Adjusted_Penalty>
13.7969

> <i_epik_Tot_Q>
0

> <i_epik_Tot_abs_Q>
2

> <r_epik_Metal_State_Penalty>
2.98017

> <b_epik_Metal_Only>
1

> <s_lp_Force_Field>
OPLS_2005

> <r_lp_Energy>
23.8384

> <b_lp_Chiralities_Consistent>
1

> <s_lp_Variant>
AV-unprocessed.smi:1644-14

> <Gold.Version>
5.8.1

> <Gold.Id.Protein>
6NUR|6NUR_protein|mol2

> <Gold.PLP.Fitness>
55.2472

> <Gold.PLP.PLP>
-44.2904

> <Gold.PLP.part.hbond>
-3.7264

> <Gold.PLP.part.metal>
0.0000

> <Gold.PLP.part.buried>
-5.2077

> <Gold.PLP.part.nonpolar>
-36.1787

> <Gold.PLP.part.repulsive>
0.1380

> <Gold.PLP.ligand.clash>
0.0000

> <Gold.PLP.ligand.torsion>
0.9312

> <Gold.PLP.Chemscore.Hbond>
4.2438

> <Gold.PLP.Chemscore.CHOScore>
0.0000

> <Gold.PLP.Chemscore.Metal>
0.0000

> <Gold.Chemscore.Hbonds>
donor molecule, donor type, donor heavy atom, donor atom, acceptor molecule, acceptor atom, score
      L1  H    15    49       P1  8028  1.79
      P1  H  6896  6907       L1     5  0.96
      P1  H 10752 10764       L1     7  1.00

> <Gold.PLP.Chemscore.Internal.Correction>
0.0879

> <Gold.Rescore>
     Score         DG    S(hbond)    S(metal)    S(lipo)     H(rot)  DE(clash)    DE(int)     intcor
     14.96     -19.15       2.32        0.00     110.25       2.72       0.44       3.76       ----

> <Gold.Chemscore.Fitness>
14.9556

> <Gold.Chemscore.DG>
-19.1532

> <Gold.Chemscore.ZeroCoef>
-5.4800

> <Gold.Chemscore.Hbond>
2.3200

> <Gold.Chemscore.Metal>
0.0000

> <Gold.Chemscore.Lipo>
110.2491

> <Gold.Chemscore.Internal_Hbond>
0.0000

> <Gold.Chemscore.DEClash>
0.4363

> <Gold.Chemscore.DEInternal>
3.7613

> <Gold.Chemscore.Rot>
2.7245

> <Gold.Chemscore.Internal.Correction>
   9.000000E+99

> <Gold.Chemscore.Hbonds>
donor molecule, donor type, donor heavy atom, donor atom, acceptor molecule, acceptor atom, score
      L1  H    15    49       P1  8028  0.87
      P1  H  6896  6907       L1     5  0.26
      P1  H 10752 10764       L1     7  0.34

> <Gold.Chemscore.Hbond.Weighted>
-7.7489

> <Gold.Chemscore.Metal.Weighted>
-0.0000

> <Gold.Chemscore.Lipo.Weighted>
-12.8991

> <Gold.Chemscore.Internal_Hbond.Weighted>
0.0000

> <Gold.Chemscore.DEClash.Weighted>
0.4363

> <Gold.Chemscore.DEInternal.Weighted>
3.7613

> <Gold.Chemscore.Rot.Weighted>
6.9748

> <Gold.Chemscore.Internal.Correction.Weighted>
   9.000000E+99

> <Gold.Protein.RotatedTorsions>
[ 6907 6896 6895 6894 ] final -120.98 input  -60.11 | X-H torsion
[ 7974 7965 7964 7962 ] final  -77.39 input  175.53 | X-H torsion
[ 8008 7997 7996 7995 ] final   93.00 input   59.86 | X-H torsion
[ 10167 10162 10161 10158 ] final  119.37 input  -65.29 | X-H torsion
[ 10718 10713 10712 10709 ] final  136.32 input   66.30 | X-H torsion
[ 10763 10752 10751 10750 ] final   -7.48 input  -60.55 | X-H torsion
[ 11005 11000 10999 10996 ] final   75.79 input  -57.11 | X-H torsion

> <Gold.Protein.ActiveResidues>
 VAL166  LYS551  ARG553  GLY616  TRP617  ASP618  TYR619  PRO620  LYS621  CYS622 
 ASP623  PHE694  ASN695  SER759  ASP760  ASP761  ALA762  ILE779  LEU786  VAL792 
 PHE793  MET794  SER795  GLU796  ALA797  LYS798  CYS799  TRP800  GLU811  SER814 

> <Gold.Protein.RotatedAtoms>
  150.8442  133.7887  159.3049 H   0  0  0  0  0  0  0  0  0  0  0  0  # atno 6907 bound_to 6896
  151.5579  135.1064  159.9975 H   0  0  0  0  0  0  0  0  0  0  0  0  # atno 6908 bound_to 6896
  152.4500  133.7567  159.6780 H   0  0  0  0  0  0  0  0  0  0  0  0  # atno 6909 bound_to 6896
  145.6004  140.9410  143.1244 H   0  0  0  0  0  0  0  0  0  0  0  0  # atno 7974 bound_to 7965
  156.0418  140.3318  155.7252 H   0  0  0  0  0  0  0  0  0  0  0  0  # atno 8008 bound_to 7997
  155.5733  140.0630  157.2819 H   0  0  0  0  0  0  0  0  0  0  0  0  # atno 8009 bound_to 7997
  154.4396  140.1857  156.0889 H   0  0  0  0  0  0  0  0  0  0  0  0  # atno 8010 bound_to 7997
  139.6051  144.7067  151.2973 H   0  0  0  0  0  0  0  0  0  0  0  0  # atno 10167 bound_to 10162
  157.4479  131.1063  151.0067 H   0  0  0  0  0  0  0  0  0  0  0  0  # atno 10718 bound_to 10713
  153.4269  135.7011  153.6256 H   0  0  0  0  0  0  0  0  0  0  0  0  # atno 10763 bound_to 10752
  153.4687  135.3719  155.2379 H   0  0  0  0  0  0  0  0  0  0  0  0  # atno 10764 bound_to 10752
  154.8724  135.4037  154.3647 H   0  0  0  0  0  0  0  0  0  0  0  0  # atno 10765 bound_to 10752
  139.9327  134.7547  156.1315 H   0  0  0  0  0  0  0  0  0  0  0  0  # atno 11005 bound_to 11000
  144.7312  139.7719  143.7346 LP  0  0  0  0  0  0  0  0  0  0  0  0  # atno 17320 bound_to 7965
  146.1581  139.4685  143.0006 LP  0  0  0  0  0  0  0  0  0  0  0  0  # atno 17321 bound_to 7965
  140.7278  143.6952  150.7890 LP  0  0  0  0  0  0  0  0  0  0  0  0  # atno 17342 bound_to 10162
  140.0536  143.5225  152.2662 LP  0  0  0  0  0  0  0  0  0  0  0  0  # atno 17343 bound_to 10162
  157.0908  130.5941  149.5439 LP  0  0  0  0  0  0  0  0  0  0  0  0  # atno 17370 bound_to 10713
  155.9975  130.5047  150.7536 LP  0  0  0  0  0  0  0  0  0  0  0  0  # atno 17371 bound_to 10713
  141.0925  133.6708  156.2572 LP  0  0  0  0  0  0  0  0  0  0  0  0  # atno 17394 bound_to 11000
  140.6158  134.5412  157.5540 LP  0  0  0  0  0  0  0  0  0  0  0  0  # atno 17395 bound_to 11000

$$$$
