AV-unprocessed.smi:1540|AV-procd|sdf|6198|dock1
  -GOLD-   22720 6363D 1   1.00000     0.00000
 Structure written by MMmdl.
 33 33  0  0  0  0  0  0  0  0  1 V2000
  157.6943  136.0389  156.2110 C   0  0  0  0  0  0  0  0  0  0  0  0
  156.5881  136.7884  156.3280 C   0  0  0  0  0  0  0  0  0  0  0  0
  155.5665  136.6427  157.4336 C   0  0  0  0  0  0  0  0  0  0  0  0
  154.2703  136.4493  156.8810 O   0  0  0  0  0  0  0  0  0  0  0  0
  153.1837  136.8801  157.6971 C   0  0  2  0  0  0  0  0  0  0  0  0
  151.8916  136.3386  157.0677 C   0  0  0  0  0  0  0  0  0  0  0  0
  153.1582  138.4144  157.7924 C   0  0  0  0  0  0  0  0  0  0  0  0
  154.0700  138.9995  158.3764 O   0  0  0  0  0  0  0  0  0  0  0  0
  152.1035  139.0126  157.2038 N   0  0  0  0  0  0  0  0  0  0  0  0
  151.7679  140.3757  157.1496 C   0  0  0  0  0  0  0  0  0  0  0  0
  152.0686  141.2881  158.1106 C   0  0  0  0  0  0  0  0  0  0  0  0
  151.6830  142.6848  157.9961 C   0  0  0  0  0  0  0  0  0  0  0  0
  151.9748  143.6835  159.1058 C   0  0  0  0  0  0  0  0  0  0  0  0
  150.8489  144.1681  159.6314 F   0  0  0  0  0  0  0  0  0  0  0  0
  152.6829  143.1171  160.0831 F   0  0  0  0  0  0  0  0  0  0  0  0
  152.6805  144.7047  158.6219 F   0  0  0  0  0  0  0  0  0  0  0  0
  150.9843  143.0264  156.8978 C   0  0  0  0  0  0  0  0  0  0  0  0
  150.6704  142.0945  155.9058 N   0  0  0  0  0  0  0  0  0  0  0  0
  151.0095  140.7869  155.9566 C   0  0  0  0  0  0  0  0  0  0  0  0
  150.6858  140.0254  155.0457 O   0  0  0  0  0  0  0  0  0  0  0  0
  150.1503  142.4307  155.1081 H   0  0  0  0  0  0  0  0  0  0  0  0
  157.9246  135.2622  156.9254 H   0  0  0  0  0  0  0  0  0  0  0  0
  158.3854  136.1936  155.3956 H   0  0  0  0  0  0  0  0  0  0  0  0
  156.3896  137.5568  155.5951 H   0  0  0  0  0  0  0  0  0  0  0  0
  155.8338  135.7991  158.0720 H   0  0  0  0  0  0  0  0  0  0  0  0
  155.6012  137.5436  158.0464 H   0  0  0  0  0  0  0  0  0  0  0  0
  153.2869  136.4460  158.6935 H   0  0  0  0  0  0  0  0  0  0  0  0
  151.0142  136.6439  157.6392 H   0  0  0  0  0  0  0  0  0  0  0  0
  151.9034  135.2488  157.0407 H   0  0  0  0  0  0  0  0  0  0  0  0
  151.7644  136.6908  156.0432 H   0  0  0  0  0  0  0  0  0  0  0  0
  151.4746  138.4063  156.6968 H   0  0  0  0  0  0  0  0  0  0  0  0
  152.5959  140.9990  159.0048 H   0  0  0  0  0  0  0  0  0  0  0  0
  150.6114  144.0203  156.6981 H   0  0  0  0  0  0  0  0  0  0  0  0
  1  2  2  0  0  0  0
  1 22  1  0  0  0  0
  1 23  1  0  0  0  0
  2  3  1  0  0  0  0
  2 24  1  0  0  0  0
  3  4  1  0  0  0  0
  3 25  1  0  0  0  0
  3 26  1  0  0  0  0
  4  5  1  0  0  0  0
  5  6  1  0  0  0  0
  5  7  1  0  0  0  0
  5 27  1  0  0  0  0
  6 28  1  0  0  0  0
  6 29  1  0  0  0  0
  6 30  1  0  0  0  0
  7  8  2  0  0  0  0
  7  9  1  0  0  0  0
  9 10  1  0  0  0  0
  9 31  1  0  0  0  0
 10 19  1  0  0  0  0
 10 11  2  0  0  0  0
 11 12  1  0  0  0  0
 11 32  1  0  0  0  0
 12 13  1  0  0  0  0
 12 17  2  0  0  0  0
 13 14  1  0  0  0  0
 13 15  1  0  0  0  0
 13 16  1  0  0  0  0
 17 18  1  0  0  0  0
 17 33  1  0  0  0  0
 18 21  1  0  0  0  0
 18 19  1  0  0  0  0
 19 20  2  0  0  0  0
M  END
> <s_m_source_file>
AV-unprocessed.smi

> <i_m_source_file_index>
1540

> <i_lp_mmshare_version>
43012

> <i_f3d_flags>
0

> <s_epik_input>
W0NIMl09W0NIXVtDSDJdT1tDQEhdKFtDSDNdKUMoPU8pW05IXWMxW2NIXWMoQyhGKShGKUYpW2NIXVtuSF1jMT1P

> <s_epik_cmdline>
J2VwaWtfcHl0aG9uJywgJy1waCcsICc3LjAnLCAnLXRuJywgJzgnLCAnLW1hJywgJzIwMCcsICctbWV0YWxfYmluZGluZycsICctaW1hZScsICc8aW5maWxlLm1hZT4nLCAnLW9tYWUnLCAnPG91dGZpbGUubWFlPic=

> <r_lp_tautomer_probability>
0.999

> <r_epik_Ionization_Penalty>
0.0086731

> <r_epik_Ionization_Penalty_Charging>
0.00867296

> <r_epik_Ionization_Penalty_Neutral>
1.3954e-07

> <r_epik_State_Penalty>
0.00654787

> <r_epik_Charging_Adjusted_Penalty>
0.0152208

> <i_epik_Tot_Q>
0

> <i_epik_Tot_abs_Q>
0

> <r_epik_Metal_State_Penalty>
0.320056

> <b_epik_Metal_Only>
0

> <s_lp_Force_Field>
OPLS_2005

> <r_lp_Energy>
17.7944

> <b_lp_Chiralities_Consistent>
1

> <s_lp_Variant>
AV-unprocessed.smi:1540-1

> <Gold.Version>
5.8.1

> <Gold.Id.Protein>
6NUR|6NUR_protein|mol2

> <Gold.PLP.Fitness>
42.1690

> <Gold.PLP.PLP>
-33.4882

> <Gold.PLP.part.hbond>
-3.7005

> <Gold.PLP.part.metal>
0.0000

> <Gold.PLP.part.buried>
-2.3598

> <Gold.PLP.part.nonpolar>
-27.9310

> <Gold.PLP.part.repulsive>
0.2593

> <Gold.PLP.ligand.clash>
2.3070

> <Gold.PLP.ligand.torsion>
0.5183

> <Gold.PLP.Chemscore.Hbond>
2.9920

> <Gold.PLP.Chemscore.CHOScore>
1.0000

> <Gold.PLP.Chemscore.Metal>
0.0000

> <Gold.Chemscore.Hbonds>
donor molecule, donor type, donor heavy atom, donor atom, acceptor molecule, acceptor atom, score
      P1  H  7989  7998       L1    20  1.00
      P1  H  7997  8010       L1     8  1.00
      P1  H 10752 10763       L1     4  0.96
      L1  C    17    33       P1  8028  1.00

> <Gold.PLP.Chemscore.Internal.Correction>
0.0484

> <Gold.Rescore>
     Score         DG    S(hbond)    S(metal)    S(lipo)     H(rot)  DE(clash)    DE(int)     intcor
     15.91     -16.82       2.54        0.00      64.01       1.81       0.02       0.88       ----

> <Gold.Chemscore.Fitness>
15.9084

> <Gold.Chemscore.DG>
-16.8168

> <Gold.Chemscore.ZeroCoef>
-5.4800

> <Gold.Chemscore.Hbond>
2.5382

> <Gold.Chemscore.Metal>
0.0000

> <Gold.Chemscore.Lipo>
64.0073

> <Gold.Chemscore.Internal_Hbond>
0.0000

> <Gold.Chemscore.DEClash>
0.0239

> <Gold.Chemscore.DEInternal>
0.8846

> <Gold.Chemscore.Rot>
1.8084

> <Gold.Chemscore.Internal.Correction>
   9.000000E+99

> <Gold.Chemscore.Hbonds>
donor molecule, donor type, donor heavy atom, donor atom, acceptor molecule, acceptor atom, score
      P1  H  7989  7998       L1    20  0.29
      P1  H  7997  8010       L1     8  0.78
      P1  H 10752 10763       L1     4  0.87

> <Gold.Chemscore.Hbond.Weighted>
-8.4775

> <Gold.Chemscore.Metal.Weighted>
-0.0000

> <Gold.Chemscore.Lipo.Weighted>
-7.4889

> <Gold.Chemscore.Internal_Hbond.Weighted>
0.0000

> <Gold.Chemscore.DEClash.Weighted>
0.0239

> <Gold.Chemscore.DEInternal.Weighted>
0.8846

> <Gold.Chemscore.Rot.Weighted>
4.6296

> <Gold.Chemscore.Internal.Correction.Weighted>
   9.000000E+99

> <Gold.Protein.RotatedTorsions>
[ 6907 6896 6895 6894 ] final   10.80 input  -60.11 | X-H torsion
[ 7974 7965 7964 7962 ] final  -97.66 input  175.53 | X-H torsion
[ 8008 7997 7996 7995 ] final    8.10 input   59.86 | X-H torsion
[ 10167 10162 10161 10158 ] final   19.08 input  -65.29 | X-H torsion
[ 10718 10713 10712 10709 ] final -150.68 input   66.30 | X-H torsion
[ 10763 10752 10751 10750 ] final  136.06 input  -60.55 | X-H torsion
[ 11005 11000 10999 10996 ] final   39.84 input  -57.11 | X-H torsion

> <Gold.Protein.ActiveResidues>
 VAL166  LYS551  ARG553  GLY616  TRP617  ASP618  TYR619  PRO620  LYS621  CYS622 
 ASP623  PHE694  ASN695  SER759  ASP760  ASP761  ALA762  ILE779  LEU786  VAL792 
 PHE793  MET794  SER795  GLU796  ALA797  LYS798  CYS799  TRP800  GLU811  SER814 

> <Gold.Protein.RotatedAtoms>
  151.7440  135.0848  160.0319 H   0  0  0  0  0  0  0  0  0  0  0  0  # atno 6907 bound_to 6896
  152.3461  133.6119  159.5919 H   0  0  0  0  0  0  0  0  0  0  0  0  # atno 6908 bound_to 6896
  150.7509  133.9564  159.3543 H   0  0  0  0  0  0  0  0  0  0  0  0  # atno 6909 bound_to 6896
  145.3308  140.9441  143.2663 H   0  0  0  0  0  0  0  0  0  0  0  0  # atno 7974 bound_to 7965
  154.7625  140.2787  155.6203 H   0  0  0  0  0  0  0  0  0  0  0  0  # atno 8008 bound_to 7997
  156.2918  140.2657  156.2334 H   0  0  0  0  0  0  0  0  0  0  0  0  # atno 8009 bound_to 7997
  155.0000  140.0373  157.2346 H   0  0  0  0  0  0  0  0  0  0  0  0  # atno 8010 bound_to 7997
  140.5606  143.9345  150.6639 H   0  0  0  0  0  0  0  0  0  0  0  0  # atno 10167 bound_to 10162
  156.4493  130.8160  151.2390 H   0  0  0  0  0  0  0  0  0  0  0  0  # atno 10718 bound_to 10713
  153.8502  135.3080  155.3432 H   0  0  0  0  0  0  0  0  0  0  0  0  # atno 10763 bound_to 10752
  154.7894  135.4791  154.0022 H   0  0  0  0  0  0  0  0  0  0  0  0  # atno 10764 bound_to 10752
  153.1523  135.6845  153.8957 H   0  0  0  0  0  0  0  0  0  0  0  0  # atno 10765 bound_to 10752
  140.1988  134.3895  155.8107 H   0  0  0  0  0  0  0  0  0  0  0  0  # atno 11005 bound_to 11000
  144.8866  139.4831  143.6698 LP  0  0  0  0  0  0  0  0  0  0  0  0  # atno 17320 bound_to 7965
  146.3046  139.7538  142.9066 LP  0  0  0  0  0  0  0  0  0  0  0  0  # atno 17321 bound_to 7965
  140.2794  143.3400  152.1165 LP  0  0  0  0  0  0  0  0  0  0  0  0  # atno 17342 bound_to 10162
  139.5068  144.6820  151.5983 LP  0  0  0  0  0  0  0  0  0  0  0  0  # atno 17343 bound_to 10162
  157.7503  131.0143  150.3459 LP  0  0  0  0  0  0  0  0  0  0  0  0  # atno 17370 bound_to 10713
  156.3834  130.3884  149.7084 LP  0  0  0  0  0  0  0  0  0  0  0  0  # atno 17371 bound_to 10713
  141.2227  133.7083  156.8223 LP  0  0  0  0  0  0  0  0  0  0  0  0  # atno 17394 bound_to 11000
  140.2077  134.8851  157.3240 LP  0  0  0  0  0  0  0  0  0  0  0  0  # atno 17395 bound_to 11000

$$$$
