AV-unprocessed.smi:1807|AV-procd|sdf|7303|dock4
  -GOLD-   22720 8563D 1   1.00000     0.00000
 Structure written by MMmdl.
 44 45  0  0  0  0  0  0  0  0  1 V2000
  147.8608  133.6470  153.1164 C   0  0  0  0  0  0  0  0  0  0  0  0
  146.3835  133.7226  152.6939 C   0  0  2  0  0  0  0  0  0  0  0  0
  146.2204  133.5374  151.1710 C   0  0  0  0  0  0  0  0  0  0  0  0
  144.7403  133.5443  150.7569 C   0  0  0  0  0  0  0  0  0  0  0  0
  144.0336  134.8241  151.2278 C   0  0  0  0  0  0  0  0  0  0  0  0
  144.1924  135.0224  152.7457 C   0  0  0  0  0  0  0  0  0  0  0  0
  145.6706  135.0094  153.1853 C   0  0  2  0  0  0  0  0  0  0  0  0
  146.3381  136.2213  152.7058 N   0  0  0  0  0  0  0  0  0  0  0  0
  145.9475  137.4859  152.9265 C   0  0  0  0  0  0  0  0  0  0  0  0
  144.9451  137.7833  153.5786 O   0  0  0  0  0  0  0  0  0  0  0  0
  146.8350  138.5661  152.3029 C   0  0  0  0  0  0  0  0  0  0  0  0
  148.1159  138.6863  152.9854 N   0  0  0  0  0  0  0  0  0  0  0  0
  148.3726  139.8061  153.7830 C   0  0  0  0  0  0  0  0  0  0  0  0
  147.4181  140.8443  153.9596 C   0  0  0  0  0  0  0  0  0  0  0  0
  148.0559  141.7147  154.7974 C   0  0  0  0  0  0  0  0  0  0  0  0
  149.3037  141.1891  155.0725 N   0  0  0  0  0  0  0  0  0  0  0  0
  150.3474  141.7391  155.9187 C   0  0  0  0  0  0  0  0  0  0  0  0
  149.8537  141.9218  157.3551 C   0  0  0  0  0  0  0  0  0  0  0  0
  148.8982  142.8320  157.5612 N   0  0  0  0  0  0  0  0  0  0  0  0
  150.3285  141.2496  158.2678 O   0  0  0  0  0  0  0  0  0  0  0  0
  149.5022  140.0094  154.4436 N   0  0  0  0  0  0  0  0  0  0  0  0
  148.4613  134.4150  152.6282 H   0  0  0  0  0  0  0  0  0  0  0  0
  148.2914  132.6801  152.8557 H   0  0  0  0  0  0  0  0  0  0  0  0
  147.9678  133.7744  154.1940 H   0  0  0  0  0  0  0  0  0  0  0  0
  145.8822  132.8805  153.1737 H   0  0  0  0  0  0  0  0  0  0  0  0
  146.7520  134.3283  150.6403 H   0  0  0  0  0  0  0  0  0  0  0  0
  146.6793  132.5987  150.8590 H   0  0  0  0  0  0  0  0  0  0  0  0
  144.6568  133.4513  149.6736 H   0  0  0  0  0  0  0  0  0  0  0  0
  144.2392  132.6735  151.1814 H   0  0  0  0  0  0  0  0  0  0  0  0
  144.4427  135.6843  150.6966 H   0  0  0  0  0  0  0  0  0  0  0  0
  142.9755  134.7798  150.9691 H   0  0  0  0  0  0  0  0  0  0  0  0
  143.7153  135.9542  153.0523 H   0  0  0  0  0  0  0  0  0  0  0  0
  143.6590  134.2255  153.2651 H   0  0  0  0  0  0  0  0  0  0  0  0
  145.6798  135.0048  154.2767 H   0  0  0  0  0  0  0  0  0  0  0  0
  147.1746  136.0837  152.1573 H   0  0  0  0  0  0  0  0  0  0  0  0
  147.0039  138.3271  151.2515 H   0  0  0  0  0  0  0  0  0  0  0  0
  146.3099  139.5213  152.3437 H   0  0  0  0  0  0  0  0  0  0  0  0
  148.8353  137.9996  152.8090 H   0  0  0  0  0  0  0  0  0  0  0  0
  146.4257  140.9354  153.5435 H   0  0  0  0  0  0  0  0  0  0  0  0
  147.7287  142.6536  155.2189 H   0  0  0  0  0  0  0  0  0  0  0  0
  151.2124  141.0738  155.9071 H   0  0  0  0  0  0  0  0  0  0  0  0
  150.6731  142.6937  155.5029 H   0  0  0  0  0  0  0  0  0  0  0  0
  148.5376  142.9862  158.4915 H   0  0  0  0  0  0  0  0  0  0  0  0
  148.5367  143.3619  156.7812 H   0  0  0  0  0  0  0  0  0  0  0  0
  1  2  1  0  0  0  0
  1 22  1  0  0  0  0
  1 23  1  0  0  0  0
  1 24  1  0  0  0  0
  2  7  1  0  0  0  0
  2  3  1  0  0  0  0
  2 25  1  0  0  0  0
  3  4  1  0  0  0  0
  3 26  1  0  0  0  0
  3 27  1  0  0  0  0
  4  5  1  0  0  0  0
  4 28  1  0  0  0  0
  4 29  1  0  0  0  0
  5  6  1  0  0  0  0
  5 30  1  0  0  0  0
  5 31  1  0  0  0  0
  6  7  1  0  0  0  0
  6 32  1  0  0  0  0
  6 33  1  0  0  0  0
  7  8  1  0  0  0  0
  7 34  1  0  0  0  0
  8  9  1  0  0  0  0
  8 35  1  0  0  0  0
  9 10  2  0  0  0  0
  9 11  1  0  0  0  0
 11 12  1  0  0  0  0
 11 36  1  0  0  0  0
 11 37  1  0  0  0  0
 12 13  1  0  0  0  0
 12 38  1  0  0  0  0
 13 21  2  0  0  0  0
 13 14  1  0  0  0  0
 14 15  2  0  0  0  0
 14 39  1  0  0  0  0
 15 16  1  0  0  0  0
 15 40  1  0  0  0  0
 16 17  1  0  0  0  0
 16 21  1  0  0  0  0
 17 18  1  0  0  0  0
 17 41  1  0  0  0  0
 17 42  1  0  0  0  0
 18 19  1  0  0  0  0
 18 20  2  0  0  0  0
 19 43  1  0  0  0  0
 19 44  1  0  0  0  0
M  END
> <s_m_source_file>
AV-unprocessed.smi

> <i_m_source_file_index>
1807

> <i_lp_mmshare_version>
43012

> <i_f3d_flags>
0

> <s_epik_input>
W0NIM11bQ0BASF0xW0NIMl1bQ0gyXVtDSDJdW0NIMl1bQ0BIXTFbTkhdQyg9TylbQ0gyXVtOSF1jMltjSF1bY0hdbihuMilbQ0gyXUMoPU8pW05IMl0=

> <s_epik_cmdline>
J2VwaWtfcHl0aG9uJywgJy1waCcsICc3LjAnLCAnLXRuJywgJzgnLCAnLW1hJywgJzIwMCcsICctbWV0YWxfYmluZGluZycsICctaW1hZScsICc8aW5maWxlLm1hZT4nLCAnLW9tYWUnLCAnPG91dGZpbGUubWFlPic=

> <r_lp_tautomer_probability>
1

> <r_epik_Ionization_Penalty>
0.000167642

> <r_epik_Ionization_Penalty_Charging>
0

> <r_epik_Ionization_Penalty_Neutral>
0.000167642

> <r_epik_State_Penalty>
-0

> <r_epik_Charging_Adjusted_Penalty>
0

> <i_epik_Tot_Q>
0

> <i_epik_Tot_abs_Q>
0

> <r_epik_Metal_State_Penalty>
-0

> <b_epik_Metal_Only>
0

> <s_lp_Force_Field>
OPLS_2005

> <r_lp_Energy>
5.83979

> <b_lp_Chiralities_Consistent>
1

> <s_lp_Variant>
AV-unprocessed.smi:1807-3

> <Gold.Version>
5.8.1

> <Gold.Id.Protein>
6NUR|6NUR_protein|mol2

> <Gold.PLP.Fitness>
44.5840

> <Gold.PLP.PLP>
-33.4947

> <Gold.PLP.part.hbond>
-4.1171

> <Gold.PLP.part.metal>
0.0000

> <Gold.PLP.part.buried>
-2.6474

> <Gold.PLP.part.nonpolar>
-27.6907

> <Gold.PLP.part.repulsive>
0.5533

> <Gold.PLP.ligand.clash>
0.0000

> <Gold.PLP.ligand.torsion>
0.2429

> <Gold.PLP.Chemscore.Hbond>
2.8473

> <Gold.PLP.Chemscore.CHOScore>
1.0000

> <Gold.PLP.Chemscore.Metal>
0.0000

> <Gold.Chemscore.Hbonds>
donor molecule, donor type, donor heavy atom, donor atom, acceptor molecule, acceptor atom, score
      L1  H     8    35       P1  7948  1.00
      L1  H    12    38       P1  7948  0.74
      L1  H    19    44       P1  8028  0.90
      L1  C    15    40       P1  8028  1.00

> <Gold.PLP.Chemscore.Internal.Correction>
0.0332

> <Gold.Rescore>
     Score         DG    S(hbond)    S(metal)    S(lipo)     H(rot)  DE(clash)    DE(int)     intcor
     12.44     -14.47       2.68        0.00      57.96       2.64       0.62       1.41       ----

> <Gold.Chemscore.Fitness>
12.4429

> <Gold.Chemscore.DG>
-14.4692

> <Gold.Chemscore.ZeroCoef>
-5.4800

> <Gold.Chemscore.Hbond>
2.6822

> <Gold.Chemscore.Metal>
0.0000

> <Gold.Chemscore.Lipo>
57.9565

> <Gold.Chemscore.Internal_Hbond>
0.0000

> <Gold.Chemscore.DEClash>
0.6185

> <Gold.Chemscore.DEInternal>
1.4078

> <Gold.Chemscore.Rot>
2.6369

> <Gold.Chemscore.Internal.Correction>
   9.000000E+99

> <Gold.Chemscore.Hbonds>
donor molecule, donor type, donor heavy atom, donor atom, acceptor molecule, acceptor atom, score
      L1  H     8    35       P1  7948  0.98
      L1  H    12    38       P1  7948  0.72
      L1  H    19    44       P1  8028  0.39

> <Gold.Chemscore.Hbond.Weighted>
-8.9587

> <Gold.Chemscore.Metal.Weighted>
-0.0000

> <Gold.Chemscore.Lipo.Weighted>
-6.7809

> <Gold.Chemscore.Internal_Hbond.Weighted>
0.0000

> <Gold.Chemscore.DEClash.Weighted>
0.6185

> <Gold.Chemscore.DEInternal.Weighted>
1.4078

> <Gold.Chemscore.Rot.Weighted>
6.7504

> <Gold.Chemscore.Internal.Correction.Weighted>
   9.000000E+99

> <Gold.Protein.RotatedTorsions>
[ 6907 6896 6895 6894 ] final   66.76 input  -60.11 | X-H torsion
[ 7974 7965 7964 7962 ] final  -37.26 input  175.53 | X-H torsion
[ 8008 7997 7996 7995 ] final -116.33 input   59.86 | X-H torsion
[ 10167 10162 10161 10158 ] final  -17.16 input  -65.29 | X-H torsion
[ 10718 10713 10712 10709 ] final   77.56 input   66.30 | X-H torsion
[ 10763 10752 10751 10750 ] final   66.94 input  -60.55 | X-H torsion
[ 11005 11000 10999 10996 ] final   19.99 input  -57.11 | X-H torsion

> <Gold.Protein.ActiveResidues>
 VAL166  LYS551  ARG553  GLY616  TRP617  ASP618  TYR619  PRO620  LYS621  CYS622 
 ASP623  PHE694  ASN695  SER759  ASP760  ASP761  ALA762  ILE779  LEU786  VAL792 
 PHE793  MET794  SER795  GLU796  ALA797  LYS798  CYS799  TRP800  GLU811  SER814 

> <Gold.Protein.RotatedAtoms>
  152.4504  134.5405  159.9837 H   0  0  0  0  0  0  0  0  0  0  0  0  # atno 6907 bound_to 6896
  151.5479  133.3416  159.2955 H   0  0  0  0  0  0  0  0  0  0  0  0  # atno 6908 bound_to 6896
  150.8431  134.7763  159.7012 H   0  0  0  0  0  0  0  0  0  0  0  0  # atno 6909 bound_to 6896
  146.0590  140.6375  142.9006 H   0  0  0  0  0  0  0  0  0  0  0  0  # atno 7974 bound_to 7965
  155.0661  140.0393  157.2593 H   0  0  0  0  0  0  0  0  0  0  0  0  # atno 8008 bound_to 7997
  154.7020  140.2675  155.6686 H   0  0  0  0  0  0  0  0  0  0  0  0  # atno 8009 bound_to 7997
  156.2763  140.2738  156.1634 H   0  0  0  0  0  0  0  0  0  0  0  0  # atno 8010 bound_to 7997
  140.7243  143.5043  150.9829 H   0  0  0  0  0  0  0  0  0  0  0  0  # atno 10167 bound_to 10162
  157.6714  130.9827  150.1658 H   0  0  0  0  0  0  0  0  0  0  0  0  # atno 10718 bound_to 10713
  153.0163  135.5302  154.6901 H   0  0  0  0  0  0  0  0  0  0  0  0  # atno 10763 bound_to 10752
  154.6038  135.2871  155.0509 H   0  0  0  0  0  0  0  0  0  0  0  0  # atno 10764 bound_to 10752
  154.1556  135.6556  153.5026 H   0  0  0  0  0  0  0  0  0  0  0  0  # atno 10765 bound_to 10752
  140.4076  134.1652  155.7666 H   0  0  0  0  0  0  0  0  0  0  0  0  # atno 11005 bound_to 11000
  144.7164  140.4224  143.7041 LP  0  0  0  0  0  0  0  0  0  0  0  0  # atno 17320 bound_to 7965
  145.6593  139.1578  143.2817 LP  0  0  0  0  0  0  0  0  0  0  0  0  # atno 17321 bound_to 7965
  139.8754  143.7139  152.3162 LP  0  0  0  0  0  0  0  0  0  0  0  0  # atno 17342 bound_to 10162
  139.7403  144.7561  151.0663 LP  0  0  0  0  0  0  0  0  0  0  0  0  # atno 17343 bound_to 10162
  156.2424  130.3692  149.8322 LP  0  0  0  0  0  0  0  0  0  0  0  0  # atno 17370 bound_to 10713
  156.6119  130.8590  151.3456 LP  0  0  0  0  0  0  0  0  0  0  0  0  # atno 17371 bound_to 10713
  141.1833  133.8367  157.1179 LP  0  0  0  0  0  0  0  0  0  0  0  0  # atno 17394 bound_to 11000
  140.0291  134.9910  157.0744 LP  0  0  0  0  0  0  0  0  0  0  0  0  # atno 17395 bound_to 11000

$$$$
