AV-unprocessed.smi:1065|AV-procd|sdf|4667|dock2
  -GOLD-   22720 3183D 1   1.00000     0.00000
 Structure written by MMmdl.
 39 40  0  0  0  0  0  0  0  0  1 V2000
  153.0133  139.9153  159.6735 C   0  0  0  0  0  0  0  0  0  0  0  0
  153.2436  141.3495  160.1699 C   0  0  0  0  0  0  0  0  0  0  0  0
  152.6432  142.4370  159.2559 C   0  0  2  0  0  0  0  0  0  0  0  0
  152.8211  143.8353  159.8814 C   0  0  0  0  0  0  0  0  0  0  0  0
  152.2262  144.9441  158.9951 C   0  0  0  0  0  0  0  0  0  0  0  0
  150.7412  144.7001  158.6602 C   0  0  2  0  0  0  0  0  0  0  0  0
  149.8210  144.9644  159.8721 C   0  0  0  0  0  0  0  0  0  0  0  0
  148.4166  144.8617  159.4998 N   0  0  0  0  0  0  0  0  0  0  0  0
  147.4407  144.3999  160.2949 C   0  0  0  0  0  0  0  0  0  0  0  0
  147.6177  144.0686  161.4667 O   0  0  0  0  0  0  0  0  0  0  0  0
  146.0513  144.2838  159.6675 C   0  0  0  0  0  0  0  0  0  0  0  0
  145.2049  143.3972  160.4447 N   0  0  0  0  0  0  0  0  0  0  0  0
  144.0840  143.6323  161.1302 C   0  0  0  0  0  0  0  0  0  0  0  0
  143.6354  142.5366  161.7233 N   0  0  0  0  0  0  0  0  0  0  0  0
  144.5652  141.5772  161.3578 N   0  0  0  0  0  0  0  0  0  0  0  0
  145.4992  142.0818  160.5994 N   0  0  0  0  0  0  0  0  0  0  0  0
  150.5694  143.2940  158.0427 C   0  0  0  0  0  0  0  0  0  0  0  0
  151.1544  142.1852  158.9342 C   0  0  0  0  0  0  0  0  0  0  0  0
  153.5274  139.1994  160.3151 H   0  0  0  0  0  0  0  0  0  0  0  0
  153.3928  139.7830  158.6600 H   0  0  0  0  0  0  0  0  0  0  0  0
  151.9560  139.6515  159.6755 H   0  0  0  0  0  0  0  0  0  0  0  0
  152.8485  141.4540  161.1812 H   0  0  0  0  0  0  0  0  0  0  0  0
  154.3196  141.5081  160.2500 H   0  0  0  0  0  0  0  0  0  0  0  0
  153.1979  142.4264  158.3163 H   0  0  0  0  0  0  0  0  0  0  0  0
  152.3580  143.8611  160.8683 H   0  0  0  0  0  0  0  0  0  0  0  0
  153.8810  144.0367  160.0414 H   0  0  0  0  0  0  0  0  0  0  0  0
  152.3502  145.9139  159.4781 H   0  0  0  0  0  0  0  0  0  0  0  0
  152.7964  144.9962  158.0667 H   0  0  0  0  0  0  0  0  0  0  0  0
  150.4622  145.4260  157.8945 H   0  0  0  0  0  0  0  0  0  0  0  0
  150.0402  144.2639  160.6788 H   0  0  0  0  0  0  0  0  0  0  0  0
  150.0002  145.9648  160.2674 H   0  0  0  0  0  0  0  0  0  0  0  0
  148.1769  145.1151  158.5519 H   0  0  0  0  0  0  0  0  0  0  0  0
  145.5771  145.2647  159.6174 H   0  0  0  0  0  0  0  0  0  0  0  0
  146.1330  143.9097  158.6457 H   0  0  0  0  0  0  0  0  0  0  0  0
  143.6058  144.5986  161.1989 H   0  0  0  0  0  0  0  0  0  0  0  0
  149.5209  143.0844  157.8289 H   0  0  0  0  0  0  0  0  0  0  0  0
  151.0756  143.2687  157.0769 H   0  0  0  0  0  0  0  0  0  0  0  0
  151.0340  141.2299  158.4238 H   0  0  0  0  0  0  0  0  0  0  0  0
  150.5797  142.1108  159.8580 H   0  0  0  0  0  0  0  0  0  0  0  0
  1  2  1  0  0  0  0
  1 19  1  0  0  0  0
  1 20  1  0  0  0  0
  1 21  1  0  0  0  0
  2  3  1  0  0  0  0
  2 22  1  0  0  0  0
  2 23  1  0  0  0  0
  3 18  1  0  0  0  0
  3  4  1  0  0  0  0
  3 24  1  0  0  0  0
  4  5  1  0  0  0  0
  4 25  1  0  0  0  0
  4 26  1  0  0  0  0
  5  6  1  0  0  0  0
  5 27  1  0  0  0  0
  5 28  1  0  0  0  0
  6  7  1  0  0  0  0
  6 17  1  0  0  0  0
  6 29  1  0  0  0  0
  7  8  1  0  0  0  0
  7 30  1  0  0  0  0
  7 31  1  0  0  0  0
  8  9  1  0  0  0  0
  8 32  1  0  0  0  0
  9 10  2  0  0  0  0
  9 11  1  0  0  0  0
 11 12  1  0  0  0  0
 11 33  1  0  0  0  0
 11 34  1  0  0  0  0
 12 16  1  0  0  0  0
 12 13  1  0  0  0  0
 13 14  2  0  0  0  0
 13 35  1  0  0  0  0
 14 15  1  0  0  0  0
 15 16  2  0  0  0  0
 17 18  1  0  0  0  0
 17 36  1  0  0  0  0
 17 37  1  0  0  0  0
 18 38  1  0  0  0  0
 18 39  1  0  0  0  0
M  END
> <s_m_source_file>
AV-unprocessed.smi

> <i_m_source_file_index>
1065

> <i_lp_mmshare_version>
43012

> <i_f3d_flags>
0

> <s_epik_input>
W0NIM11bQ0gyXVtDQEBIXTFbQ0gyXVtDSDJdW0NASF0oW0NIMl1bQ0gyXTEpW0NIMl1bTkhdQyg9TylbQ0gyXW4yW2NIXW5ubjI=

> <s_epik_cmdline>
J2VwaWtfcHl0aG9uJywgJy1waCcsICc3LjAnLCAnLXRuJywgJzgnLCAnLW1hJywgJzIwMCcsICctbWV0YWxfYmluZGluZycsICctaW1hZScsICc8aW5maWxlLm1hZT4nLCAnLW9tYWUnLCAnPG91dGZpbGUubWFlPic=

> <r_lp_tautomer_probability>
1

> <r_epik_Ionization_Penalty>
4.54759e-07

> <r_epik_Ionization_Penalty_Charging>
0

> <r_epik_Ionization_Penalty_Neutral>
4.54759e-07

> <r_epik_State_Penalty>
-0

> <r_epik_Charging_Adjusted_Penalty>
0

> <i_epik_Tot_Q>
0

> <i_epik_Tot_abs_Q>
0

> <r_epik_Metal_State_Penalty>
-0

> <b_epik_Metal_Only>
0

> <s_lp_Force_Field>
OPLS_2005

> <r_lp_Energy>
15.297

> <b_lp_Chiralities_Consistent>
1

> <s_lp_Variant>
AV-unprocessed.smi:1065-2

> <Gold.Version>
5.8.1

> <Gold.Id.Protein>
6NUR|6NUR_protein|mol2

> <Gold.PLP.Fitness>
49.0101

> <Gold.PLP.PLP>
-40.8919

> <Gold.PLP.part.hbond>
-7.1963

> <Gold.PLP.part.metal>
0.0000

> <Gold.PLP.part.buried>
-7.3219

> <Gold.PLP.part.nonpolar>
-26.9410

> <Gold.PLP.part.repulsive>
0.2667

> <Gold.PLP.ligand.clash>
0.0000

> <Gold.PLP.ligand.torsion>
0.4743

> <Gold.PLP.Chemscore.Hbond>
3.0000

> <Gold.PLP.Chemscore.CHOScore>
0.0000

> <Gold.PLP.Chemscore.Metal>
0.0000

> <Gold.Chemscore.Hbonds>
donor molecule, donor type, donor heavy atom, donor atom, acceptor molecule, acceptor atom, score
      L1  H     8    32       P1  8029  1.00
      P1  H  6933  6944       L1    10  1.00
      P1  H  6934  6946       L1    16  1.00

> <Gold.PLP.Chemscore.Internal.Correction>
0.0668

> <Gold.Rescore>
     Score         DG    S(hbond)    S(metal)    S(lipo)     H(rot)  DE(clash)    DE(int)     intcor
     17.96     -19.49       2.82        0.00      92.95       2.45       0.04       1.49       ----

> <Gold.Chemscore.Fitness>
17.9571

> <Gold.Chemscore.DG>
-19.4888

> <Gold.Chemscore.ZeroCoef>
-5.4800

> <Gold.Chemscore.Hbond>
2.8169

> <Gold.Chemscore.Metal>
0.0000

> <Gold.Chemscore.Lipo>
92.9532

> <Gold.Chemscore.Internal_Hbond>
0.0000

> <Gold.Chemscore.DEClash>
0.0402

> <Gold.Chemscore.DEInternal>
1.4916

> <Gold.Chemscore.Rot>
2.4512

> <Gold.Chemscore.Internal.Correction>
   9.000000E+99

> <Gold.Chemscore.Hbonds>
donor molecule, donor type, donor heavy atom, donor atom, acceptor molecule, acceptor atom, score
      L1  H     8    32       P1  8029  0.95
      P1  H  6933  6944       L1    10  0.65
      P1  H  6934  6946       L1    16  0.45

> <Gold.Chemscore.Hbond.Weighted>
-9.4083

> <Gold.Chemscore.Metal.Weighted>
-0.0000

> <Gold.Chemscore.Lipo.Weighted>
-10.8755

> <Gold.Chemscore.Internal_Hbond.Weighted>
0.0000

> <Gold.Chemscore.DEClash.Weighted>
0.0402

> <Gold.Chemscore.DEInternal.Weighted>
1.4916

> <Gold.Chemscore.Rot.Weighted>
6.2750

> <Gold.Chemscore.Internal.Correction.Weighted>
   9.000000E+99

> <Gold.Protein.RotatedTorsions>
[ 6907 6896 6895 6894 ] final  156.52 input  -60.11 | X-H torsion
[ 7974 7965 7964 7962 ] final    0.53 input  175.53 | X-H torsion
[ 8008 7997 7996 7995 ] final  104.73 input   59.86 | X-H torsion
[ 10167 10162 10161 10158 ] final  -80.18 input  -65.29 | X-H torsion
[ 10718 10713 10712 10709 ] final   35.47 input   66.30 | X-H torsion
[ 10763 10752 10751 10750 ] final -109.78 input  -60.55 | X-H torsion
[ 11005 11000 10999 10996 ] final  -71.10 input  -57.11 | X-H torsion

> <Gold.Protein.ActiveResidues>
 VAL166  LYS551  ARG553  GLY616  TRP617  ASP618  TYR619  PRO620  LYS621  CYS622 
 ASP623  PHE694  ASN695  SER759  ASP760  ASP761  ALA762  ILE779  LEU786  VAL792 
 PHE793  MET794  SER795  GLU796  ALA797  LYS798  CYS799  TRP800  GLU811  SER814 

> <Gold.Protein.RotatedAtoms>
  152.0285  133.3927  159.4286 H   0  0  0  0  0  0  0  0  0  0  0  0  # atno 6907 bound_to 6896
  150.6884  134.3547  159.4934 H   0  0  0  0  0  0  0  0  0  0  0  0  # atno 6908 bound_to 6896
  152.1331  134.9120  160.0608 H   0  0  0  0  0  0  0  0  0  0  0  0  # atno 6909 bound_to 6896
  146.2435  140.1123  142.8343 H   0  0  0  0  0  0  0  0  0  0  0  0  # atno 7974 bound_to 7965
  156.1598  140.3143  155.8787 H   0  0  0  0  0  0  0  0  0  0  0  0  # atno 8008 bound_to 7997
  155.3805  140.0487  157.3060 H   0  0  0  0  0  0  0  0  0  0  0  0  # atno 8009 bound_to 7997
  154.5135  140.2173  155.9121 H   0  0  0  0  0  0  0  0  0  0  0  0  # atno 8010 bound_to 7997
  140.4526  143.2478  151.8466 H   0  0  0  0  0  0  0  0  0  0  0  0  # atno 10167 bound_to 10162
  157.3231  130.7458  149.6798 H   0  0  0  0  0  0  0  0  0  0  0  0  # atno 10718 bound_to 10713
  154.8212  135.4588  154.0785 H   0  0  0  0  0  0  0  0  0  0  0  0  # atno 10763 bound_to 10752
  153.2137  135.6885  153.8090 H   0  0  0  0  0  0  0  0  0  0  0  0  # atno 10764 bound_to 10752
  153.7532  135.3295  155.3301 H   0  0  0  0  0  0  0  0  0  0  0  0  # atno 10765 bound_to 10752
  141.1586  133.6808  156.6855 H   0  0  0  0  0  0  0  0  0  0  0  0  # atno 11005 bound_to 11000
  145.0476  140.8993  143.5015 LP  0  0  0  0  0  0  0  0  0  0  0  0  # atno 17320 bound_to 7965
  145.1215  139.2690  143.5586 LP  0  0  0  0  0  0  0  0  0  0  0  0  # atno 17321 bound_to 7965
  139.4798  144.5102  151.8943 LP  0  0  0  0  0  0  0  0  0  0  0  0  # atno 17342 bound_to 10162
  140.4189  144.2270  150.5887 LP  0  0  0  0  0  0  0  0  0  0  0  0  # atno 17343 bound_to 10162
  155.9688  130.4217  150.4483 LP  0  0  0  0  0  0  0  0  0  0  0  0  # atno 17370 bound_to 10713
  157.2502  131.0544  151.2384 LP  0  0  0  0  0  0  0  0  0  0  0  0  # atno 17371 bound_to 10713
  140.3070  134.8117  157.4145 LP  0  0  0  0  0  0  0  0  0  0  0  0  # atno 17394 bound_to 11000
  140.1212  134.5218  155.8182 LP  0  0  0  0  0  0  0  0  0  0  0  0  # atno 17395 bound_to 11000

$$$$
