AV-unprocessed.smi:1099|AV-procd|sdf|4755|dock1
  -GOLD-   22720 3293D 1   1.00000     0.00000
 Structure written by MMmdl.
 41 43  0  0  0  0  0  0  0  0  1 V2000
  143.6187  145.2659  154.3096 C   0  0  0  0  0  0  0  0  0  0  0  0
  144.7973  144.8181  153.4389 C   0  0  0  0  0  0  0  0  0  0  0  0
  145.5728  143.7021  154.0550 C   0  0  0  0  0  0  0  0  0  0  0  0
  146.7107  143.2242  153.5437 N   0  0  0  0  0  0  0  0  0  0  0  0
  147.2651  142.2042  154.3237 C   0  0  0  0  0  0  0  0  0  0  0  0
  148.5380  141.5396  153.8956 C   0  0  0  0  0  0  0  0  0  0  0  0
  149.4246  141.1553  155.0919 C   0  0  0  0  0  0  0  0  0  0  0  0
  149.7537  142.3165  155.9109 N   0  0  0  0  0  0  0  0  0  0  0  0
  150.7404  142.3632  156.8194 C   0  0  0  0  0  0  0  0  0  0  0  0
  151.4863  141.4099  157.0453 O   0  0  0  0  0  0  0  0  0  0  0  0
  150.8981  143.6894  157.5846 C   0  0  2  0  0  0  0  0  0  0  0  0
  152.2767  144.3632  157.3727 C   0  0  0  0  0  0  0  0  0  0  0  0
  152.8053  144.5457  158.8091 C   0  0  1  0  0  0  0  0  0  0  0  0
  151.9630  145.6128  159.5342 C   0  0  0  0  0  0  0  0  0  0  0  0
  150.6276  144.8832  159.7782 C   0  0  0  0  0  0  0  0  0  0  0  0
  150.8710  143.5095  159.1239 C   0  0  2  0  0  0  0  0  0  0  0  0
  152.3356  143.2654  159.4857 C   0  0  0  0  0  0  0  0  0  0  0  0
  146.5291  141.9215  155.4473 C   0  0  0  0  0  0  0  0  0  0  0  0
  145.1142  142.9302  155.5688 S   0  0  0  0  0  0  0  0  0  0  0  0
  143.0707  146.0791  153.8331 H   0  0  0  0  0  0  0  0  0  0  0  0
  143.9602  145.6192  155.2831 H   0  0  0  0  0  0  0  0  0  0  0  0
  142.9197  144.4459  154.4766 H   0  0  0  0  0  0  0  0  0  0  0  0
  144.4358  144.4941  152.4626 H   0  0  0  0  0  0  0  0  0  0  0  0
  145.4690  145.6585  153.2599 H   0  0  0  0  0  0  0  0  0  0  0  0
  148.3118  140.6477  153.3100 H   0  0  0  0  0  0  0  0  0  0  0  0
  149.0897  142.2020  153.2273 H   0  0  0  0  0  0  0  0  0  0  0  0
  148.9340  140.3948  155.7019 H   0  0  0  0  0  0  0  0  0  0  0  0
  150.3575  140.7150  154.7386 H   0  0  0  0  0  0  0  0  0  0  0  0
  149.1873  143.1425  155.7814 H   0  0  0  0  0  0  0  0  0  0  0  0
  150.0998  144.3664  157.2749 H   0  0  0  0  0  0  0  0  0  0  0  0
  152.9595  143.7375  156.7957 H   0  0  0  0  0  0  0  0  0  0  0  0
  152.1896  145.3152  156.8477 H   0  0  0  0  0  0  0  0  0  0  0  0
  153.8792  144.7273  158.8601 H   0  0  0  0  0  0  0  0  0  0  0  0
  152.4228  145.8959  160.4818 H   0  0  0  0  0  0  0  0  0  0  0  0
  151.8406  146.5176  158.9377 H   0  0  0  0  0  0  0  0  0  0  0  0
  150.4413  144.7743  160.8474 H   0  0  0  0  0  0  0  0  0  0  0  0
  149.7771  145.4104  159.3447 H   0  0  0  0  0  0  0  0  0  0  0  0
  150.1831  142.7370  159.4710 H   0  0  0  0  0  0  0  0  0  0  0  0
  152.7633  142.3631  159.0483 H   0  0  0  0  0  0  0  0  0  0  0  0
  152.5188  143.2536  160.5616 H   0  0  0  0  0  0  0  0  0  0  0  0
  146.7345  141.1845  156.2096 H   0  0  0  0  0  0  0  0  0  0  0  0
  1  2  1  0  0  0  0
  1 20  1  0  0  0  0
  1 21  1  0  0  0  0
  1 22  1  0  0  0  0
  2  3  1  0  0  0  0
  2 23  1  0  0  0  0
  2 24  1  0  0  0  0
  3 19  1  0  0  0  0
  3  4  2  0  0  0  0
  4  5  1  0  0  0  0
  5  6  1  0  0  0  0
  5 18  2  0  0  0  0
  6  7  1  0  0  0  0
  6 25  1  0  0  0  0
  6 26  1  0  0  0  0
  7  8  1  0  0  0  0
  7 27  1  0  0  0  0
  7 28  1  0  0  0  0
  8  9  1  0  0  0  0
  8 29  1  0  0  0  0
  9 10  2  0  0  0  0
  9 11  1  0  0  0  0
 11 16  1  0  0  0  0
 11 12  1  0  0  0  0
 11 30  1  0  0  0  0
 12 13  1  0  0  0  0
 12 31  1  0  0  0  0
 12 32  1  0  0  0  0
 13 17  1  0  0  0  0
 13 14  1  0  0  0  0
 13 33  1  0  0  0  0
 14 15  1  0  0  0  0
 14 34  1  0  0  0  0
 14 35  1  0  0  0  0
 15 16  1  0  0  0  0
 15 36  1  0  0  0  0
 15 37  1  0  0  0  0
 16 17  1  0  0  0  0
 16 38  1  0  0  0  0
 17 39  1  0  0  0  0
 17 40  1  0  0  0  0
 18 19  1  0  0  0  0
 18 41  1  0  0  0  0
M  END
> <s_m_source_file>
AV-unprocessed.smi

> <i_m_source_file_index>
1099

> <i_lp_mmshare_version>
43012

> <i_f3d_flags>
0

> <s_epik_input>
W0NIM11bQ0gyXWMxbmMoW2NIXXMxKVtDSDJdW0NIMl1bTkhdQyg9TylbQ0BIXShbQ0gyXVtDQEBIXTIzKVtDQEBIXShbQ0gyXTMpW0NIMl1bQ0gyXTI=

> <s_epik_cmdline>
J2VwaWtfcHl0aG9uJywgJy1waCcsICc3LjAnLCAnLXRuJywgJzgnLCAnLW1hJywgJzIwMCcsICctbWV0YWxfYmluZGluZycsICctaW1hZScsICc8aW5maWxlLm1hZT4nLCAnLW9tYWUnLCAnPG91dGZpbGUubWFlPic=

> <r_epik_Ionization_Penalty>
0.00110131

> <r_epik_Ionization_Penalty_Charging>
0

> <r_epik_Ionization_Penalty_Neutral>
0.00110131

> <r_epik_State_Penalty>
0.00072257

> <r_epik_Charging_Adjusted_Penalty>
0.00072257

> <i_epik_Tot_Q>
0

> <i_epik_Tot_abs_Q>
0

> <r_epik_Metal_State_Penalty>
-0

> <b_epik_Metal_Only>
0

> <s_lp_Force_Field>
OPLS_2005

> <r_lp_Energy>
37.6271

> <b_lp_Chiralities_Consistent>
1

> <s_lp_Variant>
AV-unprocessed.smi:1099-1

> <Gold.Version>
5.8.1

> <Gold.Id.Protein>
6NUR|6NUR_protein|mol2

> <Gold.PLP.Fitness>
48.1486

> <Gold.PLP.PLP>
-45.9951

> <Gold.PLP.part.hbond>
-2.0000

> <Gold.PLP.part.metal>
0.0000

> <Gold.PLP.part.buried>
-0.3329

> <Gold.PLP.part.nonpolar>
-43.1767

> <Gold.PLP.part.repulsive>
0.3492

> <Gold.PLP.ligand.clash>
0.0000

> <Gold.PLP.ligand.torsion>
0.5168

> <Gold.PLP.Chemscore.Hbond>
1.0400

> <Gold.PLP.Chemscore.CHOScore>
0.0000

> <Gold.PLP.Chemscore.Metal>
0.0000

> <Gold.Chemscore.Hbonds>
donor molecule, donor type, donor heavy atom, donor atom, acceptor molecule, acceptor atom, score
      L1  H     8    29       P1  8028  1.00
      P1  H  8022  8030       L1     4  0.02

> <Gold.PLP.Chemscore.Internal.Correction>
0.0669

> <Gold.Rescore>
     Score         DG    S(hbond)    S(metal)    S(lipo)     H(rot)  DE(clash)    DE(int)     intcor
     19.39     -20.29       0.97        0.00     129.87       1.42       0.14       0.76       ----

> <Gold.Chemscore.Fitness>
19.3907

> <Gold.Chemscore.DG>
-20.2916

> <Gold.Chemscore.ZeroCoef>
-5.4800

> <Gold.Chemscore.Hbond>
0.9709

> <Gold.Chemscore.Metal>
0.0000

> <Gold.Chemscore.Lipo>
129.8707

> <Gold.Chemscore.Internal_Hbond>
0.0000

> <Gold.Chemscore.DEClash>
0.1437

> <Gold.Chemscore.DEInternal>
0.7571

> <Gold.Chemscore.Rot>
1.4165

> <Gold.Chemscore.Internal.Correction>
   9.000000E+99

> <Gold.Chemscore.Hbonds>
donor molecule, donor type, donor heavy atom, donor atom, acceptor molecule, acceptor atom, score
      L1  H     8    29       P1  8028  0.98

> <Gold.Chemscore.Hbond.Weighted>
-3.2429

> <Gold.Chemscore.Metal.Weighted>
-0.0000

> <Gold.Chemscore.Lipo.Weighted>
-15.1949

> <Gold.Chemscore.Internal_Hbond.Weighted>
0.0000

> <Gold.Chemscore.DEClash.Weighted>
0.1437

> <Gold.Chemscore.DEInternal.Weighted>
0.7571

> <Gold.Chemscore.Rot.Weighted>
3.6262

> <Gold.Chemscore.Internal.Correction.Weighted>
   9.000000E+99

> <Gold.Protein.RotatedTorsions>
[ 6907 6896 6895 6894 ] final   40.18 input  -60.11 | X-H torsion
[ 7974 7965 7964 7962 ] final  -25.65 input  175.53 | X-H torsion
[ 8008 7997 7996 7995 ] final -153.80 input   59.86 | X-H torsion
[ 10167 10162 10161 10158 ] final   76.68 input  -65.29 | X-H torsion
[ 10718 10713 10712 10709 ] final -154.17 input   66.30 | X-H torsion
[ 10763 10752 10751 10750 ] final -138.55 input  -60.55 | X-H torsion
[ 11005 11000 10999 10996 ] final   76.93 input  -57.11 | X-H torsion

> <Gold.Protein.ActiveResidues>
 VAL166  LYS551  ARG553  GLY616  TRP617  ASP618  TYR619  PRO620  LYS621  CYS622 
 ASP623  PHE694  ASN695  SER759  ASP760  ASP761  ALA762  ILE779  LEU786  VAL792 
 PHE793  MET794  SER795  GLU796  ALA797  LYS798  CYS799  TRP800  GLU811  SER814 

> <Gold.Protein.RotatedAtoms>
  152.1792  134.8768  160.0527 H   0  0  0  0  0  0  0  0  0  0  0  0  # atno 6907 bound_to 6896
  151.9699  133.3717  159.4075 H   0  0  0  0  0  0  0  0  0  0  0  0  # atno 6908 bound_to 6896
  150.6914  134.4074  159.5190 H   0  0  0  0  0  0  0  0  0  0  0  0  # atno 6909 bound_to 6896
  146.1477  140.4914  142.8624 H   0  0  0  0  0  0  0  0  0  0  0  0  # atno 7974 bound_to 7965
  155.6764  140.0739  157.2501 H   0  0  0  0  0  0  0  0  0  0  0  0  # atno 8008 bound_to 7997
  154.4113  140.1690  156.1986 H   0  0  0  0  0  0  0  0  0  0  0  0  # atno 8009 bound_to 7997
  155.9572  140.3372  155.6462 H   0  0  0  0  0  0  0  0  0  0  0  0  # atno 8010 bound_to 7997
  139.9896  144.5766  150.7829 H   0  0  0  0  0  0  0  0  0  0  0  0  # atno 10167 bound_to 10162
  156.4957  130.8368  151.2589 H   0  0  0  0  0  0  0  0  0  0  0  0  # atno 10718 bound_to 10713
  154.8634  135.3609  154.5403 H   0  0  0  0  0  0  0  0  0  0  0  0  # atno 10763 bound_to 10752
  153.6025  135.7012  153.5383 H   0  0  0  0  0  0  0  0  0  0  0  0  # atno 10764 bound_to 10752
  153.3279  135.4133  155.1432 H   0  0  0  0  0  0  0  0  0  0  0  0  # atno 10765 bound_to 10752
  139.9276  134.7642  156.1458 H   0  0  0  0  0  0  0  0  0  0  0  0  # atno 11005 bound_to 11000
  144.7866  140.5949  143.6569 LP  0  0  0  0  0  0  0  0  0  0  0  0  # atno 17320 bound_to 7965
  145.4897  139.1489  143.3716 LP  0  0  0  0  0  0  0  0  0  0  0  0  # atno 17321 bound_to 7965
  140.7459  143.2883  151.3401 LP  0  0  0  0  0  0  0  0  0  0  0  0  # atno 17342 bound_to 10162
  139.6349  144.0649  152.2508 LP  0  0  0  0  0  0  0  0  0  0  0  0  # atno 17343 bound_to 10162
  157.7469  130.9998  150.2904 LP  0  0  0  0  0  0  0  0  0  0  0  0  # atno 17370 bound_to 10713
  156.3382  130.3811  149.7432 LP  0  0  0  0  0  0  0  0  0  0  0  0  # atno 17371 bound_to 10713
  141.0844  133.6740  156.2406 LP  0  0  0  0  0  0  0  0  0  0  0  0  # atno 17394 bound_to 11000
  140.6291  134.5282  157.5557 LP  0  0  0  0  0  0  0  0  0  0  0  0  # atno 17395 bound_to 11000

$$$$
