AV-unprocessed.smi:2746|AV-procd|sdf|10572|dock6
  -GOLD-   2272015 23D 1   1.00000     0.00000
 Structure written by MMmdl.
 38 39  0  0  0  0  0  0  0  0  1 V2000
  151.1288  145.2474  159.7117 C   0  0  0  0  0  0  0  0  0  0  0  0
  151.9882  144.7913  160.6352 C   0  0  0  0  0  0  0  0  0  0  0  0
  152.7257  143.4682  160.5433 C   0  0  1  0  0  0  0  0  0  0  0  0
  152.5420  142.6426  161.8230 C   0  0  0  0  0  0  0  0  0  0  0  0
  152.2481  142.7004  159.3988 N   0  0  0  0  0  0  0  0  0  0  0  0
  152.7580  141.5313  158.9739 C   0  0  0  0  0  0  0  0  0  0  0  0
  153.7180  140.9776  159.5118 O   0  0  0  0  0  0  0  0  0  0  0  0
  152.1081  140.9400  157.7516 C   0  0  0  0  0  0  0  0  0  0  0  0
  150.9177  141.5097  157.2424 C   0  0  0  0  0  0  0  0  0  0  0  0
  150.3287  140.9528  156.0852 C   0  0  0  0  0  0  0  0  0  0  0  0
  149.1510  141.4676  155.5265 N   0  0  0  0  0  0  0  0  0  0  0  0
  148.8848  140.9894  154.1758 C   0  0  0  0  0  0  0  0  0  0  0  0
  147.6446  141.6976  153.6029 C   0  0  0  0  0  0  0  0  0  0  0  0
  146.5359  141.5027  154.4766 O   0  0  0  0  0  0  0  0  0  0  0  0
  146.7776  142.0382  155.7749 C   0  0  0  0  0  0  0  0  0  0  0  0
  147.9947  141.3374  156.4033 C   0  0  0  0  0  0  0  0  0  0  0  0
  150.9576  139.8486  155.4783 C   0  0  0  0  0  0  0  0  0  0  0  0
  152.1416  139.3503  156.0530 C   0  0  0  0  0  0  0  0  0  0  0  0
  152.7075  139.8781  157.1584 N   0  0  0  0  0  0  0  0  0  0  0  0
  150.9070  144.6763  158.8219 H   0  0  0  0  0  0  0  0  0  0  0  0
  150.6348  146.1998  159.8351 H   0  0  0  0  0  0  0  0  0  0  0  0
  152.1848  145.3911  161.5122 H   0  0  0  0  0  0  0  0  0  0  0  0
  153.7923  143.6666  160.4203 H   0  0  0  0  0  0  0  0  0  0  0  0
  152.9129  143.1835  162.6943 H   0  0  0  0  0  0  0  0  0  0  0  0
  153.0898  141.7015  161.7640 H   0  0  0  0  0  0  0  0  0  0  0  0
  151.4917  142.4066  161.9997 H   0  0  0  0  0  0  0  0  0  0  0  0
  151.4669  143.0817  158.8848 H   0  0  0  0  0  0  0  0  0  0  0  0
  150.4618  142.3601  157.7291 H   0  0  0  0  0  0  0  0  0  0  0  0
  149.7505  141.1782  153.5398 H   0  0  0  0  0  0  0  0  0  0  0  0
  148.7204  139.9111  154.1876 H   0  0  0  0  0  0  0  0  0  0  0  0
  147.8325  142.7642  153.4695 H   0  0  0  0  0  0  0  0  0  0  0  0
  147.3994  141.2922  152.6213 H   0  0  0  0  0  0  0  0  0  0  0  0
  146.9393  143.1154  155.7110 H   0  0  0  0  0  0  0  0  0  0  0  0
  145.8936  141.8848  156.3938 H   0  0  0  0  0  0  0  0  0  0  0  0
  147.7706  140.2821  156.5661 H   0  0  0  0  0  0  0  0  0  0  0  0
  148.2173  141.7751  157.3773 H   0  0  0  0  0  0  0  0  0  0  0  0
  150.5439  139.3917  154.5912 H   0  0  0  0  0  0  0  0  0  0  0  0
  152.6489  138.5050  155.6124 H   0  0  0  0  0  0  0  0  0  0  0  0
  1  2  2  0  0  0  0
  1 20  1  0  0  0  0
  1 21  1  0  0  0  0
  2  3  1  0  0  0  0
  2 22  1  0  0  0  0
  3  4  1  0  0  0  0
  3  5  1  0  0  0  0
  3 23  1  0  0  0  0
  4 24  1  0  0  0  0
  4 25  1  0  0  0  0
  4 26  1  0  0  0  0
  5  6  1  0  0  0  0
  5 27  1  0  0  0  0
  6  7  2  0  0  0  0
  6  8  1  0  0  0  0
  8 19  1  0  0  0  0
  8  9  2  0  0  0  0
  9 10  1  0  0  0  0
  9 28  1  0  0  0  0
 10 11  1  0  0  0  0
 10 17  2  0  0  0  0
 11 16  1  0  0  0  0
 11 12  1  0  0  0  0
 12 13  1  0  0  0  0
 12 29  1  0  0  0  0
 12 30  1  0  0  0  0
 13 14  1  0  0  0  0
 13 31  1  0  0  0  0
 13 32  1  0  0  0  0
 14 15  1  0  0  0  0
 15 16  1  0  0  0  0
 15 33  1  0  0  0  0
 15 34  1  0  0  0  0
 16 35  1  0  0  0  0
 16 36  1  0  0  0  0
 17 18  1  0  0  0  0
 17 37  1  0  0  0  0
 18 19  2  0  0  0  0
 18 38  1  0  0  0  0
M  END
> <s_m_source_file>
AV-unprocessed.smi

> <i_m_source_file_index>
2746

> <i_lp_mmshare_version>
43012

> <i_f3d_flags>
0

> <s_epik_input>
W0NIMl09W0NIXVtDQEhdKFtDSDNdKVtOSF1DKD1PKWMxW2NIXWMoW2NIXVtjSF1uMSlOMltDSDJdW0NIMl1PW0NIMl1bQ0gyXTI=

> <s_epik_cmdline>
J2VwaWtfcHl0aG9uJywgJy1waCcsICc3LjAnLCAnLXRuJywgJzgnLCAnLW1hJywgJzIwMCcsICctbWV0YWxfYmluZGluZycsICctaW1hZScsICc8aW5maWxlLm1hZT4nLCAnLW9tYWUnLCAnPG91dGZpbGUubWFlPic=

> <r_lp_tautomer_probability>
1

> <r_epik_Ionization_Penalty>
0.373275

> <r_epik_Ionization_Penalty_Charging>
0

> <r_epik_Ionization_Penalty_Neutral>
0.373275

> <r_epik_State_Penalty>
0.370855

> <r_epik_Charging_Adjusted_Penalty>
0.370855

> <i_epik_Tot_Q>
0

> <i_epik_Tot_abs_Q>
0

> <r_epik_Metal_State_Penalty>
0.225885

> <b_epik_Metal_Only>
0

> <s_lp_Force_Field>
OPLS_2005

> <r_lp_Energy>
21.8565

> <b_lp_Chiralities_Consistent>
1

> <s_lp_Variant>
AV-unprocessed.smi:2746-2

> <Gold.Version>
5.8.1

> <Gold.Id.Protein>
6NUR|6NUR_protein|mol2

> <Gold.PLP.Fitness>
40.6734

> <Gold.PLP.PLP>
-39.9158

> <Gold.PLP.part.hbond>
-1.0000

> <Gold.PLP.part.metal>
0.0000

> <Gold.PLP.part.buried>
-5.6510

> <Gold.PLP.part.nonpolar>
-32.4631

> <Gold.PLP.part.repulsive>
0.3184

> <Gold.PLP.ligand.clash>
1.7708

> <Gold.PLP.ligand.torsion>
0.3001

> <Gold.PLP.Chemscore.Hbond>
1.0000

> <Gold.PLP.Chemscore.CHOScore>
0.0000

> <Gold.PLP.Chemscore.Metal>
0.0000

> <Gold.Chemscore.Hbonds>
donor molecule, donor type, donor heavy atom, donor atom, acceptor molecule, acceptor atom, score
      P1  H  7997  8010       L1    19  1.00

> <Gold.PLP.Chemscore.Internal.Correction>
0.1286

> <Gold.Rescore>
     Score         DG    S(hbond)    S(metal)    S(lipo)     H(rot)  DE(clash)    DE(int)     intcor
     16.13     -16.46       0.67        0.00     102.69       1.27       0.15       0.18       ----

> <Gold.Chemscore.Fitness>
16.1261

> <Gold.Chemscore.DG>
-16.4595

> <Gold.Chemscore.ZeroCoef>
-5.4800

> <Gold.Chemscore.Hbond>
0.6666

> <Gold.Chemscore.Metal>
0.0000

> <Gold.Chemscore.Lipo>
102.6925

> <Gold.Chemscore.Internal_Hbond>
0.0000

> <Gold.Chemscore.DEClash>
0.1536

> <Gold.Chemscore.DEInternal>
0.1798

> <Gold.Chemscore.Rot>
1.2742

> <Gold.Chemscore.Internal.Correction>
   9.000000E+99

> <Gold.Chemscore.Hbonds>
donor molecule, donor type, donor heavy atom, donor atom, acceptor molecule, acceptor atom, score
      P1  H  7997  8010       L1    19  0.24

> <Gold.Chemscore.Hbond.Weighted>
-2.2264

> <Gold.Chemscore.Metal.Weighted>
-0.0000

> <Gold.Chemscore.Lipo.Weighted>
-12.0150

> <Gold.Chemscore.Internal_Hbond.Weighted>
0.0000

> <Gold.Chemscore.DEClash.Weighted>
0.1536

> <Gold.Chemscore.DEInternal.Weighted>
0.1798

> <Gold.Chemscore.Rot.Weighted>
3.2619

> <Gold.Chemscore.Internal.Correction.Weighted>
   9.000000E+99

> <Gold.Protein.RotatedTorsions>
[ 6907 6896 6895 6894 ] final    1.45 input  -60.11 | X-H torsion
[ 7974 7965 7964 7962 ] final -163.80 input  175.53 | X-H torsion
[ 8008 7997 7996 7995 ] final   63.91 input   59.86 | X-H torsion
[ 10167 10162 10161 10158 ] final -108.96 input  -65.29 | X-H torsion
[ 10718 10713 10712 10709 ] final   68.64 input   66.30 | X-H torsion
[ 10763 10752 10751 10750 ] final   77.53 input  -60.55 | X-H torsion
[ 11005 11000 10999 10996 ] final  -22.89 input  -57.11 | X-H torsion

> <Gold.Protein.ActiveResidues>
 VAL166  LYS551  ARG553  GLY616  TRP617  ASP618  TYR619  PRO620  LYS621  CYS622 
 ASP623  PHE694  ASN695  SER759  ASP760  ASP761  ALA762  ILE779  LEU786  VAL792 
 PHE793  MET794  SER795  GLU796  ALA797  LYS798  CYS799  TRP800  GLU811  SER814 

> <Gold.Protein.RotatedAtoms>
  151.5929  135.1052  160.0042 H   0  0  0  0  0  0  0  0  0  0  0  0  # atno 6907 bound_to 6896
  152.4297  133.7252  159.6567 H   0  0  0  0  0  0  0  0  0  0  0  0  # atno 6908 bound_to 6896
  150.8189  133.8217  159.3170 H   0  0  0  0  0  0  0  0  0  0  0  0  # atno 6909 bound_to 6896
  144.7315  140.3053  143.6197 H   0  0  0  0  0  0  0  0  0  0  0  0  # atno 7974 bound_to 7965
  155.6378  140.3496  155.4704 H   0  0  0  0  0  0  0  0  0  0  0  0  # atno 8008 bound_to 7997
  155.9951  140.1201  157.0625 H   0  0  0  0  0  0  0  0  0  0  0  0  # atno 8009 bound_to 7997
  154.4231  140.1111  156.5605 H   0  0  0  0  0  0  0  0  0  0  0  0  # atno 8010 bound_to 7997
  140.1605  143.4124  152.1429 H   0  0  0  0  0  0  0  0  0  0  0  0  # atno 10167 bound_to 10162
  157.6301  130.9384  150.0404 H   0  0  0  0  0  0  0  0  0  0  0  0  # atno 10718 bound_to 10713
  153.0805  135.4911  154.8493 H   0  0  0  0  0  0  0  0  0  0  0  0  # atno 10763 bound_to 10752
  154.7145  135.3026  154.9148 H   0  0  0  0  0  0  0  0  0  0  0  0  # atno 10764 bound_to 10752
  153.9832  135.6787  153.4804 H   0  0  0  0  0  0  0  0  0  0  0  0  # atno 10765 bound_to 10752
  140.8700  133.7727  156.0175 H   0  0  0  0  0  0  0  0  0  0  0  0  # atno 11005 bound_to 11000
  145.7719  139.1860  143.2207 LP  0  0  0  0  0  0  0  0  0  0  0  0  # atno 17320 bound_to 7965
  146.0904  140.7662  142.9598 LP  0  0  0  0  0  0  0  0  0  0  0  0  # atno 17321 bound_to 7965
  139.5383  144.7232  151.4818 LP  0  0  0  0  0  0  0  0  0  0  0  0  # atno 17342 bound_to 10162
  140.6646  143.8426  150.6927 LP  0  0  0  0  0  0  0  0  0  0  0  0  # atno 17343 bound_to 10162
  156.1498  130.3642  149.9455 LP  0  0  0  0  0  0  0  0  0  0  0  0  # atno 17370 bound_to 10713
  156.7478  130.9104  151.3636 LP  0  0  0  0  0  0  0  0  0  0  0  0  # atno 17371 bound_to 10713
  140.8584  134.2870  157.5245 LP  0  0  0  0  0  0  0  0  0  0  0  0  # atno 17394 bound_to 11000
  139.8711  134.9505  156.4057 LP  0  0  0  0  0  0  0  0  0  0  0  0  # atno 17395 bound_to 11000

$$$$
