AV-unprocessed.smi:2442|AV-procd|sdf|9625|dock8
  -GOLD-   2272013253D 1   1.00000     0.00000
 Structure written by MMmdl.
 46 47  0  0  0  0  0  0  0  0  1 V2000
  144.7061  134.8298  150.5239 C   0  0  0  0  0  0  0  0  0  0  0  0
  145.6148  134.2081  151.4186 O   0  0  0  0  0  0  0  0  0  0  0  0
  146.4418  133.2140  150.8201 C   0  0  2  0  0  0  0  0  0  0  0  0
  145.5826  132.1416  150.1167 C   0  0  0  0  0  0  0  0  0  0  0  0
  144.7289  131.3475  151.1190 C   0  0  0  0  0  0  0  0  0  0  0  0
  145.6017  130.7137  152.2130 C   0  0  0  0  0  0  0  0  0  0  0  0
  146.4595  131.7714  152.9253 C   0  0  0  0  0  0  0  0  0  0  0  0
  147.3157  132.5722  151.9243 C   0  0  2  0  0  0  0  0  0  0  0  0
  148.0951  133.5836  152.6340 N   0  0  0  0  0  0  0  0  0  0  0  0
  148.8690  133.3546  153.7038 C   0  0  0  0  0  0  0  0  0  0  0  0
  148.9970  132.2550  154.2426 O   0  0  0  0  0  0  0  0  0  0  0  0
  149.4976  134.4652  154.1088 N   0  0  0  0  0  0  0  0  0  0  0  0
  150.4388  134.5166  155.2187 C   0  0  0  0  0  0  0  0  0  0  0  0
  150.0825  135.6633  156.1748 C   0  0  0  0  0  0  0  0  0  0  0  0
  150.6117  137.0034  155.6883 C   0  0  0  0  0  0  0  0  0  0  0  0
  149.8506  137.7565  154.7698 C   0  0  0  0  0  0  0  0  0  0  0  0
  150.3508  138.9978  154.3309 C   0  0  0  0  0  0  0  0  0  0  0  0
  151.5283  139.5097  154.7447 N   0  0  0  0  0  0  0  0  0  0  0  0
  152.2541  138.7885  155.6248 C   0  0  0  0  0  0  0  0  0  0  0  0
  151.8487  137.5344  156.1313 C   0  0  0  0  0  0  0  0  0  0  0  0
  152.7347  136.8002  157.1218 C   0  0  0  0  0  0  0  0  0  0  0  0
  144.1279  135.5820  151.0602 H   0  0  0  0  0  0  0  0  0  0  0  0
  144.0037  134.1159  150.0947 H   0  0  0  0  0  0  0  0  0  0  0  0
  145.2348  135.3323  149.7131 H   0  0  0  0  0  0  0  0  0  0  0  0
  147.0994  133.6815  150.0848 H   0  0  0  0  0  0  0  0  0  0  0  0
  144.9440  132.5901  149.3566 H   0  0  0  0  0  0  0  0  0  0  0  0
  146.2395  131.4526  149.5844 H   0  0  0  0  0  0  0  0  0  0  0  0
  143.9904  132.0078  151.5754 H   0  0  0  0  0  0  0  0  0  0  0  0
  144.1674  130.5725  150.5967 H   0  0  0  0  0  0  0  0  0  0  0  0
  144.9718  130.1967  152.9374 H   0  0  0  0  0  0  0  0  0  0  0  0
  146.2494  129.9558  151.7704 H   0  0  0  0  0  0  0  0  0  0  0  0
  145.8098  132.4470  153.4837 H   0  0  0  0  0  0  0  0  0  0  0  0
  147.1018  131.2849  153.6605 H   0  0  0  0  0  0  0  0  0  0  0  0
  148.0111  131.8751  151.4523 H   0  0  0  0  0  0  0  0  0  0  0  0
  148.0615  134.5218  152.2634 H   0  0  0  0  0  0  0  0  0  0  0  0
  149.3297  135.3240  153.6057 H   0  0  0  0  0  0  0  0  0  0  0  0
  150.4237  133.5640  155.7504 H   0  0  0  0  0  0  0  0  0  0  0  0
  151.4492  134.6519  154.8297 H   0  0  0  0  0  0  0  0  0  0  0  0
  149.0031  135.7177  156.3168 H   0  0  0  0  0  0  0  0  0  0  0  0
  150.4999  135.4604  157.1622 H   0  0  0  0  0  0  0  0  0  0  0  0
  148.9000  137.3937  154.4077 H   0  0  0  0  0  0  0  0  0  0  0  0
  149.7894  139.5959  153.6284 H   0  0  0  0  0  0  0  0  0  0  0  0
  153.1900  139.2301  155.9344 H   0  0  0  0  0  0  0  0  0  0  0  0
  153.5822  137.4156  157.4249 H   0  0  0  0  0  0  0  0  0  0  0  0
  153.1266  135.8853  156.6771 H   0  0  0  0  0  0  0  0  0  0  0  0
  152.1761  136.5381  158.0201 H   0  0  0  0  0  0  0  0  0  0  0  0
  1  2  1  0  0  0  0
  1 22  1  0  0  0  0
  1 23  1  0  0  0  0
  1 24  1  0  0  0  0
  2  3  1  0  0  0  0
  3  8  1  0  0  0  0
  3  4  1  0  0  0  0
  3 25  1  0  0  0  0
  4  5  1  0  0  0  0
  4 26  1  0  0  0  0
  4 27  1  0  0  0  0
  5  6  1  0  0  0  0
  5 28  1  0  0  0  0
  5 29  1  0  0  0  0
  6  7  1  0  0  0  0
  6 30  1  0  0  0  0
  6 31  1  0  0  0  0
  7  8  1  0  0  0  0
  7 32  1  0  0  0  0
  7 33  1  0  0  0  0
  8  9  1  0  0  0  0
  8 34  1  0  0  0  0
  9 10  1  0  0  0  0
  9 35  1  0  0  0  0
 10 11  2  0  0  0  0
 10 12  1  0  0  0  0
 12 13  1  0  0  0  0
 12 36  1  0  0  0  0
 13 14  1  0  0  0  0
 13 37  1  0  0  0  0
 13 38  1  0  0  0  0
 14 15  1  0  0  0  0
 14 39  1  0  0  0  0
 14 40  1  0  0  0  0
 15 20  1  0  0  0  0
 15 16  2  0  0  0  0
 16 17  1  0  0  0  0
 16 41  1  0  0  0  0
 17 18  2  0  0  0  0
 17 42  1  0  0  0  0
 18 19  1  0  0  0  0
 19 20  2  0  0  0  0
 19 43  1  0  0  0  0
 20 21  1  0  0  0  0
 21 44  1  0  0  0  0
 21 45  1  0  0  0  0
 21 46  1  0  0  0  0
M  END
> <s_m_source_file>
AV-unprocessed.smi

> <i_m_source_file_index>
2442

> <i_lp_mmshare_version>
43012

> <i_f3d_flags>
0

> <s_epik_input>
W0NIM11PW0NAQEhdMVtDSDJdW0NIMl1bQ0gyXVtDSDJdW0NASF0xW05IXUMoPU8pW05IXVtDSDJdW0NIMl1jMltjSF1bY0hdbltjSF1jMltDSDNd

> <s_epik_cmdline>
J2VwaWtfcHl0aG9uJywgJy1waCcsICc3LjAnLCAnLXRuJywgJzgnLCAnLW1hJywgJzIwMCcsICctbWV0YWxfYmluZGluZycsICctaW1hZScsICc8aW5maWxlLm1hZT4nLCAnLW9tYWUnLCAnPG91dGZpbGUubWFlPic=

> <r_epik_Ionization_Penalty>
0.106136

> <r_epik_Ionization_Penalty_Charging>
0

> <r_epik_Ionization_Penalty_Neutral>
0.106136

> <r_epik_State_Penalty>
0.0959393

> <r_epik_Charging_Adjusted_Penalty>
0.0959393

> <i_epik_Tot_Q>
0

> <i_epik_Tot_abs_Q>
0

> <r_epik_Metal_State_Penalty>
0.0812517

> <b_epik_Metal_Only>
0

> <s_lp_Force_Field>
OPLS_2005

> <r_lp_Energy>
9.91993

> <b_lp_Chiralities_Consistent>
1

> <s_lp_Variant>
AV-unprocessed.smi:2442-3

> <Gold.Version>
5.8.1

> <Gold.Id.Protein>
6NUR|6NUR_protein|mol2

> <Gold.PLP.Fitness>
47.4675

> <Gold.PLP.PLP>
-36.7636

> <Gold.PLP.part.hbond>
-3.0000

> <Gold.PLP.part.metal>
0.0000

> <Gold.PLP.part.buried>
-3.3551

> <Gold.PLP.part.nonpolar>
-29.9879

> <Gold.PLP.part.repulsive>
0.2906

> <Gold.PLP.ligand.clash>
0.0000

> <Gold.PLP.ligand.torsion>
0.5721

> <Gold.PLP.Chemscore.Hbond>
2.9360

> <Gold.PLP.Chemscore.CHOScore>
1.0000

> <Gold.PLP.Chemscore.Metal>
0.0000

> <Gold.Chemscore.Hbonds>
donor molecule, donor type, donor heavy atom, donor atom, acceptor molecule, acceptor atom, score
      L1  H     9    35       P1  7948  0.99
      L1  H    12    36       P1  7948  0.94
      P1  H  7989  7998       L1    18  0.90
      L1  C    17    42       P1  7957  1.00

> <Gold.PLP.Chemscore.Internal.Correction>
0.0401

> <Gold.Rescore>
     Score         DG    S(hbond)    S(metal)    S(lipo)     H(rot)  DE(clash)    DE(int)     intcor
     16.49     -18.27       1.95        0.00      89.46       1.64       0.05       1.73       ----

> <Gold.Chemscore.Fitness>
16.4898

> <Gold.Chemscore.DG>
-18.2697

> <Gold.Chemscore.ZeroCoef>
-5.4800

> <Gold.Chemscore.Hbond>
1.9508

> <Gold.Chemscore.Metal>
0.0000

> <Gold.Chemscore.Lipo>
89.4648

> <Gold.Chemscore.Internal_Hbond>
0.0000

> <Gold.Chemscore.DEClash>
0.0524

> <Gold.Chemscore.DEInternal>
1.7275

> <Gold.Chemscore.Rot>
1.6380

> <Gold.Chemscore.Internal.Correction>
   9.000000E+99

> <Gold.Chemscore.Hbonds>
donor molecule, donor type, donor heavy atom, donor atom, acceptor molecule, acceptor atom, score
      L1  H     9    35       P1  7948  0.24
      L1  H    12    36       P1  7948  0.23
      P1  H  7989  7998       L1    18  0.18

> <Gold.Chemscore.Hbond.Weighted>
-6.5157

> <Gold.Chemscore.Metal.Weighted>
-0.0000

> <Gold.Chemscore.Lipo.Weighted>
-10.4674

> <Gold.Chemscore.Internal_Hbond.Weighted>
0.0000

> <Gold.Chemscore.DEClash.Weighted>
0.0524

> <Gold.Chemscore.DEInternal.Weighted>
1.7275

> <Gold.Chemscore.Rot.Weighted>
4.1934

> <Gold.Chemscore.Internal.Correction.Weighted>
   9.000000E+99

> <Gold.Protein.RotatedTorsions>
[ 6907 6896 6895 6894 ] final  -48.40 input  -60.11 | X-H torsion
[ 7974 7965 7964 7962 ] final -150.53 input  175.53 | X-H torsion
[ 8008 7997 7996 7995 ] final  -39.97 input   59.86 | X-H torsion
[ 10167 10162 10161 10158 ] final -145.21 input  -65.29 | X-H torsion
[ 10718 10713 10712 10709 ] final  129.14 input   66.30 | X-H torsion
[ 10763 10752 10751 10750 ] final  -71.33 input  -60.55 | X-H torsion
[ 11005 11000 10999 10996 ] final  108.23 input  -57.11 | X-H torsion

> <Gold.Protein.ActiveResidues>
 VAL166  LYS551  ARG553  GLY616  TRP617  ASP618  TYR619  PRO620  LYS621  CYS622 
 ASP623  PHE694  ASN695  SER759  ASP760  ASP761  ALA762  ILE779  LEU786  VAL792 
 PHE793  MET794  SER795  GLU796  ALA797  LYS798  CYS799  TRP800  GLU811  SER814 

> <Gold.Protein.RotatedAtoms>
  150.8910  134.8313  159.7292 H   0  0  0  0  0  0  0  0  0  0  0  0  # atno 6907 bound_to 6896
  152.4836  134.4649  159.9627 H   0  0  0  0  0  0  0  0  0  0  0  0  # atno 6908 bound_to 6896
  151.4712  133.3530  159.2859 H   0  0  0  0  0  0  0  0  0  0  0  0  # atno 6909 bound_to 6896
  144.7902  140.4919  143.5778 H   0  0  0  0  0  0  0  0  0  0  0  0  # atno 7974 bound_to 7965
  154.4017  140.1537  156.2950 H   0  0  0  0  0  0  0  0  0  0  0  0  # atno 8008 bound_to 7997
  155.8751  140.3447  155.5827 H   0  0  0  0  0  0  0  0  0  0  0  0  # atno 8009 bound_to 7997
  155.7730  140.0833  157.2089 H   0  0  0  0  0  0  0  0  0  0  0  0  # atno 8010 bound_to 7997
  139.7827  143.8078  152.2641 H   0  0  0  0  0  0  0  0  0  0  0  0  # atno 10167 bound_to 10162
  157.5181  131.1098  150.9195 H   0  0  0  0  0  0  0  0  0  0  0  0  # atno 10718 bound_to 10713
  154.4303  135.5965  153.6064 H   0  0  0  0  0  0  0  0  0  0  0  0  # atno 10763 bound_to 10752
  152.9798  135.5973  154.3847 H   0  0  0  0  0  0  0  0  0  0  0  0  # atno 10764 bound_to 10752
  154.3684  135.2841  155.2259 H   0  0  0  0  0  0  0  0  0  0  0  0  # atno 10765 bound_to 10752
  139.8841  134.9424  156.5941 H   0  0  0  0  0  0  0  0  0  0  0  0  # atno 11005 bound_to 11000
  145.5815  139.1489  143.3233 LP  0  0  0  0  0  0  0  0  0  0  0  0  # atno 17320 bound_to 7965
  146.2151  140.5944  142.9042 LP  0  0  0  0  0  0  0  0  0  0  0  0  # atno 17321 bound_to 7965
  139.8146  144.7321  150.9652 LP  0  0  0  0  0  0  0  0  0  0  0  0  # atno 17342 bound_to 10162
  140.7819  143.4218  151.0830 LP  0  0  0  0  0  0  0  0  0  0  0  0  # atno 17343 bound_to 10162
  156.9814  130.5528  149.5296 LP  0  0  0  0  0  0  0  0  0  0  0  0  # atno 17370 bound_to 10713
  156.0334  130.5424  150.8592 LP  0  0  0  0  0  0  0  0  0  0  0  0  # atno 17371 bound_to 10713
  140.7933  133.8564  155.8664 LP  0  0  0  0  0  0  0  0  0  0  0  0  # atno 17394 bound_to 11000
  140.9658  134.1596  157.4617 LP  0  0  0  0  0  0  0  0  0  0  0  0  # atno 17395 bound_to 11000

$$$$
