AV-unprocessed.smi:2080|AV-procd|sdf|8487|dock2
  -GOLD-   2272011193D 1   1.00000     0.00000
 Structure written by MMmdl.
 50 52  0  0  0  0  0  0  0  0  1 V2000
  147.2362  140.0513  153.9012 O   0  0  0  0  0  0  0  0  0  0  0  0
  147.9899  139.1820  153.4637 C   0  0  0  0  0  0  0  0  0  0  0  0
  147.6526  138.3414  152.4752 N   0  0  0  0  0  0  0  0  0  0  0  0
  146.3693  138.3407  151.7821 C   0  0  0  0  0  0  0  0  0  0  0  0
  145.3623  137.3933  152.4589 C   0  0  0  0  0  0  0  0  0  0  0  0
  145.4610  135.9641  151.9517 C   0  0  0  0  0  0  0  0  0  0  0  0
  146.0884  135.0020  152.6560 C   0  0  0  0  0  0  0  0  0  0  0  0
  146.2613  133.5708  152.1794 C   0  0  0  0  0  0  0  0  0  0  0  0
  145.9847  133.4193  150.6744 C   0  0  0  0  0  0  0  0  0  0  0  0
  144.7254  134.1917  150.2636 C   0  0  0  0  0  0  0  0  0  0  0  0
  144.8567  135.6927  150.5778 C   0  0  0  0  0  0  0  0  0  0  0  0
  149.2323  138.9335  153.9124 N   0  0  0  0  0  0  0  0  0  0  0  0
  149.9595  139.6200  154.9221 C   0  0  0  0  0  0  0  0  0  0  0  0
  151.2649  139.2719  155.3394 C   0  0  0  0  0  0  0  0  0  0  0  0
  151.8744  140.0169  156.3667 C   0  0  0  0  0  0  0  0  0  0  0  0
  151.1658  141.0874  156.9611 C   0  0  0  0  0  0  0  0  0  0  0  0
  151.7602  141.8469  157.9924 N   0  0  0  0  0  0  0  0  0  0  0  0
  151.4743  141.4015  159.3539 C   0  0  0  0  0  0  0  0  0  0  0  0
  152.4122  142.0991  160.3546 C   0  0  0  0  0  0  0  0  0  0  0  0
  152.3175  143.5113  160.2022 O   0  0  0  0  0  0  0  0  0  0  0  0
  152.7103  143.9304  158.8998 C   0  0  0  0  0  0  0  0  0  0  0  0
  151.7787  143.3014  157.8502 C   0  0  0  0  0  0  0  0  0  0  0  0
  149.9115  141.4134  156.5629 N   0  0  0  0  0  0  0  0  0  0  0  0
  149.3299  140.6949  155.5799 C   0  0  0  0  0  0  0  0  0  0  0  0
  148.3302  137.6534  152.1803 H   0  0  0  0  0  0  0  0  0  0  0  0
  145.9809  139.3595  151.7896 H   0  0  0  0  0  0  0  0  0  0  0  0
  146.5206  138.0749  150.7352 H   0  0  0  0  0  0  0  0  0  0  0  0
  145.5082  137.3859  153.5397 H   0  0  0  0  0  0  0  0  0  0  0  0
  144.3506  137.7647  152.2904 H   0  0  0  0  0  0  0  0  0  0  0  0
  146.5001  135.2298  153.6284 H   0  0  0  0  0  0  0  0  0  0  0  0
  147.2741  133.2365  152.4049 H   0  0  0  0  0  0  0  0  0  0  0  0
  145.5829  132.9395  152.7537 H   0  0  0  0  0  0  0  0  0  0  0  0
  146.8366  133.7967  150.1070 H   0  0  0  0  0  0  0  0  0  0  0  0
  145.8852  132.3643  150.4178 H   0  0  0  0  0  0  0  0  0  0  0  0
  144.5232  134.0507  149.2016 H   0  0  0  0  0  0  0  0  0  0  0  0
  143.8663  133.7832  150.7974 H   0  0  0  0  0  0  0  0  0  0  0  0
  143.8760  136.1604  150.4967 H   0  0  0  0  0  0  0  0  0  0  0  0
  145.4929  136.1725  149.8335 H   0  0  0  0  0  0  0  0  0  0  0  0
  149.6950  138.1276  153.5178 H   0  0  0  0  0  0  0  0  0  0  0  0
  151.8056  138.4461  154.9044 H   0  0  0  0  0  0  0  0  0  0  0  0
  152.8774  139.7651  156.6768 H   0  0  0  0  0  0  0  0  0  0  0  0
  150.4360  141.6379  159.5899 H   0  0  0  0  0  0  0  0  0  0  0  0
  151.5845  140.3233  159.4586 H   0  0  0  0  0  0  0  0  0  0  0  0
  152.1352  141.8343  161.3751 H   0  0  0  0  0  0  0  0  0  0  0  0
  153.4442  141.7751  160.2112 H   0  0  0  0  0  0  0  0  0  0  0  0
  152.6568  145.0178  158.8448 H   0  0  0  0  0  0  0  0  0  0  0  0
  153.7491  143.6529  158.7139 H   0  0  0  0  0  0  0  0  0  0  0  0
  152.1204  143.5797  156.8524 H   0  0  0  0  0  0  0  0  0  0  0  0
  150.7660  143.6889  157.9693 H   0  0  0  0  0  0  0  0  0  0  0  0
  148.3282  140.9939  155.3074 H   0  0  0  0  0  0  0  0  0  0  0  0
  1  2  2  0  0  0  0
  2  3  1  0  0  0  0
  2 12  1  0  0  0  0
  3  4  1  0  0  0  0
  3 25  1  0  0  0  0
  4  5  1  0  0  0  0
  4 26  1  0  0  0  0
  4 27  1  0  0  0  0
  5  6  1  0  0  0  0
  5 28  1  0  0  0  0
  5 29  1  0  0  0  0
  6 11  1  0  0  0  0
  6  7  2  0  0  0  0
  7  8  1  0  0  0  0
  7 30  1  0  0  0  0
  8  9  1  0  0  0  0
  8 31  1  0  0  0  0
  8 32  1  0  0  0  0
  9 10  1  0  0  0  0
  9 33  1  0  0  0  0
  9 34  1  0  0  0  0
 10 11  1  0  0  0  0
 10 35  1  0  0  0  0
 10 36  1  0  0  0  0
 11 37  1  0  0  0  0
 11 38  1  0  0  0  0
 12 13  1  0  0  0  0
 12 39  1  0  0  0  0
 13 24  1  0  0  0  0
 13 14  2  0  0  0  0
 14 15  1  0  0  0  0
 14 40  1  0  0  0  0
 15 16  2  0  0  0  0
 15 41  1  0  0  0  0
 16 17  1  0  0  0  0
 16 23  1  0  0  0  0
 17 22  1  0  0  0  0
 17 18  1  0  0  0  0
 18 19  1  0  0  0  0
 18 42  1  0  0  0  0
 18 43  1  0  0  0  0
 19 20  1  0  0  0  0
 19 44  1  0  0  0  0
 19 45  1  0  0  0  0
 20 21  1  0  0  0  0
 21 22  1  0  0  0  0
 21 46  1  0  0  0  0
 21 47  1  0  0  0  0
 22 48  1  0  0  0  0
 22 49  1  0  0  0  0
 23 24  2  0  0  0  0
 24 50  1  0  0  0  0
M  END
> <s_m_source_file>
AV-unprocessed.smi

> <i_m_source_file_index>
2080

> <i_lp_mmshare_version>
43012

> <i_f3d_flags>
0

> <s_epik_input>
W0NIMl0xW0NIMl1bQ0gyXVtDSDJdW0NIXT1DMVtDSDJdW0NIMl1bTkhdQyg9TylbTkhdYzJbY0hdW2NIXWMobltjSF0yKU4zW0NIMl1bQ0gyXU9bQ0gyXVtDSDJdMw==

> <s_epik_cmdline>
J2VwaWtfcHl0aG9uJywgJy1waCcsICc3LjAnLCAnLXRuJywgJzgnLCAnLW1hJywgJzIwMCcsICctbWV0YWxfYmluZGluZycsICctaW1hZScsICc8aW5maWxlLm1hZT4nLCAnLW9tYWUnLCAnPG91dGZpbGUubWFlPic=

> <r_lp_tautomer_probability>
1

> <r_epik_Ionization_Penalty>
0.00210516

> <r_epik_Ionization_Penalty_Charging>
0

> <r_epik_Ionization_Penalty_Neutral>
0.00210516

> <r_epik_State_Penalty>
0.00141447

> <r_epik_Charging_Adjusted_Penalty>
0.00141447

> <i_epik_Tot_Q>
0

> <i_epik_Tot_abs_Q>
0

> <r_epik_Metal_State_Penalty>
-0

> <b_epik_Metal_Only>
0

> <s_lp_Force_Field>
OPLS_2005

> <r_lp_Energy>
24.2654

> <b_lp_Chiralities_Consistent>
1

> <s_lp_Variant>
AV-unprocessed.smi:2080-1

> <Gold.Version>
5.8.1

> <Gold.Id.Protein>
6NUR|6NUR_protein|mol2

> <Gold.PLP.Fitness>
49.4711

> <Gold.PLP.PLP>
-48.0995

> <Gold.PLP.part.hbond>
-3.0000

> <Gold.PLP.part.metal>
0.0000

> <Gold.PLP.part.buried>
-1.0182

> <Gold.PLP.part.nonpolar>
-44.7295

> <Gold.PLP.part.repulsive>
0.8076

> <Gold.PLP.ligand.clash>
0.0000

> <Gold.PLP.ligand.torsion>
1.0043

> <Gold.PLP.Chemscore.Hbond>
1.0000

> <Gold.PLP.Chemscore.CHOScore>
0.0000

> <Gold.PLP.Chemscore.Metal>
0.0000

> <Gold.Chemscore.Hbonds>
donor molecule, donor type, donor heavy atom, donor atom, acceptor molecule, acceptor atom, score
      L1  H     3    25       P1  7948  1.00

> <Gold.PLP.Chemscore.Internal.Correction>
0.3801

> <Gold.Rescore>
     Score         DG    S(hbond)    S(metal)    S(lipo)     H(rot)  DE(clash)    DE(int)     intcor
     16.30     -18.74       1.00        0.00     117.48       1.49       0.14       2.29       ----

> <Gold.Chemscore.Fitness>
16.3008

> <Gold.Chemscore.DG>
-18.7387

> <Gold.Chemscore.ZeroCoef>
-5.4800

> <Gold.Chemscore.Hbond>
0.9968

> <Gold.Chemscore.Metal>
0.0000

> <Gold.Chemscore.Lipo>
117.4794

> <Gold.Chemscore.Internal_Hbond>
0.0000

> <Gold.Chemscore.DEClash>
0.1441

> <Gold.Chemscore.DEInternal>
2.2939

> <Gold.Chemscore.Rot>
1.4905

> <Gold.Chemscore.Internal.Correction>
   9.000000E+99

> <Gold.Chemscore.Hbonds>
donor molecule, donor type, donor heavy atom, donor atom, acceptor molecule, acceptor atom, score
      L1  H     3    25       P1  7948  0.96

> <Gold.Chemscore.Hbond.Weighted>
-3.3294

> <Gold.Chemscore.Metal.Weighted>
-0.0000

> <Gold.Chemscore.Lipo.Weighted>
-13.7451

> <Gold.Chemscore.Internal_Hbond.Weighted>
0.0000

> <Gold.Chemscore.DEClash.Weighted>
0.1441

> <Gold.Chemscore.DEInternal.Weighted>
2.2939

> <Gold.Chemscore.Rot.Weighted>
3.8158

> <Gold.Chemscore.Internal.Correction.Weighted>
   9.000000E+99

> <Gold.Protein.RotatedTorsions>
[ 6907 6896 6895 6894 ] final  120.21 input  -60.11 | X-H torsion
[ 7974 7965 7964 7962 ] final  156.92 input  175.53 | X-H torsion
[ 8008 7997 7996 7995 ] final -139.80 input   59.86 | X-H torsion
[ 10167 10162 10161 10158 ] final  163.86 input  -65.29 | X-H torsion
[ 10718 10713 10712 10709 ] final   12.33 input   66.30 | X-H torsion
[ 10763 10752 10751 10750 ] final   72.69 input  -60.55 | X-H torsion
[ 11005 11000 10999 10996 ] final -162.23 input  -57.11 | X-H torsion

> <Gold.Protein.ActiveResidues>
 VAL166  LYS551  ARG553  GLY616  TRP617  ASP618  TYR619  PRO620  LYS621  CYS622 
 ASP623  PHE694  ASN695  SER759  ASP760  ASP761  ALA762  ILE779  LEU786  VAL792 
 PHE793  MET794  SER795  GLU796  ALA797  LYS798  CYS799  TRP800  GLU811  SER814 

> <Gold.Protein.RotatedAtoms>
  152.4415  133.7457  159.6665 H   0  0  0  0  0  0  0  0  0  0  0  0  # atno 6907 bound_to 6896
  150.8307  133.8086  159.3106 H   0  0  0  0  0  0  0  0  0  0  0  0  # atno 6908 bound_to 6896
  151.5741  135.1064  160.0054 H   0  0  0  0  0  0  0  0  0  0  0  0  # atno 6909 bound_to 6896
  144.7934  139.7269  143.6212 H   0  0  0  0  0  0  0  0  0  0  0  0  # atno 7974 bound_to 7965
  155.4508  140.0538  157.3001 H   0  0  0  0  0  0  0  0  0  0  0  0  # atno 8008 bound_to 7997
  154.4778  140.2068  155.9792 H   0  0  0  0  0  0  0  0  0  0  0  0  # atno 8009 bound_to 7997
  156.1159  140.3196  155.8143 H   0  0  0  0  0  0  0  0  0  0  0  0  # atno 8010 bound_to 7997
  139.4880  144.4294  151.9089 H   0  0  0  0  0  0  0  0  0  0  0  0  # atno 10167 bound_to 10162
  157.0086  130.6108  149.5705 H   0  0  0  0  0  0  0  0  0  0  0  0  # atno 10718 bound_to 10713
  153.0474  135.5090  154.7781 H   0  0  0  0  0  0  0  0  0  0  0  0  # atno 10763 bound_to 10752
  154.6670  135.2947  154.9794 H   0  0  0  0  0  0  0  0  0  0  0  0  # atno 10764 bound_to 10752
  154.0625  135.6689  153.4866 H   0  0  0  0  0  0  0  0  0  0  0  0  # atno 10765 bound_to 10752
  140.6115  134.4844  157.5216 H   0  0  0  0  0  0  0  0  0  0  0  0  # atno 11005 bound_to 11000
  146.2194  139.5608  142.9628 LP  0  0  0  0  0  0  0  0  0  0  0  0  # atno 17320 bound_to 7965
  145.5735  141.0391  143.2161 LP  0  0  0  0  0  0  0  0  0  0  0  0  # atno 17321 bound_to 7965
  140.3741  144.2818  150.5916 LP  0  0  0  0  0  0  0  0  0  0  0  0  # atno 17342 bound_to 10162
  140.5292  143.2247  151.8265 LP  0  0  0  0  0  0  0  0  0  0  0  0  # atno 17343 bound_to 10162
  156.0144  130.5238  150.8090 LP  0  0  0  0  0  0  0  0  0  0  0  0  # atno 17370 bound_to 10713
  157.5337  131.0938  150.9921 LP  0  0  0  0  0  0  0  0  0  0  0  0  # atno 17371 bound_to 10713
  139.9190  134.8187  156.1272 LP  0  0  0  0  0  0  0  0  0  0  0  0  # atno 17394 bound_to 11000
  141.0805  133.6756  156.2325 LP  0  0  0  0  0  0  0  0  0  0  0  0  # atno 17395 bound_to 11000

$$$$
