AV-unprocessed.smi:1530|AV-procd|sdf|6155|dock9
  -GOLD-   22720 6303D 1   1.00000     0.00000
 Structure written by MMmdl.
 42 43  0  0  0  0  0  0  0  0  1 V2000
  151.6942  138.2900  154.4153 C   0  0  0  0  0  0  0  0  0  0  0  0
  150.3491  138.2628  153.9500 O   0  0  0  0  0  0  0  0  0  0  0  0
  149.5699  139.3923  154.1162 C   0  0  0  0  0  0  0  0  0  0  0  0
  150.1202  140.4690  154.7316 N   0  0  0  0  0  0  0  0  0  0  0  0
  149.3649  141.5744  154.8909 C   0  0  0  0  0  0  0  0  0  0  0  0
  148.0344  141.6676  154.4448 C   0  0  0  0  0  0  0  0  0  0  0  0
  147.4611  140.5529  153.8054 C   0  0  0  0  0  0  0  0  0  0  0  0
  148.2373  139.3789  153.6405 C   0  0  0  0  0  0  0  0  0  0  0  0
  147.7738  138.1919  153.0047 N   0  0  0  0  0  0  0  0  0  0  0  0
  146.5175  137.8050  152.7243 C   0  0  0  0  0  0  0  0  0  0  0  0
  145.4973  138.4449  152.9762 O   0  0  0  0  0  0  0  0  0  0  0  0
  146.5093  136.6063  152.1243 N   0  0  0  0  0  0  0  0  0  0  0  0
  145.3211  135.8923  151.6526 C   0  0  0  0  0  0  0  0  0  0  0  0
  144.9969  134.5953  152.4560 C   0  0  0  0  0  0  0  0  0  0  0  0
  144.6400  134.9881  153.9163 C   0  0  0  0  0  0  0  0  0  0  0  0
  144.2212  134.0320  154.7523 N   0  0  0  0  0  0  0  0  0  0  0  0
  144.7295  136.1569  154.2906 O   0  0  0  0  0  0  0  0  0  0  0  0
  143.8156  133.8348  151.7878 C   0  0  0  0  0  0  0  0  0  0  0  0
  144.2075  133.1498  150.4652 C   0  0  0  0  0  0  0  0  0  0  0  0
  145.3071  132.2750  150.6734 O   0  0  0  0  0  0  0  0  0  0  0  0
  146.4707  132.9579  151.1186 C   0  0  0  0  0  0  0  0  0  0  0  0
  146.2008  133.6121  152.4844 C   0  0  0  0  0  0  0  0  0  0  0  0
  152.1666  137.3305  154.2058 H   0  0  0  0  0  0  0  0  0  0  0  0
  151.7414  138.4534  155.4928 H   0  0  0  0  0  0  0  0  0  0  0  0
  152.2757  139.0622  153.9094 H   0  0  0  0  0  0  0  0  0  0  0  0
  149.8364  142.4114  155.3842 H   0  0  0  0  0  0  0  0  0  0  0  0
  147.4670  142.5754  154.5865 H   0  0  0  0  0  0  0  0  0  0  0  0
  146.4463  140.6336  153.4511 H   0  0  0  0  0  0  0  0  0  0  0  0
  148.4982  137.5305  152.7649 H   0  0  0  0  0  0  0  0  0  0  0  0
  147.3984  136.1575  151.9581 H   0  0  0  0  0  0  0  0  0  0  0  0
  144.4826  136.5855  151.7304 H   0  0  0  0  0  0  0  0  0  0  0  0
  145.4109  135.6806  150.5876 H   0  0  0  0  0  0  0  0  0  0  0  0
  143.9781  134.2648  155.7043 H   0  0  0  0  0  0  0  0  0  0  0  0
  144.1439  133.0796  154.4259 H   0  0  0  0  0  0  0  0  0  0  0  0
  143.4406  133.0631  152.4624 H   0  0  0  0  0  0  0  0  0  0  0  0
  142.9798  134.5107  151.6011 H   0  0  0  0  0  0  0  0  0  0  0  0
  143.3672  132.5656  150.0900 H   0  0  0  0  0  0  0  0  0  0  0  0
  144.4469  133.8776  149.6897 H   0  0  0  0  0  0  0  0  0  0  0  0
  147.2830  132.2366  151.2083 H   0  0  0  0  0  0  0  0  0  0  0  0
  146.7861  133.6925  150.3770 H   0  0  0  0  0  0  0  0  0  0  0  0
  147.1088  134.1060  152.8315 H   0  0  0  0  0  0  0  0  0  0  0  0
  146.0063  132.8152  153.2044 H   0  0  0  0  0  0  0  0  0  0  0  0
  1  2  1  0  0  0  0
  1 23  1  0  0  0  0
  1 24  1  0  0  0  0
  1 25  1  0  0  0  0
  2  3  1  0  0  0  0
  3  8  1  0  0  0  0
  3  4  2  0  0  0  0
  4  5  1  0  0  0  0
  5  6  2  0  0  0  0
  5 26  1  0  0  0  0
  6  7  1  0  0  0  0
  6 27  1  0  0  0  0
  7  8  2  0  0  0  0
  7 28  1  0  0  0  0
  8  9  1  0  0  0  0
  9 10  1  0  0  0  0
  9 29  1  0  0  0  0
 10 11  2  0  0  0  0
 10 12  1  0  0  0  0
 12 13  1  0  0  0  0
 12 30  1  0  0  0  0
 13 14  1  0  0  0  0
 13 31  1  0  0  0  0
 13 32  1  0  0  0  0
 14 22  1  0  0  0  0
 14 15  1  0  0  0  0
 14 18  1  0  0  0  0
 15 16  1  0  0  0  0
 15 17  2  0  0  0  0
 16 33  1  0  0  0  0
 16 34  1  0  0  0  0
 18 19  1  0  0  0  0
 18 35  1  0  0  0  0
 18 36  1  0  0  0  0
 19 20  1  0  0  0  0
 19 37  1  0  0  0  0
 19 38  1  0  0  0  0
 20 21  1  0  0  0  0
 21 22  1  0  0  0  0
 21 39  1  0  0  0  0
 21 40  1  0  0  0  0
 22 41  1  0  0  0  0
 22 42  1  0  0  0  0
M  END
> <s_m_source_file>
AV-unprocessed.smi

> <i_m_source_file_index>
1530

> <i_lp_mmshare_version>
43012

> <i_f3d_flags>
0

> <s_epik_input>
W0NIM11PYzFuW2NIXVtjSF1bY0hdYzFbTkhdQyg9TylbTkhdW0NIMl1DMihDKD1PKVtOSDJdKVtDSDJdW0NIMl1PW0NIMl1bQ0gyXTI=

> <s_epik_cmdline>
J2VwaWtfcHl0aG9uJywgJy1waCcsICc3LjAnLCAnLXRuJywgJzgnLCAnLW1hJywgJzIwMCcsICctbWV0YWxfYmluZGluZycsICctaW1hZScsICc8aW5maWxlLm1hZT4nLCAnLW9tYWUnLCAnPG91dGZpbGUubWFlPic=

> <r_lp_tautomer_probability>
1

> <r_epik_Ionization_Penalty>
8.83779e-05

> <r_epik_Ionization_Penalty_Charging>
0

> <r_epik_Ionization_Penalty_Neutral>
8.83779e-05

> <r_epik_State_Penalty>
-0

> <r_epik_Charging_Adjusted_Penalty>
0

> <i_epik_Tot_Q>
0

> <i_epik_Tot_abs_Q>
0

> <r_epik_Metal_State_Penalty>
-0

> <b_epik_Metal_Only>
0

> <s_lp_Force_Field>
OPLS_2005

> <r_lp_Energy>
14.5365

> <b_lp_Chiralities_Consistent>
1

> <s_lp_Variant>
AV-unprocessed.smi:1530-1

> <Gold.Version>
5.8.1

> <Gold.Id.Protein>
6NUR|6NUR_protein|mol2

> <Gold.PLP.Fitness>
44.9518

> <Gold.PLP.PLP>
-31.6366

> <Gold.PLP.part.hbond>
-4.5291

> <Gold.PLP.part.metal>
0.0000

> <Gold.PLP.part.buried>
-2.4899

> <Gold.PLP.part.nonpolar>
-28.8449

> <Gold.PLP.part.repulsive>
3.5344

> <Gold.PLP.ligand.clash>
0.0000

> <Gold.PLP.ligand.torsion>
0.1831

> <Gold.PLP.Chemscore.Hbond>
3.6400

> <Gold.PLP.Chemscore.CHOScore>
0.9141

> <Gold.PLP.Chemscore.Metal>
0.0000

> <Gold.Chemscore.Hbonds>
donor molecule, donor type, donor heavy atom, donor atom, acceptor molecule, acceptor atom, score
      L1  H     9    29       P1  7948  0.96
      L1  H    12    30       P1  7948  1.00
      L1  H    16    34       P1 10957  0.58
      P1  H  7989  7998       L1     4  0.94
      L1  C     5    26       P1  8028  0.93

> <Gold.PLP.Chemscore.Internal.Correction>
0.0191

> <Gold.Rescore>
     Score         DG    S(hbond)    S(metal)    S(lipo)     H(rot)  DE(clash)    DE(int)     intcor
     12.30     -16.59       2.64        0.00      68.26       2.23       1.90       2.39       ----

> <Gold.Chemscore.Fitness>
12.3012

> <Gold.Chemscore.DG>
-16.5913

> <Gold.Chemscore.ZeroCoef>
-5.4800

> <Gold.Chemscore.Hbond>
2.6443

> <Gold.Chemscore.Metal>
0.0000

> <Gold.Chemscore.Lipo>
68.2610

> <Gold.Chemscore.Internal_Hbond>
0.0000

> <Gold.Chemscore.DEClash>
1.8972

> <Gold.Chemscore.DEInternal>
2.3930

> <Gold.Chemscore.Rot>
2.2294

> <Gold.Chemscore.Internal.Correction>
   9.000000E+99

> <Gold.Chemscore.Hbonds>
donor molecule, donor type, donor heavy atom, donor atom, acceptor molecule, acceptor atom, score
      L1  H     9    29       P1  7948  0.92
      L1  H    12    30       P1  7948  0.89
      L1  H    16    34       P1 10957  0.53
      P1  H  7989  7998       L1     4  0.19

> <Gold.Chemscore.Hbond.Weighted>
-8.8321

> <Gold.Chemscore.Metal.Weighted>
-0.0000

> <Gold.Chemscore.Lipo.Weighted>
-7.9865

> <Gold.Chemscore.Internal_Hbond.Weighted>
0.0000

> <Gold.Chemscore.DEClash.Weighted>
1.8972

> <Gold.Chemscore.DEInternal.Weighted>
2.3930

> <Gold.Chemscore.Rot.Weighted>
5.7073

> <Gold.Chemscore.Internal.Correction.Weighted>
   9.000000E+99

> <Gold.Protein.RotatedTorsions>
[ 6907 6896 6895 6894 ] final  -78.87 input  -60.11 | X-H torsion
[ 7974 7965 7964 7962 ] final   14.47 input  175.53 | X-H torsion
[ 8008 7997 7996 7995 ] final   50.95 input   59.86 | X-H torsion
[ 10167 10162 10161 10158 ] final  114.75 input  -65.29 | X-H torsion
[ 10718 10713 10712 10709 ] final   26.10 input   66.30 | X-H torsion
[ 10763 10752 10751 10750 ] final   -0.41 input  -60.55 | X-H torsion
[ 11005 11000 10999 10996 ] final  -63.94 input  -57.11 | X-H torsion

> <Gold.Protein.ActiveResidues>
 VAL166  LYS551  ARG553  GLY616  TRP617  ASP618  TYR619  PRO620  LYS621  CYS622 
 ASP623  PHE694  ASN695  SER759  ASP760  ASP761  ALA762  ILE779  LEU786  VAL792 
 PHE793  MET794  SER795  GLU796  ALA797  LYS798  CYS799  TRP800  GLU811  SER814 

> <Gold.Protein.RotatedAtoms>
  150.6962  134.4206  159.5203 H   0  0  0  0  0  0  0  0  0  0  0  0  # atno 6907 bound_to 6896
  152.1950  134.8636  160.0523 H   0  0  0  0  0  0  0  0  0  0  0  0  # atno 6908 bound_to 6896
  151.9577  133.3650  159.4060 H   0  0  0  0  0  0  0  0  0  0  0  0  # atno 6909 bound_to 6896
  146.2304  139.9037  142.8535 H   0  0  0  0  0  0  0  0  0  0  0  0  # atno 7974 bound_to 7965
  155.4272  140.3449  155.4277 H   0  0  0  0  0  0  0  0  0  0  0  0  # atno 8008 bound_to 7997
  156.1358  140.1527  156.9028 H   0  0  0  0  0  0  0  0  0  0  0  0  # atno 8009 bound_to 7997
  154.4930  140.0835  156.7617 H   0  0  0  0  0  0  0  0  0  0  0  0  # atno 8010 bound_to 7997
  139.6366  144.7120  151.2322 H   0  0  0  0  0  0  0  0  0  0  0  0  # atno 10167 bound_to 10162
  157.2023  130.6895  149.6193 H   0  0  0  0  0  0  0  0  0  0  0  0  # atno 10718 bound_to 10713
  153.3315  135.6975  153.6944 H   0  0  0  0  0  0  0  0  0  0  0  0  # atno 10763 bound_to 10752
  153.5745  135.3510  155.2851 H   0  0  0  0  0  0  0  0  0  0  0  0  # atno 10764 bound_to 10752
  154.8619  135.4280  154.2505 H   0  0  0  0  0  0  0  0  0  0  0  0  # atno 10765 bound_to 10752
  141.1409  133.6659  156.5758 H   0  0  0  0  0  0  0  0  0  0  0  0  # atno 11005 bound_to 11000
  145.2298  140.9968  143.3997 LP  0  0  0  0  0  0  0  0  0  0  0  0  # atno 17320 bound_to 7965
  144.9540  139.4052  143.6388 LP  0  0  0  0  0  0  0  0  0  0  0  0  # atno 17321 bound_to 7965
  140.7468  143.6385  150.8357 LP  0  0  0  0  0  0  0  0  0  0  0  0  # atno 17342 bound_to 10162
  140.0017  143.5737  152.2873 LP  0  0  0  0  0  0  0  0  0  0  0  0  # atno 17343 bound_to 10162
  155.9699  130.4579  150.5978 LP  0  0  0  0  0  0  0  0  0  0  0  0  # atno 17370 bound_to 10713
  157.3755  131.0772  151.1521 LP  0  0  0  0  0  0  0  0  0  0  0  0  # atno 17371 bound_to 10713
  140.3877  134.7468  157.4702 LP  0  0  0  0  0  0  0  0  0  0  0  0  # atno 17394 bound_to 11000
  140.0590  134.6023  155.8771 LP  0  0  0  0  0  0  0  0  0  0  0  0  # atno 17395 bound_to 11000

$$$$
