AV-unprocessed.smi:1303|AV-procd|sdf|5428|dock2
  -GOLD-   22720 4583D 1   1.00000     0.00000
 Structure written by MMmdl.
 40 41  0  0  0  0  0  0  0  0  1 V2000
  146.2862  143.3285  161.8551 C   0  0  0  0  0  0  0  0  0  0  0  0
  146.6846  143.8985  160.4836 C   0  0  0  0  0  0  0  0  0  0  0  0
  146.0186  145.2609  160.2291 C   0  0  0  0  0  0  0  0  0  0  0  0
  146.3373  142.9138  159.3599 C   0  0  0  0  0  0  0  0  0  0  0  0
  145.9206  141.7865  159.6285 O   0  0  0  0  0  0  0  0  0  0  0  0
  146.4996  143.3566  158.1034 N   0  0  0  0  0  0  0  0  0  0  0  0
  146.1670  142.5979  156.9014 C   0  0  0  0  0  0  0  0  0  0  0  0
  147.3681  142.0013  156.1783 C   0  0  0  0  0  0  0  0  0  0  0  0
  147.3797  141.9458  154.7710 C   0  0  0  0  0  0  0  0  0  0  0  0
  148.5005  141.3857  154.1307 C   0  0  0  0  0  0  0  0  0  0  0  0
  149.5678  140.8993  154.7974 N   0  0  0  0  0  0  0  0  0  0  0  0
  149.5712  140.9469  156.1525 C   0  0  0  0  0  0  0  0  0  0  0  0
  150.6981  140.4456  156.8393 N   0  0  0  0  0  0  0  0  0  0  0  0
  151.6339  139.6030  156.0971 C   0  0  0  0  0  0  0  0  0  0  0  0
  152.6267  138.9290  157.0592 C   0  0  0  0  0  0  0  0  0  0  0  0
  153.2831  139.9199  157.8428 O   0  0  0  0  0  0  0  0  0  0  0  0
  152.3638  140.6578  158.6413 C   0  0  0  0  0  0  0  0  0  0  0  0
  151.3587  141.3909  157.7366 C   0  0  0  0  0  0  0  0  0  0  0  0
  148.4798  141.4804  156.8780 C   0  0  0  0  0  0  0  0  0  0  0  0
  146.7453  142.3545  162.0289 H   0  0  0  0  0  0  0  0  0  0  0  0
  145.2055  143.2084  161.9420 H   0  0  0  0  0  0  0  0  0  0  0  0
  146.6094  143.9896  162.6593 H   0  0  0  0  0  0  0  0  0  0  0  0
  147.7656  144.0486  160.4862 H   0  0  0  0  0  0  0  0  0  0  0  0
  146.2947  145.6616  159.2526 H   0  0  0  0  0  0  0  0  0  0  0  0
  146.3251  145.9901  160.9793 H   0  0  0  0  0  0  0  0  0  0  0  0
  144.9306  145.1893  160.2638 H   0  0  0  0  0  0  0  0  0  0  0  0
  146.8472  144.2951  157.9701 H   0  0  0  0  0  0  0  0  0  0  0  0
  145.5017  141.7832  157.1871 H   0  0  0  0  0  0  0  0  0  0  0  0
  145.6029  143.2316  156.2149 H   0  0  0  0  0  0  0  0  0  0  0  0
  146.5502  142.3243  154.1921 H   0  0  0  0  0  0  0  0  0  0  0  0
  148.5422  141.3283  153.0530 H   0  0  0  0  0  0  0  0  0  0  0  0
  151.0926  138.8367  155.5412 H   0  0  0  0  0  0  0  0  0  0  0  0
  152.1736  140.2135  155.3719 H   0  0  0  0  0  0  0  0  0  0  0  0
  152.1164  138.2151  157.7077 H   0  0  0  0  0  0  0  0  0  0  0  0
  153.3734  138.3693  156.4957 H   0  0  0  0  0  0  0  0  0  0  0  0
  151.8484  139.9898  159.3334 H   0  0  0  0  0  0  0  0  0  0  0  0
  152.9166  141.3767  159.2458 H   0  0  0  0  0  0  0  0  0  0  0  0
  151.8759  142.1411  157.1373 H   0  0  0  0  0  0  0  0  0  0  0  0
  150.6442  141.9241  158.3620 H   0  0  0  0  0  0  0  0  0  0  0  0
  148.4896  141.4835  157.9575 H   0  0  0  0  0  0  0  0  0  0  0  0
  1  2  1  0  0  0  0
  1 20  1  0  0  0  0
  1 21  1  0  0  0  0
  1 22  1  0  0  0  0
  2  3  1  0  0  0  0
  2  4  1  0  0  0  0
  2 23  1  0  0  0  0
  3 24  1  0  0  0  0
  3 25  1  0  0  0  0
  3 26  1  0  0  0  0
  4  5  2  0  0  0  0
  4  6  1  0  0  0  0
  6  7  1  0  0  0  0
  6 27  1  0  0  0  0
  7  8  1  0  0  0  0
  7 28  1  0  0  0  0
  7 29  1  0  0  0  0
  8 19  1  0  0  0  0
  8  9  2  0  0  0  0
  9 10  1  0  0  0  0
  9 30  1  0  0  0  0
 10 11  2  0  0  0  0
 10 31  1  0  0  0  0
 11 12  1  0  0  0  0
 12 13  1  0  0  0  0
 12 19  2  0  0  0  0
 13 18  1  0  0  0  0
 13 14  1  0  0  0  0
 14 15  1  0  0  0  0
 14 32  1  0  0  0  0
 14 33  1  0  0  0  0
 15 16  1  0  0  0  0
 15 34  1  0  0  0  0
 15 35  1  0  0  0  0
 16 17  1  0  0  0  0
 17 18  1  0  0  0  0
 17 36  1  0  0  0  0
 17 37  1  0  0  0  0
 18 38  1  0  0  0  0
 18 39  1  0  0  0  0
 19 40  1  0  0  0  0
M  END
> <s_m_source_file>
AV-unprocessed.smi

> <i_m_source_file_index>
1303

> <i_lp_mmshare_version>
43012

> <i_f3d_flags>
0

> <s_epik_input>
W0NIM11bQ0hdKFtDSDNdKUMoPU8pW05IXVtDSDJdYzFbY0hdW2NIXW5jKFtjSF0xKU4yW0NIMl1bQ0gyXU9bQ0gyXVtDSDJdMg==

> <s_epik_cmdline>
J2VwaWtfcHl0aG9uJywgJy1waCcsICc3LjAnLCAnLXRuJywgJzgnLCAnLW1hJywgJzIwMCcsICctbWV0YWxfYmluZGluZycsICctaW1hZScsICc8aW5maWxlLm1hZT4nLCAnLW9tYWUnLCAnPG91dGZpbGUubWFlPic=

> <r_lp_tautomer_probability>
1

> <r_epik_Ionization_Penalty>
0.00576177

> <r_epik_Ionization_Penalty_Charging>
0

> <r_epik_Ionization_Penalty_Neutral>
0.00576177

> <r_epik_State_Penalty>
0.00422935

> <r_epik_Charging_Adjusted_Penalty>
0.00422935

> <i_epik_Tot_Q>
0

> <i_epik_Tot_abs_Q>
0

> <r_epik_Metal_State_Penalty>
-0

> <b_epik_Metal_Only>
0

> <s_lp_Force_Field>
OPLS_2005

> <r_lp_Energy>
14.5519

> <b_lp_Chiralities_Consistent>
1

> <s_lp_Variant>
AV-unprocessed.smi:1303-1

> <Gold.Version>
5.8.1

> <Gold.Id.Protein>
6NUR|6NUR_protein|mol2

> <Gold.PLP.Fitness>
39.6103

> <Gold.PLP.PLP>
-28.6561

> <Gold.PLP.part.hbond>
-3.5120

> <Gold.PLP.part.metal>
0.0000

> <Gold.PLP.part.buried>
-1.2561

> <Gold.PLP.part.nonpolar>
-21.9992

> <Gold.PLP.part.repulsive>
0.1403

> <Gold.PLP.ligand.clash>
0.0000

> <Gold.PLP.ligand.torsion>
0.7950

> <Gold.PLP.Chemscore.Hbond>
3.0655

> <Gold.PLP.Chemscore.CHOScore>
1.0000

> <Gold.PLP.Chemscore.Metal>
0.0000

> <Gold.Chemscore.Hbonds>
donor molecule, donor type, donor heavy atom, donor atom, acceptor molecule, acceptor atom, score
      L1  H     6    27       P1  8029  0.96
      P1  H  6934  6946       L1     5  1.00
      P1  H  7989  7998       L1    11  0.01
      P1  H  7997  8010       L1    16  0.99
      L1  C    10    31       P1  7957  1.00

> <Gold.PLP.Chemscore.Internal.Correction>
0.3477

> <Gold.Rescore>
     Score         DG    S(hbond)    S(metal)    S(lipo)     H(rot)  DE(clash)    DE(int)     intcor
     16.18     -17.38       2.61        0.00      61.13       1.56       0.09       1.11       ----

> <Gold.Chemscore.Fitness>
16.1813

> <Gold.Chemscore.DG>
-17.3751

> <Gold.Chemscore.ZeroCoef>
-5.4800

> <Gold.Chemscore.Hbond>
2.6144

> <Gold.Chemscore.Metal>
0.0000

> <Gold.Chemscore.Lipo>
61.1319

> <Gold.Chemscore.Internal_Hbond>
0.0000

> <Gold.Chemscore.DEClash>
0.0876

> <Gold.Chemscore.DEInternal>
1.1062

> <Gold.Chemscore.Rot>
1.5584

> <Gold.Chemscore.Internal.Correction>
   9.000000E+99

> <Gold.Chemscore.Hbonds>
donor molecule, donor type, donor heavy atom, donor atom, acceptor molecule, acceptor atom, score
      L1  H     6    27       P1  8029  0.32
      P1  H  6934  6946       L1     5  0.92
      P1  H  7989  7998       L1    11  0.04
      P1  H  7997  8010       L1    16  0.32

> <Gold.Chemscore.Hbond.Weighted>
-8.7322

> <Gold.Chemscore.Metal.Weighted>
-0.0000

> <Gold.Chemscore.Lipo.Weighted>
-7.1524

> <Gold.Chemscore.Internal_Hbond.Weighted>
0.0000

> <Gold.Chemscore.DEClash.Weighted>
0.0876

> <Gold.Chemscore.DEInternal.Weighted>
1.1062

> <Gold.Chemscore.Rot.Weighted>
3.9895

> <Gold.Chemscore.Internal.Correction.Weighted>
   9.000000E+99

> <Gold.Protein.RotatedTorsions>
[ 6907 6896 6895 6894 ] final  -45.08 input  -60.11 | X-H torsion
[ 7974 7965 7964 7962 ] final   68.68 input  175.53 | X-H torsion
[ 8008 7997 7996 7995 ] final   26.93 input   59.86 | X-H torsion
[ 10167 10162 10161 10158 ] final   88.80 input  -65.29 | X-H torsion
[ 10718 10713 10712 10709 ] final  -19.32 input   66.30 | X-H torsion
[ 10763 10752 10751 10750 ] final  -53.39 input  -60.55 | X-H torsion
[ 11005 11000 10999 10996 ] final  -28.16 input  -57.11 | X-H torsion

> <Gold.Protein.ActiveResidues>
 VAL166  LYS551  ARG553  GLY616  TRP617  ASP618  TYR619  PRO620  LYS621  CYS622 
 ASP623  PHE694  ASN695  SER759  ASP760  ASP761  ALA762  ILE779  LEU786  VAL792 
 PHE793  MET794  SER795  GLU796  ALA797  LYS798  CYS799  TRP800  GLU811  SER814 

> <Gold.Protein.RotatedAtoms>
  150.9258  134.8674  159.7518 H   0  0  0  0  0  0  0  0  0  0  0  0  # atno 6907 bound_to 6896
  152.5014  134.4151  159.9472 H   0  0  0  0  0  0  0  0  0  0  0  0  # atno 6908 bound_to 6896
  151.4182  133.3666  159.2787 H   0  0  0  0  0  0  0  0  0  0  0  0  # atno 6909 bound_to 6896
  145.7996  139.2975  143.1162 H   0  0  0  0  0  0  0  0  0  0  0  0  # atno 7974 bound_to 7965
  155.0350  140.3163  155.4745 H   0  0  0  0  0  0  0  0  0  0  0  0  # atno 8008 bound_to 7997
  156.2866  140.2173  156.5415 H   0  0  0  0  0  0  0  0  0  0  0  0  # atno 8009 bound_to 7997
  154.7338  140.0479  157.0738 H   0  0  0  0  0  0  0  0  0  0  0  0  # atno 8010 bound_to 7997
  139.8636  144.6531  150.9030 H   0  0  0  0  0  0  0  0  0  0  0  0  # atno 10167 bound_to 10162
  156.5473  130.4693  149.6469 H   0  0  0  0  0  0  0  0  0  0  0  0  # atno 10718 bound_to 10713
  154.1581  135.6479  153.4979 H   0  0  0  0  0  0  0  0  0  0  0  0  # atno 10763 bound_to 10752
  153.0118  135.5354  154.6739 H   0  0  0  0  0  0  0  0  0  0  0  0  # atno 10764 bound_to 10752
  154.6045  135.2947  155.0471 H   0  0  0  0  0  0  0  0  0  0  0  0  # atno 10765 bound_to 10752
  140.9184  133.7415  156.0767 H   0  0  0  0  0  0  0  0  0  0  0  0  # atno 11005 bound_to 11000
  145.9891  140.8617  143.0075 LP  0  0  0  0  0  0  0  0  0  0  0  0  # atno 17320 bound_to 7965
  144.6770  140.2190  143.7368 LP  0  0  0  0  0  0  0  0  0  0  0  0  # atno 17321 bound_to 7965
  140.7771  143.3723  151.1627 LP  0  0  0  0  0  0  0  0  0  0  0  0  # atno 17342 bound_to 10162
  139.7350  143.9013  152.3032 LP  0  0  0  0  0  0  0  0  0  0  0  0  # atno 17343 bound_to 10162
  156.2916  130.7127  151.1978 LP  0  0  0  0  0  0  0  0  0  0  0  0  # atno 17370 bound_to 10713
  157.7394  131.0529  150.5233 LP  0  0  0  0  0  0  0  0  0  0  0  0  # atno 17371 bound_to 10713
  140.8020  134.3498  157.5437 LP  0  0  0  0  0  0  0  0  0  0  0  0  # atno 17394 bound_to 11000
  139.8770  134.9203  156.3248 LP  0  0  0  0  0  0  0  0  0  0  0  0  # atno 17395 bound_to 11000

$$$$
