AV-unprocessed.smi:148|AV-procd|sdf|1203|dock2
  -GOLD-   2262018363D 1   1.00000     0.00000
 Structure written by MMmdl.
 63 67  0  0  0  0  0  0  0  0  1 V2000
  147.0705  137.0897  153.4867 O   0  0  0  0  0  0  0  0  0  0  0  0
  147.0404  136.7301  154.8529 C   0  0  0  0  0  0  0  0  0  0  0  0
  148.4563  136.7600  155.4783 C   0  0  1  0  0  0  0  0  0  0  0  0
  148.3299  136.7525  157.0275 C   0  0  0  0  0  0  0  0  0  0  0  0
  149.4455  137.3433  157.7480 N   0  0  0  0  0  0  0  0  0  0  0  0
  149.7386  137.1775  159.0839 C   0  0  0  0  0  0  0  0  0  0  0  0
  150.7708  137.8486  159.5172 N   0  0  0  0  0  0  0  0  0  0  0  0
  151.2130  138.5406  158.3977 C   0  0  0  0  0  0  0  0  0  0  0  0
  152.2670  139.4617  158.1627 C   0  0  0  0  0  0  0  0  0  0  0  0
  153.0689  139.8938  159.1616 N   0  0  0  0  0  0  0  0  0  0  0  0
  153.4886  138.7295  159.9469 C   0  0  0  0  0  0  0  0  0  0  0  0
  154.6215  139.0765  160.9153 C   0  0  0  0  0  0  0  0  0  0  0  0
  154.1880  140.2305  161.8174 C   0  0  0  0  0  0  0  0  0  0  0  0
  153.7722  141.4294  160.9571 C   0  0  0  0  0  0  0  0  0  0  0  0
  152.6541  141.0884  159.9299 C   0  0  1  0  0  0  0  0  0  0  0  0
  152.3424  142.3386  159.0335 C   0  0  2  0  0  0  0  0  0  0  0  0
  152.6926  143.6905  159.6895 C   0  0  0  0  0  0  0  0  0  0  0  0
  151.8393  144.7268  158.9714 C   0  0  0  0  0  0  0  0  0  0  0  0
  150.5033  144.0152  158.8151 C   0  0  0  0  0  0  0  0  0  0  0  0
  150.8585  142.5334  158.6112 C   0  0  1  0  0  0  0  0  0  0  0  0
  150.6883  142.2205  157.2445 O   0  0  0  0  0  0  0  0  0  0  0  0
  152.3992  139.9737  156.9102 N   0  0  0  0  0  0  0  0  0  0  0  0
  151.5601  139.5892  155.9430 C   0  0  0  0  0  0  0  0  0  0  0  0
  150.5313  138.7410  156.0163 N   0  0  0  0  0  0  0  0  0  0  0  0
  150.3929  138.2358  157.2759 C   0  0  0  0  0  0  0  0  0  0  0  0
  149.3448  135.6011  154.9352 C   0  0  2  0  0  0  0  0  0  0  0  0
  148.5877  134.3488  154.4972 C   0  0  0  0  0  0  0  0  0  0  0  0
  149.5239  133.1789  154.8116 C   0  0  0  0  0  0  0  0  0  0  0  0
  150.6970  133.7659  155.3517 O   0  0  0  0  0  0  0  0  0  0  0  0
  150.3252  134.9965  155.9450 C   0  0  0  0  0  0  0  0  0  0  0  0
  147.8941  136.8069  153.1193 H   0  0  0  0  0  0  0  0  0  0  0  0
  146.3653  137.3984  155.3883 H   0  0  0  0  0  0  0  0  0  0  0  0
  146.6053  135.7324  154.8960 H   0  0  0  0  0  0  0  0  0  0  0  0
  148.9154  137.7008  155.1717 H   0  0  0  0  0  0  0  0  0  0  0  0
  147.4372  137.2954  157.3389 H   0  0  0  0  0  0  0  0  0  0  0  0
  148.1975  135.7284  157.3795 H   0  0  0  0  0  0  0  0  0  0  0  0
  149.1576  136.5393  159.7335 H   0  0  0  0  0  0  0  0  0  0  0  0
  152.6360  138.3433  160.5081 H   0  0  0  0  0  0  0  0  0  0  0  0
  153.8198  137.9282  159.2837 H   0  0  0  0  0  0  0  0  0  0  0  0
  154.8832  138.2049  161.5157 H   0  0  0  0  0  0  0  0  0  0  0  0
  155.5160  139.3545  160.3563 H   0  0  0  0  0  0  0  0  0  0  0  0
  153.3540  139.9187  162.4476 H   0  0  0  0  0  0  0  0  0  0  0  0
  155.0013  140.5110  162.4872 H   0  0  0  0  0  0  0  0  0  0  0  0
  153.4565  142.2210  161.6353 H   0  0  0  0  0  0  0  0  0  0  0  0
  154.6488  141.8068  160.4283 H   0  0  0  0  0  0  0  0  0  0  0  0
  151.7557  140.8308  160.4928 H   0  0  0  0  0  0  0  0  0  0  0  0
  152.9608  142.2714  158.1358 H   0  0  0  0  0  0  0  0  0  0  0  0
  152.4135  143.6840  160.7442 H   0  0  0  0  0  0  0  0  0  0  0  0
  153.7555  143.9257  159.6251 H   0  0  0  0  0  0  0  0  0  0  0  0
  151.7563  145.6626  159.5247 H   0  0  0  0  0  0  0  0  0  0  0  0
  152.2649  144.9478  157.9914 H   0  0  0  0  0  0  0  0  0  0  0  0
  149.9333  144.1227  159.7390 H   0  0  0  0  0  0  0  0  0  0  0  0
  149.8961  144.4366  158.0123 H   0  0  0  0  0  0  0  0  0  0  0  0
  150.1810  141.9232  159.2071 H   0  0  0  0  0  0  0  0  0  0  0  0
  151.5396  142.1924  156.8353 H   0  0  0  0  0  0  0  0  0  0  0  0
  151.7328  140.0301  154.9723 H   0  0  0  0  0  0  0  0  0  0  0  0
  149.9307  135.9655  154.0897 H   0  0  0  0  0  0  0  0  0  0  0  0
  147.6645  134.2339  155.0657 H   0  0  0  0  0  0  0  0  0  0  0  0
  148.3300  134.3759  153.4388 H   0  0  0  0  0  0  0  0  0  0  0  0
  149.0735  132.5140  155.5498 H   0  0  0  0  0  0  0  0  0  0  0  0
  149.7649  132.5907  153.9260 H   0  0  0  0  0  0  0  0  0  0  0  0
  151.2027  135.6215  156.1124 H   0  0  0  0  0  0  0  0  0  0  0  0
  149.8426  134.8083  156.9058 H   0  0  0  0  0  0  0  0  0  0  0  0
  1  2  1  0  0  0  0
  1 31  1  0  0  0  0
  2  3  1  0  0  0  0
  2 32  1  0  0  0  0
  2 33  1  0  0  0  0
  3  4  1  0  0  0  0
  3 26  1  0  0  0  0
  3 34  1  0  0  0  0
  4  5  1  0  0  0  0
  4 35  1  0  0  0  0
  4 36  1  0  0  0  0
  5 25  1  0  0  0  0
  5  6  1  0  0  0  0
  6  7  2  0  0  0  0
  6 37  1  0  0  0  0
  7  8  1  0  0  0  0
  8 25  2  0  0  0  0
  8  9  1  0  0  0  0
  9 10  1  0  0  0  0
  9 22  2  0  0  0  0
 10 15  1  0  0  0  0
 10 11  1  0  0  0  0
 11 12  1  0  0  0  0
 11 38  1  0  0  0  0
 11 39  1  0  0  0  0
 12 13  1  0  0  0  0
 12 40  1  0  0  0  0
 12 41  1  0  0  0  0
 13 14  1  0  0  0  0
 13 42  1  0  0  0  0
 13 43  1  0  0  0  0
 14 15  1  0  0  0  0
 14 44  1  0  0  0  0
 14 45  1  0  0  0  0
 15 16  1  0  0  0  0
 15 46  1  0  0  0  0
 16 20  1  0  0  0  0
 16 17  1  0  0  0  0
 16 47  1  0  0  0  0
 17 18  1  0  0  0  0
 17 48  1  0  0  0  0
 17 49  1  0  0  0  0
 18 19  1  0  0  0  0
 18 50  1  0  0  0  0
 18 51  1  0  0  0  0
 19 20  1  0  0  0  0
 19 52  1  0  0  0  0
 19 53  1  0  0  0  0
 20 21  1  0  0  0  0
 20 54  1  0  0  0  0
 21 55  1  0  0  0  0
 22 23  1  0  0  0  0
 23 24  2  0  0  0  0
 23 56  1  0  0  0  0
 24 25  1  0  0  0  0
 26 30  1  0  0  0  0
 26 27  1  0  0  0  0
 26 57  1  0  0  0  0
 27 28  1  0  0  0  0
 27 58  1  0  0  0  0
 27 59  1  0  0  0  0
 28 29  1  0  0  0  0
 28 60  1  0  0  0  0
 28 61  1  0  0  0  0
 29 30  1  0  0  0  0
 30 62  1  0  0  0  0
 30 63  1  0  0  0  0
M  END
> <s_m_source_file>
AV-unprocessed.smi

> <i_m_source_file_index>
148

> <i_lp_mmshare_version>
43012

> <i_f3d_flags>
0

> <s_epik_input>
W0NIMl0xT1tDSDJdW0NIMl1bQ0BIXTFbQ0BIXShbQ0gyXVtPSF0pW0NIMl1uKFtjSF1uMiljKGMyMyluW2NIXW5jM040W0NIMl1bQ0gyXVtDSDJdW0NIMl1bQ0BIXTRbQ0BASF01W0NIMl1bQ0gyXVtDSDJdW0NASF01W09IXQ==

> <s_epik_cmdline>
J2VwaWtfcHl0aG9uJywgJy1waCcsICc3LjAnLCAnLXRuJywgJzgnLCAnLW1hJywgJzIwMCcsICctbWV0YWxfYmluZGluZycsICctaW1hZScsICc8aW5maWxlLm1hZT4nLCAnLW9tYWUnLCAnPG91dGZpbGUubWFlPic=

> <r_lp_tautomer_probability>
1

> <r_epik_Ionization_Penalty>
0.00556303

> <r_epik_Ionization_Penalty_Charging>
0

> <r_epik_Ionization_Penalty_Neutral>
0.00556303

> <r_epik_State_Penalty>
0.00401767

> <r_epik_Charging_Adjusted_Penalty>
0.00401767

> <i_epik_Tot_Q>
0

> <i_epik_Tot_abs_Q>
0

> <r_epik_Metal_State_Penalty>
-0

> <b_epik_Metal_Only>
0

> <s_lp_Force_Field>
OPLS_2005

> <r_lp_Energy>
69.6021

> <b_lp_Chiralities_Consistent>
1

> <s_lp_Variant>
AV-unprocessed.smi:148-2

> <Gold.Version>
5.8.1

> <Gold.Id.Protein>
6NUR|6NUR_protein|mol2

> <Gold.PLP.Fitness>
47.8431

> <Gold.PLP.PLP>
-47.0220

> <Gold.PLP.part.hbond>
-2.8684

> <Gold.PLP.part.metal>
0.0000

> <Gold.PLP.part.buried>
-7.1256

> <Gold.PLP.part.nonpolar>
-38.2896

> <Gold.PLP.part.repulsive>
0.0184

> <Gold.PLP.ligand.clash>
0.0000

> <Gold.PLP.ligand.torsion>
3.0224

> <Gold.PLP.Chemscore.Hbond>
2.0000

> <Gold.PLP.Chemscore.CHOScore>
0.0000

> <Gold.PLP.Chemscore.Metal>
0.0000

> <Gold.Chemscore.Hbonds>
donor molecule, donor type, donor heavy atom, donor atom, acceptor molecule, acceptor atom, score
      L1  H     1    31       P1  7948  1.00
      P1  H  7997  8009       L1    22  1.00

> <Gold.PLP.Chemscore.Internal.Correction>
0.8660

> <Gold.Rescore>
     Score         DG    S(hbond)    S(metal)    S(lipo)     H(rot)  DE(clash)    DE(int)     intcor
     12.37     -17.36       1.90        0.00     120.04       3.32       0.02       4.98       ----

> <Gold.Chemscore.Fitness>
12.3664

> <Gold.Chemscore.DG>
-17.3607

> <Gold.Chemscore.ZeroCoef>
-5.4800

> <Gold.Chemscore.Hbond>
1.8970

> <Gold.Chemscore.Metal>
0.0000

> <Gold.Chemscore.Lipo>
120.0396

> <Gold.Chemscore.Internal_Hbond>
0.0000

> <Gold.Chemscore.DEClash>
0.0154

> <Gold.Chemscore.DEInternal>
4.9789

> <Gold.Chemscore.Rot>
3.3203

> <Gold.Chemscore.Internal.Correction>
   9.000000E+99

> <Gold.Chemscore.Hbonds>
donor molecule, donor type, donor heavy atom, donor atom, acceptor molecule, acceptor atom, score
      L1  H     1    31       P1  7948  0.98
      P1  H  7997  8009       L1    22  0.61

> <Gold.Chemscore.Hbond.Weighted>
-6.3361

> <Gold.Chemscore.Metal.Weighted>
-0.0000

> <Gold.Chemscore.Lipo.Weighted>
-14.0446

> <Gold.Chemscore.Internal_Hbond.Weighted>
0.0000

> <Gold.Chemscore.DEClash.Weighted>
0.0154

> <Gold.Chemscore.DEInternal.Weighted>
4.9789

> <Gold.Chemscore.Rot.Weighted>
8.5000

> <Gold.Chemscore.Internal.Correction.Weighted>
   9.000000E+99

> <Gold.Protein.RotatedTorsions>
[ 6907 6896 6895 6894 ] final   92.64 input  -60.11 | X-H torsion
[ 7974 7965 7964 7962 ] final   41.83 input  175.53 | X-H torsion
[ 8008 7997 7996 7995 ] final -171.69 input   59.86 | X-H torsion
[ 10167 10162 10161 10158 ] final  -83.98 input  -65.29 | X-H torsion
[ 10718 10713 10712 10709 ] final    1.31 input   66.30 | X-H torsion
[ 10763 10752 10751 10750 ] final  142.05 input  -60.55 | X-H torsion
[ 11005 11000 10999 10996 ] final -157.64 input  -57.11 | X-H torsion

> <Gold.Protein.ActiveResidues>
 VAL166  LYS551  ARG553  GLY616  TRP617  ASP618  TYR619  PRO620  LYS621  CYS622 
 ASP623  PHE694  ASN695  SER759  ASP760  ASP761  ALA762  ILE779  LEU786  VAL792 
 PHE793  MET794  SER795  GLU796  ALA797  LYS798  CYS799  TRP800  GLU811  SER814 

> <Gold.Protein.RotatedAtoms>
  152.5453  134.1472  159.8502 H   0  0  0  0  0  0  0  0  0  0  0  0  # atno 6907 bound_to 6896
  151.1502  133.4905  159.2603 H   0  0  0  0  0  0  0  0  0  0  0  0  # atno 6908 bound_to 6896
  151.1480  135.0224  159.8710 H   0  0  0  0  0  0  0  0  0  0  0  0  # atno 6909 bound_to 6896
  146.0791  139.5370  142.9548 H   0  0  0  0  0  0  0  0  0  0  0  0  # atno 7974 bound_to 7965
  155.9348  140.1098  157.1103 H   0  0  0  0  0  0  0  0  0  0  0  0  # atno 8008 bound_to 7997
  154.4078  140.1230  156.4916 H   0  0  0  0  0  0  0  0  0  0  0  0  # atno 8009 bound_to 7997
  155.7035  140.3471  155.4945 H   0  0  0  0  0  0  0  0  0  0  0  0  # atno 8010 bound_to 7997
  140.4175  143.2597  151.8934 H   0  0  0  0  0  0  0  0  0  0  0  0  # atno 10167 bound_to 10162
  156.8462  130.5538  149.5673 H   0  0  0  0  0  0  0  0  0  0  0  0  # atno 10718 bound_to 10713
  153.9493  135.2971  155.3439 H   0  0  0  0  0  0  0  0  0  0  0  0  # atno 10763 bound_to 10752
  154.7435  135.5014  153.9166 H   0  0  0  0  0  0  0  0  0  0  0  0  # atno 10764 bound_to 10752
  153.1002  135.6732  153.9795 H   0  0  0  0  0  0  0  0  0  0  0  0  # atno 10765 bound_to 10752
  140.6624  134.4335  157.5234 H   0  0  0  0  0  0  0  0  0  0  0  0  # atno 11005 bound_to 11000
  145.6251  141.0315  143.1893 LP  0  0  0  0  0  0  0  0  0  0  0  0  # atno 17320 bound_to 7965
  144.7281  139.7811  143.7357 LP  0  0  0  0  0  0  0  0  0  0  0  0  # atno 17321 bound_to 7965
  139.4782  144.5472  151.8440 LP  0  0  0  0  0  0  0  0  0  0  0  0  # atno 17342 bound_to 10162
  140.4570  144.1775  150.5902 LP  0  0  0  0  0  0  0  0  0  0  0  0  # atno 17343 bound_to 10162
  156.0853  130.5853  150.9637 LP  0  0  0  0  0  0  0  0  0  0  0  0  # atno 17370 bound_to 10713
  157.6328  131.0919  150.8407 LP  0  0  0  0  0  0  0  0  0  0  0  0  # atno 17371 bound_to 10713
  139.9008  134.8560  156.1903 LP  0  0  0  0  0  0  0  0  0  0  0  0  # atno 17394 bound_to 11000
  141.0455  133.6916  156.1675 LP  0  0  0  0  0  0  0  0  0  0  0  0  # atno 17395 bound_to 11000

$$$$
