AV-unprocessed.smi:527|AV-procd|sdf|2817|dock2
  -GOLD-   2262023293D 1   1.00000     0.00000
 Structure written by MMmdl.
 42 43  0  0  0  0  0  0  0  0  1 V2000
  153.6117  141.9825  160.8940 C   0  0  0  0  0  0  0  0  0  0  0  0
  152.8805  143.1474  160.2014 C   0  0  2  0  0  0  0  0  0  0  0  0
  152.3607  144.1337  161.2661 C   0  0  0  0  0  0  0  0  0  0  0  0
  151.6581  145.3377  160.6306 C   0  0  0  0  0  0  0  0  0  0  0  0
  150.4974  144.8759  159.7454 C   0  0  0  0  0  0  0  0  0  0  0  0
  150.9745  143.8927  158.6597 C   0  0  2  0  0  0  0  0  0  0  0  0
  149.8166  143.4452  157.8864 N   0  0  0  0  0  0  0  0  0  0  0  0
  148.7408  142.8173  158.3844 C   0  0  0  0  0  0  0  0  0  0  0  0
  148.6267  142.5054  159.5718 O   0  0  0  0  0  0  0  0  0  0  0  0
  147.8314  142.5806  157.4191 N   0  0  0  0  0  0  0  0  0  0  0  0
  146.8160  141.6934  157.4455 C   0  0  0  0  0  0  0  0  0  0  0  0
  146.5476  140.9572  158.3988 O   0  0  0  0  0  0  0  0  0  0  0  0
  145.9690  141.6502  156.1667 C   0  0  0  0  0  0  0  0  0  0  0  0
  146.7661  141.4847  154.9630 N   0  0  0  0  0  0  0  0  0  0  0  0
  146.7906  140.3824  154.1178 C   0  0  0  0  0  0  0  0  0  0  0  0
  147.6849  140.6770  153.1135 C   0  0  0  0  0  0  0  0  0  0  0  0
  148.2192  141.9469  153.3190 N   0  0  0  0  0  0  0  0  0  0  0  0
  147.6267  142.3637  154.4307 C   0  0  0  0  0  0  0  0  0  0  0  0
  151.7311  142.6783  159.2640 C   0  0  1  0  0  0  0  0  0  0  0  0
  152.2417  141.7369  158.1511 C   0  0  0  0  0  0  0  0  0  0  0  0
  152.9170  141.3527  161.4509 H   0  0  0  0  0  0  0  0  0  0  0  0
  154.3579  142.3531  161.5975 H   0  0  0  0  0  0  0  0  0  0  0  0
  154.1421  141.3523  160.1811 H   0  0  0  0  0  0  0  0  0  0  0  0
  153.6152  143.6786  159.5943 H   0  0  0  0  0  0  0  0  0  0  0  0
  151.6691  143.6218  161.9368 H   0  0  0  0  0  0  0  0  0  0  0  0
  153.1865  144.4856  161.8854 H   0  0  0  0  0  0  0  0  0  0  0  0
  151.2893  146.0073  161.4082 H   0  0  0  0  0  0  0  0  0  0  0  0
  152.3706  145.9120  160.0370 H   0  0  0  0  0  0  0  0  0  0  0  0
  149.7354  144.4026  160.3666 H   0  0  0  0  0  0  0  0  0  0  0  0
  150.0246  145.7440  159.2841 H   0  0  0  0  0  0  0  0  0  0  0  0
  151.6689  144.4209  158.0029 H   0  0  0  0  0  0  0  0  0  0  0  0
  149.8426  143.6263  156.8936 H   0  0  0  0  0  0  0  0  0  0  0  0
  147.9224  143.1275  156.5758 H   0  0  0  0  0  0  0  0  0  0  0  0
  145.2552  140.8279  156.2321 H   0  0  0  0  0  0  0  0  0  0  0  0
  145.3932  142.5724  156.0765 H   0  0  0  0  0  0  0  0  0  0  0  0
  146.1846  139.5059  154.2945 H   0  0  0  0  0  0  0  0  0  0  0  0
  147.9816  140.0777  152.2655 H   0  0  0  0  0  0  0  0  0  0  0  0
  147.8229  143.3317  154.8681 H   0  0  0  0  0  0  0  0  0  0  0  0
  151.0208  142.1133  159.8699 H   0  0  0  0  0  0  0  0  0  0  0  0
  152.9994  142.2259  157.5382 H   0  0  0  0  0  0  0  0  0  0  0  0
  151.4387  141.4172  157.4873 H   0  0  0  0  0  0  0  0  0  0  0  0
  152.6783  140.8261  158.5588 H   0  0  0  0  0  0  0  0  0  0  0  0
  1  2  1  0  0  0  0
  1 21  1  0  0  0  0
  1 22  1  0  0  0  0
  1 23  1  0  0  0  0
  2 19  1  0  0  0  0
  2  3  1  0  0  0  0
  2 24  1  0  0  0  0
  3  4  1  0  0  0  0
  3 25  1  0  0  0  0
  3 26  1  0  0  0  0
  4  5  1  0  0  0  0
  4 27  1  0  0  0  0
  4 28  1  0  0  0  0
  5  6  1  0  0  0  0
  5 29  1  0  0  0  0
  5 30  1  0  0  0  0
  6  7  1  0  0  0  0
  6 19  1  0  0  0  0
  6 31  1  0  0  0  0
  7  8  1  0  0  0  0
  7 32  1  0  0  0  0
  8  9  2  0  0  0  0
  8 10  1  0  0  0  0
 10 11  1  0  0  0  0
 10 33  1  0  0  0  0
 11 12  2  0  0  0  0
 11 13  1  0  0  0  0
 13 14  1  0  0  0  0
 13 34  1  0  0  0  0
 13 35  1  0  0  0  0
 14 18  1  0  0  0  0
 14 15  1  0  0  0  0
 15 16  2  0  0  0  0
 15 36  1  0  0  0  0
 16 17  1  0  0  0  0
 16 37  1  0  0  0  0
 17 18  2  0  0  0  0
 18 38  1  0  0  0  0
 19 20  1  0  0  0  0
 19 39  1  0  0  0  0
 20 40  1  0  0  0  0
 20 41  1  0  0  0  0
 20 42  1  0  0  0  0
M  END
> <s_m_source_file>
AV-unprocessed.smi

> <i_m_source_file_index>
527

> <i_lp_mmshare_version>
43012

> <i_f3d_flags>
0

> <s_epik_input>
W0NIM11bQ0BASF0xW0NIMl1bQ0gyXVtDSDJdW0NASF0oW0NASF0xW0NIM10pW05IXUMoPU8pW05IXUMoPU8pW0NIMl1uMltjSF1bY0hdbltjSF0y

> <s_epik_cmdline>
J2VwaWtfcHl0aG9uJywgJy1waCcsICc3LjAnLCAnLXRuJywgJzgnLCAnLW1hJywgJzIwMCcsICctbWV0YWxfYmluZGluZycsICctaW1hZScsICc8aW5maWxlLm1hZT4nLCAnLW9tYWUnLCAnPG91dGZpbGUubWFlPic=

> <r_lp_tautomer_probability>
1

> <r_epik_Ionization_Penalty>
0.172132

> <r_epik_Ionization_Penalty_Charging>
0.172105

> <r_epik_Ionization_Penalty_Neutral>
2.71747e-05

> <r_epik_State_Penalty>
0.161503

> <r_epik_Charging_Adjusted_Penalty>
0.333607

> <i_epik_Tot_Q>
0

> <i_epik_Tot_abs_Q>
0

> <r_epik_Metal_State_Penalty>
0.124763

> <b_epik_Metal_Only>
0

> <s_lp_Force_Field>
OPLS_2005

> <r_lp_Energy>
15.8984

> <b_lp_Chiralities_Consistent>
1

> <s_lp_Variant>
AV-unprocessed.smi:527-3

> <Gold.Version>
5.8.1

> <Gold.Id.Protein>
6NUR|6NUR_protein|mol2

> <Gold.PLP.Fitness>
49.0716

> <Gold.PLP.PLP>
-36.8006

> <Gold.PLP.part.hbond>
-5.9501

> <Gold.PLP.part.metal>
0.0000

> <Gold.PLP.part.buried>
0.1416

> <Gold.PLP.part.nonpolar>
-32.2607

> <Gold.PLP.part.repulsive>
1.1433

> <Gold.PLP.ligand.clash>
0.0000

> <Gold.PLP.ligand.torsion>
0.2134

> <Gold.PLP.Chemscore.Hbond>
2.4830

> <Gold.PLP.Chemscore.CHOScore>
1.7416

> <Gold.PLP.Chemscore.Metal>
0.0000

> <Gold.Chemscore.Hbonds>
donor molecule, donor type, donor heavy atom, donor atom, acceptor molecule, acceptor atom, score
      L1  H     7    32       P1  8028  0.72
      L1  H    10    33       P1  8028  0.74
      P1  H  6933  6944       L1     9  0.22
      P1  H  6934  6946       L1    12  0.10
      P1  H  8011  8017       L1    17  0.46
      L1  C    16    37       P1  7957  0.80
      L1  C    18    38       P1  8028  0.62

> <Gold.PLP.Chemscore.Internal.Correction>
0.0241

> <Gold.Rescore>
     Score         DG    S(hbond)    S(metal)    S(lipo)     H(rot)  DE(clash)    DE(int)     intcor
     14.68     -18.90       1.90        0.00      96.93       1.66       0.42       3.80       ----

> <Gold.Chemscore.Fitness>
14.6779

> <Gold.Chemscore.DG>
-18.8984

> <Gold.Chemscore.ZeroCoef>
-5.4800

> <Gold.Chemscore.Hbond>
1.8966

> <Gold.Chemscore.Metal>
0.0000

> <Gold.Chemscore.Lipo>
96.9282

> <Gold.Chemscore.Internal_Hbond>
0.0000

> <Gold.Chemscore.DEClash>
0.4228

> <Gold.Chemscore.DEInternal>
3.7977

> <Gold.Chemscore.Rot>
1.6629

> <Gold.Chemscore.Internal.Correction>
   9.000000E+99

> <Gold.Chemscore.Hbonds>
donor molecule, donor type, donor heavy atom, donor atom, acceptor molecule, acceptor atom, score
      L1  H     7    32       P1  8028  0.71
      L1  H    10    33       P1  8028  0.12
      P1  H  6933  6944       L1     9  0.22
      P1  H  6934  6946       L1    12  0.10
      P1  H  8011  8017       L1    17  0.44

> <Gold.Chemscore.Hbond.Weighted>
-6.3348

> <Gold.Chemscore.Metal.Weighted>
-0.0000

> <Gold.Chemscore.Lipo.Weighted>
-11.3406

> <Gold.Chemscore.Internal_Hbond.Weighted>
0.0000

> <Gold.Chemscore.DEClash.Weighted>
0.4228

> <Gold.Chemscore.DEInternal.Weighted>
3.7977

> <Gold.Chemscore.Rot.Weighted>
4.2569

> <Gold.Chemscore.Internal.Correction.Weighted>
   9.000000E+99

> <Gold.Protein.RotatedTorsions>
[ 6907 6896 6895 6894 ] final  110.82 input  -60.11 | X-H torsion
[ 7974 7965 7964 7962 ] final -109.81 input  175.53 | X-H torsion
[ 8008 7997 7996 7995 ] final    5.19 input   59.86 | X-H torsion
[ 10167 10162 10161 10158 ] final   88.62 input  -65.29 | X-H torsion
[ 10718 10713 10712 10709 ] final   65.37 input   66.30 | X-H torsion
[ 10763 10752 10751 10750 ] final  157.06 input  -60.55 | X-H torsion
[ 11005 11000 10999 10996 ] final  -14.45 input  -57.11 | X-H torsion

> <Gold.Protein.ActiveResidues>
 VAL166  LYS551  ARG553  GLY616  TRP617  ASP618  TYR619  PRO620  LYS621  CYS622 
 ASP623  PHE694  ASN695  SER759  ASP760  ASP761  ALA762  ILE779  LEU786  VAL792 
 PHE793  MET794  SER795  GLU796  ALA797  LYS798  CYS799  TRP800  GLU811  SER814 

> <Gold.Protein.RotatedAtoms>
  152.5000  133.8745  159.7314 H   0  0  0  0  0  0  0  0  0  0  0  0  # atno 6907 bound_to 6896
  150.9223  133.6856  159.2836 H   0  0  0  0  0  0  0  0  0  0  0  0  # atno 6908 bound_to 6896
  151.4229  135.1004  159.9672 H   0  0  0  0  0  0  0  0  0  0  0  0  # atno 6909 bound_to 6896
  145.1760  140.8948  143.3508 H   0  0  0  0  0  0  0  0  0  0  0  0  # atno 7974 bound_to 7965
  154.7252  140.2719  155.6505 H   0  0  0  0  0  0  0  0  0  0  0  0  # atno 8008 bound_to 7997
  156.2835  140.2726  156.1861 H   0  0  0  0  0  0  0  0  0  0  0  0  # atno 8009 bound_to 7997
  155.0454  140.0371  157.2514 H   0  0  0  0  0  0  0  0  0  0  0  0  # atno 8010 bound_to 7997
  139.8655  144.6521  150.9009 H   0  0  0  0  0  0  0  0  0  0  0  0  # atno 10167 bound_to 10162
  157.6101  130.9210  149.9967 H   0  0  0  0  0  0  0  0  0  0  0  0  # atno 10718 bound_to 10713
  154.1942  135.2793  155.3012 H   0  0  0  0  0  0  0  0  0  0  0  0  # atno 10763 bound_to 10752
  154.5905  135.5561  153.7277 H   0  0  0  0  0  0  0  0  0  0  0  0  # atno 10764 bound_to 10752
  153.0104  135.6367  154.2080 H   0  0  0  0  0  0  0  0  0  0  0  0  # atno 10765 bound_to 10752
  140.7865  133.8321  155.9340 H   0  0  0  0  0  0  0  0  0  0  0  0  # atno 11005 bound_to 11000
  145.0185  139.3446  143.6084 LP  0  0  0  0  0  0  0  0  0  0  0  0  # atno 17320 bound_to 7965
  146.3461  139.9475  142.8733 LP  0  0  0  0  0  0  0  0  0  0  0  0  # atno 17321 bound_to 7965
  140.7769  143.3708  151.1653 LP  0  0  0  0  0  0  0  0  0  0  0  0  # atno 17342 bound_to 10162
  139.7333  143.9038  152.3027 LP  0  0  0  0  0  0  0  0  0  0  0  0  # atno 17343 bound_to 10162
  156.1200  130.3646  149.9903 LP  0  0  0  0  0  0  0  0  0  0  0  0  # atno 17370 bound_to 10713
  156.7985  130.9282  151.3646 LP  0  0  0  0  0  0  0  0  0  0  0  0  # atno 17371 bound_to 10713
  140.9431  134.1875  157.4783 LP  0  0  0  0  0  0  0  0  0  0  0  0  # atno 17394 bound_to 11000
  139.8736  134.9880  156.5392 LP  0  0  0  0  0  0  0  0  0  0  0  0  # atno 17395 bound_to 11000

$$$$
