AV-unprocessed.smi:1046|AV-procd|sdf|4551|dock5
  -GOLD-   22720 2583D 1   1.00000     0.00000
 Structure written by MMmdl.
 53 55  0  0  0  0  0  0  0  0  2 V2000
  153.0624  142.7190  161.8060 C   0  0  0  0  0  0  0  0  0  0  0  0
  152.4907  142.3700  160.4431 C   0  0  0  0  0  0  0  0  0  0  0  0
  152.9302  141.1936  159.7948 C   0  0  0  0  0  0  0  0  0  0  0  0
  152.4233  140.8329  158.5271 C   0  0  0  0  0  0  0  0  0  0  0  0
  152.7068  139.7428  157.7219 N   0  0  0  0  0  0  0  0  0  0  0  0
  151.9184  139.9705  156.6752 C   0  0  0  0  0  0  0  0  0  0  0  0
  151.1568  141.0812  156.7072 N   0  0  0  0  0  0  0  0  0  0  0  0
  150.2236  141.5381  155.6933 C   0  0  0  0  0  0  0  0  0  0  0  0
  148.7553  141.3260  156.1081 C   0  0  1  0  0  0  0  0  0  0  0  0
  147.9215  142.1177  155.2844 O   0  0  0  0  0  0  0  0  0  0  0  0
  148.3383  139.8478  155.9707 C   0  0  0  0  0  0  0  0  0  0  0  0
  148.3458  139.3071  154.6052 N   0  0  0  0  0  0  0  0  0  0  0  0
  149.6968  139.0383  154.1132 C   0  0  0  0  0  0  0  0  0  0  0  0
  150.3570  137.8148  154.7827 C   0  0  0  0  0  0  0  0  0  0  0  0
  149.5125  136.6053  154.6052 N   0  3  0  0  0  0  0  0  0  0  0  0
  150.1410  135.3871  155.1757 C   0  0  0  0  0  0  0  0  0  0  0  0
  149.5239  134.0889  154.6278 C   0  0  0  0  0  0  0  0  0  0  0  0
  150.1446  132.9695  155.2239 O   0  0  0  0  0  0  0  0  0  0  0  0
  148.1301  136.8515  155.0962 C   0  0  0  0  0  0  0  0  0  0  0  0
  147.5368  138.1002  154.4139 C   0  0  0  0  0  0  0  0  0  0  0  0
  151.4570  141.6881  157.9215 C   0  0  0  0  0  0  0  0  0  0  0  0
  151.0122  142.8614  158.5559 C   0  0  0  0  0  0  0  0  0  0  0  0
  151.5294  143.2074  159.8219 C   0  0  0  0  0  0  0  0  0  0  0  0
  151.0445  144.4770  160.4987 C   0  0  0  0  0  0  0  0  0  0  0  0
  153.7773  141.9678  162.1421 H   0  0  0  0  0  0  0  0  0  0  0  0
  152.2679  142.7801  162.5501 H   0  0  0  0  0  0  0  0  0  0  0  0
  153.5782  143.6785  161.7694 H   0  0  0  0  0  0  0  0  0  0  0  0
  153.6627  140.5559  160.2673 H   0  0  0  0  0  0  0  0  0  0  0  0
  151.8941  139.2916  155.8354 H   0  0  0  0  0  0  0  0  0  0  0  0
  150.4173  142.5915  155.4850 H   0  0  0  0  0  0  0  0  0  0  0  0
  150.4363  140.9941  154.7722 H   0  0  0  0  0  0  0  0  0  0  0  0
  148.6410  141.6632  157.1372 H   0  0  0  0  0  0  0  0  0  0  0  0
  148.0915  143.0286  155.4688 H   0  0  0  0  0  0  0  0  0  0  0  0
  149.0087  139.2514  156.5914 H   0  0  0  0  0  0  0  0  0  0  0  0
  147.3498  139.7230  156.4112 H   0  0  0  0  0  0  0  0  0  0  0  0
  149.6556  138.8713  153.0357 H   0  0  0  0  0  0  0  0  0  0  0  0
  150.3239  139.9199  154.2511 H   0  0  0  0  0  0  0  0  0  0  0  0
  151.3352  137.6455  154.3309 H   0  0  0  0  0  0  0  0  0  0  0  0
  150.5296  137.9963  155.8444 H   0  0  0  0  0  0  0  0  0  0  0  0
  151.2081  135.3833  154.9478 H   0  0  0  0  0  0  0  0  0  0  0  0
  150.0624  135.4140  156.2636 H   0  0  0  0  0  0  0  0  0  0  0  0
  148.4612  134.0568  154.8691 H   0  0  0  0  0  0  0  0  0  0  0  0
  149.6008  134.0202  153.5433 H   0  0  0  0  0  0  0  0  0  0  0  0
  150.9652  132.8077  154.7824 H   0  0  0  0  0  0  0  0  0  0  0  0
  147.4940  135.9962  154.8723 H   0  0  0  0  0  0  0  0  0  0  0  0
  148.1302  136.9633  156.1811 H   0  0  0  0  0  0  0  0  0  0  0  0
  146.5146  138.2611  154.7526 H   0  0  0  0  0  0  0  0  0  0  0  0
  147.4526  137.9024  153.3443 H   0  0  0  0  0  0  0  0  0  0  0  0
  150.2797  143.4893  158.0712 H   0  0  0  0  0  0  0  0  0  0  0  0
  150.3211  145.0070  159.8785 H   0  0  0  0  0  0  0  0  0  0  0  0
  151.8794  145.1516  160.6893 H   0  0  0  0  0  0  0  0  0  0  0  0
  150.5635  144.2435  161.4489 H   0  0  0  0  0  0  0  0  0  0  0  0
  149.4484  136.4525  153.6085 H   0  0  0  0  0  0  0  0  0  0  0  0
  1  2  1  0  0  0  0
  1 25  1  0  0  0  0
  1 26  1  0  0  0  0
  1 27  1  0  0  0  0
  2 23  1  0  0  0  0
  2  3  2  0  0  0  0
  3  4  1  0  0  0  0
  3 28  1  0  0  0  0
  4 21  2  0  0  0  0
  4  5  1  0  0  0  0
  5  6  2  0  0  0  0
  6  7  1  0  0  0  0
  6 29  1  0  0  0  0
  7  8  1  0  0  0  0
  7 21  1  0  0  0  0
  8  9  1  0  0  0  0
  8 30  1  0  0  0  0
  8 31  1  0  0  0  0
  9 10  1  0  0  0  0
  9 11  1  0  0  0  0
  9 32  1  0  0  0  0
 10 33  1  0  0  0  0
 11 12  1  0  0  0  0
 11 34  1  0  0  0  0
 11 35  1  0  0  0  0
 12 20  1  0  0  0  0
 12 13  1  0  0  0  0
 13 14  1  0  0  0  0
 13 36  1  0  0  0  0
 13 37  1  0  0  0  0
 14 15  1  0  0  0  0
 14 38  1  0  0  0  0
 14 39  1  0  0  0  0
 15 16  1  0  0  0  0
 15 19  1  0  0  0  0
 15 53  1  0  0  0  0
 16 17  1  0  0  0  0
 16 40  1  0  0  0  0
 16 41  1  0  0  0  0
 17 18  1  0  0  0  0
 17 42  1  0  0  0  0
 17 43  1  0  0  0  0
 18 44  1  0  0  0  0
 19 20  1  0  0  0  0
 19 45  1  0  0  0  0
 19 46  1  0  0  0  0
 20 47  1  0  0  0  0
 20 48  1  0  0  0  0
 21 22  1  0  0  0  0
 22 23  2  0  0  0  0
 22 49  1  0  0  0  0
 23 24  1  0  0  0  0
 24 50  1  0  0  0  0
 24 51  1  0  0  0  0
 24 52  1  0  0  0  0
M  CHG  1  15   1
M  END
> <s_m_source_file>
AV-unprocessed.smi

> <i_m_source_file_index>
1046

> <i_lp_mmshare_version>
43012

> <i_f3d_flags>
0

> <s_epik_input>
W0NIM11jKFtjSF0xKWMoW0NIM10pW2NIXWMoYzEyKW4oW2NIXW4yKVtDSDJdW0NASF0oW09IXSlbQ0gyXU4zW0NIMl1bQ0gyXU4oW0NIMl1bQ0gyXTMpW0NIMl1bQ0gyXVtPSF0=

> <s_epik_cmdline>
J2VwaWtfcHl0aG9uJywgJy1waCcsICc3LjAnLCAnLXRuJywgJzgnLCAnLW1hJywgJzIwMCcsICctbWV0YWxfYmluZGluZycsICctaW1hZScsICc8aW5maWxlLm1hZT4nLCAnLW9tYWUnLCAnPG91dGZpbGUubWFlPic=

> <r_epik_Ionization_Penalty>
0.218081

> <r_epik_Ionization_Penalty_Charging>
0.0909554

> <r_epik_Ionization_Penalty_Neutral>
0.127126

> <r_epik_State_Penalty>
0.825642

> <r_epik_Charging_Adjusted_Penalty>
0.916597

> <i_epik_Tot_Q>
1

> <i_epik_Tot_abs_Q>
1

> <r_epik_Metal_State_Penalty>
0.740189

> <b_epik_Metal_Only>
0

> <s_lp_Force_Field>
OPLS_2005

> <r_lp_Energy>
34.993

> <b_lp_Chiralities_Consistent>
1

> <s_lp_Variant>
AV-unprocessed.smi:1046-4

> <Gold.Version>
5.8.1

> <Gold.Id.Protein>
6NUR|6NUR_protein|mol2

> <Gold.PLP.Fitness>
55.6332

> <Gold.PLP.PLP>
-44.6068

> <Gold.PLP.part.hbond>
-3.0000

> <Gold.PLP.part.metal>
0.0000

> <Gold.PLP.part.buried>
-5.9438

> <Gold.PLP.part.nonpolar>
-34.9185

> <Gold.PLP.part.repulsive>
0.1451

> <Gold.PLP.ligand.clash>
0.0000

> <Gold.PLP.ligand.torsion>
0.5664

> <Gold.PLP.Chemscore.Hbond>
4.0000

> <Gold.PLP.Chemscore.CHOScore>
0.0000

> <Gold.PLP.Chemscore.Metal>
0.0000

> <Gold.Chemscore.Hbonds>
donor molecule, donor type, donor heavy atom, donor atom, acceptor molecule, acceptor atom, score
      L1  H    10    33       P1  8028  1.00
      L1  H    15    53       P1  7948  2.00
      P1  H  7997  8008       L1     5  1.00

> <Gold.PLP.Chemscore.Internal.Correction>
0.1592

> <Gold.Rescore>
     Score         DG    S(hbond)    S(metal)    S(lipo)     H(rot)  DE(clash)    DE(int)     intcor
     18.49     -19.22       2.43        0.00     118.36       3.21       0.08       0.65       ----

> <Gold.Chemscore.Fitness>
18.4897

> <Gold.Chemscore.DG>
-19.2242

> <Gold.Chemscore.ZeroCoef>
-5.4800

> <Gold.Chemscore.Hbond>
2.4261

> <Gold.Chemscore.Metal>
0.0000

> <Gold.Chemscore.Lipo>
118.3580

> <Gold.Chemscore.Internal_Hbond>
0.0000

> <Gold.Chemscore.DEClash>
0.0809

> <Gold.Chemscore.DEInternal>
0.6537

> <Gold.Chemscore.Rot>
3.2058

> <Gold.Chemscore.Internal.Correction>
   9.000000E+99

> <Gold.Chemscore.Hbonds>
donor molecule, donor type, donor heavy atom, donor atom, acceptor molecule, acceptor atom, score
      L1  H    10    33       P1  8028  0.88
      L1  H    15    53       P1  7948  0.78
      P1  H  7997  8008       L1     5  0.20

> <Gold.Chemscore.Hbond.Weighted>
-8.1031

> <Gold.Chemscore.Metal.Weighted>
-0.0000

> <Gold.Chemscore.Lipo.Weighted>
-13.8479

> <Gold.Chemscore.Internal_Hbond.Weighted>
0.0000

> <Gold.Chemscore.DEClash.Weighted>
0.0809

> <Gold.Chemscore.DEInternal.Weighted>
0.6537

> <Gold.Chemscore.Rot.Weighted>
8.2067

> <Gold.Chemscore.Internal.Correction.Weighted>
   9.000000E+99

> <Gold.Protein.RotatedTorsions>
[ 6907 6896 6895 6894 ] final   21.13 input  -60.11 | X-H torsion
[ 7974 7965 7964 7962 ] final  132.88 input  175.53 | X-H torsion
[ 8008 7997 7996 7995 ] final  -83.66 input   59.86 | X-H torsion
[ 10167 10162 10161 10158 ] final  -82.01 input  -65.29 | X-H torsion
[ 10718 10713 10712 10709 ] final   91.87 input   66.30 | X-H torsion
[ 10763 10752 10751 10750 ] final  148.04 input  -60.55 | X-H torsion
[ 11005 11000 10999 10996 ] final  152.29 input  -57.11 | X-H torsion

> <Gold.Protein.ActiveResidues>
 VAL166  LYS551  ARG553  GLY616  TRP617  ASP618  TYR619  PRO620  LYS621  CYS622 
 ASP623  PHE694  ASN695  SER759  ASP760  ASP761  ALA762  ILE779  LEU786  VAL792 
 PHE793  MET794  SER795  GLU796  ALA797  LYS798  CYS799  TRP800  GLU811  SER814 

> <Gold.Protein.RotatedAtoms>
  151.9070  135.0355  160.0510 H   0  0  0  0  0  0  0  0  0  0  0  0  # atno 6907 bound_to 6896
  152.2311  133.5054  159.5224 H   0  0  0  0  0  0  0  0  0  0  0  0  # atno 6908 bound_to 6896
  150.7026  134.1132  159.4050 H   0  0  0  0  0  0  0  0  0  0  0  0  # atno 6909 bound_to 6896
  144.9923  139.4394  143.5333 H   0  0  0  0  0  0  0  0  0  0  0  0  # atno 7974 bound_to 7965
  154.6214  140.0616  156.9620 H   0  0  0  0  0  0  0  0  0  0  0  0  # atno 8008 bound_to 7997
  155.1811  140.3299  155.4356 H   0  0  0  0  0  0  0  0  0  0  0  0  # atno 8009 bound_to 7997
  156.2433  140.1897  156.6907 H   0  0  0  0  0  0  0  0  0  0  0  0  # atno 8010 bound_to 7997
  140.4359  143.2531  151.8694 H   0  0  0  0  0  0  0  0  0  0  0  0  # atno 10167 bound_to 10162
  157.6959  131.0423  150.3796 H   0  0  0  0  0  0  0  0  0  0  0  0  # atno 10718 bound_to 10713
  154.0482  135.2884  155.3344 H   0  0  0  0  0  0  0  0  0  0  0  0  # atno 10763 bound_to 10752
  154.6886  135.5235  153.8364 H   0  0  0  0  0  0  0  0  0  0  0  0  # atno 10764 bound_to 10752
  153.0571  135.6599  154.0681 H   0  0  0  0  0  0  0  0  0  0  0  0  # atno 10765 bound_to 10752
  140.1295  134.8811  157.2183 H   0  0  0  0  0  0  0  0  0  0  0  0  # atno 11005 bound_to 11000
  146.3434  139.9262  142.8760 LP  0  0  0  0  0  0  0  0  0  0  0  0  # atno 17320 bound_to 7965
  145.2268  140.9957  143.4013 LP  0  0  0  0  0  0  0  0  0  0  0  0  # atno 17321 bound_to 7965
  139.4787  144.5283  151.8704 LP  0  0  0  0  0  0  0  0  0  0  0  0  # atno 17342 bound_to 10162
  140.4374  144.2033  150.5890 LP  0  0  0  0  0  0  0  0  0  0  0  0  # atno 17343 bound_to 10162
  156.4211  130.3953  149.6824 LP  0  0  0  0  0  0  0  0  0  0  0  0  # atno 17370 bound_to 10713
  156.4075  130.7705  151.2716 LP  0  0  0  0  0  0  0  0  0  0  0  0  # atno 17371 bound_to 10713
  140.2861  134.3294  155.7328 LP  0  0  0  0  0  0  0  0  0  0  0  0  # atno 17394 bound_to 11000
  141.2167  133.7507  156.9435 LP  0  0  0  0  0  0  0  0  0  0  0  0  # atno 17395 bound_to 11000

$$$$
