AV-unprocessed.smi:870|AV-procd|sdf|4007|dock3
  -GOLD-   22720 1493D 1   1.00000     0.00000
 Structure written by MMmdl.
 46 48  0  0  0  0  0  0  0  0  1 V2000
  155.0517  138.1414  158.7248 C   0  0  0  0  0  0  0  0  0  0  0  0
  154.5401  139.4576  158.8328 O   0  0  0  0  0  0  0  0  0  0  0  0
  153.7349  139.6322  159.9888 C   0  0  0  0  0  0  0  0  0  0  0  0
  153.1710  141.0248  159.9714 C   0  0  0  0  0  0  0  0  0  0  0  0
  153.2914  141.8732  160.9957 N   0  0  0  0  0  0  0  0  0  0  0  0
  152.6430  143.0026  160.5375 C   0  0  0  0  0  0  0  0  0  0  0  0
  152.4261  144.2533  161.1587 C   0  0  0  0  0  0  0  0  0  0  0  0
  151.7268  145.2743  160.4820 C   0  0  0  0  0  0  0  0  0  0  0  0
  151.2362  145.0600  159.1776 C   0  0  0  0  0  0  0  0  0  0  0  0
  151.4419  143.8210  158.5408 C   0  0  0  0  0  0  0  0  0  0  0  0
  152.1399  142.8051  159.2212 C   0  0  0  0  0  0  0  0  0  0  0  0
  152.5037  141.5038  158.8906 N   0  0  0  0  0  0  0  0  0  0  0  0
  152.2157  140.8315  157.6300 C   0  0  0  0  0  0  0  0  0  0  0  0
  150.8764  141.2794  157.0110 C   0  0  2  0  0  0  0  0  0  0  0  0
  149.8258  140.9754  157.9079 O   0  0  0  0  0  0  0  0  0  0  0  0
  150.5998  140.5744  155.6736 C   0  0  0  0  0  0  0  0  0  0  0  0
  149.4813  141.1927  155.0516 O   0  0  0  0  0  0  0  0  0  0  0  0
  148.6762  140.4283  154.2320 C   0  0  0  0  0  0  0  0  0  0  0  0
  148.9060  139.0550  153.9607 C   0  0  0  0  0  0  0  0  0  0  0  0
  148.0416  138.3384  153.1114 C   0  0  0  0  0  0  0  0  0  0  0  0
  146.9381  138.9809  152.5226 C   0  0  0  0  0  0  0  0  0  0  0  0
  146.6997  140.3422  152.7841 C   0  0  0  0  0  0  0  0  0  0  0  0
  147.5627  141.0649  153.6347 C   0  0  0  0  0  0  0  0  0  0  0  0
  147.2912  142.5331  153.9049 C   0  0  0  0  0  0  0  0  0  0  0  0
  155.6574  138.0565  157.8229 H   0  0  0  0  0  0  0  0  0  0  0  0
  154.2459  137.4094  158.6595 H   0  0  0  0  0  0  0  0  0  0  0  0
  155.6824  137.8929  159.5792 H   0  0  0  0  0  0  0  0  0  0  0  0
  152.9160  138.9114  159.9965 H   0  0  0  0  0  0  0  0  0  0  0  0
  154.3325  139.4898  160.8898 H   0  0  0  0  0  0  0  0  0  0  0  0
  152.7984  144.4268  162.1574 H   0  0  0  0  0  0  0  0  0  0  0  0
  151.5663  146.2263  160.9663 H   0  0  0  0  0  0  0  0  0  0  0  0
  150.7014  145.8470  158.6664 H   0  0  0  0  0  0  0  0  0  0  0  0
  151.0667  143.6530  157.5422 H   0  0  0  0  0  0  0  0  0  0  0  0
  153.0331  141.0537  156.9427 H   0  0  0  0  0  0  0  0  0  0  0  0
  152.2308  139.7512  157.7736 H   0  0  0  0  0  0  0  0  0  0  0  0
  150.9015  142.3586  156.8538 H   0  0  0  0  0  0  0  0  0  0  0  0
  149.0113  141.2650  157.5263 H   0  0  0  0  0  0  0  0  0  0  0  0
  151.4645  140.6937  155.0187 H   0  0  0  0  0  0  0  0  0  0  0  0
  150.4397  139.5051  155.8244 H   0  0  0  0  0  0  0  0  0  0  0  0
  149.7416  138.5250  154.3917 H   0  0  0  0  0  0  0  0  0  0  0  0
  148.2264  137.2932  152.9115 H   0  0  0  0  0  0  0  0  0  0  0  0
  146.2755  138.4308  151.8708 H   0  0  0  0  0  0  0  0  0  0  0  0
  145.8505  140.8293  152.3275 H   0  0  0  0  0  0  0  0  0  0  0  0
  146.3791  142.8687  153.4106 H   0  0  0  0  0  0  0  0  0  0  0  0
  148.1184  143.1433  153.5412 H   0  0  0  0  0  0  0  0  0  0  0  0
  147.1792  142.7075  154.9753 H   0  0  0  0  0  0  0  0  0  0  0  0
  1  2  1  0  0  0  0
  1 25  1  0  0  0  0
  1 26  1  0  0  0  0
  1 27  1  0  0  0  0
  2  3  1  0  0  0  0
  3  4  1  0  0  0  0
  3 28  1  0  0  0  0
  3 29  1  0  0  0  0
  4 12  1  0  0  0  0
  4  5  2  0  0  0  0
  5  6  1  0  0  0  0
  6 11  2  0  0  0  0
  6  7  1  0  0  0  0
  7  8  2  0  0  0  0
  7 30  1  0  0  0  0
  8  9  1  0  0  0  0
  8 31  1  0  0  0  0
  9 10  2  0  0  0  0
  9 32  1  0  0  0  0
 10 11  1  0  0  0  0
 10 33  1  0  0  0  0
 11 12  1  0  0  0  0
 12 13  1  0  0  0  0
 13 14  1  0  0  0  0
 13 34  1  0  0  0  0
 13 35  1  0  0  0  0
 14 15  1  0  0  0  0
 14 16  1  0  0  0  0
 14 36  1  0  0  0  0
 15 37  1  0  0  0  0
 16 17  1  0  0  0  0
 16 38  1  0  0  0  0
 16 39  1  0  0  0  0
 17 18  1  0  0  0  0
 18 23  1  0  0  0  0
 18 19  2  0  0  0  0
 19 20  1  0  0  0  0
 19 40  1  0  0  0  0
 20 21  2  0  0  0  0
 20 41  1  0  0  0  0
 21 22  1  0  0  0  0
 21 42  1  0  0  0  0
 22 23  2  0  0  0  0
 22 43  1  0  0  0  0
 23 24  1  0  0  0  0
 24 44  1  0  0  0  0
 24 45  1  0  0  0  0
 24 46  1  0  0  0  0
M  END
> <s_m_source_file>
AV-unprocessed.smi

> <i_m_source_file_index>
870

> <i_lp_mmshare_version>
43012

> <i_f3d_flags>
0

> <s_epik_input>
W2NIXTFbY0hdW2NIXVtjSF1jKGMxMiluKGMobjIpW0NIMl1PW0NIM10pW0NIMl1bQ0BIXShbT0hdKVtDSDJdT2MzW2NIXVtjSF1bY0hdW2NIXWMzW0NIM10=

> <s_epik_cmdline>
J2VwaWtfcHl0aG9uJywgJy1waCcsICc3LjAnLCAnLXRuJywgJzgnLCAnLW1hJywgJzIwMCcsICctbWV0YWxfYmluZGluZycsICctaW1hZScsICc8aW5maWxlLm1hZT4nLCAnLW9tYWUnLCAnPG91dGZpbGUubWFlPic=

> <r_lp_tautomer_probability>
1

> <r_epik_Ionization_Penalty>
0.0447032

> <r_epik_Ionization_Penalty_Charging>
0

> <r_epik_Ionization_Penalty_Neutral>
0.0447032

> <r_epik_State_Penalty>
0.0379025

> <r_epik_Charging_Adjusted_Penalty>
0.0379025

> <i_epik_Tot_Q>
0

> <i_epik_Tot_abs_Q>
0

> <r_epik_Metal_State_Penalty>
3.91398e-05

> <b_epik_Metal_Only>
0

> <s_lp_Force_Field>
OPLS_2005

> <r_lp_Energy>
17.6925

> <b_lp_Chiralities_Consistent>
1

> <s_lp_Variant>
AV-unprocessed.smi:870-1

> <Gold.Version>
5.8.1

> <Gold.Id.Protein>
6NUR|6NUR_protein|mol2

> <Gold.PLP.Fitness>
49.1690

> <Gold.PLP.PLP>
-47.3128

> <Gold.PLP.part.hbond>
-1.0000

> <Gold.PLP.part.metal>
0.0000

> <Gold.PLP.part.buried>
-0.6054

> <Gold.PLP.part.nonpolar>
-45.4861

> <Gold.PLP.part.repulsive>
0.1206

> <Gold.PLP.ligand.clash>
0.0000

> <Gold.PLP.ligand.torsion>
0.6522

> <Gold.PLP.Chemscore.Hbond>
1.0000

> <Gold.PLP.Chemscore.CHOScore>
0.0000

> <Gold.PLP.Chemscore.Metal>
0.0000

> <Gold.Chemscore.Hbonds>
donor molecule, donor type, donor heavy atom, donor atom, acceptor molecule, acceptor atom, score
      P1  H  7997  8008       L1     2  0.90

> <Gold.PLP.Chemscore.Internal.Correction>
0.1606

> <Gold.Rescore>
     Score         DG    S(hbond)    S(metal)    S(lipo)     H(rot)  DE(clash)    DE(int)     intcor
     14.54     -17.84       0.29        0.00     148.91       2.36       1.80       1.50       ----

> <Gold.Chemscore.Fitness>
14.5369

> <Gold.Chemscore.DG>
-17.8446

> <Gold.Chemscore.ZeroCoef>
-5.4800

> <Gold.Chemscore.Hbond>
0.2935

> <Gold.Chemscore.Metal>
0.0000

> <Gold.Chemscore.Lipo>
148.9076

> <Gold.Chemscore.Internal_Hbond>
0.0000

> <Gold.Chemscore.DEClash>
1.8037

> <Gold.Chemscore.DEInternal>
1.5041

> <Gold.Chemscore.Rot>
2.3585

> <Gold.Chemscore.Internal.Correction>
   9.000000E+99

> <Gold.Chemscore.Hbonds>
donor molecule, donor type, donor heavy atom, donor atom, acceptor molecule, acceptor atom, score
      P1  H  7997  8008       L1     2  0.18

> <Gold.Chemscore.Hbond.Weighted>
-0.9802

> <Gold.Chemscore.Metal.Weighted>
-0.0000

> <Gold.Chemscore.Lipo.Weighted>
-17.4222

> <Gold.Chemscore.Internal_Hbond.Weighted>
0.0000

> <Gold.Chemscore.DEClash.Weighted>
1.8037

> <Gold.Chemscore.DEInternal.Weighted>
1.5041

> <Gold.Chemscore.Rot.Weighted>
6.0378

> <Gold.Chemscore.Internal.Correction.Weighted>
   9.000000E+99

> <Gold.Protein.RotatedTorsions>
[ 6907 6896 6895 6894 ] final  -51.60 input  -60.11 | X-H torsion
[ 7974 7965 7964 7962 ] final  141.39 input  175.53 | X-H torsion
[ 8008 7997 7996 7995 ] final -115.66 input   59.86 | X-H torsion
[ 10167 10162 10161 10158 ] final  -54.98 input  -65.29 | X-H torsion
[ 10718 10713 10712 10709 ] final   64.33 input   66.30 | X-H torsion
[ 10763 10752 10751 10750 ] final  -23.31 input  -60.55 | X-H torsion
[ 11005 11000 10999 10996 ] final   10.61 input  -57.11 | X-H torsion

> <Gold.Protein.ActiveResidues>
 VAL166  LYS551  ARG553  GLY616  TRP617  ASP618  TYR619  PRO620  LYS621  CYS622 
 ASP623  PHE694  ASN695  SER759  ASP760  ASP761  ALA762  ILE779  LEU786  VAL792 
 PHE793  MET794  SER795  GLU796  ALA797  LYS798  CYS799  TRP800  GLU811  SER814 

> <Gold.Protein.RotatedAtoms>
  150.8596  134.7945  159.7072 H   0  0  0  0  0  0  0  0  0  0  0  0  # atno 6907 bound_to 6896
  152.4637  134.5121  159.9767 H   0  0  0  0  0  0  0  0  0  0  0  0  # atno 6908 bound_to 6896
  151.5227  133.3425  159.2940 H   0  0  0  0  0  0  0  0  0  0  0  0  # atno 6909 bound_to 6896
  144.9100  139.5306  143.5713 H   0  0  0  0  0  0  0  0  0  0  0  0  # atno 7974 bound_to 7965
  155.0556  140.0393  157.2559 H   0  0  0  0  0  0  0  0  0  0  0  0  # atno 8008 bound_to 7997
  154.7101  140.2691  155.6613 H   0  0  0  0  0  0  0  0  0  0  0  0  # atno 8009 bound_to 7997
  156.2787  140.2723  156.1740 H   0  0  0  0  0  0  0  0  0  0  0  0  # atno 8010 bound_to 7997
  140.6400  143.2503  151.5014 H   0  0  0  0  0  0  0  0  0  0  0  0  # atno 10167 bound_to 10162
  157.6032  130.9154  149.9831 H   0  0  0  0  0  0  0  0  0  0  0  0  # atno 10718 bound_to 10713
  153.6658  135.6974  153.5162 H   0  0  0  0  0  0  0  0  0  0  0  0  # atno 10763 bound_to 10752
  153.2596  135.4249  155.0879 H   0  0  0  0  0  0  0  0  0  0  0  0  # atno 10764 bound_to 10752
  154.8440  135.3551  154.6203 H   0  0  0  0  0  0  0  0  0  0  0  0  # atno 10765 bound_to 10752
  140.5125  134.0638  155.7822 H   0  0  0  0  0  0  0  0  0  0  0  0  # atno 11005 bound_to 11000
  146.3154  139.7899  142.8988 LP  0  0  0  0  0  0  0  0  0  0  0  0  # atno 17320 bound_to 7965
  145.3470  141.0299  143.3360 LP  0  0  0  0  0  0  0  0  0  0  0  0  # atno 17321 bound_to 7965
  139.5610  144.2157  152.1691 LP  0  0  0  0  0  0  0  0  0  0  0  0  # atno 17342 bound_to 10162
  140.1425  144.5189  150.6735 LP  0  0  0  0  0  0  0  0  0  0  0  0  # atno 17343 bound_to 10162
  156.1111  130.3650  150.0048 LP  0  0  0  0  0  0  0  0  0  0  0  0  # atno 17370 bound_to 10713
  156.8146  130.9337  151.3643 LP  0  0  0  0  0  0  0  0  0  0  0  0  # atno 17371 bound_to 10713
  141.1378  133.9192  157.2395 LP  0  0  0  0  0  0  0  0  0  0  0  0  # atno 17394 bound_to 11000
  139.9651  135.0144  156.9364 LP  0  0  0  0  0  0  0  0  0  0  0  0  # atno 17395 bound_to 11000

$$$$
