AV-unprocessed.smi:454|AV-procd|sdf|2612|dock6
  -GOLD-   2262023 13D 1   1.00000     0.00000
 Structure written by MMmdl.
 43 44  0  0  0  0  0  0  0  0  1 V2000
  150.4113  129.3819  154.6406 C   0  0  0  0  0  0  0  0  0  0  0  0
  150.5928  130.7868  154.6602 O   0  0  0  0  0  0  0  0  0  0  0  0
  149.3638  131.4926  154.7114 C   0  0  0  0  0  0  0  0  0  0  0  0
  149.6271  132.9796  154.4532 C   0  0  0  0  0  0  0  0  0  0  0  0
  150.3203  133.6016  155.5724 N   0  0  0  0  0  0  0  0  0  0  0  0
  150.6365  134.9664  155.5457 C   0  0  0  0  0  0  0  0  0  0  0  0
  151.3756  135.5086  156.6195 C   0  0  0  0  0  0  0  0  0  0  0  0
  151.6921  136.8810  156.6035 C   0  0  0  0  0  0  0  0  0  0  0  0
  151.2469  137.6561  155.5161 C   0  0  0  0  0  0  0  0  0  0  0  0
  151.6091  139.4047  155.4387 S   0  0  0  0  0  0  0  0  0  0  0  0
  153.0708  139.5742  155.4448 O   0  0  0  0  0  0  0  0  0  0  0  0
  150.8062  139.9953  154.3565 O   0  0  0  0  0  0  0  0  0  0  0  0
  150.9954  140.0107  156.9498 N   0  0  0  0  0  0  0  0  0  0  0  0
  150.2552  141.2853  156.9732 C   0  0  0  0  0  0  0  0  0  0  0  0
  151.1482  142.4484  157.4471 C   0  0  0  0  0  0  0  0  0  0  0  0
  151.7410  142.1432  158.7463 N   0  0  0  0  0  0  0  0  0  0  0  0
  152.5581  143.2674  159.1805 C   0  0  0  0  0  0  0  0  0  0  0  0
  152.5799  140.9534  158.6273 C   0  0  0  0  0  0  0  0  0  0  0  0
  151.7370  139.7380  158.1942 C   0  0  0  0  0  0  0  0  0  0  0  0
  150.5250  137.0300  154.4813 C   0  0  0  0  0  0  0  0  0  0  0  0
  150.2187  135.7150  154.4958 N   0  0  0  0  0  0  0  0  0  0  0  0
  151.3821  128.8876  154.6056 H   0  0  0  0  0  0  0  0  0  0  0  0
  149.8429  129.0696  153.7634 H   0  0  0  0  0  0  0  0  0  0  0  0
  149.8909  129.0388  155.5357 H   0  0  0  0  0  0  0  0  0  0  0  0
  148.6931  131.1053  153.9429 H   0  0  0  0  0  0  0  0  0  0  0  0
  148.8723  131.3500  155.6754 H   0  0  0  0  0  0  0  0  0  0  0  0
  150.2072  133.1053  153.5382 H   0  0  0  0  0  0  0  0  0  0  0  0
  148.6764  133.4932  154.3063 H   0  0  0  0  0  0  0  0  0  0  0  0
  150.7300  133.0069  156.2781 H   0  0  0  0  0  0  0  0  0  0  0  0
  151.6953  134.8870  157.4431 H   0  0  0  0  0  0  0  0  0  0  0  0
  152.2518  137.3248  157.4135 H   0  0  0  0  0  0  0  0  0  0  0  0
  149.8393  141.5024  155.9897 H   0  0  0  0  0  0  0  0  0  0  0  0
  149.4063  141.1782  157.6496 H   0  0  0  0  0  0  0  0  0  0  0  0
  151.9321  142.6521  156.7178 H   0  0  0  0  0  0  0  0  0  0  0  0
  150.5481  143.3557  157.5264 H   0  0  0  0  0  0  0  0  0  0  0  0
  153.0041  143.0621  160.1544 H   0  0  0  0  0  0  0  0  0  0  0  0
  151.9504  144.1676  159.2774 H   0  0  0  0  0  0  0  0  0  0  0  0
  153.3627  143.4730  158.4727 H   0  0  0  0  0  0  0  0  0  0  0  0
  153.3857  141.1355  157.9164 H   0  0  0  0  0  0  0  0  0  0  0  0
  153.0498  140.7429  159.5887 H   0  0  0  0  0  0  0  0  0  0  0  0
  151.0184  139.4946  158.9774 H   0  0  0  0  0  0  0  0  0  0  0  0
  152.3713  138.8602  158.0748 H   0  0  0  0  0  0  0  0  0  0  0  0
  150.1702  137.5936  153.6312 H   0  0  0  0  0  0  0  0  0  0  0  0
  1  2  1  0  0  0  0
  1 22  1  0  0  0  0
  1 23  1  0  0  0  0
  1 24  1  0  0  0  0
  2  3  1  0  0  0  0
  3  4  1  0  0  0  0
  3 25  1  0  0  0  0
  3 26  1  0  0  0  0
  4  5  1  0  0  0  0
  4 27  1  0  0  0  0
  4 28  1  0  0  0  0
  5  6  1  0  0  0  0
  5 29  1  0  0  0  0
  6 21  1  0  0  0  0
  6  7  2  0  0  0  0
  7  8  1  0  0  0  0
  7 30  1  0  0  0  0
  8  9  2  0  0  0  0
  8 31  1  0  0  0  0
  9 10  1  0  0  0  0
  9 20  1  0  0  0  0
 10 11  2  0  0  0  0
 10 12  2  0  0  0  0
 10 13  1  0  0  0  0
 13 19  1  0  0  0  0
 13 14  1  0  0  0  0
 14 15  1  0  0  0  0
 14 32  1  0  0  0  0
 14 33  1  0  0  0  0
 15 16  1  0  0  0  0
 15 34  1  0  0  0  0
 15 35  1  0  0  0  0
 16 17  1  0  0  0  0
 16 18  1  0  0  0  0
 17 36  1  0  0  0  0
 17 37  1  0  0  0  0
 17 38  1  0  0  0  0
 18 19  1  0  0  0  0
 18 39  1  0  0  0  0
 18 40  1  0  0  0  0
 19 41  1  0  0  0  0
 19 42  1  0  0  0  0
 20 21  2  0  0  0  0
 20 43  1  0  0  0  0
M  END
> <s_m_source_file>
AV-unprocessed.smi

> <i_m_source_file_index>
454

> <i_lp_mmshare_version>
43012

> <i_f3d_flags>
0

> <s_epik_input>
W0NIM11PW0NIMl1bQ0gyXVtOSF1jMVtjSF1bY0hdYyhbY0hdbjEpUyg9TykoPU8pTjJbQ0gyXVtDSDJdTihbQ0gzXSlbQ0gyXVtDSDJdMg==

> <s_epik_cmdline>
J2VwaWtfcHl0aG9uJywgJy1waCcsICc3LjAnLCAnLXRuJywgJzgnLCAnLW1hJywgJzIwMCcsICctbWV0YWxfYmluZGluZycsICctaW1hZScsICc8aW5maWxlLm1hZT4nLCAnLW9tYWUnLCAnPG91dGZpbGUubWFlPic=

> <r_lp_tautomer_probability>
1

> <r_epik_Ionization_Penalty>
0.0786276

> <r_epik_Ionization_Penalty_Charging>
0

> <r_epik_Ionization_Penalty_Neutral>
0.0786276

> <r_epik_State_Penalty>
0.0691961

> <r_epik_Charging_Adjusted_Penalty>
0.0691961

> <i_epik_Tot_Q>
0

> <i_epik_Tot_abs_Q>
0

> <r_epik_Metal_State_Penalty>
0.0691754

> <b_epik_Metal_Only>
0

> <s_lp_Force_Field>
OPLS_2005

> <r_lp_Energy>
0.101834

> <b_lp_Chiralities_Consistent>
1

> <s_lp_Variant>
AV-unprocessed.smi:454-1

> <Gold.Version>
5.8.1

> <Gold.Id.Protein>
6NUR|6NUR_protein|mol2

> <Gold.PLP.Fitness>
40.4295

> <Gold.PLP.PLP>
-32.2800

> <Gold.PLP.part.hbond>
-2.0000

> <Gold.PLP.part.metal>
0.0000

> <Gold.PLP.part.buried>
-5.1207

> <Gold.PLP.part.nonpolar>
-26.7845

> <Gold.PLP.part.repulsive>
0.4136

> <Gold.PLP.ligand.clash>
0.0000

> <Gold.PLP.ligand.torsion>
2.2298

> <Gold.PLP.Chemscore.Hbond>
2.0000

> <Gold.PLP.Chemscore.CHOScore>
0.8336

> <Gold.PLP.Chemscore.Metal>
0.0000

> <Gold.Chemscore.Hbonds>
donor molecule, donor type, donor heavy atom, donor atom, acceptor molecule, acceptor atom, score
      P1  H  7989  7998       L1    12  0.86
      P1  H  7997  8008       L1    11  1.00
      L1  C    20    43       P1  7948  0.71
      L1  C    20    43       P1  7949  0.02

> <Gold.PLP.Chemscore.Internal.Correction>
4.1080

> <Gold.Rescore>
     Score         DG    S(hbond)    S(metal)    S(lipo)     H(rot)  DE(clash)    DE(int)     intcor
     14.37     -16.59       1.93        0.00      70.30       1.40       0.01       2.21       ----

> <Gold.Chemscore.Fitness>
14.3684

> <Gold.Chemscore.DG>
-16.5869

> <Gold.Chemscore.ZeroCoef>
-5.4800

> <Gold.Chemscore.Hbond>
1.9336

> <Gold.Chemscore.Metal>
0.0000

> <Gold.Chemscore.Lipo>
70.3000

> <Gold.Chemscore.Internal_Hbond>
0.0000

> <Gold.Chemscore.DEClash>
0.0081

> <Gold.Chemscore.DEInternal>
2.2103

> <Gold.Chemscore.Rot>
1.3970

> <Gold.Chemscore.Internal.Correction>
   9.000000E+99

> <Gold.Chemscore.Hbonds>
donor molecule, donor type, donor heavy atom, donor atom, acceptor molecule, acceptor atom, score
      P1  H  7989  7998       L1    12  0.66
      P1  H  7997  8008       L1    11  0.98

> <Gold.Chemscore.Hbond.Weighted>
-6.4582

> <Gold.Chemscore.Metal.Weighted>
-0.0000

> <Gold.Chemscore.Lipo.Weighted>
-8.2251

> <Gold.Chemscore.Internal_Hbond.Weighted>
0.0000

> <Gold.Chemscore.DEClash.Weighted>
0.0081

> <Gold.Chemscore.DEInternal.Weighted>
2.2103

> <Gold.Chemscore.Rot.Weighted>
3.5764

> <Gold.Chemscore.Internal.Correction.Weighted>
   9.000000E+99

> <Gold.Protein.RotatedTorsions>
[ 6907 6896 6895 6894 ] final  145.33 input  -60.11 | X-H torsion
[ 7974 7965 7964 7962 ] final  174.64 input  175.53 | X-H torsion
[ 8008 7997 7996 7995 ] final  -14.19 input   59.86 | X-H torsion
[ 10167 10162 10161 10158 ] final  140.40 input  -65.29 | X-H torsion
[ 10718 10713 10712 10709 ] final  123.57 input   66.30 | X-H torsion
[ 10763 10752 10751 10750 ] final  -14.00 input  -60.55 | X-H torsion
[ 11005 11000 10999 10996 ] final   78.24 input  -57.11 | X-H torsion

> <Gold.Protein.ActiveResidues>
 VAL166  LYS551  ARG553  GLY616  TRP617  ASP618  TYR619  PRO620  LYS621  CYS622 
 ASP623  PHE694  ASN695  SER759  ASP760  ASP761  ALA762  ILE779  LEU786  VAL792 
 PHE793  MET794  SER795  GLU796  ALA797  LYS798  CYS799  TRP800  GLU811  SER814 

> <Gold.Protein.RotatedAtoms>
  152.1822  133.4715  159.4963 H   0  0  0  0  0  0  0  0  0  0  0  0  # atno 6907 bound_to 6896
  150.6936  134.1819  159.4261 H   0  0  0  0  0  0  0  0  0  0  0  0  # atno 6908 bound_to 6896
  151.9730  135.0067  160.0604 H   0  0  0  0  0  0  0  0  0  0  0  0  # atno 6909 bound_to 6896
  144.7217  139.9827  143.6439 H   0  0  0  0  0  0  0  0  0  0  0  0  # atno 7974 bound_to 7965
  154.5230  140.2229  155.8941 H   0  0  0  0  0  0  0  0  0  0  0  0  # atno 8008 bound_to 7997
  156.1683  140.3127  155.8892 H   0  0  0  0  0  0  0  0  0  0  0  0  # atno 8009 bound_to 7997
  155.3611  140.0461  157.3037 H   0  0  0  0  0  0  0  0  0  0  0  0  # atno 8010 bound_to 7997
  139.5050  144.6236  151.5991 H   0  0  0  0  0  0  0  0  0  0  0  0  # atno 10167 bound_to 10162
  157.5654  131.1087  150.8464 H   0  0  0  0  0  0  0  0  0  0  0  0  # atno 10718 bound_to 10713
  153.5217  135.7015  153.5728 H   0  0  0  0  0  0  0  0  0  0  0  0  # atno 10763 bound_to 10752
  153.3774  135.3929  155.1832 H   0  0  0  0  0  0  0  0  0  0  0  0  # atno 10764 bound_to 10752
  154.8694  135.3826  154.4707 H   0  0  0  0  0  0  0  0  0  0  0  0  # atno 10765 bound_to 10752
  139.9221  134.7747  156.1624 H   0  0  0  0  0  0  0  0  0  0  0  0  # atno 11005 bound_to 11000
  146.0475  139.3479  143.0660 LP  0  0  0  0  0  0  0  0  0  0  0  0  # atno 17320 bound_to 7965
  145.8257  140.9656  143.0875 LP  0  0  0  0  0  0  0  0  0  0  0  0  # atno 17321 bound_to 7965
  140.5946  143.9718  150.6346 LP  0  0  0  0  0  0  0  0  0  0  0  0  # atno 17342 bound_to 10162
  140.2910  143.3324  152.1062 LP  0  0  0  0  0  0  0  0  0  0  0  0  # atno 17343 bound_to 10162
  156.8950  130.5226  149.5285 LP  0  0  0  0  0  0  0  0  0  0  0  0  # atno 17370 bound_to 10713
  156.0702  130.5737  150.9369 LP  0  0  0  0  0  0  0  0  0  0  0  0  # atno 17371 bound_to 10713
  141.0750  133.6780  156.2217 LP  0  0  0  0  0  0  0  0  0  0  0  0  # atno 17394 bound_to 11000
  140.6444  134.5132  157.5572 LP  0  0  0  0  0  0  0  0  0  0  0  0  # atno 17395 bound_to 11000

$$$$
