AV-unprocessed.smi:1643|AV-procd|sdf|6572|dock1
  -GOLD-   22720 7253D 1   1.00000     0.00000
 Structure written by MMmdl.
 54 56  0  0  0  0  0  0  0  0  2 V2000
  148.6895  131.7659  157.6481 C   0  0  0  0  0  0  0  0  0  0  0  0
  148.6008  133.2900  157.7626 C   0  0  0  0  0  0  0  0  0  0  0  0
  148.9391  133.8103  158.8258 O   0  0  0  0  0  0  0  0  0  0  0  0
  148.1681  134.0119  156.6993 N   0  0  0  0  0  0  0  0  0  0  0  0
  147.6772  133.3542  155.4792 C   0  0  0  0  0  0  0  0  0  0  0  0
  148.7345  133.3416  154.3524 C   0  0  0  0  0  0  0  0  0  0  0  0
  149.9387  134.2909  154.5466 C   0  0  0  0  0  0  0  0  0  0  0  0
  149.6044  135.7451  154.5714 N   0  3  2  0  0  0  0  0  0  0  0  0
  150.7464  136.5926  155.0116 C   0  0  0  0  0  0  0  0  0  0  0  0
  150.4987  138.1051  154.8324 C   0  0  2  0  0  0  0  0  0  0  0  0
  150.2622  138.3386  153.4587 O   0  0  0  0  0  0  0  0  0  0  0  0
  151.6881  138.9691  155.3002 C   0  0  0  0  0  0  0  0  0  0  0  0
  151.2647  140.1243  156.0712 N   0  0  0  0  0  0  0  0  0  0  0  0
  150.3181  141.0208  155.7330 C   0  0  0  0  0  0  0  0  0  0  0  0
  150.0860  142.0130  156.5867 N   0  0  0  0  0  0  0  0  0  0  0  0
  150.9857  141.7267  157.5992 C   0  0  0  0  0  0  0  0  0  0  0  0
  151.2479  142.4025  158.8108 C   0  0  0  0  0  0  0  0  0  0  0  0
  152.2290  141.9254  159.7089 C   0  0  0  0  0  0  0  0  0  0  0  0
  152.4800  142.6844  161.0002 C   0  0  0  0  0  0  0  0  0  0  0  0
  152.9652  140.7535  159.4001 C   0  0  0  0  0  0  0  0  0  0  0  0
  154.0242  140.2224  160.3500 C   0  0  0  0  0  0  0  0  0  0  0  0
  152.7156  140.0659  158.1940 C   0  0  0  0  0  0  0  0  0  0  0  0
  151.7373  140.5509  157.3081 C   0  0  0  0  0  0  0  0  0  0  0  0
  148.3338  136.1117  155.2630 C   0  0  0  0  0  0  0  0  0  0  0  0
  148.1447  135.4867  156.6705 C   0  0  0  0  0  0  0  0  0  0  0  0
  149.2221  131.4704  156.7437 H   0  0  0  0  0  0  0  0  0  0  0  0
  147.6941  131.3216  157.6356 H   0  0  0  0  0  0  0  0  0  0  0  0
  149.2290  131.3492  158.4994 H   0  0  0  0  0  0  0  0  0  0  0  0
  147.3390  132.3345  155.6708 H   0  0  0  0  0  0  0  0  0  0  0  0
  146.7721  133.8610  155.1438 H   0  0  0  0  0  0  0  0  0  0  0  0
  149.1274  132.3274  154.2717 H   0  0  0  0  0  0  0  0  0  0  0  0
  148.2507  133.5423  153.3958 H   0  0  0  0  0  0  0  0  0  0  0  0
  150.4829  134.0188  155.4523 H   0  0  0  0  0  0  0  0  0  0  0  0
  150.6323  134.1159  153.7247 H   0  0  0  0  0  0  0  0  0  0  0  0
  150.9558  136.4085  156.0664 H   0  0  0  0  0  0  0  0  0  0  0  0
  151.6425  136.2894  154.4671 H   0  0  0  0  0  0  0  0  0  0  0  0
  149.5940  138.4070  155.3592 H   0  0  0  0  0  0  0  0  0  0  0  0
  149.7879  137.6013  153.1043 H   0  0  0  0  0  0  0  0  0  0  0  0
  152.3645  138.3810  155.9212 H   0  0  0  0  0  0  0  0  0  0  0  0
  152.2724  139.3136  154.4460 H   0  0  0  0  0  0  0  0  0  0  0  0
  149.7697  140.9418  154.8056 H   0  0  0  0  0  0  0  0  0  0  0  0
  150.6873  143.2955  159.0451 H   0  0  0  0  0  0  0  0  0  0  0  0
  152.2887  142.0458  161.8628 H   0  0  0  0  0  0  0  0  0  0  0  0
  151.8328  143.5584  161.0807 H   0  0  0  0  0  0  0  0  0  0  0  0
  153.5134  143.0289  161.0460 H   0  0  0  0  0  0  0  0  0  0  0  0
  154.5038  139.3281  159.9512 H   0  0  0  0  0  0  0  0  0  0  0  0
  153.5799  139.9634  161.3113 H   0  0  0  0  0  0  0  0  0  0  0  0
  154.7993  140.9709  160.5163 H   0  0  0  0  0  0  0  0  0  0  0  0
  153.2709  139.1735  157.9461 H   0  0  0  0  0  0  0  0  0  0  0  0
  148.2642  137.1968  155.3471 H   0  0  0  0  0  0  0  0  0  0  0  0
  147.5024  135.8540  154.6079 H   0  0  0  0  0  0  0  0  0  0  0  0
  147.1928  135.8177  157.0874 H   0  0  0  0  0  0  0  0  0  0  0  0
  148.9200  135.9049  157.3120 H   0  0  0  0  0  0  0  0  0  0  0  0
  149.4421  136.0029  153.6085 H   0  0  0  0  0  0  0  0  0  0  0  0
  1  2  1  0  0  0  0
  1 26  1  0  0  0  0
  1 27  1  0  0  0  0
  1 28  1  0  0  0  0
  2  3  2  0  0  0  0
  2  4  1  0  0  0  0
  4 25  1  0  0  0  0
  4  5  1  0  0  0  0
  5  6  1  0  0  0  0
  5 29  1  0  0  0  0
  5 30  1  0  0  0  0
  6  7  1  0  0  0  0
  6 31  1  0  0  0  0
  6 32  1  0  0  0  0
  7  8  1  0  0  0  0
  7 33  1  0  0  0  0
  7 34  1  0  0  0  0
  8  9  1  0  0  0  0
  8 24  1  0  0  0  0
  8 54  1  0  0  0  0
  9 10  1  0  0  0  0
  9 35  1  0  0  0  0
  9 36  1  0  0  0  0
 10 11  1  0  0  0  0
 10 12  1  0  0  0  0
 10 37  1  0  0  0  0
 11 38  1  0  0  0  0
 12 13  1  0  0  0  0
 12 39  1  0  0  0  0
 12 40  1  0  0  0  0
 13 23  1  0  0  0  0
 13 14  1  0  0  0  0
 14 15  2  0  0  0  0
 14 41  1  0  0  0  0
 15 16  1  0  0  0  0
 16 23  2  0  0  0  0
 16 17  1  0  0  0  0
 17 18  2  0  0  0  0
 17 42  1  0  0  0  0
 18 19  1  0  0  0  0
 18 20  1  0  0  0  0
 19 43  1  0  0  0  0
 19 44  1  0  0  0  0
 19 45  1  0  0  0  0
 20 21  1  0  0  0  0
 20 22  2  0  0  0  0
 21 46  1  0  0  0  0
 21 47  1  0  0  0  0
 21 48  1  0  0  0  0
 22 23  1  0  0  0  0
 22 49  1  0  0  0  0
 24 25  1  0  0  0  0
 24 50  1  0  0  0  0
 24 51  1  0  0  0  0
 25 52  1  0  0  0  0
 25 53  1  0  0  0  0
M  CHG  1   8   1
M  END
> <s_m_source_file>
AV-unprocessed.smi

> <i_m_source_file_index>
1643

> <i_lp_mmshare_version>
43012

> <i_f3d_flags>
0

> <s_epik_input>
W0NIM11DKD1PKU4xW0NIMl1bQ0gyXVtDSDJdTihbQ0gyXVtDSDJdMSlbQ0gyXVtDQEhdKFtPSF0pW0NIMl1uKFtjSF1uMiljKGMyMylbY0hdYyhbQ0gzXSljKFtjSF0zKVtDSDNd

> <s_epik_cmdline>
J2VwaWtfcHl0aG9uJywgJy1waCcsICc3LjAnLCAnLXRuJywgJzgnLCAnLW1hJywgJzIwMCcsICctbWV0YWxfYmluZGluZycsICctaW1hZScsICc8aW5maWxlLm1hZT4nLCAnLW9tYWUnLCAnPG91dGZpbGUubWFlPic=

> <r_epik_Ionization_Penalty>
0.189467

> <r_epik_Ionization_Penalty_Charging>
0.101761

> <r_epik_Ionization_Penalty_Neutral>
0.0877056

> <r_epik_State_Penalty>
0.170758

> <r_epik_Charging_Adjusted_Penalty>
0.272519

> <i_epik_Tot_Q>
1

> <i_epik_Tot_abs_Q>
1

> <r_epik_Metal_State_Penalty>
0.0948013

> <b_epik_Metal_Only>
0

> <s_lp_Force_Field>
OPLS_2005

> <r_lp_Energy>
49.989

> <b_lp_Chiralities_Consistent>
1

> <s_lp_Variant>
AV-unprocessed.smi:1643-1

> <Gold.Version>
5.8.1

> <Gold.Id.Protein>
6NUR|6NUR_protein|mol2

> <Gold.PLP.Fitness>
51.4358

> <Gold.PLP.PLP>
-40.7719

> <Gold.PLP.part.hbond>
-4.4646

> <Gold.PLP.part.metal>
0.0000

> <Gold.PLP.part.buried>
-3.8329

> <Gold.PLP.part.nonpolar>
-33.4151

> <Gold.PLP.part.repulsive>
1.0750

> <Gold.PLP.ligand.clash>
0.0000

> <Gold.PLP.ligand.torsion>
0.7498

> <Gold.PLP.Chemscore.Hbond>
4.0000

> <Gold.PLP.Chemscore.CHOScore>
0.0000

> <Gold.PLP.Chemscore.Metal>
0.0000

> <Gold.Chemscore.Hbonds>
donor molecule, donor type, donor heavy atom, donor atom, acceptor molecule, acceptor atom, score
      L1  H     8    54       P1  7948  2.00
      L1  H    11    38       P1  7948  1.00
      P1  H  6896  6907       L1     3  1.00

> <Gold.PLP.Chemscore.Internal.Correction>
0.1635

> <Gold.Rescore>
     Score         DG    S(hbond)    S(metal)    S(lipo)     H(rot)  DE(clash)    DE(int)     intcor
     19.99     -20.85       2.78        0.00      98.36       2.12       0.12       0.73       ----

> <Gold.Chemscore.Fitness>
19.9908

> <Gold.Chemscore.DG>
-20.8455

> <Gold.Chemscore.ZeroCoef>
-5.4800

> <Gold.Chemscore.Hbond>
2.7781

> <Gold.Chemscore.Metal>
0.0000

> <Gold.Chemscore.Lipo>
98.3593

> <Gold.Chemscore.Internal_Hbond>
0.0000

> <Gold.Chemscore.DEClash>
0.1214

> <Gold.Chemscore.DEInternal>
0.7333

> <Gold.Chemscore.Rot>
2.1178

> <Gold.Chemscore.Internal.Correction>
   9.000000E+99

> <Gold.Chemscore.Hbonds>
donor molecule, donor type, donor heavy atom, donor atom, acceptor molecule, acceptor atom, score
      L1  H     8    54       P1  7948  0.55
      L1  H    11    38       P1  7948  0.54
      P1  H  6896  6907       L1     3  0.99

> <Gold.Chemscore.Hbond.Weighted>
-9.2790

> <Gold.Chemscore.Metal.Weighted>
-0.0000

> <Gold.Chemscore.Lipo.Weighted>
-11.5080

> <Gold.Chemscore.Internal_Hbond.Weighted>
0.0000

> <Gold.Chemscore.DEClash.Weighted>
0.1214

> <Gold.Chemscore.DEInternal.Weighted>
0.7333

> <Gold.Chemscore.Rot.Weighted>
5.4215

> <Gold.Chemscore.Internal.Correction.Weighted>
   9.000000E+99

> <Gold.Protein.RotatedTorsions>
[ 6907 6896 6895 6894 ] final  -94.76 input  -60.11 | X-H torsion
[ 7974 7965 7964 7962 ] final   29.53 input  175.53 | X-H torsion
[ 8008 7997 7996 7995 ] final   76.18 input   59.86 | X-H torsion
[ 10167 10162 10161 10158 ] final  -46.59 input  -65.29 | X-H torsion
[ 10718 10713 10712 10709 ] final  102.01 input   66.30 | X-H torsion
[ 10763 10752 10751 10750 ] final  -98.85 input  -60.55 | X-H torsion
[ 11005 11000 10999 10996 ] final   45.23 input  -57.11 | X-H torsion

> <Gold.Protein.ActiveResidues>
 VAL166  LYS551  ARG553  GLY616  TRP617  ASP618  TYR619  PRO620  LYS621  CYS622 
 ASP623  PHE694  ASN695  SER759  ASP760  ASP761  ALA762  ILE779  LEU786  VAL792 
 PHE793  MET794  SER795  GLU796  ALA797  LYS798  CYS799  TRP800  GLU811  SER814 

> <Gold.Protein.RotatedAtoms>
  150.6948  134.1763  159.4231 H   0  0  0  0  0  0  0  0  0  0  0  0  # atno 6907 bound_to 6896
  151.9739  135.0060  160.0563 H   0  0  0  0  0  0  0  0  0  0  0  0  # atno 6908 bound_to 6896
  152.1816  133.4676  159.4998 H   0  0  0  0  0  0  0  0  0  0  0  0  # atno 6909 bound_to 6896
  146.1666  139.6909  142.8997 H   0  0  0  0  0  0  0  0  0  0  0  0  # atno 7974 bound_to 7965
  155.8236  140.3469  155.5529 H   0  0  0  0  0  0  0  0  0  0  0  0  # atno 8008 bound_to 7997
  155.8316  140.0928  157.1809 H   0  0  0  0  0  0  0  0  0  0  0  0  # atno 8009 bound_to 7997
  154.4004  140.1411  156.3608 H   0  0  0  0  0  0  0  0  0  0  0  0  # atno 8010 bound_to 7997
  140.6811  143.2824  151.3804 H   0  0  0  0  0  0  0  0  0  0  0  0  # atno 10167 bound_to 10162
  157.6814  131.0741  150.5339 H   0  0  0  0  0  0  0  0  0  0  0  0  # atno 10718 bound_to 10713
  154.7449  135.4994  153.9186 H   0  0  0  0  0  0  0  0  0  0  0  0  # atno 10763 bound_to 10752
  153.1081  135.6702  153.9558 H   0  0  0  0  0  0  0  0  0  0  0  0  # atno 10764 bound_to 10752
  153.9325  135.3076  155.3424 H   0  0  0  0  0  0  0  0  0  0  0  0  # atno 10765 bound_to 10752
  140.1478  134.4500  155.8403 H   0  0  0  0  0  0  0  0  0  0  0  0  # atno 11005 bound_to 11000
  145.4451  141.0425  143.2835 LP  0  0  0  0  0  0  0  0  0  0  0  0  # atno 17320 bound_to 7965
  144.8101  139.5978  143.7033 LP  0  0  0  0  0  0  0  0  0  0  0  0  # atno 17321 bound_to 7965
  139.6134  144.1051  152.2322 LP  0  0  0  0  0  0  0  0  0  0  0  0  # atno 17342 bound_to 10162
  140.0473  144.5960  150.7364 LP  0  0  0  0  0  0  0  0  0  0  0  0  # atno 17343 bound_to 10162
  156.5648  130.4265  149.6046 LP  0  0  0  0  0  0  0  0  0  0  0  0  # atno 17370 bound_to 10713
  156.2790  130.7060  151.1879 LP  0  0  0  0  0  0  0  0  0  0  0  0  # atno 17371 bound_to 10713
  141.2195  133.6860  156.7367 LP  0  0  0  0  0  0  0  0  0  0  0  0  # atno 17394 bound_to 11000
  140.2641  134.8443  157.3786 LP  0  0  0  0  0  0  0  0  0  0  0  0  # atno 17395 bound_to 11000

$$$$
