AV-unprocessed.smi:1291|AV-procd|sdf|5393|dock9
  -GOLD-   22720 4553D 1   1.00000     0.00000
 Structure written by MMmdl.
 44 46  0  0  0  0  0  0  0  0  2 V2000
  150.5886  140.3549  154.6717 O   0  0  0  0  0  0  0  0  0  0  0  0
  151.3421  139.7448  155.6985 C   0  0  0  0  0  0  0  0  0  0  0  0
  151.6807  140.6773  156.8184 C   0  0  0  0  0  0  0  0  0  0  0  0
  151.3891  142.0083  156.8806 N   0  3  0  0  0  0  0  0  0  0  0  0
  151.8557  142.5406  158.0827 C   0  0  0  0  0  0  0  0  0  0  0  0
  151.7905  143.8339  158.5923 C   0  0  0  0  0  0  0  0  0  0  0  0
  152.3607  144.0421  159.8652 C   0  0  0  0  0  0  0  0  0  0  0  0
  152.9667  142.9879  160.5791 C   0  0  0  0  0  0  0  0  0  0  0  0
  153.0313  141.6823  160.0495 C   0  0  0  0  0  0  0  0  0  0  0  0
  152.4646  141.4838  158.7902 C   0  0  0  0  0  0  0  0  0  0  0  0
  152.3376  140.3557  157.9697 N   0  0  0  0  0  0  0  0  0  0  0  0
  152.8833  139.0630  158.4157 C   0  0  0  0  0  0  0  0  0  0  0  0
  151.9933  138.3618  159.4616 C   0  0  2  0  0  0  0  0  0  0  0  0
  152.6672  137.2251  159.9646 O   0  0  0  0  0  0  0  0  0  0  0  0
  150.6583  137.9016  158.8569 C   0  0  0  0  0  0  0  0  0  0  0  0
  149.9438  137.1598  159.8311 O   0  0  0  0  0  0  0  0  0  0  0  0
  148.5936  136.9288  159.4655 C   0  0  0  0  0  0  0  0  0  0  0  0
  147.8468  136.1834  160.5542 C   0  0  0  0  0  0  0  0  0  0  0  0
  147.6104  136.7982  161.8020 C   0  0  0  0  0  0  0  0  0  0  0  0
  146.9163  136.1047  162.8127 C   0  0  0  0  0  0  0  0  0  0  0  0
  146.4548  134.7948  162.5793 C   0  0  0  0  0  0  0  0  0  0  0  0
  146.6868  134.1790  161.3343 C   0  0  0  0  0  0  0  0  0  0  0  0
  147.3812  134.8709  160.3226 C   0  0  0  0  0  0  0  0  0  0  0  0
  147.6008  134.2695  159.1285 F   0  0  0  0  0  0  0  0  0  0  0  0
  149.7814  139.8745  154.5649 H   0  0  0  0  0  0  0  0  0  0  0  0
  150.7774  138.9005  156.0945 H   0  0  0  0  0  0  0  0  0  0  0  0
  152.2633  139.3477  155.2721 H   0  0  0  0  0  0  0  0  0  0  0  0
  151.3249  144.6422  158.0478 H   0  0  0  0  0  0  0  0  0  0  0  0
  152.3307  145.0290  160.3037 H   0  0  0  0  0  0  0  0  0  0  0  0
  153.3891  143.1831  161.5543 H   0  0  0  0  0  0  0  0  0  0  0  0
  153.4917  140.8817  160.6093 H   0  0  0  0  0  0  0  0  0  0  0  0
  152.9795  138.4337  157.5302 H   0  0  0  0  0  0  0  0  0  0  0  0
  153.8966  139.2080  158.7908 H   0  0  0  0  0  0  0  0  0  0  0  0
  151.8030  139.0510  160.2852 H   0  0  0  0  0  0  0  0  0  0  0  0
  153.5404  137.2131  159.6024 H   0  0  0  0  0  0  0  0  0  0  0  0
  150.0591  138.7714  158.5822 H   0  0  0  0  0  0  0  0  0  0  0  0
  150.8183  137.3185  157.9481 H   0  0  0  0  0  0  0  0  0  0  0  0
  148.0977  137.8786  159.2597 H   0  0  0  0  0  0  0  0  0  0  0  0
  148.5499  136.3392  158.5483 H   0  0  0  0  0  0  0  0  0  0  0  0
  147.9623  137.8019  161.9899 H   0  0  0  0  0  0  0  0  0  0  0  0
  146.7385  136.5780  163.7674 H   0  0  0  0  0  0  0  0  0  0  0  0
  145.9236  134.2625  163.3546 H   0  0  0  0  0  0  0  0  0  0  0  0
  146.3321  133.1747  161.1553 H   0  0  0  0  0  0  0  0  0  0  0  0
  150.9013  142.5094  156.1491 H   0  0  0  0  0  0  0  0  0  0  0  0
  1  2  1  0  0  0  0
  1 25  1  0  0  0  0
  2  3  1  0  0  0  0
  2 26  1  0  0  0  0
  2 27  1  0  0  0  0
  3 11  1  0  0  0  0
  3  4  2  0  0  0  0
  4  5  1  0  0  0  0
  4 44  1  0  0  0  0
  5 10  2  0  0  0  0
  5  6  1  0  0  0  0
  6  7  2  0  0  0  0
  6 28  1  0  0  0  0
  7  8  1  0  0  0  0
  7 29  1  0  0  0  0
  8  9  2  0  0  0  0
  8 30  1  0  0  0  0
  9 10  1  0  0  0  0
  9 31  1  0  0  0  0
 10 11  1  0  0  0  0
 11 12  1  0  0  0  0
 12 13  1  0  0  0  0
 12 32  1  0  0  0  0
 12 33  1  0  0  0  0
 13 14  1  0  0  0  0
 13 15  1  0  0  0  0
 13 34  1  0  0  0  0
 14 35  1  0  0  0  0
 15 16  1  0  0  0  0
 15 36  1  0  0  0  0
 15 37  1  0  0  0  0
 16 17  1  0  0  0  0
 17 18  1  0  0  0  0
 17 38  1  0  0  0  0
 17 39  1  0  0  0  0
 18 23  1  0  0  0  0
 18 19  2  0  0  0  0
 19 20  1  0  0  0  0
 19 40  1  0  0  0  0
 20 21  2  0  0  0  0
 20 41  1  0  0  0  0
 21 22  1  0  0  0  0
 21 42  1  0  0  0  0
 22 23  2  0  0  0  0
 22 43  1  0  0  0  0
 23 24  1  0  0  0  0
M  CHG  1   4   1
M  END
> <s_m_source_file>
AV-unprocessed.smi

> <i_m_source_file_index>
1291

> <i_lp_mmshare_version>
43012

> <i_f3d_flags>
0

> <s_epik_input>
W2NIXTFbY0hdW2NIXVtjSF1jKGMxMiluKGMobjIpW0NIMl1bT0hdKVtDSDJdW0NASF0oW09IXSlbQ0gyXU9bQ0gyXWMzW2NIXVtjSF1bY0hdW2NIXWMzRg==

> <s_epik_cmdline>
J2VwaWtfcHl0aG9uJywgJy1waCcsICc3LjAnLCAnLXRuJywgJzgnLCAnLW1hJywgJzIwMCcsICctbWV0YWxfYmluZGluZycsICctaW1hZScsICc8aW5maWxlLm1hZT4nLCAnLW9tYWUnLCAnPG91dGZpbGUubWFlPic=

> <r_epik_Ionization_Penalty>
1.34314

> <r_epik_Ionization_Penalty_Charging>
1.34228

> <r_epik_Ionization_Penalty_Neutral>
0.000856861

> <r_epik_State_Penalty>
1.41963

> <r_epik_Charging_Adjusted_Penalty>
2.76191

> <i_epik_Tot_Q>
1

> <i_epik_Tot_abs_Q>
1

> <r_epik_Metal_State_Penalty>
5.45585

> <b_epik_Metal_Only>
0

> <s_lp_Force_Field>
OPLS_2005

> <r_lp_Energy>
17.9638

> <b_lp_Chiralities_Consistent>
1

> <s_lp_Variant>
AV-unprocessed.smi:1291-3

> <Gold.Version>
5.8.1

> <Gold.Id.Protein>
6NUR|6NUR_protein|mol2

> <Gold.PLP.Fitness>
60.2029

> <Gold.PLP.PLP>
-54.8319

> <Gold.PLP.part.hbond>
-2.6328

> <Gold.PLP.part.metal>
0.0000

> <Gold.PLP.part.buried>
-5.7430

> <Gold.PLP.part.nonpolar>
-45.5323

> <Gold.PLP.part.repulsive>
0.0690

> <Gold.PLP.ligand.clash>
0.0000

> <Gold.PLP.ligand.torsion>
0.3743

> <Gold.PLP.Chemscore.Hbond>
1.9913

> <Gold.PLP.Chemscore.CHOScore>
0.0000

> <Gold.PLP.Chemscore.Metal>
0.0000

> <Gold.Chemscore.Hbonds>
donor molecule, donor type, donor heavy atom, donor atom, acceptor molecule, acceptor atom, score
      P1  H  6896  6908       L1    16  0.11
      P1  H  7989  7998       L1     1  1.00

> <Gold.PLP.Chemscore.Internal.Correction>
0.1459

> <Gold.Rescore>
     Score         DG    S(hbond)    S(metal)    S(lipo)     H(rot)  DE(clash)    DE(int)     intcor
     16.63     -17.11       1.58        0.00     129.35       3.44       0.01       0.47       ----

> <Gold.Chemscore.Fitness>
16.6297

> <Gold.Chemscore.DG>
-17.1121

> <Gold.Chemscore.ZeroCoef>
-5.4800

> <Gold.Chemscore.Hbond>
1.5847

> <Gold.Chemscore.Metal>
0.0000

> <Gold.Chemscore.Lipo>
129.3485

> <Gold.Chemscore.Internal_Hbond>
0.0000

> <Gold.Chemscore.DEClash>
0.0118

> <Gold.Chemscore.DEInternal>
0.4706

> <Gold.Chemscore.Rot>
3.4353

> <Gold.Chemscore.Internal.Correction>
   9.000000E+99

> <Gold.Chemscore.Hbonds>
donor molecule, donor type, donor heavy atom, donor atom, acceptor molecule, acceptor atom, score
      P1  H  6896  6908       L1    16  0.03
      P1  H  7989  7998       L1     1  0.69

> <Gold.Chemscore.Hbond.Weighted>
-5.2927

> <Gold.Chemscore.Metal.Weighted>
-0.0000

> <Gold.Chemscore.Lipo.Weighted>
-15.1338

> <Gold.Chemscore.Internal_Hbond.Weighted>
0.0000

> <Gold.Chemscore.DEClash.Weighted>
0.0118

> <Gold.Chemscore.DEInternal.Weighted>
0.4706

> <Gold.Chemscore.Rot.Weighted>
8.7944

> <Gold.Chemscore.Internal.Correction.Weighted>
   9.000000E+99

> <Gold.Protein.RotatedTorsions>
[ 6907 6896 6895 6894 ] final -152.17 input  -60.11 | X-H torsion
[ 7974 7965 7964 7962 ] final  123.85 input  175.53 | X-H torsion
[ 8008 7997 7996 7995 ] final    1.01 input   59.86 | X-H torsion
[ 10167 10162 10161 10158 ] final  -30.49 input  -65.29 | X-H torsion
[ 10718 10713 10712 10709 ] final  -24.99 input   66.30 | X-H torsion
[ 10763 10752 10751 10750 ] final  -40.70 input  -60.55 | X-H torsion
[ 11005 11000 10999 10996 ] final  -91.46 input  -57.11 | X-H torsion

> <Gold.Protein.ActiveResidues>
 VAL166  LYS551  ARG553  GLY616  TRP617  ASP618  TYR619  PRO620  LYS621  CYS622 
 ASP623  PHE694  ASN695  SER759  ASP760  ASP761  ALA762  ILE779  LEU786  VAL792 
 PHE793  MET794  SER795  GLU796  ALA797  LYS798  CYS799  TRP800  GLU811  SER814 

> <Gold.Protein.RotatedAtoms>
  151.2239  133.4487  159.2601 H   0  0  0  0  0  0  0  0  0  0  0  0  # atno 6907 bound_to 6896
  151.0859  134.9886  159.8389 H   0  0  0  0  0  0  0  0  0  0  0  0  # atno 6908 bound_to 6896
  152.5429  134.2176  159.8827 H   0  0  0  0  0  0  0  0  0  0  0  0  # atno 6909 bound_to 6896
  145.0911  139.3586  143.4860 H   0  0  0  0  0  0  0  0  0  0  0  0  # atno 7974 bound_to 7965
  154.6747  140.2619  155.6970 H   0  0  0  0  0  0  0  0  0  0  0  0  # atno 8008 bound_to 7997
  156.2673  140.2822  156.1191 H   0  0  0  0  0  0  0  0  0  0  0  0  # atno 8009 bound_to 7997
  155.1117  140.0376  157.2716 H   0  0  0  0  0  0  0  0  0  0  0  0  # atno 8010 bound_to 7997
  140.7248  143.3844  151.1542 H   0  0  0  0  0  0  0  0  0  0  0  0  # atno 10167 bound_to 10162
  156.4703  130.4523  149.6873 H   0  0  0  0  0  0  0  0  0  0  0  0  # atno 10718 bound_to 10713
  153.9503  135.6751  153.4744 H   0  0  0  0  0  0  0  0  0  0  0  0  # atno 10763 bound_to 10752
  153.0888  135.4885  154.8646 H   0  0  0  0  0  0  0  0  0  0  0  0  # atno 10764 bound_to 10752
  154.7329  135.3142  154.8820 H   0  0  0  0  0  0  0  0  0  0  0  0  # atno 10765 bound_to 10752
  141.1544  133.7757  156.9883 H   0  0  0  0  0  0  0  0  0  0  0  0  # atno 11005 bound_to 11000
  146.3531  140.0746  142.8621 LP  0  0  0  0  0  0  0  0  0  0  0  0  # atno 17320 bound_to 7965
  145.1064  140.9378  143.4682 LP  0  0  0  0  0  0  0  0  0  0  0  0  # atno 17321 bound_to 7965
  139.7439  143.8882  152.3058 LP  0  0  0  0  0  0  0  0  0  0  0  0  # atno 17342 bound_to 10162
  139.8713  144.7067  150.8984 LP  0  0  0  0  0  0  0  0  0  0  0  0  # atno 17343 bound_to 10162
  156.3625  130.7489  151.2463 LP  0  0  0  0  0  0  0  0  0  0  0  0  # atno 17370 bound_to 10713
  157.7492  131.0346  150.4325 LP  0  0  0  0  0  0  0  0  0  0  0  0  # atno 17371 bound_to 10713
  140.1020  134.9529  157.1937 LP  0  0  0  0  0  0  0  0  0  0  0  0  # atno 17394 bound_to 11000
  140.3306  134.2814  155.7229 LP  0  0  0  0  0  0  0  0  0  0  0  0  # atno 17395 bound_to 11000

$$$$
