AV-unprocessed.smi:1433|AV-procd|sdf|5848|dock3
  -GOLD-   22720 5513D 1   1.00000     0.00000
 Structure written by MMmdl.
 45 46  0  0  0  0  0  0  0  0  2 V2000
  152.7768  144.6456  157.9889 C   0  0  0  0  0  0  0  0  0  0  0  0
  151.6919  144.3275  159.0334 C   0  0  1  0  0  0  0  0  0  0  0  0
  150.7029  143.2364  158.5837 C   0  0  0  0  0  0  0  0  0  0  0  0
  151.3258  141.8846  158.5952 N   0  3  2  0  0  0  0  0  0  0  0  0
  150.4077  140.8274  158.0570 C   0  0  1  0  0  0  0  0  0  0  0  0
  150.3964  140.8698  156.5107 C   0  0  0  0  0  0  0  0  0  0  0  0
  150.7398  139.3912  158.5534 C   0  0  0  0  0  0  0  0  0  0  0  0
  149.5637  138.5296  158.6086 N   0  0  0  0  0  0  0  0  0  0  0  0
  149.5722  137.2385  158.9746 C   0  0  0  0  0  0  0  0  0  0  0  0
  150.5997  136.6156  159.2407 O   0  0  0  0  0  0  0  0  0  0  0  0
  148.2101  136.5537  159.0815 C   0  0  0  0  0  0  0  0  0  0  0  0
  147.8340  136.3750  160.4727 N   0  0  0  0  0  0  0  0  0  0  0  0
  147.8798  135.2237  161.2314 C   0  0  0  0  0  0  0  0  0  0  0  0
  147.4434  135.5451  162.4846 C   0  0  0  0  0  0  0  0  0  0  0  0
  147.1499  136.9346  162.3948 C   0  0  0  0  0  0  0  0  0  0  0  0
  147.3874  137.4295  161.1906 N   0  0  0  0  0  0  0  0  0  0  0  0
  151.8988  141.6188  159.9422 C   0  0  0  0  0  0  0  0  0  0  0  0
  152.8835  142.7274  160.3580 C   0  0  2  0  0  0  0  0  0  0  0  0
  153.4029  142.5239  161.7857 C   0  0  0  0  0  0  0  0  0  0  0  0
  152.2381  143.9943  160.3066 O   0  0  0  0  0  0  0  0  0  0  0  0
  152.3287  145.0301  157.0724 H   0  0  0  0  0  0  0  0  0  0  0  0
  153.3629  143.7681  157.7171 H   0  0  0  0  0  0  0  0  0  0  0  0
  153.4638  145.4055  158.3619 H   0  0  0  0  0  0  0  0  0  0  0  0
  151.1239  145.2461  159.1839 H   0  0  0  0  0  0  0  0  0  0  0  0
  149.8421  143.2335  159.2544 H   0  0  0  0  0  0  0  0  0  0  0  0
  150.3229  143.4948  157.5969 H   0  0  0  0  0  0  0  0  0  0  0  0
  149.4028  141.0628  158.4112 H   0  0  0  0  0  0  0  0  0  0  0  0
  149.7063  140.1392  156.0887 H   0  0  0  0  0  0  0  0  0  0  0  0
  151.3864  140.6582  156.1054 H   0  0  0  0  0  0  0  0  0  0  0  0
  150.0797  141.8344  156.1184 H   0  0  0  0  0  0  0  0  0  0  0  0
  151.4691  138.9232  157.8914 H   0  0  0  0  0  0  0  0  0  0  0  0
  151.1796  139.4035  159.5516 H   0  0  0  0  0  0  0  0  0  0  0  0
  148.6709  138.9577  158.4068 H   0  0  0  0  0  0  0  0  0  0  0  0
  147.4478  137.1422  158.5684 H   0  0  0  0  0  0  0  0  0  0  0  0
  148.2435  135.5768  158.5971 H   0  0  0  0  0  0  0  0  0  0  0  0
  148.2174  134.2833  160.8211 H   0  0  0  0  0  0  0  0  0  0  0  0
  147.3480  134.8878  163.3362 H   0  0  0  0  0  0  0  0  0  0  0  0
  146.7754  137.5940  163.1638 H   0  0  0  0  0  0  0  0  0  0  0  0
  151.0912  141.5297  160.6709 H   0  0  0  0  0  0  0  0  0  0  0  0
  152.4540  140.6814  159.9492 H   0  0  0  0  0  0  0  0  0  0  0  0
  153.7417  142.7245  159.6855 H   0  0  0  0  0  0  0  0  0  0  0  0
  153.9172  141.5676  161.8847 H   0  0  0  0  0  0  0  0  0  0  0  0
  152.5871  142.5413  162.5091 H   0  0  0  0  0  0  0  0  0  0  0  0
  154.1075  143.3094  162.0599 H   0  0  0  0  0  0  0  0  0  0  0  0
  152.1142  141.9180  157.9647 H   0  0  0  0  0  0  0  0  0  0  0  0
  1  2  1  0  0  0  0
  1 21  1  0  0  0  0
  1 22  1  0  0  0  0
  1 23  1  0  0  0  0
  2 20  1  0  0  0  0
  2  3  1  0  0  0  0
  2 24  1  0  0  0  0
  3  4  1  0  0  0  0
  3 25  1  0  0  0  0
  3 26  1  0  0  0  0
  4  5  1  0  0  0  0
  4 17  1  0  0  0  0
  4 45  1  0  0  0  0
  5  6  1  0  0  0  0
  5  7  1  0  0  0  0
  5 27  1  0  0  0  0
  6 28  1  0  0  0  0
  6 29  1  0  0  0  0
  6 30  1  0  0  0  0
  7  8  1  0  0  0  0
  7 31  1  0  0  0  0
  7 32  1  0  0  0  0
  8  9  1  0  0  0  0
  8 33  1  0  0  0  0
  9 10  2  0  0  0  0
  9 11  1  0  0  0  0
 11 12  1  0  0  0  0
 11 34  1  0  0  0  0
 11 35  1  0  0  0  0
 12 16  1  0  0  0  0
 12 13  1  0  0  0  0
 13 14  2  0  0  0  0
 13 36  1  0  0  0  0
 14 15  1  0  0  0  0
 14 37  1  0  0  0  0
 15 16  2  0  0  0  0
 15 38  1  0  0  0  0
 17 18  1  0  0  0  0
 17 39  1  0  0  0  0
 17 40  1  0  0  0  0
 18 19  1  0  0  0  0
 18 20  1  0  0  0  0
 18 41  1  0  0  0  0
 19 42  1  0  0  0  0
 19 43  1  0  0  0  0
 19 44  1  0  0  0  0
M  CHG  1   4   1
M  END
> <s_m_source_file>
AV-unprocessed.smi

> <i_m_source_file_index>
1433

> <i_lp_mmshare_version>
43012

> <i_f3d_flags>
0

> <s_epik_input>
W0NIM11bQ0BASF0xW0NIMl1OKFtDSDJdW0NASF0oTzEpW0NIM10pW0NASF0oW0NIM10pW0NIMl1bTkhdQyg9TylbQ0gyXW4yW2NIXVtjSF1bY0hdbjI=

> <s_epik_cmdline>
J2VwaWtfcHl0aG9uJywgJy1waCcsICc3LjAnLCAnLXRuJywgJzgnLCAnLW1hJywgJzIwMCcsICctbWV0YWxfYmluZGluZycsICctaW1hZScsICc8aW5maWxlLm1hZT4nLCAnLW9tYWUnLCAnPG91dGZpbGUubWFlPic=

> <r_lp_tautomer_probability>
1

> <r_epik_Ionization_Penalty>
0.748405

> <r_epik_Ionization_Penalty_Charging>
0.748396

> <r_epik_Ionization_Penalty_Neutral>
8.54426e-06

> <r_epik_State_Penalty>
0.775162

> <r_epik_Charging_Adjusted_Penalty>
1.52356

> <i_epik_Tot_Q>
1

> <i_epik_Tot_abs_Q>
1

> <r_epik_Metal_State_Penalty>
0.775167

> <b_epik_Metal_Only>
0

> <s_lp_Force_Field>
OPLS_2005

> <r_lp_Energy>
21.4141

> <b_lp_Chiralities_Consistent>
1

> <s_lp_Variant>
AV-unprocessed.smi:1433-14

> <Gold.Version>
5.8.1

> <Gold.Id.Protein>
6NUR|6NUR_protein|mol2

> <Gold.PLP.Fitness>
47.5474

> <Gold.PLP.PLP>
-42.9499

> <Gold.PLP.part.hbond>
-3.0000

> <Gold.PLP.part.metal>
0.0000

> <Gold.PLP.part.buried>
-5.1957

> <Gold.PLP.part.nonpolar>
-34.5075

> <Gold.PLP.part.repulsive>
0.3453

> <Gold.PLP.ligand.clash>
0.0000

> <Gold.PLP.ligand.torsion>
1.2359

> <Gold.PLP.Chemscore.Hbond>
2.3376

> <Gold.PLP.Chemscore.CHOScore>
0.0000

> <Gold.PLP.Chemscore.Metal>
0.0000

> <Gold.Chemscore.Hbonds>
donor molecule, donor type, donor heavy atom, donor atom, acceptor molecule, acceptor atom, score
      P1  H  6896  6909       L1    10  1.00
      P1  H  6931  6943       L1    16  0.34
      P1  H  6934  6947       L1    16  0.99

> <Gold.PLP.Chemscore.Internal.Correction>
0.0565

> <Gold.Rescore>
     Score         DG    S(hbond)    S(metal)    S(lipo)     H(rot)  DE(clash)    DE(int)     intcor
     19.15     -20.24       1.94        0.00     111.53       1.87       0.00       1.09       ----

> <Gold.Chemscore.Fitness>
19.1509

> <Gold.Chemscore.DG>
-20.2433

> <Gold.Chemscore.ZeroCoef>
-5.4800

> <Gold.Chemscore.Hbond>
1.9432

> <Gold.Chemscore.Metal>
0.0000

> <Gold.Chemscore.Lipo>
111.5320

> <Gold.Chemscore.Internal_Hbond>
0.0000

> <Gold.Chemscore.DEClash>
0.0004

> <Gold.Chemscore.DEInternal>
1.0920

> <Gold.Chemscore.Rot>
1.8657

> <Gold.Chemscore.Internal.Correction>
   9.000000E+99

> <Gold.Chemscore.Hbonds>
donor molecule, donor type, donor heavy atom, donor atom, acceptor molecule, acceptor atom, score
      P1  H  6896  6909       L1    10  0.99
      P1  H  6931  6943       L1    16  0.01
      P1  H  6934  6947       L1    16  0.90

> <Gold.Chemscore.Hbond.Weighted>
-6.4902

> <Gold.Chemscore.Metal.Weighted>
-0.0000

> <Gold.Chemscore.Lipo.Weighted>
-13.0492

> <Gold.Chemscore.Internal_Hbond.Weighted>
0.0000

> <Gold.Chemscore.DEClash.Weighted>
0.0004

> <Gold.Chemscore.DEInternal.Weighted>
1.0920

> <Gold.Chemscore.Rot.Weighted>
4.7761

> <Gold.Chemscore.Internal.Correction.Weighted>
   9.000000E+99

> <Gold.Protein.RotatedTorsions>
[ 6907 6896 6895 6894 ] final   77.81 input  -60.11 | X-H torsion
[ 7974 7965 7964 7962 ] final   38.82 input  175.53 | X-H torsion
[ 8008 7997 7996 7995 ] final -150.64 input   59.86 | X-H torsion
[ 10167 10162 10161 10158 ] final -140.30 input  -65.29 | X-H torsion
[ 10718 10713 10712 10709 ] final -170.33 input   66.30 | X-H torsion
[ 10763 10752 10751 10750 ] final   -4.81 input  -60.55 | X-H torsion
[ 11005 11000 10999 10996 ] final  121.09 input  -57.11 | X-H torsion

> <Gold.Protein.ActiveResidues>
 VAL166  LYS551  ARG553  GLY616  TRP617  ASP618  TYR619  PRO620  LYS621  CYS622 
 ASP623  PHE694  ASN695  SER759  ASP760  ASP761  ALA762  ILE779  LEU786  VAL792 
 PHE793  MET794  SER795  GLU796  ALA797  LYS798  CYS799  TRP800  GLU811  SER814 

> <Gold.Protein.RotatedAtoms>
  152.5133  134.3760  159.9334 H   0  0  0  0  0  0  0  0  0  0  0  0  # atno 6907 bound_to 6896
  151.3715  133.3847  159.2708 H   0  0  0  0  0  0  0  0  0  0  0  0  # atno 6908 bound_to 6896
  150.9574  134.8986  159.7768 H   0  0  0  0  0  0  0  0  0  0  0  0  # atno 6909 bound_to 6896
  146.1033  139.5726  142.9400 H   0  0  0  0  0  0  0  0  0  0  0  0  # atno 7974 bound_to 7965
  155.6268  140.0687  157.2661 H   0  0  0  0  0  0  0  0  0  0  0  0  # atno 8008 bound_to 7997
  154.4215  140.1774  156.1479 H   0  0  0  0  0  0  0  0  0  0  0  0  # atno 8009 bound_to 7997
  155.9965  140.3340  155.6807 H   0  0  0  0  0  0  0  0  0  0  0  0  # atno 8010 bound_to 7997
  139.8295  143.7466  152.2666 H   0  0  0  0  0  0  0  0  0  0  0  0  # atno 10167 bound_to 10162
  156.7246  130.9283  151.3100 H   0  0  0  0  0  0  0  0  0  0  0  0  # atno 10718 bound_to 10713
  153.3899  135.7001  153.6502 H   0  0  0  0  0  0  0  0  0  0  0  0  # atno 10763 bound_to 10752
  153.5079  135.3638  155.2573 H   0  0  0  0  0  0  0  0  0  0  0  0  # atno 10764 bound_to 10752
  154.8701  135.4128  154.3214 H   0  0  0  0  0  0  0  0  0  0  0  0  # atno 10765 bound_to 10752
  139.9212  134.9637  156.7906 H   0  0  0  0  0  0  0  0  0  0  0  0  # atno 11005 bound_to 11000
  145.5812  141.0382  143.2121 LP  0  0  0  0  0  0  0  0  0  0  0  0  # atno 17320 bound_to 7965
  144.7450  139.7345  143.7296 LP  0  0  0  0  0  0  0  0  0  0  0  0  # atno 17321 bound_to 7965
  139.7669  144.7489  151.0281 LP  0  0  0  0  0  0  0  0  0  0  0  0  # atno 17342 bound_to 10162
  140.7808  143.4688  151.0175 LP  0  0  0  0  0  0  0  0  0  0  0  0  # atno 17343 bound_to 10162
  157.6884  130.9208  150.0447 LP  0  0  0  0  0  0  0  0  0  0  0  0  # atno 17370 bound_to 10713
  156.1570  130.3643  149.9354 LP  0  0  0  0  0  0  0  0  0  0  0  0  # atno 17371 bound_to 10713
  140.6470  133.9766  155.7736 LP  0  0  0  0  0  0  0  0  0  0  0  0  # atno 17394 bound_to 11000
  141.0733  134.0172  157.3494 LP  0  0  0  0  0  0  0  0  0  0  0  0  # atno 17395 bound_to 11000

$$$$
