AV-unprocessed.smi:226|AV-procd|sdf|1725|dock5
  -GOLD-   2262020213D 1   1.00000     0.00000
 Structure written by MMmdl.
 54 58  0  0  0  0  0  0  0  0  1 V2000
  152.6474  127.7904  155.5227 O   0  0  0  0  0  0  0  0  0  0  0  0
  152.6738  128.2753  154.3904 C   0  0  0  0  0  0  0  0  0  0  0  0
  152.8440  127.5443  153.2794 N   0  0  0  0  0  0  0  0  0  0  0  0
  152.9988  126.1269  153.2342 C   0  0  0  0  0  0  0  0  0  0  0  0
  154.2818  125.5762  152.6503 C   0  0  0  0  0  0  0  0  0  0  0  0
  152.9994  125.4673  151.8724 C   0  0  0  0  0  0  0  0  0  0  0  0
  152.5144  129.7920  154.1778 C   0  0  2  0  0  0  0  0  0  0  0  0
  153.5132  130.5925  155.0319 C   0  0  0  0  0  0  0  0  0  0  0  0
  152.7692  130.8616  156.3387 C   0  0  0  0  0  0  0  0  0  0  0  0
  151.3207  131.0340  155.8831 C   0  0  0  0  0  0  0  0  0  0  0  0
  151.2145  130.2826  154.6361 N   0  0  0  0  0  0  0  0  0  0  0  0
  150.0378  130.1448  153.9634 C   0  0  0  0  0  0  0  0  0  0  0  0
  149.6240  128.8842  153.6658 N   0  0  0  0  0  0  0  0  0  0  0  0
  148.4817  128.6752  153.0076 C   0  0  0  0  0  0  0  0  0  0  0  0
  147.6074  129.5719  152.5531 N   0  0  0  0  0  0  0  0  0  0  0  0
  148.0082  130.8422  152.8425 C   0  0  0  0  0  0  0  0  0  0  0  0
  149.1922  131.2181  153.5435 C   0  0  0  0  0  0  0  0  0  0  0  0
  149.2340  132.6043  153.6588 N   0  0  0  0  0  0  0  0  0  0  0  0
  148.1485  133.0181  153.0664 C   0  0  0  0  0  0  0  0  0  0  0  0
  147.3679  132.0264  152.5209 N   0  0  0  0  0  0  0  0  0  0  0  0
  146.1092  132.1918  151.8537 C   0  0  0  0  0  0  0  0  0  0  0  0
  145.9553  133.1821  150.6958 C   0  0  0  0  0  0  0  0  0  0  0  0
  144.5280  133.5352  151.1692 C   0  0  0  0  0  0  0  0  0  0  0  0
  144.2116  135.0379  151.2214 C   0  0  0  0  0  0  0  0  0  0  0  0
  144.0020  135.5659  149.9273 O   0  0  0  0  0  0  0  0  0  0  0  0
  143.3523  132.8491  150.4380 C   0  0  0  0  0  0  0  0  0  0  0  0
  143.5800  131.4792  150.1745 O   0  0  0  0  0  0  0  0  0  0  0  0
  144.9418  132.9220  152.5261 C   0  0  0  0  0  0  0  0  0  0  0  0
  152.8525  128.0300  152.3941 H   0  0  0  0  0  0  0  0  0  0  0  0
  152.5556  125.5487  154.0439 H   0  0  0  0  0  0  0  0  0  0  0  0
  155.0263  126.2863  152.2953 H   0  0  0  0  0  0  0  0  0  0  0  0
  154.6815  124.6646  153.0901 H   0  0  0  0  0  0  0  0  0  0  0  0
  152.5412  124.4836  151.7927 H   0  0  0  0  0  0  0  0  0  0  0  0
  152.8864  126.1053  150.9978 H   0  0  0  0  0  0  0  0  0  0  0  0
  152.6723  130.0400  153.1277 H   0  0  0  0  0  0  0  0  0  0  0  0
  154.4625  130.0788  155.1912 H   0  0  0  0  0  0  0  0  0  0  0  0
  153.7363  131.5399  154.5392 H   0  0  0  0  0  0  0  0  0  0  0  0
  152.8516  129.9939  156.9949 H   0  0  0  0  0  0  0  0  0  0  0  0
  153.1511  131.7290  156.8779 H   0  0  0  0  0  0  0  0  0  0  0  0
  150.6251  130.6714  156.6411 H   0  0  0  0  0  0  0  0  0  0  0  0
  151.1023  132.0850  155.6884 H   0  0  0  0  0  0  0  0  0  0  0  0
  148.2340  127.6414  152.8167 H   0  0  0  0  0  0  0  0  0  0  0  0
  147.8914  134.0657  153.0073 H   0  0  0  0  0  0  0  0  0  0  0  0
  145.8083  131.1909  151.5423 H   0  0  0  0  0  0  0  0  0  0  0  0
  146.6481  134.0215  150.7764 H   0  0  0  0  0  0  0  0  0  0  0  0
  146.0102  132.7268  149.7064 H   0  0  0  0  0  0  0  0  0  0  0  0
  143.3296  135.2357  151.8315 H   0  0  0  0  0  0  0  0  0  0  0  0
  145.0318  135.5937  151.6769 H   0  0  0  0  0  0  0  0  0  0  0  0
  144.6918  135.2538  149.3614 H   0  0  0  0  0  0  0  0  0  0  0  0
  142.4367  132.9235  151.0258 H   0  0  0  0  0  0  0  0  0  0  0  0
  143.1497  133.3339  149.4825 H   0  0  0  0  0  0  0  0  0  0  0  0
  143.4897  130.9985  150.9833 H   0  0  0  0  0  0  0  0  0  0  0  0
  144.2005  132.2614  152.9765 H   0  0  0  0  0  0  0  0  0  0  0  0
  145.2793  133.6710  153.2446 H   0  0  0  0  0  0  0  0  0  0  0  0
  1  2  2  0  0  0  0
  2  3  1  0  0  0  0
  2  7  1  0  0  0  0
  3  4  1  0  0  0  0
  3 29  1  0  0  0  0
  4  6  1  0  0  0  0
  4  5  1  0  0  0  0
  4 30  1  0  0  0  0
  5  6  1  0  0  0  0
  5 31  1  0  0  0  0
  5 32  1  0  0  0  0
  6 33  1  0  0  0  0
  6 34  1  0  0  0  0
  7 11  1  0  0  0  0
  7  8  1  0  0  0  0
  7 35  1  0  0  0  0
  8  9  1  0  0  0  0
  8 36  1  0  0  0  0
  8 37  1  0  0  0  0
  9 10  1  0  0  0  0
  9 38  1  0  0  0  0
  9 39  1  0  0  0  0
 10 11  1  0  0  0  0
 10 40  1  0  0  0  0
 10 41  1  0  0  0  0
 11 12  1  0  0  0  0
 12 17  1  0  0  0  0
 12 13  2  0  0  0  0
 13 14  1  0  0  0  0
 14 15  2  0  0  0  0
 14 42  1  0  0  0  0
 15 16  1  0  0  0  0
 16 20  1  0  0  0  0
 16 17  2  0  0  0  0
 17 18  1  0  0  0  0
 18 19  2  0  0  0  0
 19 20  1  0  0  0  0
 19 43  1  0  0  0  0
 20 21  1  0  0  0  0
 21 28  1  0  0  0  0
 21 22  1  0  0  0  0
 21 44  1  0  0  0  0
 22 23  1  0  0  0  0
 22 45  1  0  0  0  0
 22 46  1  0  0  0  0
 23 24  1  0  0  0  0
 23 26  1  0  0  0  0
 23 28  1  0  0  0  0
 24 25  1  0  0  0  0
 24 47  1  0  0  0  0
 24 48  1  0  0  0  0
 25 49  1  0  0  0  0
 26 27  1  0  0  0  0
 26 50  1  0  0  0  0
 26 51  1  0  0  0  0
 27 52  1  0  0  0  0
 28 53  1  0  0  0  0
 28 54  1  0  0  0  0
M  END
> <s_m_source_file>
AV-unprocessed.smi

> <i_m_source_file_index>
226

> <i_lp_mmshare_version>
43012

> <i_f3d_flags>
0

> <s_epik_input>
W0NIMl0xW0NIMl1bQ0hdMVtOSF1DKD1PKVtDQEBIXTJbQ0gyXVtDSDJdW0NIMl1OMmMobltjSF1uMyljKGMzNCluW2NIXW40W0NIXShbQ0gyXTUpW0NIMl1DNShbQ0gyXVtPSF0pW0NIMl1bT0hd

> <s_epik_cmdline>
J2VwaWtfcHl0aG9uJywgJy1waCcsICc3LjAnLCAnLXRuJywgJzgnLCAnLW1hJywgJzIwMCcsICctbWV0YWxfYmluZGluZycsICctaW1hZScsICc8aW5maWxlLm1hZT4nLCAnLW9tYWUnLCAnPG91dGZpbGUubWFlPic=

> <r_lp_tautomer_probability>
1

> <r_epik_Ionization_Penalty>
0.000818715

> <r_epik_Ionization_Penalty_Charging>
0

> <r_epik_Ionization_Penalty_Neutral>
0.000818715

> <r_epik_State_Penalty>
0.000426447

> <r_epik_Charging_Adjusted_Penalty>
0.000426447

> <i_epik_Tot_Q>
0

> <i_epik_Tot_abs_Q>
0

> <r_epik_Metal_State_Penalty>
-0

> <b_epik_Metal_Only>
0

> <s_lp_Force_Field>
OPLS_2005

> <r_lp_Energy>
61.6174

> <b_lp_Chiralities_Consistent>
1

> <s_lp_Variant>
AV-unprocessed.smi:226-1

> <Gold.Version>
5.8.1

> <Gold.Id.Protein>
6NUR|6NUR_protein|mol2

> <Gold.PLP.Fitness>
52.6970

> <Gold.PLP.PLP>
-43.2245

> <Gold.PLP.part.hbond>
-4.1414

> <Gold.PLP.part.metal>
0.0000

> <Gold.PLP.part.buried>
-2.6131

> <Gold.PLP.part.nonpolar>
-37.6100

> <Gold.PLP.part.repulsive>
0.3683

> <Gold.PLP.ligand.clash>
0.0000

> <Gold.PLP.ligand.torsion>
1.3968

> <Gold.PLP.Chemscore.Hbond>
2.9120

> <Gold.PLP.Chemscore.CHOScore>
1.0000

> <Gold.PLP.Chemscore.Metal>
0.0000

> <Gold.Chemscore.Hbonds>
donor molecule, donor type, donor heavy atom, donor atom, acceptor molecule, acceptor atom, score
      L1  H    25    49       P1  7921  0.36
      P1  H 10785 10796       L1    27  0.88
      L1  C    19    43       P1  7948  0.75

> <Gold.PLP.Chemscore.Internal.Correction>
0.5301

> <Gold.Rescore>
     Score         DG    S(hbond)    S(metal)    S(lipo)     H(rot)  DE(clash)    DE(int)     intcor
     11.73     -14.86       2.83        0.00      76.41       3.52       1.58       1.55       ----

> <Gold.Chemscore.Fitness>
11.7292

> <Gold.Chemscore.DG>
-14.8635

> <Gold.Chemscore.ZeroCoef>
-5.4800

> <Gold.Chemscore.Hbond>
2.8340

> <Gold.Chemscore.Metal>
0.0000

> <Gold.Chemscore.Lipo>
76.4139

> <Gold.Chemscore.Internal_Hbond>
0.0000

> <Gold.Chemscore.DEClash>
1.5822

> <Gold.Chemscore.DEInternal>
1.5521

> <Gold.Chemscore.Rot>
3.5244

> <Gold.Chemscore.Internal.Correction>
   9.000000E+99

> <Gold.Chemscore.Hbonds>
donor molecule, donor type, donor heavy atom, donor atom, acceptor molecule, acceptor atom, score
      L1  H    25    49       P1  7921  0.35
      P1  H 10785 10796       L1    27  0.37

> <Gold.Chemscore.Hbond.Weighted>
-9.4656

> <Gold.Chemscore.Metal.Weighted>
-0.0000

> <Gold.Chemscore.Lipo.Weighted>
-8.9404

> <Gold.Chemscore.Internal_Hbond.Weighted>
0.0000

> <Gold.Chemscore.DEClash.Weighted>
1.5822

> <Gold.Chemscore.DEInternal.Weighted>
1.5521

> <Gold.Chemscore.Rot.Weighted>
9.0225

> <Gold.Chemscore.Internal.Correction.Weighted>
   9.000000E+99

> <Gold.Protein.RotatedTorsions>
[ 6907 6896 6895 6894 ] final  -20.69 input  -60.11 | X-H torsion
[ 7974 7965 7964 7962 ] final  -48.32 input  175.53 | X-H torsion
[ 8008 7997 7996 7995 ] final -122.07 input   59.86 | X-H torsion
[ 10167 10162 10161 10158 ] final   31.14 input  -65.29 | X-H torsion
[ 10718 10713 10712 10709 ] final  108.66 input   66.30 | X-H torsion
[ 10763 10752 10751 10750 ] final  163.06 input  -60.55 | X-H torsion
[ 11005 11000 10999 10996 ] final   93.96 input  -57.11 | X-H torsion

> <Gold.Protein.ActiveResidues>
 VAL166  LYS551  ARG553  GLY616  TRP617  ASP618  TYR619  PRO620  LYS621  CYS622 
 ASP623  PHE694  ASN695  SER759  ASP760  ASP761  ALA762  ILE779  LEU786  VAL792 
 PHE793  MET794  SER795  GLU796  ALA797  LYS798  CYS799  TRP800  GLU811  SER814 

> <Gold.Protein.RotatedAtoms>
  151.2444  135.0600  159.9037 H   0  0  0  0  0  0  0  0  0  0  0  0  # atno 6907 bound_to 6896
  152.5389  134.0399  159.8073 H   0  0  0  0  0  0  0  0  0  0  0  0  # atno 6908 bound_to 6896
  151.0598  133.5505  159.2666 H   0  0  0  0  0  0  0  0  0  0  0  0  # atno 6909 bound_to 6896
  145.9524  140.7559  142.9498 H   0  0  0  0  0  0  0  0  0  0  0  0  # atno 7974 bound_to 7965
  155.1582  140.0405  157.2836 H   0  0  0  0  0  0  0  0  0  0  0  0  # atno 8008 bound_to 7997
  154.6355  140.2534  155.7356 H   0  0  0  0  0  0  0  0  0  0  0  0  # atno 8009 bound_to 7997
  156.2506  140.2866  156.0725 H   0  0  0  0  0  0  0  0  0  0  0  0  # atno 8010 bound_to 7997
  140.4616  144.0899  150.6214 H   0  0  0  0  0  0  0  0  0  0  0  0  # atno 10167 bound_to 10162
  157.6576  131.0898  150.6338 H   0  0  0  0  0  0  0  0  0  0  0  0  # atno 10718 bound_to 10713
  154.2879  135.2761  155.2668 H   0  0  0  0  0  0  0  0  0  0  0  0  # atno 10763 bound_to 10752
  154.5160  135.5769  153.6646 H   0  0  0  0  0  0  0  0  0  0  0  0  # atno 10764 bound_to 10752
  152.9919  135.6192  154.3042 H   0  0  0  0  0  0  0  0  0  0  0  0  # atno 10765 bound_to 10752
  139.8804  134.8819  156.3794 H   0  0  0  0  0  0  0  0  0  0  0  0  # atno 11005 bound_to 11000
  144.6798  140.2457  143.7338 LP  0  0  0  0  0  0  0  0  0  0  0  0  # atno 17320 bound_to 7965
  145.8153  139.2020  143.1969 LP  0  0  0  0  0  0  0  0  0  0  0  0  # atno 17321 bound_to 7965
  140.4087  143.2667  151.9859 LP  0  0  0  0  0  0  0  0  0  0  0  0  # atno 17342 bound_to 10162
  139.4807  144.5934  151.7732 LP  0  0  0  0  0  0  0  0  0  0  0  0  # atno 17343 bound_to 10162
  156.6643  130.4521  149.5677 LP  0  0  0  0  0  0  0  0  0  0  0  0  # atno 17370 bound_to 10713
  156.2044  130.6640  151.1202 LP  0  0  0  0  0  0  0  0  0  0  0  0  # atno 17371 bound_to 10713
  140.9409  133.7515  156.0145 LP  0  0  0  0  0  0  0  0  0  0  0  0  # atno 17394 bound_to 11000
  140.8220  134.3278  157.5378 LP  0  0  0  0  0  0  0  0  0  0  0  0  # atno 17395 bound_to 11000

$$$$
