AV-unprocessed.smi:100|AV-procd|sdf|907|dock5
  -GOLD-   2262017403D 1   1.00000     0.00000
 Structure written by MMmdl.
 31 33  0  0  0  0  0  0  0  0  1 V2000
  144.2713  139.7797  155.2963 N   0  0  0  0  0  0  0  0  0  0  0  0
  145.5030  139.8410  155.8215 C   0  0  0  0  0  0  0  0  0  0  0  0
  145.6873  139.3871  157.0833 N   0  0  0  0  0  0  0  0  0  0  0  0
  146.9073  139.4357  157.6279 C   0  0  0  0  0  0  0  0  0  0  0  0
  148.0437  139.8887  157.0924 N   0  0  0  0  0  0  0  0  0  0  0  0
  147.8562  140.3496  155.8209 C   0  0  0  0  0  0  0  0  0  0  0  0
  146.6197  140.3579  155.1170 C   0  0  0  0  0  0  0  0  0  0  0  0
  146.7996  140.8926  153.8486 N   0  0  0  0  0  0  0  0  0  0  0  0
  148.0721  141.1833  153.8093 C   0  0  0  0  0  0  0  0  0  0  0  0
  148.7831  140.8950  154.9543 N   0  0  0  0  0  0  0  0  0  0  0  0
  150.2432  141.1253  155.2001 C   0  0  2  0  0  0  0  0  0  0  0  0
  150.8616  139.8941  155.4169 O   0  0  0  0  0  0  0  0  0  0  0  0
  151.8720  140.0584  156.4060 C   0  0  2  0  0  0  0  0  0  0  0  0
  152.2621  138.7069  157.0250 C   0  0  0  0  0  0  0  0  0  0  0  0
  153.4197  138.8551  157.8198 O   0  0  0  0  0  0  0  0  0  0  0  0
  151.2205  141.0393  157.3845 C   0  0  2  0  0  0  0  0  0  0  0  0
  150.3397  140.3879  158.1477 F   0  0  0  0  0  0  0  0  0  0  0  0
  150.5218  142.0053  156.4376 C   0  0  2  0  0  0  0  0  0  0  0  0
  149.3932  142.6264  157.0276 O   0  0  0  0  0  0  0  0  0  0  0  0
  144.1091  140.1119  154.3566 H   0  0  0  0  0  0  0  0  0  0  0  0
  143.5101  139.3995  155.8395 H   0  0  0  0  0  0  0  0  0  0  0  0
  146.9854  139.0583  158.6368 H   0  0  0  0  0  0  0  0  0  0  0  0
  148.5307  141.6249  152.9366 H   0  0  0  0  0  0  0  0  0  0  0  0
  150.6112  141.5726  154.2754 H   0  0  0  0  0  0  0  0  0  0  0  0
  152.7421  140.5398  155.9549 H   0  0  0  0  0  0  0  0  0  0  0  0
  151.4639  138.3474  157.6750 H   0  0  0  0  0  0  0  0  0  0  0  0
  152.4220  137.9494  156.2569 H   0  0  0  0  0  0  0  0  0  0  0  0
  153.9291  138.0613  157.7603 H   0  0  0  0  0  0  0  0  0  0  0  0
  151.9345  141.5270  158.0486 H   0  0  0  0  0  0  0  0  0  0  0  0
  151.2252  142.7810  156.1323 H   0  0  0  0  0  0  0  0  0  0  0  0
  149.1270  143.3492  156.4805 H   0  0  0  0  0  0  0  0  0  0  0  0
  1  2  1  0  0  0  0
  1 20  1  0  0  0  0
  1 21  1  0  0  0  0
  2  7  1  0  0  0  0
  2  3  2  0  0  0  0
  3  4  1  0  0  0  0
  4  5  2  0  0  0  0
  4 22  1  0  0  0  0
  5  6  1  0  0  0  0
  6 10  1  0  0  0  0
  6  7  2  0  0  0  0
  7  8  1  0  0  0  0
  8  9  2  0  0  0  0
  9 10  1  0  0  0  0
  9 23  1  0  0  0  0
 10 11  1  0  0  0  0
 11 18  1  0  0  0  0
 11 12  1  0  0  0  0
 11 24  1  0  0  0  0
 12 13  1  0  0  0  0
 13 14  1  0  0  0  0
 13 16  1  0  0  0  0
 13 25  1  0  0  0  0
 14 15  1  0  0  0  0
 14 26  1  0  0  0  0
 14 27  1  0  0  0  0
 15 28  1  0  0  0  0
 16 17  1  0  0  0  0
 16 18  1  0  0  0  0
 16 29  1  0  0  0  0
 18 19  1  0  0  0  0
 18 30  1  0  0  0  0
 19 31  1  0  0  0  0
M  END
> <s_m_source_file>
AV-unprocessed.smi

> <i_m_source_file_index>
100

> <i_lp_mmshare_version>
43012

> <i_f3d_flags>
0

> <s_epik_input>
bjFbY0hdbmMoW05IMl0pYyhjMTIpbltjSF1uMltDQEBIXTNPW0NAQEhdKFtDSDJdW09IXSlbQ0BIXShGKVtDQEhdM1tPSF0=

> <s_epik_cmdline>
J2VwaWtfcHl0aG9uJywgJy1waCcsICc3LjAnLCAnLXRuJywgJzgnLCAnLW1hJywgJzIwMCcsICctbWV0YWxfYmluZGluZycsICctaW1hZScsICc8aW5maWxlLm1hZT4nLCAnLW9tYWUnLCAnPG91dGZpbGUubWFlPic=

> <r_lp_tautomer_probability>
1

> <r_epik_Ionization_Penalty>
0.000750324

> <r_epik_Ionization_Penalty_Charging>
0

> <r_epik_Ionization_Penalty_Neutral>
0.000750324

> <r_epik_State_Penalty>
-0

> <r_epik_Charging_Adjusted_Penalty>
0

> <i_epik_Tot_Q>
0

> <i_epik_Tot_abs_Q>
0

> <r_epik_Metal_State_Penalty>
-0

> <b_epik_Metal_Only>
0

> <s_epik_Chemistry_Notes>
This compound contains an acetal/aminal-like group ( X-CH(R)-Y where X, Y are N, S, or O) that may be acid/base labile, releasing an aldehyde.

> <s_lp_Force_Field>
OPLS_2005

> <r_lp_Energy>
39.5

> <b_lp_Chiralities_Consistent>
1

> <s_lp_Variant>
AV-unprocessed.smi:100-11

> <Gold.Version>
5.8.1

> <Gold.Id.Protein>
6NUR|6NUR_protein|mol2

> <Gold.PLP.Fitness>
32.4150

> <Gold.PLP.PLP>
-21.2332

> <Gold.PLP.part.hbond>
-3.2468

> <Gold.PLP.part.metal>
0.0000

> <Gold.PLP.part.buried>
-1.9181

> <Gold.PLP.part.nonpolar>
-16.5258

> <Gold.PLP.part.repulsive>
0.1874

> <Gold.PLP.ligand.clash>
0.0000

> <Gold.PLP.ligand.torsion>
0.1009

> <Gold.PLP.Chemscore.Hbond>
3.0000

> <Gold.PLP.Chemscore.CHOScore>
0.7925

> <Gold.PLP.Chemscore.Metal>
0.0000

> <Gold.Chemscore.Hbonds>
donor molecule, donor type, donor heavy atom, donor atom, acceptor molecule, acceptor atom, score
      L1  H     1    20       P1 10175  1.00
      L1  H    19    31       P1  8028  1.00
      P1  H  7997  8009       L1    15  1.00
      L1  C     9    23       P1  7957  0.66

> <Gold.PLP.Chemscore.Internal.Correction>
0.0062

> <Gold.Rescore>
     Score         DG    S(hbond)    S(metal)    S(lipo)     H(rot)  DE(clash)    DE(int)     intcor
      7.49      -9.91       2.84        0.00      26.67       3.19       0.54       1.87       ----

> <Gold.Chemscore.Fitness>
7.4932

> <Gold.Chemscore.DG>
-9.9054

> <Gold.Chemscore.ZeroCoef>
-5.4800

> <Gold.Chemscore.Hbond>
2.8359

> <Gold.Chemscore.Metal>
0.0000

> <Gold.Chemscore.Lipo>
26.6664

> <Gold.Chemscore.Internal_Hbond>
0.0000

> <Gold.Chemscore.DEClash>
0.5434

> <Gold.Chemscore.DEInternal>
1.8688

> <Gold.Chemscore.Rot>
3.1901

> <Gold.Chemscore.Internal.Correction>
   9.000000E+99

> <Gold.Chemscore.Hbonds>
donor molecule, donor type, donor heavy atom, donor atom, acceptor molecule, acceptor atom, score
      L1  H     1    20       P1 10175  0.99
      L1  H    19    31       P1  8028  0.98
      P1  H  7997  8009       L1    15  0.12

> <Gold.Chemscore.Hbond.Weighted>
-9.4720

> <Gold.Chemscore.Metal.Weighted>
-0.0000

> <Gold.Chemscore.Lipo.Weighted>
-3.1200

> <Gold.Chemscore.Internal_Hbond.Weighted>
0.0000

> <Gold.Chemscore.DEClash.Weighted>
0.5434

> <Gold.Chemscore.DEInternal.Weighted>
1.8688

> <Gold.Chemscore.Rot.Weighted>
8.1667

> <Gold.Chemscore.Internal.Correction.Weighted>
   9.000000E+99

> <Gold.Protein.RotatedTorsions>
[ 6907 6896 6895 6894 ] final  127.80 input  -60.11 | X-H torsion
[ 7974 7965 7964 7962 ] final -143.61 input  175.53 | X-H torsion
[ 8008 7997 7996 7995 ] final  172.55 input   59.86 | X-H torsion
[ 10167 10162 10161 10158 ] final   44.19 input  -65.29 | X-H torsion
[ 10718 10713 10712 10709 ] final   75.96 input   66.30 | X-H torsion
[ 10763 10752 10751 10750 ] final   68.86 input  -60.55 | X-H torsion
[ 11005 11000 10999 10996 ] final  130.10 input  -57.11 | X-H torsion

> <Gold.Protein.ActiveResidues>
 VAL166  LYS551  ARG553  GLY616  TRP617  ASP618  TYR619  PRO620  LYS621  CYS622 
 ASP623  PHE694  ASN695  SER759  ASP760  ASP761  ALA762  ILE779  LEU786  VAL792 
 PHE793  MET794  SER795  GLU796  ALA797  LYS798  CYS799  TRP800  GLU811  SER814 

> <Gold.Protein.RotatedAtoms>
  152.3779  133.6506  159.6137 H   0  0  0  0  0  0  0  0  0  0  0  0  # atno 6907 bound_to 6896
  150.7718  133.9163  159.3393 H   0  0  0  0  0  0  0  0  0  0  0  0  # atno 6908 bound_to 6896
  151.6974  135.0937  160.0296 H   0  0  0  0  0  0  0  0  0  0  0  0  # atno 6909 bound_to 6896
  144.8357  140.5813  143.5486 H   0  0  0  0  0  0  0  0  0  0  0  0  # atno 7974 bound_to 7965
  156.1163  140.1483  156.9268 H   0  0  0  0  0  0  0  0  0  0  0  0  # atno 8008 bound_to 7997
  154.4803  140.0881  156.7403 H   0  0  0  0  0  0  0  0  0  0  0  0  # atno 8009 bound_to 7997
  155.4508  140.3434  155.4303 H   0  0  0  0  0  0  0  0  0  0  0  0  # atno 8010 bound_to 7997
  140.3368  144.2520  150.6160 H   0  0  0  0  0  0  0  0  0  0  0  0  # atno 10167 bound_to 10162
  157.6655  130.9752  150.1429 H   0  0  0  0  0  0  0  0  0  0  0  0  # atno 10718 bound_to 10713
  153.0257  135.5232  154.7199 H   0  0  0  0  0  0  0  0  0  0  0  0  # atno 10763 bound_to 10752
  154.6258  135.2894  155.0276 H   0  0  0  0  0  0  0  0  0  0  0  0  # atno 10764 bound_to 10752
  154.1247  135.6602  153.4962 H   0  0  0  0  0  0  0  0  0  0  0  0  # atno 10765 bound_to 10752
  139.9653  134.9592  156.9244 H   0  0  0  0  0  0  0  0  0  0  0  0  # atno 11005 bound_to 11000
  145.4801  139.1496  143.3767 LP  0  0  0  0  0  0  0  0  0  0  0  0  # atno 17320 bound_to 7965
  146.2655  140.4937  142.8835 LP  0  0  0  0  0  0  0  0  0  0  0  0  # atno 17321 bound_to 7965
  140.5346  143.2236  151.8183 LP  0  0  0  0  0  0  0  0  0  0  0  0  # atno 17342 bound_to 10162
  139.4847  144.4677  151.9463 LP  0  0  0  0  0  0  0  0  0  0  0  0  # atno 17343 bound_to 10162
  156.2247  130.3677  149.8514 LP  0  0  0  0  0  0  0  0  0  0  0  0  # atno 17370 bound_to 10713
  156.6358  130.8684  151.3504 LP  0  0  0  0  0  0  0  0  0  0  0  0  # atno 17371 bound_to 10713
  140.5411  134.0719  155.7342 LP  0  0  0  0  0  0  0  0  0  0  0  0  # atno 17394 bound_to 11000
  141.1332  133.9266  157.2491 LP  0  0  0  0  0  0  0  0  0  0  0  0  # atno 17395 bound_to 11000

$$$$
