AV-unprocessed.smi:3050|AV-procd|sdf|11632|dock8
  -GOLD-   2272017 23D 1   1.00000     0.00000
 Structure written by MMmdl.
 45 46  0  0  0  0  0  0  0  0  1 V2000
  149.9197  138.4243  156.9226 C   0  0  0  0  0  0  0  0  0  0  0  0
  150.5185  139.8332  156.8297 C   0  0  0  0  0  0  0  0  0  0  0  0
  149.4730  140.9399  157.0619 C   0  0  1  0  0  0  0  0  0  0  0  0
  150.1444  142.1977  157.0018 O   0  0  0  0  0  0  0  0  0  0  0  0
  150.5738  142.7488  158.2442 C   0  0  0  0  0  0  0  0  0  0  0  0
  151.3325  144.0524  158.0065 C   0  0  0  0  0  0  0  0  0  0  0  0
  152.1606  144.2474  159.2790 C   0  0  0  0  0  0  0  0  0  0  0  0
  152.4261  142.8379  159.8304 C   0  0  0  0  0  0  0  0  0  0  0  0
  151.6011  141.8724  158.9687 C   0  0  0  0  0  0  0  0  0  0  0  0
  148.3599  140.8844  156.0040 C   0  0  0  0  0  0  0  0  0  0  0  0
  147.9353  139.8010  155.6021 O   0  0  0  0  0  0  0  0  0  0  0  0
  147.8967  142.0647  155.5661 N   0  0  0  0  0  0  0  0  0  0  0  0
  146.8001  142.2363  154.6185 C   0  0  0  0  0  0  0  0  0  0  0  0
  145.4724  142.5924  155.3147 C   0  0  0  0  0  0  0  0  0  0  0  0
  144.8112  143.8058  154.7151 C   0  0  0  0  0  0  0  0  0  0  0  0
  144.8526  144.2464  153.3616 C   0  0  0  0  0  0  0  0  0  0  0  0
  144.1767  145.3667  153.1646 N   0  0  0  0  0  0  0  0  0  0  0  0
  143.6803  145.6777  154.3797 N   0  0  0  0  0  0  0  0  0  0  0  0
  142.8747  146.8696  154.5373 C   0  0  0  0  0  0  0  0  0  0  0  0
  144.0442  144.7526  155.3339 C   0  0  0  0  0  0  0  0  0  0  0  0
  150.6834  137.6665  156.7472 H   0  0  0  0  0  0  0  0  0  0  0  0
  149.1327  138.2813  156.1818 H   0  0  0  0  0  0  0  0  0  0  0  0
  149.4903  138.2409  157.9078 H   0  0  0  0  0  0  0  0  0  0  0  0
  151.3302  139.9281  157.5525 H   0  0  0  0  0  0  0  0  0  0  0  0
  150.9701  139.9538  155.8438 H   0  0  0  0  0  0  0  0  0  0  0  0
  149.0365  140.7921  158.0511 H   0  0  0  0  0  0  0  0  0  0  0  0
  149.7318  142.9583  158.9054 H   0  0  0  0  0  0  0  0  0  0  0  0
  152.0006  143.9400  157.1514 H   0  0  0  0  0  0  0  0  0  0  0  0
  150.6697  144.8936  157.8015 H   0  0  0  0  0  0  0  0  0  0  0  0
  153.0822  144.7965  159.0841 H   0  0  0  0  0  0  0  0  0  0  0  0
  151.5859  144.8215  160.0070 H   0  0  0  0  0  0  0  0  0  0  0  0
  153.4860  142.5846  159.7878 H   0  0  0  0  0  0  0  0  0  0  0  0
  152.1200  142.7807  160.8757 H   0  0  0  0  0  0  0  0  0  0  0  0
  151.1358  141.0831  159.5601 H   0  0  0  0  0  0  0  0  0  0  0  0
  152.2541  141.3944  158.2370 H   0  0  0  0  0  0  0  0  0  0  0  0
  148.3076  142.9054  155.9457 H   0  0  0  0  0  0  0  0  0  0  0  0
  147.0805  143.0413  153.9388 H   0  0  0  0  0  0  0  0  0  0  0  0
  146.6832  141.3418  154.0049 H   0  0  0  0  0  0  0  0  0  0  0  0
  144.8063  141.7307  155.2674 H   0  0  0  0  0  0  0  0  0  0  0  0
  145.6618  142.7523  156.3768 H   0  0  0  0  0  0  0  0  0  0  0  0
  145.3573  143.7902  152.5227 H   0  0  0  0  0  0  0  0  0  0  0  0
  142.5998  146.9998  155.5844 H   0  0  0  0  0  0  0  0  0  0  0  0
  141.9663  146.7820  153.9404 H   0  0  0  0  0  0  0  0  0  0  0  0
  143.4381  147.7433  154.2078 H   0  0  0  0  0  0  0  0  0  0  0  0
  143.7372  144.8451  156.3655 H   0  0  0  0  0  0  0  0  0  0  0  0
  1  2  1  0  0  0  0
  1 21  1  0  0  0  0
  1 22  1  0  0  0  0
  1 23  1  0  0  0  0
  2  3  1  0  0  0  0
  2 24  1  0  0  0  0
  2 25  1  0  0  0  0
  3  4  1  0  0  0  0
  3 10  1  0  0  0  0
  3 26  1  0  0  0  0
  4  5  1  0  0  0  0
  5  9  1  0  0  0  0
  5  6  1  0  0  0  0
  5 27  1  0  0  0  0
  6  7  1  0  0  0  0
  6 28  1  0  0  0  0
  6 29  1  0  0  0  0
  7  8  1  0  0  0  0
  7 30  1  0  0  0  0
  7 31  1  0  0  0  0
  8  9  1  0  0  0  0
  8 32  1  0  0  0  0
  8 33  1  0  0  0  0
  9 34  1  0  0  0  0
  9 35  1  0  0  0  0
 10 11  2  0  0  0  0
 10 12  1  0  0  0  0
 12 13  1  0  0  0  0
 12 36  1  0  0  0  0
 13 14  1  0  0  0  0
 13 37  1  0  0  0  0
 13 38  1  0  0  0  0
 14 15  1  0  0  0  0
 14 39  1  0  0  0  0
 14 40  1  0  0  0  0
 15 20  2  0  0  0  0
 15 16  1  0  0  0  0
 16 17  2  0  0  0  0
 16 41  1  0  0  0  0
 17 18  1  0  0  0  0
 18 19  1  0  0  0  0
 18 20  1  0  0  0  0
 19 42  1  0  0  0  0
 19 43  1  0  0  0  0
 19 44  1  0  0  0  0
 20 45  1  0  0  0  0
M  END
> <s_m_source_file>
AV-unprocessed.smi

> <i_m_source_file_index>
3050

> <i_lp_mmshare_version>
43012

> <i_f3d_flags>
0

> <s_epik_input>
W0NIMl0xW0NIMl1bQ0gyXVtDSDJdW0NIXTFPW0NAQEhdKFtDSDJdW0NIM10pQyg9TylbTkhdW0NIMl1bQ0gyXWMyW2NIXW5uKFtDSDNdKVtjSF0y

> <s_epik_cmdline>
J2VwaWtfcHl0aG9uJywgJy1waCcsICc3LjAnLCAnLXRuJywgJzgnLCAnLW1hJywgJzIwMCcsICctbWV0YWxfYmluZGluZycsICctaW1hZScsICc8aW5maWxlLm1hZT4nLCAnLW9tYWUnLCAnPG91dGZpbGUubWFlPic=

> <r_lp_tautomer_probability>
1

> <r_epik_Ionization_Penalty>
0.000440265

> <r_epik_Ionization_Penalty_Charging>
0

> <r_epik_Ionization_Penalty_Neutral>
0.000440265

> <r_epik_State_Penalty>
-0

> <r_epik_Charging_Adjusted_Penalty>
0

> <i_epik_Tot_Q>
0

> <i_epik_Tot_abs_Q>
0

> <r_epik_Metal_State_Penalty>
-0

> <b_epik_Metal_Only>
0

> <s_lp_Force_Field>
OPLS_2005

> <r_lp_Energy>
20.8184

> <b_lp_Chiralities_Consistent>
1

> <s_lp_Variant>
AV-unprocessed.smi:3050-2

> <Gold.Version>
5.8.1

> <Gold.Id.Protein>
6NUR|6NUR_protein|mol2

> <Gold.PLP.Fitness>
48.4033

> <Gold.PLP.PLP>
-49.1174

> <Gold.PLP.part.hbond>
-2.0000

> <Gold.PLP.part.metal>
0.0000

> <Gold.PLP.part.buried>
-6.4137

> <Gold.PLP.part.nonpolar>
-41.2586

> <Gold.PLP.part.repulsive>
0.8535

> <Gold.PLP.ligand.clash>
0.0000

> <Gold.PLP.ligand.torsion>
1.9753

> <Gold.PLP.Chemscore.Hbond>
1.0000

> <Gold.PLP.Chemscore.CHOScore>
0.0000

> <Gold.PLP.Chemscore.Metal>
0.0000

> <Gold.Chemscore.Hbonds>
donor molecule, donor type, donor heavy atom, donor atom, acceptor molecule, acceptor atom, score
      L1  H    12    36       P1  8028  0.96

> <Gold.PLP.Chemscore.Internal.Correction>
0.2365

> <Gold.Rescore>
     Score         DG    S(hbond)    S(metal)    S(lipo)     H(rot)  DE(clash)    DE(int)     intcor
     13.88     -17.32       0.94        0.00     114.22       1.83       0.23       3.21       ----

> <Gold.Chemscore.Fitness>
13.8824

> <Gold.Chemscore.DG>
-17.3161

> <Gold.Chemscore.ZeroCoef>
-5.4800

> <Gold.Chemscore.Hbond>
0.9443

> <Gold.Chemscore.Metal>
0.0000

> <Gold.Chemscore.Lipo>
114.2171

> <Gold.Chemscore.Internal_Hbond>
0.0000

> <Gold.Chemscore.DEClash>
0.2253

> <Gold.Chemscore.DEInternal>
3.2084

> <Gold.Chemscore.Rot>
1.8286

> <Gold.Chemscore.Internal.Correction>
   9.000000E+99

> <Gold.Chemscore.Hbonds>
donor molecule, donor type, donor heavy atom, donor atom, acceptor molecule, acceptor atom, score
      L1  H    12    36       P1  8028  0.85

> <Gold.Chemscore.Hbond.Weighted>
-3.1538

> <Gold.Chemscore.Metal.Weighted>
-0.0000

> <Gold.Chemscore.Lipo.Weighted>
-13.3634

> <Gold.Chemscore.Internal_Hbond.Weighted>
0.0000

> <Gold.Chemscore.DEClash.Weighted>
0.2253

> <Gold.Chemscore.DEInternal.Weighted>
3.2084

> <Gold.Chemscore.Rot.Weighted>
4.6811

> <Gold.Chemscore.Internal.Correction.Weighted>
   9.000000E+99

> <Gold.Protein.RotatedTorsions>
[ 6907 6896 6895 6894 ] final  -33.68 input  -60.11 | X-H torsion
[ 7974 7965 7964 7962 ] final  112.06 input  175.53 | X-H torsion
[ 8008 7997 7996 7995 ] final   82.16 input   59.86 | X-H torsion
[ 10167 10162 10161 10158 ] final   85.76 input  -65.29 | X-H torsion
[ 10718 10713 10712 10709 ] final   58.79 input   66.30 | X-H torsion
[ 10763 10752 10751 10750 ] final  -40.35 input  -60.55 | X-H torsion
[ 11005 11000 10999 10996 ] final -151.78 input  -57.11 | X-H torsion

> <Gold.Protein.ActiveResidues>
 VAL166  LYS551  ARG553  GLY616  TRP617  ASP618  TYR619  PRO620  LYS621  CYS622 
 ASP623  PHE694  ASN695  SER759  ASP760  ASP761  ALA762  ILE779  LEU786  VAL792 
 PHE793  MET794  SER795  GLU796  ALA797  LYS798  CYS799  TRP800  GLU811  SER814 

> <Gold.Protein.RotatedAtoms>
  151.0624  134.9745  159.8266 H   0  0  0  0  0  0  0  0  0  0  0  0  # atno 6907 bound_to 6896
  152.5397  134.2401  159.8868 H   0  0  0  0  0  0  0  0  0  0  0  0  # atno 6908 bound_to 6896
  151.2421  133.4351  159.2641 H   0  0  0  0  0  0  0  0  0  0  0  0  # atno 6909 bound_to 6896
  145.2343  139.2806  143.4151 H   0  0  0  0  0  0  0  0  0  0  0  0  # atno 7974 bound_to 7965
  155.9069  140.3430  155.6069 H   0  0  0  0  0  0  0  0  0  0  0  0  # atno 8008 bound_to 7997
  155.7433  140.0810  157.2254 H   0  0  0  0  0  0  0  0  0  0  0  0  # atno 8009 bound_to 7997
  154.4050  140.1566  156.2628 H   0  0  0  0  0  0  0  0  0  0  0  0  # atno 8010 bound_to 7997
  139.8945  144.6366  150.8703 H   0  0  0  0  0  0  0  0  0  0  0  0  # atno 10167 bound_to 10162
  157.5625  130.8846  149.9133 H   0  0  0  0  0  0  0  0  0  0  0  0  # atno 10718 bound_to 10713
  153.9445  135.6757  153.4744 H   0  0  0  0  0  0  0  0  0  0  0  0  # atno 10763 bound_to 10752
  153.0915  135.4872  154.8696 H   0  0  0  0  0  0  0  0  0  0  0  0  # atno 10764 bound_to 10752
  154.7359  135.3149  154.8770 H   0  0  0  0  0  0  0  0  0  0  0  0  # atno 10765 bound_to 10752
  140.7259  134.3675  157.5175 H   0  0  0  0  0  0  0  0  0  0  0  0  # atno 11005 bound_to 11000
  146.3345  140.2688  142.8605 LP  0  0  0  0  0  0  0  0  0  0  0  0  # atno 17320 bound_to 7965
  144.9647  140.8310  143.5492 LP  0  0  0  0  0  0  0  0  0  0  0  0  # atno 17321 bound_to 7965
  140.7720  143.3484  151.2063 LP  0  0  0  0  0  0  0  0  0  0  0  0  # atno 17342 bound_to 10162
  139.7080  143.9423  152.2935 LP  0  0  0  0  0  0  0  0  0  0  0  0  # atno 17343 bound_to 10162
  156.0676  130.3690  150.0845 LP  0  0  0  0  0  0  0  0  0  0  0  0  # atno 17370 bound_to 10713
  156.9007  130.9619  151.3576 LP  0  0  0  0  0  0  0  0  0  0  0  0  # atno 17371 bound_to 10713
  139.8837  134.8986  156.2749 LP  0  0  0  0  0  0  0  0  0  0  0  0  # atno 17394 bound_to 11000
  140.9963  133.7178  156.0890 LP  0  0  0  0  0  0  0  0  0  0  0  0  # atno 17395 bound_to 11000

$$$$
