AV-unprocessed.smi:1392|AV-procd|sdf|5660|dock2
  -GOLD-   22720 5283D 1   1.00000     0.00000
 Structure written by MMmdl.
 40 41  0  0  0  0  0  0  0  0  2 V2000
  151.8276  144.2969  157.3386 C   0  0  0  0  0  0  0  0  0  0  0  0
  151.5865  142.9113  157.7188 N   0  0  0  0  0  0  0  0  0  0  0  0
  151.9135  142.4482  159.0629 C   0  0  0  0  0  0  0  0  0  0  0  0
  151.0070  142.0189  156.7910 C   0  0  0  0  0  0  0  0  0  0  0  0
  151.5069  140.7155  156.5515 C   0  0  0  0  0  0  0  0  0  0  0  0
  150.8727  139.8834  155.6063 C   0  0  0  0  0  0  0  0  0  0  0  0
  149.7480  140.3540  154.8973 C   0  0  0  0  0  0  0  0  0  0  0  0
  149.1402  139.4724  153.9617 N   0  0  0  0  0  0  0  0  0  0  0  0
  147.9223  139.5534  153.3980 C   0  0  0  0  0  0  0  0  0  0  0  0
  147.0990  140.4446  153.6043 O   0  0  0  0  0  0  0  0  0  0  0  0
  147.7101  138.5339  152.5537 N   0  0  0  0  0  0  0  0  0  0  0  0
  146.4940  138.3341  151.7722 C   0  0  0  0  0  0  0  0  0  0  0  0
  145.7863  137.0141  152.1315 C   0  0  1  0  0  0  0  0  0  0  0  0
  144.3512  137.1892  152.5831 C   0  0  0  0  0  0  0  0  0  0  0  0
  143.7995  135.7788  152.4090 C   0  0  0  0  0  0  0  0  0  0  0  0
  144.4734  135.2446  151.2737 O   0  0  0  0  0  0  0  0  0  0  0  0
  145.6168  136.0376  150.9647 C   0  0  0  0  0  0  0  0  0  0  0  0
  149.2791  141.6592  155.1801 C   0  0  0  0  0  0  0  0  0  0  0  0
  149.9164  142.4221  156.0944 N   0  3  0  0  0  0  0  0  0  0  0  0
  152.5118  144.3485  156.4913 H   0  0  0  0  0  0  0  0  0  0  0  0
  152.2713  144.8614  158.1590 H   0  0  0  0  0  0  0  0  0  0  0  0
  150.8932  144.7877  157.0639 H   0  0  0  0  0  0  0  0  0  0  0  0
  152.6361  141.6325  159.0222 H   0  0  0  0  0  0  0  0  0  0  0  0
  151.0181  142.0941  159.5748 H   0  0  0  0  0  0  0  0  0  0  0  0
  152.3471  143.2477  159.6642 H   0  0  0  0  0  0  0  0  0  0  0  0
  152.3697  140.3369  157.0789 H   0  0  0  0  0  0  0  0  0  0  0  0
  151.2555  138.8893  155.4264 H   0  0  0  0  0  0  0  0  0  0  0  0
  149.7225  138.7115  153.6437 H   0  0  0  0  0  0  0  0  0  0  0  0
  148.4411  137.8470  152.4395 H   0  0  0  0  0  0  0  0  0  0  0  0
  145.8161  139.1772  151.9159 H   0  0  0  0  0  0  0  0  0  0  0  0
  146.7672  138.3380  150.7164 H   0  0  0  0  0  0  0  0  0  0  0  0
  146.3335  136.5109  152.9308 H   0  0  0  0  0  0  0  0  0  0  0  0
  144.2656  137.5552  153.6067 H   0  0  0  0  0  0  0  0  0  0  0  0
  143.8235  137.8817  151.9258 H   0  0  0  0  0  0  0  0  0  0  0  0
  144.0432  135.1664  153.2779 H   0  0  0  0  0  0  0  0  0  0  0  0
  142.7175  135.7650  152.2767 H   0  0  0  0  0  0  0  0  0  0  0  0
  145.4193  136.5732  150.0353 H   0  0  0  0  0  0  0  0  0  0  0  0
  146.4999  135.4163  150.8139 H   0  0  0  0  0  0  0  0  0  0  0  0
  148.4184  142.1260  154.7260 H   0  0  0  0  0  0  0  0  0  0  0  0
  149.5522  143.3585  156.2715 H   0  0  0  0  0  0  0  0  0  0  0  0
  1  2  1  0  0  0  0
  1 20  1  0  0  0  0
  1 21  1  0  0  0  0
  1 22  1  0  0  0  0
  2  3  1  0  0  0  0
  2  4  1  0  0  0  0
  3 23  1  0  0  0  0
  3 24  1  0  0  0  0
  3 25  1  0  0  0  0
  4 19  1  0  0  0  0
  4  5  2  0  0  0  0
  5  6  1  0  0  0  0
  5 26  1  0  0  0  0
  6  7  2  0  0  0  0
  6 27  1  0  0  0  0
  7  8  1  0  0  0  0
  7 18  1  0  0  0  0
  8  9  1  0  0  0  0
  8 28  1  0  0  0  0
  9 10  2  0  0  0  0
  9 11  1  0  0  0  0
 11 12  1  0  0  0  0
 11 29  1  0  0  0  0
 12 13  1  0  0  0  0
 12 30  1  0  0  0  0
 12 31  1  0  0  0  0
 13 17  1  0  0  0  0
 13 14  1  0  0  0  0
 13 32  1  0  0  0  0
 14 15  1  0  0  0  0
 14 33  1  0  0  0  0
 14 34  1  0  0  0  0
 15 16  1  0  0  0  0
 15 35  1  0  0  0  0
 15 36  1  0  0  0  0
 16 17  1  0  0  0  0
 17 37  1  0  0  0  0
 17 38  1  0  0  0  0
 18 19  2  0  0  0  0
 18 39  1  0  0  0  0
 19 40  1  0  0  0  0
M  CHG  1  19   1
M  END
> <s_m_source_file>
AV-unprocessed.smi

> <i_m_source_file_index>
1392

> <i_lp_mmshare_version>
43012

> <i_f3d_flags>
0

> <s_epik_input>
W0NIM11OKFtDSDNdKWMxW2NIXVtjSF1jKFtjSF1uMSlbTkhdQyg9TylbTkhdW0NIMl1bQ0BASF0yW0NIMl1bQ0gyXU9bQ0gyXTI=

> <s_epik_cmdline>
J2VwaWtfcHl0aG9uJywgJy1waCcsICc3LjAnLCAnLXRuJywgJzgnLCAnLW1hJywgJzIwMCcsICctbWV0YWxfYmluZGluZycsICctaW1hZScsICc8aW5maWxlLm1hZT4nLCAnLW9tYWUnLCAnPG91dGZpbGUubWFlPic=

> <r_lp_tautomer_probability>
0.999994

> <r_epik_Ionization_Penalty>
0.261114

> <r_epik_Ionization_Penalty_Charging>
0.261094

> <r_epik_Ionization_Penalty_Neutral>
2.01539e-05

> <r_epik_State_Penalty>
0.252829

> <r_epik_Charging_Adjusted_Penalty>
0.513923

> <i_epik_Tot_Q>
1

> <i_epik_Tot_abs_Q>
1

> <r_epik_Metal_State_Penalty>
0.54073

> <b_epik_Metal_Only>
0

> <s_lp_Force_Field>
OPLS_2005

> <r_lp_Energy>
29.0313

> <b_lp_Chiralities_Consistent>
1

> <s_lp_Variant>
AV-unprocessed.smi:1392-2

> <Gold.Version>
5.8.1

> <Gold.Id.Protein>
6NUR|6NUR_protein|mol2

> <Gold.PLP.Fitness>
43.8682

> <Gold.PLP.PLP>
-38.3180

> <Gold.PLP.part.hbond>
-4.0000

> <Gold.PLP.part.metal>
0.0000

> <Gold.PLP.part.buried>
-0.8577

> <Gold.PLP.part.nonpolar>
-34.1627

> <Gold.PLP.part.repulsive>
0.6295

> <Gold.PLP.ligand.clash>
0.0000

> <Gold.PLP.ligand.torsion>
1.6106

> <Gold.PLP.Chemscore.Hbond>
2.9200

> <Gold.PLP.Chemscore.CHOScore>
0.0000

> <Gold.PLP.Chemscore.Metal>
0.0000

> <Gold.Chemscore.Hbonds>
donor molecule, donor type, donor heavy atom, donor atom, acceptor molecule, acceptor atom, score
      L1  H    11    29       P1  7948  0.99
      L1  H    19    40       P1  8028  1.92

> <Gold.PLP.Chemscore.Internal.Correction>
0.0114

> <Gold.Rescore>
     Score         DG    S(hbond)    S(metal)    S(lipo)     H(rot)  DE(clash)    DE(int)     intcor
     14.35     -17.58       1.76        0.00      79.91       1.23       0.38       2.84       ----

> <Gold.Chemscore.Fitness>
14.3533

> <Gold.Chemscore.DG>
-17.5774

> <Gold.Chemscore.ZeroCoef>
-5.4800

> <Gold.Chemscore.Hbond>
1.7631

> <Gold.Chemscore.Metal>
0.0000

> <Gold.Chemscore.Lipo>
79.9064

> <Gold.Chemscore.Internal_Hbond>
0.0000

> <Gold.Chemscore.DEClash>
0.3838

> <Gold.Chemscore.DEInternal>
2.8403

> <Gold.Chemscore.Rot>
1.2268

> <Gold.Chemscore.Internal.Correction>
   9.000000E+99

> <Gold.Chemscore.Hbonds>
donor molecule, donor type, donor heavy atom, donor atom, acceptor molecule, acceptor atom, score
      L1  H    11    29       P1  7948  0.94
      L1  H    19    40       P1  8028  0.92

> <Gold.Chemscore.Hbond.Weighted>
-5.8889

> <Gold.Chemscore.Metal.Weighted>
-0.0000

> <Gold.Chemscore.Lipo.Weighted>
-9.3490

> <Gold.Chemscore.Internal_Hbond.Weighted>
0.0000

> <Gold.Chemscore.DEClash.Weighted>
0.3838

> <Gold.Chemscore.DEInternal.Weighted>
2.8403

> <Gold.Chemscore.Rot.Weighted>
3.1406

> <Gold.Chemscore.Internal.Correction.Weighted>
   9.000000E+99

> <Gold.Protein.RotatedTorsions>
[ 6907 6896 6895 6894 ] final   96.70 input  -60.11 | X-H torsion
[ 7974 7965 7964 7962 ] final -174.30 input  175.53 | X-H torsion
[ 8008 7997 7996 7995 ] final  142.89 input   59.86 | X-H torsion
[ 10167 10162 10161 10158 ] final   19.35 input  -65.29 | X-H torsion
[ 10718 10713 10712 10709 ] final -102.01 input   66.30 | X-H torsion
[ 10763 10752 10751 10750 ] final  104.75 input  -60.55 | X-H torsion
[ 11005 11000 10999 10996 ] final   67.22 input  -57.11 | X-H torsion

> <Gold.Protein.ActiveResidues>
 VAL166  LYS551  ARG553  GLY616  TRP617  ASP618  TYR619  PRO620  LYS621  CYS622 
 ASP623  PHE694  ASN695  SER759  ASP760  ASP761  ALA762  ILE779  LEU786  VAL792 
 PHE793  MET794  SER795  GLU796  ALA797  LYS798  CYS799  TRP800  GLU811  SER814 

> <Gold.Protein.RotatedAtoms>
  152.5432  134.0847  159.8250 H   0  0  0  0  0  0  0  0  0  0  0  0  # atno 6907 bound_to 6896
  151.0944  133.5284  159.2620 H   0  0  0  0  0  0  0  0  0  0  0  0  # atno 6908 bound_to 6896
  151.2063  135.0472  159.8947 H   0  0  0  0  0  0  0  0  0  0  0  0  # atno 6909 bound_to 6896
  144.7132  140.1493  143.6385 H   0  0  0  0  0  0  0  0  0  0  0  0  # atno 7974 bound_to 7965
  156.2941  140.2277  156.4802 H   0  0  0  0  0  0  0  0  0  0  0  0  # atno 8008 bound_to 7997
  154.7859  140.0457  157.1185 H   0  0  0  0  0  0  0  0  0  0  0  0  # atno 8009 bound_to 7997
  154.9702  140.3065  155.4994 H   0  0  0  0  0  0  0  0  0  0  0  0  # atno 8010 bound_to 7997
  140.5585  143.9380  150.6626 H   0  0  0  0  0  0  0  0  0  0  0  0  # atno 10167 bound_to 10162
  156.0214  130.5400  150.7047 H   0  0  0  0  0  0  0  0  0  0  0  0  # atno 10718 bound_to 10713
  153.3702  135.3932  155.1782 H   0  0  0  0  0  0  0  0  0  0  0  0  # atno 10763 bound_to 10752
  154.8693  135.3700  154.4988 H   0  0  0  0  0  0  0  0  0  0  0  0  # atno 10764 bound_to 10752
  153.5455  135.7084  153.5677 H   0  0  0  0  0  0  0  0  0  0  0  0  # atno 10765 bound_to 10752
  139.9784  134.6784  156.0310 H   0  0  0  0  0  0  0  0  0  0  0  0  # atno 11005 bound_to 11000
  145.9131  139.2499  143.1426 LP  0  0  0  0  0  0  0  0  0  0  0  0  # atno 17320 bound_to 7965
  145.9696  140.8771  143.0169 LP  0  0  0  0  0  0  0  0  0  0  0  0  # atno 17321 bound_to 7965
  140.2825  143.3380  152.1138 LP  0  0  0  0  0  0  0  0  0  0  0  0  # atno 17342 bound_to 10162
  139.5059  144.6804  151.6024 LP  0  0  0  0  0  0  0  0  0  0  0  0  # atno 17343 bound_to 10162
  157.4699  131.0892  151.0654 LP  0  0  0  0  0  0  0  0  0  0  0  0  # atno 17370 bound_to 10713
  157.1117  130.6024  149.5483 LP  0  0  0  0  0  0  0  0  0  0  0  0  # atno 17371 bound_to 10713
  141.1459  133.6556  156.3865 LP  0  0  0  0  0  0  0  0  0  0  0  0  # atno 17394 bound_to 11000
  140.5147  134.6361  157.5297 LP  0  0  0  0  0  0  0  0  0  0  0  0  # atno 17395 bound_to 11000

$$$$
