AV-unprocessed.smi:1255|AV-procd|sdf|5281|dock3
  -GOLD-   22720 4403D 1   1.00000     0.00000
 Structure written by MMmdl.
 40 41  0  0  0  0  0  0  0  0  1 V2000
  155.0864  144.0754  167.8947 C   0  0  0  0  0  0  0  0  0  0  0  0
  155.7962  143.2446  166.8124 C   0  0  2  0  0  0  0  0  0  0  0  0
  157.2187  143.5827  166.8427 N   0  0  0  0  0  0  0  0  0  0  0  0
  158.1106  143.2419  165.9009 C   0  0  0  0  0  0  0  0  0  0  0  0
  159.3315  143.7075  166.1662 N   0  0  0  0  0  0  0  0  0  0  0  0
  157.8484  142.5783  164.8996 O   0  0  0  0  0  0  0  0  0  0  0  0
  155.1814  143.6104  165.4509 C   0  0  0  0  0  0  0  0  0  0  0  0
  155.2073  144.7773  165.0575 O   0  0  0  0  0  0  0  0  0  0  0  0
  154.6409  142.5858  164.7660 N   0  0  0  0  0  0  0  0  0  0  0  0
  154.0022  142.6052  163.4967 C   0  0  0  0  0  0  0  0  0  0  0  0
  154.0340  141.5370  162.5707 C   0  0  0  0  0  0  0  0  0  0  0  0
  153.3766  141.6857  161.3346 C   0  0  0  0  0  0  0  0  0  0  0  0
  152.7103  142.8999  161.0450 C   0  0  0  0  0  0  0  0  0  0  0  0
  152.0441  143.0685  159.8116 N   0  0  0  0  0  0  0  0  0  0  0  0
  151.6908  141.8393  159.1053 C   0  0  0  0  0  0  0  0  0  0  0  0
  150.7075  142.1429  157.9616 C   0  0  0  0  0  0  0  0  0  0  0  0
  151.2557  143.1381  157.1032 O   0  0  0  0  0  0  0  0  0  0  0  0
  151.4861  144.3626  157.7917 C   0  0  0  0  0  0  0  0  0  0  0  0
  152.5017  144.1362  158.9238 C   0  0  0  0  0  0  0  0  0  0  0  0
  152.6891  143.9246  161.9324 N   0  0  0  0  0  0  0  0  0  0  0  0
  153.3216  143.7786  163.1154 C   0  0  0  0  0  0  0  0  0  0  0  0
  154.0173  143.8603  167.9216 H   0  0  0  0  0  0  0  0  0  0  0  0
  155.2063  145.1473  167.7298 H   0  0  0  0  0  0  0  0  0  0  0  0
  155.4864  143.8485  168.8836 H   0  0  0  0  0  0  0  0  0  0  0  0
  155.6608  142.1809  167.0194 H   0  0  0  0  0  0  0  0  0  0  0  0
  157.5368  144.1366  167.6244 H   0  0  0  0  0  0  0  0  0  0  0  0
  160.0973  143.5155  165.5372 H   0  0  0  0  0  0  0  0  0  0  0  0
  159.4854  144.2489  167.0046 H   0  0  0  0  0  0  0  0  0  0  0  0
  154.7625  141.6707  165.1752 H   0  0  0  0  0  0  0  0  0  0  0  0
  154.5550  140.6149  162.7752 H   0  0  0  0  0  0  0  0  0  0  0  0
  153.3827  140.8657  160.6323 H   0  0  0  0  0  0  0  0  0  0  0  0
  152.6010  141.3909  158.7047 H   0  0  0  0  0  0  0  0  0  0  0  0
  151.2426  141.1036  159.7715 H   0  0  0  0  0  0  0  0  0  0  0  0
  150.5178  141.2399  157.3812 H   0  0  0  0  0  0  0  0  0  0  0  0
  149.7456  142.4760  158.3548 H   0  0  0  0  0  0  0  0  0  0  0  0
  151.8687  145.1009  157.0868 H   0  0  0  0  0  0  0  0  0  0  0  0
  150.5465  144.7544  158.1847 H   0  0  0  0  0  0  0  0  0  0  0  0
  152.6309  145.0638  159.4831 H   0  0  0  0  0  0  0  0  0  0  0  0
  153.4731  143.8676  158.5060 H   0  0  0  0  0  0  0  0  0  0  0  0
  153.2773  144.6282  163.7814 H   0  0  0  0  0  0  0  0  0  0  0  0
  1  2  1  0  0  0  0
  1 22  1  0  0  0  0
  1 23  1  0  0  0  0
  1 24  1  0  0  0  0
  2  3  1  0  0  0  0
  2  7  1  0  0  0  0
  2 25  1  0  0  0  0
  3  4  1  0  0  0  0
  3 26  1  0  0  0  0
  4  5  1  0  0  0  0
  4  6  2  0  0  0  0
  5 27  1  0  0  0  0
  5 28  1  0  0  0  0
  7  8  2  0  0  0  0
  7  9  1  0  0  0  0
  9 10  1  0  0  0  0
  9 29  1  0  0  0  0
 10 21  1  0  0  0  0
 10 11  2  0  0  0  0
 11 12  1  0  0  0  0
 11 30  1  0  0  0  0
 12 13  2  0  0  0  0
 12 31  1  0  0  0  0
 13 14  1  0  0  0  0
 13 20  1  0  0  0  0
 14 19  1  0  0  0  0
 14 15  1  0  0  0  0
 15 16  1  0  0  0  0
 15 32  1  0  0  0  0
 15 33  1  0  0  0  0
 16 17  1  0  0  0  0
 16 34  1  0  0  0  0
 16 35  1  0  0  0  0
 17 18  1  0  0  0  0
 18 19  1  0  0  0  0
 18 36  1  0  0  0  0
 18 37  1  0  0  0  0
 19 38  1  0  0  0  0
 19 39  1  0  0  0  0
 20 21  2  0  0  0  0
 21 40  1  0  0  0  0
M  END
> <s_m_source_file>
AV-unprocessed.smi

> <i_m_source_file_index>
1255

> <i_lp_mmshare_version>
43012

> <i_f3d_flags>
0

> <s_epik_input>
W05IMl1DKD1PKVtOSF1bQ0BASF0oW0NIM10pQyg9TylbTkhdYzFbY0hdW2NIXWMobltjSF0xKU4yW0NIMl1bQ0gyXU9bQ0gyXVtDSDJdMg==

> <s_epik_cmdline>
J2VwaWtfcHl0aG9uJywgJy1waCcsICc3LjAnLCAnLXRuJywgJzgnLCAnLW1hJywgJzIwMCcsICctbWV0YWxfYmluZGluZycsICctaW1hZScsICc8aW5maWxlLm1hZT4nLCAnLW9tYWUnLCAnPG91dGZpbGUubWFlPic=

> <r_lp_tautomer_probability>
1

> <r_epik_Ionization_Penalty>
0.00069351

> <r_epik_Ionization_Penalty_Charging>
0

> <r_epik_Ionization_Penalty_Neutral>
0.00069351

> <r_epik_State_Penalty>
0.000408291

> <r_epik_Charging_Adjusted_Penalty>
0.000408291

> <i_epik_Tot_Q>
0

> <i_epik_Tot_abs_Q>
0

> <r_epik_Metal_State_Penalty>
-0

> <b_epik_Metal_Only>
0

> <s_lp_Force_Field>
OPLS_2005

> <r_lp_Energy>
17.9712

> <b_lp_Chiralities_Consistent>
1

> <s_lp_Variant>
AV-unprocessed.smi:1255-1

> <Gold.Version>
5.8.1

> <Gold.Id.Protein>
6NUR|6NUR_protein|mol2

> <Gold.PLP.Fitness>
42.0072

> <Gold.PLP.PLP>
-42.8576

> <Gold.PLP.part.hbond>
-3.6168

> <Gold.PLP.part.metal>
0.0000

> <Gold.PLP.part.buried>
-2.4454

> <Gold.PLP.part.nonpolar>
-36.0598

> <Gold.PLP.part.repulsive>
0.4742

> <Gold.PLP.ligand.clash>
0.0000

> <Gold.PLP.ligand.torsion>
0.6100

> <Gold.PLP.Chemscore.Hbond>
0.0000

> <Gold.PLP.Chemscore.CHOScore>
0.0000

> <Gold.PLP.Chemscore.Metal>
0.0000

> <Gold.PLP.Chemscore.Internal.Correction>
0.3696

> <Gold.Rescore>
     Score         DG    S(hbond)    S(metal)    S(lipo)     H(rot)  DE(clash)    DE(int)     intcor
      9.19     -12.36       0.00        0.00     100.50       1.91       0.16       3.00       ----

> <Gold.Chemscore.Fitness>
9.1940

> <Gold.Chemscore.DG>
-12.3577

> <Gold.Chemscore.ZeroCoef>
-5.4800

> <Gold.Chemscore.Hbond>
0.0000

> <Gold.Chemscore.Metal>
0.0000

> <Gold.Chemscore.Lipo>
100.5027

> <Gold.Chemscore.Internal_Hbond>
0.0000

> <Gold.Chemscore.DEClash>
0.1620

> <Gold.Chemscore.DEInternal>
3.0018

> <Gold.Chemscore.Rot>
1.9067

> <Gold.Chemscore.Internal.Correction>
   9.000000E+99

> <Gold.Chemscore.Hbond.Weighted>
-0.0000

> <Gold.Chemscore.Metal.Weighted>
-0.0000

> <Gold.Chemscore.Lipo.Weighted>
-11.7588

> <Gold.Chemscore.Internal_Hbond.Weighted>
0.0000

> <Gold.Chemscore.DEClash.Weighted>
0.1620

> <Gold.Chemscore.DEInternal.Weighted>
3.0018

> <Gold.Chemscore.Rot.Weighted>
4.8811

> <Gold.Chemscore.Internal.Correction.Weighted>
   9.000000E+99

> <Gold.Protein.RotatedTorsions>
[ 6907 6896 6895 6894 ] final -152.51 input  -60.11 | X-H torsion
[ 7974 7965 7964 7962 ] final   66.35 input  175.53 | X-H torsion
[ 8008 7997 7996 7995 ] final   13.28 input   59.86 | X-H torsion
[ 10167 10162 10161 10158 ] final   81.55 input  -65.29 | X-H torsion
[ 10718 10713 10712 10709 ] final -144.68 input   66.30 | X-H torsion
[ 10763 10752 10751 10750 ] final  -40.51 input  -60.55 | X-H torsion
[ 11005 11000 10999 10996 ] final   11.46 input  -57.11 | X-H torsion

> <Gold.Protein.ActiveResidues>
 VAL166  LYS551  ARG553  GLY616  TRP617  ASP618  TYR619  PRO620  LYS621  CYS622 
 ASP623  PHE694  ASN695  SER759  ASP760  ASP761  ALA762  ILE779  LEU786  VAL792 
 PHE793  MET794  SER795  GLU796  ALA797  LYS798  CYS799  TRP800  GLU811  SER814 

> <Gold.Protein.RotatedAtoms>
  151.2288  133.4462  159.2602 H   0  0  0  0  0  0  0  0  0  0  0  0  # atno 6907 bound_to 6896
  151.0814  134.9861  159.8368 H   0  0  0  0  0  0  0  0  0  0  0  0  # atno 6908 bound_to 6896
  152.5424  134.2227  159.8847 H   0  0  0  0  0  0  0  0  0  0  0  0  # atno 6909 bound_to 6896
  145.8277  139.3121  143.1006 H   0  0  0  0  0  0  0  0  0  0  0  0  # atno 7974 bound_to 7965
  154.8323  140.2901  155.5714 H   0  0  0  0  0  0  0  0  0  0  0  0  # atno 8008 bound_to 7997
  156.3006  140.2530  156.3181 H   0  0  0  0  0  0  0  0  0  0  0  0  # atno 8009 bound_to 7997
  154.9218  140.0385  157.1991 H   0  0  0  0  0  0  0  0  0  0  0  0  # atno 8010 bound_to 7997
  139.9380  144.6108  150.8279 H   0  0  0  0  0  0  0  0  0  0  0  0  # atno 10167 bound_to 10162
  156.3731  130.7798  151.1981 H   0  0  0  0  0  0  0  0  0  0  0  0  # atno 10718 bound_to 10713
  153.9472  135.6754  153.4744 H   0  0  0  0  0  0  0  0  0  0  0  0  # atno 10763 bound_to 10752
  153.0902  135.4878  154.8672 H   0  0  0  0  0  0  0  0  0  0  0  0  # atno 10764 bound_to 10752
  154.7345  135.3146  154.8793 H   0  0  0  0  0  0  0  0  0  0  0  0  # atno 10765 bound_to 10752
  140.5030  134.0727  155.7798 H   0  0  0  0  0  0  0  0  0  0  0  0  # atno 11005 bound_to 11000
  145.9605  140.8839  143.0213 LP  0  0  0  0  0  0  0  0  0  0  0  0  # atno 17320 bound_to 7965
  144.6742  140.1806  143.7406 LP  0  0  0  0  0  0  0  0  0  0  0  0  # atno 17321 bound_to 7965
  140.7619  143.3185  151.2677 LP  0  0  0  0  0  0  0  0  0  0  0  0  # atno 17342 bound_to 10162
  139.6727  143.9991  152.2763 LP  0  0  0  0  0  0  0  0  0  0  0  0  # atno 17343 bound_to 10162
  157.7486  131.0366  150.4419 LP  0  0  0  0  0  0  0  0  0  0  0  0  # atno 17370 bound_to 10713
  156.4649  130.4040  149.6553 LP  0  0  0  0  0  0  0  0  0  0  0  0  # atno 17371 bound_to 10713
  141.1426  133.9112  157.2291 LP  0  0  0  0  0  0  0  0  0  0  0  0  # atno 17394 bound_to 11000
  139.9702  135.0130  156.9493 LP  0  0  0  0  0  0  0  0  0  0  0  0  # atno 17395 bound_to 11000

$$$$
