AV-unprocessed.smi:1389|AV-procd|sdf|5648|dock8
  -GOLD-   22720 5263D 1   1.00000     0.00000
 Structure written by MMmdl.
 52 54  0  0  0  0  0  0  0  0  2 V2000
  151.0056  136.8882  157.8873 C   0  0  0  0  0  0  0  0  0  0  0  0
  150.2028  137.2891  156.6256 C   0  0  2  0  0  0  0  0  0  0  0  0
  150.8509  136.6661  155.3615 C   0  0  0  0  0  0  0  0  0  0  0  0
  149.9007  135.9189  154.5434 N   0  0  0  0  0  0  0  0  0  0  0  0
  149.5916  134.6266  154.7175 C   0  0  0  0  0  0  0  0  0  0  0  0
  150.0819  133.9266  155.6033 O   0  0  0  0  0  0  0  0  0  0  0  0
  148.6839  134.2207  153.8143 N   0  0  0  0  0  0  0  0  0  0  0  0
  148.0305  132.9592  153.7193 C   0  0  0  0  0  0  0  0  0  0  0  0
  148.5543  131.7970  154.3374 C   0  0  0  0  0  0  0  0  0  0  0  0
  147.9021  130.5652  154.1561 C   0  0  0  0  0  0  0  0  0  0  0  0
  146.7543  130.5334  153.3476 C   0  0  0  0  0  0  0  0  0  0  0  0
  146.2513  131.6264  152.7403 N   0  0  0  0  0  0  0  0  0  0  0  0
  146.8606  132.8246  152.9170 C   0  0  0  0  0  0  0  0  0  0  0  0
  146.2802  133.9382  152.2674 N   0  0  0  0  0  0  0  0  0  0  0  0
  145.2834  133.7470  151.2195 C   0  0  0  0  0  0  0  0  0  0  0  0
  144.6330  135.1155  151.0414 C   0  0  0  0  0  0  0  0  0  0  0  0
  144.6211  135.6584  152.4672 C   0  0  0  0  0  0  0  0  0  0  0  0
  145.9024  135.0876  153.0850 C   0  0  0  0  0  0  0  0  0  0  0  0
  150.0579  138.7716  156.4524 N   0  3  0  0  0  0  0  0  0  0  0  0
  151.3643  139.4486  156.2281 C   0  0  0  0  0  0  0  0  0  0  0  0
  151.1913  140.9745  156.1581 C   0  0  0  0  0  0  0  0  0  0  0  0
  150.2832  141.2995  155.1160 O   0  0  0  0  0  0  0  0  0  0  0  0
  148.9971  140.7467  155.3544 C   0  0  0  0  0  0  0  0  0  0  0  0
  149.0873  139.2116  155.4123 C   0  0  0  0  0  0  0  0  0  0  0  0
  151.1113  135.8068  157.9721 H   0  0  0  0  0  0  0  0  0  0  0  0
  150.5117  137.2066  158.8055 H   0  0  0  0  0  0  0  0  0  0  0  0
  152.0099  137.3131  157.8729 H   0  0  0  0  0  0  0  0  0  0  0  0
  149.2007  136.8743  156.7489 H   0  0  0  0  0  0  0  0  0  0  0  0
  151.3239  137.4182  154.7310 H   0  0  0  0  0  0  0  0  0  0  0  0
  151.6465  135.9811  155.6567 H   0  0  0  0  0  0  0  0  0  0  0  0
  149.4478  136.4208  153.7934 H   0  0  0  0  0  0  0  0  0  0  0  0
  148.3270  134.9335  153.1947 H   0  0  0  0  0  0  0  0  0  0  0  0
  149.4570  131.8225  154.9277 H   0  0  0  0  0  0  0  0  0  0  0  0
  148.2809  129.6644  154.6159 H   0  0  0  0  0  0  0  0  0  0  0  0
  146.2286  129.6053  153.1782 H   0  0  0  0  0  0  0  0  0  0  0  0
  145.7404  133.3911  150.2957 H   0  0  0  0  0  0  0  0  0  0  0  0
  144.5278  133.0244  151.5301 H   0  0  0  0  0  0  0  0  0  0  0  0
  145.2570  135.7468  150.4071 H   0  0  0  0  0  0  0  0  0  0  0  0
  143.6396  135.0591  150.5952 H   0  0  0  0  0  0  0  0  0  0  0  0
  144.5799  136.7470  152.5083 H   0  0  0  0  0  0  0  0  0  0  0  0
  143.7518  135.2688  152.9991 H   0  0  0  0  0  0  0  0  0  0  0  0
  145.7536  134.8169  154.1315 H   0  0  0  0  0  0  0  0  0  0  0  0
  146.6989  135.8304  153.0369 H   0  0  0  0  0  0  0  0  0  0  0  0
  152.0716  139.2160  157.0219 H   0  0  0  0  0  0  0  0  0  0  0  0
  151.8067  139.0867  155.2984 H   0  0  0  0  0  0  0  0  0  0  0  0
  150.8365  141.3730  157.1102 H   0  0  0  0  0  0  0  0  0  0  0  0
  152.1493  141.4516  155.9511 H   0  0  0  0  0  0  0  0  0  0  0  0
  148.5825  141.1477  156.2809 H   0  0  0  0  0  0  0  0  0  0  0  0
  148.3279  141.0525  154.5499 H   0  0  0  0  0  0  0  0  0  0  0  0
  149.3858  138.8162  154.4400 H   0  0  0  0  0  0  0  0  0  0  0  0
  148.0880  138.8348  155.6284 H   0  0  0  0  0  0  0  0  0  0  0  0
  149.6935  139.1210  157.3272 H   0  0  0  0  0  0  0  0  0  0  0  0
  1  2  1  0  0  0  0
  1 25  1  0  0  0  0
  1 26  1  0  0  0  0
  1 27  1  0  0  0  0
  2  3  1  0  0  0  0
  2 19  1  0  0  0  0
  2 28  1  0  0  0  0
  3  4  1  0  0  0  0
  3 29  1  0  0  0  0
  3 30  1  0  0  0  0
  4  5  1  0  0  0  0
  4 31  1  0  0  0  0
  5  6  2  0  0  0  0
  5  7  1  0  0  0  0
  7  8  1  0  0  0  0
  7 32  1  0  0  0  0
  8 13  1  0  0  0  0
  8  9  2  0  0  0  0
  9 10  1  0  0  0  0
  9 33  1  0  0  0  0
 10 11  2  0  0  0  0
 10 34  1  0  0  0  0
 11 12  1  0  0  0  0
 11 35  1  0  0  0  0
 12 13  2  0  0  0  0
 13 14  1  0  0  0  0
 14 18  1  0  0  0  0
 14 15  1  0  0  0  0
 15 16  1  0  0  0  0
 15 36  1  0  0  0  0
 15 37  1  0  0  0  0
 16 17  1  0  0  0  0
 16 38  1  0  0  0  0
 16 39  1  0  0  0  0
 17 18  1  0  0  0  0
 17 40  1  0  0  0  0
 17 41  1  0  0  0  0
 18 42  1  0  0  0  0
 18 43  1  0  0  0  0
 19 24  1  0  0  0  0
 19 20  1  0  0  0  0
 19 52  1  0  0  0  0
 20 21  1  0  0  0  0
 20 44  1  0  0  0  0
 20 45  1  0  0  0  0
 21 22  1  0  0  0  0
 21 46  1  0  0  0  0
 21 47  1  0  0  0  0
 22 23  1  0  0  0  0
 23 24  1  0  0  0  0
 23 48  1  0  0  0  0
 23 49  1  0  0  0  0
 24 50  1  0  0  0  0
 24 51  1  0  0  0  0
M  CHG  1  19   1
M  END
> <s_m_source_file>
AV-unprocessed.smi

> <i_m_source_file_index>
1389

> <i_lp_mmshare_version>
43012

> <i_f3d_flags>
0

> <s_epik_input>
W0NIMl0xW0NIMl1PW0NIMl1bQ0gyXU4xW0NASF0oW0NIM10pW0NIMl1bTkhdQyg9TylbTkhdYzJbY0hdW2NIXVtjSF1uYzJOM1tDSDJdW0NIMl1bQ0gyXVtDSDJdMw==

> <s_epik_cmdline>
J2VwaWtfcHl0aG9uJywgJy1waCcsICc3LjAnLCAnLXRuJywgJzgnLCAnLW1hJywgJzIwMCcsICctbWV0YWxfYmluZGluZycsICctaW1hZScsICc8aW5maWxlLm1hZT4nLCAnLW9tYWUnLCAnPG91dGZpbGUubWFlPic=

> <r_lp_tautomer_probability>
1

> <r_epik_Ionization_Penalty>
0.686

> <r_epik_Ionization_Penalty_Charging>
0.602531

> <r_epik_Ionization_Penalty_Neutral>
0.08347

> <r_epik_State_Penalty>
0.679975

> <r_epik_Charging_Adjusted_Penalty>
1.28251

> <i_epik_Tot_Q>
1

> <i_epik_Tot_abs_Q>
1

> <r_epik_Metal_State_Penalty>
0.679055

> <b_epik_Metal_Only>
0

> <s_lp_Force_Field>
OPLS_2005

> <r_lp_Energy>
48.7477

> <b_lp_Chiralities_Consistent>
1

> <s_lp_Variant>
AV-unprocessed.smi:1389-3

> <Gold.Version>
5.8.1

> <Gold.Id.Protein>
6NUR|6NUR_protein|mol2

> <Gold.PLP.Fitness>
42.1883

> <Gold.PLP.PLP>
-36.2523

> <Gold.PLP.part.hbond>
-4.8095

> <Gold.PLP.part.metal>
0.0000

> <Gold.PLP.part.buried>
-1.3719

> <Gold.PLP.part.nonpolar>
-29.3915

> <Gold.PLP.part.repulsive>
0.6109

> <Gold.PLP.ligand.clash>
0.0000

> <Gold.PLP.ligand.torsion>
1.1763

> <Gold.PLP.Chemscore.Hbond>
2.6385

> <Gold.PLP.Chemscore.CHOScore>
0.0000

> <Gold.PLP.Chemscore.Metal>
0.0000

> <Gold.Chemscore.Hbonds>
donor molecule, donor type, donor heavy atom, donor atom, acceptor molecule, acceptor atom, score
      L1  H     4    31       P1  7948  0.80
      L1  H     7    32       P1  7948  0.78
      P1  H  7989  7998       L1    22  0.36

> <Gold.PLP.Chemscore.Internal.Correction>
0.3730

> <Gold.Rescore>
     Score         DG    S(hbond)    S(metal)    S(lipo)     H(rot)  DE(clash)    DE(int)     intcor
     10.17     -13.64       1.36        0.00      66.66       1.63       0.01       3.46       ----

> <Gold.Chemscore.Fitness>
10.1742

> <Gold.Chemscore.DG>
-13.6444

> <Gold.Chemscore.ZeroCoef>
-5.4800

> <Gold.Chemscore.Hbond>
1.3594

> <Gold.Chemscore.Metal>
0.0000

> <Gold.Chemscore.Lipo>
66.6560

> <Gold.Chemscore.Internal_Hbond>
0.0000

> <Gold.Chemscore.DEClash>
0.0126

> <Gold.Chemscore.DEInternal>
3.4576

> <Gold.Chemscore.Rot>
1.6307

> <Gold.Chemscore.Internal.Correction>
   9.000000E+99

> <Gold.Chemscore.Hbonds>
donor molecule, donor type, donor heavy atom, donor atom, acceptor molecule, acceptor atom, score
      L1  H     4    31       P1  7948  0.64
      L1  H     7    32       P1  7948  0.66
      P1  H  7989  7998       L1    22  0.06

> <Gold.Chemscore.Hbond.Weighted>
-4.5402

> <Gold.Chemscore.Metal.Weighted>
-0.0000

> <Gold.Chemscore.Lipo.Weighted>
-7.7988

> <Gold.Chemscore.Internal_Hbond.Weighted>
0.0000

> <Gold.Chemscore.DEClash.Weighted>
0.0126

> <Gold.Chemscore.DEInternal.Weighted>
3.4576

> <Gold.Chemscore.Rot.Weighted>
4.1746

> <Gold.Chemscore.Internal.Correction.Weighted>
   9.000000E+99

> <Gold.Protein.RotatedTorsions>
[ 6907 6896 6895 6894 ] final   34.27 input  -60.11 | X-H torsion
[ 7974 7965 7964 7962 ] final   35.27 input  175.53 | X-H torsion
[ 8008 7997 7996 7995 ] final -136.55 input   59.86 | X-H torsion
[ 10167 10162 10161 10158 ] final -114.51 input  -65.29 | X-H torsion
[ 10718 10713 10712 10709 ] final  154.23 input   66.30 | X-H torsion
[ 10763 10752 10751 10750 ] final   79.69 input  -60.55 | X-H torsion
[ 11005 11000 10999 10996 ] final  139.51 input  -57.11 | X-H torsion

> <Gold.Protein.ActiveResidues>
 VAL166  LYS551  ARG553  GLY616  TRP617  ASP618  TYR619  PRO620  LYS621  CYS622 
 ASP623  PHE694  ASN695  SER759  ASP760  ASP761  ALA762  ILE779  LEU786  VAL792 
 PHE793  MET794  SER795  GLU796  ALA797  LYS798  CYS799  TRP800  GLU811  SER814 

> <Gold.Protein.RotatedAtoms>
  152.1000  134.9348  160.0569 H   0  0  0  0  0  0  0  0  0  0  0  0  # atno 6907 bound_to 6896
  152.0566  133.4038  159.4408 H   0  0  0  0  0  0  0  0  0  0  0  0  # atno 6908 bound_to 6896
  150.6839  134.3168  159.4813 H   0  0  0  0  0  0  0  0  0  0  0  0  # atno 6909 bound_to 6896
  146.1295  139.6163  142.9236 H   0  0  0  0  0  0  0  0  0  0  0  0  # atno 7974 bound_to 7965
  155.3972  140.0503  157.3038 H   0  0  0  0  0  0  0  0  0  0  0  0  # atno 8008 bound_to 7997
  154.5008  140.2156  155.9312 H   0  0  0  0  0  0  0  0  0  0  0  0  # atno 8009 bound_to 7997
  156.1465  140.3144  155.8583 H   0  0  0  0  0  0  0  0  0  0  0  0  # atno 8010 bound_to 7997
  140.1002  143.4620  152.1816 H   0  0  0  0  0  0  0  0  0  0  0  0  # atno 10167 bound_to 10162
  157.2344  131.0746  151.1833 H   0  0  0  0  0  0  0  0  0  0  0  0  # atno 10718 bound_to 10713
  153.0973  135.4830  154.8802 H   0  0  0  0  0  0  0  0  0  0  0  0  # atno 10763 bound_to 10752
  154.7339  135.3066  154.8848 H   0  0  0  0  0  0  0  0  0  0  0  0  # atno 10764 bound_to 10752
  153.9475  135.6827  153.4797 H   0  0  0  0  0  0  0  0  0  0  0  0  # atno 10765 bound_to 10752
  140.0260  134.9374  157.0568 H   0  0  0  0  0  0  0  0  0  0  0  0  # atno 11005 bound_to 11000
  145.5293  141.0428  143.2392 LP  0  0  0  0  0  0  0  0  0  0  0  0  # atno 17320 bound_to 7965
  144.7676  139.6810  143.7208 LP  0  0  0  0  0  0  0  0  0  0  0  0  # atno 17321 bound_to 7965
  139.5675  144.7444  151.3981 LP  0  0  0  0  0  0  0  0  0  0  0  0  # atno 17342 bound_to 10162
  140.6982  143.7698  150.7360 LP  0  0  0  0  0  0  0  0  0  0  0  0  # atno 17343 bound_to 10162
  157.3445  130.7050  149.6402 LP  0  0  0  0  0  0  0  0  0  0  0  0  # atno 17370 bound_to 10713
  155.9673  130.4270  150.4726 LP  0  0  0  0  0  0  0  0  0  0  0  0  # atno 17371 bound_to 10713
  140.4306  134.1784  155.7168 LP  0  0  0  0  0  0  0  0  0  0  0  0  # atno 17394 bound_to 11000
  141.1803  133.8428  157.1282 LP  0  0  0  0  0  0  0  0  0  0  0  0  # atno 17395 bound_to 11000

$$$$
