AV-unprocessed.smi:745|AV-procd|sdf|3574|dock3
  -GOLD-   22720 0563D 1   1.00000     0.00000
 Structure written by MMmdl.
 42 43  0  0  0  0  0  0  0  0  2 V2000
  148.8898  139.5204  154.9939 C   0  0  0  0  0  0  0  0  0  0  0  0
  149.0281  140.8611  154.2522 C   0  0  2  0  0  0  0  0  0  0  0  0
  149.4190  141.8738  155.2340 N   0  0  0  0  0  0  0  0  0  0  0  0
  150.3197  141.7128  156.2161 C   0  0  0  0  0  0  0  0  0  0  0  0
  150.9652  140.6776  156.3847 O   0  0  0  0  0  0  0  0  0  0  0  0
  150.4181  142.8207  156.9716 N   0  0  0  0  0  0  0  0  0  0  0  0
  151.2500  143.0409  158.1019 C   0  0  0  0  0  0  0  0  0  0  0  0
  151.2758  144.3719  158.5764 C   0  0  0  0  0  0  0  0  0  0  0  0
  152.0697  144.6936  159.6945 C   0  0  0  0  0  0  0  0  0  0  0  0
  152.8191  143.6748  160.3095 C   0  0  0  0  0  0  0  0  0  0  0  0
  152.7385  142.3765  159.7730 C   0  0  0  0  0  0  0  0  0  0  0  0
  151.9786  142.0660  158.7015 N   0  0  0  0  0  0  0  0  0  0  0  0
  147.7301  141.2852  153.5030 C   0  0  2  0  0  0  0  0  0  0  0  0
  146.5185  141.5117  154.4351 C   0  0  0  0  0  0  0  0  0  0  0  0
  145.9648  140.1908  155.0024 C   0  0  0  0  0  0  0  0  0  0  0  0
  145.5998  139.2515  153.9126 N   0  3  2  0  0  0  0  0  0  0  0  0
  144.9878  138.0059  154.4234 C   0  0  0  0  0  0  0  0  0  0  0  0
  146.7331  138.9857  152.9929 C   0  0  0  0  0  0  0  0  0  0  0  0
  147.2832  140.2959  152.4018 C   0  0  0  0  0  0  0  0  0  0  0  0
  148.7432  138.6877  154.3072 H   0  0  0  0  0  0  0  0  0  0  0  0
  148.0507  139.5342  155.6906 H   0  0  0  0  0  0  0  0  0  0  0  0
  149.7909  139.2982  155.5670 H   0  0  0  0  0  0  0  0  0  0  0  0
  149.8319  140.7369  153.5265 H   0  0  0  0  0  0  0  0  0  0  0  0
  148.9449  142.7632  155.1733 H   0  0  0  0  0  0  0  0  0  0  0  0
  149.8212  143.5935  156.7163 H   0  0  0  0  0  0  0  0  0  0  0  0
  150.6931  145.1424  158.0928 H   0  0  0  0  0  0  0  0  0  0  0  0
  152.1020  145.7046  160.0732 H   0  0  0  0  0  0  0  0  0  0  0  0
  153.4392  143.8824  161.1690 H   0  0  0  0  0  0  0  0  0  0  0  0
  153.2988  141.5659  160.2150 H   0  0  0  0  0  0  0  0  0  0  0  0
  147.9463  142.2354  153.0121 H   0  0  0  0  0  0  0  0  0  0  0  0
  146.7617  142.1970  155.2458 H   0  0  0  0  0  0  0  0  0  0  0  0
  145.7270  142.0062  153.8703 H   0  0  0  0  0  0  0  0  0  0  0  0
  146.6915  139.7223  155.6670 H   0  0  0  0  0  0  0  0  0  0  0  0
  145.0813  140.4006  155.6067 H   0  0  0  0  0  0  0  0  0  0  0  0
  145.6992  137.4386  155.0251 H   0  0  0  0  0  0  0  0  0  0  0  0
  144.6570  137.3741  153.5985 H   0  0  0  0  0  0  0  0  0  0  0  0
  144.1172  138.2287  155.0409 H   0  0  0  0  0  0  0  0  0  0  0  0
  147.5169  138.4434  153.5227 H   0  0  0  0  0  0  0  0  0  0  0  0
  146.3973  138.3370  152.1830 H   0  0  0  0  0  0  0  0  0  0  0  0
  146.5020  140.7637  151.8010 H   0  0  0  0  0  0  0  0  0  0  0  0
  148.0919  140.0827  151.7033 H   0  0  0  0  0  0  0  0  0  0  0  0
  144.8896  139.7144  153.3634 H   0  0  0  0  0  0  0  0  0  0  0  0
  1  2  1  0  0  0  0
  1 20  1  0  0  0  0
  1 21  1  0  0  0  0
  1 22  1  0  0  0  0
  2  3  1  0  0  0  0
  2 13  1  0  0  0  0
  2 23  1  0  0  0  0
  3  4  1  0  0  0  0
  3 24  1  0  0  0  0
  4  5  2  0  0  0  0
  4  6  1  0  0  0  0
  6  7  1  0  0  0  0
  6 25  1  0  0  0  0
  7 12  1  0  0  0  0
  7  8  2  0  0  0  0
  8  9  1  0  0  0  0
  8 26  1  0  0  0  0
  9 10  2  0  0  0  0
  9 27  1  0  0  0  0
 10 11  1  0  0  0  0
 10 28  1  0  0  0  0
 11 12  2  0  0  0  0
 11 29  1  0  0  0  0
 13 19  1  0  0  0  0
 13 14  1  0  0  0  0
 13 30  1  0  0  0  0
 14 15  1  0  0  0  0
 14 31  1  0  0  0  0
 14 32  1  0  0  0  0
 15 16  1  0  0  0  0
 15 33  1  0  0  0  0
 15 34  1  0  0  0  0
 16 17  1  0  0  0  0
 16 18  1  0  0  0  0
 16 42  1  0  0  0  0
 17 35  1  0  0  0  0
 17 36  1  0  0  0  0
 17 37  1  0  0  0  0
 18 19  1  0  0  0  0
 18 38  1  0  0  0  0
 18 39  1  0  0  0  0
 19 40  1  0  0  0  0
 19 41  1  0  0  0  0
M  CHG  1  16   1
M  END
> <s_m_source_file>
AV-unprocessed.smi

> <i_m_source_file_index>
745

> <i_lp_mmshare_version>
43012

> <i_f3d_flags>
0

> <s_epik_input>
W0NIMl0xW0NIMl1OKFtDSDNdKVtDSDJdW0NIMl1bQ0hdMVtDQEhdKFtDSDNdKVtOSF1DKD1PKVtOSF1jMltjSF1bY0hdW2NIXVtjSF1uMg==

> <s_epik_cmdline>
J2VwaWtfcHl0aG9uJywgJy1waCcsICc3LjAnLCAnLXRuJywgJzgnLCAnLW1hJywgJzIwMCcsICctbWV0YWxfYmluZGluZycsICctaW1hZScsICc8aW5maWxlLm1hZT4nLCAnLW9tYWUnLCAnPG91dGZpbGUubWFlPic=

> <r_epik_Ionization_Penalty>
0.0011087

> <r_epik_Ionization_Penalty_Charging>
0.00106265

> <r_epik_Ionization_Penalty_Neutral>
4.60506e-05

> <r_epik_State_Penalty>
0.000695551

> <r_epik_Charging_Adjusted_Penalty>
0.0017582

> <i_epik_Tot_Q>
1

> <i_epik_Tot_abs_Q>
1

> <r_epik_Metal_State_Penalty>
-0

> <b_epik_Metal_Only>
0

> <s_lp_Force_Field>
OPLS_2005

> <r_lp_Energy>
21.1146

> <b_lp_Chiralities_Consistent>
1

> <s_lp_Variant>
AV-unprocessed.smi:745-3

> <Gold.Version>
5.8.1

> <Gold.Id.Protein>
6NUR|6NUR_protein|mol2

> <Gold.PLP.Fitness>
48.1260

> <Gold.PLP.PLP>
-36.9176

> <Gold.PLP.part.hbond>
-3.0000

> <Gold.PLP.part.metal>
0.0000

> <Gold.PLP.part.buried>
-2.6807

> <Gold.PLP.part.nonpolar>
-31.9267

> <Gold.PLP.part.repulsive>
0.2246

> <Gold.PLP.ligand.clash>
0.3268

> <Gold.PLP.ligand.torsion>
0.2297

> <Gold.PLP.Chemscore.Hbond>
3.9920

> <Gold.PLP.Chemscore.CHOScore>
0.0000

> <Gold.PLP.Chemscore.Metal>
0.0000

> <Gold.Chemscore.Hbonds>
donor molecule, donor type, donor heavy atom, donor atom, acceptor molecule, acceptor atom, score
      L1  H     3    24       P1  8028  0.99
      L1  H     6    25       P1  8028  1.00
      L1  H    16    42       P1 10175  2.00

> <Gold.PLP.Chemscore.Internal.Correction>
0.0187

> <Gold.Rescore>
     Score         DG    S(hbond)    S(metal)    S(lipo)     H(rot)  DE(clash)    DE(int)     intcor
     18.29     -22.91       2.90        0.00      93.70       1.26       0.30       4.33       ----

> <Gold.Chemscore.Fitness>
18.2876

> <Gold.Chemscore.DG>
-22.9083

> <Gold.Chemscore.ZeroCoef>
-5.4800

> <Gold.Chemscore.Hbond>
2.9016

> <Gold.Chemscore.Metal>
0.0000

> <Gold.Chemscore.Lipo>
93.6998

> <Gold.Chemscore.Internal_Hbond>
0.0000

> <Gold.Chemscore.DEClash>
0.2952

> <Gold.Chemscore.DEInternal>
4.3255

> <Gold.Chemscore.Rot>
1.2601

> <Gold.Chemscore.Internal.Correction>
   9.000000E+99

> <Gold.Chemscore.Hbonds>
donor molecule, donor type, donor heavy atom, donor atom, acceptor molecule, acceptor atom, score
      L1  H     3    24       P1  8028  0.90
      L1  H     6    25       P1  8028  0.99
      L1  H    16    42       P1 10175  1.00

> <Gold.Chemscore.Hbond.Weighted>
-9.6914

> <Gold.Chemscore.Metal.Weighted>
-0.0000

> <Gold.Chemscore.Lipo.Weighted>
-10.9629

> <Gold.Chemscore.Internal_Hbond.Weighted>
0.0000

> <Gold.Chemscore.DEClash.Weighted>
0.2952

> <Gold.Chemscore.DEInternal.Weighted>
4.3255

> <Gold.Chemscore.Rot.Weighted>
3.2260

> <Gold.Chemscore.Internal.Correction.Weighted>
   9.000000E+99

> <Gold.Protein.RotatedTorsions>
[ 6907 6896 6895 6894 ] final   75.48 input  -60.11 | X-H torsion
[ 7974 7965 7964 7962 ] final  -55.75 input  175.53 | X-H torsion
[ 8008 7997 7996 7995 ] final -130.65 input   59.86 | X-H torsion
[ 10167 10162 10161 10158 ] final   55.14 input  -65.29 | X-H torsion
[ 10718 10713 10712 10709 ] final -179.95 input   66.30 | X-H torsion
[ 10763 10752 10751 10750 ] final   -7.08 input  -60.55 | X-H torsion
[ 11005 11000 10999 10996 ] final   24.86 input  -57.11 | X-H torsion

> <Gold.Protein.ActiveResidues>
 VAL166  LYS551  ARG553  GLY616  TRP617  ASP618  TYR619  PRO620  LYS621  CYS622 
 ASP623  PHE694  ASN695  SER759  ASP760  ASP761  ALA762  ILE779  LEU786  VAL792 
 PHE793  MET794  SER795  GLU796  ALA797  LYS798  CYS799  TRP800  GLU811  SER814 

> <Gold.Protein.RotatedAtoms>
  152.5027  134.4114  159.9449 H   0  0  0  0  0  0  0  0  0  0  0  0  # atno 6907 bound_to 6896
  151.4083  133.3729  159.2748 H   0  0  0  0  0  0  0  0  0  0  0  0  # atno 6908 bound_to 6896
  150.9310  134.8747  159.7611 H   0  0  0  0  0  0  0  0  0  0  0  0  # atno 6909 bound_to 6896
  145.8706  140.8218  142.9890 H   0  0  0  0  0  0  0  0  0  0  0  0  # atno 7974 bound_to 7965
  155.2993  140.0452  157.3028 H   0  0  0  0  0  0  0  0  0  0  0  0  # atno 8008 bound_to 7997
  154.5496  140.2313  155.8474 H   0  0  0  0  0  0  0  0  0  0  0  0  # atno 8009 bound_to 7997
  156.1955  140.3039  155.9424 H   0  0  0  0  0  0  0  0  0  0  0  0  # atno 8010 bound_to 7997
  140.2226  144.3772  150.6444 H   0  0  0  0  0  0  0  0  0  0  0  0  # atno 10167 bound_to 10162
  156.8666  130.9770  151.3078 H   0  0  0  0  0  0  0  0  0  0  0  0  # atno 10718 bound_to 10713
  153.4214  135.7010  153.6291 H   0  0  0  0  0  0  0  0  0  0  0  0  # atno 10763 bound_to 10752
  153.4744  135.3707  155.2409 H   0  0  0  0  0  0  0  0  0  0  0  0  # atno 10764 bound_to 10752
  154.8722  135.4051  154.3583 H   0  0  0  0  0  0  0  0  0  0  0  0  # atno 10765 bound_to 10752
  140.3541  134.2196  155.7677 H   0  0  0  0  0  0  0  0  0  0  0  0  # atno 11005 bound_to 11000
  144.6726  140.1234  143.7448 LP  0  0  0  0  0  0  0  0  0  0  0  0  # atno 17320 bound_to 7965
  145.9141  139.2505  143.1420 LP  0  0  0  0  0  0  0  0  0  0  0  0  # atno 17321 bound_to 7965
  140.6244  143.2179  151.6628 LP  0  0  0  0  0  0  0  0  0  0  0  0  # atno 17342 bound_to 10162
  139.5138  144.3430  152.0723 LP  0  0  0  0  0  0  0  0  0  0  0  0  # atno 17343 bound_to 10162
  157.6219  130.8662  149.9124 LP  0  0  0  0  0  0  0  0  0  0  0  0  # atno 17370 bound_to 10713
  156.0748  130.3680  150.0700 LP  0  0  0  0  0  0  0  0  0  0  0  0  # atno 17371 bound_to 10713
  141.2003  133.7989  157.0493 LP  0  0  0  0  0  0  0  0  0  0  0  0  # atno 17394 bound_to 11000
  140.0679  134.9718  157.1417 LP  0  0  0  0  0  0  0  0  0  0  0  0  # atno 17395 bound_to 11000

$$$$
