AV-unprocessed.smi:2582|AV-procd|sdf|10134|dock3
  -GOLD-   2272014143D 1   1.00000     0.00000
 Structure written by MMmdl.
 36 38  0  0  0  0  0  0  0  0  2 V2000
  151.4607  140.1753  154.9549 O   0  0  0  0  0  0  0  0  0  0  0  0
  150.7568  140.8046  155.7442 C   0  0  0  0  0  0  0  0  0  0  0  0
  151.2899  141.4203  156.9619 C   0  0  0  0  0  0  0  0  0  0  0  0
  150.5307  142.1265  157.8335 C   0  0  0  0  0  0  0  0  0  0  0  0
  151.1140  142.6836  158.9788 N   0  0  0  0  0  0  0  0  0  0  0  0
  152.5487  142.5471  159.2164 C   0  0  0  0  0  0  0  0  0  0  0  0
  152.4829  143.9185  159.8798 C   0  0  0  0  0  0  0  0  0  0  0  0
  151.1979  144.1362  159.0885 C   0  0  0  0  0  0  0  0  0  0  0  0
  149.1192  142.2412  157.4980 C   0  0  0  0  0  0  0  0  0  0  0  0
  148.6091  141.7138  156.4381 N   0  0  0  0  0  0  0  0  0  0  0  0
  149.4132  140.9962  155.5658 N   0  0  0  0  0  0  0  0  0  0  0  0
  148.7027  140.4402  154.3968 C   0  0  1  0  0  0  0  0  0  0  0  0
  148.7817  138.8982  154.3597 C   0  0  0  0  0  0  0  0  0  0  0  0
  148.0180  138.3561  153.1416 C   0  0  0  0  0  0  0  0  0  0  0  0
  146.5700  138.8748  153.1245 C   0  0  0  0  0  0  0  0  0  0  0  0
  146.5415  140.3534  153.1666 N   0  3  0  0  0  0  0  0  0  0  0  0
  147.2316  140.9109  154.3504 C   0  0  0  0  0  0  0  0  0  0  0  0
  152.3446  141.3021  157.1667 H   0  0  0  0  0  0  0  0  0  0  0  0
  152.8057  141.7327  159.8943 H   0  0  0  0  0  0  0  0  0  0  0  0
  153.1560  142.5388  158.3107 H   0  0  0  0  0  0  0  0  0  0  0  0
  152.3277  143.8740  160.9593 H   0  0  0  0  0  0  0  0  0  0  0  0
  153.2981  144.5897  159.6086 H   0  0  0  0  0  0  0  0  0  0  0  0
  151.3598  144.6370  158.1325 H   0  0  0  0  0  0  0  0  0  0  0  0
  150.3842  144.5831  159.6604 H   0  0  0  0  0  0  0  0  0  0  0  0
  148.5063  142.8019  158.2033 H   0  0  0  0  0  0  0  0  0  0  0  0
  149.1639  140.7893  153.4714 H   0  0  0  0  0  0  0  0  0  0  0  0
  149.8225  138.5751  154.3205 H   0  0  0  0  0  0  0  0  0  0  0  0
  148.3548  138.4668  155.2659 H   0  0  0  0  0  0  0  0  0  0  0  0
  148.5274  138.6577  152.2253 H   0  0  0  0  0  0  0  0  0  0  0  0
  148.0237  137.2657  153.1536 H   0  0  0  0  0  0  0  0  0  0  0  0
  146.0565  138.5339  152.2251 H   0  0  0  0  0  0  0  0  0  0  0  0
  146.0152  138.4805  153.9769 H   0  0  0  0  0  0  0  0  0  0  0  0
  146.9937  140.7076  152.3357 H   0  0  0  0  0  0  0  0  0  0  0  0
  146.6888  140.6028  155.2450 H   0  0  0  0  0  0  0  0  0  0  0  0
  147.1829  141.9993  154.3057 H   0  0  0  0  0  0  0  0  0  0  0  0
  145.5802  140.6631  153.1716 H   0  0  0  0  0  0  0  0  0  0  0  0
  1  2  2  0  0  0  0
  2 11  1  0  0  0  0
  2  3  1  0  0  0  0
  3  4  2  0  0  0  0
  3 18  1  0  0  0  0
  4  5  1  0  0  0  0
  4  9  1  0  0  0  0
  5  8  1  0  0  0  0
  5  6  1  0  0  0  0
  6  7  1  0  0  0  0
  6 19  1  0  0  0  0
  6 20  1  0  0  0  0
  7  8  1  0  0  0  0
  7 21  1  0  0  0  0
  7 22  1  0  0  0  0
  8 23  1  0  0  0  0
  8 24  1  0  0  0  0
  9 10  2  0  0  0  0
  9 25  1  0  0  0  0
 10 11  1  0  0  0  0
 11 12  1  0  0  0  0
 12 17  1  0  0  0  0
 12 13  1  0  0  0  0
 12 26  1  0  0  0  0
 13 14  1  0  0  0  0
 13 27  1  0  0  0  0
 13 28  1  0  0  0  0
 14 15  1  0  0  0  0
 14 29  1  0  0  0  0
 14 30  1  0  0  0  0
 15 16  1  0  0  0  0
 15 31  1  0  0  0  0
 15 32  1  0  0  0  0
 16 17  1  0  0  0  0
 16 33  1  0  0  0  0
 16 36  1  0  0  0  0
 17 34  1  0  0  0  0
 17 35  1  0  0  0  0
M  CHG  1  16   1
M  END
> <s_m_source_file>
AV-unprocessed.smi

> <i_m_source_file_index>
2582

> <i_lp_mmshare_version>
43012

> <i_f3d_flags>
0

> <s_epik_input>
W0NIMl0xW0NIMl1bQ0gyXU4xYyhbY0hdYzI9TylbY0hdbm4yW0NAQEhdM1tDSDJdW0NIMl1bQ0gyXVtOSF1bQ0gyXTM=

> <s_epik_cmdline>
J2VwaWtfcHl0aG9uJywgJy1waCcsICc3LjAnLCAnLXRuJywgJzgnLCAnLW1hJywgJzIwMCcsICctbWV0YWxfYmluZGluZycsICctaW1hZScsICc8aW5maWxlLm1hZT4nLCAnLW9tYWUnLCAnPG91dGZpbGUubWFlPic=

> <r_lp_tautomer_probability>
1

> <r_epik_Ionization_Penalty>
0.00148886

> <r_epik_Ionization_Penalty_Charging>
0.0014053

> <r_epik_Ionization_Penalty_Neutral>
8.35615e-05

> <r_epik_State_Penalty>
-0

> <r_epik_Charging_Adjusted_Penalty>
0.0014053

> <i_epik_Tot_Q>
1

> <i_epik_Tot_abs_Q>
1

> <r_epik_Metal_State_Penalty>
-0

> <b_epik_Metal_Only>
0

> <s_lp_Force_Field>
OPLS_2005

> <r_lp_Energy>
54.8166

> <b_lp_Chiralities_Consistent>
1

> <s_lp_Variant>
AV-unprocessed.smi:2582-2

> <Gold.Version>
5.8.1

> <Gold.Id.Protein>
6NUR|6NUR_protein|mol2

> <Gold.PLP.Fitness>
36.7249

> <Gold.PLP.PLP>
-27.8469

> <Gold.PLP.part.hbond>
-2.0000

> <Gold.PLP.part.metal>
0.0000

> <Gold.PLP.part.buried>
1.1927

> <Gold.PLP.part.nonpolar>
-27.9673

> <Gold.PLP.part.repulsive>
0.3422

> <Gold.PLP.ligand.clash>
0.0000

> <Gold.PLP.ligand.torsion>
0.0909

> <Gold.PLP.Chemscore.Hbond>
2.9840

> <Gold.PLP.Chemscore.CHOScore>
0.0000

> <Gold.PLP.Chemscore.Metal>
0.0000

> <Gold.Chemscore.Hbonds>
donor molecule, donor type, donor heavy atom, donor atom, acceptor molecule, acceptor atom, score
      L1  H    16    36       P1 10175  1.98
      P1  H  7989  7998       L1     1  1.00

> <Gold.PLP.Chemscore.Internal.Correction>
0.1077

> <Gold.Rescore>
     Score         DG    S(hbond)    S(metal)    S(lipo)     H(rot)  DE(clash)    DE(int)     intcor
     16.01     -17.58       1.82        0.00      77.90       1.20       1.39       0.18       ----

> <Gold.Chemscore.Fitness>
16.0102

> <Gold.Chemscore.DG>
-17.5829

> <Gold.Chemscore.ZeroCoef>
-5.4800

> <Gold.Chemscore.Hbond>
1.8164

> <Gold.Chemscore.Metal>
0.0000

> <Gold.Chemscore.Lipo>
77.8963

> <Gold.Chemscore.Internal_Hbond>
0.0000

> <Gold.Chemscore.DEClash>
1.3933

> <Gold.Chemscore.DEInternal>
0.1794

> <Gold.Chemscore.Rot>
1.2022

> <Gold.Chemscore.Internal.Correction>
   9.000000E+99

> <Gold.Chemscore.Hbonds>
donor molecule, donor type, donor heavy atom, donor atom, acceptor molecule, acceptor atom, score
      L1  H    16    36       P1 10175  0.69
      P1  H  7989  7998       L1     1  0.88

> <Gold.Chemscore.Hbond.Weighted>
-6.0667

> <Gold.Chemscore.Metal.Weighted>
-0.0000

> <Gold.Chemscore.Lipo.Weighted>
-9.1139

> <Gold.Chemscore.Internal_Hbond.Weighted>
0.0000

> <Gold.Chemscore.DEClash.Weighted>
1.3933

> <Gold.Chemscore.DEInternal.Weighted>
0.1794

> <Gold.Chemscore.Rot.Weighted>
3.0777

> <Gold.Chemscore.Internal.Correction.Weighted>
   9.000000E+99

> <Gold.Protein.RotatedTorsions>
[ 6907 6896 6895 6894 ] final  -38.54 input  -60.11 | X-H torsion
[ 7974 7965 7964 7962 ] final -153.24 input  175.53 | X-H torsion
[ 8008 7997 7996 7995 ] final  116.34 input   59.86 | X-H torsion
[ 10167 10162 10161 10158 ] final   74.86 input  -65.29 | X-H torsion
[ 10718 10713 10712 10709 ] final   12.50 input   66.30 | X-H torsion
[ 10763 10752 10751 10750 ] final  -27.55 input  -60.55 | X-H torsion
[ 11005 11000 10999 10996 ] final  148.65 input  -57.11 | X-H torsion

> <Gold.Protein.ActiveResidues>
 VAL166  LYS551  ARG553  GLY616  TRP617  ASP618  TYR619  PRO620  LYS621  CYS622 
 ASP623  PHE694  ASN695  SER759  ASP760  ASP761  ALA762  ILE779  LEU786  VAL792 
 PHE793  MET794  SER795  GLU796  ALA797  LYS798  CYS799  TRP800  GLU811  SER814 

> <Gold.Protein.RotatedAtoms>
  151.0012  134.9323  159.7954 H   0  0  0  0  0  0  0  0  0  0  0  0  # atno 6907 bound_to 6896
  152.5278  134.3152  159.9138 H   0  0  0  0  0  0  0  0  0  0  0  0  # atno 6908 bound_to 6896
  151.3158  133.4019  159.2685 H   0  0  0  0  0  0  0  0  0  0  0  0  # atno 6909 bound_to 6896
  144.7751  140.4553  143.5879 H   0  0  0  0  0  0  0  0  0  0  0  0  # atno 7974 bound_to 7965
  156.2433  140.2919  156.0507 H   0  0  0  0  0  0  0  0  0  0  0  0  # atno 8008 bound_to 7997
  155.1884  140.0406  157.2913 H   0  0  0  0  0  0  0  0  0  0  0  0  # atno 8009 bound_to 7997
  154.6211  140.2476  155.7555 H   0  0  0  0  0  0  0  0  0  0  0  0  # atno 8010 bound_to 7997
  140.0092  144.5627  150.7673 H   0  0  0  0  0  0  0  0  0  0  0  0  # atno 10167 bound_to 10162
  157.0110  130.6117  149.5708 H   0  0  0  0  0  0  0  0  0  0  0  0  # atno 10718 bound_to 10713
  153.7340  135.6937  153.4982 H   0  0  0  0  0  0  0  0  0  0  0  0  # atno 10763 bound_to 10752
  153.2116  135.4401  155.0385 H   0  0  0  0  0  0  0  0  0  0  0  0  # atno 10764 bound_to 10752
  154.8243  135.3438  154.6868 H   0  0  0  0  0  0  0  0  0  0  0  0  # atno 10765 bound_to 10752
  140.0978  134.9002  157.1749 H   0  0  0  0  0  0  0  0  0  0  0  0  # atno 11005 bound_to 11000
  145.6209  139.1524  143.3023 LP  0  0  0  0  0  0  0  0  0  0  0  0  # atno 17320 bound_to 7965
  146.1925  140.6319  142.9139 LP  0  0  0  0  0  0  0  0  0  0  0  0  # atno 17321 bound_to 7965
  140.7388  143.2783  151.3674 LP  0  0  0  0  0  0  0  0  0  0  0  0  # atno 17342 bound_to 10162
  139.6217  144.0894  152.2397 LP  0  0  0  0  0  0  0  0  0  0  0  0  # atno 17343 bound_to 10162
  156.0136  130.5229  150.8065 LP  0  0  0  0  0  0  0  0  0  0  0  0  # atno 17370 bound_to 10713
  157.5320  131.0937  150.9942 LP  0  0  0  0  0  0  0  0  0  0  0  0  # atno 17371 bound_to 10713
  140.3262  134.2860  155.7236 LP  0  0  0  0  0  0  0  0  0  0  0  0  # atno 17394 bound_to 11000
  141.2097  133.7741  156.9980 LP  0  0  0  0  0  0  0  0  0  0  0  0  # atno 17395 bound_to 11000

$$$$
