AV-unprocessed.smi:51|AV-procd|sdf|505|dock4
  -GOLD-   2262016373D 1   1.00000     0.00000
 Structure written by MMmdl.
 26 27  0  0  0  0  0  0  0  0  3 V2000
  153.1031  139.5621  154.7282 O   0  0  0  0  0  0  0  0  0  0  0  0
  152.4786  138.5021  154.9480 C   0  0  0  0  0  0  0  0  0  0  0  0
  152.9656  137.3505  154.9109 O   0  5  0  0  0  0  0  0  0  0  0  0
  150.9809  138.6380  155.2620 C   0  0  2  0  0  0  0  0  0  0  0  0
  150.1031  138.0780  154.1267 C   0  0  0  0  0  0  0  0  0  0  0  0
  148.8774  138.9928  154.1332 C   0  0  2  0  0  0  0  0  0  0  0  0
  148.2163  139.0292  152.8864 O   0  0  0  0  0  0  0  0  0  0  0  0
  149.4493  140.3540  154.5299 C   0  0  0  0  0  0  0  0  0  0  0  0
  150.5632  140.0313  155.4094 N   0  0  0  0  0  0  0  0  0  0  0  0
  150.9911  140.8885  156.4431 C   0  0  0  0  0  0  0  0  0  0  0  0
  151.7277  140.4216  157.5527 C   0  0  0  0  0  0  0  0  0  0  0  0
  152.1149  141.3699  158.5164 C   0  0  0  0  0  0  0  0  0  0  0  0
  151.7768  142.6731  158.3696 N   0  3  0  0  0  0  0  0  0  0  0  0
  151.0691  143.0535  157.2965 C   0  0  0  0  0  0  0  0  0  0  0  0
  150.6728  142.1997  156.3460 N   0  0  0  0  0  0  0  0  0  0  0  0
  150.7480  138.1125  156.1891 H   0  0  0  0  0  0  0  0  0  0  0  0
  150.6115  138.1537  153.1633 H   0  0  0  0  0  0  0  0  0  0  0  0
  149.8414  137.0306  154.2794 H   0  0  0  0  0  0  0  0  0  0  0  0
  148.1794  138.6534  154.8999 H   0  0  0  0  0  0  0  0  0  0  0  0
  148.8635  139.1448  152.2078 H   0  0  0  0  0  0  0  0  0  0  0  0
  149.8374  140.8922  153.6636 H   0  0  0  0  0  0  0  0  0  0  0  0
  148.6896  140.9725  155.0093 H   0  0  0  0  0  0  0  0  0  0  0  0
  151.9989  139.3829  157.6715 H   0  0  0  0  0  0  0  0  0  0  0  0
  152.6847  141.1270  159.4013 H   0  0  0  0  0  0  0  0  0  0  0  0
  150.8207  144.1021  157.2239 H   0  0  0  0  0  0  0  0  0  0  0  0
  152.0632  143.3526  159.0744 H   0  0  0  0  0  0  0  0  0  0  0  0
  1  2  2  0  0  0  0
  2  3  1  0  0  0  0
  2  4  1  0  0  0  0
  4  9  1  0  0  0  0
  4  5  1  0  0  0  0
  4 16  1  0  0  0  0
  5  6  1  0  0  0  0
  5 17  1  0  0  0  0
  5 18  1  0  0  0  0
  6  7  1  0  0  0  0
  6  8  1  0  0  0  0
  6 19  1  0  0  0  0
  7 20  1  0  0  0  0
  8  9  1  0  0  0  0
  8 21  1  0  0  0  0
  8 22  1  0  0  0  0
  9 10  1  0  0  0  0
 10 15  1  0  0  0  0
 10 11  2  0  0  0  0
 11 12  1  0  0  0  0
 11 23  1  0  0  0  0
 12 13  2  0  0  0  0
 12 24  1  0  0  0  0
 13 14  1  0  0  0  0
 13 26  1  0  0  0  0
 14 15  2  0  0  0  0
 14 25  1  0  0  0  0
M  CHG  1   3  -1
M  CHG  1  13   1
M  END
> <s_m_source_file>
AV-unprocessed.smi

> <i_m_source_file_index>
51

> <i_lp_mmshare_version>
43012

> <i_f3d_flags>
0

> <s_epik_input>
Tz1DKFtPSF0pW0NAQEhdMVtDSDJdW0NAQEhdKFtPSF0pW0NIMl1OMWMyW2NIXVtjSF1uW2NIXW4y

> <s_epik_cmdline>
J2VwaWtfcHl0aG9uJywgJy1waCcsICc3LjAnLCAnLXRuJywgJzgnLCAnLW1hJywgJzIwMCcsICctbWV0YWxfYmluZGluZycsICctaW1hZScsICc8aW5maWxlLm1hZT4nLCAnLW9tYWUnLCAnPG91dGZpbGUubWFlPic=

> <r_lp_tautomer_probability>
0.999336

> <r_epik_Ionization_Penalty>
0.688427

> <r_epik_Ionization_Penalty_Charging>
0.688427

> <r_epik_Ionization_Penalty_Neutral>
1.98379e-07

> <r_epik_State_Penalty>
0.709817

> <r_epik_Charging_Adjusted_Penalty>
1.39824

> <i_epik_Tot_Q>
0

> <i_epik_Tot_abs_Q>
2

> <r_epik_Metal_State_Penalty>
0.873261

> <b_epik_Metal_Only>
0

> <s_lp_Force_Field>
OPLS_2005

> <r_lp_Energy>
15.0263

> <b_lp_Chiralities_Consistent>
1

> <s_lp_Variant>
AV-unprocessed.smi:51-7

> <Gold.Version>
5.8.1

> <Gold.Id.Protein>
6NUR|6NUR_protein|mol2

> <Gold.PLP.Fitness>
42.0606

> <Gold.PLP.PLP>
-28.8993

> <Gold.PLP.part.hbond>
-4.1892

> <Gold.PLP.part.metal>
0.0000

> <Gold.PLP.part.buried>
-3.2140

> <Gold.PLP.part.nonpolar>
-23.0591

> <Gold.PLP.part.repulsive>
0.2342

> <Gold.PLP.ligand.clash>
0.0000

> <Gold.PLP.ligand.torsion>
0.2327

> <Gold.PLP.Chemscore.Hbond>
3.7624

> <Gold.PLP.Chemscore.CHOScore>
0.7651

> <Gold.PLP.Chemscore.Metal>
0.0000

> <Gold.Chemscore.Hbonds>
donor molecule, donor type, donor heavy atom, donor atom, acceptor molecule, acceptor atom, score
      L1  H     7    20       P1  7957  1.00
      P1  H  7989  7998       L1     1  0.14
      P1  H  7997  8009       L1     1  2.00
      P1  H 10752 10765       L1     3  0.67
      L1  C    14    25       P1  8028  0.74

> <Gold.PLP.Chemscore.Internal.Correction>
0.0442

> <Gold.Rescore>
     Score         DG    S(hbond)    S(metal)    S(lipo)     H(rot)  DE(clash)    DE(int)     intcor
     13.46     -14.66       2.68        0.00      39.16       1.70       0.05       1.15       ----

> <Gold.Chemscore.Fitness>
13.4590

> <Gold.Chemscore.DG>
-14.6560

> <Gold.Chemscore.ZeroCoef>
-5.4800

> <Gold.Chemscore.Hbond>
2.6799

> <Gold.Chemscore.Metal>
0.0000

> <Gold.Chemscore.Lipo>
39.1631

> <Gold.Chemscore.Internal_Hbond>
0.0000

> <Gold.Chemscore.DEClash>
0.0456

> <Gold.Chemscore.DEInternal>
1.1514

> <Gold.Chemscore.Rot>
1.7020

> <Gold.Chemscore.Internal.Correction>
   9.000000E+99

> <Gold.Chemscore.Hbonds>
donor molecule, donor type, donor heavy atom, donor atom, acceptor molecule, acceptor atom, score
      L1  H     7    20       P1  7957  0.91
      P1  H  7989  7998       L1     1  0.07
      P1  H  7997  8009       L1     1  1.00
      P1  H 10752 10765       L1     3  0.32

> <Gold.Chemscore.Hbond.Weighted>
-8.9510

> <Gold.Chemscore.Metal.Weighted>
-0.0000

> <Gold.Chemscore.Lipo.Weighted>
-4.5821

> <Gold.Chemscore.Internal_Hbond.Weighted>
0.0000

> <Gold.Chemscore.DEClash.Weighted>
0.0456

> <Gold.Chemscore.DEInternal.Weighted>
1.1514

> <Gold.Chemscore.Rot.Weighted>
4.3571

> <Gold.Chemscore.Internal.Correction.Weighted>
   9.000000E+99

> <Gold.Protein.RotatedTorsions>
[ 6907 6896 6895 6894 ] final  122.03 input  -60.11 | X-H torsion
[ 7974 7965 7964 7962 ] final   62.91 input  175.53 | X-H torsion
[ 8008 7997 7996 7995 ] final -119.43 input   59.86 | X-H torsion
[ 10167 10162 10161 10158 ] final  -13.74 input  -65.29 | X-H torsion
[ 10718 10713 10712 10709 ] final  -60.35 input   66.30 | X-H torsion
[ 10763 10752 10751 10750 ] final  172.75 input  -60.55 | X-H torsion
[ 11005 11000 10999 10996 ] final  138.47 input  -57.11 | X-H torsion

> <Gold.Protein.ActiveResidues>
 VAL166  LYS551  ARG553  GLY616  TRP617  ASP618  TYR619  PRO620  LYS621  CYS622 
 ASP623  PHE694  ASN695  SER759  ASP760  ASP761  ALA762  ILE779  LEU786  VAL792 
 PHE793  MET794  SER795  GLU796  ALA797  LYS798  CYS799  TRP800  GLU811  SER814 

> <Gold.Protein.RotatedAtoms>
  152.4275  133.7220  159.6538 H   0  0  0  0  0  0  0  0  0  0  0  0  # atno 6907 bound_to 6896
  150.8152  133.8339  159.3170 H   0  0  0  0  0  0  0  0  0  0  0  0  # atno 6908 bound_to 6896
  151.6038  135.1047  160.0117 H   0  0  0  0  0  0  0  0  0  0  0  0  # atno 6909 bound_to 6896
  145.8679  139.3358  143.0780 H   0  0  0  0  0  0  0  0  0  0  0  0  # atno 7974 bound_to 7965
  155.1157  140.0398  157.2736 H   0  0  0  0  0  0  0  0  0  0  0  0  # atno 8008 bound_to 7997
  154.6652  140.2600  155.7040 H   0  0  0  0  0  0  0  0  0  0  0  0  # atno 8009 bound_to 7997
  156.2635  140.2809  156.1139 H   0  0  0  0  0  0  0  0  0  0  0  0  # atno 8010 bound_to 7997
  140.7188  143.5394  150.9426 H   0  0  0  0  0  0  0  0  0  0  0  0  # atno 10167 bound_to 10162
  156.0997  130.4188  150.0842 H   0  0  0  0  0  0  0  0  0  0  0  0  # atno 10718 bound_to 10713
  154.4304  135.2759  155.1916 H   0  0  0  0  0  0  0  0  0  0  0  0  # atno 10763 bound_to 10752
  154.3824  135.6084  153.5802 H   0  0  0  0  0  0  0  0  0  0  0  0  # atno 10764 bound_to 10752
  152.9836  135.5883  154.4614 H   0  0  0  0  0  0  0  0  0  0  0  0  # atno 10765 bound_to 10752
  140.0186  134.9407  157.0428 H   0  0  0  0  0  0  0  0  0  0  0  0  # atno 11005 bound_to 11000
  145.9171  140.9141  143.0424 LP  0  0  0  0  0  0  0  0  0  0  0  0  # atno 17320 bound_to 7965
  144.6726  140.1238  143.7448 LP  0  0  0  0  0  0  0  0  0  0  0  0  # atno 17321 bound_to 7965
  139.9117  143.6713  152.3114 LP  0  0  0  0  0  0  0  0  0  0  0  0  # atno 17342 bound_to 10162
  139.7098  144.7622  151.1131 LP  0  0  0  0  0  0  0  0  0  0  0  0  # atno 17343 bound_to 10162
  156.8832  130.9563  151.3597 LP  0  0  0  0  0  0  0  0  0  0  0  0  # atno 17370 bound_to 10713
  157.6164  130.8622  149.9036 LP  0  0  0  0  0  0  0  0  0  0  0  0  # atno 17371 bound_to 10713
  140.4427  134.1665  155.7175 LP  0  0  0  0  0  0  0  0  0  0  0  0  # atno 17394 bound_to 11000
  141.1759  133.8514  157.1422 LP  0  0  0  0  0  0  0  0  0  0  0  0  # atno 17395 bound_to 11000

$$$$
