AV-unprocessed.smi:1993|AV-procd|sdf|8071|dock1
  -GOLD-   2272010283D 1   1.00000     0.00000
 Structure written by MMmdl.
 50 51  0  0  0  0  0  0  0  0  1 V2000
  146.8992  132.7244  158.5219 C   0  0  0  0  0  0  0  0  0  0  0  0
  147.8221  133.7218  159.2133 C   0  0  0  0  0  0  0  0  0  0  0  0
  148.9519  133.9274  158.7709 O   0  0  0  0  0  0  0  0  0  0  0  0
  147.3261  134.3384  160.2975 N   0  0  0  0  0  0  0  0  0  0  0  0
  148.0305  135.3384  161.1018 C   0  0  1  0  0  0  0  0  0  0  0  0
  148.2581  136.5874  160.2298 C   0  0  0  0  0  0  0  0  0  0  0  0
  147.3053  137.2832  159.8737 O   0  0  0  0  0  0  0  0  0  0  0  0
  149.5307  136.8644  159.9088 N   0  0  0  0  0  0  0  0  0  0  0  0
  149.9649  138.0190  159.1324 C   0  0  0  0  0  0  0  0  0  0  0  0
  151.4706  138.0382  158.9031 C   0  0  0  0  0  0  0  0  0  0  0  0
  152.3336  137.5485  159.9060 C   0  0  0  0  0  0  0  0  0  0  0  0
  153.7226  137.5641  159.6836 C   0  0  0  0  0  0  0  0  0  0  0  0
  154.1965  138.0711  158.4599 C   0  0  0  0  0  0  0  0  0  0  0  0
  153.3842  138.5411  157.4904 N   0  0  0  0  0  0  0  0  0  0  0  0
  152.0456  138.5285  157.7024 C   0  0  0  0  0  0  0  0  0  0  0  0
  151.2233  139.0092  156.6705 N   0  0  0  0  0  0  0  0  0  0  0  0
  151.3702  138.2637  155.4283 C   0  0  0  0  0  0  0  0  0  0  0  0
  150.3147  138.7277  154.4107 C   0  0  0  0  0  0  0  0  0  0  0  0
  150.4237  140.1353  154.2167 O   0  0  0  0  0  0  0  0  0  0  0  0
  150.2120  140.8619  155.4244 C   0  0  0  0  0  0  0  0  0  0  0  0
  151.2682  140.4516  156.4649 C   0  0  0  0  0  0  0  0  0  0  0  0
  147.1527  135.6998  162.3371 C   0  0  0  0  0  0  0  0  0  0  0  0
  145.6855  136.0024  161.9687 C   0  0  0  0  0  0  0  0  0  0  0  0
  147.7290  136.8946  163.1221 C   0  0  0  0  0  0  0  0  0  0  0  0
  146.3875  132.0980  159.2534 H   0  0  0  0  0  0  0  0  0  0  0  0
  147.4643  132.0743  157.8533 H   0  0  0  0  0  0  0  0  0  0  0  0
  146.1488  133.2517  157.9325 H   0  0  0  0  0  0  0  0  0  0  0  0
  146.3844  134.1116  160.5821 H   0  0  0  0  0  0  0  0  0  0  0  0
  148.9874  134.9362  161.4418 H   0  0  0  0  0  0  0  0  0  0  0  0
  150.2510  136.2371  160.2358 H   0  0  0  0  0  0  0  0  0  0  0  0
  149.4528  138.0023  158.1701 H   0  0  0  0  0  0  0  0  0  0  0  0
  149.6479  138.9418  159.6210 H   0  0  0  0  0  0  0  0  0  0  0  0
  151.9378  137.1617  160.8336 H   0  0  0  0  0  0  0  0  0  0  0  0
  154.4075  137.1952  160.4325 H   0  0  0  0  0  0  0  0  0  0  0  0
  155.2561  138.0987  158.2526 H   0  0  0  0  0  0  0  0  0  0  0  0
  152.3722  138.4171  155.0251 H   0  0  0  0  0  0  0  0  0  0  0  0
  151.2597  137.1972  155.6205 H   0  0  0  0  0  0  0  0  0  0  0  0
  150.4651  138.2235  153.4561 H   0  0  0  0  0  0  0  0  0  0  0  0
  149.3097  138.4734  154.7516 H   0  0  0  0  0  0  0  0  0  0  0  0
  150.2839  141.9292  155.2153 H   0  0  0  0  0  0  0  0  0  0  0  0
  149.2041  140.6773  155.7995 H   0  0  0  0  0  0  0  0  0  0  0  0
  151.0858  140.9653  157.4095 H   0  0  0  0  0  0  0  0  0  0  0  0
  152.2596  140.7476  156.1194 H   0  0  0  0  0  0  0  0  0  0  0  0
  147.1442  134.8468  163.0181 H   0  0  0  0  0  0  0  0  0  0  0  0
  145.6204  136.8421  161.2768 H   0  0  0  0  0  0  0  0  0  0  0  0
  145.1061  136.2624  162.8548 H   0  0  0  0  0  0  0  0  0  0  0  0
  145.1883  135.1482  161.5085 H   0  0  0  0  0  0  0  0  0  0  0  0
  147.8033  137.7814  162.4918 H   0  0  0  0  0  0  0  0  0  0  0  0
  148.7226  136.6833  163.5176 H   0  0  0  0  0  0  0  0  0  0  0  0
  147.0969  137.1464  163.9742 H   0  0  0  0  0  0  0  0  0  0  0  0
  1  2  1  0  0  0  0
  1 25  1  0  0  0  0
  1 26  1  0  0  0  0
  1 27  1  0  0  0  0
  2  3  2  0  0  0  0
  2  4  1  0  0  0  0
  4  5  1  0  0  0  0
  4 28  1  0  0  0  0
  5  6  1  0  0  0  0
  5 22  1  0  0  0  0
  5 29  1  0  0  0  0
  6  7  2  0  0  0  0
  6  8  1  0  0  0  0
  8  9  1  0  0  0  0
  8 30  1  0  0  0  0
  9 10  1  0  0  0  0
  9 31  1  0  0  0  0
  9 32  1  0  0  0  0
 10 15  1  0  0  0  0
 10 11  2  0  0  0  0
 11 12  1  0  0  0  0
 11 33  1  0  0  0  0
 12 13  2  0  0  0  0
 12 34  1  0  0  0  0
 13 14  1  0  0  0  0
 13 35  1  0  0  0  0
 14 15  2  0  0  0  0
 15 16  1  0  0  0  0
 16 21  1  0  0  0  0
 16 17  1  0  0  0  0
 17 18  1  0  0  0  0
 17 36  1  0  0  0  0
 17 37  1  0  0  0  0
 18 19  1  0  0  0  0
 18 38  1  0  0  0  0
 18 39  1  0  0  0  0
 19 20  1  0  0  0  0
 20 21  1  0  0  0  0
 20 40  1  0  0  0  0
 20 41  1  0  0  0  0
 21 42  1  0  0  0  0
 21 43  1  0  0  0  0
 22 23  1  0  0  0  0
 22 24  1  0  0  0  0
 22 44  1  0  0  0  0
 23 45  1  0  0  0  0
 23 46  1  0  0  0  0
 23 47  1  0  0  0  0
 24 48  1  0  0  0  0
 24 49  1  0  0  0  0
 24 50  1  0  0  0  0
M  END
> <s_m_source_file>
AV-unprocessed.smi

> <i_m_source_file_index>
1993

> <i_lp_mmshare_version>
43012

> <i_f3d_flags>
0

> <s_epik_input>
W0NIM11DKD1PKVtOSF1bQ0BASF0oW0NIXShbQ0gzXSlbQ0gzXSlDKD1PKVtOSF1bQ0gyXWMxW2NIXVtjSF1bY0hdbmMxTjJbQ0gyXVtDSDJdT1tDSDJdW0NIMl0y

> <s_epik_cmdline>
J2VwaWtfcHl0aG9uJywgJy1waCcsICc3LjAnLCAnLXRuJywgJzgnLCAnLW1hJywgJzIwMCcsICctbWV0YWxfYmluZGluZycsICctaW1hZScsICc8aW5maWxlLm1hZT4nLCAnLW9tYWUnLCAnPG91dGZpbGUubWFlPic=

> <r_lp_tautomer_probability>
1

> <r_epik_Ionization_Penalty>
0.00485175

> <r_epik_Ionization_Penalty_Charging>
0

> <r_epik_Ionization_Penalty_Neutral>
0.00485175

> <r_epik_State_Penalty>
0.00351951

> <r_epik_Charging_Adjusted_Penalty>
0.00351951

> <i_epik_Tot_Q>
0

> <i_epik_Tot_abs_Q>
0

> <r_epik_Metal_State_Penalty>
-0

> <b_epik_Metal_Only>
0

> <s_lp_Force_Field>
OPLS_2005

> <r_lp_Energy>
18.9648

> <b_lp_Chiralities_Consistent>
1

> <s_lp_Variant>
AV-unprocessed.smi:1993-2

> <Gold.Version>
5.8.1

> <Gold.Id.Protein>
6NUR|6NUR_protein|mol2

> <Gold.PLP.Fitness>
45.4825

> <Gold.PLP.PLP>
-34.6150

> <Gold.PLP.part.hbond>
-3.7598

> <Gold.PLP.part.metal>
0.0000

> <Gold.PLP.part.buried>
-3.6291

> <Gold.PLP.part.nonpolar>
-27.9214

> <Gold.PLP.part.repulsive>
0.4054

> <Gold.PLP.ligand.clash>
0.0000

> <Gold.PLP.ligand.torsion>
0.7184

> <Gold.PLP.Chemscore.Hbond>
3.9760

> <Gold.PLP.Chemscore.CHOScore>
0.0000

> <Gold.PLP.Chemscore.Metal>
0.0000

> <Gold.Chemscore.Hbonds>
donor molecule, donor type, donor heavy atom, donor atom, acceptor molecule, acceptor atom, score
      P1  H  6896  6909       L1     3  0.99
      P1  H  6934  6947       L1     7  0.98
      P1  H  7989  7998       L1    19  1.00
      P1  H  7997  8008       L1    14  0.90

> <Gold.PLP.Chemscore.Internal.Correction>
0.3763

> <Gold.Rescore>
     Score         DG    S(hbond)    S(metal)    S(lipo)     H(rot)  DE(clash)    DE(int)     intcor
     18.96     -21.70       3.50        0.00      86.34       2.18       1.35       1.39       ----

> <Gold.Chemscore.Fitness>
18.9552

> <Gold.Chemscore.DG>
-21.7010

> <Gold.Chemscore.ZeroCoef>
-5.4800

> <Gold.Chemscore.Hbond>
3.5040

> <Gold.Chemscore.Metal>
0.0000

> <Gold.Chemscore.Lipo>
86.3414

> <Gold.Chemscore.Internal_Hbond>
0.0000

> <Gold.Chemscore.DEClash>
1.3529

> <Gold.Chemscore.DEInternal>
1.3930

> <Gold.Chemscore.Rot>
2.1813

> <Gold.Chemscore.Internal.Correction>
   9.000000E+99

> <Gold.Chemscore.Hbonds>
donor molecule, donor type, donor heavy atom, donor atom, acceptor molecule, acceptor atom, score
      P1  H  6896  6909       L1     3  0.94
      P1  H  6934  6947       L1     7  0.74
      P1  H  7989  7998       L1    19  0.53
      P1  H  7997  8008       L1    14  0.17

> <Gold.Chemscore.Hbond.Weighted>
-11.7033

> <Gold.Chemscore.Metal.Weighted>
-0.0000

> <Gold.Chemscore.Lipo.Weighted>
-10.1019

> <Gold.Chemscore.Internal_Hbond.Weighted>
0.0000

> <Gold.Chemscore.DEClash.Weighted>
1.3529

> <Gold.Chemscore.DEInternal.Weighted>
1.3930

> <Gold.Chemscore.Rot.Weighted>
5.5842

> <Gold.Chemscore.Internal.Correction.Weighted>
   9.000000E+99

> <Gold.Protein.RotatedTorsions>
[ 6907 6896 6895 6894 ] final    2.50 input  -60.11 | X-H torsion
[ 7974 7965 7964 7962 ] final   75.09 input  175.53 | X-H torsion
[ 8008 7997 7996 7995 ] final  -76.19 input   59.86 | X-H torsion
[ 10167 10162 10161 10158 ] final -158.15 input  -65.29 | X-H torsion
[ 10718 10713 10712 10709 ] final  109.79 input   66.30 | X-H torsion
[ 10763 10752 10751 10750 ] final  -47.01 input  -60.55 | X-H torsion
[ 11005 11000 10999 10996 ] final  129.76 input  -57.11 | X-H torsion

> <Gold.Protein.ActiveResidues>
 VAL166  LYS551  ARG553  GLY616  TRP617  ASP618  TYR619  PRO620  LYS621  CYS622 
 ASP623  PHE694  ASN695  SER759  ASP760  ASP761  ALA762  ILE779  LEU786  VAL792 
 PHE793  MET794  SER795  GLU796  ALA797  LYS798  CYS799  TRP800  GLU811  SER814 

> <Gold.Protein.RotatedAtoms>
  151.6099  135.1041  160.0078 H   0  0  0  0  0  0  0  0  0  0  0  0  # atno 6907 bound_to 6896
  152.4214  133.7118  159.6494 H   0  0  0  0  0  0  0  0  0  0  0  0  # atno 6908 bound_to 6896
  150.8102  133.8364  159.3208 H   0  0  0  0  0  0  0  0  0  0  0  0  # atno 6909 bound_to 6896
  145.7200  139.2645  143.1601 H   0  0  0  0  0  0  0  0  0  0  0  0  # atno 7974 bound_to 7965
  154.5483  140.0731  156.8626 H   0  0  0  0  0  0  0  0  0  0  0  0  # atno 8008 bound_to 7997
  155.3043  140.3386  155.4228 H   0  0  0  0  0  0  0  0  0  0  0  0  # atno 8009 bound_to 7997
  156.1938  140.1696  156.8025 H   0  0  0  0  0  0  0  0  0  0  0  0  # atno 8010 bound_to 7997
  139.6715  143.9737  152.2286 H   0  0  0  0  0  0  0  0  0  0  0  0  # atno 10167 bound_to 10162
  157.6525  131.0920  150.6505 H   0  0  0  0  0  0  0  0  0  0  0  0  # atno 10718 bound_to 10713
  154.0544  135.6626  153.4804 H   0  0  0  0  0  0  0  0  0  0  0  0  # atno 10763 bound_to 10752
  153.0451  135.5120  154.7719 H   0  0  0  0  0  0  0  0  0  0  0  0  # atno 10764 bound_to 10752
  154.6736  135.3033  154.9675 H   0  0  0  0  0  0  0  0  0  0  0  0  # atno 10765 bound_to 10752
  139.9633  134.9597  156.9195 H   0  0  0  0  0  0  0  0  0  0  0  0  # atno 11005 bound_to 11000
  146.0634  140.7946  142.9723 LP  0  0  0  0  0  0  0  0  0  0  0  0  # atno 17320 bound_to 7965
  144.6919  140.3232  143.7229 LP  0  0  0  0  0  0  0  0  0  0  0  0  # atno 17321 bound_to 7965
  139.9503  144.6625  150.8178 LP  0  0  0  0  0  0  0  0  0  0  0  0  # atno 17342 bound_to 10162
  140.7619  143.3187  151.2673 LP  0  0  0  0  0  0  0  0  0  0  0  0  # atno 17343 bound_to 10162
  156.6815  130.4568  149.5626 LP  0  0  0  0  0  0  0  0  0  0  0  0  # atno 17370 bound_to 10713
  156.1926  130.6569  151.1078 LP  0  0  0  0  0  0  0  0  0  0  0  0  # atno 17371 bound_to 10713
  140.5451  134.0682  155.7352 LP  0  0  0  0  0  0  0  0  0  0  0  0  # atno 17394 bound_to 11000
  141.1312  133.9299  157.2531 LP  0  0  0  0  0  0  0  0  0  0  0  0  # atno 17395 bound_to 11000

$$$$
