AV-unprocessed.smi:1093|AV-procd|sdf|4740|dock5
  -GOLD-   22720 3273D 1   1.00000     0.00000
 Structure written by MMmdl.
 48 49  0  0  0  0  0  0  0  0  3 V2000
  144.2247  143.3604  157.0394 C   0  0  0  0  0  0  0  0  0  0  0  0
  143.6267  142.6859  155.7963 C   0  0  0  0  0  0  0  0  0  0  0  0
  144.6677  142.0808  154.9290 N   0  3  1  0  0  0  0  0  0  0  0  0
  145.5374  143.1017  154.2890 C   0  0  0  0  0  0  0  0  0  0  0  0
  146.5022  142.4562  153.2790 C   0  0  0  0  0  0  0  0  0  0  0  0
  147.3304  141.3365  153.9310 C   0  0  0  0  0  0  0  0  0  0  0  0
  146.4195  140.3152  154.6354 C   0  0  2  0  0  0  0  0  0  0  0  0
  145.6743  139.5395  153.6424 N   0  0  0  0  0  0  0  0  0  0  0  0
  145.8341  138.2292  153.4056 C   0  0  0  0  0  0  0  0  0  0  0  0
  146.6198  137.5207  154.0336 O   0  0  0  0  0  0  0  0  0  0  0  0
  145.0191  137.8067  152.4231 N   0  0  0  0  0  0  0  0  0  0  0  0
  144.8961  136.5017  151.8716 C   0  0  0  0  0  0  0  0  0  0  0  0
  146.0601  135.7086  151.7923 C   0  0  0  0  0  0  0  0  0  0  0  0
  145.9877  134.4036  151.2634 C   0  0  0  0  0  0  0  0  0  0  0  0
  144.7437  133.8895  150.8227 C   0  0  0  0  0  0  0  0  0  0  0  0
  144.5894  132.5939  150.2838 N   0  0  0  0  0  0  0  0  0  0  0  0
  143.7757  132.3996  149.0887 C   0  0  0  0  0  0  0  0  0  0  0  0
  145.3518  131.4835  150.8405 C   0  0  0  0  0  0  0  0  0  0  0  0
  143.6507  134.6839  150.9314 N   0  3  0  0  0  0  0  0  0  0  0  0
  143.6751  135.9393  151.4286 C   0  0  0  0  0  0  0  0  0  0  0  0
  145.4790  141.0441  155.6211 C   0  0  0  0  0  0  0  0  0  0  0  0
  143.4333  143.7185  157.6982 H   0  0  0  0  0  0  0  0  0  0  0  0
  144.8443  144.2196  156.7840 H   0  0  0  0  0  0  0  0  0  0  0  0
  144.8372  142.6617  157.6101 H   0  0  0  0  0  0  0  0  0  0  0  0
  142.9451  141.9062  156.1394 H   0  0  0  0  0  0  0  0  0  0  0  0
  143.0239  143.3923  155.2240 H   0  0  0  0  0  0  0  0  0  0  0  0
  144.9235  143.8406  153.7721 H   0  0  0  0  0  0  0  0  0  0  0  0
  146.0978  143.6370  155.0574 H   0  0  0  0  0  0  0  0  0  0  0  0
  145.9349  142.0549  152.4383 H   0  0  0  0  0  0  0  0  0  0  0  0
  147.1667  143.2144  152.8638 H   0  0  0  0  0  0  0  0  0  0  0  0
  147.9564  140.8442  153.1855 H   0  0  0  0  0  0  0  0  0  0  0  0
  148.0120  141.7743  154.6613 H   0  0  0  0  0  0  0  0  0  0  0  0
  147.0530  139.6249  155.1958 H   0  0  0  0  0  0  0  0  0  0  0  0
  145.0105  140.0470  153.0754 H   0  0  0  0  0  0  0  0  0  0  0  0
  144.3837  138.4954  152.0473 H   0  0  0  0  0  0  0  0  0  0  0  0
  147.0099  136.0962  152.1311 H   0  0  0  0  0  0  0  0  0  0  0  0
  146.8917  133.8155  151.2080 H   0  0  0  0  0  0  0  0  0  0  0  0
  142.7546  132.7427  149.2585 H   0  0  0  0  0  0  0  0  0  0  0  0
  143.7291  131.3475  148.8071 H   0  0  0  0  0  0  0  0  0  0  0  0
  144.1932  132.9534  148.2473 H   0  0  0  0  0  0  0  0  0  0  0  0
  146.4217  131.6886  150.7901 H   0  0  0  0  0  0  0  0  0  0  0  0
  145.1640  130.5599  150.2925 H   0  0  0  0  0  0  0  0  0  0  0  0
  145.0770  131.3132  151.8819 H   0  0  0  0  0  0  0  0  0  0  0  0
  142.7136  136.4288  151.4590 H   0  0  0  0  0  0  0  0  0  0  0  0
  146.0646  141.5147  156.4126 H   0  0  0  0  0  0  0  0  0  0  0  0
  144.8328  140.3197  156.1150 H   0  0  0  0  0  0  0  0  0  0  0  0
  144.1766  141.6175  154.1781 H   0  0  0  0  0  0  0  0  0  0  0  0
  142.7533  134.3111  150.6213 H   0  0  0  0  0  0  0  0  0  0  0  0
  1  2  1  0  0  0  0
  1 22  1  0  0  0  0
  1 23  1  0  0  0  0
  1 24  1  0  0  0  0
  2  3  1  0  0  0  0
  2 25  1  0  0  0  0
  2 26  1  0  0  0  0
  3 21  1  0  0  0  0
  3  4  1  0  0  0  0
  3 47  1  0  0  0  0
  4  5  1  0  0  0  0
  4 27  1  0  0  0  0
  4 28  1  0  0  0  0
  5  6  1  0  0  0  0
  5 29  1  0  0  0  0
  5 30  1  0  0  0  0
  6  7  1  0  0  0  0
  6 31  1  0  0  0  0
  6 32  1  0  0  0  0
  7  8  1  0  0  0  0
  7 21  1  0  0  0  0
  7 33  1  0  0  0  0
  8  9  1  0  0  0  0
  8 34  1  0  0  0  0
  9 10  2  0  0  0  0
  9 11  1  0  0  0  0
 11 12  1  0  0  0  0
 11 35  1  0  0  0  0
 12 20  1  0  0  0  0
 12 13  2  0  0  0  0
 13 14  1  0  0  0  0
 13 36  1  0  0  0  0
 14 15  2  0  0  0  0
 14 37  1  0  0  0  0
 15 16  1  0  0  0  0
 15 19  1  0  0  0  0
 16 17  1  0  0  0  0
 16 18  1  0  0  0  0
 17 38  1  0  0  0  0
 17 39  1  0  0  0  0
 17 40  1  0  0  0  0
 18 41  1  0  0  0  0
 18 42  1  0  0  0  0
 18 43  1  0  0  0  0
 19 20  2  0  0  0  0
 19 48  1  0  0  0  0
 20 44  1  0  0  0  0
 21 45  1  0  0  0  0
 21 46  1  0  0  0  0
M  CHG  1   3   1
M  CHG  1  19   1
M  END
> <s_m_source_file>
AV-unprocessed.smi

> <i_m_source_file_index>
1093

> <i_lp_mmshare_version>
43012

> <i_f3d_flags>
0

> <s_epik_input>
W0NIM11bQ0gyXU4xW0NIMl1bQ0gyXVtDSDJdW0NASF0oW0NIMl0xKVtOSF1DKD1PKVtOSF1jMltjSF1bY0hdYyhOKFtDSDNdKVtDSDNdKW5bY0hdMg==

> <s_epik_cmdline>
J2VwaWtfcHl0aG9uJywgJy1waCcsICc3LjAnLCAnLXRuJywgJzgnLCAnLW1hJywgJzIwMCcsICctbWV0YWxfYmluZGluZycsICctaW1hZScsICc8aW5maWxlLm1hZT4nLCAnLW9tYWUnLCAnPG91dGZpbGUubWFlPic=

> <r_lp_tautomer_probability>
0.999994

> <r_epik_Ionization_Penalty>
0.346711

> <r_epik_Ionization_Penalty_Charging>
0.346691

> <r_epik_Ionization_Penalty_Neutral>
1.93006e-05

> <r_epik_State_Penalty>
0.339838

> <r_epik_Charging_Adjusted_Penalty>
0.68653

> <i_epik_Tot_Q>
2

> <i_epik_Tot_abs_Q>
2

> <r_epik_Metal_State_Penalty>
0.600835

> <b_epik_Metal_Only>
0

> <s_lp_Force_Field>
OPLS_2005

> <r_lp_Energy>
35.5794

> <b_lp_Chiralities_Consistent>
1

> <s_lp_Variant>
AV-unprocessed.smi:1093-3

> <Gold.Version>
5.8.1

> <Gold.Id.Protein>
6NUR|6NUR_protein|mol2

> <Gold.PLP.Fitness>
45.5990

> <Gold.PLP.PLP>
-31.5887

> <Gold.PLP.part.hbond>
-4.8730

> <Gold.PLP.part.metal>
0.0000

> <Gold.PLP.part.buried>
-1.9119

> <Gold.PLP.part.nonpolar>
-25.5994

> <Gold.PLP.part.repulsive>
0.1211

> <Gold.PLP.ligand.clash>
0.0000

> <Gold.PLP.ligand.torsion>
0.9396

> <Gold.PLP.Chemscore.Hbond>
5.2807

> <Gold.PLP.Chemscore.CHOScore>
0.0000

> <Gold.PLP.Chemscore.Metal>
0.0000

> <Gold.Chemscore.Hbonds>
donor molecule, donor type, donor heavy atom, donor atom, acceptor molecule, acceptor atom, score
      L1  H     3    47       P1 10175  1.55
      L1  H     8    34       P1 10175  0.98
      L1  H    11    35       P1 10175  0.65
      L1  H    19    48       P1 10186  1.95

> <Gold.PLP.Chemscore.Internal.Correction>
0.0473

> <Gold.Rescore>
     Score         DG    S(hbond)    S(metal)    S(lipo)     H(rot)  DE(clash)    DE(int)     intcor
     15.99     -18.92       2.52        0.00      69.22       1.19       0.95       1.98       ----

> <Gold.Chemscore.Fitness>
15.9852

> <Gold.Chemscore.DG>
-18.9229

> <Gold.Chemscore.ZeroCoef>
-5.4800

> <Gold.Chemscore.Hbond>
2.5160

> <Gold.Chemscore.Metal>
0.0000

> <Gold.Chemscore.Lipo>
69.2167

> <Gold.Chemscore.Internal_Hbond>
0.0000

> <Gold.Chemscore.DEClash>
0.9546

> <Gold.Chemscore.DEInternal>
1.9831

> <Gold.Chemscore.Rot>
1.1949

> <Gold.Chemscore.Internal.Correction>
   9.000000E+99

> <Gold.Chemscore.Hbonds>
donor molecule, donor type, donor heavy atom, donor atom, acceptor molecule, acceptor atom, score
      L1  H     3    47       P1 10175  0.13
      L1  H     8    34       P1 10175  0.91
      L1  H    11    35       P1 10175  0.64
      L1  H    19    48       P1 10186  0.48

> <Gold.Chemscore.Hbond.Weighted>
-8.4036

> <Gold.Chemscore.Metal.Weighted>
-0.0000

> <Gold.Chemscore.Lipo.Weighted>
-8.0984

> <Gold.Chemscore.Internal_Hbond.Weighted>
0.0000

> <Gold.Chemscore.DEClash.Weighted>
0.9546

> <Gold.Chemscore.DEInternal.Weighted>
1.9831

> <Gold.Chemscore.Rot.Weighted>
3.0590

> <Gold.Chemscore.Internal.Correction.Weighted>
   9.000000E+99

> <Gold.Protein.RotatedTorsions>
[ 6907 6896 6895 6894 ] final  -52.03 input  -60.11 | X-H torsion
[ 7974 7965 7964 7962 ] final -124.44 input  175.53 | X-H torsion
[ 8008 7997 7996 7995 ] final -129.50 input   59.86 | X-H torsion
[ 10167 10162 10161 10158 ] final  163.88 input  -65.29 | X-H torsion
[ 10718 10713 10712 10709 ] final  -10.76 input   66.30 | X-H torsion
[ 10763 10752 10751 10750 ] final    4.90 input  -60.55 | X-H torsion
[ 11005 11000 10999 10996 ] final  109.42 input  -57.11 | X-H torsion

> <Gold.Protein.ActiveResidues>
 VAL166  LYS551  ARG553  GLY616  TRP617  ASP618  TYR619  PRO620  LYS621  CYS622 
 ASP623  PHE694  ASN695  SER759  ASP760  ASP761  ALA762  ILE779  LEU786  VAL792 
 PHE793  MET794  SER795  GLU796  ALA797  LYS798  CYS799  TRP800  GLU811  SER814 

> <Gold.Protein.RotatedAtoms>
  150.8555  134.7893  159.7042 H   0  0  0  0  0  0  0  0  0  0  0  0  # atno 6907 bound_to 6896
  152.4608  134.5185  159.9785 H   0  0  0  0  0  0  0  0  0  0  0  0  # atno 6908 bound_to 6896
  151.5298  133.3413  159.2952 H   0  0  0  0  0  0  0  0  0  0  0  0  # atno 6909 bound_to 6896
  145.0081  140.7881  143.4455 H   0  0  0  0  0  0  0  0  0  0  0  0  # atno 7974 bound_to 7965
  155.2802  140.0444  157.3015 H   0  0  0  0  0  0  0  0  0  0  0  0  # atno 8008 bound_to 7997
  154.5601  140.2343  155.8317 H   0  0  0  0  0  0  0  0  0  0  0  0  # atno 8009 bound_to 7997
  156.2040  140.3017  155.9595 H   0  0  0  0  0  0  0  0  0  0  0  0  # atno 8010 bound_to 7997
  139.4880  144.4292  151.9091 H   0  0  0  0  0  0  0  0  0  0  0  0  # atno 10167 bound_to 10162
  156.6688  130.5003  149.6007 H   0  0  0  0  0  0  0  0  0  0  0  0  # atno 10718 bound_to 10713
  153.2658  135.6927  153.7531 H   0  0  0  0  0  0  0  0  0  0  0  0  # atno 10763 bound_to 10752
  153.6573  135.3366  155.3118 H   0  0  0  0  0  0  0  0  0  0  0  0  # atno 10764 bound_to 10752
  154.8446  135.4469  154.1664 H   0  0  0  0  0  0  0  0  0  0  0  0  # atno 10765 bound_to 10752
  139.8862  134.9457  156.6123 H   0  0  0  0  0  0  0  0  0  0  0  0  # atno 11005 bound_to 11000
  145.2061  139.2228  143.5167 LP  0  0  0  0  0  0  0  0  0  0  0  0  # atno 17320 bound_to 7965
  146.3465  140.1889  142.8589 LP  0  0  0  0  0  0  0  0  0  0  0  0  # atno 17321 bound_to 7965
  140.3739  144.2820  150.5916 LP  0  0  0  0  0  0  0  0  0  0  0  0  # atno 17342 bound_to 10162
  140.5294  143.2247  151.8263 LP  0  0  0  0  0  0  0  0  0  0  0  0  # atno 17343 bound_to 10162
  156.1955  130.6587  151.1109 LP  0  0  0  0  0  0  0  0  0  0  0  0  # atno 17370 bound_to 10713
  157.7084  131.0745  150.6586 LP  0  0  0  0  0  0  0  0  0  0  0  0  # atno 17371 bound_to 10713
  140.7802  133.8666  155.8562 LP  0  0  0  0  0  0  0  0  0  0  0  0  # atno 17394 bound_to 11000
  140.9767  134.1460  157.4530 LP  0  0  0  0  0  0  0  0  0  0  0  0  # atno 17395 bound_to 11000

$$$$
