AV-unprocessed.smi:2368|AV-procd|sdf|9427|dock3
  -GOLD-   2272013 63D 1   1.00000     0.00000
 Structure written by MMmdl.
 35 36  0  0  0  0  0  0  0  0  1 V2000
  152.5307  144.0600  161.8678 C   0  0  0  0  0  0  0  0  0  0  0  0
  152.4749  143.0284  160.7564 C   0  0  0  0  0  0  0  0  0  0  0  0
  153.2696  141.9487  160.9218 N   0  0  0  0  0  0  0  0  0  0  0  0
  153.2527  140.9971  159.9666 C   0  0  0  0  0  0  0  0  0  0  0  0
  152.4551  141.0745  158.8091 C   0  0  0  0  0  0  0  0  0  0  0  0
  151.6309  142.2112  158.6243 C   0  0  0  0  0  0  0  0  0  0  0  0
  150.7690  142.3887  157.5047 N   0  0  0  0  0  0  0  0  0  0  0  0
  150.5355  141.5621  156.4705 C   0  0  0  0  0  0  0  0  0  0  0  0
  151.0778  140.4727  156.2872 O   0  0  0  0  0  0  0  0  0  0  0  0
  149.6283  142.0828  155.6319 N   0  0  0  0  0  0  0  0  0  0  0  0
  149.1383  141.4297  154.4229 C   0  0  2  0  0  0  0  0  0  0  0  0
  147.8065  141.9991  154.0180 C   0  0  0  0  0  0  0  0  0  0  0  0
  146.8376  141.0863  154.0099 C   0  0  0  0  0  0  0  0  0  0  0  0
  147.3140  139.7224  154.4355 C   0  0  1  0  0  0  0  0  0  0  0  0
  146.9547  138.6341  153.4104 C   0  0  0  0  0  0  0  0  0  0  0  0
  147.4421  137.3807  153.8407 O   0  0  0  0  0  0  0  0  0  0  0  0
  148.8393  139.9223  154.6355 C   0  0  0  0  0  0  0  0  0  0  0  0
  151.6363  143.2062  159.6307 C   0  0  0  0  0  0  0  0  0  0  0  0
  150.6400  144.6163  159.4879 Cl  0  0  0  0  0  0  0  0  0  0  0  0
  149.8439  141.5751  153.6030 H   0  0  0  0  0  0  0  0  0  0  0  0
  146.8397  139.4978  155.3919 H   0  0  0  0  0  0  0  0  0  0  0  0
  151.5429  144.1976  162.3083 H   0  0  0  0  0  0  0  0  0  0  0  0
  152.8716  145.0193  161.4777 H   0  0  0  0  0  0  0  0  0  0  0  0
  153.2143  143.7574  162.6622 H   0  0  0  0  0  0  0  0  0  0  0  0
  153.8906  140.1418  160.1328 H   0  0  0  0  0  0  0  0  0  0  0  0
  152.4852  140.2598  158.1030 H   0  0  0  0  0  0  0  0  0  0  0  0
  150.2987  143.2814  157.4682 H   0  0  0  0  0  0  0  0  0  0  0  0
  149.2370  142.9871  155.8516 H   0  0  0  0  0  0  0  0  0  0  0  0
  147.6817  143.0396  153.7552 H   0  0  0  0  0  0  0  0  0  0  0  0
  145.8071  141.2790  153.7501 H   0  0  0  0  0  0  0  0  0  0  0  0
  145.8728  138.5615  153.2952 H   0  0  0  0  0  0  0  0  0  0  0  0
  147.3699  138.8672  152.4293 H   0  0  0  0  0  0  0  0  0  0  0  0
  147.8497  136.9477  153.1061 H   0  0  0  0  0  0  0  0  0  0  0  0
  149.4066  139.3367  153.9107 H   0  0  0  0  0  0  0  0  0  0  0  0
  149.1463  139.5726  155.6222 H   0  0  0  0  0  0  0  0  0  0  0  0
  1  2  1  0  0  0  0
  1 22  1  0  0  0  0
  1 23  1  0  0  0  0
  1 24  1  0  0  0  0
  2 18  1  0  0  0  0
  2  3  2  0  0  0  0
  3  4  1  0  0  0  0
  4  5  2  0  0  0  0
  4 25  1  0  0  0  0
  5  6  1  0  0  0  0
  5 26  1  0  0  0  0
  6  7  1  0  0  0  0
  6 18  2  0  0  0  0
  7  8  1  0  0  0  0
  7 27  1  0  0  0  0
  8  9  2  0  0  0  0
  8 10  1  0  0  0  0
 10 11  1  0  0  0  0
 10 28  1  0  0  0  0
 11 20  1  0  0  0  0
 11 17  1  0  0  0  0
 11 12  1  0  0  0  0
 12 13  2  0  0  0  0
 12 29  1  0  0  0  0
 13 14  1  0  0  0  0
 13 30  1  0  0  0  0
 14 21  1  0  0  0  0
 14 15  1  0  0  0  0
 14 17  1  0  0  0  0
 15 16  1  0  0  0  0
 15 31  1  0  0  0  0
 15 32  1  0  0  0  0
 16 33  1  0  0  0  0
 17 34  1  0  0  0  0
 17 35  1  0  0  0  0
 18 19  1  0  0  0  0
M  END
> <s_m_source_file>
AV-unprocessed.smi

> <i_m_source_file_index>
2368

> <i_lp_mmshare_version>
43012

> <i_f3d_flags>
0

> <s_epik_input>
W0NIM11jMW5bY0hdW2NIXWMoYzFDbClbTkhdQyg9TylbTkhdW0NAQEhdMltDSF09W0NIXVtDQEBIXShbQ0gyXTIpW0NIMl1bT0hd

> <s_epik_cmdline>
J2VwaWtfcHl0aG9uJywgJy1waCcsICc3LjAnLCAnLXRuJywgJzgnLCAnLW1hJywgJzIwMCcsICctbWV0YWxfYmluZGluZycsICctaW1hZScsICc8aW5maWxlLm1hZT4nLCAnLW9tYWUnLCAnPG91dGZpbGUubWFlPic=

> <r_epik_Ionization_Penalty>
0.00964582

> <r_epik_Ionization_Penalty_Charging>
0

> <r_epik_Ionization_Penalty_Neutral>
0.00964582

> <r_epik_State_Penalty>
0.00730775

> <r_epik_Charging_Adjusted_Penalty>
0.00730775

> <i_epik_Tot_Q>
0

> <i_epik_Tot_abs_Q>
0

> <r_epik_Metal_State_Penalty>
0.00719079

> <b_epik_Metal_Only>
0

> <s_lp_Force_Field>
OPLS_2005

> <r_lp_Energy>
22.0768

> <b_lp_Chiralities_Consistent>
1

> <s_lp_Variant>
AV-unprocessed.smi:2368-3

> <Gold.Version>
5.8.1

> <Gold.Id.Protein>
6NUR|6NUR_protein|mol2

> <Gold.PLP.Fitness>
44.6732

> <Gold.PLP.PLP>
-39.2001

> <Gold.PLP.part.hbond>
-2.0000

> <Gold.PLP.part.metal>
0.0000

> <Gold.PLP.part.buried>
-5.8846

> <Gold.PLP.part.nonpolar>
-30.6636

> <Gold.PLP.part.repulsive>
0.1871

> <Gold.PLP.ligand.clash>
0.0000

> <Gold.PLP.ligand.torsion>
0.2710

> <Gold.PLP.Chemscore.Hbond>
2.0000

> <Gold.PLP.Chemscore.CHOScore>
0.0000

> <Gold.PLP.Chemscore.Metal>
0.0000

> <Gold.Chemscore.Hbonds>
donor molecule, donor type, donor heavy atom, donor atom, acceptor molecule, acceptor atom, score
      L1  H    10    28       P1  8028  1.00
      L1  H    16    33       P1  7948  1.00

> <Gold.PLP.Chemscore.Internal.Correction>
0.0152

> <Gold.Rescore>
     Score         DG    S(hbond)    S(metal)    S(lipo)     H(rot)  DE(clash)    DE(int)     intcor
     17.59     -20.41       1.97        0.00     110.24       1.78       0.10       2.72       ----

> <Gold.Chemscore.Fitness>
17.5928

> <Gold.Chemscore.DG>
-20.4119

> <Gold.Chemscore.ZeroCoef>
-5.4800

> <Gold.Chemscore.Hbond>
1.9729

> <Gold.Chemscore.Metal>
0.0000

> <Gold.Chemscore.Lipo>
110.2428

> <Gold.Chemscore.Internal_Hbond>
0.0000

> <Gold.Chemscore.DEClash>
0.1021

> <Gold.Chemscore.DEInternal>
2.7170

> <Gold.Chemscore.Rot>
1.7796

> <Gold.Chemscore.Internal.Correction>
   9.000000E+99

> <Gold.Chemscore.Hbonds>
donor molecule, donor type, donor heavy atom, donor atom, acceptor molecule, acceptor atom, score
      L1  H    10    28       P1  8028  0.99
      L1  H    16    33       P1  7948  1.00

> <Gold.Chemscore.Hbond.Weighted>
-6.5893

> <Gold.Chemscore.Metal.Weighted>
-0.0000

> <Gold.Chemscore.Lipo.Weighted>
-12.8984

> <Gold.Chemscore.Internal_Hbond.Weighted>
0.0000

> <Gold.Chemscore.DEClash.Weighted>
0.1021

> <Gold.Chemscore.DEInternal.Weighted>
2.7170

> <Gold.Chemscore.Rot.Weighted>
4.5558

> <Gold.Chemscore.Internal.Correction.Weighted>
   9.000000E+99

> <Gold.Protein.RotatedTorsions>
[ 6907 6896 6895 6894 ] final  102.22 input  -60.11 | X-H torsion
[ 7974 7965 7964 7962 ] final   30.50 input  175.53 | X-H torsion
[ 8008 7997 7996 7995 ] final   84.39 input   59.86 | X-H torsion
[ 10167 10162 10161 10158 ] final  -27.22 input  -65.29 | X-H torsion
[ 10718 10713 10712 10709 ] final  144.70 input   66.30 | X-H torsion
[ 10763 10752 10751 10750 ] final -167.94 input  -60.55 | X-H torsion
[ 11005 11000 10999 10996 ] final    1.86 input  -57.11 | X-H torsion

> <Gold.Protein.ActiveResidues>
 VAL166  LYS551  ARG553  GLY616  TRP617  ASP618  TYR619  PRO620  LYS621  CYS622 
 ASP623  PHE694  ASN695  SER759  ASP760  ASP761  ALA762  ILE779  LEU786  VAL792 
 PHE793  MET794  SER795  GLU796  ALA797  LYS798  CYS799  TRP800  GLU811  SER814 

> <Gold.Protein.RotatedAtoms>
  152.5329  134.0009  159.7893 H   0  0  0  0  0  0  0  0  0  0  0  0  # atno 6907 bound_to 6896
  151.0228  133.5853  159.2676 H   0  0  0  0  0  0  0  0  0  0  0  0  # atno 6908 bound_to 6896
  151.2887  135.0742  159.9249 H   0  0  0  0  0  0  0  0  0  0  0  0  # atno 6909 bound_to 6896
  146.1608  139.6780  142.9035 H   0  0  0  0  0  0  0  0  0  0  0  0  # atno 7974 bound_to 7965
  155.9364  140.3411  155.6291 H   0  0  0  0  0  0  0  0  0  0  0  0  # atno 8008 bound_to 7997
  155.7094  140.0770  157.2396 H   0  0  0  0  0  0  0  0  0  0  0  0  # atno 8009 bound_to 7997
  154.4094  140.1625  156.2267 H   0  0  0  0  0  0  0  0  0  0  0  0  # atno 8010 bound_to 7997
  140.7278  143.4112  151.1103 H   0  0  0  0  0  0  0  0  0  0  0  0  # atno 10167 bound_to 10162
  157.3540  131.0955  151.0975 H   0  0  0  0  0  0  0  0  0  0  0  0  # atno 10718 bound_to 10713
  154.6680  135.2935  154.9780 H   0  0  0  0  0  0  0  0  0  0  0  0  # atno 10763 bound_to 10752
  154.0817  135.6603  153.4843 H   0  0  0  0  0  0  0  0  0  0  0  0  # atno 10764 bound_to 10752
  153.0469  135.5199  154.7662 H   0  0  0  0  0  0  0  0  0  0  0  0  # atno 10765 bound_to 10752
  140.6108  133.9750  155.8176 H   0  0  0  0  0  0  0  0  0  0  0  0  # atno 11005 bound_to 11000
  145.4594  141.0432  143.2760 LP  0  0  0  0  0  0  0  0  0  0  0  0  # atno 17320 bound_to 7965
  144.8024  139.6115  143.7066 LP  0  0  0  0  0  0  0  0  0  0  0  0  # atno 17321 bound_to 7965
  139.7745  143.8445  152.3127 LP  0  0  0  0  0  0  0  0  0  0  0  0  # atno 17342 bound_to 10162
  139.8375  144.7225  150.9373 LP  0  0  0  0  0  0  0  0  0  0  0  0  # atno 17343 bound_to 10162
  157.2140  130.6450  149.5785 LP  0  0  0  0  0  0  0  0  0  0  0  0  # atno 17370 bound_to 10713
  155.9726  130.4651  150.6241 LP  0  0  0  0  0  0  0  0  0  0  0  0  # atno 17371 bound_to 10713
  141.0809  134.0063  157.3387 LP  0  0  0  0  0  0  0  0  0  0  0  0  # atno 17394 bound_to 11000
  139.9193  135.0199  156.8003 LP  0  0  0  0  0  0  0  0  0  0  0  0  # atno 17395 bound_to 11000

$$$$
