AV-unprocessed.smi:3058|AV-procd|sdf|11671|dock1
  -GOLD-   2272017 73D 1   1.00000     0.00000
 Structure written by MMmdl.
 38 40  0  0  0  0  0  0  0  0  1 V2000
  149.9930  141.7062  158.7105 O   0  0  0  0  0  0  0  0  0  0  0  0
  151.0408  141.8872  158.0887 C   0  0  0  0  0  0  0  0  0  0  0  0
  151.4814  141.0461  157.1406 N   0  0  0  0  0  0  0  0  0  0  0  0
  150.7992  139.8306  156.7137 C   0  0  0  0  0  0  0  0  0  0  0  0
  150.8135  139.6826  155.1838 C   0  0  0  0  0  0  0  0  0  0  0  0
  149.4833  140.0581  154.5613 C   0  0  0  0  0  0  0  0  0  0  0  0
  148.6607  139.0797  153.9657 C   0  0  0  0  0  0  0  0  0  0  0  0
  147.4323  139.4778  153.4035 C   0  0  0  0  0  0  0  0  0  0  0  0
  147.0781  140.8406  153.4622 C   0  0  0  0  0  0  0  0  0  0  0  0
  147.8573  141.7857  154.0311 N   0  0  0  0  0  0  0  0  0  0  0  0
  149.0338  141.3958  154.5674 C   0  0  0  0  0  0  0  0  0  0  0  0
  151.9435  143.0969  158.3898 C   0  0  2  0  0  0  0  0  0  0  0  0
  152.4613  143.1717  159.8478 C   0  0  0  0  0  0  0  0  0  0  0  0
  152.0687  144.5968  160.2818 C   0  0  2  0  0  0  0  0  0  0  0  0
  150.5463  144.6659  160.5039 C   0  0  0  0  0  0  0  0  0  0  0  0
  149.9929  144.6448  159.0673 C   0  0  0  0  0  0  0  0  0  0  0  0
  151.2698  144.4838  158.2129 C   0  0  1  0  0  0  0  0  0  0  0  0
  152.2369  145.3781  158.9835 C   0  0  0  0  0  0  0  0  0  0  0  0
  152.3553  141.2633  156.6837 H   0  0  0  0  0  0  0  0  0  0  0  0
  151.2533  138.9588  157.1885 H   0  0  0  0  0  0  0  0  0  0  0  0
  149.7706  139.8795  157.0723 H   0  0  0  0  0  0  0  0  0  0  0  0
  151.5939  140.3120  154.7543 H   0  0  0  0  0  0  0  0  0  0  0  0
  151.0577  138.6569  154.9039 H   0  0  0  0  0  0  0  0  0  0  0  0
  148.9633  138.0429  153.9405 H   0  0  0  0  0  0  0  0  0  0  0  0
  146.7766  138.7563  152.9391 H   0  0  0  0  0  0  0  0  0  0  0  0
  146.1432  141.1804  153.0415 H   0  0  0  0  0  0  0  0  0  0  0  0
  149.6330  142.1745  155.0162 H   0  0  0  0  0  0  0  0  0  0  0  0
  152.8085  143.0473  157.7252 H   0  0  0  0  0  0  0  0  0  0  0  0
  152.0434  142.4159  160.5142 H   0  0  0  0  0  0  0  0  0  0  0  0
  153.5454  143.0525  159.8674 H   0  0  0  0  0  0  0  0  0  0  0  0
  152.6501  144.9713  161.1247 H   0  0  0  0  0  0  0  0  0  0  0  0
  150.1795  143.8314  161.1025 H   0  0  0  0  0  0  0  0  0  0  0  0
  150.2656  145.5906  161.0096 H   0  0  0  0  0  0  0  0  0  0  0  0
  149.2501  143.8645  158.9075 H   0  0  0  0  0  0  0  0  0  0  0  0
  149.5072  145.5948  158.8405 H   0  0  0  0  0  0  0  0  0  0  0  0
  151.1343  144.7695  157.1693 H   0  0  0  0  0  0  0  0  0  0  0  0
  151.9062  146.4158  159.0567 H   0  0  0  0  0  0  0  0  0  0  0  0
  153.2560  145.3559  158.5934 H   0  0  0  0  0  0  0  0  0  0  0  0
  1  2  2  0  0  0  0
  2  3  1  0  0  0  0
  2 12  1  0  0  0  0
  3  4  1  0  0  0  0
  3 19  1  0  0  0  0
  4  5  1  0  0  0  0
  4 20  1  0  0  0  0
  4 21  1  0  0  0  0
  5  6  1  0  0  0  0
  5 22  1  0  0  0  0
  5 23  1  0  0  0  0
  6 11  1  0  0  0  0
  6  7  2  0  0  0  0
  7  8  1  0  0  0  0
  7 24  1  0  0  0  0
  8  9  2  0  0  0  0
  8 25  1  0  0  0  0
  9 10  1  0  0  0  0
  9 26  1  0  0  0  0
 10 11  2  0  0  0  0
 11 27  1  0  0  0  0
 12 17  1  0  0  0  0
 12 13  1  0  0  0  0
 12 28  1  0  0  0  0
 13 14  1  0  0  0  0
 13 29  1  0  0  0  0
 13 30  1  0  0  0  0
 14 18  1  0  0  0  0
 14 15  1  0  0  0  0
 14 31  1  0  0  0  0
 15 16  1  0  0  0  0
 15 32  1  0  0  0  0
 15 33  1  0  0  0  0
 16 17  1  0  0  0  0
 16 34  1  0  0  0  0
 16 35  1  0  0  0  0
 17 18  1  0  0  0  0
 17 36  1  0  0  0  0
 18 37  1  0  0  0  0
 18 38  1  0  0  0  0
M  END
> <s_m_source_file>
AV-unprocessed.smi

> <i_m_source_file_index>
3058

> <i_lp_mmshare_version>
43012

> <i_f3d_flags>
0

> <s_epik_input>
W0NIMl0xW0NIMl1bQ0BIXShbQ0gyXTIpW0NAQEhdKFtDSDJdW0NAQEhdMTIpQyg9TylbTkhdW0NIMl1bQ0gyXWMzW2NIXVtjSF1bY0hdbltjSF0z

> <s_epik_cmdline>
J2VwaWtfcHl0aG9uJywgJy1waCcsICc3LjAnLCAnLXRuJywgJzgnLCAnLW1hJywgJzIwMCcsICctbWV0YWxfYmluZGluZycsICctaW1hZScsICc8aW5maWxlLm1hZT4nLCAnLW9tYWUnLCAnPG91dGZpbGUubWFlPic=

> <r_epik_Ionization_Penalty>
0.0135821

> <r_epik_Ionization_Penalty_Charging>
0

> <r_epik_Ionization_Penalty_Neutral>
0.0135821

> <r_epik_State_Penalty>
0.0105782

> <r_epik_Charging_Adjusted_Penalty>
0.0105782

> <i_epik_Tot_Q>
0

> <i_epik_Tot_abs_Q>
0

> <r_epik_Metal_State_Penalty>
0.0103407

> <b_epik_Metal_Only>
0

> <s_lp_Force_Field>
OPLS_2005

> <r_lp_Energy>
46.6846

> <b_lp_Chiralities_Consistent>
1

> <s_lp_Variant>
AV-unprocessed.smi:3058-3

> <Gold.Version>
5.8.1

> <Gold.Id.Protein>
6NUR|6NUR_protein|mol2

> <Gold.PLP.Fitness>
44.5204

> <Gold.PLP.PLP>
-39.5037

> <Gold.PLP.part.hbond>
-0.6323

> <Gold.PLP.part.metal>
0.0000

> <Gold.PLP.part.buried>
-2.2759

> <Gold.PLP.part.nonpolar>
-37.7748

> <Gold.PLP.part.repulsive>
0.2774

> <Gold.PLP.ligand.clash>
0.0000

> <Gold.PLP.ligand.torsion>
0.4880

> <Gold.PLP.Chemscore.Hbond>
0.0000

> <Gold.PLP.Chemscore.CHOScore>
1.9818

> <Gold.PLP.Chemscore.Metal>
0.0000

> <Gold.Chemscore.Hbonds>
donor molecule, donor type, donor heavy atom, donor atom, acceptor molecule, acceptor atom, score
      L1  C     9    26       P1 10175  0.77
      L1  C    11    27       P1  8028  0.50

> <Gold.PLP.Chemscore.Internal.Correction>
0.0474

> <Gold.Rescore>
     Score         DG    S(hbond)    S(metal)    S(lipo)     H(rot)  DE(clash)    DE(int)     intcor
     15.19     -16.80       0.00        0.00     126.64       1.37       0.31       1.31       ----

> <Gold.Chemscore.Fitness>
15.1858

> <Gold.Chemscore.DG>
-16.8017

> <Gold.Chemscore.ZeroCoef>
-5.4800

> <Gold.Chemscore.Hbond>
0.0000

> <Gold.Chemscore.Metal>
0.0000

> <Gold.Chemscore.Lipo>
126.6397

> <Gold.Chemscore.Internal_Hbond>
0.0000

> <Gold.Chemscore.DEClash>
0.3055

> <Gold.Chemscore.DEInternal>
1.3104

> <Gold.Chemscore.Rot>
1.3653

> <Gold.Chemscore.Internal.Correction>
   9.000000E+99

> <Gold.Chemscore.Hbond.Weighted>
-0.0000

> <Gold.Chemscore.Metal.Weighted>
-0.0000

> <Gold.Chemscore.Lipo.Weighted>
-14.8168

> <Gold.Chemscore.Internal_Hbond.Weighted>
0.0000

> <Gold.Chemscore.DEClash.Weighted>
0.3055

> <Gold.Chemscore.DEInternal.Weighted>
1.3104

> <Gold.Chemscore.Rot.Weighted>
3.4951

> <Gold.Chemscore.Internal.Correction.Weighted>
   9.000000E+99

> <Gold.Protein.RotatedTorsions>
[ 6907 6896 6895 6894 ] final -119.83 input  -60.11 | X-H torsion
[ 7974 7965 7964 7962 ] final   58.54 input  175.53 | X-H torsion
[ 8008 7997 7996 7995 ] final  103.34 input   59.86 | X-H torsion
[ 10167 10162 10161 10158 ] final  -30.92 input  -65.29 | X-H torsion
[ 10718 10713 10712 10709 ] final  -19.08 input   66.30 | X-H torsion
[ 10763 10752 10751 10750 ] final  160.26 input  -60.55 | X-H torsion
[ 11005 11000 10999 10996 ] final  155.09 input  -57.11 | X-H torsion

> <Gold.Protein.ActiveResidues>
 VAL166  LYS551  ARG553  GLY616  TRP617  ASP618  TYR619  PRO620  LYS621  CYS622 
 ASP623  PHE694  ASN695  SER759  ASP760  ASP761  ALA762  ILE779  LEU786  VAL792 
 PHE793  MET794  SER795  GLU796  ALA797  LYS798  CYS799  TRP800  GLU811  SER814 

> <Gold.Protein.RotatedAtoms>
  150.8339  133.8045  159.3087 H   0  0  0  0  0  0  0  0  0  0  0  0  # atno 6907 bound_to 6896
  151.5767  135.1058  160.0017 H   0  0  0  0  0  0  0  0  0  0  0  0  # atno 6908 bound_to 6896
  152.4414  133.7414  159.6699 H   0  0  0  0  0  0  0  0  0  0  0  0  # atno 6909 bound_to 6896
  145.9171  139.3699  143.0501 H   0  0  0  0  0  0  0  0  0  0  0  0  # atno 7974 bound_to 7965
  156.1475  140.3166  155.8594 H   0  0  0  0  0  0  0  0  0  0  0  0  # atno 8008 bound_to 7997
  155.4035  140.0501  157.3052 H   0  0  0  0  0  0  0  0  0  0  0  0  # atno 8009 bound_to 7997
  154.5029  140.2136  155.9321 H   0  0  0  0  0  0  0  0  0  0  0  0  # atno 8010 bound_to 7997
  140.7243  143.3811  151.1599 H   0  0  0  0  0  0  0  0  0  0  0  0  # atno 10167 bound_to 10162
  156.5506  130.4701  149.6454 H   0  0  0  0  0  0  0  0  0  0  0  0  # atno 10718 bound_to 10713
  154.2446  135.2773  155.2840 H   0  0  0  0  0  0  0  0  0  0  0  0  # atno 10763 bound_to 10752
  154.5516  135.5673  153.6931 H   0  0  0  0  0  0  0  0  0  0  0  0  # atno 10764 bound_to 10752
  152.9993  135.6276  154.2591 H   0  0  0  0  0  0  0  0  0  0  0  0  # atno 10765 bound_to 10752
  140.1550  134.8649  157.2502 H   0  0  0  0  0  0  0  0  0  0  0  0  # atno 11005 bound_to 11000
  145.8598  140.9482  143.0706 LP  0  0  0  0  0  0  0  0  0  0  0  0  # atno 17320 bound_to 7965
  144.6749  140.0515  143.7478 LP  0  0  0  0  0  0  0  0  0  0  0  0  # atno 17321 bound_to 7965
  139.7400  143.8939  152.3047 LP  0  0  0  0  0  0  0  0  0  0  0  0  # atno 17342 bound_to 10162
  139.8757  144.7044  150.8935 LP  0  0  0  0  0  0  0  0  0  0  0  0  # atno 17343 bound_to 10162
  156.2888  130.7112  151.1956 LP  0  0  0  0  0  0  0  0  0  0  0  0  # atno 17370 bound_to 10713
  157.7388  131.0536  150.5271 LP  0  0  0  0  0  0  0  0  0  0  0  0  # atno 17371 bound_to 10713
  140.2559  134.3628  155.7424 LP  0  0  0  0  0  0  0  0  0  0  0  0  # atno 17394 bound_to 11000
  141.2203  133.7342  156.9006 LP  0  0  0  0  0  0  0  0  0  0  0  0  # atno 17395 bound_to 11000

$$$$
