AV-unprocessed.smi:3174|AV-procd|sdf|12121|dock6
  -GOLD-   2272017563D 1   1.00000     0.00000
 Structure written by MMmdl.
 32 33  0  0  0  0  0  0  0  0  1 V2000
  145.9717  143.5401  153.5235 C   0  0  0  0  0  0  0  0  0  0  0  0
  146.3140  142.2157  153.8910 O   0  0  0  0  0  0  0  0  0  0  0  0
  147.7127  142.0342  154.0352 C   0  0  0  0  0  0  0  0  0  0  0  0
  148.0043  140.6240  154.5741 C   0  0  0  0  0  0  0  0  0  0  0  0
  149.3756  140.5079  155.0833 N   0  0  0  0  0  0  0  0  0  0  0  0
  149.6971  141.4488  156.0478 N   0  0  0  0  0  0  0  0  0  0  0  0
  150.8719  141.4502  156.5905 C   0  0  0  0  0  0  0  0  0  0  0  0
  151.2554  142.4436  157.6321 C   0  0  0  0  0  0  0  0  0  0  0  0
  151.9768  142.1405  158.5841 O   0  0  0  0  0  0  0  0  0  0  0  0
  150.7585  143.6805  157.4554 N   0  0  0  0  0  0  0  0  0  0  0  0
  150.9817  144.7974  158.3150 C   0  0  0  0  0  0  0  0  0  0  0  0
  152.3693  144.9718  158.8934 C   0  0  0  0  0  0  0  0  0  0  0  0
  151.2429  144.5152  159.7787 C   0  0  0  0  0  0  0  0  0  0  0  0
  151.8723  140.4712  156.2001 C   0  0  0  0  0  0  0  0  0  0  0  0
  151.5441  139.5585  155.2598 C   0  0  0  0  0  0  0  0  0  0  0  0
  150.2218  139.5327  154.6325 C   0  0  0  0  0  0  0  0  0  0  0  0
  149.9006  138.7074  153.7781 O   0  0  0  0  0  0  0  0  0  0  0  0
  144.8893  143.6247  153.4288 H   0  0  0  0  0  0  0  0  0  0  0  0
  146.4160  143.8109  152.5649 H   0  0  0  0  0  0  0  0  0  0  0  0
  146.3008  144.2563  154.2775 H   0  0  0  0  0  0  0  0  0  0  0  0
  148.1939  142.1570  153.0639 H   0  0  0  0  0  0  0  0  0  0  0  0
  148.1304  142.7909  154.7014 H   0  0  0  0  0  0  0  0  0  0  0  0
  147.2683  140.3504  155.3317 H   0  0  0  0  0  0  0  0  0  0  0  0
  147.8653  139.9007  153.7689 H   0  0  0  0  0  0  0  0  0  0  0  0
  150.1762  143.8404  156.6459 H   0  0  0  0  0  0  0  0  0  0  0  0
  150.4364  145.7144  158.0963 H   0  0  0  0  0  0  0  0  0  0  0  0
  153.1279  144.2378  158.6277 H   0  0  0  0  0  0  0  0  0  0  0  0
  152.7326  145.9886  159.0268 H   0  0  0  0  0  0  0  0  0  0  0  0
  150.8523  145.2273  160.5029 H   0  0  0  0  0  0  0  0  0  0  0  0
  151.2510  143.4767  160.1050 H   0  0  0  0  0  0  0  0  0  0  0  0
  152.8563  140.4658  156.6464 H   0  0  0  0  0  0  0  0  0  0  0  0
  152.2779  138.8245  154.9607 H   0  0  0  0  0  0  0  0  0  0  0  0
  1  2  1  0  0  0  0
  1 18  1  0  0  0  0
  1 19  1  0  0  0  0
  1 20  1  0  0  0  0
  2  3  1  0  0  0  0
  3  4  1  0  0  0  0
  3 21  1  0  0  0  0
  3 22  1  0  0  0  0
  4  5  1  0  0  0  0
  4 23  1  0  0  0  0
  4 24  1  0  0  0  0
  5 16  1  0  0  0  0
  5  6  1  0  0  0  0
  6  7  2  0  0  0  0
  7  8  1  0  0  0  0
  7 14  1  0  0  0  0
  8  9  2  0  0  0  0
  8 10  1  0  0  0  0
 10 11  1  0  0  0  0
 10 25  1  0  0  0  0
 11 13  1  0  0  0  0
 11 12  1  0  0  0  0
 11 26  1  0  0  0  0
 12 13  1  0  0  0  0
 12 27  1  0  0  0  0
 12 28  1  0  0  0  0
 13 29  1  0  0  0  0
 13 30  1  0  0  0  0
 14 15  2  0  0  0  0
 14 31  1  0  0  0  0
 15 16  1  0  0  0  0
 15 32  1  0  0  0  0
 16 17  2  0  0  0  0
M  END
> <s_m_source_file>
AV-unprocessed.smi

> <i_m_source_file_index>
3174

> <i_lp_mmshare_version>
43012

> <i_f3d_flags>
0

> <s_epik_input>
W0NIM11PW0NIMl1bQ0gyXW4xbmMoW2NIXVtjSF1jMT1PKUMoPU8pW05IXVtDSF0yW0NIMl1bQ0gyXTI=

> <s_epik_cmdline>
J2VwaWtfcHl0aG9uJywgJy1waCcsICc3LjAnLCAnLXRuJywgJzgnLCAnLW1hJywgJzIwMCcsICctbWV0YWxfYmluZGluZycsICctaW1hZScsICc8aW5maWxlLm1hZT4nLCAnLW9tYWUnLCAnPG91dGZpbGUubWFlPic=

> <r_lp_tautomer_probability>
1

> <r_epik_Ionization_Penalty>
5.63485e-07

> <r_epik_Ionization_Penalty_Charging>
6.67133e-09

> <r_epik_Ionization_Penalty_Neutral>
5.56814e-07

> <r_epik_State_Penalty>
-0

> <r_epik_Charging_Adjusted_Penalty>
6.67133e-09

> <i_epik_Tot_Q>
0

> <i_epik_Tot_abs_Q>
0

> <r_epik_Metal_State_Penalty>
-0

> <b_epik_Metal_Only>
0

> <s_lp_Force_Field>
OPLS_2005

> <r_lp_Energy>
37.1062

> <b_lp_Chiralities_Consistent>
1

> <s_lp_Variant>
AV-unprocessed.smi:3174-1

> <Gold.Version>
5.8.1

> <Gold.Id.Protein>
6NUR|6NUR_protein|mol2

> <Gold.PLP.Fitness>
38.8943

> <Gold.PLP.PLP>
-37.7425

> <Gold.PLP.part.hbond>
-1.0000

> <Gold.PLP.part.metal>
0.0000

> <Gold.PLP.part.buried>
-6.1483

> <Gold.PLP.part.nonpolar>
-30.8426

> <Gold.PLP.part.repulsive>
1.5724

> <Gold.PLP.ligand.clash>
0.0000

> <Gold.PLP.ligand.torsion>
0.9670

> <Gold.PLP.Chemscore.Hbond>
1.0000

> <Gold.PLP.Chemscore.CHOScore>
0.0000

> <Gold.PLP.Chemscore.Metal>
0.0000

> <Gold.Chemscore.Hbonds>
donor molecule, donor type, donor heavy atom, donor atom, acceptor molecule, acceptor atom, score
      L1  H    10    25       P1  8028  1.00

> <Gold.PLP.Chemscore.Internal.Correction>
0.0857

> <Gold.Rescore>
     Score         DG    S(hbond)    S(metal)    S(lipo)     H(rot)  DE(clash)    DE(int)     intcor
     10.21     -13.63       0.98        0.00      78.41       1.68       0.02       3.41       ----

> <Gold.Chemscore.Fitness>
10.2065

> <Gold.Chemscore.DG>
-13.6315

> <Gold.Chemscore.ZeroCoef>
-5.4800

> <Gold.Chemscore.Hbond>
0.9780

> <Gold.Chemscore.Metal>
0.0000

> <Gold.Chemscore.Lipo>
78.4149

> <Gold.Chemscore.Internal_Hbond>
0.0000

> <Gold.Chemscore.DEClash>
0.0179

> <Gold.Chemscore.DEInternal>
3.4071

> <Gold.Chemscore.Rot>
1.6756

> <Gold.Chemscore.Internal.Correction>
   9.000000E+99

> <Gold.Chemscore.Hbonds>
donor molecule, donor type, donor heavy atom, donor atom, acceptor molecule, acceptor atom, score
      L1  H    10    25       P1  8028  0.98

> <Gold.Chemscore.Hbond.Weighted>
-3.2664

> <Gold.Chemscore.Metal.Weighted>
-0.0000

> <Gold.Chemscore.Lipo.Weighted>
-9.1745

> <Gold.Chemscore.Internal_Hbond.Weighted>
0.0000

> <Gold.Chemscore.DEClash.Weighted>
0.0179

> <Gold.Chemscore.DEInternal.Weighted>
3.4071

> <Gold.Chemscore.Rot.Weighted>
4.2894

> <Gold.Chemscore.Internal.Correction.Weighted>
   9.000000E+99

> <Gold.Protein.RotatedTorsions>
[ 6907 6896 6895 6894 ] final -162.67 input  -60.11 | X-H torsion
[ 7974 7965 7964 7962 ] final   47.57 input  175.53 | X-H torsion
[ 8008 7997 7996 7995 ] final   92.53 input   59.86 | X-H torsion
[ 10167 10162 10161 10158 ] final  -89.74 input  -65.29 | X-H torsion
[ 10718 10713 10712 10709 ] final  136.29 input   66.30 | X-H torsion
[ 10763 10752 10751 10750 ] final   65.66 input  -60.55 | X-H torsion
[ 11005 11000 10999 10996 ] final  170.09 input  -57.11 | X-H torsion

> <Gold.Protein.ActiveResidues>
 VAL166  LYS551  ARG553  GLY616  TRP617  ASP618  TYR619  PRO620  LYS621  CYS622 
 ASP623  PHE694  ASN695  SER759  ASP760  ASP761  ALA762  ILE779  LEU786  VAL792 
 PHE793  MET794  SER795  GLU796  ALA797  LYS798  CYS799  TRP800  GLU811  SER814 

> <Gold.Protein.RotatedAtoms>
  151.3840  133.3811  159.2712 H   0  0  0  0  0  0  0  0  0  0  0  0  # atno 6907 bound_to 6896
  150.9556  134.8952  159.7709 H   0  0  0  0  0  0  0  0  0  0  0  0  # atno 6908 bound_to 6896
  152.5129  134.3797  159.9399 H   0  0  0  0  0  0  0  0  0  0  0  0  # atno 6909 bound_to 6896
  146.0286  139.4736  142.9852 H   0  0  0  0  0  0  0  0  0  0  0  0  # atno 7974 bound_to 7965
  156.0364  140.3324  155.7195 H   0  0  0  0  0  0  0  0  0  0  0  0  # atno 8008 bound_to 7997
  155.5809  140.0637  157.2801 H   0  0  0  0  0  0  0  0  0  0  0  0  # atno 8009 bound_to 7997
  154.4374  140.1844  156.0964 H   0  0  0  0  0  0  0  0  0  0  0  0  # atno 8010 bound_to 7997
  140.3619  143.2838  151.9605 H   0  0  0  0  0  0  0  0  0  0  0  0  # atno 10167 bound_to 10162
  157.4482  131.1063  151.0065 H   0  0  0  0  0  0  0  0  0  0  0  0  # atno 10718 bound_to 10713
  153.0106  135.5348  154.6703 H   0  0  0  0  0  0  0  0  0  0  0  0  # atno 10763 bound_to 10752
  154.5889  135.2857  155.0658 H   0  0  0  0  0  0  0  0  0  0  0  0  # atno 10764 bound_to 10752
  154.1759  135.6524  153.5074 H   0  0  0  0  0  0  0  0  0  0  0  0  # atno 10765 bound_to 10752
  140.3047  134.7566  157.3944 H   0  0  0  0  0  0  0  0  0  0  0  0  # atno 11005 bound_to 11000
  145.7078  141.0116  143.1470 LP  0  0  0  0  0  0  0  0  0  0  0  0  # atno 17320 bound_to 7965
  144.7020  139.8721  143.7441 LP  0  0  0  0  0  0  0  0  0  0  0  0  # atno 17321 bound_to 7965
  139.4813  144.5985  151.7647 LP  0  0  0  0  0  0  0  0  0  0  0  0  # atno 17342 bound_to 10162
  140.5119  144.1012  150.5997 LP  0  0  0  0  0  0  0  0  0  0  0  0  # atno 17343 bound_to 10162
  157.0904  130.5940  149.5438 LP  0  0  0  0  0  0  0  0  0  0  0  0  # atno 17370 bound_to 10713
  155.9976  130.5048  150.7540 LP  0  0  0  0  0  0  0  0  0  0  0  0  # atno 17371 bound_to 10713
  140.1078  134.5386  155.8293 LP  0  0  0  0  0  0  0  0  0  0  0  0  # atno 17394 bound_to 11000
  141.2121  133.6715  156.6632 LP  0  0  0  0  0  0  0  0  0  0  0  0  # atno 17395 bound_to 11000

$$$$
