AV-unprocessed.smi:2451|AV-procd|sdf|9684|dock9
  -GOLD-   2272013323D 1   1.00000     0.00000
 Structure written by MMmdl.
 37 38  0  0  0  0  0  0  0  0  2 V2000
  152.4363  142.8801  159.4640 C   0  0  0  0  0  0  0  0  0  0  0  0
  151.5474  141.9079  158.6665 C   0  0  1  0  0  0  0  0  0  0  0  0
  151.0158  142.6290  157.4020 C   0  0  0  0  0  0  0  0  0  0  0  0
  150.1331  141.6821  156.5664 C   0  0  0  0  0  0  0  0  0  0  0  0
  150.8522  140.3578  156.2113 C   0  0  0  0  0  0  0  0  0  0  0  0
  151.4081  139.5992  157.4401 C   0  0  2  0  0  0  0  0  0  0  0  0
  150.3014  139.0505  158.2167 N   0  5  0  0  0  0  0  0  0  0  0  0
  150.2195  137.4540  158.4829 S   0  0  0  0  0  0  0  0  0  0  0  0
  150.5875  136.6632  157.2970 O   0  0  0  0  0  0  0  0  0  0  0  0
  150.8318  137.0608  159.7629 O   0  0  0  0  0  0  0  0  0  0  0  0
  148.4011  137.2424  158.6986 C   0  0  0  0  0  0  0  0  0  0  0  0
  148.1143  136.4912  159.9681 C   0  0  0  0  0  0  0  0  0  0  0  0
  147.8202  135.1087  160.1295 C   0  0  0  0  0  0  0  0  0  0  0  0
  147.6551  134.9728  161.4774 C   0  0  0  0  0  0  0  0  0  0  0  0
  147.8391  136.1634  162.1014 O   0  0  0  0  0  0  0  0  0  0  0  0
  148.1360  137.1262  161.1299 N   0  0  0  0  0  0  0  0  0  0  0  0
  152.2772  140.5654  158.3110 C   0  0  2  0  0  0  0  0  0  0  0  0
  152.8953  139.8587  159.5441 C   0  0  0  0  0  0  0  0  0  0  0  0
  153.3662  143.0918  158.9355 H   0  0  0  0  0  0  0  0  0  0  0  0
  152.6881  142.4840  160.4473 H   0  0  0  0  0  0  0  0  0  0  0  0
  151.9264  143.8294  159.6303 H   0  0  0  0  0  0  0  0  0  0  0  0
  150.6887  141.6822  159.3025 H   0  0  0  0  0  0  0  0  0  0  0  0
  150.4449  143.5157  157.6794 H   0  0  0  0  0  0  0  0  0  0  0  0
  151.8533  142.9739  156.7939 H   0  0  0  0  0  0  0  0  0  0  0  0
  149.2071  141.4774  157.1072 H   0  0  0  0  0  0  0  0  0  0  0  0
  149.8316  142.1864  155.6481 H   0  0  0  0  0  0  0  0  0  0  0  0
  150.1811  139.7121  155.6431 H   0  0  0  0  0  0  0  0  0  0  0  0
  151.6810  140.5857  155.5401 H   0  0  0  0  0  0  0  0  0  0  0  0
  152.0587  138.8059  157.0692 H   0  0  0  0  0  0  0  0  0  0  0  0
  147.9445  138.2315  158.7220 H   0  0  0  0  0  0  0  0  0  0  0  0
  148.0125  136.7176  157.8256 H   0  0  0  0  0  0  0  0  0  0  0  0
  147.7371  134.3423  159.3734 H   0  0  0  0  0  0  0  0  0  0  0  0
  147.4182  134.1341  162.1152 H   0  0  0  0  0  0  0  0  0  0  0  0
  153.1243  140.8419  157.6813 H   0  0  0  0  0  0  0  0  0  0  0  0
  152.1466  139.6392  160.3072 H   0  0  0  0  0  0  0  0  0  0  0  0
  153.6610  140.4764  160.0116 H   0  0  0  0  0  0  0  0  0  0  0  0
  153.3892  138.9201  159.2840 H   0  0  0  0  0  0  0  0  0  0  0  0
  1  2  1  0  0  0  0
  1 19  1  0  0  0  0
  1 20  1  0  0  0  0
  1 21  1  0  0  0  0
  2 17  1  0  0  0  0
  2  3  1  0  0  0  0
  2 22  1  0  0  0  0
  3  4  1  0  0  0  0
  3 23  1  0  0  0  0
  3 24  1  0  0  0  0
  4  5  1  0  0  0  0
  4 25  1  0  0  0  0
  4 26  1  0  0  0  0
  5  6  1  0  0  0  0
  5 27  1  0  0  0  0
  5 28  1  0  0  0  0
  6  7  1  0  0  0  0
  6 17  1  0  0  0  0
  6 29  1  0  0  0  0
  7  8  1  0  0  0  0
  8  9  2  0  0  0  0
  8 10  2  0  0  0  0
  8 11  1  0  0  0  0
 11 12  1  0  0  0  0
 11 30  1  0  0  0  0
 11 31  1  0  0  0  0
 12 16  2  0  0  0  0
 12 13  1  0  0  0  0
 13 14  2  0  0  0  0
 13 32  1  0  0  0  0
 14 15  1  0  0  0  0
 14 33  1  0  0  0  0
 15 16  1  0  0  0  0
 17 18  1  0  0  0  0
 17 34  1  0  0  0  0
 18 35  1  0  0  0  0
 18 36  1  0  0  0  0
 18 37  1  0  0  0  0
M  CHG  1   7  -1
M  END
> <s_m_source_file>
AV-unprocessed.smi

> <i_m_source_file_index>
2451

> <i_lp_mmshare_version>
43012

> <i_f3d_flags>
0

> <s_epik_input>
W0NIM11bQ0BASF0xW0NIMl1bQ0gyXVtDSDJdW0NASF0oW0NASF0xW0NIM10pW05IXVMoPU8pKD1PKVtDSDJdYzJbY0hdW2NIXW9uMg==

> <s_epik_cmdline>
J2VwaWtfcHl0aG9uJywgJy1waCcsICc3LjAnLCAnLXRuJywgJzgnLCAnLW1hJywgJzIwMCcsICctbWV0YWxfYmluZGluZycsICctaW1hZScsICc8aW5maWxlLm1hZT4nLCAnLW9tYWUnLCAnPG91dGZpbGUubWFlPic=

> <r_lp_tautomer_probability>
1

> <r_epik_Ionization_Penalty>
5.22693

> <r_epik_Ionization_Penalty_Charging>
5.22693

> <r_epik_Ionization_Penalty_Neutral>
2.67702e-10

> <r_epik_State_Penalty>
5.22685

> <r_epik_Charging_Adjusted_Penalty>
10.4538

> <i_epik_Tot_Q>
-1

> <i_epik_Tot_abs_Q>
1

> <r_epik_Metal_State_Penalty>
1.28716

> <b_epik_Metal_Only>
1

> <s_lp_Force_Field>
OPLS_2005

> <r_lp_Energy>
15.3657

> <b_lp_Chiralities_Consistent>
1

> <s_lp_Variant>
AV-unprocessed.smi:2451-16

> <Gold.Version>
5.8.1

> <Gold.Id.Protein>
6NUR|6NUR_protein|mol2

> <Gold.PLP.Fitness>
37.5160

> <Gold.PLP.PLP>
-30.5005

> <Gold.PLP.part.hbond>
-3.1906

> <Gold.PLP.part.metal>
0.0000

> <Gold.PLP.part.buried>
-4.5264

> <Gold.PLP.part.nonpolar>
-23.2363

> <Gold.PLP.part.repulsive>
0.0000

> <Gold.PLP.ligand.clash>
0.0000

> <Gold.PLP.ligand.torsion>
1.0177

> <Gold.PLP.Chemscore.Hbond>
2.6880

> <Gold.PLP.Chemscore.CHOScore>
0.0000

> <Gold.PLP.Chemscore.Metal>
0.0000

> <Gold.Chemscore.Hbonds>
donor molecule, donor type, donor heavy atom, donor atom, acceptor molecule, acceptor atom, score
      P1  H  6896  6908       L1    10  1.00
      P1  H  6931  6943       L1    16  1.00
      P1  H  6934  6947       L1    16  0.51

> <Gold.PLP.Chemscore.Internal.Correction>
0.9868

> <Gold.Rescore>
     Score         DG    S(hbond)    S(metal)    S(lipo)     H(rot)  DE(clash)    DE(int)     intcor
     17.63     -18.70       2.42        0.00      74.64       1.40       0.00       1.07       ----

> <Gold.Chemscore.Fitness>
17.6298

> <Gold.Chemscore.DG>
-18.7010

> <Gold.Chemscore.ZeroCoef>
-5.4800

> <Gold.Chemscore.Hbond>
2.4157

> <Gold.Chemscore.Metal>
0.0000

> <Gold.Chemscore.Lipo>
74.6402

> <Gold.Chemscore.Internal_Hbond>
0.0000

> <Gold.Chemscore.DEClash>
0.0000

> <Gold.Chemscore.DEInternal>
1.0711

> <Gold.Chemscore.Rot>
1.3986

> <Gold.Chemscore.Internal.Correction>
   9.000000E+99

> <Gold.Chemscore.Hbonds>
donor molecule, donor type, donor heavy atom, donor atom, acceptor molecule, acceptor atom, score
      P1  H  6896  6908       L1    10  0.79
      P1  H  6931  6943       L1    16  0.48
      P1  H  6934  6947       L1    16  0.38

> <Gold.Chemscore.Hbond.Weighted>
-8.0684

> <Gold.Chemscore.Metal.Weighted>
-0.0000

> <Gold.Chemscore.Lipo.Weighted>
-8.7329

> <Gold.Chemscore.Internal_Hbond.Weighted>
0.0000

> <Gold.Chemscore.DEClash.Weighted>
0.0000

> <Gold.Chemscore.DEInternal.Weighted>
1.0711

> <Gold.Chemscore.Rot.Weighted>
3.5804

> <Gold.Chemscore.Internal.Correction.Weighted>
   9.000000E+99

> <Gold.Protein.RotatedTorsions>
[ 6907 6896 6895 6894 ] final -145.98 input  -60.11 | X-H torsion
[ 7974 7965 7964 7962 ] final  152.45 input  175.53 | X-H torsion
[ 8008 7997 7996 7995 ] final   -1.29 input   59.86 | X-H torsion
[ 10167 10162 10161 10158 ] final  -41.65 input  -65.29 | X-H torsion
[ 10718 10713 10712 10709 ] final   93.13 input   66.30 | X-H torsion
[ 10763 10752 10751 10750 ] final  137.81 input  -60.55 | X-H torsion
[ 11005 11000 10999 10996 ] final  143.35 input  -57.11 | X-H torsion

> <Gold.Protein.ActiveResidues>
 VAL166  LYS551  ARG553  GLY616  TRP617  ASP618  TYR619  PRO620  LYS621  CYS622 
 ASP623  PHE694  ASN695  SER759  ASP760  ASP761  ALA762  ILE779  LEU786  VAL792 
 PHE793  MET794  SER795  GLU796  ALA797  LYS798  CYS799  TRP800  GLU811  SER814 

> <Gold.Protein.RotatedAtoms>
  151.1353  133.5008  159.2597 H   0  0  0  0  0  0  0  0  0  0  0  0  # atno 6907 bound_to 6896
  151.1713  135.0319  159.8763 H   0  0  0  0  0  0  0  0  0  0  0  0  # atno 6908 bound_to 6896
  152.5461  134.1216  159.8454 H   0  0  0  0  0  0  0  0  0  0  0  0  # atno 6909 bound_to 6896
  144.8222  139.6670  143.6095 H   0  0  0  0  0  0  0  0  0  0  0  0  # atno 7974 bound_to 7965
  154.6484  140.2563  155.7242 H   0  0  0  0  0  0  0  0  0  0  0  0  # atno 8008 bound_to 7997
  156.2563  140.2873  156.0828 H   0  0  0  0  0  0  0  0  0  0  0  0  # atno 8009 bound_to 7997
  155.1488  140.0382  157.2806 H   0  0  0  0  0  0  0  0  0  0  0  0  # atno 8010 bound_to 7997
  140.6995  143.3082  151.3097 H   0  0  0  0  0  0  0  0  0  0  0  0  # atno 10167 bound_to 10162
  157.6956  131.0467  150.3987 H   0  0  0  0  0  0  0  0  0  0  0  0  # atno 10718 bound_to 10713
  153.8792  135.3046  155.3444 H   0  0  0  0  0  0  0  0  0  0  0  0  # atno 10763 bound_to 10752
  154.7770  135.4856  153.9767 H   0  0  0  0  0  0  0  0  0  0  0  0  # atno 10764 bound_to 10752
  153.1361  135.6814  153.9197 H   0  0  0  0  0  0  0  0  0  0  0  0  # atno 10765 bound_to 10752
  140.0547  134.9237  157.1079 H   0  0  0  0  0  0  0  0  0  0  0  0  # atno 11005 bound_to 11000
  146.2527  139.6235  142.9416 LP  0  0  0  0  0  0  0  0  0  0  0  0  # atno 17320 bound_to 7965
  145.5080  141.0436  143.2503 LP  0  0  0  0  0  0  0  0  0  0  0  0  # atno 17321 bound_to 7965
  139.6496  144.0387  152.2616 LP  0  0  0  0  0  0  0  0  0  0  0  0  # atno 17342 bound_to 10162
  139.9919  144.6355  150.7806 LP  0  0  0  0  0  0  0  0  0  0  0  0  # atno 17343 bound_to 10162
  156.4382  130.3986  149.6714 LP  0  0  0  0  0  0  0  0  0  0  0  0  # atno 17370 bound_to 10713
  156.3907  130.7626  151.2626 LP  0  0  0  0  0  0  0  0  0  0  0  0  # atno 17371 bound_to 10713
  140.3862  134.2233  155.7168 LP  0  0  0  0  0  0  0  0  0  0  0  0  # atno 17394 bound_to 11000
  141.1946  133.8123  157.0748 LP  0  0  0  0  0  0  0  0  0  0  0  0  # atno 17395 bound_to 11000

$$$$
