AV-unprocessed.smi:1056|AV-procd|sdf|4646|dock5
  -GOLD-   22720 3153D 1   1.00000     0.00000
 Structure written by MMmdl.
 45 47  0  0  0  0  0  0  0  0  4 V2000
  145.7912  129.9940  151.6157 C   0  0  0  0  0  0  0  0  0  0  0  0
  145.6639  131.4945  151.8179 C   0  0  0  0  0  0  0  0  0  0  0  0
  144.6439  132.1839  151.1244 C   0  0  0  0  0  0  0  0  0  0  0  0
  144.5508  133.5550  151.3321 C   0  0  0  0  0  0  0  0  0  0  0  0
  143.6664  134.4987  150.8068 N   0  3  0  0  0  0  0  0  0  0  0  0
  143.9660  135.7288  151.3065 C   0  0  0  0  0  0  0  0  0  0  0  0
  145.0331  135.5870  152.1398 N   0  0  0  0  0  0  0  0  0  0  0  0
  145.7403  136.6058  152.9341 C   0  0  0  0  0  0  0  0  0  0  0  0
  146.1389  137.8630  152.1303 C   0  0  2  0  0  0  0  0  0  0  0  0
  147.0262  137.4803  151.0964 O   0  0  0  0  0  0  0  0  0  0  0  0
  146.8126  138.9536  152.9925 C   0  0  0  0  0  0  0  0  0  0  0  0
  148.0668  138.4931  153.6428 N   0  3  2  0  0  0  0  0  0  0  0  0
  147.8115  137.6484  154.8385 C   0  0  0  0  0  0  0  0  0  0  0  0
  149.1067  136.9434  155.2848 C   0  0  0  0  0  0  0  0  0  0  0  0
  150.2166  137.9018  155.3378 N   0  5  0  0  0  0  0  0  0  0  0  0
  150.3003  139.0881  154.6589 C   0  0  0  0  0  0  0  0  0  0  0  0
  151.2952  139.8071  154.5990 O   0  0  0  0  0  0  0  0  0  0  0  0
  149.0205  139.5999  153.9449 C   0  0  0  0  0  0  0  0  0  0  0  0
  145.4290  134.2442  152.1919 C   0  0  0  0  0  0  0  0  0  0  0  0
  146.4400  133.5784  152.8822 C   0  0  0  0  0  0  0  0  0  0  0  0
  146.5506  132.1833  152.6853 C   0  0  0  0  0  0  0  0  0  0  0  0
  147.6422  131.4314  153.4278 C   0  0  0  0  0  0  0  0  0  0  0  0
  145.0086  129.6120  150.9596 H   0  0  0  0  0  0  0  0  0  0  0  0
  145.7107  129.4698  152.5681 H   0  0  0  0  0  0  0  0  0  0  0  0
  146.7535  129.7494  151.1653 H   0  0  0  0  0  0  0  0  0  0  0  0
  143.9642  131.6658  150.4634 H   0  0  0  0  0  0  0  0  0  0  0  0
  143.4524  136.6525  151.0804 H   0  0  0  0  0  0  0  0  0  0  0  0
  145.0778  136.8877  153.7537 H   0  0  0  0  0  0  0  0  0  0  0  0
  146.6148  136.1554  153.4028 H   0  0  0  0  0  0  0  0  0  0  0  0
  145.2331  138.2487  151.6649 H   0  0  0  0  0  0  0  0  0  0  0  0
  147.5490  136.7517  151.3954 H   0  0  0  0  0  0  0  0  0  0  0  0
  147.0335  139.8339  152.3876 H   0  0  0  0  0  0  0  0  0  0  0  0
  146.1060  139.2789  153.7574 H   0  0  0  0  0  0  0  0  0  0  0  0
  147.4142  138.2680  155.6445 H   0  0  0  0  0  0  0  0  0  0  0  0
  147.0574  136.8914  154.6197 H   0  0  0  0  0  0  0  0  0  0  0  0
  148.9404  136.4572  156.2456 H   0  0  0  0  0  0  0  0  0  0  0  0
  149.3245  136.1413  154.5792 H   0  0  0  0  0  0  0  0  0  0  0  0
  149.3193  140.1079  153.0288 H   0  0  0  0  0  0  0  0  0  0  0  0
  148.5403  140.3415  154.5850 H   0  0  0  0  0  0  0  0  0  0  0  0
  147.1168  134.0970  153.5444 H   0  0  0  0  0  0  0  0  0  0  0  0
  148.2574  132.1062  154.0238 H   0  0  0  0  0  0  0  0  0  0  0  0
  148.2987  130.9149  152.7271 H   0  0  0  0  0  0  0  0  0  0  0  0
  147.2065  130.6943  154.1028 H   0  0  0  0  0  0  0  0  0  0  0  0
  148.5317  137.8840  152.9852 H   0  0  0  0  0  0  0  0  0  0  0  0
  142.9103  134.3192  150.1582 H   0  0  0  0  0  0  0  0  0  0  0  0
  1  2  1  0  0  0  0
  1 23  1  0  0  0  0
  1 24  1  0  0  0  0
  1 25  1  0  0  0  0
  2 21  1  0  0  0  0
  2  3  2  0  0  0  0
  3  4  1  0  0  0  0
  3 26  1  0  0  0  0
  4 19  2  0  0  0  0
  4  5  1  0  0  0  0
  5  6  2  0  0  0  0
  5 45  1  0  0  0  0
  6  7  1  0  0  0  0
  6 27  1  0  0  0  0
  7  8  1  0  0  0  0
  7 19  1  0  0  0  0
  8  9  1  0  0  0  0
  8 28  1  0  0  0  0
  8 29  1  0  0  0  0
  9 10  1  0  0  0  0
  9 11  1  0  0  0  0
  9 30  1  0  0  0  0
 10 31  1  0  0  0  0
 11 12  1  0  0  0  0
 11 32  1  0  0  0  0
 11 33  1  0  0  0  0
 12 18  1  0  0  0  0
 12 13  1  0  0  0  0
 12 44  1  0  0  0  0
 13 14  1  0  0  0  0
 13 34  1  0  0  0  0
 13 35  1  0  0  0  0
 14 15  1  0  0  0  0
 14 36  1  0  0  0  0
 14 37  1  0  0  0  0
 15 16  1  0  0  0  0
 16 17  2  0  0  0  0
 16 18  1  0  0  0  0
 18 38  1  0  0  0  0
 18 39  1  0  0  0  0
 19 20  1  0  0  0  0
 20 21  2  0  0  0  0
 20 40  1  0  0  0  0
 21 22  1  0  0  0  0
 22 41  1  0  0  0  0
 22 42  1  0  0  0  0
 22 43  1  0  0  0  0
M  CHG  1   5   1
M  CHG  1  12   1
M  CHG  1  15  -1
M  END
> <s_m_source_file>
AV-unprocessed.smi

> <i_m_source_file_index>
1056

> <i_lp_mmshare_version>
43012

> <i_f3d_flags>
0

> <s_epik_input>
W0NIM11jKFtjSF0xKWMoW0NIM10pW2NIXWMoYzEyKW4oW2NIXW4yKVtDSDJdW0NASF0oW09IXSlbQ0gyXU4zW0NIMl1bQ0gyXVtOSF1DKD1PKVtDSDJdMw==

> <s_epik_cmdline>
J2VwaWtfcHl0aG9uJywgJy1waCcsICc3LjAnLCAnLXRuJywgJzgnLCAnLW1hJywgJzIwMCcsICctbWV0YWxfYmluZGluZycsICctaW1hZScsICc8aW5maWxlLm1hZT4nLCAnLW9tYWUnLCAnPG91dGZpbGUubWFlPic=

> <r_epik_Ionization_Penalty>
6.22415

> <r_epik_Ionization_Penalty_Charging>
6.22415

> <r_epik_Ionization_Penalty_Neutral>
4.02797e-07

> <r_epik_State_Penalty>
6.37716

> <r_epik_Charging_Adjusted_Penalty>
12.6013

> <i_epik_Tot_Q>
1

> <i_epik_Tot_abs_Q>
3

> <r_epik_Metal_State_Penalty>
2.53509

> <b_epik_Metal_Only>
1

> <s_lp_Force_Field>
OPLS_2005

> <r_lp_Energy>
27.0798

> <b_lp_Chiralities_Consistent>
1

> <s_lp_Variant>
AV-unprocessed.smi:1056-17

> <Gold.Version>
5.8.1

> <Gold.Id.Protein>
6NUR|6NUR_protein|mol2

> <Gold.PLP.Fitness>
57.3078

> <Gold.PLP.PLP>
-35.5608

> <Gold.PLP.part.hbond>
-4.5276

> <Gold.PLP.part.metal>
0.0000

> <Gold.PLP.part.buried>
-4.8417

> <Gold.PLP.part.nonpolar>
-28.2266

> <Gold.PLP.part.repulsive>
0.1876

> <Gold.PLP.ligand.clash>
0.0000

> <Gold.PLP.ligand.torsion>
0.3383

> <Gold.PLP.Chemscore.Hbond>
6.4675

> <Gold.PLP.Chemscore.CHOScore>
1.0000

> <Gold.PLP.Chemscore.Metal>
0.0000

> <Gold.Chemscore.Hbonds>
donor molecule, donor type, donor heavy atom, donor atom, acceptor molecule, acceptor atom, score
      L1  H     5    45       P1 10186  2.00
      L1  H    10    31       P1  7948  0.94
      L1  H    12    44       P1  7948  2.00
      P1  H  7954  7966       L1    10  0.55
      P1  H  7989  7998       L1    17  1.00
      L1  C     6    27       P1 10171  1.00

> <Gold.PLP.Chemscore.Internal.Correction>
0.0212

> <Gold.Rescore>
     Score         DG    S(hbond)    S(metal)    S(lipo)     H(rot)  DE(clash)    DE(int)     intcor
     19.90     -21.39       3.79        0.00      79.69       2.37       0.01       1.48       ----

> <Gold.Chemscore.Fitness>
19.8998

> <Gold.Chemscore.DG>
-21.3920

> <Gold.Chemscore.ZeroCoef>
-5.4800

> <Gold.Chemscore.Hbond>
3.7908

> <Gold.Chemscore.Metal>
0.0000

> <Gold.Chemscore.Lipo>
79.6944

> <Gold.Chemscore.Internal_Hbond>
0.0000

> <Gold.Chemscore.DEClash>
0.0118

> <Gold.Chemscore.DEInternal>
1.4804

> <Gold.Chemscore.Rot>
2.3724

> <Gold.Chemscore.Internal.Correction>
   9.000000E+99

> <Gold.Chemscore.Hbonds>
donor molecule, donor type, donor heavy atom, donor atom, acceptor molecule, acceptor atom, score
      L1  H     5    45       P1 10186  0.85
      L1  H    10    31       P1  7948  0.84
      L1  H    12    44       P1  7948  0.93
      P1  H  7954  7966       L1    10  0.03
      P1  H  7989  7998       L1    17  0.96

> <Gold.Chemscore.Hbond.Weighted>
-12.6611

> <Gold.Chemscore.Metal.Weighted>
-0.0000

> <Gold.Chemscore.Lipo.Weighted>
-9.3242

> <Gold.Chemscore.Internal_Hbond.Weighted>
0.0000

> <Gold.Chemscore.DEClash.Weighted>
0.0118

> <Gold.Chemscore.DEInternal.Weighted>
1.4804

> <Gold.Chemscore.Rot.Weighted>
6.0734

> <Gold.Chemscore.Internal.Correction.Weighted>
   9.000000E+99

> <Gold.Protein.RotatedTorsions>
[ 6907 6896 6895 6894 ] final  139.66 input  -60.11 | X-H torsion
[ 7974 7965 7964 7962 ] final  -52.44 input  175.53 | X-H torsion
[ 8008 7997 7996 7995 ] final  -23.41 input   59.86 | X-H torsion
[ 10167 10162 10161 10158 ] final  -73.38 input  -65.29 | X-H torsion
[ 10718 10713 10712 10709 ] final -123.71 input   66.30 | X-H torsion
[ 10763 10752 10751 10750 ] final  175.98 input  -60.55 | X-H torsion
[ 11005 11000 10999 10996 ] final  131.54 input  -57.11 | X-H torsion

> <Gold.Protein.ActiveResidues>
 VAL166  LYS551  ARG553  GLY616  TRP617  ASP618  TYR619  PRO620  LYS621  CYS622 
 ASP623  PHE694  ASN695  SER759  ASP760  ASP761  ALA762  ILE779  LEU786  VAL792 
 PHE793  MET794  SER795  GLU796  ALA797  LYS798  CYS799  TRP800  GLU811  SER814 

> <Gold.Protein.RotatedAtoms>
  152.2523  133.5226  159.5332 H   0  0  0  0  0  0  0  0  0  0  0  0  # atno 6907 bound_to 6896
  150.7097  134.0943  159.3952 H   0  0  0  0  0  0  0  0  0  0  0  0  # atno 6908 bound_to 6896
  151.8862  135.0434  160.0544 H   0  0  0  0  0  0  0  0  0  0  0  0  # atno 6909 bound_to 6896
  145.9079  140.7940  142.9710 H   0  0  0  0  0  0  0  0  0  0  0  0  # atno 7974 bound_to 7965
  154.4587  140.1981  156.0306 H   0  0  0  0  0  0  0  0  0  0  0  0  # atno 8008 bound_to 7997
  156.0797  140.3273  155.7650 H   0  0  0  0  0  0  0  0  0  0  0  0  # atno 8009 bound_to 7997
  155.5131  140.0563  157.2911 H   0  0  0  0  0  0  0  0  0  0  0  0  # atno 8010 bound_to 7997
  140.5115  143.2344  151.7585 H   0  0  0  0  0  0  0  0  0  0  0  0  # atno 10167 bound_to 10162
  156.1525  130.6545  150.9935 H   0  0  0  0  0  0  0  0  0  0  0  0  # atno 10718 bound_to 10713
  154.4749  135.2772  155.1615 H   0  0  0  0  0  0  0  0  0  0  0  0  # atno 10763 bound_to 10752
  154.3348  135.6182  153.5572 H   0  0  0  0  0  0  0  0  0  0  0  0  # atno 10764 bound_to 10752
  152.9868  135.5774  154.5138 H   0  0  0  0  0  0  0  0  0  0  0  0  # atno 10765 bound_to 10752
  139.9736  134.9570  156.9453 H   0  0  0  0  0  0  0  0  0  0  0  0  # atno 11005 bound_to 11000
  144.6741  140.1779  143.7408 LP  0  0  0  0  0  0  0  0  0  0  0  0  # atno 17320 bound_to 7965
  145.8709  139.2271  143.1661 LP  0  0  0  0  0  0  0  0  0  0  0  0  # atno 17321 bound_to 7965
  139.4897  144.4383  151.9793 LP  0  0  0  0  0  0  0  0  0  0  0  0  # atno 17342 bound_to 10162
  140.3476  144.3128  150.5955 LP  0  0  0  0  0  0  0  0  0  0  0  0  # atno 17343 bound_to 10162
  157.6669  131.0870  150.7707 LP  0  0  0  0  0  0  0  0  0  0  0  0  # atno 17370 bound_to 10713
  156.7774  130.4848  149.5407 LP  0  0  0  0  0  0  0  0  0  0  0  0  # atno 17371 bound_to 10713
  140.5241  134.0878  155.7299 LP  0  0  0  0  0  0  0  0  0  0  0  0  # atno 17394 bound_to 11000
  141.1415  133.9130  157.2315 LP  0  0  0  0  0  0  0  0  0  0  0  0  # atno 17395 bound_to 11000

$$$$
