AV-unprocessed.smi:500|AV-procd|sdf|2737|dock1
  -GOLD-   2262023193D 1   1.00000     0.00000
 Structure written by MMmdl.
 46 48  0  0  0  0  0  0  0  0  2 V2000
  148.6535  128.1063  151.6011 C   0  0  0  0  0  0  0  0  0  0  0  0
  147.4285  128.7878  152.2152 C   0  0  0  0  0  0  0  0  0  0  0  0
  147.7113  129.1177  153.5647 O   0  0  0  0  0  0  0  0  0  0  0  0
  148.0128  130.4912  153.7404 C   0  0  0  0  0  0  0  0  0  0  0  0
  146.7097  131.2486  154.0216 C   0  0  0  0  0  0  0  0  0  0  0  0
  146.6708  132.5462  153.3346 N   0  0  0  0  0  0  0  0  0  0  0  0
  147.3687  133.6950  153.5723 C   0  0  0  0  0  0  0  0  0  0  0  0
  148.3726  133.9176  154.6693 C   0  0  1  0  0  0  0  0  0  0  0  0
  149.5620  132.9408  154.5972 C   0  0  0  0  0  0  0  0  0  0  0  0
  148.8228  135.3077  154.7472 N   0  0  0  0  0  0  0  0  0  0  0  0
  149.6372  135.8429  155.6733 C   0  0  0  0  0  0  0  0  0  0  0  0
  150.1091  135.2069  156.6157 O   0  0  0  0  0  0  0  0  0  0  0  0
  149.9566  137.2718  155.4949 C   0  0  0  0  0  0  0  0  0  0  0  0
  149.2528  138.2921  154.9105 C   0  0  0  0  0  0  0  0  0  0  0  0
  150.0546  139.4606  155.0300 C   0  0  0  0  0  0  0  0  0  0  0  0
  151.1910  139.0718  155.6788 C   0  0  0  0  0  0  0  0  0  0  0  0
  151.1465  137.7432  155.9694 O   0  0  0  0  0  0  0  0  0  0  0  0
  146.9442  134.6150  152.6577 N   0  3  0  0  0  0  0  0  0  0  0  0
  145.9850  134.0457  151.8201 C   0  0  0  0  0  0  0  0  0  0  0  0
  145.2765  134.5803  150.7486 C   0  0  0  0  0  0  0  0  0  0  0  0
  144.3636  133.7211  150.1019 C   0  0  0  0  0  0  0  0  0  0  0  0
  144.1827  132.3885  150.5263 C   0  0  0  0  0  0  0  0  0  0  0  0
  144.9062  131.8584  151.6149 C   0  0  0  0  0  0  0  0  0  0  0  0
  145.8059  132.7151  152.2484 C   0  0  0  0  0  0  0  0  0  0  0  0
  148.4682  127.8377  150.5609 H   0  0  0  0  0  0  0  0  0  0  0  0
  148.9063  127.1939  152.1419 H   0  0  0  0  0  0  0  0  0  0  0  0
  149.5230  128.7636  151.6271 H   0  0  0  0  0  0  0  0  0  0  0  0
  147.1825  129.6888  151.6514 H   0  0  0  0  0  0  0  0  0  0  0  0
  146.5677  128.1197  152.1631 H   0  0  0  0  0  0  0  0  0  0  0  0
  148.7070  130.6192  154.5726 H   0  0  0  0  0  0  0  0  0  0  0  0
  148.4946  130.8848  152.8440 H   0  0  0  0  0  0  0  0  0  0  0  0
  145.8398  130.6634  153.7218 H   0  0  0  0  0  0  0  0  0  0  0  0
  146.6046  131.4303  155.0912 H   0  0  0  0  0  0  0  0  0  0  0  0
  147.8582  133.7219  155.6107 H   0  0  0  0  0  0  0  0  0  0  0  0
  149.2214  131.9061  154.6442 H   0  0  0  0  0  0  0  0  0  0  0  0
  150.2457  133.0969  155.4322 H   0  0  0  0  0  0  0  0  0  0  0  0
  150.1349  133.0589  153.6771 H   0  0  0  0  0  0  0  0  0  0  0  0
  148.4939  135.9222  154.0165 H   0  0  0  0  0  0  0  0  0  0  0  0
  148.2787  138.2106  154.4510 H   0  0  0  0  0  0  0  0  0  0  0  0
  149.8292  140.4588  154.6846 H   0  0  0  0  0  0  0  0  0  0  0  0
  152.0865  139.5848  155.9975 H   0  0  0  0  0  0  0  0  0  0  0  0
  145.4128  135.6010  150.4224 H   0  0  0  0  0  0  0  0  0  0  0  0
  143.7907  134.0913  149.2641 H   0  0  0  0  0  0  0  0  0  0  0  0
  143.4741  131.7597  150.0068 H   0  0  0  0  0  0  0  0  0  0  0  0
  144.7612  130.8362  151.9321 H   0  0  0  0  0  0  0  0  0  0  0  0
  147.2848  135.5671  152.6191 H   0  0  0  0  0  0  0  0  0  0  0  0
  1  2  1  0  0  0  0
  1 25  1  0  0  0  0
  1 26  1  0  0  0  0
  1 27  1  0  0  0  0
  2  3  1  0  0  0  0
  2 28  1  0  0  0  0
  2 29  1  0  0  0  0
  3  4  1  0  0  0  0
  4  5  1  0  0  0  0
  4 30  1  0  0  0  0
  4 31  1  0  0  0  0
  5  6  1  0  0  0  0
  5 32  1  0  0  0  0
  5 33  1  0  0  0  0
  6 24  1  0  0  0  0
  6  7  1  0  0  0  0
  7  8  1  0  0  0  0
  7 18  2  0  0  0  0
  8  9  1  0  0  0  0
  8 10  1  0  0  0  0
  8 34  1  0  0  0  0
  9 35  1  0  0  0  0
  9 36  1  0  0  0  0
  9 37  1  0  0  0  0
 10 11  1  0  0  0  0
 10 38  1  0  0  0  0
 11 12  2  0  0  0  0
 11 13  1  0  0  0  0
 13 17  1  0  0  0  0
 13 14  2  0  0  0  0
 14 15  1  0  0  0  0
 14 39  1  0  0  0  0
 15 16  2  0  0  0  0
 15 40  1  0  0  0  0
 16 17  1  0  0  0  0
 16 41  1  0  0  0  0
 18 19  1  0  0  0  0
 18 46  1  0  0  0  0
 19 24  2  0  0  0  0
 19 20  1  0  0  0  0
 20 21  2  0  0  0  0
 20 42  1  0  0  0  0
 21 22  1  0  0  0  0
 21 43  1  0  0  0  0
 22 23  2  0  0  0  0
 22 44  1  0  0  0  0
 23 24  1  0  0  0  0
 23 45  1  0  0  0  0
M  CHG  1  18   1
M  END
> <s_m_source_file>
AV-unprocessed.smi

> <i_m_source_file_index>
500

> <i_lp_mmshare_version>
43012

> <i_f3d_flags>
0

> <s_epik_input>
W0NIM11bQ0gyXU9bQ0gyXVtDSDJdbihjKGMxMilbY0hdW2NIXVtjSF1bY0hdMiljKG4xKVtDQEhdKFtDSDNdKVtOSF1DKD1PKWMzW2NIXVtjSF1bY0hdbzM=

> <s_epik_cmdline>
J2VwaWtfcHl0aG9uJywgJy1waCcsICc3LjAnLCAnLXRuJywgJzgnLCAnLW1hJywgJzIwMCcsICctbWV0YWxfYmluZGluZycsICctaW1hZScsICc8aW5maWxlLm1hZT4nLCAnLW9tYWUnLCAnPG91dGZpbGUubWFlPic=

> <r_epik_Ionization_Penalty>
1.05286

> <r_epik_Ionization_Penalty_Charging>
1.05283

> <r_epik_Ionization_Penalty_Neutral>
2.09263e-05

> <r_epik_State_Penalty>
1.10586

> <r_epik_Charging_Adjusted_Penalty>
2.15869

> <i_epik_Tot_Q>
1

> <i_epik_Tot_abs_Q>
1

> <r_epik_Metal_State_Penalty>
1.22833

> <b_epik_Metal_Only>
0

> <s_lp_Force_Field>
OPLS_2005

> <r_lp_Energy>
11.8725

> <b_lp_Chiralities_Consistent>
1

> <s_lp_Variant>
AV-unprocessed.smi:500-4

> <Gold.Version>
5.8.1

> <Gold.Id.Protein>
6NUR|6NUR_protein|mol2

> <Gold.PLP.Fitness>
55.9506

> <Gold.PLP.PLP>
-46.2378

> <Gold.PLP.part.hbond>
-3.0000

> <Gold.PLP.part.metal>
0.0000

> <Gold.PLP.part.buried>
-6.6135

> <Gold.PLP.part.nonpolar>
-37.7551

> <Gold.PLP.part.repulsive>
0.1880

> <Gold.PLP.ligand.clash>
0.0000

> <Gold.PLP.ligand.torsion>
1.2643

> <Gold.PLP.Chemscore.Hbond>
3.9840

> <Gold.PLP.Chemscore.CHOScore>
0.0000

> <Gold.PLP.Chemscore.Metal>
0.0000

> <Gold.Chemscore.Hbonds>
donor molecule, donor type, donor heavy atom, donor atom, acceptor molecule, acceptor atom, score
      L1  H    10    38       P1  7948  0.38
      L1  H    18    46       P1  7948  1.09

> <Gold.PLP.Chemscore.Internal.Correction>
0.2895

> <Gold.Rescore>
     Score         DG    S(hbond)    S(metal)    S(lipo)     H(rot)  DE(clash)    DE(int)     intcor
     18.08     -20.54       2.27        0.00     107.03       1.97       0.50       1.96       ----

> <Gold.Chemscore.Fitness>
18.0797

> <Gold.Chemscore.DG>
-20.5440

> <Gold.Chemscore.ZeroCoef>
-5.4800

> <Gold.Chemscore.Hbond>
2.2745

> <Gold.Chemscore.Metal>
0.0000

> <Gold.Chemscore.Lipo>
107.0261

> <Gold.Chemscore.Internal_Hbond>
0.0000

> <Gold.Chemscore.DEClash>
0.5048

> <Gold.Chemscore.DEInternal>
1.9595

> <Gold.Chemscore.Rot>
1.9746

> <Gold.Chemscore.Internal.Correction>
   9.000000E+99

> <Gold.Chemscore.Hbonds>
donor molecule, donor type, donor heavy atom, donor atom, acceptor molecule, acceptor atom, score
      L1  H    10    38       P1  7948  0.38
      L1  H    18    46       P1  7948  0.54

> <Gold.Chemscore.Hbond.Weighted>
-7.5970

> <Gold.Chemscore.Metal.Weighted>
-0.0000

> <Gold.Chemscore.Lipo.Weighted>
-12.5221

> <Gold.Chemscore.Internal_Hbond.Weighted>
0.0000

> <Gold.Chemscore.DEClash.Weighted>
0.5048

> <Gold.Chemscore.DEInternal.Weighted>
1.9595

> <Gold.Chemscore.Rot.Weighted>
5.0550

> <Gold.Chemscore.Internal.Correction.Weighted>
   9.000000E+99

> <Gold.Protein.RotatedTorsions>
[ 6907 6896 6895 6894 ] final  -58.13 input  -60.11 | X-H torsion
[ 7974 7965 7964 7962 ] final  -42.01 input  175.53 | X-H torsion
[ 8008 7997 7996 7995 ] final   51.81 input   59.86 | X-H torsion
[ 10167 10162 10161 10158 ] final -112.04 input  -65.29 | X-H torsion
[ 10718 10713 10712 10709 ] final -102.13 input   66.30 | X-H torsion
[ 10763 10752 10751 10750 ] final  -40.91 input  -60.55 | X-H torsion
[ 11005 11000 10999 10996 ] final  -45.85 input  -57.11 | X-H torsion

> <Gold.Protein.ActiveResidues>
 VAL166  LYS551  ARG553  GLY616  TRP617  ASP618  TYR619  PRO620  LYS621  CYS622 
 ASP623  PHE694  ASN695  SER759  ASP760  ASP761  ALA762  ILE779  LEU786  VAL792 
 PHE793  MET794  SER795  GLU796  ALA797  LYS798  CYS799  TRP800  GLU811  SER814 

> <Gold.Protein.RotatedAtoms>
  150.8031  134.7137  159.6618 H   0  0  0  0  0  0  0  0  0  0  0  0  # atno 6907 bound_to 6896
  152.4149  134.6056  160.0022 H   0  0  0  0  0  0  0  0  0  0  0  0  # atno 6908 bound_to 6896
  151.6289  133.3296  159.3140 H   0  0  0  0  0  0  0  0  0  0  0  0  # atno 6909 bound_to 6896
  146.0157  140.6911  142.9203 H   0  0  0  0  0  0  0  0  0  0  0  0  # atno 7974 bound_to 7965
  155.4414  140.3454  155.4290 H   0  0  0  0  0  0  0  0  0  0  0  0  # atno 8008 bound_to 7997
  156.1276  140.1505  156.9143 H   0  0  0  0  0  0  0  0  0  0  0  0  # atno 8009 bound_to 7997
  154.4870  140.0852  156.7488 H   0  0  0  0  0  0  0  0  0  0  0  0  # atno 8010 bound_to 7997
  140.1271  143.4393  152.1652 H   0  0  0  0  0  0  0  0  0  0  0  0  # atno 10167 bound_to 10162
  156.0218  130.5406  150.7064 H   0  0  0  0  0  0  0  0  0  0  0  0  # atno 10718 bound_to 10713
  153.9537  135.6747  153.4744 H   0  0  0  0  0  0  0  0  0  0  0  0  # atno 10763 bound_to 10752
  153.0871  135.4893  154.8616 H   0  0  0  0  0  0  0  0  0  0  0  0  # atno 10764 bound_to 10752
  154.7311  135.3138  154.8849 H   0  0  0  0  0  0  0  0  0  0  0  0  # atno 10765 bound_to 10752
  141.0542  133.6732  156.3071 H   0  0  0  0  0  0  0  0  0  0  0  0  # atno 11005 bound_to 11000
  144.6970  140.3477  143.7187 LP  0  0  0  0  0  0  0  0  0  0  0  0  # atno 17320 bound_to 7965
  145.7273  139.1726  143.2450 LP  0  0  0  0  0  0  0  0  0  0  0  0  # atno 17321 bound_to 7965
  139.5539  144.7358  151.4353 LP  0  0  0  0  0  0  0  0  0  0  0  0  # atno 17342 bound_to 10162
  140.6839  143.8020  150.7158 LP  0  0  0  0  0  0  0  0  0  0  0  0  # atno 17343 bound_to 10162
  157.4712  131.0893  151.0640 LP  0  0  0  0  0  0  0  0  0  0  0  0  # atno 17370 bound_to 10713
  157.1100  130.6017  149.5480 LP  0  0  0  0  0  0  0  0  0  0  0  0  # atno 17371 bound_to 10713
  140.5997  134.5567  157.5515 LP  0  0  0  0  0  0  0  0  0  0  0  0  # atno 17394 bound_to 11000
  139.9375  134.7847  156.0763 LP  0  0  0  0  0  0  0  0  0  0  0  0  # atno 17395 bound_to 11000

$$$$
