AV-unprocessed.smi:356|AV-procd|sdf|2412|dock2
  -GOLD-   2262022343D 1   1.00000     0.00000
 Structure written by MMmdl.
 42 44  0  0  0  0  0  0  0  0  2 V2000
  149.9032  141.1260  155.4089 C   0  0  0  0  0  0  0  0  0  0  0  0
  150.5683  141.8330  156.5419 C   0  0  0  0  0  0  0  0  0  0  0  0
  150.6882  143.1825  156.6872 N   0  3  0  0  0  0  0  0  0  0  0  0
  151.3712  143.4708  157.8696 C   0  0  0  0  0  0  0  0  0  0  0  0
  151.7287  144.6885  158.4402 C   0  0  0  0  0  0  0  0  0  0  0  0
  152.4252  144.6330  159.6651 C   0  0  0  0  0  0  0  0  0  0  0  0
  152.7403  143.4016  160.2753 C   0  0  0  0  0  0  0  0  0  0  0  0
  152.3735  142.1733  159.6867 C   0  0  0  0  0  0  0  0  0  0  0  0
  151.6848  142.2362  158.4753 C   0  0  0  0  0  0  0  0  0  0  0  0
  151.1693  141.2544  157.6203 N   0  0  0  0  0  0  0  0  0  0  0  0
  151.3210  139.8305  157.9576 C   0  0  0  0  0  0  0  0  0  0  0  0
  152.7566  139.4746  158.3957 C   0  0  2  0  0  0  0  0  0  0  0  0
  153.4903  139.0166  157.2785 O   0  0  0  0  0  0  0  0  0  0  0  0
  152.7956  138.3714  159.4722 C   0  0  0  0  0  0  0  0  0  0  0  0
  153.9780  138.3751  160.3348 N   0  0  0  0  0  0  0  0  0  0  0  0
  153.8708  137.4295  161.4443 C   0  0  0  0  0  0  0  0  0  0  0  0
  155.1092  137.4700  162.3565 C   0  0  0  0  0  0  0  0  0  0  0  0
  155.3086  138.7953  162.8364 O   0  0  0  0  0  0  0  0  0  0  0  0
  155.4660  139.7413  161.7843 C   0  0  0  0  0  0  0  0  0  0  0  0
  154.2271  139.7087  160.8727 C   0  0  0  0  0  0  0  0  0  0  0  0
  149.4344  141.8410  154.7325 H   0  0  0  0  0  0  0  0  0  0  0  0
  149.1354  140.4492  155.7837 H   0  0  0  0  0  0  0  0  0  0  0  0
  150.6352  140.5448  154.8480 H   0  0  0  0  0  0  0  0  0  0  0  0
  151.4880  145.6330  157.9746 H   0  0  0  0  0  0  0  0  0  0  0  0
  152.7231  145.5535  160.1466 H   0  0  0  0  0  0  0  0  0  0  0  0
  153.2738  143.3985  161.2147 H   0  0  0  0  0  0  0  0  0  0  0  0
  152.6179  141.2372  160.1658 H   0  0  0  0  0  0  0  0  0  0  0  0
  150.6219  139.6242  158.7686 H   0  0  0  0  0  0  0  0  0  0  0  0
  150.9950  139.2175  157.1173 H   0  0  0  0  0  0  0  0  0  0  0  0
  153.2642  140.3692  158.7545 H   0  0  0  0  0  0  0  0  0  0  0  0
  153.0993  138.2129  156.9718 H   0  0  0  0  0  0  0  0  0  0  0  0
  151.9043  138.4771  160.0927 H   0  0  0  0  0  0  0  0  0  0  0  0
  152.7076  137.3957  158.9909 H   0  0  0  0  0  0  0  0  0  0  0  0
  152.9805  137.6510  162.0350 H   0  0  0  0  0  0  0  0  0  0  0  0
  153.7538  136.4140  161.0688 H   0  0  0  0  0  0  0  0  0  0  0  0
  154.9764  136.7994  163.2056 H   0  0  0  0  0  0  0  0  0  0  0  0
  155.9962  137.1333  161.8178 H   0  0  0  0  0  0  0  0  0  0  0  0
  155.5943  140.7345  162.2149 H   0  0  0  0  0  0  0  0  0  0  0  0
  156.3706  139.5184  161.2162 H   0  0  0  0  0  0  0  0  0  0  0  0
  154.3650  140.4176  160.0556 H   0  0  0  0  0  0  0  0  0  0  0  0
  153.3572  140.0487  161.4368 H   0  0  0  0  0  0  0  0  0  0  0  0
  150.3275  143.8562  156.0238 H   0  0  0  0  0  0  0  0  0  0  0  0
  1  2  1  0  0  0  0
  1 21  1  0  0  0  0
  1 22  1  0  0  0  0
  1 23  1  0  0  0  0
  2 10  1  0  0  0  0
  2  3  2  0  0  0  0
  3  4  1  0  0  0  0
  3 42  1  0  0  0  0
  4  9  2  0  0  0  0
  4  5  1  0  0  0  0
  5  6  2  0  0  0  0
  5 24  1  0  0  0  0
  6  7  1  0  0  0  0
  6 25  1  0  0  0  0
  7  8  2  0  0  0  0
  7 26  1  0  0  0  0
  8  9  1  0  0  0  0
  8 27  1  0  0  0  0
  9 10  1  0  0  0  0
 10 11  1  0  0  0  0
 11 12  1  0  0  0  0
 11 28  1  0  0  0  0
 11 29  1  0  0  0  0
 12 13  1  0  0  0  0
 12 14  1  0  0  0  0
 12 30  1  0  0  0  0
 13 31  1  0  0  0  0
 14 15  1  0  0  0  0
 14 32  1  0  0  0  0
 14 33  1  0  0  0  0
 15 20  1  0  0  0  0
 15 16  1  0  0  0  0
 16 17  1  0  0  0  0
 16 34  1  0  0  0  0
 16 35  1  0  0  0  0
 17 18  1  0  0  0  0
 17 36  1  0  0  0  0
 17 37  1  0  0  0  0
 18 19  1  0  0  0  0
 19 20  1  0  0  0  0
 19 38  1  0  0  0  0
 19 39  1  0  0  0  0
 20 40  1  0  0  0  0
 20 41  1  0  0  0  0
M  CHG  1   3   1
M  END
> <s_m_source_file>
AV-unprocessed.smi

> <i_m_source_file_index>
356

> <i_lp_mmshare_version>
43012

> <i_f3d_flags>
0

> <s_epik_input>
W2NIXTFbY0hdW2NIXVtjSF1jKGMxMiluKGMobjIpW0NIM10pW0NIMl1bQ0BIXShbT0hdKVtDSDJdTjNbQ0gyXVtDSDJdT1tDSDJdW0NIMl0z

> <s_epik_cmdline>
J2VwaWtfcHl0aG9uJywgJy1waCcsICc3LjAnLCAnLXRuJywgJzgnLCAnLW1hJywgJzIwMCcsICctbWV0YWxfYmluZGluZycsICctaW1hZScsICc8aW5maWxlLm1hZT4nLCAnLW9tYWUnLCAnPG91dGZpbGUubWFlPic=

> <r_epik_Ionization_Penalty>
1.35865

> <r_epik_Ionization_Penalty_Charging>
1.14429

> <r_epik_Ionization_Penalty_Neutral>
0.214359

> <r_epik_State_Penalty>
1.39809

> <r_epik_Charging_Adjusted_Penalty>
2.54238

> <i_epik_Tot_Q>
1

> <i_epik_Tot_abs_Q>
1

> <r_epik_Metal_State_Penalty>
5.40564

> <b_epik_Metal_Only>
0

> <s_lp_Force_Field>
OPLS_2005

> <r_lp_Energy>
31.5146

> <b_lp_Chiralities_Consistent>
1

> <s_lp_Variant>
AV-unprocessed.smi:356-5

> <Gold.Version>
5.8.1

> <Gold.Id.Protein>
6NUR|6NUR_protein|mol2

> <Gold.PLP.Fitness>
49.1950

> <Gold.PLP.PLP>
-43.6609

> <Gold.PLP.part.hbond>
-1.9101

> <Gold.PLP.part.metal>
0.0000

> <Gold.PLP.part.buried>
-5.8067

> <Gold.PLP.part.nonpolar>
-36.2486

> <Gold.PLP.part.repulsive>
0.0674

> <Gold.PLP.ligand.clash>
0.0000

> <Gold.PLP.ligand.torsion>
0.9215

> <Gold.PLP.Chemscore.Hbond>
2.4400

> <Gold.PLP.Chemscore.CHOScore>
0.0000

> <Gold.PLP.Chemscore.Metal>
0.0000

> <Gold.Chemscore.Hbonds>
donor molecule, donor type, donor heavy atom, donor atom, acceptor molecule, acceptor atom, score
      L1  H     3    42       P1  8028  1.66
      P1  H  7997  8010       L1    13  0.98

> <Gold.PLP.Chemscore.Internal.Correction>
0.0572

> <Gold.Rescore>
     Score         DG    S(hbond)    S(metal)    S(lipo)     H(rot)  DE(clash)    DE(int)     intcor
     18.82     -19.56       1.90        0.00     110.94       2.05       0.00       0.74       ----

> <Gold.Chemscore.Fitness>
18.8225

> <Gold.Chemscore.DG>
-19.5648

> <Gold.Chemscore.ZeroCoef>
-5.4800

> <Gold.Chemscore.Hbond>
1.9049

> <Gold.Chemscore.Metal>
0.0000

> <Gold.Chemscore.Lipo>
110.9424

> <Gold.Chemscore.Internal_Hbond>
0.0000

> <Gold.Chemscore.DEClash>
0.0000

> <Gold.Chemscore.DEInternal>
0.7423

> <Gold.Chemscore.Rot>
2.0539

> <Gold.Chemscore.Internal.Correction>
   9.000000E+99

> <Gold.Chemscore.Hbonds>
donor molecule, donor type, donor heavy atom, donor atom, acceptor molecule, acceptor atom, score
      L1  H     3    42       P1  8028  0.83
      P1  H  7997  8010       L1    13  0.58

> <Gold.Chemscore.Hbond.Weighted>
-6.3624

> <Gold.Chemscore.Metal.Weighted>
-0.0000

> <Gold.Chemscore.Lipo.Weighted>
-12.9803

> <Gold.Chemscore.Internal_Hbond.Weighted>
0.0000

> <Gold.Chemscore.DEClash.Weighted>
0.0000

> <Gold.Chemscore.DEInternal.Weighted>
0.7423

> <Gold.Chemscore.Rot.Weighted>
5.2579

> <Gold.Chemscore.Internal.Correction.Weighted>
   9.000000E+99

> <Gold.Protein.RotatedTorsions>
[ 6907 6896 6895 6894 ] final  -19.58 input  -60.11 | X-H torsion
[ 7974 7965 7964 7962 ] final  102.89 input  175.53 | X-H torsion
[ 8008 7997 7996 7995 ] final   32.67 input   59.86 | X-H torsion
[ 10167 10162 10161 10158 ] final   26.60 input  -65.29 | X-H torsion
[ 10718 10713 10712 10709 ] final  -44.63 input   66.30 | X-H torsion
[ 10763 10752 10751 10750 ] final -104.23 input  -60.55 | X-H torsion
[ 11005 11000 10999 10996 ] final   55.21 input  -57.11 | X-H torsion

> <Gold.Protein.ActiveResidues>
 VAL166  LYS551  ARG553  GLY616  TRP617  ASP618  TYR619  PRO620  LYS621  CYS622 
 ASP623  PHE694  ASN695  SER759  ASP760  ASP761  ALA762  ILE779  LEU786  VAL792 
 PHE793  MET794  SER795  GLU796  ALA797  LYS798  CYS799  TRP800  GLU811  SER814 

> <Gold.Protein.RotatedAtoms>
  151.2610  135.0654  159.9097 H   0  0  0  0  0  0  0  0  0  0  0  0  # atno 6907 bound_to 6896
  152.5366  134.0231  159.8001 H   0  0  0  0  0  0  0  0  0  0  0  0  # atno 6908 bound_to 6896
  151.0454  133.5620  159.2678 H   0  0  0  0  0  0  0  0  0  0  0  0  # atno 6909 bound_to 6896
  145.3531  139.2434  143.3547 H   0  0  0  0  0  0  0  0  0  0  0  0  # atno 7974 bound_to 7965
  155.1263  140.3253  155.4485 H   0  0  0  0  0  0  0  0  0  0  0  0  # atno 8008 bound_to 7997
  156.2648  140.2018  156.6332 H   0  0  0  0  0  0  0  0  0  0  0  0  # atno 8009 bound_to 7997
  154.6646  140.0543  157.0086 H   0  0  0  0  0  0  0  0  0  0  0  0  # atno 8010 bound_to 7997
  140.5009  144.0317  150.6332 H   0  0  0  0  0  0  0  0  0  0  0  0  # atno 10167 bound_to 10162
  156.2366  130.4176  149.8810 H   0  0  0  0  0  0  0  0  0  0  0  0  # atno 10718 bound_to 10713
  154.7863  135.4794  153.9954 H   0  0  0  0  0  0  0  0  0  0  0  0  # atno 10763 bound_to 10752
  153.1565  135.6801  153.8811 H   0  0  0  0  0  0  0  0  0  0  0  0  # atno 10764 bound_to 10752
  153.8439  135.3176  155.3406 H   0  0  0  0  0  0  0  0  0  0  0  0  # atno 10765 bound_to 10752
  140.0625  134.5583  155.9136 H   0  0  0  0  0  0  0  0  0  0  0  0  # atno 11005 bound_to 11000
  146.2959  140.4151  142.8722 LP  0  0  0  0  0  0  0  0  0  0  0  0  # atno 17320 bound_to 7965
  144.8702  140.7262  143.6051 LP  0  0  0  0  0  0  0  0  0  0  0  0  # atno 17321 bound_to 7965
  140.3612  143.2907  152.0381 LP  0  0  0  0  0  0  0  0  0  0  0  0  # atno 17342 bound_to 10162
  139.4872  144.6301  151.7087 LP  0  0  0  0  0  0  0  0  0  0  0  0  # atno 17343 bound_to 10162
  156.6406  130.8703  151.3513 LP  0  0  0  0  0  0  0  0  0  0  0  0  # atno 17370 bound_to 10713
  157.7157  130.9494  150.1247 LP  0  0  0  0  0  0  0  0  0  0  0  0  # atno 17371 bound_to 10713
  141.1979  133.6598  156.5764 LP  0  0  0  0  0  0  0  0  0  0  0  0  # atno 17394 bound_to 11000
  140.3749  134.7574  157.4623 LP  0  0  0  0  0  0  0  0  0  0  0  0  # atno 17395 bound_to 11000

$$$$
