AV-unprocessed.smi:527|AV-procd|sdf|2821|dock10
  -GOLD-   2262023303D 1   1.00000     0.00000
 Structure written by MMmdl.
 42 43  0  0  0  0  0  0  0  0  1 V2000
  146.2311  142.3861  153.9342 C   0  0  0  0  0  0  0  0  0  0  0  0
  147.1320  141.2214  154.3778 C   0  0  2  0  0  0  0  0  0  0  0  0
  148.6222  141.6191  154.3825 C   0  0  0  0  0  0  0  0  0  0  0  0
  149.5059  140.4841  154.9237 C   0  0  0  0  0  0  0  0  0  0  0  0
  149.2736  139.1717  154.1596 C   0  0  0  0  0  0  0  0  0  0  0  0
  147.7833  138.7795  154.1619 C   0  0  2  0  0  0  0  0  0  0  0  0
  147.6041  137.5129  153.4557 N   0  0  0  0  0  0  0  0  0  0  0  0
  146.6046  136.6422  153.6613 C   0  0  0  0  0  0  0  0  0  0  0  0
  145.6579  136.8624  154.4198 O   0  0  0  0  0  0  0  0  0  0  0  0
  146.7822  135.5268  152.9288 N   0  0  0  0  0  0  0  0  0  0  0  0
  146.0070  134.4227  152.9063 C   0  0  0  0  0  0  0  0  0  0  0  0
  144.9950  134.2510  153.5883 O   0  0  0  0  0  0  0  0  0  0  0  0
  146.4576  133.3159  151.9494 C   0  0  0  0  0  0  0  0  0  0  0  0
  145.3611  132.8503  151.1191 N   0  0  0  0  0  0  0  0  0  0  0  0
  144.6687  133.5768  150.1582 C   0  0  0  0  0  0  0  0  0  0  0  0
  143.7148  132.7315  149.6380 C   0  0  0  0  0  0  0  0  0  0  0  0
  143.8023  131.4875  150.2585 N   0  0  0  0  0  0  0  0  0  0  0  0
  144.7994  131.6328  151.1215 C   0  0  0  0  0  0  0  0  0  0  0  0
  146.8924  139.9118  153.5797 C   0  0  2  0  0  0  0  0  0  0  0  0
  147.0467  140.0825  152.0505 C   0  0  0  0  0  0  0  0  0  0  0  0
  146.4948  142.7482  152.9406 H   0  0  0  0  0  0  0  0  0  0  0  0
  146.3221  143.2289  154.6200 H   0  0  0  0  0  0  0  0  0  0  0  0
  145.1822  142.0893  153.9179 H   0  0  0  0  0  0  0  0  0  0  0  0
  146.8588  141.0098  155.4129 H   0  0  0  0  0  0  0  0  0  0  0  0
  148.9437  141.8889  153.3762 H   0  0  0  0  0  0  0  0  0  0  0  0
  148.7660  142.5095  154.9956 H   0  0  0  0  0  0  0  0  0  0  0  0
  150.5565  140.7693  154.8626 H   0  0  0  0  0  0  0  0  0  0  0  0
  149.2900  140.3299  155.9816 H   0  0  0  0  0  0  0  0  0  0  0  0
  149.6371  139.2743  153.1366 H   0  0  0  0  0  0  0  0  0  0  0  0
  149.8679  138.3788  154.6156 H   0  0  0  0  0  0  0  0  0  0  0  0
  147.4956  138.6223  155.2035 H   0  0  0  0  0  0  0  0  0  0  0  0
  148.2865  137.2924  152.7453 H   0  0  0  0  0  0  0  0  0  0  0  0
  147.5810  135.5199  152.3117 H   0  0  0  0  0  0  0  0  0  0  0  0
  147.2599  133.6867  151.3103 H   0  0  0  0  0  0  0  0  0  0  0  0
  146.8563  132.4697  152.5109 H   0  0  0  0  0  0  0  0  0  0  0  0
  144.9032  134.6065  149.9317 H   0  0  0  0  0  0  0  0  0  0  0  0
  142.9778  132.9215  148.8717 H   0  0  0  0  0  0  0  0  0  0  0  0
  145.1259  130.8368  151.7747 H   0  0  0  0  0  0  0  0  0  0  0  0
  145.8538  139.6240  153.7497 H   0  0  0  0  0  0  0  0  0  0  0  0
  148.0521  140.3958  151.7719 H   0  0  0  0  0  0  0  0  0  0  0  0
  146.3508  140.8238  151.6595 H   0  0  0  0  0  0  0  0  0  0  0  0
  146.8338  139.1546  151.5198 H   0  0  0  0  0  0  0  0  0  0  0  0
  1  2  1  0  0  0  0
  1 21  1  0  0  0  0
  1 22  1  0  0  0  0
  1 23  1  0  0  0  0
  2 19  1  0  0  0  0
  2  3  1  0  0  0  0
  2 24  1  0  0  0  0
  3  4  1  0  0  0  0
  3 25  1  0  0  0  0
  3 26  1  0  0  0  0
  4  5  1  0  0  0  0
  4 27  1  0  0  0  0
  4 28  1  0  0  0  0
  5  6  1  0  0  0  0
  5 29  1  0  0  0  0
  5 30  1  0  0  0  0
  6  7  1  0  0  0  0
  6 19  1  0  0  0  0
  6 31  1  0  0  0  0
  7  8  1  0  0  0  0
  7 32  1  0  0  0  0
  8  9  2  0  0  0  0
  8 10  1  0  0  0  0
 10 11  1  0  0  0  0
 10 33  1  0  0  0  0
 11 12  2  0  0  0  0
 11 13  1  0  0  0  0
 13 14  1  0  0  0  0
 13 34  1  0  0  0  0
 13 35  1  0  0  0  0
 14 18  1  0  0  0  0
 14 15  1  0  0  0  0
 15 16  2  0  0  0  0
 15 36  1  0  0  0  0
 16 17  1  0  0  0  0
 16 37  1  0  0  0  0
 17 18  2  0  0  0  0
 18 38  1  0  0  0  0
 19 20  1  0  0  0  0
 19 39  1  0  0  0  0
 20 40  1  0  0  0  0
 20 41  1  0  0  0  0
 20 42  1  0  0  0  0
M  END
> <s_m_source_file>
AV-unprocessed.smi

> <i_m_source_file_index>
527

> <i_lp_mmshare_version>
43012

> <i_f3d_flags>
0

> <s_epik_input>
W0NIM11bQ0BASF0xW0NIMl1bQ0gyXVtDSDJdW0NASF0oW0NASF0xW0NIM10pW05IXUMoPU8pW05IXUMoPU8pW0NIMl1uMltjSF1bY0hdbltjSF0y

> <s_epik_cmdline>
J2VwaWtfcHl0aG9uJywgJy1waCcsICc3LjAnLCAnLXRuJywgJzgnLCAnLW1hJywgJzIwMCcsICctbWV0YWxfYmluZGluZycsICctaW1hZScsICc8aW5maWxlLm1hZT4nLCAnLW9tYWUnLCAnPG91dGZpbGUubWFlPic=

> <r_lp_tautomer_probability>
1

> <r_epik_Ionization_Penalty>
0.172132

> <r_epik_Ionization_Penalty_Charging>
0.172105

> <r_epik_Ionization_Penalty_Neutral>
2.71747e-05

> <r_epik_State_Penalty>
0.161503

> <r_epik_Charging_Adjusted_Penalty>
0.333607

> <i_epik_Tot_Q>
0

> <i_epik_Tot_abs_Q>
0

> <r_epik_Metal_State_Penalty>
0.124763

> <b_epik_Metal_Only>
0

> <s_lp_Force_Field>
OPLS_2005

> <r_lp_Energy>
16.867

> <b_lp_Chiralities_Consistent>
1

> <s_lp_Variant>
AV-unprocessed.smi:527-7

> <Gold.Version>
5.8.1

> <Gold.Id.Protein>
6NUR|6NUR_protein|mol2

> <Gold.PLP.Fitness>
44.2551

> <Gold.PLP.PLP>
-33.6971

> <Gold.PLP.part.hbond>
-2.6822

> <Gold.PLP.part.metal>
0.0000

> <Gold.PLP.part.buried>
1.5373

> <Gold.PLP.part.nonpolar>
-32.0141

> <Gold.PLP.part.repulsive>
0.3308

> <Gold.PLP.ligand.clash>
0.0000

> <Gold.PLP.ligand.torsion>
0.4659

> <Gold.PLP.Chemscore.Hbond>
2.6457

> <Gold.PLP.Chemscore.CHOScore>
1.1753

> <Gold.PLP.Chemscore.Metal>
0.0000

> <Gold.Chemscore.Hbonds>
donor molecule, donor type, donor heavy atom, donor atom, acceptor molecule, acceptor atom, score
      L1  H     7    32       P1  7948  0.98
      L1  H    10    33       P1  7948  0.99
      P1  H 10785 10796       L1    17  0.62
      L1  C    15    36       P1  7921  0.50
      L1  C    16    37       P1 10186  0.68

> <Gold.PLP.Chemscore.Internal.Correction>
0.0267

> <Gold.Rescore>
     Score         DG    S(hbond)    S(metal)    S(lipo)     H(rot)  DE(clash)    DE(int)     intcor
     15.07     -18.79       2.66        0.00      74.31       1.66       1.94       1.78       ----

> <Gold.Chemscore.Fitness>
15.0731

> <Gold.Chemscore.DG>
-18.7903

> <Gold.Chemscore.ZeroCoef>
-5.4800

> <Gold.Chemscore.Hbond>
2.6565

> <Gold.Chemscore.Metal>
0.0000

> <Gold.Chemscore.Lipo>
74.3130

> <Gold.Chemscore.Internal_Hbond>
0.0000

> <Gold.Chemscore.DEClash>
1.9375

> <Gold.Chemscore.DEInternal>
1.7797

> <Gold.Chemscore.Rot>
1.6629

> <Gold.Chemscore.Internal.Correction>
   9.000000E+99

> <Gold.Chemscore.Hbonds>
donor molecule, donor type, donor heavy atom, donor atom, acceptor molecule, acceptor atom, score
      L1  H     7    32       P1  7948  0.87
      L1  H    10    33       P1  7948  0.91
      P1  H 10785 10796       L1    17  0.28

> <Gold.Chemscore.Hbond.Weighted>
-8.8726

> <Gold.Chemscore.Metal.Weighted>
-0.0000

> <Gold.Chemscore.Lipo.Weighted>
-8.6946

> <Gold.Chemscore.Internal_Hbond.Weighted>
0.0000

> <Gold.Chemscore.DEClash.Weighted>
1.9375

> <Gold.Chemscore.DEInternal.Weighted>
1.7797

> <Gold.Chemscore.Rot.Weighted>
4.2569

> <Gold.Chemscore.Internal.Correction.Weighted>
   9.000000E+99

> <Gold.Protein.RotatedTorsions>
[ 6907 6896 6895 6894 ] final -101.94 input  -60.11 | X-H torsion
[ 7974 7965 7964 7962 ] final   49.70 input  175.53 | X-H torsion
[ 8008 7997 7996 7995 ] final -100.36 input   59.86 | X-H torsion
[ 10167 10162 10161 10158 ] final   22.55 input  -65.29 | X-H torsion
[ 10718 10713 10712 10709 ] final  106.19 input   66.30 | X-H torsion
[ 10763 10752 10751 10750 ] final   -0.90 input  -60.55 | X-H torsion
[ 11005 11000 10999 10996 ] final -124.52 input  -57.11 | X-H torsion

> <Gold.Protein.ActiveResidues>
 VAL166  LYS551  ARG553  GLY616  TRP617  ASP618  TYR619  PRO620  LYS621  CYS622 
 ASP623  PHE694  ASN695  SER759  ASP760  ASP761  ALA762  ILE779  LEU786  VAL792 
 PHE793  MET794  SER795  GLU796  ALA797  LYS798  CYS799  TRP800  GLU811  SER814 

> <Gold.Protein.RotatedAtoms>
  150.7175  134.0657  159.3846 H   0  0  0  0  0  0  0  0  0  0  0  0  # atno 6907 bound_to 6896
  151.8638  135.0512  160.0481 H   0  0  0  0  0  0  0  0  0  0  0  0  # atno 6908 bound_to 6896
  152.2697  133.5335  159.5468 H   0  0  0  0  0  0  0  0  0  0  0  0  # atno 6909 bound_to 6896
  146.0084  139.4515  142.9972 H   0  0  0  0  0  0  0  0  0  0  0  0  # atno 7974 bound_to 7965
  154.8275  140.0441  157.1454 H   0  0  0  0  0  0  0  0  0  0  0  0  # atno 8008 bound_to 7997
  154.9189  140.3024  155.5206 H   0  0  0  0  0  0  0  0  0  0  0  0  # atno 8009 bound_to 7997
  156.2985  140.2344  156.4237 H   0  0  0  0  0  0  0  0  0  0  0  0  # atno 8010 bound_to 7997
  140.5339  143.9794  150.6481 H   0  0  0  0  0  0  0  0  0  0  0  0  # atno 10167 bound_to 10162
  157.6677  131.0845  150.5969 H   0  0  0  0  0  0  0  0  0  0  0  0  # atno 10718 bound_to 10713
  153.3378  135.6979  153.6892 H   0  0  0  0  0  0  0  0  0  0  0  0  # atno 10763 bound_to 10752
  153.5669  135.3524  155.2822 H   0  0  0  0  0  0  0  0  0  0  0  0  # atno 10764 bound_to 10752
  154.8631  135.4263  154.2584 H   0  0  0  0  0  0  0  0  0  0  0  0  # atno 10765 bound_to 10752
  140.9834  134.0641  157.3739 H   0  0  0  0  0  0  0  0  0  0  0  0  # atno 11005 bound_to 11000
  145.7381  141.0018  143.1316 LP  0  0  0  0  0  0  0  0  0  0  0  0  # atno 17320 bound_to 7965
  144.6944  139.9065  143.7461 LP  0  0  0  0  0  0  0  0  0  0  0  0  # atno 17321 bound_to 7965
  140.3176  143.3157  152.0816 LP  0  0  0  0  0  0  0  0  0  0  0  0  # atno 17342 bound_to 10162
  139.4964  144.6595  151.6497 LP  0  0  0  0  0  0  0  0  0  0  0  0  # atno 17343 bound_to 10162
  156.6270  130.4421  149.5801 LP  0  0  0  0  0  0  0  0  0  0  0  0  # atno 17370 bound_to 10713
  156.2312  130.6795  151.1465 LP  0  0  0  0  0  0  0  0  0  0  0  0  # atno 17371 bound_to 10713
  139.8960  135.0144  156.7030 LP  0  0  0  0  0  0  0  0  0  0  0  0  # atno 17394 bound_to 11000
  140.7151  133.9189  155.8110 LP  0  0  0  0  0  0  0  0  0  0  0  0  # atno 17395 bound_to 11000

$$$$
