AV-unprocessed.smi:2032|AV-procd|sdf|8257|dock5
  -GOLD-   2272010533D 1   1.00000     0.00000
 Structure written by MMmdl.
 42 43  0  0  0  0  0  0  0  0  3 V2000
  146.0739  132.6145  149.8731 C   0  0  0  0  0  0  0  0  0  0  0  0
  146.4531  133.6686  150.9195 C   0  0  2  0  0  0  0  0  0  0  0  0
  147.1755  133.0498  152.1302 C   0  0  0  0  0  0  0  0  0  0  0  0
  147.4727  134.0693  153.1754 N   0  3  2  0  0  0  0  0  0  0  0  0
  148.1979  133.5093  154.3657 C   0  0  1  0  0  0  0  0  0  0  0  0
  149.3681  132.5891  153.9366 C   0  0  0  0  0  0  0  0  0  0  0  0
  148.7131  134.6197  155.3192 C   0  0  0  0  0  0  0  0  0  0  0  0
  148.8718  134.1424  156.6880 N   0  0  0  0  0  0  0  0  0  0  0  0
  148.1755  134.5796  157.7448 C   0  0  0  0  0  0  0  0  0  0  0  0
  147.3200  135.4551  157.5963 O   0  0  0  0  0  0  0  0  0  0  0  0
  148.5138  133.9728  158.9044 N   0  5  0  0  0  0  0  0  0  0  0  0
  147.8719  134.2887  160.0410 C   0  0  0  0  0  0  0  0  0  0  0  0
  147.6365  135.5506  160.4179 N   0  0  0  0  0  0  0  0  0  0  0  0
  146.9633  135.6494  161.6370 C   0  0  0  0  0  0  0  0  0  0  0  0
  146.6873  134.4343  162.2056 C   0  0  0  0  0  0  0  0  0  0  0  0
  147.2683  133.1219  161.2212 S   0  0  0  0  0  0  0  0  0  0  0  0
  146.2250  134.8092  153.5170 C   0  0  0  0  0  0  0  0  0  0  0  0
  145.5275  135.3641  152.2607 C   0  0  2  0  0  0  0  0  0  0  0  0
  144.1965  136.0480  152.5939 C   0  0  0  0  0  0  0  0  0  0  0  0
  145.2601  134.2980  151.3623 O   0  0  0  0  0  0  0  0  0  0  0  0
  146.9581  132.1050  149.4894 H   0  0  0  0  0  0  0  0  0  0  0  0
  145.5625  133.0726  149.0263 H   0  0  0  0  0  0  0  0  0  0  0  0
  145.4090  131.8600  150.2943 H   0  0  0  0  0  0  0  0  0  0  0  0
  147.0990  134.4090  150.4438 H   0  0  0  0  0  0  0  0  0  0  0  0
  146.5693  132.2528  152.5642 H   0  0  0  0  0  0  0  0  0  0  0  0
  148.0913  132.5940  151.7591 H   0  0  0  0  0  0  0  0  0  0  0  0
  147.4852  132.9015  154.9260 H   0  0  0  0  0  0  0  0  0  0  0  0
  149.9527  132.2393  154.7870 H   0  0  0  0  0  0  0  0  0  0  0  0
  150.0521  133.1081  153.2644 H   0  0  0  0  0  0  0  0  0  0  0  0
  149.0239  131.6831  153.4404 H   0  0  0  0  0  0  0  0  0  0  0  0
  149.6630  135.0150  154.9552 H   0  0  0  0  0  0  0  0  0  0  0  0
  148.0125  135.4515  155.3792 H   0  0  0  0  0  0  0  0  0  0  0  0
  149.5629  133.4249  156.8512 H   0  0  0  0  0  0  0  0  0  0  0  0
  146.7222  136.6269  162.0273 H   0  0  0  0  0  0  0  0  0  0  0  0
  146.1826  134.2313  163.1380 H   0  0  0  0  0  0  0  0  0  0  0  0
  145.5506  134.1493  154.0653 H   0  0  0  0  0  0  0  0  0  0  0  0
  146.4419  135.6614  154.1583 H   0  0  0  0  0  0  0  0  0  0  0  0
  146.1766  136.0936  151.7727 H   0  0  0  0  0  0  0  0  0  0  0  0
  144.3447  136.8871  153.2742 H   0  0  0  0  0  0  0  0  0  0  0  0
  143.5022  135.3527  153.0665 H   0  0  0  0  0  0  0  0  0  0  0  0
  143.7194  136.4326  151.6921 H   0  0  0  0  0  0  0  0  0  0  0  0
  148.0955  134.7429  152.7528 H   0  0  0  0  0  0  0  0  0  0  0  0
  1  2  1  0  0  0  0
  1 21  1  0  0  0  0
  1 22  1  0  0  0  0
  1 23  1  0  0  0  0
  2 20  1  0  0  0  0
  2  3  1  0  0  0  0
  2 24  1  0  0  0  0
  3  4  1  0  0  0  0
  3 25  1  0  0  0  0
  3 26  1  0  0  0  0
  4  5  1  0  0  0  0
  4 17  1  0  0  0  0
  4 42  1  0  0  0  0
  5  6  1  0  0  0  0
  5  7  1  0  0  0  0
  5 27  1  0  0  0  0
  6 28  1  0  0  0  0
  6 29  1  0  0  0  0
  6 30  1  0  0  0  0
  7  8  1  0  0  0  0
  7 31  1  0  0  0  0
  7 32  1  0  0  0  0
  8  9  1  0  0  0  0
  8 33  1  0  0  0  0
  9 10  2  0  0  0  0
  9 11  1  0  0  0  0
 11 12  1  0  0  0  0
 12 16  1  0  0  0  0
 12 13  2  0  0  0  0
 13 14  1  0  0  0  0
 14 15  2  0  0  0  0
 14 34  1  0  0  0  0
 15 16  1  0  0  0  0
 15 35  1  0  0  0  0
 17 18  1  0  0  0  0
 17 36  1  0  0  0  0
 17 37  1  0  0  0  0
 18 19  1  0  0  0  0
 18 20  1  0  0  0  0
 18 38  1  0  0  0  0
 19 39  1  0  0  0  0
 19 40  1  0  0  0  0
 19 41  1  0  0  0  0
M  CHG  1   4   1
M  CHG  1  11  -1
M  END
> <s_m_source_file>
AV-unprocessed.smi

> <i_m_source_file_index>
2032

> <i_lp_mmshare_version>
43012

> <i_f3d_flags>
0

> <s_epik_input>
W0NIM11bQ0BASF0xW0NIMl1OKFtDSDJdW0NASF0oTzEpW0NIM10pW0NASF0oW0NIM10pW0NIMl1bTkhdQyg9TylbTkhdYzJuW2NIXVtjSF1zMg==

> <s_epik_cmdline>
J2VwaWtfcHl0aG9uJywgJy1waCcsICc3LjAnLCAnLXRuJywgJzgnLCAnLW1hJywgJzIwMCcsICctbWV0YWxfYmluZGluZycsICctaW1hZScsICc8aW5maWxlLm1hZT4nLCAnLW9tYWUnLCAnPG91dGZpbGUubWFlPic=

> <r_lp_tautomer_probability>
0.999

> <r_epik_Ionization_Penalty>
6.71699

> <r_epik_Ionization_Penalty_Charging>
5.88592

> <r_epik_Ionization_Penalty_Neutral>
0.831074

> <r_epik_State_Penalty>
6.08365

> <r_epik_Charging_Adjusted_Penalty>
11.9696

> <i_epik_Tot_Q>
0

> <i_epik_Tot_abs_Q>
2

> <r_epik_Metal_State_Penalty>
2.0947

> <b_epik_Metal_Only>
1

> <s_lp_Force_Field>
OPLS_2005

> <r_lp_Energy>
10.3148

> <b_lp_Chiralities_Consistent>
1

> <s_lp_Variant>
AV-unprocessed.smi:2032-27

> <Gold.Version>
5.8.1

> <Gold.Id.Protein>
6NUR|6NUR_protein|mol2

> <Gold.PLP.Fitness>
41.8174

> <Gold.PLP.PLP>
-31.1863

> <Gold.PLP.part.hbond>
-2.0000

> <Gold.PLP.part.metal>
0.0000

> <Gold.PLP.part.buried>
-5.0862

> <Gold.PLP.part.nonpolar>
-24.8400

> <Gold.PLP.part.repulsive>
0.1691

> <Gold.PLP.ligand.clash>
0.0000

> <Gold.PLP.ligand.torsion>
0.7299

> <Gold.PLP.Chemscore.Hbond>
4.0000

> <Gold.PLP.Chemscore.CHOScore>
0.0000

> <Gold.PLP.Chemscore.Metal>
0.0000

> <Gold.Chemscore.Hbonds>
donor molecule, donor type, donor heavy atom, donor atom, acceptor molecule, acceptor atom, score
      L1  H     4    42       P1  7948  2.00
      P1  H  6896  6908       L1    11  0.90

> <Gold.PLP.Chemscore.Internal.Correction>
0.0909

> <Gold.Rescore>
     Score         DG    S(hbond)    S(metal)    S(lipo)     H(rot)  DE(clash)    DE(int)     intcor
     13.55     -15.53       1.91        0.00      65.88       1.58       0.00       1.98       ----

> <Gold.Chemscore.Fitness>
13.5513

> <Gold.Chemscore.DG>
-15.5329

> <Gold.Chemscore.ZeroCoef>
-5.4800

> <Gold.Chemscore.Hbond>
1.9125

> <Gold.Chemscore.Metal>
0.0000

> <Gold.Chemscore.Lipo>
65.8781

> <Gold.Chemscore.Internal_Hbond>
0.0000

> <Gold.Chemscore.DEClash>
0.0015

> <Gold.Chemscore.DEInternal>
1.9801

> <Gold.Chemscore.Rot>
1.5791

> <Gold.Chemscore.Internal.Correction>
   9.000000E+99

> <Gold.Chemscore.Hbonds>
donor molecule, donor type, donor heavy atom, donor atom, acceptor molecule, acceptor atom, score
      L1  H     4    42       P1  7948  0.70
      P1  H  6896  6908       L1    11  0.09

> <Gold.Chemscore.Hbond.Weighted>
-6.3876

> <Gold.Chemscore.Metal.Weighted>
-0.0000

> <Gold.Chemscore.Lipo.Weighted>
-7.7077

> <Gold.Chemscore.Internal_Hbond.Weighted>
0.0000

> <Gold.Chemscore.DEClash.Weighted>
0.0015

> <Gold.Chemscore.DEInternal.Weighted>
1.9801

> <Gold.Chemscore.Rot.Weighted>
4.0425

> <Gold.Chemscore.Internal.Correction.Weighted>
   9.000000E+99

> <Gold.Protein.RotatedTorsions>
[ 6907 6896 6895 6894 ] final  160.59 input  -60.11 | X-H torsion
[ 7974 7965 7964 7962 ] final  -83.01 input  175.53 | X-H torsion
[ 8008 7997 7996 7995 ] final -139.85 input   59.86 | X-H torsion
[ 10167 10162 10161 10158 ] final   22.18 input  -65.29 | X-H torsion
[ 10718 10713 10712 10709 ] final  -56.38 input   66.30 | X-H torsion
[ 10763 10752 10751 10750 ] final  -24.96 input  -60.55 | X-H torsion
[ 11005 11000 10999 10996 ] final   71.96 input  -57.11 | X-H torsion

> <Gold.Protein.ActiveResidues>
 VAL166  LYS551  ARG553  GLY616  TRP617  ASP618  TYR619  PRO620  LYS621  CYS622 
 ASP623  PHE694  ASN695  SER759  ASP760  ASP761  ALA762  ILE779  LEU786  VAL792 
 PHE793  MET794  SER795  GLU796  ALA797  LYS798  CYS799  TRP800  GLU811  SER814 

> <Gold.Protein.RotatedAtoms>
  151.9683  133.3717  159.4061 H   0  0  0  0  0  0  0  0  0  0  0  0  # atno 6907 bound_to 6896
  150.6953  134.4167  159.5196 H   0  0  0  0  0  0  0  0  0  0  0  0  # atno 6908 bound_to 6896
  152.1867  134.8707  160.0572 H   0  0  0  0  0  0  0  0  0  0  0  0  # atno 6909 bound_to 6896
  145.5257  140.9527  143.1631 H   0  0  0  0  0  0  0  0  0  0  0  0  # atno 7974 bound_to 7965
  155.4516  140.0539  157.3000 H   0  0  0  0  0  0  0  0  0  0  0  0  # atno 8008 bound_to 7997
  154.4775  140.2067  155.9799 H   0  0  0  0  0  0  0  0  0  0  0  0  # atno 8009 bound_to 7997
  156.1154  140.3197  155.8137 H   0  0  0  0  0  0  0  0  0  0  0  0  # atno 8010 bound_to 7997
  140.5368  143.9746  150.6496 H   0  0  0  0  0  0  0  0  0  0  0  0  # atno 10167 bound_to 10162
  156.1293  130.4160  150.0298 H   0  0  0  0  0  0  0  0  0  0  0  0  # atno 10718 bound_to 10713
  153.6921  135.6961  153.5087 H   0  0  0  0  0  0  0  0  0  0  0  0  # atno 10763 bound_to 10752
  153.2405  135.4307  155.0692 H   0  0  0  0  0  0  0  0  0  0  0  0  # atno 10764 bound_to 10752
  154.8369  135.3506  154.6462 H   0  0  0  0  0  0  0  0  0  0  0  0  # atno 10765 bound_to 10752
  139.9515  134.7218  156.0850 H   0  0  0  0  0  0  0  0  0  0  0  0  # atno 11005 bound_to 11000
  144.7652  139.6862  143.7218 LP  0  0  0  0  0  0  0  0  0  0  0  0  # atno 17320 bound_to 7965
  146.2077  139.5412  142.9702 LP  0  0  0  0  0  0  0  0  0  0  0  0  # atno 17321 bound_to 7965
  140.3136  143.3182  152.0855 LP  0  0  0  0  0  0  0  0  0  0  0  0  # atno 17342 bound_to 10162
  139.4974  144.6620  151.6442 LP  0  0  0  0  0  0  0  0  0  0  0  0  # atno 17343 bound_to 10162
  156.8214  130.9360  151.3641 LP  0  0  0  0  0  0  0  0  0  0  0  0  # atno 17370 bound_to 10713
  157.6472  130.8854  149.9562 LP  0  0  0  0  0  0  0  0  0  0  0  0  # atno 17371 bound_to 10713
  141.1179  133.6622  156.3141 LP  0  0  0  0  0  0  0  0  0  0  0  0  # atno 17394 bound_to 11000
  140.5707  134.5843  157.5457 LP  0  0  0  0  0  0  0  0  0  0  0  0  # atno 17395 bound_to 11000

$$$$
