AV-unprocessed.smi:4|AV-procd|sdf|33|dock1
  -GOLD-   2262015143D 1   1.00000     0.00000
 Structure written by MMmdl.
 44 45  0  0  0  0  0  0  0  0  2 V2000
  153.9132  137.4443  156.1289 C   0  0  0  0  0  0  0  0  0  0  0  0
  152.5468  137.5468  156.8557 C   0  0  0  0  0  0  0  0  0  0  0  0
  152.1672  136.0891  157.2242 C   0  0  0  0  0  0  0  0  0  0  0  0
  152.8198  138.3849  158.1316 C   0  0  0  0  0  0  0  0  0  0  0  0
  151.5029  138.1740  156.0175 N   0  0  0  0  0  0  0  0  0  0  0  0
  150.9020  139.4015  156.3075 C   0  0  0  0  0  0  0  0  0  0  0  0
  149.9525  139.9986  155.5426 C   0  0  0  0  0  0  0  0  0  0  0  0
  149.3240  141.3298  155.9400 C   0  0  0  0  0  0  0  0  0  0  0  0
  150.3402  142.3195  156.3600 N   0  3  0  0  0  0  0  0  0  0  0  0
  150.8948  142.1267  157.7177 C   0  0  0  0  0  0  0  0  0  0  0  0
  151.0183  143.4570  158.4684 C   0  0  0  0  0  0  0  0  0  0  0  0
  149.7772  144.1165  158.3207 O   0  0  0  0  0  0  0  0  0  0  0  0
  151.5120  143.3811  159.9250 C   0  0  0  0  0  0  0  0  0  0  0  0
  152.9154  143.7440  159.4390 C   0  0  0  0  0  0  0  0  0  0  0  0
  152.2577  144.3292  158.1891 C   0  0  0  0  0  0  0  0  0  0  0  0
  149.4792  139.3268  154.3321 C   0  0  0  0  0  0  0  0  0  0  0  0
  148.6217  139.7586  153.5637 O   0  0  0  0  0  0  0  0  0  0  0  0
  150.0895  138.1036  154.0665 N   0  0  0  0  0  0  0  0  0  0  0  0
  151.0752  137.4954  154.8403 C   0  0  0  0  0  0  0  0  0  0  0  0
  151.5170  136.4112  154.4645 O   0  0  0  0  0  0  0  0  0  0  0  0
  149.7919  137.6114  153.2362 H   0  0  0  0  0  0  0  0  0  0  0  0
  154.6663  136.9770  156.7650 H   0  0  0  0  0  0  0  0  0  0  0  0
  154.3071  138.4247  155.8573 H   0  0  0  0  0  0  0  0  0  0  0  0
  153.8520  136.8334  155.2272 H   0  0  0  0  0  0  0  0  0  0  0  0
  151.9214  135.5097  156.3335 H   0  0  0  0  0  0  0  0  0  0  0  0
  151.3222  136.0179  157.9064 H   0  0  0  0  0  0  0  0  0  0  0  0
  152.9941  135.5813  157.7218 H   0  0  0  0  0  0  0  0  0  0  0  0
  153.6825  138.0008  158.6770 H   0  0  0  0  0  0  0  0  0  0  0  0
  151.9944  138.3798  158.8410 H   0  0  0  0  0  0  0  0  0  0  0  0
  153.0328  139.4248  157.8819 H   0  0  0  0  0  0  0  0  0  0  0  0
  151.1815  139.9556  157.1885 H   0  0  0  0  0  0  0  0  0  0  0  0
  148.7053  141.7381  155.1396 H   0  0  0  0  0  0  0  0  0  0  0  0
  148.6534  141.1616  156.7831 H   0  0  0  0  0  0  0  0  0  0  0  0
  151.1099  142.2698  155.7078 H   0  0  0  0  0  0  0  0  0  0  0  0
  150.2625  141.4383  158.2792 H   0  0  0  0  0  0  0  0  0  0  0  0
  151.8708  141.6479  157.6287 H   0  0  0  0  0  0  0  0  0  0  0  0
  149.6697  144.3026  157.3999 H   0  0  0  0  0  0  0  0  0  0  0  0
  151.0778  144.1494  160.5677 H   0  0  0  0  0  0  0  0  0  0  0  0
  151.4390  142.3939  160.3828 H   0  0  0  0  0  0  0  0  0  0  0  0
  153.4410  144.4692  160.0610 H   0  0  0  0  0  0  0  0  0  0  0  0
  153.5304  142.8685  159.2259 H   0  0  0  0  0  0  0  0  0  0  0  0
  152.7839  144.1021  157.2616 H   0  0  0  0  0  0  0  0  0  0  0  0
  152.0588  145.3986  158.2802 H   0  0  0  0  0  0  0  0  0  0  0  0
  149.9389  143.2451  156.3077 H   0  0  0  0  0  0  0  0  0  0  0  0
  1  2  1  0  0  0  0
  1 22  1  0  0  0  0
  1 23  1  0  0  0  0
  1 24  1  0  0  0  0
  2  3  1  0  0  0  0
  2  4  1  0  0  0  0
  2  5  1  0  0  0  0
  3 25  1  0  0  0  0
  3 26  1  0  0  0  0
  3 27  1  0  0  0  0
  4 28  1  0  0  0  0
  4 29  1  0  0  0  0
  4 30  1  0  0  0  0
  5 19  1  0  0  0  0
  5  6  1  0  0  0  0
  6  7  2  0  0  0  0
  6 31  1  0  0  0  0
  7  8  1  0  0  0  0
  7 16  1  0  0  0  0
  8  9  1  0  0  0  0
  8 32  1  0  0  0  0
  8 33  1  0  0  0  0
  9 10  1  0  0  0  0
  9 34  1  0  0  0  0
  9 44  1  0  0  0  0
 10 11  1  0  0  0  0
 10 35  1  0  0  0  0
 10 36  1  0  0  0  0
 11 15  1  0  0  0  0
 11 12  1  0  0  0  0
 11 13  1  0  0  0  0
 12 37  1  0  0  0  0
 13 14  1  0  0  0  0
 13 38  1  0  0  0  0
 13 39  1  0  0  0  0
 14 15  1  0  0  0  0
 14 40  1  0  0  0  0
 14 41  1  0  0  0  0
 15 42  1  0  0  0  0
 15 43  1  0  0  0  0
 16 17  2  0  0  0  0
 16 18  1  0  0  0  0
 18 21  1  0  0  0  0
 18 19  1  0  0  0  0
 19 20  2  0  0  0  0
M  CHG  1   9   1
M  END
> <s_m_source_file>
AV-unprocessed.smi

> <i_m_source_file_index>
4

> <i_lp_mmshare_version>
43012

> <i_f3d_flags>
0

> <s_epik_input>
W0NIM11DKFtDSDNdKShbQ0gzXSluMVtjSF1jKGMoPU8pW25IXWMxPU8pW0NIMl1bTkhdW0NIMl1DMihbT0hdKVtDSDJdW0NIMl1bQ0gyXTI=

> <s_epik_cmdline>
J2VwaWtfcHl0aG9uJywgJy1waCcsICc3LjAnLCAnLXRuJywgJzgnLCAnLW1hJywgJzIwMCcsICctbWV0YWxfYmluZGluZycsICctaW1hZScsICc8aW5maWxlLm1hZT4nLCAnLW9tYWUnLCAnPG91dGZpbGUubWFlPic=

> <r_lp_tautomer_probability>
0.999537

> <r_epik_Ionization_Penalty>
0.0188443

> <r_epik_Ionization_Penalty_Charging>
0.0188443

> <r_epik_Ionization_Penalty_Neutral>
1.97485e-08

> <r_epik_State_Penalty>
0.0134361

> <r_epik_Charging_Adjusted_Penalty>
0.0322804

> <i_epik_Tot_Q>
1

> <i_epik_Tot_abs_Q>
1

> <r_epik_Metal_State_Penalty>
0.855907

> <b_epik_Metal_Only>
0

> <s_lp_Force_Field>
OPLS_2005

> <r_lp_Energy>
23.9463

> <b_lp_Chiralities_Consistent>
1

> <s_lp_Variant>
AV-unprocessed.smi:4-1

> <Gold.Version>
5.8.1

> <Gold.Id.Protein>
6NUR|6NUR_protein|mol2

> <Gold.PLP.Fitness>
43.7914

> <Gold.PLP.PLP>
-30.2804

> <Gold.PLP.part.hbond>
-4.9341

> <Gold.PLP.part.metal>
0.0000

> <Gold.PLP.part.buried>
-1.9282

> <Gold.PLP.part.nonpolar>
-27.3623

> <Gold.PLP.part.repulsive>
3.6293

> <Gold.PLP.ligand.clash>
0.0000

> <Gold.PLP.ligand.torsion>
0.7979

> <Gold.PLP.Chemscore.Hbond>
4.9588

> <Gold.PLP.Chemscore.CHOScore>
0.0000

> <Gold.PLP.Chemscore.Metal>
0.0000

> <Gold.Chemscore.Hbonds>
donor molecule, donor type, donor heavy atom, donor atom, acceptor molecule, acceptor atom, score
      L1  H     9    44       P1  8028  2.00
      L1  H    12    37       P1  8028  0.95
      L1  H    18    21       P1  7948  0.88
      P1  H 10752 10765       L1    20  1.00

> <Gold.PLP.Chemscore.Internal.Correction>
0.2307

> <Gold.Rescore>
     Score         DG    S(hbond)    S(metal)    S(lipo)     H(rot)  DE(clash)    DE(int)     intcor
     16.93     -20.91       3.28        0.00      93.66       2.53       1.71       2.27       ----

> <Gold.Chemscore.Fitness>
16.9285

> <Gold.Chemscore.DG>
-20.9107

> <Gold.Chemscore.ZeroCoef>
-5.4800

> <Gold.Chemscore.Hbond>
3.2783

> <Gold.Chemscore.Metal>
0.0000

> <Gold.Chemscore.Lipo>
93.6574

> <Gold.Chemscore.Internal_Hbond>
0.0000

> <Gold.Chemscore.DEClash>
1.7095

> <Gold.Chemscore.DEInternal>
2.2727

> <Gold.Chemscore.Rot>
2.5300

> <Gold.Chemscore.Internal.Correction>
   9.000000E+99

> <Gold.Chemscore.Hbonds>
donor molecule, donor type, donor heavy atom, donor atom, acceptor molecule, acceptor atom, score
      L1  H     9    44       P1  8028  0.99
      L1  H    12    37       P1  8028  0.21
      L1  H    18    21       P1  7948  0.52
      P1  H 10752 10765       L1    20  0.99

> <Gold.Chemscore.Hbond.Weighted>
-10.9495

> <Gold.Chemscore.Metal.Weighted>
-0.0000

> <Gold.Chemscore.Lipo.Weighted>
-10.9579

> <Gold.Chemscore.Internal_Hbond.Weighted>
0.0000

> <Gold.Chemscore.DEClash.Weighted>
1.7095

> <Gold.Chemscore.DEInternal.Weighted>
2.2727

> <Gold.Chemscore.Rot.Weighted>
6.4768

> <Gold.Chemscore.Internal.Correction.Weighted>
   9.000000E+99

> <Gold.Protein.RotatedTorsions>
[ 6907 6896 6895 6894 ] final  -84.31 input  -60.11 | X-H torsion
[ 7974 7965 7964 7962 ] final  178.74 input  175.53 | X-H torsion
[ 8008 7997 7996 7995 ] final   25.94 input   59.86 | X-H torsion
[ 10167 10162 10161 10158 ] final  -39.96 input  -65.29 | X-H torsion
[ 10718 10713 10712 10709 ] final   52.62 input   66.30 | X-H torsion
[ 10763 10752 10751 10750 ] final  168.83 input  -60.55 | X-H torsion
[ 11005 11000 10999 10996 ] final -111.34 input  -57.11 | X-H torsion

> <Gold.Protein.ActiveResidues>
 VAL166  LYS551  ARG553  GLY616  TRP617  ASP618  TYR619  PRO620  LYS621  CYS622 
 ASP623  PHE694  ASN695  SER759  ASP760  ASP761  ALA762  ILE779  LEU786  VAL792 
 PHE793  MET794  SER795  GLU796  ALA797  LYS798  CYS799  TRP800  GLU811  SER814 

> <Gold.Protein.RotatedAtoms>
  150.6877  134.3378  159.4854 H   0  0  0  0  0  0  0  0  0  0  0  0  # atno 6907 bound_to 6896
  152.1235  134.9185  160.0571 H   0  0  0  0  0  0  0  0  0  0  0  0  # atno 6908 bound_to 6896
  152.0382  133.3931  159.4363 H   0  0  0  0  0  0  0  0  0  0  0  0  # atno 6909 bound_to 6896
  144.7153  140.0444  143.6436 H   0  0  0  0  0  0  0  0  0  0  0  0  # atno 7974 bound_to 7965
  155.0195  140.3146  155.4799 H   0  0  0  0  0  0  0  0  0  0  0  0  # atno 8008 bound_to 7997
  156.2895  140.2200  156.5254 H   0  0  0  0  0  0  0  0  0  0  0  0  # atno 8009 bound_to 7997
  154.7465  140.0469  157.0844 H   0  0  0  0  0  0  0  0  0  0  0  0  # atno 8010 bound_to 7997
  140.7048  143.3182  151.2857 H   0  0  0  0  0  0  0  0  0  0  0  0  # atno 10167 bound_to 10162
  157.5091  130.8489  149.8412 H   0  0  0  0  0  0  0  0  0  0  0  0  # atno 10718 bound_to 10713
  154.3743  135.2753  155.2248 H   0  0  0  0  0  0  0  0  0  0  0  0  # atno 10763 bound_to 10752
  154.4382  135.5960  153.6116 H   0  0  0  0  0  0  0  0  0  0  0  0  # atno 10764 bound_to 10752
  152.9837  135.6012  154.3978 H   0  0  0  0  0  0  0  0  0  0  0  0  # atno 10765 bound_to 10752
  141.0740  133.9332  157.2427 H   0  0  0  0  0  0  0  0  0  0  0  0  # atno 11005 bound_to 11000
  145.9997  139.3081  143.0935 LP  0  0  0  0  0  0  0  0  0  0  0  0  # atno 17320 bound_to 7965
  145.8808  140.9364  143.0602 LP  0  0  0  0  0  0  0  0  0  0  0  0  # atno 17321 bound_to 7965
  139.6628  144.0159  152.2703 LP  0  0  0  0  0  0  0  0  0  0  0  0  # atno 17342 bound_to 10162
  139.9732  144.6479  150.7969 LP  0  0  0  0  0  0  0  0  0  0  0  0  # atno 17343 bound_to 10162
  156.0277  130.3774  150.1775 LP  0  0  0  0  0  0  0  0  0  0  0  0  # atno 17370 bound_to 10713
  156.9964  130.9909  151.3402 LP  0  0  0  0  0  0  0  0  0  0  0  0  # atno 17371 bound_to 10713
  139.9553  135.0167  156.9109 LP  0  0  0  0  0  0  0  0  0  0  0  0  # atno 17394 bound_to 11000
  140.5613  134.0532  155.7400 LP  0  0  0  0  0  0  0  0  0  0  0  0  # atno 17395 bound_to 11000

$$$$
