AV-unprocessed.smi:49|AV-procd|sdf|484|dock2
  -GOLD-   2262016343D 1   1.00000     0.00000
 Structure written by MMmdl.
 27 28  0  0  0  0  0  0  0  0  3 V2000
  152.8386  139.5565  159.2026 C   0  0  0  0  0  0  0  0  0  0  0  0
  152.4111  140.9168  158.6426 C   0  0  0  0  0  0  0  0  0  0  0  0
  151.8013  140.7988  157.2629 C   0  0  0  0  0  0  0  0  0  0  0  0
  150.6629  141.3574  156.8639 N   0  0  0  0  0  0  0  0  0  0  0  0
  150.5229  141.0206  155.5752 C   0  0  0  0  0  0  0  0  0  0  0  0
  149.3681  141.4614  154.7008 C   0  0  1  0  0  0  0  0  0  0  0  0
  148.5664  140.2957  154.1176 C   0  0  0  0  0  0  0  0  0  0  0  0
  147.2118  140.9382  153.8388 C   0  0  1  0  0  0  0  0  0  0  0  0
  146.1736  139.9838  153.7668 O   0  0  0  0  0  0  0  0  0  0  0  0
  147.0334  141.9033  155.0157 C   0  0  0  0  0  0  0  0  0  0  0  0
  148.3942  142.2871  155.4417 N   0  3  0  0  0  0  0  0  0  0  0  0
  151.5668  140.2860  155.1595 N   0  0  0  0  0  0  0  0  0  0  0  0
  152.3448  140.1568  156.2136 N   0  5  0  0  0  0  0  0  0  0  0  0
  149.7558  142.0714  153.8837 H   0  0  0  0  0  0  0  0  0  0  0  0
  147.2572  141.4982  152.9036 H   0  0  0  0  0  0  0  0  0  0  0  0
  153.2746  139.6643  160.1958 H   0  0  0  0  0  0  0  0  0  0  0  0
  153.5823  139.0844  158.5601 H   0  0  0  0  0  0  0  0  0  0  0  0
  151.9866  138.8806  159.2828 H   0  0  0  0  0  0  0  0  0  0  0  0
  151.6855  141.3836  159.3094 H   0  0  0  0  0  0  0  0  0  0  0  0
  153.2700  141.5869  158.5935 H   0  0  0  0  0  0  0  0  0  0  0  0
  149.0329  139.8537  153.2366 H   0  0  0  0  0  0  0  0  0  0  0  0
  148.4536  139.5107  154.8682 H   0  0  0  0  0  0  0  0  0  0  0  0
  145.4608  140.3500  153.2653 H   0  0  0  0  0  0  0  0  0  0  0  0
  146.4336  142.7747  154.7524 H   0  0  0  0  0  0  0  0  0  0  0  0
  146.5506  141.4039  155.8570 H   0  0  0  0  0  0  0  0  0  0  0  0
  148.4934  142.0996  156.4296 H   0  0  0  0  0  0  0  0  0  0  0  0
  148.5706  143.2647  155.2619 H   0  0  0  0  0  0  0  0  0  0  0  0
  1  2  1  0  0  0  0
  1 16  1  0  0  0  0
  1 17  1  0  0  0  0
  1 18  1  0  0  0  0
  2  3  1  0  0  0  0
  2 19  1  0  0  0  0
  2 20  1  0  0  0  0
  3 13  1  0  0  0  0
  3  4  2  0  0  0  0
  4  5  1  0  0  0  0
  5  6  1  0  0  0  0
  5 12  2  0  0  0  0
  6 14  1  0  0  0  0
  6 11  1  0  0  0  0
  6  7  1  0  0  0  0
  7  8  1  0  0  0  0
  7 21  1  0  0  0  0
  7 22  1  0  0  0  0
  8 15  1  0  0  0  0
  8  9  1  0  0  0  0
  8 10  1  0  0  0  0
  9 23  1  0  0  0  0
 10 11  1  0  0  0  0
 10 24  1  0  0  0  0
 10 25  1  0  0  0  0
 11 26  1  0  0  0  0
 11 27  1  0  0  0  0
 12 13  1  0  0  0  0
M  CHG  1  11   1
M  CHG  1  13  -1
M  END
> <s_m_source_file>
AV-unprocessed.smi

> <i_m_source_file_index>
49

> <i_lp_mmshare_version>
43012

> <i_f3d_flags>
0

> <s_epik_input>
W0NIM11bQ0gyXWMxbmMobltuSF0xKVtDQEBIXTJbQ0gyXVtDQEBIXShbT0hdKVtDSDJdW05IXTI=

> <s_epik_cmdline>
J2VwaWtfcHl0aG9uJywgJy1waCcsICc3LjAnLCAnLXRuJywgJzgnLCAnLW1hJywgJzIwMCcsICctbWV0YWxfYmluZGluZycsICctaW1hZScsICc8aW5maWxlLm1hZT4nLCAnLW9tYWUnLCAnPG91dGZpbGUubWFlPic=

> <r_lp_tautomer_probability>
0.948284

> <r_epik_Ionization_Penalty>
3.22013

> <r_epik_Ionization_Penalty_Charging>
3.22013

> <r_epik_Ionization_Penalty_Neutral>
3.9133e-08

> <r_epik_State_Penalty>
2.79459

> <r_epik_Charging_Adjusted_Penalty>
6.01472

> <i_epik_Tot_Q>
0

> <i_epik_Tot_abs_Q>
2

> <r_epik_Metal_State_Penalty>
0.589377

> <b_epik_Metal_Only>
1

> <s_lp_Force_Field>
OPLS_2005

> <r_lp_Energy>
9.67699

> <b_lp_Chiralities_Consistent>
1

> <s_lp_Variant>
AV-unprocessed.smi:49-22

> <Gold.Version>
5.8.1

> <Gold.Id.Protein>
6NUR|6NUR_protein|mol2

> <Gold.PLP.Fitness>
41.0118

> <Gold.PLP.PLP>
-23.5744

> <Gold.PLP.part.hbond>
-3.8691

> <Gold.PLP.part.metal>
0.0000

> <Gold.PLP.part.buried>
-1.3664

> <Gold.PLP.part.nonpolar>
-17.3687

> <Gold.PLP.part.repulsive>
0.2095

> <Gold.PLP.ligand.clash>
0.0000

> <Gold.PLP.ligand.torsion>
0.1061

> <Gold.PLP.Chemscore.Hbond>
5.8793

> <Gold.PLP.Chemscore.CHOScore>
0.0000

> <Gold.PLP.Chemscore.Metal>
0.0000

> <Gold.Chemscore.Hbonds>
donor molecule, donor type, donor heavy atom, donor atom, acceptor molecule, acceptor atom, score
      L1  H     9    23       P1 10175  1.00
      L1  H    11    27       P1  8028  1.98
      P1  H  7989  7998       L1    12  0.85
      P1  H  7997  8010       L1    13  2.00

> <Gold.PLP.Chemscore.Internal.Correction>
0.0116

> <Gold.Rescore>
     Score         DG    S(hbond)    S(metal)    S(lipo)     H(rot)  DE(clash)    DE(int)     intcor
     16.02     -16.15       3.28        0.00      38.11       1.86       0.11       0.02       ----

> <Gold.Chemscore.Fitness>
16.0166

> <Gold.Chemscore.DG>
-16.1479

> <Gold.Chemscore.ZeroCoef>
-5.4800

> <Gold.Chemscore.Hbond>
3.2819

> <Gold.Chemscore.Metal>
0.0000

> <Gold.Chemscore.Lipo>
38.1144

> <Gold.Chemscore.Internal_Hbond>
0.0000

> <Gold.Chemscore.DEClash>
0.1124

> <Gold.Chemscore.DEInternal>
0.0189

> <Gold.Chemscore.Rot>
1.8567

> <Gold.Chemscore.Internal.Correction>
   9.000000E+99

> <Gold.Chemscore.Hbonds>
donor molecule, donor type, donor heavy atom, donor atom, acceptor molecule, acceptor atom, score
      L1  H     9    23       P1 10175  0.97
      L1  H    11    27       P1  8028  0.91
      P1  H  7989  7998       L1    12  0.16
      P1  H  7997  8010       L1    13  0.66

> <Gold.Chemscore.Hbond.Weighted>
-10.9616

> <Gold.Chemscore.Metal.Weighted>
-0.0000

> <Gold.Chemscore.Lipo.Weighted>
-4.4594

> <Gold.Chemscore.Internal_Hbond.Weighted>
0.0000

> <Gold.Chemscore.DEClash.Weighted>
0.1124

> <Gold.Chemscore.DEInternal.Weighted>
0.0189

> <Gold.Chemscore.Rot.Weighted>
4.7531

> <Gold.Chemscore.Internal.Correction.Weighted>
   9.000000E+99

> <Gold.Protein.RotatedTorsions>
[ 6907 6896 6895 6894 ] final   92.52 input  -60.11 | X-H torsion
[ 7974 7965 7964 7962 ] final   99.01 input  175.53 | X-H torsion
[ 8008 7997 7996 7995 ] final   72.63 input   59.86 | X-H torsion
[ 10167 10162 10161 10158 ] final -121.96 input  -65.29 | X-H torsion
[ 10718 10713 10712 10709 ] final   79.51 input   66.30 | X-H torsion
[ 10763 10752 10751 10750 ] final   -4.72 input  -60.55 | X-H torsion
[ 11005 11000 10999 10996 ] final  124.20 input  -57.11 | X-H torsion

> <Gold.Protein.ActiveResidues>
 VAL166  LYS551  ARG553  GLY616  TRP617  ASP618  TYR619  PRO620  LYS621  CYS622 
 ASP623  PHE694  ASN695  SER759  ASP760  ASP761  ALA762  ILE779  LEU786  VAL792 
 PHE793  MET794  SER795  GLU796  ALA797  LYS798  CYS799  TRP800  GLU811  SER814 

> <Gold.Protein.RotatedAtoms>
  152.5452  134.1489  159.8509 H   0  0  0  0  0  0  0  0  0  0  0  0  # atno 6907 bound_to 6896
  151.1518  133.4895  159.2602 H   0  0  0  0  0  0  0  0  0  0  0  0  # atno 6908 bound_to 6896
  151.1465  135.0216  159.8704 H   0  0  0  0  0  0  0  0  0  0  0  0  # atno 6909 bound_to 6896
  145.4045  139.2342  143.3282 H   0  0  0  0  0  0  0  0  0  0  0  0  # atno 7974 bound_to 7965
  155.7717  140.3484  155.5250 H   0  0  0  0  0  0  0  0  0  0  0  0  # atno 8008 bound_to 7997
  155.8815  140.1003  157.1503 H   0  0  0  0  0  0  0  0  0  0  0  0  # atno 8009 bound_to 7997
  154.4025  140.1321  156.4190 H   0  0  0  0  0  0  0  0  0  0  0  0  # atno 8010 bound_to 7997
  140.0194  143.5360  152.2227 H   0  0  0  0  0  0  0  0  0  0  0  0  # atno 10167 bound_to 10162
  157.6779  130.9917  150.1942 H   0  0  0  0  0  0  0  0  0  0  0  0  # atno 10718 bound_to 10713
  153.3887  135.7001  153.6511 H   0  0  0  0  0  0  0  0  0  0  0  0  # atno 10763 bound_to 10752
  153.5092  135.3635  155.2579 H   0  0  0  0  0  0  0  0  0  0  0  0  # atno 10764 bound_to 10752
  154.8700  135.4131  154.3199 H   0  0  0  0  0  0  0  0  0  0  0  0  # atno 10765 bound_to 10752
  139.9348  134.9640  156.8374 H   0  0  0  0  0  0  0  0  0  0  0  0  # atno 11005 bound_to 11000
  146.2735  140.4748  142.8805 LP  0  0  0  0  0  0  0  0  0  0  0  0  # atno 17320 bound_to 7965
  144.8351  140.6769  143.6266 LP  0  0  0  0  0  0  0  0  0  0  0  0  # atno 17321 bound_to 7965
  139.6150  144.7617  151.2866 LP  0  0  0  0  0  0  0  0  0  0  0  0  # atno 17342 bound_to 10162
  140.7349  143.6753  150.8046 LP  0  0  0  0  0  0  0  0  0  0  0  0  # atno 17343 bound_to 10162
  156.2647  130.3715  149.8093 LP  0  0  0  0  0  0  0  0  0  0  0  0  # atno 17370 bound_to 10713
  156.5828  130.8473  151.3387 LP  0  0  0  0  0  0  0  0  0  0  0  0  # atno 17371 bound_to 10713
  140.6106  134.0086  155.7575 LP  0  0  0  0  0  0  0  0  0  0  0  0  # atno 17394 bound_to 11000
  141.0956  133.9849  157.3166 LP  0  0  0  0  0  0  0  0  0  0  0  0  # atno 17395 bound_to 11000

$$$$
