AV-unprocessed.smi:699|AV-procd|sdf|3406|dock9
  -GOLD-   22720 0383D 1   1.00000     0.00000
 Structure written by MMmdl.
 35 36  0  0  0  0  0  0  0  0  2 V2000
  147.3074  131.8361  152.2196 N   0  0  0  0  0  0  0  0  0  0  0  0
  146.6431  132.8581  152.7649 C   0  0  0  0  0  0  0  0  0  0  0  0
  146.3622  132.8891  153.9615 O   0  0  0  0  0  0  0  0  0  0  0  0
  146.2375  134.0075  151.8296 C   0  0  1  0  0  0  0  0  0  0  0  0
  145.1789  133.5971  150.7958 C   0  0  0  0  0  0  0  0  0  0  0  0
  144.4867  134.9055  150.4261 C   0  0  0  0  0  0  0  0  0  0  0  0
  144.4203  135.6858  151.7384 C   0  0  0  0  0  0  0  0  0  0  0  0
  145.6231  135.2147  152.5808 C   0  0  2  0  0  0  0  0  0  0  0  0
  146.6142  136.2739  152.7631 N   0  0  0  0  0  0  0  0  0  0  0  0
  146.3727  137.4688  153.3211 C   0  0  0  0  0  0  0  0  0  0  0  0
  145.2655  137.8127  153.7334 O   0  0  0  0  0  0  0  0  0  0  0  0
  147.4831  138.2267  153.3469 N   0  0  0  0  0  0  0  0  0  0  0  0
  147.6520  139.5448  153.8536 C   0  0  0  0  0  0  0  0  0  0  0  0
  148.9720  139.9791  154.1085 C   0  0  0  0  0  0  0  0  0  0  0  0
  149.1931  141.2726  154.6240 C   0  0  0  0  0  0  0  0  0  0  0  0
  148.1437  142.0826  154.8794 N   0  3  0  0  0  0  0  0  0  0  0  0
  146.8640  141.7086  154.6655 C   0  0  0  0  0  0  0  0  0  0  0  0
  146.5811  140.4268  154.1505 C   0  0  0  0  0  0  0  0  0  0  0  0
  147.5901  131.0586  152.7988 H   0  0  0  0  0  0  0  0  0  0  0  0
  147.5226  131.8404  151.2334 H   0  0  0  0  0  0  0  0  0  0  0  0
  147.1160  134.3418  151.2737 H   0  0  0  0  0  0  0  0  0  0  0  0
  145.6183  133.1104  149.9246 H   0  0  0  0  0  0  0  0  0  0  0  0
  144.4495  132.9089  151.2262 H   0  0  0  0  0  0  0  0  0  0  0  0
  145.0966  135.4516  149.7053 H   0  0  0  0  0  0  0  0  0  0  0  0
  143.5038  134.7502  149.9807 H   0  0  0  0  0  0  0  0  0  0  0  0
  144.4030  136.7631  151.5677 H   0  0  0  0  0  0  0  0  0  0  0  0
  143.4974  135.4319  152.2615 H   0  0  0  0  0  0  0  0  0  0  0  0
  145.2569  134.9100  153.5640 H   0  0  0  0  0  0  0  0  0  0  0  0
  147.5505  136.0770  152.4417 H   0  0  0  0  0  0  0  0  0  0  0  0
  148.2971  137.8280  152.9024 H   0  0  0  0  0  0  0  0  0  0  0  0
  149.8127  139.3307  153.9071 H   0  0  0  0  0  0  0  0  0  0  0  0
  150.1705  141.6790  154.8401 H   0  0  0  0  0  0  0  0  0  0  0  0
  146.1081  142.4386  154.9162 H   0  0  0  0  0  0  0  0  0  0  0  0
  145.5493  140.1454  154.0064 H   0  0  0  0  0  0  0  0  0  0  0  0
  148.3245  143.0142  155.2541 H   0  0  0  0  0  0  0  0  0  0  0  0
  1  2  1  0  0  0  0
  1 19  1  0  0  0  0
  1 20  1  0  0  0  0
  2  3  2  0  0  0  0
  2  4  1  0  0  0  0
  4  8  1  0  0  0  0
  4  5  1  0  0  0  0
  4 21  1  0  0  0  0
  5  6  1  0  0  0  0
  5 22  1  0  0  0  0
  5 23  1  0  0  0  0
  6  7  1  0  0  0  0
  6 24  1  0  0  0  0
  6 25  1  0  0  0  0
  7  8  1  0  0  0  0
  7 26  1  0  0  0  0
  7 27  1  0  0  0  0
  8  9  1  0  0  0  0
  8 28  1  0  0  0  0
  9 10  1  0  0  0  0
  9 29  1  0  0  0  0
 10 11  2  0  0  0  0
 10 12  1  0  0  0  0
 12 13  1  0  0  0  0
 12 30  1  0  0  0  0
 13 18  1  0  0  0  0
 13 14  2  0  0  0  0
 14 15  1  0  0  0  0
 14 31  1  0  0  0  0
 15 16  2  0  0  0  0
 15 32  1  0  0  0  0
 16 17  1  0  0  0  0
 16 35  1  0  0  0  0
 17 18  2  0  0  0  0
 17 33  1  0  0  0  0
 18 34  1  0  0  0  0
M  CHG  1  16   1
M  END
> <s_m_source_file>
AV-unprocessed.smi

> <i_m_source_file_index>
699

> <i_lp_mmshare_version>
43012

> <i_f3d_flags>
0

> <s_epik_input>
W05IMl1DKD1PKVtDQEBIXTFbQ0gyXVtDSDJdW0NIMl1bQ0BIXTFbTkhdQyg9TylbTkhdYzJbY0hdW2NIXW5bY0hdW2NIXTI=

> <s_epik_cmdline>
J2VwaWtfcHl0aG9uJywgJy1waCcsICc3LjAnLCAnLXRuJywgJzgnLCAnLW1hJywgJzIwMCcsICctbWV0YWxfYmluZGluZycsICctaW1hZScsICc8aW5maWxlLm1hZT4nLCAnLW9tYWUnLCAnPG91dGZpbGUubWFlPic=

> <r_epik_Ionization_Penalty>
1.0332

> <r_epik_Ionization_Penalty_Charging>
1.03318

> <r_epik_Ionization_Penalty_Neutral>
1.91967e-05

> <r_epik_State_Penalty>
1.08452

> <r_epik_Charging_Adjusted_Penalty>
2.11769

> <i_epik_Tot_Q>
1

> <i_epik_Tot_abs_Q>
1

> <r_epik_Metal_State_Penalty>
1.18144

> <b_epik_Metal_Only>
0

> <s_lp_Force_Field>
OPLS_2005

> <r_lp_Energy>
26.7554

> <b_lp_Chiralities_Consistent>
1

> <s_lp_Variant>
AV-unprocessed.smi:699-8

> <Gold.Version>
5.8.1

> <Gold.Id.Protein>
6NUR|6NUR_protein|mol2

> <Gold.PLP.Fitness>
39.9299

> <Gold.PLP.PLP>
-26.6912

> <Gold.PLP.part.hbond>
-3.9267

> <Gold.PLP.part.metal>
0.0000

> <Gold.PLP.part.buried>
-3.3664

> <Gold.PLP.part.nonpolar>
-21.4918

> <Gold.PLP.part.repulsive>
0.4712

> <Gold.PLP.ligand.clash>
0.0000

> <Gold.PLP.ligand.torsion>
0.1691

> <Gold.PLP.Chemscore.Hbond>
4.5249

> <Gold.PLP.Chemscore.CHOScore>
0.0000

> <Gold.PLP.Chemscore.Metal>
0.0000

> <Gold.Chemscore.Hbonds>
donor molecule, donor type, donor heavy atom, donor atom, acceptor molecule, acceptor atom, score
      L1  H     1    20       P1 10747  0.58
      L1  H     9    29       P1  7948  0.96
      L1  H    12    30       P1  7948  0.88
      L1  H    16    35       P1  8028  2.00

> <Gold.PLP.Chemscore.Internal.Correction>
0.0021

> <Gold.Rescore>
     Score         DG    S(hbond)    S(metal)    S(lipo)     H(rot)  DE(clash)    DE(int)     intcor
     18.41     -19.85       3.56        0.00      54.07       1.50       0.07       1.37       ----

> <Gold.Chemscore.Fitness>
18.4140

> <Gold.Chemscore.DG>
-19.8485

> <Gold.Chemscore.ZeroCoef>
-5.4800

> <Gold.Chemscore.Hbond>
3.5604

> <Gold.Chemscore.Metal>
0.0000

> <Gold.Chemscore.Lipo>
54.0716

> <Gold.Chemscore.Internal_Hbond>
0.0000

> <Gold.Chemscore.DEClash>
0.0684

> <Gold.Chemscore.DEInternal>
1.3662

> <Gold.Chemscore.Rot>
1.5038

> <Gold.Chemscore.Internal.Correction>
   9.000000E+99

> <Gold.Chemscore.Hbonds>
donor molecule, donor type, donor heavy atom, donor atom, acceptor molecule, acceptor atom, score
      L1  H     1    20       P1 10747  0.54
      L1  H     9    29       P1  7948  0.91
      L1  H    12    30       P1  7948  0.83
      L1  H    16    35       P1  8028  0.99

> <Gold.Chemscore.Hbond.Weighted>
-11.8918

> <Gold.Chemscore.Metal.Weighted>
-0.0000

> <Gold.Chemscore.Lipo.Weighted>
-6.3264

> <Gold.Chemscore.Internal_Hbond.Weighted>
0.0000

> <Gold.Chemscore.DEClash.Weighted>
0.0684

> <Gold.Chemscore.DEInternal.Weighted>
1.3662

> <Gold.Chemscore.Rot.Weighted>
3.8496

> <Gold.Chemscore.Internal.Correction.Weighted>
   9.000000E+99

> <Gold.Protein.RotatedTorsions>
[ 6907 6896 6895 6894 ] final  120.28 input  -60.11 | X-H torsion
[ 7974 7965 7964 7962 ] final  -98.67 input  175.53 | X-H torsion
[ 8008 7997 7996 7995 ] final -120.39 input   59.86 | X-H torsion
[ 10167 10162 10161 10158 ] final   77.39 input  -65.29 | X-H torsion
[ 10718 10713 10712 10709 ] final   64.85 input   66.30 | X-H torsion
[ 10763 10752 10751 10750 ] final   93.02 input  -60.55 | X-H torsion
[ 11005 11000 10999 10996 ] final  -10.33 input  -57.11 | X-H torsion

> <Gold.Protein.ActiveResidues>
 VAL166  LYS551  ARG553  GLY616  TRP617  ASP618  TYR619  PRO620  LYS621  CYS622 
 ASP623  PHE694  ASN695  SER759  ASP760  ASP761  ALA762  ILE779  LEU786  VAL792 
 PHE793  MET794  SER795  GLU796  ALA797  LYS798  CYS799  TRP800  GLU811  SER814 

> <Gold.Protein.RotatedAtoms>
  152.4409  133.7447  159.6660 H   0  0  0  0  0  0  0  0  0  0  0  0  # atno 6907 bound_to 6896
  150.8300  133.8096  159.3108 H   0  0  0  0  0  0  0  0  0  0  0  0  # atno 6908 bound_to 6896
  151.5753  135.1063  160.0056 H   0  0  0  0  0  0  0  0  0  0  0  0  # atno 6909 bound_to 6896
  145.3175  140.9414  143.2734 H   0  0  0  0  0  0  0  0  0  0  0  0  # atno 7974 bound_to 7965
  155.1311  140.0400  157.2775 H   0  0  0  0  0  0  0  0  0  0  0  0  # atno 8008 bound_to 7997
  154.6542  140.2576  155.7154 H   0  0  0  0  0  0  0  0  0  0  0  0  # atno 8009 bound_to 7997
  156.2591  140.2830  156.0988 H   0  0  0  0  0  0  0  0  0  0  0  0  # atno 8010 bound_to 7997
  139.9821  144.5819  150.7891 H   0  0  0  0  0  0  0  0  0  0  0  0  # atno 10167 bound_to 10162
  157.6067  130.9182  149.9899 H   0  0  0  0  0  0  0  0  0  0  0  0  # atno 10718 bound_to 10713
  153.2257  135.4340  155.0539 H   0  0  0  0  0  0  0  0  0  0  0  0  # atno 10763 bound_to 10752
  154.8272  135.3367  154.6861 H   0  0  0  0  0  0  0  0  0  0  0  0  # atno 10764 bound_to 10752
  153.7291  135.7012  153.5050 H   0  0  0  0  0  0  0  0  0  0  0  0  # atno 10765 bound_to 10752
  140.7436  133.8650  155.8987 H   0  0  0  0  0  0  0  0  0  0  0  0  # atno 11005 bound_to 11000
  144.8966  139.4705  143.6653 LP  0  0  0  0  0  0  0  0  0  0  0  0  # atno 17320 bound_to 7965
  146.3095  139.7695  142.9031 LP  0  0  0  0  0  0  0  0  0  0  0  0  # atno 17321 bound_to 7965
  140.7485  143.2924  151.3296 LP  0  0  0  0  0  0  0  0  0  0  0  0  # atno 17342 bound_to 10162
  139.6402  144.0554  152.2548 LP  0  0  0  0  0  0  0  0  0  0  0  0  # atno 17343 bound_to 10162
  156.1155  130.3648  149.9975 LP  0  0  0  0  0  0  0  0  0  0  0  0  # atno 17370 bound_to 10713
  156.8065  130.9309  151.3645 LP  0  0  0  0  0  0  0  0  0  0  0  0  # atno 17371 bound_to 10713
  140.9814  134.1400  157.4490 LP  0  0  0  0  0  0  0  0  0  0  0  0  # atno 17394 bound_to 11000
  139.8801  135.0012  156.6052 LP  0  0  0  0  0  0  0  0  0  0  0  0  # atno 17395 bound_to 11000

$$$$
