AV-unprocessed.smi:1328|AV-procd|sdf|5480|dock3
  -GOLD-   22720 5 53D 1   1.00000     0.00000
 Structure written by MMmdl.
 38 39  0  0  0  0  0  0  0  0  1 V2000
  149.1386  135.3994  156.2160 C   0  0  0  0  0  0  0  0  0  0  0  0
  149.6792  134.0029  156.3302 C   0  0  0  0  0  0  0  0  0  0  0  0
  150.1554  133.5816  157.4897 N   0  0  0  0  0  0  0  0  0  0  0  0
  150.5715  132.2640  157.2769 O   0  0  0  0  0  0  0  0  0  0  0  0
  150.3278  131.9397  155.9817 C   0  0  0  0  0  0  0  0  0  0  0  0
  150.7026  130.5592  155.5580 C   0  0  0  0  0  0  0  0  0  0  0  0
  149.7668  132.9997  155.3224 C   0  0  0  0  0  0  0  0  0  0  0  0
  149.3328  133.0946  153.8820 C   0  0  0  0  0  0  0  0  0  0  0  0
  147.8068  133.0678  153.8086 C   0  0  0  0  0  0  0  0  0  0  0  0
  147.1724  132.2137  154.4275 O   0  0  0  0  0  0  0  0  0  0  0  0
  147.2364  134.0006  153.0317 N   0  0  0  0  0  0  0  0  0  0  0  0
  145.8146  134.0999  152.7214 C   0  0  1  0  0  0  0  0  0  0  0  0
  145.5398  135.4022  151.9507 C   0  0  0  0  0  0  0  0  0  0  0  0
  145.3978  132.8475  151.9276 C   0  0  2  0  0  0  0  0  0  0  0  0
  146.1334  132.6493  150.6029 C   0  0  0  0  0  0  0  0  0  0  0  0
  145.1744  131.7898  149.7949 C   0  0  0  0  0  0  0  0  0  0  0  0
  143.8279  131.9638  150.5041 C   0  0  0  0  0  0  0  0  0  0  0  0
  144.0495  132.9566  151.4962 O   0  0  0  0  0  0  0  0  0  0  0  0
  148.2913  135.4383  155.5313 H   0  0  0  0  0  0  0  0  0  0  0  0
  149.9007  136.0824  155.8407 H   0  0  0  0  0  0  0  0  0  0  0  0
  148.7971  135.7775  157.1802 H   0  0  0  0  0  0  0  0  0  0  0  0
  149.9669  130.1495  154.8663 H   0  0  0  0  0  0  0  0  0  0  0  0
  150.7627  129.8893  156.4158 H   0  0  0  0  0  0  0  0  0  0  0  0
  151.6718  130.5594  155.0595 H   0  0  0  0  0  0  0  0  0  0  0  0
  149.6967  134.0112  153.4164 H   0  0  0  0  0  0  0  0  0  0  0  0
  149.7361  132.2732  153.2883 H   0  0  0  0  0  0  0  0  0  0  0  0
  147.8450  134.6585  152.5668 H   0  0  0  0  0  0  0  0  0  0  0  0
  145.2471  134.1185  153.6539 H   0  0  0  0  0  0  0  0  0  0  0  0
  144.4770  135.5214  151.7399 H   0  0  0  0  0  0  0  0  0  0  0  0
  146.0722  135.4200  150.9992 H   0  0  0  0  0  0  0  0  0  0  0  0
  145.8546  136.2742  152.5247 H   0  0  0  0  0  0  0  0  0  0  0  0
  145.4970  131.9521  152.5449 H   0  0  0  0  0  0  0  0  0  0  0  0
  146.2737  133.6086  150.1025 H   0  0  0  0  0  0  0  0  0  0  0  0
  147.1129  132.1870  150.7272 H   0  0  0  0  0  0  0  0  0  0  0  0
  145.1342  132.1143  148.7545 H   0  0  0  0  0  0  0  0  0  0  0  0
  145.4779  130.7424  149.8090 H   0  0  0  0  0  0  0  0  0  0  0  0
  143.0327  132.2682  149.8231 H   0  0  0  0  0  0  0  0  0  0  0  0
  143.5249  131.0338  150.9870 H   0  0  0  0  0  0  0  0  0  0  0  0
  1  2  1  0  0  0  0
  1 19  1  0  0  0  0
  1 20  1  0  0  0  0
  1 21  1  0  0  0  0
  2  7  1  0  0  0  0
  2  3  2  0  0  0  0
  3  4  1  0  0  0  0
  4  5  1  0  0  0  0
  5  6  1  0  0  0  0
  5  7  2  0  0  0  0
  6 22  1  0  0  0  0
  6 23  1  0  0  0  0
  6 24  1  0  0  0  0
  7  8  1  0  0  0  0
  8  9  1  0  0  0  0
  8 25  1  0  0  0  0
  8 26  1  0  0  0  0
  9 10  2  0  0  0  0
  9 11  1  0  0  0  0
 11 12  1  0  0  0  0
 11 27  1  0  0  0  0
 12 13  1  0  0  0  0
 12 14  1  0  0  0  0
 12 28  1  0  0  0  0
 13 29  1  0  0  0  0
 13 30  1  0  0  0  0
 13 31  1  0  0  0  0
 14 18  1  0  0  0  0
 14 15  1  0  0  0  0
 14 32  1  0  0  0  0
 15 16  1  0  0  0  0
 15 33  1  0  0  0  0
 15 34  1  0  0  0  0
 16 17  1  0  0  0  0
 16 35  1  0  0  0  0
 16 36  1  0  0  0  0
 17 18  1  0  0  0  0
 17 37  1  0  0  0  0
 17 38  1  0  0  0  0
M  END
> <s_m_source_file>
AV-unprocessed.smi

> <i_m_source_file_index>
1328

> <i_lp_mmshare_version>
43012

> <i_f3d_flags>
0

> <s_epik_input>
W0NIM11jMW5vYyhbQ0gzXSljMVtDSDJdQyg9TylbTkhdW0NASF0oW0NIM10pW0NAQEhdMltDSDJdW0NIMl1bQ0gyXU8y

> <s_epik_cmdline>
J2VwaWtfcHl0aG9uJywgJy1waCcsICc3LjAnLCAnLXRuJywgJzgnLCAnLW1hJywgJzIwMCcsICctbWV0YWxfYmluZGluZycsICctaW1hZScsICc8aW5maWxlLm1hZT4nLCAnLW9tYWUnLCAnPG91dGZpbGUubWFlPic=

> <r_lp_tautomer_probability>
1

> <r_epik_Ionization_Penalty>
2.66156e-08

> <r_epik_Ionization_Penalty_Charging>
0

> <r_epik_Ionization_Penalty_Neutral>
2.66156e-08

> <r_epik_State_Penalty>
-0

> <r_epik_Charging_Adjusted_Penalty>
0

> <i_epik_Tot_Q>
0

> <i_epik_Tot_abs_Q>
0

> <r_epik_Metal_State_Penalty>
-0

> <b_epik_Metal_Only>
0

> <s_lp_Force_Field>
OPLS_2005

> <r_lp_Energy>
11.7374

> <b_lp_Chiralities_Consistent>
1

> <s_lp_Variant>
AV-unprocessed.smi:1328-2

> <Gold.Version>
5.8.1

> <Gold.Id.Protein>
6NUR|6NUR_protein|mol2

> <Gold.PLP.Fitness>
36.3490

> <Gold.PLP.PLP>
-31.0852

> <Gold.PLP.part.hbond>
-2.0000

> <Gold.PLP.part.metal>
0.0000

> <Gold.PLP.part.buried>
-5.9930

> <Gold.PLP.part.nonpolar>
-24.4988

> <Gold.PLP.part.repulsive>
0.1919

> <Gold.PLP.ligand.clash>
0.0000

> <Gold.PLP.ligand.torsion>
0.3380

> <Gold.PLP.Chemscore.Hbond>
1.9675

> <Gold.PLP.Chemscore.CHOScore>
0.0000

> <Gold.PLP.Chemscore.Metal>
0.0000

> <Gold.Chemscore.Hbonds>
donor molecule, donor type, donor heavy atom, donor atom, acceptor molecule, acceptor atom, score
      L1  H    11    27       P1  7948  1.00
      P1  H  6896  6907       L1     3  0.35

> <Gold.PLP.Chemscore.Internal.Correction>
0.0375

> <Gold.Rescore>
     Score         DG    S(hbond)    S(metal)    S(lipo)     H(rot)  DE(clash)    DE(int)     intcor
     15.66     -16.00       1.90        0.00      68.74       1.52       0.00       0.34       ----

> <Gold.Chemscore.Fitness>
15.6552

> <Gold.Chemscore.DG>
-16.0002

> <Gold.Chemscore.ZeroCoef>
-5.4800

> <Gold.Chemscore.Hbond>
1.9036

> <Gold.Chemscore.Metal>
0.0000

> <Gold.Chemscore.Lipo>
68.7441

> <Gold.Chemscore.Internal_Hbond>
0.0000

> <Gold.Chemscore.DEClash>
0.0009

> <Gold.Chemscore.DEInternal>
0.3441

> <Gold.Chemscore.Rot>
1.5159

> <Gold.Chemscore.Internal.Correction>
   9.000000E+99

> <Gold.Chemscore.Hbonds>
donor molecule, donor type, donor heavy atom, donor atom, acceptor molecule, acceptor atom, score
      L1  H    11    27       P1  7948  0.71
      P1  H  6896  6907       L1     3  0.01

> <Gold.Chemscore.Hbond.Weighted>
-6.3579

> <Gold.Chemscore.Metal.Weighted>
-0.0000

> <Gold.Chemscore.Lipo.Weighted>
-8.0431

> <Gold.Chemscore.Internal_Hbond.Weighted>
0.0000

> <Gold.Chemscore.DEClash.Weighted>
0.0009

> <Gold.Chemscore.DEInternal.Weighted>
0.3441

> <Gold.Chemscore.Rot.Weighted>
3.8807

> <Gold.Chemscore.Internal.Correction.Weighted>
   9.000000E+99

> <Gold.Protein.RotatedTorsions>
[ 6907 6896 6895 6894 ] final -143.81 input  -60.11 | X-H torsion
[ 7974 7965 7964 7962 ] final  -51.15 input  175.53 | X-H torsion
[ 8008 7997 7996 7995 ] final  -75.34 input   59.86 | X-H torsion
[ 10167 10162 10161 10158 ] final  -99.95 input  -65.29 | X-H torsion
[ 10718 10713 10712 10709 ] final  -52.94 input   66.30 | X-H torsion
[ 10763 10752 10751 10750 ] final -160.41 input  -60.55 | X-H torsion
[ 11005 11000 10999 10996 ] final   95.14 input  -57.11 | X-H torsion

> <Gold.Protein.ActiveResidues>
 VAL166  LYS551  ARG553  GLY616  TRP617  ASP618  TYR619  PRO620  LYS621  CYS622 
 ASP623  PHE694  ASN695  SER759  ASP760  ASP761  ALA762  ILE779  LEU786  VAL792 
 PHE793  MET794  SER795  GLU796  ALA797  LYS798  CYS799  TRP800  GLU811  SER814 

> <Gold.Protein.RotatedAtoms>
  151.1055  133.5211  159.2607 H   0  0  0  0  0  0  0  0  0  0  0  0  # atno 6907 bound_to 6896
  151.2025  135.0448  159.8888 H   0  0  0  0  0  0  0  0  0  0  0  0  # atno 6908 bound_to 6896
  152.5446  134.0882  159.8318 H   0  0  0  0  0  0  0  0  0  0  0  0  # atno 6909 bound_to 6896
  145.9221  140.7824  142.9642 H   0  0  0  0  0  0  0  0  0  0  0  0  # atno 7974 bound_to 7965
  154.5408  140.0746  156.8507 H   0  0  0  0  0  0  0  0  0  0  0  0  # atno 8008 bound_to 7997
  155.3184  140.3394  155.4223 H   0  0  0  0  0  0  0  0  0  0  0  0  # atno 8009 bound_to 7997
  156.1873  140.1673  156.8147 H   0  0  0  0  0  0  0  0  0  0  0  0  # atno 8010 bound_to 7997
  140.2570  143.3433  152.0661 H   0  0  0  0  0  0  0  0  0  0  0  0  # atno 10167 bound_to 10162
  156.1578  130.4150  149.9841 H   0  0  0  0  0  0  0  0  0  0  0  0  # atno 10718 bound_to 10713
  154.7393  135.3065  154.8756 H   0  0  0  0  0  0  0  0  0  0  0  0  # atno 10763 bound_to 10752
  153.9576  135.6756  153.4749 H   0  0  0  0  0  0  0  0  0  0  0  0  # atno 10764 bound_to 10752
  153.0993  135.4920  154.8761 H   0  0  0  0  0  0  0  0  0  0  0  0  # atno 10765 bound_to 10752
  139.8792  134.8883  156.3967 H   0  0  0  0  0  0  0  0  0  0  0  0  # atno 11005 bound_to 11000
  144.6754  140.1992  143.7389 LP  0  0  0  0  0  0  0  0  0  0  0  0  # atno 17320 bound_to 7965
  145.8536  139.2188  143.1757 LP  0  0  0  0  0  0  0  0  0  0  0  0  # atno 17321 bound_to 7965
  139.5028  144.6743  151.6167 LP  0  0  0  0  0  0  0  0  0  0  0  0  # atno 17342 bound_to 10162
  140.5996  143.9634  150.6377 LP  0  0  0  0  0  0  0  0  0  0  0  0  # atno 17343 bound_to 10162
  156.7679  130.9175  151.3643 LP  0  0  0  0  0  0  0  0  0  0  0  0  # atno 17370 bound_to 10713
  157.6709  130.9050  150.0038 LP  0  0  0  0  0  0  0  0  0  0  0  0  # atno 17371 bound_to 10713
  140.9295  133.7589  156.0007 LP  0  0  0  0  0  0  0  0  0  0  0  0  # atno 17394 bound_to 11000
  140.8346  134.3138  157.5336 LP  0  0  0  0  0  0  0  0  0  0  0  0  # atno 17395 bound_to 11000

$$$$
