AV-unprocessed.smi:2784|AV-procd|sdf|10728|dock8
  -GOLD-   2272015163D 1   1.00000     0.00000
 Structure written by MMmdl.
 31 32  0  0  0  0  0  0  0  0  1 V2000
  149.2307  144.7910  160.2825 C   0  0  0  0  0  0  0  0  0  0  0  0
  149.6657  144.1621  159.0877 O   0  0  0  0  0  0  0  0  0  0  0  0
  150.8675  143.4110  159.2392 C   0  0  2  0  0  0  0  0  0  0  0  0
  151.9295  144.2980  159.8978 C   0  0  0  0  0  0  0  0  0  0  0  0
  152.4849  145.1312  158.7459 C   0  0  0  0  0  0  0  0  0  0  0  0
  152.4926  144.1818  157.5444 C   0  0  0  0  0  0  0  0  0  0  0  0
  151.4626  143.0769  157.8521 C   0  0  2  0  0  0  0  0  0  0  0  0
  150.4518  142.9839  156.8005 N   0  0  0  0  0  0  0  0  0  0  0  0
  150.0544  141.8418  156.2214 C   0  0  0  0  0  0  0  0  0  0  0  0
  150.5143  140.7370  156.5122 O   0  0  0  0  0  0  0  0  0  0  0  0
  149.1021  142.0667  155.3010 N   0  0  0  0  0  0  0  0  0  0  0  0
  148.4322  141.1082  154.4998 C   0  0  0  0  0  0  0  0  0  0  0  0
  147.2775  141.2791  153.8539 N   0  0  0  0  0  0  0  0  0  0  0  0
  147.0479  140.0658  153.2213 C   0  0  0  0  0  0  0  0  0  0  0  0
  148.0864  139.2228  153.5235 C   0  0  0  0  0  0  0  0  0  0  0  0
  148.9759  139.8731  154.3361 O   0  0  0  0  0  0  0  0  0  0  0  0
  148.3233  145.3609  160.0841 H   0  0  0  0  0  0  0  0  0  0  0  0
  149.9797  145.4788  160.6749 H   0  0  0  0  0  0  0  0  0  0  0  0
  148.9989  144.0518  161.0503 H   0  0  0  0  0  0  0  0  0  0  0  0
  150.6830  142.4960  159.8056 H   0  0  0  0  0  0  0  0  0  0  0  0
  151.5444  144.9126  160.7114 H   0  0  0  0  0  0  0  0  0  0  0  0
  152.7228  143.6714  160.3074 H   0  0  0  0  0  0  0  0  0  0  0  0
  151.8148  145.9685  158.5469 H   0  0  0  0  0  0  0  0  0  0  0  0
  153.4717  145.5409  158.9626 H   0  0  0  0  0  0  0  0  0  0  0  0
  152.2765  144.7209  156.6208 H   0  0  0  0  0  0  0  0  0  0  0  0
  153.4815  143.7363  157.4293 H   0  0  0  0  0  0  0  0  0  0  0  0
  151.9991  142.1281  157.9155 H   0  0  0  0  0  0  0  0  0  0  0  0
  150.0167  143.8466  156.5087 H   0  0  0  0  0  0  0  0  0  0  0  0
  148.8225  143.0261  155.1607 H   0  0  0  0  0  0  0  0  0  0  0  0
  146.1722  139.8983  152.6119 H   0  0  0  0  0  0  0  0  0  0  0  0
  148.3253  138.2031  153.2598 H   0  0  0  0  0  0  0  0  0  0  0  0
  1  2  1  0  0  0  0
  1 17  1  0  0  0  0
  1 18  1  0  0  0  0
  1 19  1  0  0  0  0
  2  3  1  0  0  0  0
  3  7  1  0  0  0  0
  3  4  1  0  0  0  0
  3 20  1  0  0  0  0
  4  5  1  0  0  0  0
  4 21  1  0  0  0  0
  4 22  1  0  0  0  0
  5  6  1  0  0  0  0
  5 23  1  0  0  0  0
  5 24  1  0  0  0  0
  6  7  1  0  0  0  0
  6 25  1  0  0  0  0
  6 26  1  0  0  0  0
  7  8  1  0  0  0  0
  7 27  1  0  0  0  0
  8  9  1  0  0  0  0
  8 28  1  0  0  0  0
  9 10  2  0  0  0  0
  9 11  1  0  0  0  0
 11 12  1  0  0  0  0
 11 29  1  0  0  0  0
 12 16  1  0  0  0  0
 12 13  2  0  0  0  0
 13 14  1  0  0  0  0
 14 15  2  0  0  0  0
 14 30  1  0  0  0  0
 15 16  1  0  0  0  0
 15 31  1  0  0  0  0
M  END
> <s_m_source_file>
AV-unprocessed.smi

> <i_m_source_file_index>
2784

> <i_lp_mmshare_version>
43012

> <i_f3d_flags>
0

> <s_epik_input>
W0NIM11PW0NAQEhdMVtDSDJdW0NIMl1bQ0gyXVtDQEhdMVtOSF1DKD1PKVtOSF1jMm5bY0hdW2NIXW8y

> <s_epik_cmdline>
J2VwaWtfcHl0aG9uJywgJy1waCcsICc3LjAnLCAnLXRuJywgJzgnLCAnLW1hJywgJzIwMCcsICctbWV0YWxfYmluZGluZycsICctaW1hZScsICc8aW5maWxlLm1hZT4nLCAnLW9tYWUnLCAnPG91dGZpbGUubWFlPic=

> <r_lp_tautomer_probability>
0.785861

> <r_epik_Ionization_Penalty>
4.58897e-05

> <r_epik_Ionization_Penalty_Charging>
0

> <r_epik_Ionization_Penalty_Neutral>
4.58897e-05

> <r_epik_State_Penalty>
0.0380021

> <r_epik_Charging_Adjusted_Penalty>
0.0380021

> <i_epik_Tot_Q>
0

> <i_epik_Tot_abs_Q>
0

> <r_epik_Metal_State_Penalty>
0.0585611

> <b_epik_Metal_Only>
0

> <s_lp_Force_Field>
OPLS_2005

> <r_lp_Energy>
20.0171

> <b_lp_Chiralities_Consistent>
1

> <s_lp_Variant>
AV-unprocessed.smi:2784-3

> <Gold.Version>
5.8.1

> <Gold.Id.Protein>
6NUR|6NUR_protein|mol2

> <Gold.PLP.Fitness>
39.7032

> <Gold.PLP.PLP>
-28.2719

> <Gold.PLP.part.hbond>
-2.0000

> <Gold.PLP.part.metal>
0.0000

> <Gold.PLP.part.buried>
-4.6293

> <Gold.PLP.part.nonpolar>
-22.9195

> <Gold.PLP.part.repulsive>
1.2786

> <Gold.PLP.ligand.clash>
0.0000

> <Gold.PLP.ligand.torsion>
0.2795

> <Gold.PLP.Chemscore.Hbond>
2.0000

> <Gold.PLP.Chemscore.CHOScore>
1.9931

> <Gold.PLP.Chemscore.Metal>
0.0000

> <Gold.Chemscore.Hbonds>
donor molecule, donor type, donor heavy atom, donor atom, acceptor molecule, acceptor atom, score
      L1  H     8    28       P1  8028  1.00
      L1  H    11    29       P1  8028  1.00
      L1  C    14    30       P1 10175  0.94
      L1  C    15    31       P1  7948  1.00

> <Gold.PLP.Chemscore.Internal.Correction>
0.0111

> <Gold.Rescore>
     Score         DG    S(hbond)    S(metal)    S(lipo)     H(rot)  DE(clash)    DE(int)     intcor
     16.03     -17.65       1.97        0.00      76.77       1.32       0.02       1.61       ----

> <Gold.Chemscore.Fitness>
16.0282

> <Gold.Chemscore.DG>
-17.6493

> <Gold.Chemscore.ZeroCoef>
-5.4800

> <Gold.Chemscore.Hbond>
1.9685

> <Gold.Chemscore.Metal>
0.0000

> <Gold.Chemscore.Lipo>
76.7743

> <Gold.Chemscore.Internal_Hbond>
0.0000

> <Gold.Chemscore.DEClash>
0.0158

> <Gold.Chemscore.DEInternal>
1.6053

> <Gold.Chemscore.Rot>
1.3235

> <Gold.Chemscore.Internal.Correction>
   9.000000E+99

> <Gold.Chemscore.Hbonds>
donor molecule, donor type, donor heavy atom, donor atom, acceptor molecule, acceptor atom, score
      L1  H     8    28       P1  8028  0.97
      L1  H    11    29       P1  8028  0.95

> <Gold.Chemscore.Hbond.Weighted>
-6.5749

> <Gold.Chemscore.Metal.Weighted>
-0.0000

> <Gold.Chemscore.Lipo.Weighted>
-8.9826

> <Gold.Chemscore.Internal_Hbond.Weighted>
0.0000

> <Gold.Chemscore.DEClash.Weighted>
0.0158

> <Gold.Chemscore.DEInternal.Weighted>
1.6053

> <Gold.Chemscore.Rot.Weighted>
3.3882

> <Gold.Chemscore.Internal.Correction.Weighted>
   9.000000E+99

> <Gold.Protein.RotatedTorsions>
[ 6907 6896 6895 6894 ] final -170.22 input  -60.11 | X-H torsion
[ 7974 7965 7964 7962 ] final  121.44 input  175.53 | X-H torsion
[ 8008 7997 7996 7995 ] final   27.60 input   59.86 | X-H torsion
[ 10167 10162 10161 10158 ] final  -88.48 input  -65.29 | X-H torsion
[ 10718 10713 10712 10709 ] final   68.40 input   66.30 | X-H torsion
[ 10763 10752 10751 10750 ] final   64.51 input  -60.55 | X-H torsion
[ 11005 11000 10999 10996 ] final    1.15 input  -57.11 | X-H torsion

> <Gold.Protein.ActiveResidues>
 VAL166  LYS551  ARG553  GLY616  TRP617  ASP618  TYR619  PRO620  LYS621  CYS622 
 ASP623  PHE694  ASN695  SER759  ASP760  ASP761  ALA762  ILE779  LEU786  VAL792 
 PHE793  MET794  SER795  GLU796  ALA797  LYS798  CYS799  TRP800  GLU811  SER814 

> <Gold.Protein.RotatedAtoms>
  151.5042  133.3498  159.2873 H   0  0  0  0  0  0  0  0  0  0  0  0  # atno 6907 bound_to 6896
  150.8753  134.8137  159.7196 H   0  0  0  0  0  0  0  0  0  0  0  0  # atno 6908 bound_to 6896
  152.4727  134.4932  159.9753 H   0  0  0  0  0  0  0  0  0  0  0  0  # atno 6909 bound_to 6896
  145.1193  139.3400  143.4723 H   0  0  0  0  0  0  0  0  0  0  0  0  # atno 7974 bound_to 7965
  155.0455  140.3174  155.4710 H   0  0  0  0  0  0  0  0  0  0  0  0  # atno 8008 bound_to 7997
  156.2846  140.2155  156.5523 H   0  0  0  0  0  0  0  0  0  0  0  0  # atno 8009 bound_to 7997
  154.7254  140.0486  157.0666 H   0  0  0  0  0  0  0  0  0  0  0  0  # atno 8010 bound_to 7997
  140.3743  143.2779  151.9462 H   0  0  0  0  0  0  0  0  0  0  0  0  # atno 10167 bound_to 10162
  157.6287  130.9372  150.0373 H   0  0  0  0  0  0  0  0  0  0  0  0  # atno 10718 bound_to 10713
  153.0059  135.5390  154.6521 H   0  0  0  0  0  0  0  0  0  0  0  0  # atno 10763 bound_to 10752
  154.5751  135.2845  155.0791 H   0  0  0  0  0  0  0  0  0  0  0  0  # atno 10764 bound_to 10752
  154.1942  135.6495  153.5121 H   0  0  0  0  0  0  0  0  0  0  0  0  # atno 10765 bound_to 10752
  140.6187  133.9681  155.8213 H   0  0  0  0  0  0  0  0  0  0  0  0  # atno 11005 bound_to 11000
  146.3522  140.1145  142.8602 LP  0  0  0  0  0  0  0  0  0  0  0  0  # atno 17320 bound_to 7965
  145.0759  140.9187  143.4854 LP  0  0  0  0  0  0  0  0  0  0  0  0  # atno 17321 bound_to 7965
  139.4801  144.5878  151.7823 LP  0  0  0  0  0  0  0  0  0  0  0  0  # atno 17342 bound_to 10162
  140.5002  144.1180  150.5969 LP  0  0  0  0  0  0  0  0  0  0  0  0  # atno 17343 bound_to 10162
  156.1476  130.3642  149.9487 LP  0  0  0  0  0  0  0  0  0  0  0  0  # atno 17370 bound_to 10713
  156.7514  130.9116  151.3637 LP  0  0  0  0  0  0  0  0  0  0  0  0  # atno 17371 bound_to 10713
  141.0758  134.0137  157.3460 LP  0  0  0  0  0  0  0  0  0  0  0  0  # atno 17394 bound_to 11000
  139.9162  135.0197  156.7891 LP  0  0  0  0  0  0  0  0  0  0  0  0  # atno 17395 bound_to 11000

$$$$
