AV-unprocessed.smi:2510|AV-procd|sdf|9879|dock4
  -GOLD-   2272013513D 1   1.00000     0.00000
 Structure written by MMmdl.
 48 49  0  0  0  0  0  0  0  0  1 V2000
  146.3196  142.9373  154.2022 C   0  0  0  0  0  0  0  0  0  0  0  0
  146.8969  141.6477  153.6018 C   0  0  0  0  0  0  0  0  0  0  0  0
  146.9182  140.4229  154.5430 C   0  0  0  0  0  0  0  0  0  0  0  0
  145.5507  140.3709  155.2952 C   0  0  0  0  0  0  0  0  0  0  0  0
  145.4096  139.2894  156.3804 C   0  0  0  0  0  0  0  0  0  0  0  0
  147.3783  139.1080  153.8470 C   0  0  2  0  0  0  0  0  0  0  0  0
  146.3030  138.1965  153.4761 N   0  0  0  0  0  0  0  0  0  0  0  0
  146.0699  137.7641  152.2279 C   0  0  0  0  0  0  0  0  0  0  0  0
  146.8233  137.9849  151.2801 O   0  0  0  0  0  0  0  0  0  0  0  0
  144.7672  136.9944  152.0110 C   0  0  0  0  0  0  0  0  0  0  0  0
  145.0564  135.6229  151.4875 C   0  0  0  0  0  0  0  0  0  0  0  0
  144.2370  134.6726  150.9447 C   0  0  0  0  0  0  0  0  0  0  0  0
  145.1011  133.5698  150.6815 C   0  0  0  0  0  0  0  0  0  0  0  0
  144.7464  132.2345  150.0974 C   0  0  0  0  0  0  0  0  0  0  0  0
  146.3566  133.8183  151.0236 N   0  0  0  0  0  0  0  0  0  0  0  0
  146.3181  135.0725  151.5098 N   0  0  0  0  0  0  0  0  0  0  0  0
  148.0831  138.7081  155.1477 C   0  0  1  0  0  0  0  0  0  0  0  0
  149.3211  137.8219  155.0969 C   0  0  0  0  0  0  0  0  0  0  0  0
  148.2007  140.2232  155.4049 C   0  0  1  0  0  0  0  0  0  0  0  0
  149.3486  140.7965  154.7852 O   0  0  0  0  0  0  0  0  0  0  0  0
  150.5257  140.6734  155.5649 C   0  0  0  0  0  0  0  0  0  0  0  0
  147.1490  135.5315  151.8550 H   0  0  0  0  0  0  0  0  0  0  0  0
  146.5085  143.7828  153.5404 H   0  0  0  0  0  0  0  0  0  0  0  0
  146.7702  143.1682  155.1678 H   0  0  0  0  0  0  0  0  0  0  0  0
  145.2403  142.8714  154.3313 H   0  0  0  0  0  0  0  0  0  0  0  0
  146.3581  141.4124  152.6833 H   0  0  0  0  0  0  0  0  0  0  0  0
  147.9119  141.8698  153.2704 H   0  0  0  0  0  0  0  0  0  0  0  0
  145.3288  141.3396  155.7444 H   0  0  0  0  0  0  0  0  0  0  0  0
  144.7259  140.2028  154.6036 H   0  0  0  0  0  0  0  0  0  0  0  0
  144.4933  139.4435  156.9507 H   0  0  0  0  0  0  0  0  0  0  0  0
  146.2376  139.2881  157.0860 H   0  0  0  0  0  0  0  0  0  0  0  0
  145.3437  138.2938  155.9422 H   0  0  0  0  0  0  0  0  0  0  0  0
  148.0969  139.2797  153.0414 H   0  0  0  0  0  0  0  0  0  0  0  0
  145.6360  137.9587  154.1956 H   0  0  0  0  0  0  0  0  0  0  0  0
  144.2208  136.9252  152.9524 H   0  0  0  0  0  0  0  0  0  0  0  0
  144.1323  137.5466  151.3169 H   0  0  0  0  0  0  0  0  0  0  0  0
  143.1731  134.7489  150.7749 H   0  0  0  0  0  0  0  0  0  0  0  0
  143.7186  132.2247  149.7334 H   0  0  0  0  0  0  0  0  0  0  0  0
  144.8419  131.4444  150.8426 H   0  0  0  0  0  0  0  0  0  0  0  0
  145.3969  131.9844  149.2585 H   0  0  0  0  0  0  0  0  0  0  0  0
  147.3594  138.2915  155.8518 H   0  0  0  0  0  0  0  0  0  0  0  0
  150.0588  138.2021  154.3899 H   0  0  0  0  0  0  0  0  0  0  0  0
  149.0645  136.8087  154.7877 H   0  0  0  0  0  0  0  0  0  0  0  0
  149.7994  137.7560  156.0740 H   0  0  0  0  0  0  0  0  0  0  0  0
  148.0977  140.5125  156.4505 H   0  0  0  0  0  0  0  0  0  0  0  0
  151.3707  141.0926  155.0191 H   0  0  0  0  0  0  0  0  0  0  0  0
  150.7534  139.6315  155.7903 H   0  0  0  0  0  0  0  0  0  0  0  0
  150.4292  141.2196  156.5041 H   0  0  0  0  0  0  0  0  0  0  0  0
  1  2  1  0  0  0  0
  1 23  1  0  0  0  0
  1 24  1  0  0  0  0
  1 25  1  0  0  0  0
  2  3  1  0  0  0  0
  2 26  1  0  0  0  0
  2 27  1  0  0  0  0
  3 19  1  0  0  0  0
  3  4  1  0  0  0  0
  3  6  1  0  0  0  0
  4  5  1  0  0  0  0
  4 28  1  0  0  0  0
  4 29  1  0  0  0  0
  5 30  1  0  0  0  0
  5 31  1  0  0  0  0
  5 32  1  0  0  0  0
  6  7  1  0  0  0  0
  6 17  1  0  0  0  0
  6 33  1  0  0  0  0
  7  8  1  0  0  0  0
  7 34  1  0  0  0  0
  8  9  2  0  0  0  0
  8 10  1  0  0  0  0
 10 35  1  0  0  0  0
 10 36  1  0  0  0  0
 10 11  1  0  0  0  0
 11 16  1  0  0  0  0
 11 12  2  0  0  0  0
 12 13  1  0  0  0  0
 12 37  1  0  0  0  0
 13 14  1  0  0  0  0
 13 15  2  0  0  0  0
 14 38  1  0  0  0  0
 14 39  1  0  0  0  0
 14 40  1  0  0  0  0
 15 16  1  0  0  0  0
 16 22  1  0  0  0  0
 17 18  1  0  0  0  0
 17 19  1  0  0  0  0
 17 41  1  0  0  0  0
 18 42  1  0  0  0  0
 18 43  1  0  0  0  0
 18 44  1  0  0  0  0
 19 20  1  0  0  0  0
 19 45  1  0  0  0  0
 20 21  1  0  0  0  0
 21 46  1  0  0  0  0
 21 47  1  0  0  0  0
 21 48  1  0  0  0  0
M  END
> <s_m_source_file>
AV-unprocessed.smi

> <i_m_source_file_index>
2510

> <i_lp_mmshare_version>
43012

> <i_f3d_flags>
0

> <s_epik_input>
W0NIM11PW0NAQEhdMVtDQEhdKFtDSDNdKVtDQEBIXShDMShbQ0gyXVtDSDNdKVtDSDJdW0NIM10pW05IXUMoPU8pW0NIMl1jMltjSF1jKFtDSDNdKVtuSF1uMg==

> <s_epik_cmdline>
J2VwaWtfcHl0aG9uJywgJy1waCcsICc3LjAnLCAnLXRuJywgJzgnLCAnLW1hJywgJzIwMCcsICctbWV0YWxfYmluZGluZycsICctaW1hZScsICc8aW5maWxlLm1hZT4nLCAnLW9tYWUnLCAnPG91dGZpbGUubWFlPic=

> <r_lp_tautomer_probability>
0.5

> <r_epik_Ionization_Penalty>
0.000134763

> <r_epik_Ionization_Penalty_Charging>
0

> <r_epik_Ionization_Penalty_Neutral>
0.000134763

> <r_epik_State_Penalty>
0.41068

> <r_epik_Charging_Adjusted_Penalty>
0.41068

> <i_epik_Tot_Q>
0

> <i_epik_Tot_abs_Q>
0

> <r_epik_Metal_State_Penalty>
0.410661

> <b_epik_Metal_Only>
0

> <s_lp_Force_Field>
OPLS_2005

> <r_lp_Energy>
26.7648

> <b_lp_Chiralities_Consistent>
1

> <s_lp_Variant>
AV-unprocessed.smi:2510-10

> <Gold.Version>
5.8.1

> <Gold.Id.Protein>
6NUR|6NUR_protein|mol2

> <Gold.PLP.Fitness>
33.3056

> <Gold.PLP.PLP>
-28.1543

> <Gold.PLP.part.hbond>
-2.0000

> <Gold.PLP.part.metal>
0.0000

> <Gold.PLP.part.buried>
-4.7509

> <Gold.PLP.part.nonpolar>
-25.0408

> <Gold.PLP.part.repulsive>
2.0688

> <Gold.PLP.ligand.clash>
0.0000

> <Gold.PLP.ligand.torsion>
0.7700

> <Gold.PLP.Chemscore.Hbond>
2.0000

> <Gold.PLP.Chemscore.CHOScore>
0.0000

> <Gold.PLP.Chemscore.Metal>
0.0000

> <Gold.Chemscore.Hbonds>
donor molecule, donor type, donor heavy atom, donor atom, acceptor molecule, acceptor atom, score
      L1  H    16    22       P1  7948  1.00
      P1  H  7954  7966       L1     9  1.00

> <Gold.PLP.Chemscore.Internal.Correction>
0.6913

> <Gold.Rescore>
     Score         DG    S(hbond)    S(metal)    S(lipo)     H(rot)  DE(clash)    DE(int)     intcor
     12.72     -15.95       1.93        0.00      73.92       1.81       1.43       1.80       ----

> <Gold.Chemscore.Fitness>
12.7180

> <Gold.Chemscore.DG>
-15.9474

> <Gold.Chemscore.ZeroCoef>
-5.4800

> <Gold.Chemscore.Hbond>
1.9320

> <Gold.Chemscore.Metal>
0.0000

> <Gold.Chemscore.Lipo>
73.9202

> <Gold.Chemscore.Internal_Hbond>
0.0000

> <Gold.Chemscore.DEClash>
1.4294

> <Gold.Chemscore.DEInternal>
1.8000

> <Gold.Chemscore.Rot>
1.8102

> <Gold.Chemscore.Internal.Correction>
   9.000000E+99

> <Gold.Chemscore.Hbonds>
donor molecule, donor type, donor heavy atom, donor atom, acceptor molecule, acceptor atom, score
      L1  H    16    22       P1  7948  0.99
      P1  H  7954  7966       L1     9  0.99

> <Gold.Chemscore.Hbond.Weighted>
-6.4528

> <Gold.Chemscore.Metal.Weighted>
-0.0000

> <Gold.Chemscore.Lipo.Weighted>
-8.6487

> <Gold.Chemscore.Internal_Hbond.Weighted>
0.0000

> <Gold.Chemscore.DEClash.Weighted>
1.4294

> <Gold.Chemscore.DEInternal.Weighted>
1.8000

> <Gold.Chemscore.Rot.Weighted>
4.6341

> <Gold.Chemscore.Internal.Correction.Weighted>
   9.000000E+99

> <Gold.Protein.RotatedTorsions>
[ 6907 6896 6895 6894 ] final -155.14 input  -60.11 | X-H torsion
[ 7974 7965 7964 7962 ] final    7.12 input  175.53 | X-H torsion
[ 8008 7997 7996 7995 ] final  -77.13 input   59.86 | X-H torsion
[ 10167 10162 10161 10158 ] final   65.76 input  -65.29 | X-H torsion
[ 10718 10713 10712 10709 ] final  143.37 input   66.30 | X-H torsion
[ 10763 10752 10751 10750 ] final -120.53 input  -60.55 | X-H torsion
[ 11005 11000 10999 10996 ] final -130.30 input  -57.11 | X-H torsion

> <Gold.Protein.ActiveResidues>
 VAL166  LYS551  ARG553  GLY616  TRP617  ASP618  TYR619  PRO620  LYS621  CYS622 
 ASP623  PHE694  ASN695  SER759  ASP760  ASP761  ALA762  ILE779  LEU786  VAL792 
 PHE793  MET794  SER795  GLU796  ALA797  LYS798  CYS799  TRP800  GLU811  SER814 

> <Gold.Protein.RotatedAtoms>
  151.2680  133.4269  159.2619 H   0  0  0  0  0  0  0  0  0  0  0  0  # atno 6907 bound_to 6896
  151.0470  134.9647  159.8202 H   0  0  0  0  0  0  0  0  0  0  0  0  # atno 6908 bound_to 6896
  152.5376  134.2636  159.8997 H   0  0  0  0  0  0  0  0  0  0  0  0  # atno 6909 bound_to 6896
  146.2429  140.0131  142.8405 H   0  0  0  0  0  0  0  0  0  0  0  0  # atno 7974 bound_to 7965
  154.5568  140.0715  156.8756 H   0  0  0  0  0  0  0  0  0  0  0  0  # atno 8008 bound_to 7997
  155.2887  140.3376  155.4235 H   0  0  0  0  0  0  0  0  0  0  0  0  # atno 8009 bound_to 7997
  156.2009  140.1721  156.7888 H   0  0  0  0  0  0  0  0  0  0  0  0  # atno 8010 bound_to 7997
  140.1078  144.4845  150.6996 H   0  0  0  0  0  0  0  0  0  0  0  0  # atno 10167 bound_to 10162
  157.3698  131.0977  151.0839 H   0  0  0  0  0  0  0  0  0  0  0  0  # atno 10718 bound_to 10713
  154.8646  135.4200  154.2474 H   0  0  0  0  0  0  0  0  0  0  0  0  # atno 10763 bound_to 10752
  153.3427  135.6994  153.6859 H   0  0  0  0  0  0  0  0  0  0  0  0  # atno 10764 bound_to 10752
  153.5831  135.3569  155.2855 H   0  0  0  0  0  0  0  0  0  0  0  0  # atno 10765 bound_to 10752
  140.9358  134.1259  157.4195 H   0  0  0  0  0  0  0  0  0  0  0  0  # atno 11005 bound_to 11000
  145.1309  140.9517  143.4545 LP  0  0  0  0  0  0  0  0  0  0  0  0  # atno 17320 bound_to 7965
  145.0389  139.3277  143.5987 LP  0  0  0  0  0  0  0  0  0  0  0  0  # atno 17321 bound_to 7965
  140.6942  143.2394  151.5047 LP  0  0  0  0  0  0  0  0  0  0  0  0  # atno 17342 bound_to 10162
  139.5635  144.2098  152.1729 LP  0  0  0  0  0  0  0  0  0  0  0  0  # atno 17343 bound_to 10162
  157.1948  130.6368  149.5717 LP  0  0  0  0  0  0  0  0  0  0  0  0  # atno 17370 bound_to 10713
  155.9753  130.4710  150.6450 LP  0  0  0  0  0  0  0  0  0  0  0  0  # atno 17371 bound_to 10713
  139.8807  135.0020  156.6102 LP  0  0  0  0  0  0  0  0  0  0  0  0  # atno 17394 bound_to 11000
  140.7802  133.8666  155.8561 LP  0  0  0  0  0  0  0  0  0  0  0  0  # atno 17395 bound_to 11000

$$$$
