AV-unprocessed.smi:2212|AV-procd|sdf|8954|dock10
  -GOLD-   2272012173D 1   1.00000     0.00000
 Structure written by MMmdl.
 31 32  0  0  0  0  0  0  0  0  1 V2000
  152.4482  143.5270  161.5552 C   0  0  0  0  0  0  0  0  0  0  0  0
  151.5278  143.1280  160.5480 O   0  0  0  0  0  0  0  0  0  0  0  0
  151.3205  144.0585  159.4847 C   0  0  0  0  0  0  0  0  0  0  0  0
  150.6056  145.3296  159.9638 C   0  0  0  0  0  0  0  0  0  0  0  0
  149.1765  145.2521  159.6910 N   0  0  0  0  0  0  0  0  0  0  0  0
  148.2465  144.8587  160.5716 C   0  0  0  0  0  0  0  0  0  0  0  0
  148.5481  144.4996  161.7142 O   0  0  0  0  0  0  0  0  0  0  0  0
  146.9881  144.9000  159.9902 N   0  0  0  0  0  0  0  0  0  0  0  0
  145.9486  144.5559  160.6871 C   0  0  0  0  0  0  0  0  0  0  0  0
  145.7932  144.0894  161.9899 N   0  0  0  0  0  0  0  0  0  0  0  0
  144.4614  143.8724  162.2084 C   0  0  0  0  0  0  0  0  0  0  0  0
  143.8052  144.1857  161.0952 C   0  0  0  0  0  0  0  0  0  0  0  0
  144.6886  144.6061  160.1467 O   0  0  0  0  0  0  0  0  0  0  0  0
  152.6560  144.2293  158.7362 C   0  0  0  0  0  0  0  0  0  0  0  0
  151.8928  144.0801  157.4189 C   0  0  0  0  0  0  0  0  0  0  0  0
  150.8065  143.3534  158.2135 C   0  0  0  0  0  0  0  0  0  0  0  0
  152.4451  142.7867  162.3550 H   0  0  0  0  0  0  0  0  0  0  0  0
  152.1816  144.4890  161.9933 H   0  0  0  0  0  0  0  0  0  0  0  0
  153.4669  143.5851  161.1726 H   0  0  0  0  0  0  0  0  0  0  0  0
  150.7570  145.4610  161.0364 H   0  0  0  0  0  0  0  0  0  0  0  0
  151.0182  146.2210  159.4909 H   0  0  0  0  0  0  0  0  0  0  0  0
  148.8729  145.5272  158.7676 H   0  0  0  0  0  0  0  0  0  0  0  0
  146.5081  143.9251  162.6842 H   0  0  0  0  0  0  0  0  0  0  0  0
  144.1161  143.5067  163.1642 H   0  0  0  0  0  0  0  0  0  0  0  0
  142.7582  144.1659  160.8308 H   0  0  0  0  0  0  0  0  0  0  0  0
  153.1387  145.1978  158.8704 H   0  0  0  0  0  0  0  0  0  0  0  0
  153.3549  143.4087  158.9088 H   0  0  0  0  0  0  0  0  0  0  0  0
  151.5556  145.0352  157.0126 H   0  0  0  0  0  0  0  0  0  0  0  0
  152.3940  143.4717  156.6658 H   0  0  0  0  0  0  0  0  0  0  0  0
  150.9562  142.2722  158.2268 H   0  0  0  0  0  0  0  0  0  0  0  0
  149.7871  143.6126  157.9264 H   0  0  0  0  0  0  0  0  0  0  0  0
  1  2  1  0  0  0  0
  1 17  1  0  0  0  0
  1 18  1  0  0  0  0
  1 19  1  0  0  0  0
  2  3  1  0  0  0  0
  3 16  1  0  0  0  0
  3  4  1  0  0  0  0
  3 14  1  0  0  0  0
  4  5  1  0  0  0  0
  4 20  1  0  0  0  0
  4 21  1  0  0  0  0
  5 22  1  0  0  0  0
  5  6  1  0  0  0  0
  6  8  1  0  0  0  0
  6  7  2  0  0  0  0
  8  9  2  0  0  0  0
  9 13  1  0  0  0  0
  9 10  1  0  0  0  0
 10 23  1  0  0  0  0
 10 11  1  0  0  0  0
 11 24  1  0  0  0  0
 11 12  2  0  0  0  0
 12 25  1  0  0  0  0
 12 13  1  0  0  0  0
 14 15  1  0  0  0  0
 14 26  1  0  0  0  0
 14 27  1  0  0  0  0
 15 16  1  0  0  0  0
 15 28  1  0  0  0  0
 15 29  1  0  0  0  0
 16 30  1  0  0  0  0
 16 31  1  0  0  0  0
M  END
> <s_m_source_file>
AV-unprocessed.smi

> <i_m_source_file_index>
2212

> <i_lp_mmshare_version>
43012

> <i_f3d_flags>
0

> <s_epik_input>
W0NIMl0xW0NIMl1bQ0gyXUMxKE9bQ0gzXSlbQ0gyXVtOSF1DKD1PKVtOSF1jMm5bY0hdW2NIXW8y

> <s_epik_cmdline>
J2VwaWtfcHl0aG9uJywgJy1waCcsICc3LjAnLCAnLXRuJywgJzgnLCAnLW1hJywgJzIwMCcsICctbWV0YWxfYmluZGluZycsICctaW1hZScsICc8aW5maWxlLm1hZT4nLCAnLW9tYWUnLCAnPG91dGZpbGUubWFlPic=

> <r_lp_tautomer_probability>
0.107061

> <r_epik_Ionization_Penalty>
1.29244

> <r_epik_Ionization_Penalty_Charging>
1.29208

> <r_epik_Ionization_Penalty_Neutral>
0.000357989

> <r_epik_State_Penalty>
2.59896

> <r_epik_Charging_Adjusted_Penalty>
3.89105

> <i_epik_Tot_Q>
0

> <i_epik_Tot_abs_Q>
0

> <r_epik_Metal_State_Penalty>
3.62496

> <b_epik_Metal_Only>
0

> <s_lp_Force_Field>
OPLS_2005

> <r_lp_Energy>
41.2438

> <b_lp_Chiralities_Consistent>
1

> <s_lp_Variant>
AV-unprocessed.smi:2212-4

> <Gold.Version>
5.8.1

> <Gold.Id.Protein>
6NUR|6NUR_protein|mol2

> <Gold.PLP.Fitness>
38.5951

> <Gold.PLP.PLP>
-35.1592

> <Gold.PLP.part.hbond>
-2.9948

> <Gold.PLP.part.metal>
0.0000

> <Gold.PLP.part.buried>
-7.2980

> <Gold.PLP.part.nonpolar>
-27.2187

> <Gold.PLP.part.repulsive>
1.5235

> <Gold.PLP.ligand.clash>
0.0000

> <Gold.PLP.ligand.torsion>
1.0208

> <Gold.PLP.Chemscore.Hbond>
1.7360

> <Gold.PLP.Chemscore.CHOScore>
0.0000

> <Gold.PLP.Chemscore.Metal>
0.0000

> <Gold.Chemscore.Hbonds>
donor molecule, donor type, donor heavy atom, donor atom, acceptor molecule, acceptor atom, score
      L1  H     5    22       P1  8029  1.00
      P1  H  6933  6944       L1     7  0.54

> <Gold.PLP.Chemscore.Internal.Correction>
0.2695

> <Gold.Rescore>
     Score         DG    S(hbond)    S(metal)    S(lipo)     H(rot)  DE(clash)    DE(int)     intcor
     15.54     -16.78       1.83        0.00      80.34       1.64       0.08       1.16       ----

> <Gold.Chemscore.Fitness>
15.5381

> <Gold.Chemscore.DG>
-16.7839

> <Gold.Chemscore.ZeroCoef>
-5.4800

> <Gold.Chemscore.Hbond>
1.8278

> <Gold.Chemscore.Metal>
0.0000

> <Gold.Chemscore.Lipo>
80.3430

> <Gold.Chemscore.Internal_Hbond>
0.0000

> <Gold.Chemscore.DEClash>
0.0814

> <Gold.Chemscore.DEInternal>
1.1645

> <Gold.Chemscore.Rot>
1.6411

> <Gold.Chemscore.Internal.Correction>
   9.000000E+99

> <Gold.Chemscore.Hbonds>
donor molecule, donor type, donor heavy atom, donor atom, acceptor molecule, acceptor atom, score
      L1  H     5    22       P1  8029  1.00
      P1  H  6933  6944       L1     7  0.16

> <Gold.Chemscore.Hbond.Weighted>
-6.1049

> <Gold.Chemscore.Metal.Weighted>
-0.0000

> <Gold.Chemscore.Lipo.Weighted>
-9.4001

> <Gold.Chemscore.Internal_Hbond.Weighted>
0.0000

> <Gold.Chemscore.DEClash.Weighted>
0.0814

> <Gold.Chemscore.DEInternal.Weighted>
1.1645

> <Gold.Chemscore.Rot.Weighted>
4.2011

> <Gold.Chemscore.Internal.Correction.Weighted>
   9.000000E+99

> <Gold.Protein.RotatedTorsions>
[ 6907 6896 6895 6894 ] final   24.01 input  -60.11 | X-H torsion
[ 7974 7965 7964 7962 ] final  133.40 input  175.53 | X-H torsion
[ 8008 7997 7996 7995 ] final  166.48 input   59.86 | X-H torsion
[ 10167 10162 10161 10158 ] final -149.61 input  -65.29 | X-H torsion
[ 10718 10713 10712 10709 ] final  175.67 input   66.30 | X-H torsion
[ 10763 10752 10751 10750 ] final   16.57 input  -60.55 | X-H torsion
[ 11005 11000 10999 10996 ] final  -27.32 input  -57.11 | X-H torsion

> <Gold.Protein.ActiveResidues>
 VAL166  LYS551  ARG553  GLY616  TRP617  ASP618  TYR619  PRO620  LYS621  CYS622 
 ASP623  PHE694  ASN695  SER759  ASP760  ASP761  ALA762  ILE779  LEU786  VAL792 
 PHE793  MET794  SER795  GLU796  ALA797  LYS798  CYS799  TRP800  GLU811  SER814 

> <Gold.Protein.RotatedAtoms>
  151.9511  135.0168  160.0541 H   0  0  0  0  0  0  0  0  0  0  0  0  # atno 6907 bound_to 6896
  152.1952  133.4797  159.5037 H   0  0  0  0  0  0  0  0  0  0  0  0  # atno 6908 bound_to 6896
  150.6943  134.1578  159.4207 H   0  0  0  0  0  0  0  0  0  0  0  0  # atno 6909 bound_to 6896
  144.9869  139.4446  143.5358 H   0  0  0  0  0  0  0  0  0  0  0  0  # atno 7974 bound_to 7965
  156.1715  140.1642  156.8439 H   0  0  0  0  0  0  0  0  0  0  0  0  # atno 8008 bound_to 7997
  154.5261  140.0767  156.8296 H   0  0  0  0  0  0  0  0  0  0  0  0  # atno 8009 bound_to 7997
  155.3503  140.3389  155.4241 H   0  0  0  0  0  0  0  0  0  0  0  0  # atno 8010 bound_to 7997
  139.7427  143.8638  152.2566 H   0  0  0  0  0  0  0  0  0  0  0  0  # atno 10167 bound_to 10162
  156.9314  130.9972  151.2986 H   0  0  0  0  0  0  0  0  0  0  0  0  # atno 10718 bound_to 10713
  153.1418  135.6761  153.9015 H   0  0  0  0  0  0  0  0  0  0  0  0  # atno 10763 bound_to 10752
  153.8470  135.3098  155.3431 H   0  0  0  0  0  0  0  0  0  0  0  0  # atno 10764 bound_to 10752
  154.7793  135.4897  153.9895 H   0  0  0  0  0  0  0  0  0  0  0  0  # atno 10765 bound_to 10752
  140.9109  133.7461  156.0669 H   0  0  0  0  0  0  0  0  0  0  0  0  # atno 11005 bound_to 11000
  146.3422  139.9176  142.8771 LP  0  0  0  0  0  0  0  0  0  0  0  0  # atno 17320 bound_to 7965
  145.2341  140.9984  143.3974 LP  0  0  0  0  0  0  0  0  0  0  0  0  # atno 17321 bound_to 7965
  139.8593  144.7125  150.9119 LP  0  0  0  0  0  0  0  0  0  0  0  0  # atno 17342 bound_to 10162
  140.7788  143.3831  151.1441 LP  0  0  0  0  0  0  0  0  0  0  0  0  # atno 17343 bound_to 10162
  157.5844  130.8399  149.8568 LP  0  0  0  0  0  0  0  0  0  0  0  0  # atno 17370 bound_to 10713
  156.0445  130.3731  150.1351 LP  0  0  0  0  0  0  0  0  0  0  0  0  # atno 17371 bound_to 10713
  140.8111  134.3398  157.5411 LP  0  0  0  0  0  0  0  0  0  0  0  0  # atno 17394 bound_to 11000
  139.8757  134.9254  156.3375 LP  0  0  0  0  0  0  0  0  0  0  0  0  # atno 17395 bound_to 11000

$$$$
