AV-unprocessed.smi:1073|AV-procd|sdf|4689|dock7
  -GOLD-   22720 3203D 1   1.00000     0.00000
 Structure written by MMmdl.
 44 44  0  0  0  0  0  0  0  0  1 V2000
  146.5814  139.0069  151.4121 C   0  0  0  0  0  0  0  0  0  0  0  0
  146.8368  140.0291  152.4151 N   0  0  0  0  0  0  0  0  0  0  0  0
  147.3478  139.7837  153.6303 C   0  0  0  0  0  0  0  0  0  0  0  0
  147.6650  138.6550  154.0096 O   0  0  0  0  0  0  0  0  0  0  0  0
  147.5530  140.9999  154.5436 C   0  0  2  0  0  0  0  0  0  0  0  0
  146.9274  142.2831  153.9458 C   0  0  0  0  0  0  0  0  0  0  0  0
  145.7972  142.9380  154.7730 C   0  0  0  0  0  0  0  0  0  0  0  0
  144.8033  141.9059  155.3318 C   0  0  0  0  0  0  0  0  0  0  0  0
  145.0549  143.9886  153.9331 C   0  0  0  0  0  0  0  0  0  0  0  0
  148.9799  141.1920  154.8082 N   0  0  0  0  0  0  0  0  0  0  0  0
  149.6201  140.9122  155.9541 C   0  0  0  0  0  0  0  0  0  0  0  0
  149.0567  140.4615  156.9523 O   0  0  0  0  0  0  0  0  0  0  0  0
  151.1261  141.2105  155.9644 C   0  0  0  0  0  0  0  0  0  0  0  0
  151.6436  141.5670  157.2959 N   0  0  0  0  0  0  0  0  0  0  0  0
  151.2638  142.8200  157.8155 C   0  0  0  0  0  0  0  0  0  0  0  0
  151.6735  143.2699  159.0168 C   0  0  0  0  0  0  0  0  0  0  0  0
  151.1957  144.6010  159.5762 C   0  0  0  0  0  0  0  0  0  0  0  0
  151.6460  144.7912  160.8165 F   0  0  0  0  0  0  0  0  0  0  0  0
  151.6427  145.5986  158.8145 F   0  0  0  0  0  0  0  0  0  0  0  0
  149.8637  144.6622  159.5999 F   0  0  0  0  0  0  0  0  0  0  0  0
  152.5173  142.3770  159.7866 C   0  0  0  0  0  0  0  0  0  0  0  0
  152.8780  141.1692  159.3105 C   0  0  0  0  0  0  0  0  0  0  0  0
  152.4375  140.7011  157.9943 C   0  0  0  0  0  0  0  0  0  0  0  0
  152.7603  139.5998  157.5485 O   0  0  0  0  0  0  0  0  0  0  0  0
  146.1632  139.4627  150.5147 H   0  0  0  0  0  0  0  0  0  0  0  0
  145.8697  138.2685  151.7832 H   0  0  0  0  0  0  0  0  0  0  0  0
  147.5037  138.4940  151.1362 H   0  0  0  0  0  0  0  0  0  0  0  0
  146.6071  140.9823  152.1737 H   0  0  0  0  0  0  0  0  0  0  0  0
  147.0437  140.7633  155.4788 H   0  0  0  0  0  0  0  0  0  0  0  0
  147.7246  143.0137  153.7979 H   0  0  0  0  0  0  0  0  0  0  0  0
  146.5427  142.0671  152.9476 H   0  0  0  0  0  0  0  0  0  0  0  0
  146.2401  143.4689  155.6154 H   0  0  0  0  0  0  0  0  0  0  0  0
  144.3430  141.3251  154.5318 H   0  0  0  0  0  0  0  0  0  0  0  0
  144.0035  142.3958  155.8879 H   0  0  0  0  0  0  0  0  0  0  0  0
  145.2843  141.2082  156.0162 H   0  0  0  0  0  0  0  0  0  0  0  0
  144.5764  143.5359  153.0641 H   0  0  0  0  0  0  0  0  0  0  0  0
  145.7365  144.7603  153.5737 H   0  0  0  0  0  0  0  0  0  0  0  0
  144.2803  144.4850  154.5185 H   0  0  0  0  0  0  0  0  0  0  0  0
  149.5283  141.5553  154.0417 H   0  0  0  0  0  0  0  0  0  0  0  0
  151.6652  140.3476  155.5688 H   0  0  0  0  0  0  0  0  0  0  0  0
  151.3182  142.0155  155.2538 H   0  0  0  0  0  0  0  0  0  0  0  0
  150.6052  143.3901  157.1762 H   0  0  0  0  0  0  0  0  0  0  0  0
  152.8685  142.6820  160.7615 H   0  0  0  0  0  0  0  0  0  0  0  0
  153.5078  140.5301  159.9119 H   0  0  0  0  0  0  0  0  0  0  0  0
  1  2  1  0  0  0  0
  1 25  1  0  0  0  0
  1 26  1  0  0  0  0
  1 27  1  0  0  0  0
  2  3  1  0  0  0  0
  2 28  1  0  0  0  0
  3  4  2  0  0  0  0
  3  5  1  0  0  0  0
  5  6  1  0  0  0  0
  5 10  1  0  0  0  0
  5 29  1  0  0  0  0
  6  7  1  0  0  0  0
  6 30  1  0  0  0  0
  6 31  1  0  0  0  0
  7  8  1  0  0  0  0
  7  9  1  0  0  0  0
  7 32  1  0  0  0  0
  8 33  1  0  0  0  0
  8 34  1  0  0  0  0
  8 35  1  0  0  0  0
  9 36  1  0  0  0  0
  9 37  1  0  0  0  0
  9 38  1  0  0  0  0
 10 11  1  0  0  0  0
 10 39  1  0  0  0  0
 11 12  2  0  0  0  0
 11 13  1  0  0  0  0
 13 14  1  0  0  0  0
 13 40  1  0  0  0  0
 13 41  1  0  0  0  0
 14 23  1  0  0  0  0
 14 15  1  0  0  0  0
 15 16  2  0  0  0  0
 15 42  1  0  0  0  0
 16 17  1  0  0  0  0
 16 21  1  0  0  0  0
 17 18  1  0  0  0  0
 17 19  1  0  0  0  0
 17 20  1  0  0  0  0
 21 22  2  0  0  0  0
 21 43  1  0  0  0  0
 22 23  1  0  0  0  0
 22 44  1  0  0  0  0
 23 24  2  0  0  0  0
M  END
> <s_m_source_file>
AV-unprocessed.smi

> <i_m_source_file_index>
1073

> <i_lp_mmshare_version>
43012

> <i_f3d_flags>
0

> <s_epik_input>
W0NIM11bTkhdQyg9TylbQ0BIXShbQ0gyXVtDSF0oW0NIM10pW0NIM10pW05IXUMoPU8pW0NIMl1uMVtjSF1jKEMoRikoRilGKVtjSF1bY0hdYzE9Tw==

> <s_epik_cmdline>
J2VwaWtfcHl0aG9uJywgJy1waCcsICc3LjAnLCAnLXRuJywgJzgnLCAnLW1hJywgJzIwMCcsICctbWV0YWxfYmluZGluZycsICctaW1hZScsICc8aW5maWxlLm1hZT4nLCAnLW9tYWUnLCAnPG91dGZpbGUubWFlPic=

> <r_lp_tautomer_probability>
1

> <r_epik_Ionization_Penalty>
7.02352e-08

> <r_epik_Ionization_Penalty_Charging>
1.57869e-08

> <r_epik_Ionization_Penalty_Neutral>
5.44484e-08

> <r_epik_State_Penalty>
-0

> <r_epik_Charging_Adjusted_Penalty>
1.57869e-08

> <i_epik_Tot_Q>
0

> <i_epik_Tot_abs_Q>
0

> <r_epik_Metal_State_Penalty>
-0

> <b_epik_Metal_Only>
0

> <s_lp_Force_Field>
OPLS_2005

> <r_lp_Energy>
18.1755

> <b_lp_Chiralities_Consistent>
1

> <s_lp_Variant>
AV-unprocessed.smi:1073-1

> <Gold.Version>
5.8.1

> <Gold.Id.Protein>
6NUR|6NUR_protein|mol2

> <Gold.PLP.Fitness>
50.0581

> <Gold.PLP.PLP>
-50.2247

> <Gold.PLP.part.hbond>
-2.3210

> <Gold.PLP.part.metal>
0.0000

> <Gold.PLP.part.buried>
-4.9157

> <Gold.PLP.part.nonpolar>
-43.1645

> <Gold.PLP.part.repulsive>
0.3973

> <Gold.PLP.ligand.clash>
0.8636

> <Gold.PLP.ligand.torsion>
1.6043

> <Gold.PLP.Chemscore.Hbond>
0.8000

> <Gold.PLP.Chemscore.CHOScore>
0.4484

> <Gold.PLP.Chemscore.Metal>
0.0000

> <Gold.Chemscore.Hbonds>
donor molecule, donor type, donor heavy atom, donor atom, acceptor molecule, acceptor atom, score
      P1  H  7997  8009       L1    24  0.95
      L1  C    15    42       P1  8028  0.73

> <Gold.PLP.Chemscore.Internal.Correction>
0.1603

> <Gold.Rescore>
     Score         DG    S(hbond)    S(metal)    S(lipo)     H(rot)  DE(clash)    DE(int)     intcor
     10.48     -12.47       0.82        0.00      91.49       2.51       0.63       1.36       ----

> <Gold.Chemscore.Fitness>
10.4786

> <Gold.Chemscore.DG>
-12.4700

> <Gold.Chemscore.ZeroCoef>
-5.4800

> <Gold.Chemscore.Hbond>
0.8155

> <Gold.Chemscore.Metal>
0.0000

> <Gold.Chemscore.Lipo>
91.4890

> <Gold.Chemscore.Internal_Hbond>
0.0000

> <Gold.Chemscore.DEClash>
0.6292

> <Gold.Chemscore.DEInternal>
1.3622

> <Gold.Chemscore.Rot>
2.5149

> <Gold.Chemscore.Internal.Correction>
   9.000000E+99

> <Gold.Chemscore.Hbonds>
donor molecule, donor type, donor heavy atom, donor atom, acceptor molecule, acceptor atom, score
      P1  H  7997  8009       L1    24  0.22

> <Gold.Chemscore.Hbond.Weighted>
-2.7239

> <Gold.Chemscore.Metal.Weighted>
-0.0000

> <Gold.Chemscore.Lipo.Weighted>
-10.7042

> <Gold.Chemscore.Internal_Hbond.Weighted>
0.0000

> <Gold.Chemscore.DEClash.Weighted>
0.6292

> <Gold.Chemscore.DEInternal.Weighted>
1.3622

> <Gold.Chemscore.Rot.Weighted>
6.4381

> <Gold.Chemscore.Internal.Correction.Weighted>
   9.000000E+99

> <Gold.Protein.RotatedTorsions>
[ 6907 6896 6895 6894 ] final   93.73 input  -60.11 | X-H torsion
[ 7974 7965 7964 7962 ] final  -17.17 input  175.53 | X-H torsion
[ 8008 7997 7996 7995 ] final  172.56 input   59.86 | X-H torsion
[ 10167 10162 10161 10158 ] final -124.11 input  -65.29 | X-H torsion
[ 10718 10713 10712 10709 ] final -125.98 input   66.30 | X-H torsion
[ 10763 10752 10751 10750 ] final   84.38 input  -60.55 | X-H torsion
[ 11005 11000 10999 10996 ] final   10.91 input  -57.11 | X-H torsion

> <Gold.Protein.ActiveResidues>
 VAL166  LYS551  ARG553  GLY616  TRP617  ASP618  TYR619  PRO620  LYS621  CYS622 
 ASP623  PHE694  ASN695  SER759  ASP760  ASP761  ALA762  ILE779  LEU786  VAL792 
 PHE793  MET794  SER795  GLU796  ALA797  LYS798  CYS799  TRP800  GLU811  SER814 

> <Gold.Protein.RotatedAtoms>
  152.5452  134.1302  159.8435 H   0  0  0  0  0  0  0  0  0  0  0  0  # atno 6907 bound_to 6896
  151.1348  133.5004  159.2605 H   0  0  0  0  0  0  0  0  0  0  0  0  # atno 6908 bound_to 6896
  151.1636  135.0295  159.8775 H   0  0  0  0  0  0  0  0  0  0  0  0  # atno 6909 bound_to 6896
  146.1953  140.3741  142.8443 H   0  0  0  0  0  0  0  0  0  0  0  0  # atno 7974 bound_to 7965
  156.1162  140.1482  156.9269 H   0  0  0  0  0  0  0  0  0  0  0  0  # atno 8008 bound_to 7997
  154.4802  140.0882  156.7402 H   0  0  0  0  0  0  0  0  0  0  0  0  # atno 8009 bound_to 7997
  155.4509  140.3434  155.4303 H   0  0  0  0  0  0  0  0  0  0  0  0  # atno 8010 bound_to 7997
  139.9963  143.5588  152.2322 H   0  0  0  0  0  0  0  0  0  0  0  0  # atno 10167 bound_to 10162
  156.1724  130.6676  151.0197 H   0  0  0  0  0  0  0  0  0  0  0  0  # atno 10718 bound_to 10713
  153.1376  135.4656  154.9446 H   0  0  0  0  0  0  0  0  0  0  0  0  # atno 10763 bound_to 10752
  154.7719  135.3161  154.8173 H   0  0  0  0  0  0  0  0  0  0  0  0  # atno 10764 bound_to 10752
  153.8703  135.6904  153.4829 H   0  0  0  0  0  0  0  0  0  0  0  0  # atno 10765 bound_to 10752
  140.5092  134.0669  155.7813 H   0  0  0  0  0  0  0  0  0  0  0  0  # atno 11005 bound_to 11000
  144.8569  140.7083  143.6132 LP  0  0  0  0  0  0  0  0  0  0  0  0  # atno 17320 bound_to 7965
  145.3662  139.1669  143.4357 LP  0  0  0  0  0  0  0  0  0  0  0  0  # atno 17321 bound_to 7965
  139.6304  144.7643  151.2549 LP  0  0  0  0  0  0  0  0  0  0  0  0  # atno 17342 bound_to 10162
  140.7436  143.6490  150.8266 LP  0  0  0  0  0  0  0  0  0  0  0  0  # atno 17343 bound_to 10162
  157.6812  131.0837  150.7365 LP  0  0  0  0  0  0  0  0  0  0  0  0  # atno 17370 bound_to 10713
  156.7424  130.4743  149.5474 LP  0  0  0  0  0  0  0  0  0  0  0  0  # atno 17371 bound_to 10713
  141.1395  133.9164  157.2359 LP  0  0  0  0  0  0  0  0  0  0  0  0  # atno 17394 bound_to 11000
  139.9669  135.0139  156.9409 LP  0  0  0  0  0  0  0  0  0  0  0  0  # atno 17395 bound_to 11000

$$$$
