AV-unprocessed.smi:3102|AV-procd|sdf|11812|dock5
  -GOLD-   2272017183D 1   1.00000     0.00000
 Structure written by MMmdl.
 31 32  0  0  0  0  0  0  0  0  1 V2000
  152.3914  138.2692  154.6728 C   0  0  0  0  0  0  0  0  0  0  0  0
  151.6860  139.5047  154.7151 O   0  0  0  0  0  0  0  0  0  0  0  0
  151.6675  140.2077  155.9023 C   0  0  0  0  0  0  0  0  0  0  0  0
  150.7896  141.3010  156.0256 C   0  0  0  0  0  0  0  0  0  0  0  0
  150.7695  142.0225  157.2335 C   0  0  0  0  0  0  0  0  0  0  0  0
  151.6295  141.6337  158.2879 C   0  0  0  0  0  0  0  0  0  0  0  0
  151.6690  142.3036  159.5223 N   0  0  0  0  0  0  0  0  0  0  0  0
  152.2153  143.6494  159.6438 C   0  0  2  0  0  0  0  0  0  0  0  0
  151.6182  144.4485  160.7860 C   0  0  0  0  0  0  0  0  0  0  0  0
  151.9479  145.8775  160.3660 C   0  0  0  0  0  0  0  0  0  0  0  0
  151.9423  145.8754  158.9405 O   0  0  0  0  0  0  0  0  0  0  0  0
  151.8595  144.5387  158.4542 C   0  0  0  0  0  0  0  0  0  0  0  0
  152.4717  140.5162  158.0652 C   0  0  0  0  0  0  0  0  0  0  0  0
  153.4279  140.0185  159.1354 C   0  0  0  0  0  0  0  0  0  0  0  0
  152.4928  139.8226  156.9057 N   0  0  0  0  0  0  0  0  0  0  0  0
  152.3129  137.8431  153.6727 H   0  0  0  0  0  0  0  0  0  0  0  0
  151.9727  137.5460  155.3740 H   0  0  0  0  0  0  0  0  0  0  0  0
  153.4513  138.4074  154.8910 H   0  0  0  0  0  0  0  0  0  0  0  0
  150.1426  141.5820  155.2079 H   0  0  0  0  0  0  0  0  0  0  0  0
  150.0944  142.8590  157.3294 H   0  0  0  0  0  0  0  0  0  0  0  0
  151.5769  141.7588  160.3678 H   0  0  0  0  0  0  0  0  0  0  0  0
  153.3013  143.6138  159.7367 H   0  0  0  0  0  0  0  0  0  0  0  0
  150.5359  144.3134  160.8238 H   0  0  0  0  0  0  0  0  0  0  0  0
  152.0284  144.1890  161.7621 H   0  0  0  0  0  0  0  0  0  0  0  0
  151.2391  146.6023  160.7670 H   0  0  0  0  0  0  0  0  0  0  0  0
  152.9458  146.1540  160.7082 H   0  0  0  0  0  0  0  0  0  0  0  0
  152.5187  144.3808  157.6002 H   0  0  0  0  0  0  0  0  0  0  0  0
  150.8337  144.3605  158.1274 H   0  0  0  0  0  0  0  0  0  0  0  0
  154.1374  140.8016  159.4043 H   0  0  0  0  0  0  0  0  0  0  0  0
  153.9963  139.1522  158.7945 H   0  0  0  0  0  0  0  0  0  0  0  0
  152.8777  139.7279  160.0308 H   0  0  0  0  0  0  0  0  0  0  0  0
  1  2  1  0  0  0  0
  1 16  1  0  0  0  0
  1 17  1  0  0  0  0
  1 18  1  0  0  0  0
  2  3  1  0  0  0  0
  3 15  1  0  0  0  0
  3  4  2  0  0  0  0
  4  5  1  0  0  0  0
  4 19  1  0  0  0  0
  5  6  2  0  0  0  0
  5 20  1  0  0  0  0
  6  7  1  0  0  0  0
  6 13  1  0  0  0  0
  7  8  1  0  0  0  0
  7 21  1  0  0  0  0
  8 12  1  0  0  0  0
  8  9  1  0  0  0  0
  8 22  1  0  0  0  0
  9 10  1  0  0  0  0
  9 23  1  0  0  0  0
  9 24  1  0  0  0  0
 10 11  1  0  0  0  0
 10 25  1  0  0  0  0
 10 26  1  0  0  0  0
 11 12  1  0  0  0  0
 12 27  1  0  0  0  0
 12 28  1  0  0  0  0
 13 14  1  0  0  0  0
 13 15  2  0  0  0  0
 14 29  1  0  0  0  0
 14 30  1  0  0  0  0
 14 31  1  0  0  0  0
M  END
> <s_m_source_file>
AV-unprocessed.smi

> <i_m_source_file_index>
3102

> <i_lp_mmshare_version>
43012

> <i_f3d_flags>
0

> <s_epik_input>
W0NIM11PYzFbY0hdW2NIXWMoYyhuMSlbQ0gzXSlbTkhdW0NAQEhdMltDSDJdW0NIMl1PW0NIMl0y

> <s_epik_cmdline>
J2VwaWtfcHl0aG9uJywgJy1waCcsICc3LjAnLCAnLXRuJywgJzgnLCAnLW1hJywgJzIwMCcsICctbWV0YWxfYmluZGluZycsICctaW1hZScsICc8aW5maWxlLm1hZT4nLCAnLW9tYWUnLCAnPG91dGZpbGUubWFlPic=

> <r_lp_tautomer_probability>
1

> <r_epik_Ionization_Penalty>
0.00117248

> <r_epik_Ionization_Penalty_Charging>
0

> <r_epik_Ionization_Penalty_Neutral>
0.00117248

> <r_epik_State_Penalty>
0.000742146

> <r_epik_Charging_Adjusted_Penalty>
0.000742146

> <i_epik_Tot_Q>
0

> <i_epik_Tot_abs_Q>
0

> <r_epik_Metal_State_Penalty>
-0

> <b_epik_Metal_Only>
0

> <s_lp_Force_Field>
OPLS_2005

> <r_lp_Energy>
20.6196

> <b_lp_Chiralities_Consistent>
1

> <s_lp_Variant>
AV-unprocessed.smi:3102-1

> <Gold.Version>
5.8.1

> <Gold.Id.Protein>
6NUR|6NUR_protein|mol2

> <Gold.PLP.Fitness>
39.0355

> <Gold.PLP.PLP>
-35.5313

> <Gold.PLP.part.hbond>
-3.0000

> <Gold.PLP.part.metal>
0.0000

> <Gold.PLP.part.buried>
-2.2462

> <Gold.PLP.part.nonpolar>
-30.1525

> <Gold.PLP.part.repulsive>
0.2938

> <Gold.PLP.ligand.clash>
0.0000

> <Gold.PLP.ligand.torsion>
1.1082

> <Gold.PLP.Chemscore.Hbond>
1.9000

> <Gold.PLP.Chemscore.CHOScore>
0.0000

> <Gold.PLP.Chemscore.Metal>
0.0000

> <Gold.Chemscore.Hbonds>
donor molecule, donor type, donor heavy atom, donor atom, acceptor molecule, acceptor atom, score
      P1  H  7989  7998       L1     2  1.00
      P1  H  7997  8009       L1    15  0.90

> <Gold.PLP.Chemscore.Internal.Correction>
0.0206

> <Gold.Rescore>
     Score         DG    S(hbond)    S(metal)    S(lipo)     H(rot)  DE(clash)    DE(int)     intcor
     14.51     -17.67       1.24        0.00      94.73       1.18       2.06       1.09       ----

> <Gold.Chemscore.Fitness>
14.5127

> <Gold.Chemscore.DG>
-17.6661

> <Gold.Chemscore.ZeroCoef>
-5.4800

> <Gold.Chemscore.Hbond>
1.2383

> <Gold.Chemscore.Metal>
0.0000

> <Gold.Chemscore.Lipo>
94.7267

> <Gold.Chemscore.Internal_Hbond>
0.0000

> <Gold.Chemscore.DEClash>
2.0618

> <Gold.Chemscore.DEInternal>
1.0916

> <Gold.Chemscore.Rot>
1.1847

> <Gold.Chemscore.Internal.Correction>
   9.000000E+99

> <Gold.Chemscore.Hbonds>
donor molecule, donor type, donor heavy atom, donor atom, acceptor molecule, acceptor atom, score
      P1  H  7989  7998       L1     2  0.34
      P1  H  7997  8009       L1    15  0.15

> <Gold.Chemscore.Hbond.Weighted>
-4.1359

> <Gold.Chemscore.Metal.Weighted>
-0.0000

> <Gold.Chemscore.Lipo.Weighted>
-11.0830

> <Gold.Chemscore.Internal_Hbond.Weighted>
0.0000

> <Gold.Chemscore.DEClash.Weighted>
2.0618

> <Gold.Chemscore.DEInternal.Weighted>
1.0916

> <Gold.Chemscore.Rot.Weighted>
3.0328

> <Gold.Chemscore.Internal.Correction.Weighted>
   9.000000E+99

> <Gold.Protein.RotatedTorsions>
[ 6907 6896 6895 6894 ] final   40.75 input  -60.11 | X-H torsion
[ 7974 7965 7964 7962 ] final -148.68 input  175.53 | X-H torsion
[ 8008 7997 7996 7995 ] final -168.72 input   59.86 | X-H torsion
[ 10167 10162 10161 10158 ] final   75.86 input  -65.29 | X-H torsion
[ 10718 10713 10712 10709 ] final   89.28 input   66.30 | X-H torsion
[ 10763 10752 10751 10750 ] final -125.44 input  -60.55 | X-H torsion
[ 11005 11000 10999 10996 ] final  -51.35 input  -57.11 | X-H torsion

> <Gold.Protein.ActiveResidues>
 VAL166  LYS551  ARG553  GLY616  TRP617  ASP618  TYR619  PRO620  LYS621  CYS622 
 ASP623  PHE694  ASN695  SER759  ASP760  ASP761  ALA762  ILE779  LEU786  VAL792 
 PHE793  MET794  SER795  GLU796  ALA797  LYS798  CYS799  TRP800  GLU811  SER814 

> <Gold.Protein.RotatedAtoms>
  152.1865  134.8709  160.0521 H   0  0  0  0  0  0  0  0  0  0  0  0  # atno 6907 bound_to 6896
  151.9614  133.3691  159.4045 H   0  0  0  0  0  0  0  0  0  0  0  0  # atno 6908 bound_to 6896
  150.6927  134.4160  159.5227 H   0  0  0  0  0  0  0  0  0  0  0  0  # atno 6909 bound_to 6896
  144.8014  140.5164  143.5704 H   0  0  0  0  0  0  0  0  0  0  0  0  # atno 7974 bound_to 7965
  155.8952  140.1031  157.1390 H   0  0  0  0  0  0  0  0  0  0  0  0  # atno 8008 bound_to 7997
  154.4019  140.1303  156.4430 H   0  0  0  0  0  0  0  0  0  0  0  0  # atno 8009 bound_to 7997
  155.7487  140.3465  155.5142 H   0  0  0  0  0  0  0  0  0  0  0  0  # atno 8010 bound_to 7997
  139.9984  144.5705  150.7758 H   0  0  0  0  0  0  0  0  0  0  0  0  # atno 10167 bound_to 10162
  157.6954  131.0327  150.3402 H   0  0  0  0  0  0  0  0  0  0  0  0  # atno 10718 bound_to 10713
  154.8736  135.4029  154.3269 H   0  0  0  0  0  0  0  0  0  0  0  0  # atno 10763 bound_to 10752
  153.4089  135.7020  153.6379 H   0  0  0  0  0  0  0  0  0  0  0  0  # atno 10764 bound_to 10752
  153.5090  135.3711  155.2548 H   0  0  0  0  0  0  0  0  0  0  0  0  # atno 10765 bound_to 10752
  141.0866  133.6641  156.3865 H   0  0  0  0  0  0  0  0  0  0  0  0  # atno 11005 bound_to 11000
  145.5544  139.1477  143.3376 LP  0  0  0  0  0  0  0  0  0  0  0  0  # atno 17320 bound_to 7965
  146.2296  140.5681  142.8981 LP  0  0  0  0  0  0  0  0  0  0  0  0  # atno 17321 bound_to 7965
  140.7428  143.2837  151.3524 LP  0  0  0  0  0  0  0  0  0  0  0  0  # atno 17342 bound_to 10162
  139.6289  144.0759  152.2459 LP  0  0  0  0  0  0  0  0  0  0  0  0  # atno 17343 bound_to 10162
  156.3864  130.3890  149.7062 LP  0  0  0  0  0  0  0  0  0  0  0  0  # atno 17370 bound_to 10713
  156.4427  130.7869  151.2890 LP  0  0  0  0  0  0  0  0  0  0  0  0  # atno 17371 bound_to 10713
  140.5348  134.6177  157.5361 LP  0  0  0  0  0  0  0  0  0  0  0  0  # atno 17394 bound_to 11000
  139.9685  134.7332  156.0088 LP  0  0  0  0  0  0  0  0  0  0  0  0  # atno 17395 bound_to 11000

$$$$
