AV-unprocessed.smi:2492|AV-procd|sdf|9813|dock8
  -GOLD-   2272013443D 1   1.00000     0.00000
 Structure written by MMmdl.
 33 34  0  0  0  0  0  0  0  0  1 V2000
  145.0423  133.9911  150.2469 C   0  0  0  0  0  0  0  0  0  0  0  0
  145.9941  134.4134  151.7304 S   0  0  0  0  0  0  0  0  0  0  0  0
  145.6149  136.1846  151.8656 C   0  0  2  0  0  0  0  0  0  0  0  0
  146.0823  136.9942  150.6570 C   0  0  0  0  0  0  0  0  0  0  0  0
  146.1387  138.4328  151.1713 C   0  0  0  0  0  0  0  0  0  0  0  0
  146.4865  138.3356  152.6680 C   0  0  2  0  0  0  0  0  0  0  0  0
  147.8456  138.8115  152.9121 N   0  0  0  0  0  0  0  0  0  0  0  0
  148.4823  138.7429  154.0903 C   0  0  0  0  0  0  0  0  0  0  0  0
  147.9786  138.2648  155.1071 O   0  0  0  0  0  0  0  0  0  0  0  0
  149.7218  139.2549  154.0062 N   0  0  0  0  0  0  0  0  0  0  0  0
  150.6880  139.3593  155.0386 C   0  0  0  0  0  0  0  0  0  0  0  0
  150.5006  139.0944  156.3317 N   0  0  0  0  0  0  0  0  0  0  0  0
  151.7375  139.3670  156.8311 C   0  0  0  0  0  0  0  0  0  0  0  0
  152.0762  139.2238  158.2755 C   0  0  0  0  0  0  0  0  0  0  0  0
  152.6456  139.7680  155.9488 N   0  0  0  0  0  0  0  0  0  0  0  0
  151.9422  139.7680  154.7350 O   0  0  0  0  0  0  0  0  0  0  0  0
  146.3243  136.8494  153.0487 C   0  0  0  0  0  0  0  0  0  0  0  0
  145.1368  132.9269  150.0318 H   0  0  0  0  0  0  0  0  0  0  0  0
  145.4060  134.5489  149.3841 H   0  0  0  0  0  0  0  0  0  0  0  0
  143.9868  134.2215  150.3924 H   0  0  0  0  0  0  0  0  0  0  0  0
  144.5377  136.3079  151.9875 H   0  0  0  0  0  0  0  0  0  0  0  0
  147.0806  136.6740  150.3552 H   0  0  0  0  0  0  0  0  0  0  0  0
  145.4220  136.8880  149.7960 H   0  0  0  0  0  0  0  0  0  0  0  0
  146.8392  139.0440  150.6006 H   0  0  0  0  0  0  0  0  0  0  0  0
  145.1543  138.8904  151.0619 H   0  0  0  0  0  0  0  0  0  0  0  0
  145.7803  138.9481  153.2320 H   0  0  0  0  0  0  0  0  0  0  0  0
  148.3338  139.2174  152.1271 H   0  0  0  0  0  0  0  0  0  0  0  0
  150.0072  139.6086  153.1051 H   0  0  0  0  0  0  0  0  0  0  0  0
  152.7156  140.0447  158.6020 H   0  0  0  0  0  0  0  0  0  0  0  0
  152.6020  138.2842  158.4464 H   0  0  0  0  0  0  0  0  0  0  0  0
  151.1719  139.2299  158.8847 H   0  0  0  0  0  0  0  0  0  0  0  0
  145.7703  136.7228  153.9794 H   0  0  0  0  0  0  0  0  0  0  0  0
  147.3023  136.3869  153.1939 H   0  0  0  0  0  0  0  0  0  0  0  0
  1  2  1  0  0  0  0
  1 18  1  0  0  0  0
  1 19  1  0  0  0  0
  1 20  1  0  0  0  0
  2  3  1  0  0  0  0
  3 17  1  0  0  0  0
  3  4  1  0  0  0  0
  3 21  1  0  0  0  0
  4  5  1  0  0  0  0
  4 22  1  0  0  0  0
  4 23  1  0  0  0  0
  5  6  1  0  0  0  0
  5 24  1  0  0  0  0
  5 25  1  0  0  0  0
  6  7  1  0  0  0  0
  6 17  1  0  0  0  0
  6 26  1  0  0  0  0
  7  8  1  0  0  0  0
  7 27  1  0  0  0  0
  8  9  2  0  0  0  0
  8 10  1  0  0  0  0
 10 11  1  0  0  0  0
 10 28  1  0  0  0  0
 11 16  1  0  0  0  0
 11 12  2  0  0  0  0
 12 13  1  0  0  0  0
 13 14  1  0  0  0  0
 13 15  2  0  0  0  0
 14 29  1  0  0  0  0
 14 30  1  0  0  0  0
 14 31  1  0  0  0  0
 15 16  1  0  0  0  0
 17 32  1  0  0  0  0
 17 33  1  0  0  0  0
M  END
> <s_m_source_file>
AV-unprocessed.smi

> <i_m_source_file_index>
2492

> <i_lp_mmshare_version>
43012

> <i_f3d_flags>
0

> <s_epik_input>
W0NIM11TW0NAQEhdMVtDSDJdW0NIMl1bQ0BIXShbQ0gyXTEpW05IXUMoPU8pW05IXWMybmMoW0NIM10pbm8y

> <s_epik_cmdline>
J2VwaWtfcHl0aG9uJywgJy1waCcsICc3LjAnLCAnLXRuJywgJzgnLCAnLW1hJywgJzIwMCcsICctbWV0YWxfYmluZGluZycsICctaW1hZScsICc8aW5maWxlLm1hZT4nLCAnLW9tYWUnLCAnPG91dGZpbGUubWFlPic=

> <r_lp_tautomer_probability>
1

> <r_epik_Ionization_Penalty>
3.56659e-05

> <r_epik_Ionization_Penalty_Charging>
0

> <r_epik_Ionization_Penalty_Neutral>
3.56659e-05

> <r_epik_State_Penalty>
-0

> <r_epik_Charging_Adjusted_Penalty>
0

> <i_epik_Tot_Q>
0

> <i_epik_Tot_abs_Q>
0

> <r_epik_Metal_State_Penalty>
0.0146047

> <b_epik_Metal_Only>
0

> <s_lp_Force_Field>
OPLS_2005

> <r_lp_Energy>
15.0837

> <b_lp_Chiralities_Consistent>
1

> <s_lp_Variant>
AV-unprocessed.smi:2492-3

> <Gold.Version>
5.8.1

> <Gold.Id.Protein>
6NUR|6NUR_protein|mol2

> <Gold.PLP.Fitness>
36.2908

> <Gold.PLP.PLP>
-24.5623

> <Gold.PLP.part.hbond>
-5.0000

> <Gold.PLP.part.metal>
0.0000

> <Gold.PLP.part.buried>
3.1976

> <Gold.PLP.part.nonpolar>
-24.2318

> <Gold.PLP.part.repulsive>
0.2832

> <Gold.PLP.ligand.clash>
0.0000

> <Gold.PLP.ligand.torsion>
0.0418

> <Gold.PLP.Chemscore.Hbond>
3.9360

> <Gold.PLP.Chemscore.CHOScore>
0.0000

> <Gold.PLP.Chemscore.Metal>
0.0000

> <Gold.Chemscore.Hbonds>
donor molecule, donor type, donor heavy atom, donor atom, acceptor molecule, acceptor atom, score
      L1  H     7    27       P1  7957  1.00
      L1  H    10    28       P1  7957  1.00
      P1  H  7989  7998       L1    16  0.93
      P1  H  7997  8008       L1    15  1.00

> <Gold.PLP.Chemscore.Internal.Correction>
0.0041

> <Gold.Rescore>
     Score         DG    S(hbond)    S(metal)    S(lipo)     H(rot)  DE(clash)    DE(int)     intcor
     15.60     -20.26       3.65        0.00      50.25       1.28       2.24       2.42       ----

> <Gold.Chemscore.Fitness>
15.5970

> <Gold.Chemscore.DG>
-20.2587

> <Gold.Chemscore.ZeroCoef>
-5.4800

> <Gold.Chemscore.Hbond>
3.6468

> <Gold.Chemscore.Metal>
0.0000

> <Gold.Chemscore.Lipo>
50.2500

> <Gold.Chemscore.Internal_Hbond>
0.0000

> <Gold.Chemscore.DEClash>
2.2390

> <Gold.Chemscore.DEInternal>
2.4227

> <Gold.Chemscore.Rot>
1.2815

> <Gold.Chemscore.Internal.Correction>
   9.000000E+99

> <Gold.Chemscore.Hbonds>
donor molecule, donor type, donor heavy atom, donor atom, acceptor molecule, acceptor atom, score
      L1  H     7    27       P1  7957  1.00
      L1  H    10    28       P1  7957  0.89
      P1  H  7989  7998       L1    16  0.31
      P1  H  7997  8008       L1    15  1.00

> <Gold.Chemscore.Hbond.Weighted>
-12.1802

> <Gold.Chemscore.Metal.Weighted>
-0.0000

> <Gold.Chemscore.Lipo.Weighted>
-5.8792

> <Gold.Chemscore.Internal_Hbond.Weighted>
0.0000

> <Gold.Chemscore.DEClash.Weighted>
2.2390

> <Gold.Chemscore.DEInternal.Weighted>
2.4227

> <Gold.Chemscore.Rot.Weighted>
3.2808

> <Gold.Chemscore.Internal.Correction.Weighted>
   9.000000E+99

> <Gold.Protein.RotatedTorsions>
[ 6907 6896 6895 6894 ] final  154.94 input  -60.11 | X-H torsion
[ 7974 7965 7964 7962 ] final  -41.05 input  175.53 | X-H torsion
[ 8008 7997 7996 7995 ] final  -31.35 input   59.86 | X-H torsion
[ 10167 10162 10161 10158 ] final  105.41 input  -65.29 | X-H torsion
[ 10718 10713 10712 10709 ] final  -87.27 input   66.30 | X-H torsion
[ 10763 10752 10751 10750 ] final   85.58 input  -60.55 | X-H torsion
[ 11005 11000 10999 10996 ] final -157.65 input  -57.11 | X-H torsion

> <Gold.Protein.ActiveResidues>
 VAL166  LYS551  ARG553  GLY616  TRP617  ASP618  TYR619  PRO620  LYS621  CYS622 
 ASP623  PHE694  ASN695  SER759  ASP760  ASP761  ALA762  ILE779  LEU786  VAL792 
 PHE793  MET794  SER795  GLU796  ALA797  LYS798  CYS799  TRP800  GLU811  SER814 

> <Gold.Protein.RotatedAtoms>
  152.0513  133.4020  159.4377 H   0  0  0  0  0  0  0  0  0  0  0  0  # atno 6907 bound_to 6896
  150.6870  134.3305  159.4834 H   0  0  0  0  0  0  0  0  0  0  0  0  # atno 6908 bound_to 6896
  152.1115  134.9270  160.0617 H   0  0  0  0  0  0  0  0  0  0  0  0  # atno 6909 bound_to 6896
  146.0247  140.6806  142.9161 H   0  0  0  0  0  0  0  0  0  0  0  0  # atno 7974 bound_to 7965
  154.4217  140.1766  156.1553 H   0  0  0  0  0  0  0  0  0  0  0  0  # atno 8008 bound_to 7997
  155.9882  140.3371  155.6703 H   0  0  0  0  0  0  0  0  0  0  0  0  # atno 8009 bound_to 7997
  155.6408  140.0680  157.2609 H   0  0  0  0  0  0  0  0  0  0  0  0  # atno 8010 bound_to 7997
  139.7095  144.7080  151.1051 H   0  0  0  0  0  0  0  0  0  0  0  0  # atno 10167 bound_to 10162
  155.9986  130.4794  150.4842 H   0  0  0  0  0  0  0  0  0  0  0  0  # atno 10718 bound_to 10713
  153.1488  135.4612  154.9606 H   0  0  0  0  0  0  0  0  0  0  0  0  # atno 10763 bound_to 10752
  154.7808  135.3188  154.7996 H   0  0  0  0  0  0  0  0  0  0  0  0  # atno 10764 bound_to 10752
  153.8505  135.6922  153.4847 H   0  0  0  0  0  0  0  0  0  0  0  0  # atno 10765 bound_to 10752
  140.6622  134.4337  157.5234 H   0  0  0  0  0  0  0  0  0  0  0  0  # atno 11005 bound_to 11000
  144.7004  140.3629  143.7160 LP  0  0  0  0  0  0  0  0  0  0  0  0  # atno 17320 bound_to 7965
  145.7137  139.1691  143.2524 LP  0  0  0  0  0  0  0  0  0  0  0  0  # atno 17321 bound_to 7965
  140.7730  143.5313  150.9420 LP  0  0  0  0  0  0  0  0  0  0  0  0  # atno 17342 bound_to 10162
  139.8997  143.6851  152.3133 LP  0  0  0  0  0  0  0  0  0  0  0  0  # atno 17343 bound_to 10162
  157.2844  131.0613  151.2176 LP  0  0  0  0  0  0  0  0  0  0  0  0  # atno 17370 bound_to 10713
  157.3211  130.6937  149.6269 LP  0  0  0  0  0  0  0  0  0  0  0  0  # atno 17371 bound_to 10713
  139.9009  134.8558  156.1901 LP  0  0  0  0  0  0  0  0  0  0  0  0  # atno 17394 bound_to 11000
  141.0456  133.6915  156.1677 LP  0  0  0  0  0  0  0  0  0  0  0  0  # atno 17395 bound_to 11000

$$$$
