AV-unprocessed.smi:2946|AV-procd|sdf|11281|dock9
  -GOLD-   2272016173D 1   1.00000     0.00000
 Structure written by MMmdl.
 35 36  0  0  0  0  0  0  0  0  1 V2000
  155.3445  140.6271  163.0752 C   0  0  0  0  0  0  0  0  0  0  0  0
  154.8425  139.6311  162.1502 N   0  0  0  0  0  0  0  0  0  0  0  0
  154.2514  139.9197  160.9167 C   0  0  0  0  0  0  0  0  0  0  0  0
  154.1244  141.2574  160.5581 N   0  0  0  0  0  0  0  0  0  0  0  0
  153.5426  141.7718  159.3270 C   0  0  0  0  0  0  0  0  0  0  0  0
  152.3409  142.6895  159.6003 C   0  0  1  0  0  0  0  0  0  0  0  0
  152.5307  143.7030  160.7320 C   0  0  0  0  0  0  0  0  0  0  0  0
  151.5600  144.7896  160.3285 C   0  0  0  0  0  0  0  0  0  0  0  0
  151.7126  144.7949  158.8104 C   0  0  0  0  0  0  0  0  0  0  0  0
  151.9947  143.4472  158.4431 O   0  0  0  0  0  0  0  0  0  0  0  0
  153.8238  138.9200  160.0958 C   0  0  0  0  0  0  0  0  0  0  0  0
  153.2682  139.1518  158.7994 C   0  0  0  0  0  0  0  0  0  0  0  0
  152.8004  139.3423  157.7573 N   0  0  0  0  0  0  0  0  0  0  0  0
  153.9374  137.5111  160.4662 C   0  0  0  0  0  0  0  0  0  0  0  0
  153.5748  136.5798  159.7435 O   0  0  0  0  0  0  0  0  0  0  0  0
  154.5073  137.2781  161.7343 N   0  0  0  0  0  0  0  0  0  0  0  0
  154.6385  135.8918  162.1382 C   0  0  0  0  0  0  0  0  0  0  0  0
  154.9727  138.2930  162.5965 C   0  0  0  0  0  0  0  0  0  0  0  0
  155.4771  138.0325  163.6930 O   0  0  0  0  0  0  0  0  0  0  0  0
  155.3114  141.6177  162.6276 H   0  0  0  0  0  0  0  0  0  0  0  0
  156.3818  140.3771  163.3063 H   0  0  0  0  0  0  0  0  0  0  0  0
  154.7109  140.5923  163.9632 H   0  0  0  0  0  0  0  0  0  0  0  0
  153.9755  141.8852  161.3354 H   0  0  0  0  0  0  0  0  0  0  0  0
  154.3132  142.3172  158.7817 H   0  0  0  0  0  0  0  0  0  0  0  0
  153.2181  140.9514  158.6874 H   0  0  0  0  0  0  0  0  0  0  0  0
  151.4749  142.0709  159.8402 H   0  0  0  0  0  0  0  0  0  0  0  0
  152.3202  143.2848  161.7164 H   0  0  0  0  0  0  0  0  0  0  0  0
  153.5444  144.1037  160.7444 H   0  0  0  0  0  0  0  0  0  0  0  0
  150.5434  144.5052  160.6039 H   0  0  0  0  0  0  0  0  0  0  0  0
  151.7819  145.7554  160.7833 H   0  0  0  0  0  0  0  0  0  0  0  0
  150.8239  145.1695  158.3022 H   0  0  0  0  0  0  0  0  0  0  0  0
  152.5579  145.4182  158.5168 H   0  0  0  0  0  0  0  0  0  0  0  0
  154.9183  135.8079  163.1879 H   0  0  0  0  0  0  0  0  0  0  0  0
  155.4035  135.4454  161.5009 H   0  0  0  0  0  0  0  0  0  0  0  0
  153.6694  135.4096  161.9953 H   0  0  0  0  0  0  0  0  0  0  0  0
  1  2  1  0  0  0  0
  1 20  1  0  0  0  0
  1 21  1  0  0  0  0
  1 22  1  0  0  0  0
  2 18  1  0  0  0  0
  2  3  1  0  0  0  0
  3  4  1  0  0  0  0
  3 11  2  0  0  0  0
  4  5  1  0  0  0  0
  4 23  1  0  0  0  0
  5  6  1  0  0  0  0
  5 24  1  0  0  0  0
  5 25  1  0  0  0  0
  6 10  1  0  0  0  0
  6  7  1  0  0  0  0
  6 26  1  0  0  0  0
  7  8  1  0  0  0  0
  7 27  1  0  0  0  0
  7 28  1  0  0  0  0
  8  9  1  0  0  0  0
  8 29  1  0  0  0  0
  8 30  1  0  0  0  0
  9 10  1  0  0  0  0
  9 31  1  0  0  0  0
  9 32  1  0  0  0  0
 11 12  1  0  0  0  0
 11 14  1  0  0  0  0
 12 13  3  0  0  0  0
 14 15  2  0  0  0  0
 14 16  1  0  0  0  0
 16 17  1  0  0  0  0
 16 18  1  0  0  0  0
 17 33  1  0  0  0  0
 17 34  1  0  0  0  0
 17 35  1  0  0  0  0
 18 19  2  0  0  0  0
M  END
> <s_m_source_file>
AV-unprocessed.smi

> <i_m_source_file_index>
2946

> <i_lp_mmshare_version>
43012

> <i_f3d_flags>
0

> <s_epik_input>
Tz1jMW4oW0NIM10pYyg9TyljKEMjTiljKG4xW0NIM10pW05IXVtDSDJdW0NAQEhdMltDSDJdW0NIMl1bQ0gyXU8y

> <s_epik_cmdline>
J2VwaWtfcHl0aG9uJywgJy1waCcsICc3LjAnLCAnLXRuJywgJzgnLCAnLW1hJywgJzIwMCcsICctbWV0YWxfYmluZGluZycsICctaW1hZScsICc8aW5maWxlLm1hZT4nLCAnLW9tYWUnLCAnPG91dGZpbGUubWFlPic=

> <r_epik_Ionization_Penalty>
0.000541801

> <r_epik_Ionization_Penalty_Charging>
8.97317e-10

> <r_epik_Ionization_Penalty_Neutral>
0.000541801

> <r_epik_State_Penalty>
0.000338907

> <r_epik_Charging_Adjusted_Penalty>
0.000338908

> <i_epik_Tot_Q>
0

> <i_epik_Tot_abs_Q>
0

> <r_epik_Metal_State_Penalty>
-0

> <b_epik_Metal_Only>
0

> <s_lp_Force_Field>
OPLS_2005

> <r_lp_Energy>
39.9681

> <b_lp_Chiralities_Consistent>
1

> <s_lp_Variant>
AV-unprocessed.smi:2946-2

> <Gold.Version>
5.8.1

> <Gold.Id.Protein>
6NUR|6NUR_protein|mol2

> <Gold.PLP.Fitness>
43.1728

> <Gold.PLP.PLP>
-37.4281

> <Gold.PLP.part.hbond>
-2.0000

> <Gold.PLP.part.metal>
0.0000

> <Gold.PLP.part.buried>
-5.2704

> <Gold.PLP.part.nonpolar>
-30.9916

> <Gold.PLP.part.repulsive>
0.0769

> <Gold.PLP.ligand.clash>
9.8971

> <Gold.PLP.ligand.torsion>
0.1147

> <Gold.PLP.Chemscore.Hbond>
1.9913

> <Gold.PLP.Chemscore.CHOScore>
0.0000

> <Gold.PLP.Chemscore.Metal>
0.0000

> <Gold.Chemscore.Hbonds>
donor molecule, donor type, donor heavy atom, donor atom, acceptor molecule, acceptor atom, score
      P1  H  6896  6908       L1    15  0.68
      P1  H  7997  8010       L1    13  0.85

> <Gold.PLP.Chemscore.Internal.Correction>
9.8975

> <Gold.Rescore>
     Score         DG    S(hbond)    S(metal)    S(lipo)     H(rot)  DE(clash)    DE(int)     intcor
     15.20     -17.86       1.87        0.00      80.80       1.29       0.02       2.64       ----

> <Gold.Chemscore.Fitness>
15.1991

> <Gold.Chemscore.DG>
-17.8647

> <Gold.Chemscore.ZeroCoef>
-5.4800

> <Gold.Chemscore.Hbond>
1.8698

> <Gold.Chemscore.Metal>
0.0000

> <Gold.Chemscore.Lipo>
80.8002

> <Gold.Chemscore.Internal_Hbond>
0.0000

> <Gold.Chemscore.DEClash>
0.0208

> <Gold.Chemscore.DEInternal>
2.6448

> <Gold.Chemscore.Rot>
1.2946

> <Gold.Chemscore.Internal.Correction>
   9.000000E+99

> <Gold.Chemscore.Hbonds>
donor molecule, donor type, donor heavy atom, donor atom, acceptor molecule, acceptor atom, score
      P1  H  6896  6908       L1    15  0.69
      P1  H  7997  8010       L1    13  0.14

> <Gold.Chemscore.Hbond.Weighted>
-6.2452

> <Gold.Chemscore.Metal.Weighted>
-0.0000

> <Gold.Chemscore.Lipo.Weighted>
-9.4536

> <Gold.Chemscore.Internal_Hbond.Weighted>
0.0000

> <Gold.Chemscore.DEClash.Weighted>
0.0208

> <Gold.Chemscore.DEInternal.Weighted>
2.6448

> <Gold.Chemscore.Rot.Weighted>
3.3141

> <Gold.Chemscore.Internal.Correction.Weighted>
   9.000000E+99

> <Gold.Protein.RotatedTorsions>
[ 6907 6896 6895 6894 ] final  -83.76 input  -60.11 | X-H torsion
[ 7974 7965 7964 7962 ] final -139.90 input  175.53 | X-H torsion
[ 8008 7997 7996 7995 ] final   45.66 input   59.86 | X-H torsion
[ 10167 10162 10161 10158 ] final -141.68 input  -65.29 | X-H torsion
[ 10718 10713 10712 10709 ] final -152.33 input   66.30 | X-H torsion
[ 10763 10752 10751 10750 ] final  -46.68 input  -60.55 | X-H torsion
[ 11005 11000 10999 10996 ] final   85.50 input  -57.11 | X-H torsion

> <Gold.Protein.ActiveResidues>
 VAL166  LYS551  ARG553  GLY616  TRP617  ASP618  TYR619  PRO620  LYS621  CYS622 
 ASP623  PHE694  ASN695  SER759  ASP760  ASP761  ALA762  ILE779  LEU786  VAL792 
 PHE793  MET794  SER795  GLU796  ALA797  LYS798  CYS799  TRP800  GLU811  SER814 

> <Gold.Protein.RotatedAtoms>
  150.6882  134.3463  159.4889 H   0  0  0  0  0  0  0  0  0  0  0  0  # atno 6907 bound_to 6896
  152.1310  134.9132  160.0568 H   0  0  0  0  0  0  0  0  0  0  0  0  # atno 6908 bound_to 6896
  152.0302  133.3899  159.4331 H   0  0  0  0  0  0  0  0  0  0  0  0  # atno 6909 bound_to 6896
  144.8639  140.6263  143.5310 H   0  0  0  0  0  0  0  0  0  0  0  0  # atno 7974 bound_to 7965
  155.3396  140.3407  155.4239 H   0  0  0  0  0  0  0  0  0  0  0  0  # atno 8008 bound_to 7997
  156.1820  140.1667  156.8292 H   0  0  0  0  0  0  0  0  0  0  0  0  # atno 8009 bound_to 7997
  154.5344  140.0738  156.8385 H   0  0  0  0  0  0  0  0  0  0  0  0  # atno 8010 bound_to 7997
  139.8161  143.7636  152.2665 H   0  0  0  0  0  0  0  0  0  0  0  0  # atno 10167 bound_to 10162
  156.4711  130.8259  151.2488 H   0  0  0  0  0  0  0  0  0  0  0  0  # atno 10718 bound_to 10713
  154.0489  135.6634  153.4798 H   0  0  0  0  0  0  0  0  0  0  0  0  # atno 10763 bound_to 10752
  153.0471  135.5107  154.7770 H   0  0  0  0  0  0  0  0  0  0  0  0  # atno 10764 bound_to 10752
  154.6770  135.3038  154.9632 H   0  0  0  0  0  0  0  0  0  0  0  0  # atno 10765 bound_to 10752
  139.8970  134.8291  156.2591 H   0  0  0  0  0  0  0  0  0  0  0  0  # atno 11005 bound_to 11000
  145.4258  139.1556  143.4049 LP  0  0  0  0  0  0  0  0  0  0  0  0  # atno 17320 bound_to 7965
  146.2881  140.4371  142.8750 LP  0  0  0  0  0  0  0  0  0  0  0  0  # atno 17321 bound_to 7965
  139.7800  144.7447  151.0102 LP  0  0  0  0  0  0  0  0  0  0  0  0  # atno 17342 bound_to 10162
  140.7815  143.4552  151.0356 LP  0  0  0  0  0  0  0  0  0  0  0  0  # atno 17343 bound_to 10162
  157.7491  131.0076  150.3196 LP  0  0  0  0  0  0  0  0  0  0  0  0  # atno 17370 bound_to 10713
  156.3617  130.3848  149.7245 LP  0  0  0  0  0  0  0  0  0  0  0  0  # atno 17371 bound_to 10713
  141.0174  133.7061  156.1211 LP  0  0  0  0  0  0  0  0  0  0  0  0  # atno 17394 bound_to 11000
  140.7282  134.4283  157.5568 LP  0  0  0  0  0  0  0  0  0  0  0  0  # atno 17395 bound_to 11000

$$$$
