AV-unprocessed.smi:2008|AV-procd|sdf|8142|dock8
  -GOLD-   2272010383D 1   1.00000     0.00000
 Structure written by MMmdl.
 46 47  0  0  0  0  0  0  0  0  2 V2000
  135.9149  138.5639  154.2137 C   0  0  0  0  0  0  0  0  0  0  0  0
  136.8365  137.5008  154.4306 O   0  0  0  0  0  0  0  0  0  0  0  0
  138.1506  137.6866  154.0530 C   0  0  0  0  0  0  0  0  0  0  0  0
  139.0527  136.6143  154.1990 C   0  0  0  0  0  0  0  0  0  0  0  0
  140.3943  136.8001  153.8158 C   0  0  0  0  0  0  0  0  0  0  0  0
  140.7991  138.0513  153.3082 C   0  0  0  0  0  0  0  0  0  0  0  0
  142.1576  138.2045  152.9188 N   0  0  0  0  0  0  0  0  0  0  0  0
  143.0577  137.2499  152.6262 C   0  0  0  0  0  0  0  0  0  0  0  0
  142.8497  136.0371  152.6570 O   0  0  0  0  0  0  0  0  0  0  0  0
  144.2356  137.7837  152.2718 N   0  0  0  0  0  0  0  0  0  0  0  0
  145.4076  137.0164  151.8656 C   0  0  0  0  0  0  0  0  0  0  0  0
  145.8950  136.0908  152.9978 C   0  0  0  0  0  0  0  0  0  0  0  0
  146.3930  134.7744  152.5133 N   0  3  1  0  0  0  0  0  0  0  0  0
  146.3431  133.7361  153.5783 C   0  0  0  0  0  0  0  0  0  0  0  0
  147.0523  132.4452  153.1400 C   0  0  0  0  0  0  0  0  0  0  0  0
  146.4590  131.9090  151.8333 C   0  0  0  0  0  0  0  0  0  0  0  0
  146.5084  133.0005  150.7559 C   0  0  0  0  0  0  0  0  0  0  0  0
  145.8191  134.3046  151.2118 C   0  0  1  0  0  0  0  0  0  0  0  0
  144.2803  134.1767  151.2213 C   0  0  0  0  0  0  0  0  0  0  0  0
  139.8140  139.0620  153.1880 C   0  0  0  0  0  0  0  0  0  0  0  0
  138.5254  138.8893  153.5518 N   0  0  0  0  0  0  0  0  0  0  0  0
  134.9244  138.2579  154.5500 H   0  0  0  0  0  0  0  0  0  0  0  0
  135.8397  138.8180  153.1553 H   0  0  0  0  0  0  0  0  0  0  0  0
  136.1955  139.4550  154.7770 H   0  0  0  0  0  0  0  0  0  0  0  0
  138.7212  135.6666  154.5968 H   0  0  0  0  0  0  0  0  0  0  0  0
  141.1028  135.9909  153.9165 H   0  0  0  0  0  0  0  0  0  0  0  0
  142.4607  139.1575  152.7804 H   0  0  0  0  0  0  0  0  0  0  0  0
  144.3223  138.7898  152.2685 H   0  0  0  0  0  0  0  0  0  0  0  0
  145.1592  136.4545  150.9651 H   0  0  0  0  0  0  0  0  0  0  0  0
  146.1963  137.7171  151.5904 H   0  0  0  0  0  0  0  0  0  0  0  0
  146.7114  136.5987  153.5135 H   0  0  0  0  0  0  0  0  0  0  0  0
  145.1183  135.9448  153.7488 H   0  0  0  0  0  0  0  0  0  0  0  0
  146.8292  134.1123  154.4793 H   0  0  0  0  0  0  0  0  0  0  0  0
  145.3077  133.5283  153.8500 H   0  0  0  0  0  0  0  0  0  0  0  0
  148.1172  132.6398  153.0059 H   0  0  0  0  0  0  0  0  0  0  0  0
  146.9720  131.6908  153.9233 H   0  0  0  0  0  0  0  0  0  0  0  0
  147.0122  131.0294  151.5030 H   0  0  0  0  0  0  0  0  0  0  0  0
  145.4305  131.5853  151.9960 H   0  0  0  0  0  0  0  0  0  0  0  0
  147.5514  133.2129  150.5161 H   0  0  0  0  0  0  0  0  0  0  0  0
  146.0564  132.6351  149.8331 H   0  0  0  0  0  0  0  0  0  0  0  0
  146.0682  135.0445  150.4522 H   0  0  0  0  0  0  0  0  0  0  0  0
  143.9206  133.8060  150.2613 H   0  0  0  0  0  0  0  0  0  0  0  0
  143.7941  135.1384  151.3840 H   0  0  0  0  0  0  0  0  0  0  0  0
  143.9248  133.4881  151.9873 H   0  0  0  0  0  0  0  0  0  0  0  0
  140.0366  140.0332  152.7751 H   0  0  0  0  0  0  0  0  0  0  0  0
  147.3772  134.9131  152.3337 H   0  0  0  0  0  0  0  0  0  0  0  0
  1  2  1  0  0  0  0
  1 22  1  0  0  0  0
  1 23  1  0  0  0  0
  1 24  1  0  0  0  0
  2  3  1  0  0  0  0
  3 21  1  0  0  0  0
  3  4  2  0  0  0  0
  4  5  1  0  0  0  0
  4 25  1  0  0  0  0
  5  6  2  0  0  0  0
  5 26  1  0  0  0  0
  6  7  1  0  0  0  0
  6 20  1  0  0  0  0
  7  8  1  0  0  0  0
  7 27  1  0  0  0  0
  8  9  2  0  0  0  0
  8 10  1  0  0  0  0
 10 11  1  0  0  0  0
 10 28  1  0  0  0  0
 11 12  1  0  0  0  0
 11 29  1  0  0  0  0
 11 30  1  0  0  0  0
 12 13  1  0  0  0  0
 12 31  1  0  0  0  0
 12 32  1  0  0  0  0
 13 18  1  0  0  0  0
 13 14  1  0  0  0  0
 13 46  1  0  0  0  0
 14 15  1  0  0  0  0
 14 33  1  0  0  0  0
 14 34  1  0  0  0  0
 15 16  1  0  0  0  0
 15 35  1  0  0  0  0
 15 36  1  0  0  0  0
 16 17  1  0  0  0  0
 16 37  1  0  0  0  0
 16 38  1  0  0  0  0
 17 18  1  0  0  0  0
 17 39  1  0  0  0  0
 17 40  1  0  0  0  0
 18 19  1  0  0  0  0
 18 41  1  0  0  0  0
 19 42  1  0  0  0  0
 19 43  1  0  0  0  0
 19 44  1  0  0  0  0
 20 21  2  0  0  0  0
 20 45  1  0  0  0  0
M  CHG  1  13   1
M  END
> <s_m_source_file>
AV-unprocessed.smi

> <i_m_source_file_index>
2008

> <i_lp_mmshare_version>
43012

> <i_f3d_flags>
0

> <s_epik_input>
W0NIM11PYzFbY0hdW2NIXWMoW2NIXW4xKVtOSF1DKD1PKVtOSF1bQ0gyXVtDSDJdTjJbQ0gyXVtDSDJdW0NIMl1bQ0gyXVtDQEhdMltDSDNd

> <s_epik_cmdline>
J2VwaWtfcHl0aG9uJywgJy1waCcsICc3LjAnLCAnLXRuJywgJzgnLCAnLW1hJywgJzIwMCcsICctbWV0YWxfYmluZGluZycsICctaW1hZScsICc8aW5maWxlLm1hZT4nLCAnLW9tYWUnLCAnPG91dGZpbGUubWFlPic=

> <r_lp_tautomer_probability>
1

> <r_epik_Ionization_Penalty>
0.00219526

> <r_epik_Ionization_Penalty_Charging>
0.00211816

> <r_epik_Ionization_Penalty_Neutral>
7.71003e-05

> <r_epik_State_Penalty>
0.00145254

> <r_epik_Charging_Adjusted_Penalty>
0.0035707

> <i_epik_Tot_Q>
1

> <i_epik_Tot_abs_Q>
1

> <r_epik_Metal_State_Penalty>
-0

> <b_epik_Metal_Only>
0

> <s_lp_Force_Field>
OPLS_2005

> <r_lp_Energy>
23.0137

> <b_lp_Chiralities_Consistent>
1

> <s_lp_Variant>
AV-unprocessed.smi:2008-2

> <Gold.Version>
5.8.1

> <Gold.Id.Protein>
6NUR|6NUR_protein|mol2

> <Gold.PLP.Fitness>
48.6670

> <Gold.PLP.PLP>
-35.0149

> <Gold.PLP.part.hbond>
-4.0000

> <Gold.PLP.part.metal>
0.0000

> <Gold.PLP.part.buried>
-1.1285

> <Gold.PLP.part.nonpolar>
-29.6702

> <Gold.PLP.part.repulsive>
0.3878

> <Gold.PLP.ligand.clash>
0.0000

> <Gold.PLP.ligand.torsion>
0.7015

> <Gold.PLP.Chemscore.Hbond>
4.0000

> <Gold.PLP.Chemscore.CHOScore>
1.0000

> <Gold.PLP.Chemscore.Metal>
0.0000

> <Gold.Chemscore.Hbonds>
donor molecule, donor type, donor heavy atom, donor atom, acceptor molecule, acceptor atom, score
      L1  H     7    27       P1 10175  1.00
      L1  H    10    28       P1 10175  1.00
      L1  H    13    46       P1  7948  1.77
      L1  C    20    45       P1 10160  0.93

> <Gold.PLP.Chemscore.Internal.Correction>
0.0551

> <Gold.Rescore>
     Score         DG    S(hbond)    S(metal)    S(lipo)     H(rot)  DE(clash)    DE(int)     intcor
     15.50     -19.35       2.91        0.00      72.83       1.71       0.06       3.79       ----

> <Gold.Chemscore.Fitness>
15.4986

> <Gold.Chemscore.DG>
-19.3533

> <Gold.Chemscore.ZeroCoef>
-5.4800

> <Gold.Chemscore.Hbond>
2.9137

> <Gold.Chemscore.Metal>
0.0000

> <Gold.Chemscore.Lipo>
72.8279

> <Gold.Chemscore.Internal_Hbond>
0.0000

> <Gold.Chemscore.DEClash>
0.0608

> <Gold.Chemscore.DEInternal>
3.7938

> <Gold.Chemscore.Rot>
1.7107

> <Gold.Chemscore.Internal.Correction>
   9.000000E+99

> <Gold.Chemscore.Hbonds>
donor molecule, donor type, donor heavy atom, donor atom, acceptor molecule, acceptor atom, score
      L1  H     7    27       P1 10175  0.98
      L1  H    10    28       P1 10175  0.96
      L1  H    13    46       P1  7948  0.80

> <Gold.Chemscore.Hbond.Weighted>
-9.7318

> <Gold.Chemscore.Metal.Weighted>
-0.0000

> <Gold.Chemscore.Lipo.Weighted>
-8.5209

> <Gold.Chemscore.Internal_Hbond.Weighted>
0.0000

> <Gold.Chemscore.DEClash.Weighted>
0.0608

> <Gold.Chemscore.DEInternal.Weighted>
3.7938

> <Gold.Chemscore.Rot.Weighted>
4.3794

> <Gold.Chemscore.Internal.Correction.Weighted>
   9.000000E+99

> <Gold.Protein.RotatedTorsions>
[ 6907 6896 6895 6894 ] final  171.66 input  -60.11 | X-H torsion
[ 7974 7965 7964 7962 ] final  -15.02 input  175.53 | X-H torsion
[ 8008 7997 7996 7995 ] final   79.05 input   59.86 | X-H torsion
[ 10167 10162 10161 10158 ] final  140.26 input  -65.29 | X-H torsion
[ 10718 10713 10712 10709 ] final -146.19 input   66.30 | X-H torsion
[ 10763 10752 10751 10750 ] final  -36.75 input  -60.55 | X-H torsion
[ 11005 11000 10999 10996 ] final   72.75 input  -57.11 | X-H torsion

> <Gold.Protein.ActiveResidues>
 VAL166  LYS551  ARG553  GLY616  TRP617  ASP618  TYR619  PRO620  LYS621  CYS622 
 ASP623  PHE694  ASN695  SER759  ASP760  ASP761  ALA762  ILE779  LEU786  VAL792 
 PHE793  MET794  SER795  GLU796  ALA797  LYS798  CYS799  TRP800  GLU811  SER814 

> <Gold.Protein.RotatedAtoms>
  151.7967  133.3365  159.3514 H   0  0  0  0  0  0  0  0  0  0  0  0  # atno 6907 bound_to 6896
  150.7373  134.5792  159.5939 H   0  0  0  0  0  0  0  0  0  0  0  0  # atno 6908 bound_to 6896
  152.3172  134.7426  160.0374 H   0  0  0  0  0  0  0  0  0  0  0  0  # atno 6909 bound_to 6896
  146.2050  140.3432  142.8410 H   0  0  0  0  0  0  0  0  0  0  0  0  # atno 7974 bound_to 7965
  155.8643  140.3452  155.5777 H   0  0  0  0  0  0  0  0  0  0  0  0  # atno 8008 bound_to 7997
  155.7899  140.0870  157.2034 H   0  0  0  0  0  0  0  0  0  0  0  0  # atno 8009 bound_to 7997
  154.4013  140.1485  156.3137 H   0  0  0  0  0  0  0  0  0  0  0  0  # atno 8010 bound_to 7997
  139.5054  144.6245  151.5971 H   0  0  0  0  0  0  0  0  0  0  0  0  # atno 10167 bound_to 10162
  156.3919  130.7890  151.2093 H   0  0  0  0  0  0  0  0  0  0  0  0  # atno 10718 bound_to 10713
  153.8848  135.6818  153.4764 H   0  0  0  0  0  0  0  0  0  0  0  0  # atno 10763 bound_to 10752
  153.1213  135.4738  154.9198 H   0  0  0  0  0  0  0  0  0  0  0  0  # atno 10764 bound_to 10752
  154.7651  135.3222  154.8254 H   0  0  0  0  0  0  0  0  0  0  0  0  # atno 10765 bound_to 10752
  139.9475  134.7287  156.0944 H   0  0  0  0  0  0  0  0  0  0  0  0  # atno 11005 bound_to 11000
  144.8771  140.7350  143.6010 LP  0  0  0  0  0  0  0  0  0  0  0  0  # atno 17320 bound_to 7965
  145.3352  139.1748  143.4515 LP  0  0  0  0  0  0  0  0  0  0  0  0  # atno 17321 bound_to 7965
  140.5958  143.9699  150.6353 LP  0  0  0  0  0  0  0  0  0  0  0  0  # atno 17342 bound_to 10162
  140.2895  143.3334  152.1076 LP  0  0  0  0  0  0  0  0  0  0  0  0  # atno 17343 bound_to 10162
  157.7499  131.0313  150.4175 LP  0  0  0  0  0  0  0  0  0  0  0  0  # atno 17370 bound_to 10713
  156.4438  130.3997  149.6680 LP  0  0  0  0  0  0  0  0  0  0  0  0  # atno 17371 bound_to 10713
  141.1129  133.6637  156.3023 LP  0  0  0  0  0  0  0  0  0  0  0  0  # atno 17394 bound_to 11000
  140.5799  134.5756  157.5477 LP  0  0  0  0  0  0  0  0  0  0  0  0  # atno 17395 bound_to 11000

$$$$
