AV-unprocessed.smi:1213|AV-procd|sdf|5086|dock2
  -GOLD-   22720 4133D 1   1.00000     0.00000
 Structure written by MMmdl.
 37 38  0  0  0  0  0  0  0  0  2 V2000
  142.3218  139.8651  155.1038 N   0  0  0  0  0  0  0  0  0  0  0  0
  142.6895  140.7386  156.0440 C   0  0  0  0  0  0  0  0  0  0  0  0
  142.2896  140.6595  157.2043 O   0  0  0  0  0  0  0  0  0  0  0  0
  143.6263  141.8703  155.6070 C   0  0  0  0  0  0  0  0  0  0  0  0
  144.9185  141.3805  155.0608 N   0  3  2  0  0  0  0  0  0  0  0  0
  145.6970  140.6031  156.0584 C   0  0  0  0  0  0  0  0  0  0  0  0
  146.9572  139.9845  155.4254 C   0  0  0  0  0  0  0  0  0  0  0  0
  147.8428  141.0414  154.7427 C   0  0  2  0  0  0  0  0  0  0  0  0
  148.5089  141.8764  155.7424 N   0  0  0  0  0  0  0  0  0  0  0  0
  149.5235  141.4827  156.5264 C   0  0  0  0  0  0  0  0  0  0  0  0
  150.0140  140.3543  156.4831 O   0  0  0  0  0  0  0  0  0  0  0  0
  149.9214  142.4734  157.3439 N   0  0  0  0  0  0  0  0  0  0  0  0
  150.9721  142.4532  158.2986 C   0  0  0  0  0  0  0  0  0  0  0  0
  151.3455  143.5083  159.0319 N   0  0  0  0  0  0  0  0  0  0  0  0
  152.4044  143.2021  159.8904 C   0  0  0  0  0  0  0  0  0  0  0  0
  152.8268  141.8992  159.7980 C   0  0  0  0  0  0  0  0  0  0  0  0
  151.9073  141.0005  158.6207 S   0  0  0  0  0  0  0  0  0  0  0  0
  146.9924  141.8800  153.7674 C   0  0  0  0  0  0  0  0  0  0  0  0
  145.7394  142.4584  154.4472 C   0  0  0  0  0  0  0  0  0  0  0  0
  141.7005  139.1047  155.3424 H   0  0  0  0  0  0  0  0  0  0  0  0
  142.6575  139.9652  154.1566 H   0  0  0  0  0  0  0  0  0  0  0  0
  143.1325  142.5166  154.8793 H   0  0  0  0  0  0  0  0  0  0  0  0
  143.8103  142.4796  156.4929 H   0  0  0  0  0  0  0  0  0  0  0  0
  145.9677  141.2496  156.8944 H   0  0  0  0  0  0  0  0  0  0  0  0
  145.0770  139.8036  156.4658 H   0  0  0  0  0  0  0  0  0  0  0  0
  147.5283  139.4406  156.1791 H   0  0  0  0  0  0  0  0  0  0  0  0
  146.6531  139.2433  154.6848 H   0  0  0  0  0  0  0  0  0  0  0  0
  148.6152  140.5186  154.1755 H   0  0  0  0  0  0  0  0  0  0  0  0
  148.1649  142.8191  155.8531 H   0  0  0  0  0  0  0  0  0  0  0  0
  149.4207  143.3465  157.2714 H   0  0  0  0  0  0  0  0  0  0  0  0
  152.7970  143.9738  160.5357 H   0  0  0  0  0  0  0  0  0  0  0  0
  153.6200  141.4162  160.3490 H   0  0  0  0  0  0  0  0  0  0  0  0
  147.5855  142.6841  153.3303 H   0  0  0  0  0  0  0  0  0  0  0  0
  146.6830  141.2500  152.9323 H   0  0  0  0  0  0  0  0  0  0  0  0
  145.1533  143.0023  153.7060 H   0  0  0  0  0  0  0  0  0  0  0  0
  146.0245  143.1828  155.2119 H   0  0  0  0  0  0  0  0  0  0  0  0
  144.6808  140.7350  154.3206 H   0  0  0  0  0  0  0  0  0  0  0  0
  1  2  1  0  0  0  0
  1 20  1  0  0  0  0
  1 21  1  0  0  0  0
  2  3  2  0  0  0  0
  2  4  1  0  0  0  0
  4  5  1  0  0  0  0
  4 22  1  0  0  0  0
  4 23  1  0  0  0  0
  5 19  1  0  0  0  0
  5  6  1  0  0  0  0
  5 37  1  0  0  0  0
  6  7  1  0  0  0  0
  6 24  1  0  0  0  0
  6 25  1  0  0  0  0
  7  8  1  0  0  0  0
  7 26  1  0  0  0  0
  7 27  1  0  0  0  0
  8  9  1  0  0  0  0
  8 18  1  0  0  0  0
  8 28  1  0  0  0  0
  9 10  1  0  0  0  0
  9 29  1  0  0  0  0
 10 11  2  0  0  0  0
 10 12  1  0  0  0  0
 12 13  1  0  0  0  0
 12 30  1  0  0  0  0
 13 17  1  0  0  0  0
 13 14  2  0  0  0  0
 14 15  1  0  0  0  0
 15 16  2  0  0  0  0
 15 31  1  0  0  0  0
 16 17  1  0  0  0  0
 16 32  1  0  0  0  0
 18 19  1  0  0  0  0
 18 33  1  0  0  0  0
 18 34  1  0  0  0  0
 19 35  1  0  0  0  0
 19 36  1  0  0  0  0
M  CHG  1   5   1
M  END
> <s_m_source_file>
AV-unprocessed.smi

> <i_m_source_file_index>
1213

> <i_lp_mmshare_version>
43012

> <i_f3d_flags>
0

> <s_epik_input>
W05IMl1DKD1PKVtDSDJdTjFbQ0gyXVtDSDJdW0NIXShbQ0gyXVtDSDJdMSlbTkhdQyg9TylbTkhdYzJuW2NIXVtjSF1zMg==

> <s_epik_cmdline>
J2VwaWtfcHl0aG9uJywgJy1waCcsICc3LjAnLCAnLXRuJywgJzgnLCAnLW1hJywgJzIwMCcsICctbWV0YWxfYmluZGluZycsICctaW1hZScsICc8aW5maWxlLm1hZT4nLCAnLW9tYWUnLCAnPG91dGZpbGUubWFlPic=

> <r_lp_tautomer_probability>
0.999

> <r_epik_Ionization_Penalty>
0.86253

> <r_epik_Ionization_Penalty_Charging>
0.862349

> <r_epik_Ionization_Penalty_Neutral>
0.000180085

> <r_epik_State_Penalty>
0.898939

> <r_epik_Charging_Adjusted_Penalty>
1.76129

> <i_epik_Tot_Q>
1

> <i_epik_Tot_abs_Q>
1

> <r_epik_Metal_State_Penalty>
0.948529

> <b_epik_Metal_Only>
0

> <s_lp_Force_Field>
OPLS_2005

> <r_lp_Energy>
11.1317

> <b_lp_Chiralities_Consistent>
1

> <s_lp_Variant>
AV-unprocessed.smi:1213-3

> <Gold.Version>
5.8.1

> <Gold.Id.Protein>
6NUR|6NUR_protein|mol2

> <Gold.PLP.Fitness>
43.0261

> <Gold.PLP.PLP>
-28.4913

> <Gold.PLP.part.hbond>
-4.7951

> <Gold.PLP.part.metal>
0.0000

> <Gold.PLP.part.buried>
-4.7520

> <Gold.PLP.part.nonpolar>
-20.0245

> <Gold.PLP.part.repulsive>
0.2503

> <Gold.PLP.ligand.clash>
0.0000

> <Gold.PLP.ligand.torsion>
0.1893

> <Gold.PLP.Chemscore.Hbond>
4.9600

> <Gold.PLP.Chemscore.CHOScore>
0.0000

> <Gold.PLP.Chemscore.Metal>
0.0000

> <Gold.Chemscore.Hbonds>
donor molecule, donor type, donor heavy atom, donor atom, acceptor molecule, acceptor atom, score
      L1  H     1    21       P1 10175  1.00
      L1  H     5    37       P1 10175  1.49
      L1  H     9    29       P1  8028  0.77
      L1  H    12    30       P1  8028  0.48

> <Gold.PLP.Chemscore.Internal.Correction>
0.0334

> <Gold.Rescore>
     Score         DG    S(hbond)    S(metal)    S(lipo)     H(rot)  DE(clash)    DE(int)     intcor
     17.04     -18.60       3.59        0.00      54.80       2.06       0.30       1.26       ----

> <Gold.Chemscore.Fitness>
17.0372

> <Gold.Chemscore.DG>
-18.6025

> <Gold.Chemscore.ZeroCoef>
-5.4800

> <Gold.Chemscore.Hbond>
3.5906

> <Gold.Chemscore.Metal>
0.0000

> <Gold.Chemscore.Lipo>
54.7995

> <Gold.Chemscore.Internal_Hbond>
0.0000

> <Gold.Chemscore.DEClash>
0.3006

> <Gold.Chemscore.DEInternal>
1.2646

> <Gold.Chemscore.Rot>
2.0631

> <Gold.Chemscore.Internal.Correction>
   9.000000E+99

> <Gold.Chemscore.Hbonds>
donor molecule, donor type, donor heavy atom, donor atom, acceptor molecule, acceptor atom, score
      L1  H     1    21       P1 10175  0.98
      L1  H     5    37       P1 10175  0.72
      L1  H     9    29       P1  8028  0.64
      L1  H    12    30       P1  8028  0.41

> <Gold.Chemscore.Hbond.Weighted>
-11.9925

> <Gold.Chemscore.Metal.Weighted>
-0.0000

> <Gold.Chemscore.Lipo.Weighted>
-6.4115

> <Gold.Chemscore.Internal_Hbond.Weighted>
0.0000

> <Gold.Chemscore.DEClash.Weighted>
0.3006

> <Gold.Chemscore.DEInternal.Weighted>
1.2646

> <Gold.Chemscore.Rot.Weighted>
5.2816

> <Gold.Chemscore.Internal.Correction.Weighted>
   9.000000E+99

> <Gold.Protein.RotatedTorsions>
[ 6907 6896 6895 6894 ] final -160.95 input  -60.11 | X-H torsion
[ 7974 7965 7964 7962 ] final  148.10 input  175.53 | X-H torsion
[ 8008 7997 7996 7995 ] final -146.03 input   59.86 | X-H torsion
[ 10167 10162 10161 10158 ] final   11.91 input  -65.29 | X-H torsion
[ 10718 10713 10712 10709 ] final    3.06 input   66.30 | X-H torsion
[ 10763 10752 10751 10750 ] final  153.99 input  -60.55 | X-H torsion
[ 11005 11000 10999 10996 ] final   70.50 input  -57.11 | X-H torsion

> <Gold.Protein.ActiveResidues>
 VAL166  LYS551  ARG553  GLY616  TRP617  ASP618  TYR619  PRO620  LYS621  CYS622 
 ASP623  PHE694  ASN695  SER759  ASP760  ASP761  ALA762  ILE779  LEU786  VAL792 
 PHE793  MET794  SER795  GLU796  ALA797  LYS798  CYS799  TRP800  GLU811  SER814 

> <Gold.Protein.RotatedAtoms>
  151.3571  133.3903  159.2685 H   0  0  0  0  0  0  0  0  0  0  0  0  # atno 6907 bound_to 6896
  150.9755  134.9121  159.7824 H   0  0  0  0  0  0  0  0  0  0  0  0  # atno 6908 bound_to 6896
  152.5199  134.3534  159.9311 H   0  0  0  0  0  0  0  0  0  0  0  0  # atno 6909 bound_to 6896
  144.8540  139.6112  143.5961 H   0  0  0  0  0  0  0  0  0  0  0  0  # atno 7974 bound_to 7965
  155.5528  140.0618  157.2846 H   0  0  0  0  0  0  0  0  0  0  0  0  # atno 8008 bound_to 7997
  154.4415  140.1899  156.0748 H   0  0  0  0  0  0  0  0  0  0  0  0  # atno 8009 bound_to 7997
  156.0504  140.3285  155.7348 H   0  0  0  0  0  0  0  0  0  0  0  0  # atno 8010 bound_to 7997
  140.6102  143.8425  150.7057 H   0  0  0  0  0  0  0  0  0  0  0  0  # atno 10167 bound_to 10162
  156.8722  130.5624  149.5657 H   0  0  0  0  0  0  0  0  0  0  0  0  # atno 10718 bound_to 10713
  154.1451  135.2818  155.3150 H   0  0  0  0  0  0  0  0  0  0  0  0  # atno 10763 bound_to 10752
  154.6259  135.5452  153.7629 H   0  0  0  0  0  0  0  0  0  0  0  0  # atno 10764 bound_to 10752
  153.0238  135.6450  154.1596 H   0  0  0  0  0  0  0  0  0  0  0  0  # atno 10765 bound_to 10752
  139.9594  134.7086  156.0679 H   0  0  0  0  0  0  0  0  0  0  0  0  # atno 11005 bound_to 11000
  146.2808  139.6872  142.9230 LP  0  0  0  0  0  0  0  0  0  0  0  0  # atno 17320 bound_to 7965
  145.4443  141.0424  143.2840 LP  0  0  0  0  0  0  0  0  0  0  0  0  # atno 17321 bound_to 7965
  140.1991  143.3974  152.1805 LP  0  0  0  0  0  0  0  0  0  0  0  0  # atno 17342 bound_to 10162
  139.5355  144.7205  151.4908 LP  0  0  0  0  0  0  0  0  0  0  0  0  # atno 17343 bound_to 10162
  156.0720  130.5751  150.9402 LP  0  0  0  0  0  0  0  0  0  0  0  0  # atno 17370 bound_to 10713
  157.6189  131.0931  150.8659 LP  0  0  0  0  0  0  0  0  0  0  0  0  # atno 17371 bound_to 10713
  141.1270  133.6596  156.3363 LP  0  0  0  0  0  0  0  0  0  0  0  0  # atno 17394 bound_to 11000
  140.5534  134.6005  157.5414 LP  0  0  0  0  0  0  0  0  0  0  0  0  # atno 17395 bound_to 11000

$$$$
