AV-unprocessed.smi:1679|AV-procd|sdf|6732|dock1
  -GOLD-   22720 7473D 1   1.00000     0.00000
 Structure written by MMmdl.
 45 46  0  0  0  0  0  0  0  0  1 V2000
  153.6358  141.8241  160.9353 C   0  0  0  0  0  0  0  0  0  0  0  0
  152.5482  142.4404  160.0404 C   0  0  1  0  0  0  0  0  0  0  0  0
  152.9393  143.8701  159.6169 C   0  0  0  0  0  0  0  0  0  0  0  0
  151.8665  144.5128  158.7264 C   0  0  0  0  0  0  0  0  0  0  0  0
  151.5929  143.6480  157.4896 C   0  0  0  0  0  0  0  0  0  0  0  0
  151.1978  142.2207  157.8917 C   0  0  0  0  0  0  0  0  0  0  0  0
  152.2542  141.5581  158.8050 C   0  0  2  0  0  0  0  0  0  0  0  0
  151.7510  140.3176  159.2841 O   0  0  0  0  0  0  0  0  0  0  0  0
  152.0729  139.1862  158.4861 C   0  0  0  0  0  0  0  0  0  0  0  0
  151.9661  137.9240  159.3585 C   0  0  0  0  0  0  0  0  0  0  0  0
  152.9316  137.9444  160.4528 N   0  0  0  0  0  0  0  0  0  0  0  0
  153.7453  136.9343  160.7961 C   0  0  0  0  0  0  0  0  0  0  0  0
  153.8478  135.8930  160.1482 O   0  0  0  0  0  0  0  0  0  0  0  0
  154.5545  137.1244  162.0826 C   0  0  0  0  0  0  0  0  0  0  0  0
  154.3277  136.0061  163.0083 N   0  0  0  0  0  0  0  0  0  0  0  0
  154.4628  134.6992  162.5600 C   0  0  0  0  0  0  0  0  0  0  0  0
  154.3102  133.6157  163.3576 C   0  0  0  0  0  0  0  0  0  0  0  0
  153.9871  133.7794  164.7705 C   0  0  0  0  0  0  0  0  0  0  0  0
  153.8371  132.8623  165.5744 O   0  0  0  0  0  0  0  0  0  0  0  0
  153.8580  135.1079  165.1840 N   0  0  0  0  0  0  0  0  0  0  0  0
  154.0145  136.2293  164.3674 C   0  0  0  0  0  0  0  0  0  0  0  0
  153.8866  137.3581  164.8392 O   0  0  0  0  0  0  0  0  0  0  0  0
  153.6377  135.2714  166.1557 H   0  0  0  0  0  0  0  0  0  0  0  0
  154.5780  141.7177  160.3973 H   0  0  0  0  0  0  0  0  0  0  0  0
  153.3444  140.8365  161.2936 H   0  0  0  0  0  0  0  0  0  0  0  0
  153.8216  142.4459  161.8112 H   0  0  0  0  0  0  0  0  0  0  0  0
  151.6331  142.5085  160.6310 H   0  0  0  0  0  0  0  0  0  0  0  0
  153.0958  144.4909  160.4998 H   0  0  0  0  0  0  0  0  0  0  0  0
  153.8898  143.8500  159.0822 H   0  0  0  0  0  0  0  0  0  0  0  0
  150.9456  144.6427  159.2960 H   0  0  0  0  0  0  0  0  0  0  0  0
  152.1845  145.5096  158.4202 H   0  0  0  0  0  0  0  0  0  0  0  0
  150.7994  144.0966  156.8911 H   0  0  0  0  0  0  0  0  0  0  0  0
  152.4812  143.6182  156.8573 H   0  0  0  0  0  0  0  0  0  0  0  0
  150.2435  142.2476  158.4140 H   0  0  0  0  0  0  0  0  0  0  0  0
  151.0322  141.6332  156.9894 H   0  0  0  0  0  0  0  0  0  0  0  0
  153.1818  141.4001  158.2513 H   0  0  0  0  0  0  0  0  0  0  0  0
  151.4070  139.0940  157.6293 H   0  0  0  0  0  0  0  0  0  0  0  0
  153.0830  139.2930  158.0890 H   0  0  0  0  0  0  0  0  0  0  0  0
  150.9547  137.8139  159.7521 H   0  0  0  0  0  0  0  0  0  0  0  0
  152.1668  137.0407  158.7520 H   0  0  0  0  0  0  0  0  0  0  0  0
  152.9243  138.7627  161.0443 H   0  0  0  0  0  0  0  0  0  0  0  0
  155.6125  137.2217  161.8324 H   0  0  0  0  0  0  0  0  0  0  0  0
  154.2870  138.0706  162.5566 H   0  0  0  0  0  0  0  0  0  0  0  0
  154.7113  134.5307  161.5216 H   0  0  0  0  0  0  0  0  0  0  0  0
  154.4334  132.6231  162.9489 H   0  0  0  0  0  0  0  0  0  0  0  0
  1  2  1  0  0  0  0
  1 24  1  0  0  0  0
  1 25  1  0  0  0  0
  1 26  1  0  0  0  0
  2  7  1  0  0  0  0
  2  3  1  0  0  0  0
  2 27  1  0  0  0  0
  3  4  1  0  0  0  0
  3 28  1  0  0  0  0
  3 29  1  0  0  0  0
  4  5  1  0  0  0  0
  4 30  1  0  0  0  0
  4 31  1  0  0  0  0
  5  6  1  0  0  0  0
  5 32  1  0  0  0  0
  5 33  1  0  0  0  0
  6  7  1  0  0  0  0
  6 34  1  0  0  0  0
  6 35  1  0  0  0  0
  7  8  1  0  0  0  0
  7 36  1  0  0  0  0
  8  9  1  0  0  0  0
  9 10  1  0  0  0  0
  9 37  1  0  0  0  0
  9 38  1  0  0  0  0
 10 11  1  0  0  0  0
 10 39  1  0  0  0  0
 10 40  1  0  0  0  0
 11 12  1  0  0  0  0
 11 41  1  0  0  0  0
 12 13  2  0  0  0  0
 12 14  1  0  0  0  0
 14 15  1  0  0  0  0
 14 42  1  0  0  0  0
 14 43  1  0  0  0  0
 15 21  1  0  0  0  0
 15 16  1  0  0  0  0
 16 17  2  0  0  0  0
 16 44  1  0  0  0  0
 17 18  1  0  0  0  0
 17 45  1  0  0  0  0
 18 19  2  0  0  0  0
 18 20  1  0  0  0  0
 20 23  1  0  0  0  0
 20 21  1  0  0  0  0
 21 22  2  0  0  0  0
M  END
> <s_m_source_file>
AV-unprocessed.smi

> <i_m_source_file_index>
1679

> <i_lp_mmshare_version>
43012

> <i_f3d_flags>
0

> <s_epik_input>
W0NIM11bQ0BASF0xW0NIMl1bQ0gyXVtDSDJdW0NIMl1bQ0BIXTFPW0NIMl1bQ0gyXVtOSF1DKD1PKVtDSDJdbjJbY0hdW2NIXWMoPU8pW25IXWMyPU8=

> <s_epik_cmdline>
J2VwaWtfcHl0aG9uJywgJy1waCcsICc3LjAnLCAnLXRuJywgJzgnLCAnLW1hJywgJzIwMCcsICctbWV0YWxfYmluZGluZycsICctaW1hZScsICc8aW5maWxlLm1hZT4nLCAnLW9tYWUnLCAnPG91dGZpbGUubWFlPic=

> <r_lp_tautomer_probability>
0.999537

> <r_epik_Ionization_Penalty>
0.0033132

> <r_epik_Ionization_Penalty_Charging>
0.00331317

> <r_epik_Ionization_Penalty_Neutral>
2.78599e-08

> <r_epik_State_Penalty>
0.002342

> <r_epik_Charging_Adjusted_Penalty>
0.00565517

> <i_epik_Tot_Q>
0

> <i_epik_Tot_abs_Q>
0

> <r_epik_Metal_State_Penalty>
0.365595

> <b_epik_Metal_Only>
0

> <s_lp_Force_Field>
OPLS_2005

> <r_lp_Energy>
10.1003

> <b_lp_Chiralities_Consistent>
1

> <s_lp_Variant>
AV-unprocessed.smi:1679-4

> <Gold.Version>
5.8.1

> <Gold.Id.Protein>
6NUR|6NUR_protein|mol2

> <Gold.PLP.Fitness>
48.2037

> <Gold.PLP.PLP>
-46.4078

> <Gold.PLP.part.hbond>
-2.1732

> <Gold.PLP.part.metal>
0.0000

> <Gold.PLP.part.buried>
-5.8341

> <Gold.PLP.part.nonpolar>
-38.6892

> <Gold.PLP.part.repulsive>
0.3684

> <Gold.PLP.ligand.clash>
0.0000

> <Gold.PLP.ligand.torsion>
0.7181

> <Gold.PLP.Chemscore.Hbond>
1.0000

> <Gold.PLP.Chemscore.CHOScore>
0.0000

> <Gold.PLP.Chemscore.Metal>
0.0000

> <Gold.Chemscore.Hbonds>
donor molecule, donor type, donor heavy atom, donor atom, acceptor molecule, acceptor atom, score
      P1  H  6896  6909       L1    13  1.00

> <Gold.PLP.Chemscore.Internal.Correction>
0.2320

> <Gold.Rescore>
     Score         DG    S(hbond)    S(metal)    S(lipo)     H(rot)  DE(clash)    DE(int)     intcor
     12.02     -14.12       0.97        0.00     101.27       2.52       0.19       1.91       ----

> <Gold.Chemscore.Fitness>
12.0233

> <Gold.Chemscore.DG>
-14.1239

> <Gold.Chemscore.ZeroCoef>
-5.4800

> <Gold.Chemscore.Hbond>
0.9708

> <Gold.Chemscore.Metal>
0.0000

> <Gold.Chemscore.Lipo>
101.2698

> <Gold.Chemscore.Internal_Hbond>
0.0000

> <Gold.Chemscore.DEClash>
0.1905

> <Gold.Chemscore.DEInternal>
1.9101

> <Gold.Chemscore.Rot>
2.5185

> <Gold.Chemscore.Internal.Correction>
   9.000000E+99

> <Gold.Chemscore.Hbonds>
donor molecule, donor type, donor heavy atom, donor atom, acceptor molecule, acceptor atom, score
      P1  H  6896  6909       L1    13  0.99

> <Gold.Chemscore.Hbond.Weighted>
-3.2425

> <Gold.Chemscore.Metal.Weighted>
-0.0000

> <Gold.Chemscore.Lipo.Weighted>
-11.8486

> <Gold.Chemscore.Internal_Hbond.Weighted>
0.0000

> <Gold.Chemscore.DEClash.Weighted>
0.1905

> <Gold.Chemscore.DEInternal.Weighted>
1.9101

> <Gold.Chemscore.Rot.Weighted>
6.4472

> <Gold.Chemscore.Internal.Correction.Weighted>
   9.000000E+99

> <Gold.Protein.RotatedTorsions>
[ 6907 6896 6895 6894 ] final  179.30 input  -60.11 | X-H torsion
[ 7974 7965 7964 7962 ] final  -47.59 input  175.53 | X-H torsion
[ 8008 7997 7996 7995 ] final   39.00 input   59.86 | X-H torsion
[ 10167 10162 10161 10158 ] final -157.00 input  -65.29 | X-H torsion
[ 10718 10713 10712 10709 ] final  168.81 input   66.30 | X-H torsion
[ 10763 10752 10751 10750 ] final  -68.86 input  -60.55 | X-H torsion
[ 11005 11000 10999 10996 ] final  -19.74 input  -57.11 | X-H torsion

> <Gold.Protein.ActiveResidues>
 VAL166  LYS551  ARG553  GLY616  TRP617  ASP618  TYR619  PRO620  LYS621  CYS622 
 ASP623  PHE694  ASN695  SER759  ASP760  ASP761  ALA762  ILE779  LEU786  VAL792 
 PHE793  MET794  SER795  GLU796  ALA797  LYS798  CYS799  TRP800  GLU811  SER814 

> <Gold.Protein.RotatedAtoms>
  151.6739  133.3313  159.3202 H   0  0  0  0  0  0  0  0  0  0  0  0  # atno 6907 bound_to 6896
  150.7854  134.6838  159.6468 H   0  0  0  0  0  0  0  0  0  0  0  0  # atno 6908 bound_to 6896
  152.3923  134.6425  160.0155 H   0  0  0  0  0  0  0  0  0  0  0  0  # atno 6909 bound_to 6896
  145.9600  140.7488  142.9462 H   0  0  0  0  0  0  0  0  0  0  0  0  # atno 7974 bound_to 7965
  155.2293  140.3337  155.4305 H   0  0  0  0  0  0  0  0  0  0  0  0  # atno 8008 bound_to 7997
  156.2301  140.1847  156.7310 H   0  0  0  0  0  0  0  0  0  0  0  0  # atno 8009 bound_to 7997
  154.5964  140.0630  156.9294 H   0  0  0  0  0  0  0  0  0  0  0  0  # atno 8010 bound_to 7997
  139.6805  143.9589  152.2334 H   0  0  0  0  0  0  0  0  0  0  0  0  # atno 10167 bound_to 10162
  157.0317  131.0261  151.2742 H   0  0  0  0  0  0  0  0  0  0  0  0  # atno 10718 bound_to 10713
  154.3952  135.6044  153.5865 H   0  0  0  0  0  0  0  0  0  0  0  0  # atno 10763 bound_to 10752
  152.9787  135.5893  154.4250 H   0  0  0  0  0  0  0  0  0  0  0  0  # atno 10764 bound_to 10752
  154.4041  135.2843  155.2056 H   0  0  0  0  0  0  0  0  0  0  0  0  # atno 10765 bound_to 10752
  140.8397  133.7936  155.9847 H   0  0  0  0  0  0  0  0  0  0  0  0  # atno 11005 bound_to 11000
  144.6813  140.2575  143.7323 LP  0  0  0  0  0  0  0  0  0  0  0  0  # atno 17320 bound_to 7965
  145.8053  139.1981  143.2024 LP  0  0  0  0  0  0  0  0  0  0  0  0  # atno 17321 bound_to 7965
  139.9378  144.6701  150.8297 LP  0  0  0  0  0  0  0  0  0  0  0  0  # atno 17342 bound_to 10162
  140.7650  143.3265  151.2504 LP  0  0  0  0  0  0  0  0  0  0  0  0  # atno 17343 bound_to 10162
  157.5172  130.7975  149.7770 LP  0  0  0  0  0  0  0  0  0  0  0  0  # atno 17370 bound_to 10713
  156.0067  130.3852  150.2405 LP  0  0  0  0  0  0  0  0  0  0  0  0  # atno 17371 bound_to 10713
  140.8909  134.2496  157.5095 LP  0  0  0  0  0  0  0  0  0  0  0  0  # atno 17394 bound_to 11000
  139.8703  134.9661  156.4550 LP  0  0  0  0  0  0  0  0  0  0  0  0  # atno 17395 bound_to 11000

$$$$
