AV-unprocessed.smi:2007|AV-procd|sdf|8133|dock4
  -GOLD-   2272010363D 1   1.00000     0.00000
 Structure written by MMmdl.
 36 37  0  0  0  0  0  0  0  0  1 V2000
  145.8797  142.9812  160.3387 C   0  0  0  0  0  0  0  0  0  0  0  0
  146.0127  144.4343  159.8638 C   0  0  2  0  0  0  0  0  0  0  0  0
  144.8883  144.7984  158.8690 C   0  0  0  0  0  0  0  0  0  0  0  0
  144.9413  146.1544  158.3209 N   0  0  0  0  0  0  0  0  0  0  0  0
  144.3914  146.2025  156.9711 C   0  0  0  0  0  0  0  0  0  0  0  0
  144.4598  147.6198  156.3763 C   0  0  0  0  0  0  0  0  0  0  0  0
  143.7754  148.5294  157.2316 O   0  0  0  0  0  0  0  0  0  0  0  0
  144.3046  148.5440  158.5536 C   0  0  0  0  0  0  0  0  0  0  0  0
  144.2375  147.1287  159.1528 C   0  0  0  0  0  0  0  0  0  0  0  0
  147.3218  144.6104  159.2368 N   0  0  0  0  0  0  0  0  0  0  0  0
  148.5050  144.3101  159.7935 C   0  0  0  0  0  0  0  0  0  0  0  0
  148.6254  143.8043  160.9096 O   0  0  0  0  0  0  0  0  0  0  0  0
  149.5220  144.6364  158.9769 N   0  0  0  0  0  0  0  0  0  0  0  0
  150.9154  144.5344  159.2281 C   0  0  0  0  0  0  0  0  0  0  0  0
  151.4522  143.8320  160.2330 N   0  0  0  0  0  0  0  0  0  0  0  0
  152.8465  143.9168  160.2465 C   0  0  0  0  0  0  0  0  0  0  0  0
  153.3590  144.6928  159.2366 C   0  0  0  0  0  0  0  0  0  0  0  0
  152.1028  145.3527  158.2233 S   0  0  0  0  0  0  0  0  0  0  0  0
  144.9232  142.8185  160.8360 H   0  0  0  0  0  0  0  0  0  0  0  0
  146.6664  142.7265  161.0496 H   0  0  0  0  0  0  0  0  0  0  0  0
  145.9440  142.2813  159.5047 H   0  0  0  0  0  0  0  0  0  0  0  0
  145.9365  145.0607  160.7531 H   0  0  0  0  0  0  0  0  0  0  0  0
  144.9311  144.0831  158.0462 H   0  0  0  0  0  0  0  0  0  0  0  0
  143.9190  144.6409  159.3448 H   0  0  0  0  0  0  0  0  0  0  0  0
  144.9380  145.5156  156.3239 H   0  0  0  0  0  0  0  0  0  0  0  0
  143.3543  145.8640  156.9811 H   0  0  0  0  0  0  0  0  0  0  0  0
  145.4965  147.9367  156.2519 H   0  0  0  0  0  0  0  0  0  0  0  0
  143.9972  147.6406  155.3895 H   0  0  0  0  0  0  0  0  0  0  0  0
  145.3338  148.9070  158.5382 H   0  0  0  0  0  0  0  0  0  0  0  0
  143.7279  149.2412  159.1613 H   0  0  0  0  0  0  0  0  0  0  0  0
  143.1933  146.8334  159.2659 H   0  0  0  0  0  0  0  0  0  0  0  0
  144.6634  147.1559  160.1545 H   0  0  0  0  0  0  0  0  0  0  0  0
  147.3260  145.0208  158.3147 H   0  0  0  0  0  0  0  0  0  0  0  0
  149.2708  145.0259  158.0805 H   0  0  0  0  0  0  0  0  0  0  0  0
  153.3968  143.3919  161.0133 H   0  0  0  0  0  0  0  0  0  0  0  0
  154.3950  144.9159  159.0295 H   0  0  0  0  0  0  0  0  0  0  0  0
  1  2  1  0  0  0  0
  1 19  1  0  0  0  0
  1 20  1  0  0  0  0
  1 21  1  0  0  0  0
  2  3  1  0  0  0  0
  2 10  1  0  0  0  0
  2 22  1  0  0  0  0
  3  4  1  0  0  0  0
  3 23  1  0  0  0  0
  3 24  1  0  0  0  0
  4  9  1  0  0  0  0
  4  5  1  0  0  0  0
  5  6  1  0  0  0  0
  5 25  1  0  0  0  0
  5 26  1  0  0  0  0
  6  7  1  0  0  0  0
  6 27  1  0  0  0  0
  6 28  1  0  0  0  0
  7  8  1  0  0  0  0
  8  9  1  0  0  0  0
  8 29  1  0  0  0  0
  8 30  1  0  0  0  0
  9 31  1  0  0  0  0
  9 32  1  0  0  0  0
 10 11  1  0  0  0  0
 10 33  1  0  0  0  0
 11 12  2  0  0  0  0
 11 13  1  0  0  0  0
 13 14  1  0  0  0  0
 13 34  1  0  0  0  0
 14 18  1  0  0  0  0
 14 15  2  0  0  0  0
 15 16  1  0  0  0  0
 16 17  2  0  0  0  0
 16 35  1  0  0  0  0
 17 18  1  0  0  0  0
 17 36  1  0  0  0  0
M  END
> <s_m_source_file>
AV-unprocessed.smi

> <i_m_source_file_index>
2007

> <i_lp_mmshare_version>
43012

> <i_f3d_flags>
0

> <s_epik_input>
W0NIMl0xW0NIMl1PW0NIMl1bQ0gyXU4xW0NIMl1bQ0BASF0oW0NIM10pW05IXUMoPU8pW05IXWMybltjSF1bY0hdczI=

> <s_epik_cmdline>
J2VwaWtfcHl0aG9uJywgJy1waCcsICc3LjAnLCAnLXRuJywgJzgnLCAnLW1hJywgJzIwMCcsICctbWV0YWxfYmluZGluZycsICctaW1hZScsICc8aW5maWxlLm1hZT4nLCAnLW9tYWUnLCAnPG91dGZpbGUubWFlPic=

> <r_lp_tautomer_probability>
0.999

> <r_epik_Ionization_Penalty>
0.219197

> <r_epik_Ionization_Penalty_Charging>
0

> <r_epik_Ionization_Penalty_Neutral>
0.219197

> <r_epik_State_Penalty>
0.209349

> <r_epik_Charging_Adjusted_Penalty>
0.209349

> <i_epik_Tot_Q>
0

> <i_epik_Tot_abs_Q>
0

> <r_epik_Metal_State_Penalty>
0.254604

> <b_epik_Metal_Only>
0

> <s_lp_Force_Field>
OPLS_2005

> <r_lp_Energy>
23.8142

> <b_lp_Chiralities_Consistent>
1

> <s_lp_Variant>
AV-unprocessed.smi:2007-1

> <Gold.Version>
5.8.1

> <Gold.Id.Protein>
6NUR|6NUR_protein|mol2

> <Gold.PLP.Fitness>
52.4558

> <Gold.PLP.PLP>
-44.9870

> <Gold.PLP.part.hbond>
-4.3723

> <Gold.PLP.part.metal>
0.0000

> <Gold.PLP.part.buried>
-9.4072

> <Gold.PLP.part.nonpolar>
-33.3476

> <Gold.PLP.part.repulsive>
0.8026

> <Gold.PLP.ligand.clash>
0.0000

> <Gold.PLP.ligand.torsion>
0.4449

> <Gold.PLP.Chemscore.Hbond>
2.7760

> <Gold.PLP.Chemscore.CHOScore>
0.0000

> <Gold.PLP.Chemscore.Metal>
0.0000

> <Gold.Chemscore.Hbonds>
donor molecule, donor type, donor heavy atom, donor atom, acceptor molecule, acceptor atom, score
      L1  H    10    33       P1  8029  0.89
      L1  H    13    34       P1  8029  0.82
      P1  H  6933  6944       L1    12  0.84

> <Gold.PLP.Chemscore.Internal.Correction>
0.0305

> <Gold.Rescore>
     Score         DG    S(hbond)    S(metal)    S(lipo)     H(rot)  DE(clash)    DE(int)     intcor
     19.70     -21.47       2.89        0.00      88.65       1.58       0.00       1.77       ----

> <Gold.Chemscore.Fitness>
19.6965

> <Gold.Chemscore.DG>
-21.4691

> <Gold.Chemscore.ZeroCoef>
-5.4800

> <Gold.Chemscore.Hbond>
2.8946

> <Gold.Chemscore.Metal>
0.0000

> <Gold.Chemscore.Lipo>
88.6525

> <Gold.Chemscore.Internal_Hbond>
0.0000

> <Gold.Chemscore.DEClash>
0.0015

> <Gold.Chemscore.DEInternal>
1.7712

> <Gold.Chemscore.Rot>
1.5825

> <Gold.Chemscore.Internal.Correction>
   9.000000E+99

> <Gold.Chemscore.Hbonds>
donor molecule, donor type, donor heavy atom, donor atom, acceptor molecule, acceptor atom, score
      L1  H    10    33       P1  8029  0.84
      L1  H    13    34       P1  8029  0.24
      P1  H  6933  6944       L1    12  0.78

> <Gold.Chemscore.Hbond.Weighted>
-9.6680

> <Gold.Chemscore.Metal.Weighted>
-0.0000

> <Gold.Chemscore.Lipo.Weighted>
-10.3723

> <Gold.Chemscore.Internal_Hbond.Weighted>
0.0000

> <Gold.Chemscore.DEClash.Weighted>
0.0015

> <Gold.Chemscore.DEInternal.Weighted>
1.7712

> <Gold.Chemscore.Rot.Weighted>
4.0512

> <Gold.Chemscore.Internal.Correction.Weighted>
   9.000000E+99

> <Gold.Protein.RotatedTorsions>
[ 6907 6896 6895 6894 ] final  137.39 input  -60.11 | X-H torsion
[ 7974 7965 7964 7962 ] final   99.45 input  175.53 | X-H torsion
[ 8008 7997 7996 7995 ] final   23.96 input   59.86 | X-H torsion
[ 10167 10162 10161 10158 ] final -135.19 input  -65.29 | X-H torsion
[ 10718 10713 10712 10709 ] final -131.94 input   66.30 | X-H torsion
[ 10763 10752 10751 10750 ] final -164.90 input  -60.55 | X-H torsion
[ 11005 11000 10999 10996 ] final  171.12 input  -57.11 | X-H torsion

> <Gold.Protein.ActiveResidues>
 VAL166  LYS551  ARG553  GLY616  TRP617  ASP618  TYR619  PRO620  LYS621  CYS622 
 ASP623  PHE694  ASN695  SER759  ASP760  ASP761  ALA762  ILE779  LEU786  VAL792 
 PHE793  MET794  SER795  GLU796  ALA797  LYS798  CYS799  TRP800  GLU811  SER814 

> <Gold.Protein.RotatedAtoms>
  152.2786  133.5449  159.5483 H   0  0  0  0  0  0  0  0  0  0  0  0  # atno 6907 bound_to 6896
  150.7187  134.0596  159.3835 H   0  0  0  0  0  0  0  0  0  0  0  0  # atno 6908 bound_to 6896
  151.8508  135.0558  160.0509 H   0  0  0  0  0  0  0  0  0  0  0  0  # atno 6909 bound_to 6896
  145.3987  139.2351  143.3312 H   0  0  0  0  0  0  0  0  0  0  0  0  # atno 7974 bound_to 7965
  154.9889  140.3111  155.4915 H   0  0  0  0  0  0  0  0  0  0  0  0  # atno 8008 bound_to 7997
  156.2943  140.2253  156.4932 H   0  0  0  0  0  0  0  0  0  0  0  0  # atno 8009 bound_to 7997
  154.7721  140.0451  157.1048 H   0  0  0  0  0  0  0  0  0  0  0  0  # atno 8010 bound_to 7997
  139.8803  143.6847  152.2628 H   0  0  0  0  0  0  0  0  0  0  0  0  # atno 10167 bound_to 10162
  156.2295  130.7029  151.0843 H   0  0  0  0  0  0  0  0  0  0  0  0  # atno 10718 bound_to 10713
  154.6984  135.2983  154.9378 H   0  0  0  0  0  0  0  0  0  0  0  0  # atno 10763 bound_to 10752
  154.0318  135.6669  153.4785 H   0  0  0  0  0  0  0  0  0  0  0  0  # atno 10764 bound_to 10752
  153.0663  135.5086  154.8114 H   0  0  0  0  0  0  0  0  0  0  0  0  # atno 10765 bound_to 10752
  140.3156  134.7480  157.4025 H   0  0  0  0  0  0  0  0  0  0  0  0  # atno 11005 bound_to 11000
  146.2762  140.4681  142.8794 LP  0  0  0  0  0  0  0  0  0  0  0  0  # atno 17320 bound_to 7965
  144.8389  140.6826  143.6242 LP  0  0  0  0  0  0  0  0  0  0  0  0  # atno 17321 bound_to 7965
  139.7202  144.7604  151.0968 LP  0  0  0  0  0  0  0  0  0  0  0  0  # atno 17342 bound_to 10162
  140.7745  143.5218  150.9528 LP  0  0  0  0  0  0  0  0  0  0  0  0  # atno 17343 bound_to 10162
  157.7126  131.0726  150.6444 LP  0  0  0  0  0  0  0  0  0  0  0  0  # atno 17370 bound_to 10713
  156.6511  130.4485  149.5719 LP  0  0  0  0  0  0  0  0  0  0  0  0  # atno 17371 bound_to 10713
  140.0987  134.5503  155.8374 LP  0  0  0  0  0  0  0  0  0  0  0  0  # atno 17394 bound_to 11000
  141.2098  133.6688  156.6467 LP  0  0  0  0  0  0  0  0  0  0  0  0  # atno 17395 bound_to 11000

$$$$
