AV-unprocessed.smi:3176|AV-procd|sdf|12126|dock9
  -GOLD-   2272017563D 1   1.00000     0.00000
 Structure written by MMmdl.
 33 34  0  0  0  0  0  0  0  0  2 V2000
  153.0148  138.6693  155.3888 O   0  0  0  0  0  0  0  0  0  0  0  0
  151.7857  138.7126  155.3310 C   0  0  0  0  0  0  0  0  0  0  0  0
  151.0680  139.7420  155.8078 N   0  0  0  0  0  0  0  0  0  0  0  0
  151.6241  140.9302  156.4430 C   0  0  0  0  0  0  0  0  0  0  0  0
  150.5195  141.8228  157.0316 C   0  0  0  0  0  0  0  0  0  0  0  0
  151.0676  142.8463  158.0065 C   0  0  0  0  0  0  0  0  0  0  0  0
  151.8475  142.4759  159.1235 C   0  0  0  0  0  0  0  0  0  0  0  0
  152.3202  143.4781  159.9964 C   0  0  0  0  0  0  0  0  0  0  0  0
  152.0030  144.8271  159.7347 C   0  0  0  0  0  0  0  0  0  0  0  0
  151.2179  145.1403  158.6063 C   0  0  0  0  0  0  0  0  0  0  0  0
  150.7827  144.1517  157.7943 N   0  3  0  0  0  0  0  0  0  0  0  0
  151.0056  137.5455  154.7111 C   0  0  2  0  0  0  0  0  0  0  0  0
  149.4990  137.7854  154.6156 C   0  0  0  0  0  0  0  0  0  0  0  0
  148.9744  136.3685  154.5310 C   0  0  0  0  0  0  0  0  0  0  0  0
  149.9335  135.5989  155.4383 C   0  0  0  0  0  0  0  0  0  0  0  0
  151.1259  136.3766  155.5193 O   0  0  0  0  0  0  0  0  0  0  0  0
  150.0630  139.6962  155.7158 H   0  0  0  0  0  0  0  0  0  0  0  0
  152.3398  140.6415  157.2148 H   0  0  0  0  0  0  0  0  0  0  0  0
  152.1860  141.4836  155.6900 H   0  0  0  0  0  0  0  0  0  0  0  0
  149.9919  142.3411  156.2300 H   0  0  0  0  0  0  0  0  0  0  0  0
  149.7744  141.2136  157.5453 H   0  0  0  0  0  0  0  0  0  0  0  0
  152.0801  141.4377  159.3119 H   0  0  0  0  0  0  0  0  0  0  0  0
  152.9181  143.2145  160.8568 H   0  0  0  0  0  0  0  0  0  0  0  0
  152.3559  145.6096  160.3908 H   0  0  0  0  0  0  0  0  0  0  0  0
  150.9271  146.1435  158.3307 H   0  0  0  0  0  0  0  0  0  0  0  0
  151.4104  137.3250  153.7221 H   0  0  0  0  0  0  0  0  0  0  0  0
  149.1203  138.2749  155.5147 H   0  0  0  0  0  0  0  0  0  0  0  0
  149.2183  138.3878  153.7511 H   0  0  0  0  0  0  0  0  0  0  0  0
  147.9323  136.2779  154.8382 H   0  0  0  0  0  0  0  0  0  0  0  0
  149.0592  136.0042  153.5060 H   0  0  0  0  0  0  0  0  0  0  0  0
  149.5188  135.4973  156.4417 H   0  0  0  0  0  0  0  0  0  0  0  0
  150.1409  134.5992  155.0558 H   0  0  0  0  0  0  0  0  0  0  0  0
  150.2152  144.4014  156.9837 H   0  0  0  0  0  0  0  0  0  0  0  0
  1  2  2  0  0  0  0
  2  3  1  0  0  0  0
  2 12  1  0  0  0  0
  3  4  1  0  0  0  0
  3 17  1  0  0  0  0
  4  5  1  0  0  0  0
  4 18  1  0  0  0  0
  4 19  1  0  0  0  0
  5  6  1  0  0  0  0
  5 20  1  0  0  0  0
  5 21  1  0  0  0  0
  6 11  1  0  0  0  0
  6  7  2  0  0  0  0
  7  8  1  0  0  0  0
  7 22  1  0  0  0  0
  8  9  2  0  0  0  0
  8 23  1  0  0  0  0
  9 10  1  0  0  0  0
  9 24  1  0  0  0  0
 10 11  2  0  0  0  0
 10 25  1  0  0  0  0
 11 33  1  0  0  0  0
 12 16  1  0  0  0  0
 12 13  1  0  0  0  0
 12 26  1  0  0  0  0
 13 14  1  0  0  0  0
 13 27  1  0  0  0  0
 13 28  1  0  0  0  0
 14 15  1  0  0  0  0
 14 29  1  0  0  0  0
 14 30  1  0  0  0  0
 15 16  1  0  0  0  0
 15 31  1  0  0  0  0
 15 32  1  0  0  0  0
M  CHG  1  11   1
M  END
> <s_m_source_file>
AV-unprocessed.smi

> <i_m_source_file_index>
3176

> <i_lp_mmshare_version>
43012

> <i_f3d_flags>
0

> <s_epik_input>
TzFbQ0gyXVtDSDJdW0NIMl1bQ0BIXTFDKD1PKVtOSF1bQ0gyXVtDSDJdYzJbY0hdW2NIXVtjSF1bY0hdbjI=

> <s_epik_cmdline>
J2VwaWtfcHl0aG9uJywgJy1waCcsICc3LjAnLCAnLXRuJywgJzgnLCAnLW1hJywgJzIwMCcsICctbWV0YWxfYmluZGluZycsICctaW1hZScsICc8aW5maWxlLm1hZT4nLCAnLW9tYWUnLCAnPG91dGZpbGUubWFlPic=

> <r_epik_Ionization_Penalty>
1.81664

> <r_epik_Ionization_Penalty_Charging>
1.81664

> <r_epik_Ionization_Penalty_Neutral>
5.71603e-08

> <r_epik_State_Penalty>
1.93152

> <r_epik_Charging_Adjusted_Penalty>
3.74817

> <i_epik_Tot_Q>
1

> <i_epik_Tot_abs_Q>
1

> <r_epik_Metal_State_Penalty>
1.95876

> <b_epik_Metal_Only>
0

> <s_lp_Force_Field>
OPLS_2005

> <r_lp_Energy>
22.4632

> <b_lp_Chiralities_Consistent>
1

> <s_lp_Variant>
AV-unprocessed.smi:3176-3

> <Gold.Version>
5.8.1

> <Gold.Id.Protein>
6NUR|6NUR_protein|mol2

> <Gold.PLP.Fitness>
46.4351

> <Gold.PLP.PLP>
-34.7994

> <Gold.PLP.part.hbond>
-3.3029

> <Gold.PLP.part.metal>
0.0000

> <Gold.PLP.part.buried>
-5.6301

> <Gold.PLP.part.nonpolar>
-26.4934

> <Gold.PLP.part.repulsive>
0.2394

> <Gold.PLP.ligand.clash>
0.0000

> <Gold.PLP.ligand.torsion>
0.1882

> <Gold.PLP.Chemscore.Hbond>
4.0000

> <Gold.PLP.Chemscore.CHOScore>
0.0000

> <Gold.PLP.Chemscore.Metal>
0.0000

> <Gold.Chemscore.Hbonds>
donor molecule, donor type, donor heavy atom, donor atom, acceptor molecule, acceptor atom, score
      L1  H    11    33       P1  8028  2.00
      P1  H  7997  8010       L1     1  0.65
      P1  H 10752 10765       L1    16  0.67

> <Gold.PLP.Chemscore.Internal.Correction>
0.0122

> <Gold.Rescore>
     Score         DG    S(hbond)    S(metal)    S(lipo)     H(rot)  DE(clash)    DE(int)     intcor
     19.31     -19.57       2.35        0.00      88.43       1.61       0.05       0.21       ----

> <Gold.Chemscore.Fitness>
19.3068

> <Gold.Chemscore.DG>
-19.5694

> <Gold.Chemscore.ZeroCoef>
-5.4800

> <Gold.Chemscore.Hbond>
2.3512

> <Gold.Chemscore.Metal>
0.0000

> <Gold.Chemscore.Lipo>
88.4299

> <Gold.Chemscore.Internal_Hbond>
0.0000

> <Gold.Chemscore.DEClash>
0.0502

> <Gold.Chemscore.DEInternal>
0.2124

> <Gold.Chemscore.Rot>
1.6054

> <Gold.Chemscore.Internal.Correction>
   9.000000E+99

> <Gold.Chemscore.Hbonds>
donor molecule, donor type, donor heavy atom, donor atom, acceptor molecule, acceptor atom, score
      L1  H    11    33       P1  8028  0.82
      P1  H  7997  8010       L1     1  0.62
      P1  H 10752 10765       L1    16  0.19

> <Gold.Chemscore.Hbond.Weighted>
-7.8529

> <Gold.Chemscore.Metal.Weighted>
-0.0000

> <Gold.Chemscore.Lipo.Weighted>
-10.3463

> <Gold.Chemscore.Internal_Hbond.Weighted>
0.0000

> <Gold.Chemscore.DEClash.Weighted>
0.0502

> <Gold.Chemscore.DEInternal.Weighted>
0.2124

> <Gold.Chemscore.Rot.Weighted>
4.1097

> <Gold.Chemscore.Internal.Correction.Weighted>
   9.000000E+99

> <Gold.Protein.RotatedTorsions>
[ 6907 6896 6895 6894 ] final -110.17 input  -60.11 | X-H torsion
[ 7974 7965 7964 7962 ] final   46.23 input  175.53 | X-H torsion
[ 8008 7997 7996 7995 ] final  108.48 input   59.86 | X-H torsion
[ 10167 10162 10161 10158 ] final   89.59 input  -65.29 | X-H torsion
[ 10718 10713 10712 10709 ] final  135.67 input   66.30 | X-H torsion
[ 10763 10752 10751 10750 ] final -169.00 input  -60.55 | X-H torsion
[ 11005 11000 10999 10996 ] final  -36.18 input  -57.11 | X-H torsion

> <Gold.Protein.ActiveResidues>
 VAL166  LYS551  ARG553  GLY616  TRP617  ASP618  TYR619  PRO620  LYS621  CYS622 
 ASP623  PHE694  ASN695  SER759  ASP760  ASP761  ALA762  ILE779  LEU786  VAL792 
 PHE793  MET794  SER795  GLU796  ALA797  LYS798  CYS799  TRP800  GLU811  SER814 

> <Gold.Protein.RotatedAtoms>
  150.7608  133.9421  159.3458 H   0  0  0  0  0  0  0  0  0  0  0  0  # atno 6907 bound_to 6896
  151.7330  135.0869  160.0312 H   0  0  0  0  0  0  0  0  0  0  0  0  # atno 6908 bound_to 6896
  152.3578  133.6221  159.6028 H   0  0  0  0  0  0  0  0  0  0  0  0  # atno 6909 bound_to 6896
  146.0408  139.4878  142.9779 H   0  0  0  0  0  0  0  0  0  0  0  0  # atno 7974 bound_to 7965
  156.1906  140.3075  155.9326 H   0  0  0  0  0  0  0  0  0  0  0  0  # atno 8008 bound_to 7997
  155.3181  140.0454  157.3055 H   0  0  0  0  0  0  0  0  0  0  0  0  # atno 8009 bound_to 7997
  154.5448  140.2273  155.8590 H   0  0  0  0  0  0  0  0  0  0  0  0  # atno 8010 bound_to 7997
  139.8558  144.6570  150.9116 H   0  0  0  0  0  0  0  0  0  0  0  0  # atno 10167 bound_to 10162
  157.4546  131.1069  150.9993 H   0  0  0  0  0  0  0  0  0  0  0  0  # atno 10718 bound_to 10713
  154.6570  135.2919  154.9915 H   0  0  0  0  0  0  0  0  0  0  0  0  # atno 10763 bound_to 10752
  154.0988  135.6580  153.4868 H   0  0  0  0  0  0  0  0  0  0  0  0  # atno 10764 bound_to 10752
  153.0408  135.5237  154.7503 H   0  0  0  0  0  0  0  0  0  0  0  0  # atno 10765 bound_to 10752
  140.9855  133.7033  156.1757 H   0  0  0  0  0  0  0  0  0  0  0  0  # atno 11005 bound_to 11000
  145.6887  141.0170  143.1567 LP  0  0  0  0  0  0  0  0  0  0  0  0  # atno 17320 bound_to 7965
  144.7074  139.8507  143.7426 LP  0  0  0  0  0  0  0  0  0  0  0  0  # atno 17321 bound_to 7965
  140.7782  143.3787  151.1515 LP  0  0  0  0  0  0  0  0  0  0  0  0  # atno 17342 bound_to 10162
  139.7422  143.8908  152.3053 LP  0  0  0  0  0  0  0  0  0  0  0  0  # atno 17343 bound_to 10162
  157.0811  130.5903  149.5420 LP  0  0  0  0  0  0  0  0  0  0  0  0  # atno 17370 bound_to 10713
  156.0002  130.5079  150.7633 LP  0  0  0  0  0  0  0  0  0  0  0  0  # atno 17371 bound_to 10713
  140.7121  134.4450  157.5581 LP  0  0  0  0  0  0  0  0  0  0  0  0  # atno 17394 bound_to 11000
  139.8968  134.8650  156.2070 LP  0  0  0  0  0  0  0  0  0  0  0  0  # atno 17395 bound_to 11000

$$$$
