AV-unprocessed.smi:1278|AV-procd|sdf|5350|dock3
  -GOLD-   22720 4483D 1   1.00000     0.00000
 Structure written by MMmdl.
 39 40  0  0  0  0  0  0  0  0  2 V2000
  146.2783  136.9372  151.1151 C   0  0  0  0  0  0  0  0  0  0  0  0
  145.8547  137.8513  152.2734 C   0  0  1  0  0  0  0  0  0  0  0  0
  145.6911  137.0596  153.5817 C   0  0  0  0  0  0  0  0  0  0  0  0
  145.2948  138.0003  154.7259 C   0  0  0  0  0  0  0  0  0  0  0  0
  146.3013  139.1532  154.8632 C   0  0  0  0  0  0  0  0  0  0  0  0
  146.4346  139.9030  153.5874 N   0  3  1  0  0  0  0  0  0  0  0  0
  147.2946  141.1042  153.7327 C   0  0  0  0  0  0  0  0  0  0  0  0
  148.7165  140.7563  154.2157 C   0  0  0  0  0  0  0  0  0  0  0  0
  149.2179  141.7456  155.1630 N   0  0  0  0  0  0  0  0  0  0  0  0
  149.9690  141.4627  156.2373 C   0  0  0  0  0  0  0  0  0  0  0  0
  150.3217  140.3201  156.5316 O   0  0  0  0  0  0  0  0  0  0  0  0
  150.2770  142.5749  156.9274 N   0  0  0  0  0  0  0  0  0  0  0  0
  151.0634  142.6862  158.1043 C   0  0  0  0  0  0  0  0  0  0  0  0
  151.4533  141.6470  158.8516 N   0  0  0  0  0  0  0  0  0  0  0  0
  152.2186  142.0482  159.9495 C   0  0  0  0  0  0  0  0  0  0  0  0
  152.4035  143.4063  160.0228 C   0  0  0  0  0  0  0  0  0  0  0  0
  151.6196  144.2405  158.7075 S   0  0  0  0  0  0  0  0  0  0  0  0
  146.8511  139.0115  152.4713 C   0  0  0  0  0  0  0  0  0  0  0  0
  147.2451  136.4716  151.3097 H   0  0  0  0  0  0  0  0  0  0  0  0
  146.3597  137.4958  150.1822 H   0  0  0  0  0  0  0  0  0  0  0  0
  145.5509  136.1400  150.9585 H   0  0  0  0  0  0  0  0  0  0  0  0
  144.8851  138.2803  152.0149 H   0  0  0  0  0  0  0  0  0  0  0  0
  144.9355  136.2822  153.4625 H   0  0  0  0  0  0  0  0  0  0  0  0
  146.6242  136.5525  153.8310 H   0  0  0  0  0  0  0  0  0  0  0  0
  144.2978  138.4032  154.5416 H   0  0  0  0  0  0  0  0  0  0  0  0
  145.2353  137.4437  155.6617 H   0  0  0  0  0  0  0  0  0  0  0  0
  145.9658  139.8245  155.6547 H   0  0  0  0  0  0  0  0  0  0  0  0
  147.2770  138.7690  155.1651 H   0  0  0  0  0  0  0  0  0  0  0  0
  147.3731  141.5985  152.7635 H   0  0  0  0  0  0  0  0  0  0  0  0
  146.8208  141.8216  154.4048 H   0  0  0  0  0  0  0  0  0  0  0  0
  148.7314  139.7911  154.7205 H   0  0  0  0  0  0  0  0  0  0  0  0
  149.3994  140.6751  153.3682 H   0  0  0  0  0  0  0  0  0  0  0  0
  148.9692  142.7095  154.9940 H   0  0  0  0  0  0  0  0  0  0  0  0
  149.9110  143.4443  156.5681 H   0  0  0  0  0  0  0  0  0  0  0  0
  152.5932  141.2981  160.6301 H   0  0  0  0  0  0  0  0  0  0  0  0
  152.9517  143.9637  160.7678 H   0  0  0  0  0  0  0  0  0  0  0  0
  147.8503  138.6213  152.6727 H   0  0  0  0  0  0  0  0  0  0  0  0
  146.9172  139.5796  151.5441 H   0  0  0  0  0  0  0  0  0  0  0  0
  145.5092  140.2420  153.3658 H   0  0  0  0  0  0  0  0  0  0  0  0
  1  2  1  0  0  0  0
  1 19  1  0  0  0  0
  1 20  1  0  0  0  0
  1 21  1  0  0  0  0
  2 18  1  0  0  0  0
  2  3  1  0  0  0  0
  2 22  1  0  0  0  0
  3  4  1  0  0  0  0
  3 23  1  0  0  0  0
  3 24  1  0  0  0  0
  4  5  1  0  0  0  0
  4 25  1  0  0  0  0
  4 26  1  0  0  0  0
  5  6  1  0  0  0  0
  5 27  1  0  0  0  0
  5 28  1  0  0  0  0
  6  7  1  0  0  0  0
  6 18  1  0  0  0  0
  6 39  1  0  0  0  0
  7  8  1  0  0  0  0
  7 29  1  0  0  0  0
  7 30  1  0  0  0  0
  8  9  1  0  0  0  0
  8 31  1  0  0  0  0
  8 32  1  0  0  0  0
  9 10  1  0  0  0  0
  9 33  1  0  0  0  0
 10 11  2  0  0  0  0
 10 12  1  0  0  0  0
 12 13  1  0  0  0  0
 12 34  1  0  0  0  0
 13 17  1  0  0  0  0
 13 14  2  0  0  0  0
 14 15  1  0  0  0  0
 15 16  2  0  0  0  0
 15 35  1  0  0  0  0
 16 17  1  0  0  0  0
 16 36  1  0  0  0  0
 18 37  1  0  0  0  0
 18 38  1  0  0  0  0
M  CHG  1   6   1
M  END
> <s_m_source_file>
AV-unprocessed.smi

> <i_m_source_file_index>
1278

> <i_lp_mmshare_version>
43012

> <i_f3d_flags>
0

> <s_epik_input>
W0NIM11bQ0BASF0xW0NIMl1bQ0gyXVtDSDJdTihbQ0gyXTEpW0NIMl1bQ0gyXVtOSF1DKD1PKVtOSF1jMm5bY0hdW2NIXXMy

> <s_epik_cmdline>
J2VwaWtfcHl0aG9uJywgJy1waCcsICc3LjAnLCAnLXRuJywgJzgnLCAnLW1hJywgJzIwMCcsICctbWV0YWxfYmluZGluZycsICctaW1hZScsICc8aW5maWxlLm1hZT4nLCAnLW9tYWUnLCAnPG91dGZpbGUubWFlPic=

> <r_lp_tautomer_probability>
0.999

> <r_epik_Ionization_Penalty>
0.00222194

> <r_epik_Ionization_Penalty_Charging>
0.00208169

> <r_epik_Ionization_Penalty_Neutral>
0.000140251

> <r_epik_State_Penalty>
0.00142585

> <r_epik_Charging_Adjusted_Penalty>
0.00350754

> <i_epik_Tot_Q>
1

> <i_epik_Tot_abs_Q>
1

> <r_epik_Metal_State_Penalty>
0.0570424

> <b_epik_Metal_Only>
0

> <s_lp_Force_Field>
OPLS_2005

> <r_lp_Energy>
13.7049

> <b_lp_Chiralities_Consistent>
1

> <s_lp_Variant>
AV-unprocessed.smi:1278-4

> <Gold.Version>
5.8.1

> <Gold.Id.Protein>
6NUR|6NUR_protein|mol2

> <Gold.PLP.Fitness>
45.5274

> <Gold.PLP.PLP>
-34.9375

> <Gold.PLP.part.hbond>
-3.0000

> <Gold.PLP.part.metal>
0.0000

> <Gold.PLP.part.buried>
-0.0367

> <Gold.PLP.part.nonpolar>
-32.5851

> <Gold.PLP.part.repulsive>
0.3270

> <Gold.PLP.ligand.clash>
0.0000

> <Gold.PLP.ligand.torsion>
0.4788

> <Gold.PLP.Chemscore.Hbond>
3.8406

> <Gold.PLP.Chemscore.CHOScore>
0.0000

> <Gold.PLP.Chemscore.Metal>
0.0000

> <Gold.Chemscore.Hbonds>
donor molecule, donor type, donor heavy atom, donor atom, acceptor molecule, acceptor atom, score
      L1  H     6    39       P1 10175  1.92
      L1  H     9    33       P1  8028  0.81
      L1  H    12    34       P1  8028  1.00

> <Gold.PLP.Chemscore.Internal.Correction>
0.0258

> <Gold.Rescore>
     Score         DG    S(hbond)    S(metal)    S(lipo)     H(rot)  DE(clash)    DE(int)     intcor
     17.90     -20.26       2.88        0.00      79.16       1.60       0.58       1.78       ----

> <Gold.Chemscore.Fitness>
17.8962

> <Gold.Chemscore.DG>
-20.2567

> <Gold.Chemscore.ZeroCoef>
-5.4800

> <Gold.Chemscore.Hbond>
2.8775

> <Gold.Chemscore.Metal>
0.0000

> <Gold.Chemscore.Lipo>
79.1629

> <Gold.Chemscore.Internal_Hbond>
0.0000

> <Gold.Chemscore.DEClash>
0.5780

> <Gold.Chemscore.DEInternal>
1.7826

> <Gold.Chemscore.Rot>
1.6001

> <Gold.Chemscore.Internal.Correction>
   9.000000E+99

> <Gold.Chemscore.Hbonds>
donor molecule, donor type, donor heavy atom, donor atom, acceptor molecule, acceptor atom, score
      L1  H     6    39       P1 10175  0.91
      L1  H     9    33       P1  8028  0.77
      L1  H    12    34       P1  8028  1.00

> <Gold.Chemscore.Hbond.Weighted>
-9.6110

> <Gold.Chemscore.Metal.Weighted>
-0.0000

> <Gold.Chemscore.Lipo.Weighted>
-9.2621

> <Gold.Chemscore.Internal_Hbond.Weighted>
0.0000

> <Gold.Chemscore.DEClash.Weighted>
0.5780

> <Gold.Chemscore.DEInternal.Weighted>
1.7826

> <Gold.Chemscore.Rot.Weighted>
4.0963

> <Gold.Chemscore.Internal.Correction.Weighted>
   9.000000E+99

> <Gold.Protein.RotatedTorsions>
[ 6907 6896 6895 6894 ] final  -32.54 input  -60.11 | X-H torsion
[ 7974 7965 7964 7962 ] final  166.93 input  175.53 | X-H torsion
[ 8008 7997 7996 7995 ] final -134.47 input   59.86 | X-H torsion
[ 10167 10162 10161 10158 ] final  -94.75 input  -65.29 | X-H torsion
[ 10718 10713 10712 10709 ] final  116.84 input   66.30 | X-H torsion
[ 10763 10752 10751 10750 ] final   97.18 input  -60.55 | X-H torsion
[ 11005 11000 10999 10996 ] final  151.79 input  -57.11 | X-H torsion

> <Gold.Protein.ActiveResidues>
 VAL166  LYS551  ARG553  GLY616  TRP617  ASP618  TYR619  PRO620  LYS621  CYS622 
 ASP623  PHE694  ASN695  SER759  ASP760  ASP761  ALA762  ILE779  LEU786  VAL792 
 PHE793  MET794  SER795  GLU796  ALA797  LYS798  CYS799  TRP800  GLU811  SER814 

> <Gold.Protein.RotatedAtoms>
  151.0775  134.9837  159.8338 H   0  0  0  0  0  0  0  0  0  0  0  0  # atno 6907 bound_to 6896
  152.5416  134.2223  159.8802 H   0  0  0  0  0  0  0  0  0  0  0  0  # atno 6908 bound_to 6896
  151.2251  133.4437  159.2635 H   0  0  0  0  0  0  0  0  0  0  0  0  # atno 6909 bound_to 6896
  144.7443  139.8687  143.6387 H   0  0  0  0  0  0  0  0  0  0  0  0  # atno 7974 bound_to 7965
  155.3627  140.0483  157.3046 H   0  0  0  0  0  0  0  0  0  0  0  0  # atno 8008 bound_to 7997
  154.5170  140.2212  155.9011 H   0  0  0  0  0  0  0  0  0  0  0  0  # atno 8009 bound_to 7997
  156.1647  140.3109  155.8874 H   0  0  0  0  0  0  0  0  0  0  0  0  # atno 8010 bound_to 7997
  140.3112  143.3104  152.0146 H   0  0  0  0  0  0  0  0  0  0  0  0  # atno 10167 bound_to 10162
  157.6135  131.1030  150.7529 H   0  0  0  0  0  0  0  0  0  0  0  0  # atno 10718 bound_to 10713
  153.2738  135.4192  155.1013 H   0  0  0  0  0  0  0  0  0  0  0  0  # atno 10763 bound_to 10752
  154.8465  135.3478  154.6207 H   0  0  0  0  0  0  0  0  0  0  0  0  # atno 10764 bound_to 10752
  153.6627  135.7047  153.5229 H   0  0  0  0  0  0  0  0  0  0  0  0  # atno 10765 bound_to 10752
  140.1250  134.8839  157.2125 H   0  0  0  0  0  0  0  0  0  0  0  0  # atno 11005 bound_to 11000
  146.1296  139.4329  143.0177 LP  0  0  0  0  0  0  0  0  0  0  0  0  # atno 17320 bound_to 7965
  145.7183  141.0083  143.1416 LP  0  0  0  0  0  0  0  0  0  0  0  0  # atno 17321 bound_to 7965
  139.4893  144.6383  151.6930 LP  0  0  0  0  0  0  0  0  0  0  0  0  # atno 17342 bound_to 10162
  140.5567  144.0337  150.6151 LP  0  0  0  0  0  0  0  0  0  0  0  0  # atno 17343 bound_to 10162
  156.7902  130.4887  149.5386 LP  0  0  0  0  0  0  0  0  0  0  0  0  # atno 17370 bound_to 10713
  156.1247  130.6135  151.0246 LP  0  0  0  0  0  0  0  0  0  0  0  0  # atno 17371 bound_to 10713
  140.2916  134.3234  155.7313 LP  0  0  0  0  0  0  0  0  0  0  0  0  # atno 17394 bound_to 11000
  141.2159  133.7538  156.9511 LP  0  0  0  0  0  0  0  0  0  0  0  0  # atno 17395 bound_to 11000

$$$$
