AV-unprocessed.smi:2317|AV-procd|sdf|9274|dock7
  -GOLD-   2272012493D 1   1.00000     0.00000
 Structure written by MMmdl.
 37 38  0  0  0  0  0  0  0  0  1 V2000
  145.6164  138.3970  153.3804 O   0  0  0  0  0  0  0  0  0  0  0  0
  146.6058  137.8363  152.9102 C   0  0  0  0  0  0  0  0  0  0  0  0
  146.5411  136.7136  152.1791 N   0  0  0  0  0  0  0  0  0  0  0  0
  145.3153  136.0122  151.8052 C   0  0  0  0  0  0  0  0  0  0  0  0
  145.5910  134.6513  151.1212 C   0  0  1  0  0  0  0  0  0  0  0  0
  145.9343  133.5492  152.1519 C   0  0  0  0  0  0  0  0  0  0  0  0
  146.1616  132.1804  151.4920 C   0  0  0  0  0  0  0  0  0  0  0  0
  144.9471  131.7606  150.6549 C   0  0  0  0  0  0  0  0  0  0  0  0
  144.6212  132.8271  149.6017 C   0  0  0  0  0  0  0  0  0  0  0  0
  144.3894  134.2050  150.2493 C   0  0  2  0  0  0  0  0  0  0  0  0
  144.1619  135.1345  149.2084 O   0  0  0  0  0  0  0  0  0  0  0  0
  147.8792  138.2373  153.0673 N   0  0  0  0  0  0  0  0  0  0  0  0
  148.3858  139.3740  153.7564 C   0  0  0  0  0  0  0  0  0  0  0  0
  147.7632  140.6461  153.7701 C   0  0  0  0  0  0  0  0  0  0  0  0
  148.3819  141.6933  154.4821 C   0  0  0  0  0  0  0  0  0  0  0  0
  149.5460  141.5535  155.1504 N   0  0  0  0  0  0  0  0  0  0  0  0
  150.1429  140.3435  155.1256 C   0  0  0  0  0  0  0  0  0  0  0  0
  149.6093  139.2308  154.4449 C   0  0  0  0  0  0  0  0  0  0  0  0
  150.2638  138.0444  154.4571 F   0  0  0  0  0  0  0  0  0  0  0  0
  147.4069  136.3181  151.8426 H   0  0  0  0  0  0  0  0  0  0  0  0
  144.6613  135.8754  152.6680 H   0  0  0  0  0  0  0  0  0  0  0  0
  144.7761  136.6712  151.1247 H   0  0  0  0  0  0  0  0  0  0  0  0
  146.4556  134.7720  150.4662 H   0  0  0  0  0  0  0  0  0  0  0  0
  146.8305  133.8164  152.7115 H   0  0  0  0  0  0  0  0  0  0  0  0
  145.1290  133.4687  152.8832 H   0  0  0  0  0  0  0  0  0  0  0  0
  147.0482  132.2221  150.8579 H   0  0  0  0  0  0  0  0  0  0  0  0
  146.3630  131.4291  152.2560 H   0  0  0  0  0  0  0  0  0  0  0  0
  145.1413  130.8039  150.1693 H   0  0  0  0  0  0  0  0  0  0  0  0
  144.0848  131.6099  151.3058 H   0  0  0  0  0  0  0  0  0  0  0  0
  145.4422  132.8868  148.8854 H   0  0  0  0  0  0  0  0  0  0  0  0
  143.7387  132.5258  149.0360 H   0  0  0  0  0  0  0  0  0  0  0  0
  143.4905  134.1627  150.8659 H   0  0  0  0  0  0  0  0  0  0  0  0
  144.9578  135.2248  148.7072 H   0  0  0  0  0  0  0  0  0  0  0  0
  148.5835  137.6287  152.6769 H   0  0  0  0  0  0  0  0  0  0  0  0
  146.8411  140.8464  153.2479 H   0  0  0  0  0  0  0  0  0  0  0  0
  147.9304  142.6739  154.5097 H   0  0  0  0  0  0  0  0  0  0  0  0
  151.0759  140.2598  155.6628 H   0  0  0  0  0  0  0  0  0  0  0  0
  1  2  2  0  0  0  0
  2  3  1  0  0  0  0
  2 12  1  0  0  0  0
  3  4  1  0  0  0  0
  3 20  1  0  0  0  0
  4  5  1  0  0  0  0
  4 21  1  0  0  0  0
  4 22  1  0  0  0  0
  5 10  1  0  0  0  0
  5  6  1  0  0  0  0
  5 23  1  0  0  0  0
  6  7  1  0  0  0  0
  6 24  1  0  0  0  0
  6 25  1  0  0  0  0
  7  8  1  0  0  0  0
  7 26  1  0  0  0  0
  7 27  1  0  0  0  0
  8  9  1  0  0  0  0
  8 28  1  0  0  0  0
  8 29  1  0  0  0  0
  9 10  1  0  0  0  0
  9 30  1  0  0  0  0
  9 31  1  0  0  0  0
 10 11  1  0  0  0  0
 10 32  1  0  0  0  0
 11 33  1  0  0  0  0
 12 13  1  0  0  0  0
 12 34  1  0  0  0  0
 13 18  1  0  0  0  0
 13 14  2  0  0  0  0
 14 15  1  0  0  0  0
 14 35  1  0  0  0  0
 15 16  2  0  0  0  0
 15 36  1  0  0  0  0
 16 17  1  0  0  0  0
 17 18  2  0  0  0  0
 17 37  1  0  0  0  0
 18 19  1  0  0  0  0
M  END
> <s_m_source_file>
AV-unprocessed.smi

> <i_m_source_file_index>
2317

> <i_lp_mmshare_version>
43012

> <i_f3d_flags>
0

> <s_epik_input>
RmMxW2NIXW5bY0hdW2NIXWMxW05IXUMoPU8pW05IXVtDSDJdW0NAQEhdMltDSDJdW0NIMl1bQ0gyXVtDSDJdW0NASF0yW09IXQ==

> <s_epik_cmdline>
J2VwaWtfcHl0aG9uJywgJy1waCcsICc3LjAnLCAnLXRuJywgJzgnLCAnLW1hJywgJzIwMCcsICctbWV0YWxfYmluZGluZycsICctaW1hZScsICc8aW5maWxlLm1hZT4nLCAnLW9tYWUnLCAnPG91dGZpbGUubWFlPic=

> <r_epik_Ionization_Penalty>
0.00317647

> <r_epik_Ionization_Penalty_Charging>
0

> <r_epik_Ionization_Penalty_Neutral>
0.00317647

> <r_epik_State_Penalty>
0.0022093

> <r_epik_Charging_Adjusted_Penalty>
0.0022093

> <i_epik_Tot_Q>
0

> <i_epik_Tot_abs_Q>
0

> <r_epik_Metal_State_Penalty>
-0

> <b_epik_Metal_Only>
0

> <s_lp_Force_Field>
OPLS_2005

> <r_lp_Energy>
17.8728

> <b_lp_Chiralities_Consistent>
1

> <s_lp_Variant>
AV-unprocessed.smi:2317-4

> <Gold.Version>
5.8.1

> <Gold.Id.Protein>
6NUR|6NUR_protein|mol2

> <Gold.PLP.Fitness>
46.3288

> <Gold.PLP.PLP>
-35.5495

> <Gold.PLP.part.hbond>
-4.0726

> <Gold.PLP.part.metal>
0.0000

> <Gold.PLP.part.buried>
-2.1966

> <Gold.PLP.part.nonpolar>
-30.6109

> <Gold.PLP.part.repulsive>
0.9295

> <Gold.PLP.ligand.clash>
0.0000

> <Gold.PLP.ligand.torsion>
0.5062

> <Gold.PLP.Chemscore.Hbond>
2.9920

> <Gold.PLP.Chemscore.CHOScore>
0.9372

> <Gold.PLP.Chemscore.Metal>
0.0000

> <Gold.Chemscore.Hbonds>
donor molecule, donor type, donor heavy atom, donor atom, acceptor molecule, acceptor atom, score
      L1  H     3    20       P1  7948  0.98
      L1  H    11    33       P1  7921  1.00
      L1  H    12    34       P1  7948  0.99
      L1  C    15    36       P1  8028  0.94

> <Gold.PLP.Chemscore.Internal.Correction>
0.0039

> <Gold.Rescore>
     Score         DG    S(hbond)    S(metal)    S(lipo)     H(rot)  DE(clash)    DE(int)     intcor
     19.38     -20.04       2.92        0.00      80.20       1.79       0.06       0.59       ----

> <Gold.Chemscore.Fitness>
19.3797

> <Gold.Chemscore.DG>
-20.0359

> <Gold.Chemscore.ZeroCoef>
-5.4800

> <Gold.Chemscore.Hbond>
2.9169

> <Gold.Chemscore.Metal>
0.0000

> <Gold.Chemscore.Lipo>
80.2037

> <Gold.Chemscore.Internal_Hbond>
0.0000

> <Gold.Chemscore.DEClash>
0.0630

> <Gold.Chemscore.DEInternal>
0.5931

> <Gold.Chemscore.Rot>
1.7853

> <Gold.Chemscore.Internal.Correction>
   9.000000E+99

> <Gold.Chemscore.Hbonds>
donor molecule, donor type, donor heavy atom, donor atom, acceptor molecule, acceptor atom, score
      L1  H     3    20       P1  7948  0.90
      L1  H    11    33       P1  7921  0.99
      L1  H    12    34       P1  7948  0.94

> <Gold.Chemscore.Hbond.Weighted>
-9.7425

> <Gold.Chemscore.Metal.Weighted>
-0.0000

> <Gold.Chemscore.Lipo.Weighted>
-9.3838

> <Gold.Chemscore.Internal_Hbond.Weighted>
0.0000

> <Gold.Chemscore.DEClash.Weighted>
0.0630

> <Gold.Chemscore.DEInternal.Weighted>
0.5931

> <Gold.Chemscore.Rot.Weighted>
4.5704

> <Gold.Chemscore.Internal.Correction.Weighted>
   9.000000E+99

> <Gold.Protein.RotatedTorsions>
[ 6907 6896 6895 6894 ] final   -0.79 input  -60.11 | X-H torsion
[ 7974 7965 7964 7962 ] final  134.67 input  175.53 | X-H torsion
[ 8008 7997 7996 7995 ] final  143.30 input   59.86 | X-H torsion
[ 10167 10162 10161 10158 ] final  -92.63 input  -65.29 | X-H torsion
[ 10718 10713 10712 10709 ] final  -37.96 input   66.30 | X-H torsion
[ 10763 10752 10751 10750 ] final  150.83 input  -60.55 | X-H torsion
[ 11005 11000 10999 10996 ] final   71.35 input  -57.11 | X-H torsion

> <Gold.Protein.ActiveResidues>
 VAL166  LYS551  ARG553  GLY616  TRP617  ASP618  TYR619  PRO620  LYS621  CYS622 
 ASP623  PHE694  ASN695  SER759  ASP760  ASP761  ALA762  ILE779  LEU786  VAL792 
 PHE793  MET794  SER795  GLU796  ALA797  LYS798  CYS799  TRP800  GLU811  SER814 

> <Gold.Protein.RotatedAtoms>
  151.5565  135.1066  159.9962 H   0  0  0  0  0  0  0  0  0  0  0  0  # atno 6907 bound_to 6896
  152.4467  133.7545  159.6723 H   0  0  0  0  0  0  0  0  0  0  0  0  # atno 6908 bound_to 6896
  150.8384  133.7908  159.3094 H   0  0  0  0  0  0  0  0  0  0  0  0  # atno 6909 bound_to 6896
  144.9741  139.4574  143.5419 H   0  0  0  0  0  0  0  0  0  0  0  0  # atno 7974 bound_to 7965
  156.2933  140.2266  156.4868 H   0  0  0  0  0  0  0  0  0  0  0  0  # atno 8008 bound_to 7997
  154.7805  140.0460  157.1144 H   0  0  0  0  0  0  0  0  0  0  0  0  # atno 8009 bound_to 7997
  154.9764  140.3073  155.4968 H   0  0  0  0  0  0  0  0  0  0  0  0  # atno 8010 bound_to 7997
  140.3328  143.2985  151.9922 H   0  0  0  0  0  0  0  0  0  0  0  0  # atno 10167 bound_to 10162
  156.3092  130.4250  149.8067 H   0  0  0  0  0  0  0  0  0  0  0  0  # atno 10718 bound_to 10713
  154.0938  135.2850  155.3266 H   0  0  0  0  0  0  0  0  0  0  0  0  # atno 10763 bound_to 10752
  154.6602  135.5337  153.8011 H   0  0  0  0  0  0  0  0  0  0  0  0  # atno 10764 bound_to 10752
  153.0403  135.6532  154.1106 H   0  0  0  0  0  0  0  0  0  0  0  0  # atno 10765 bound_to 10752
  139.9548  134.7163  156.0778 H   0  0  0  0  0  0  0  0  0  0  0  0  # atno 11005 bound_to 11000
  146.3390  139.8971  142.8800 LP  0  0  0  0  0  0  0  0  0  0  0  0  # atno 17320 bound_to 7965
  145.2516  141.0046  143.3877 LP  0  0  0  0  0  0  0  0  0  0  0  0  # atno 17321 bound_to 7965
  139.4853  144.6221  151.7236 LP  0  0  0  0  0  0  0  0  0  0  0  0  # atno 17342 bound_to 10162
  140.5381  144.0623  150.6078 LP  0  0  0  0  0  0  0  0  0  0  0  0  # atno 17343 bound_to 10162
  156.5417  130.8302  151.3271 LP  0  0  0  0  0  0  0  0  0  0  0  0  # atno 17370 bound_to 10713
  157.7387  130.9818  150.2267 LP  0  0  0  0  0  0  0  0  0  0  0  0  # atno 17371 bound_to 10713
  141.1217  133.6611  156.3233 LP  0  0  0  0  0  0  0  0  0  0  0  0  # atno 17394 bound_to 11000
  140.5635  134.5911  157.5439 LP  0  0  0  0  0  0  0  0  0  0  0  0  # atno 17395 bound_to 11000

$$$$
