AV-unprocessed.smi:265|AV-procd|sdf|2029|dock6
  -GOLD-   2262021233D 1   1.00000     0.00000
 Structure written by MMmdl.
 52 56  0  0  0  0  0  0  0  0  1 V2000
  146.1318  135.9254  153.5549 C   0  0  0  0  0  0  0  0  0  0  0  0
  146.2073  137.1682  154.4554 C   0  0  2  0  0  0  0  0  0  0  0  0
  145.1759  137.1584  155.4413 O   0  0  0  0  0  0  0  0  0  0  0  0
  144.5636  138.4397  155.5349 C   0  0  0  0  0  0  0  0  0  0  0  0
  145.5299  139.4009  154.8503 C   0  0  0  0  0  0  0  0  0  0  0  0
  146.1277  138.5390  153.7466 C   0  0  2  0  0  0  0  0  0  0  0  0
  145.2058  138.4850  152.6706 O   0  0  0  0  0  0  0  0  0  0  0  0
  147.4578  139.0632  153.1452 C   0  0  0  0  0  0  0  0  0  0  0  0
  148.3472  139.7159  154.0935 N   0  0  0  0  0  0  0  0  0  0  0  0
  148.3297  141.0423  154.4657 C   0  0  0  0  0  0  0  0  0  0  0  0
  149.2377  141.3903  155.3366 N   0  0  0  0  0  0  0  0  0  0  0  0
  149.9462  140.2184  155.5669 C   0  0  0  0  0  0  0  0  0  0  0  0
  151.0532  139.8804  156.3872 C   0  0  0  0  0  0  0  0  0  0  0  0
  151.6564  140.7886  157.1824 N   0  0  0  0  0  0  0  0  0  0  0  0
  152.4397  140.1916  158.2650 C   0  0  0  0  0  0  0  0  0  0  0  0
  153.2615  141.2612  159.0096 C   0  0  0  0  0  0  0  0  0  0  0  0
  152.3360  142.3893  159.4861 C   0  0  1  0  0  0  0  0  0  0  0  0
  153.0583  143.4549  160.0844 O   0  0  0  0  0  0  0  0  0  0  0  0
  152.2168  144.4488  160.6805 C   0  0  0  0  0  0  0  0  0  0  0  0
  151.0530  144.8791  159.7616 C   0  0  0  0  0  0  0  0  0  0  0  0
  150.3976  145.8825  160.0336 O   0  0  0  0  0  0  0  0  0  0  0  0
  150.7631  144.1074  158.7010 N   0  0  0  0  0  0  0  0  0  0  0  0
  151.5928  142.9865  158.2804 C   0  0  2  0  0  0  0  0  0  0  0  0
  150.7788  141.8917  157.5723 C   0  0  0  0  0  0  0  0  0  0  0  0
  151.5026  138.5984  156.3587 N   0  0  0  0  0  0  0  0  0  0  0  0
  150.9019  137.7006  155.5709 C   0  0  0  0  0  0  0  0  0  0  0  0
  149.8596  137.8710  154.7538 N   0  0  0  0  0  0  0  0  0  0  0  0
  149.4078  139.1581  154.7865 C   0  0  0  0  0  0  0  0  0  0  0  0
  151.6284  141.9798  160.2106 H   0  0  0  0  0  0  0  0  0  0  0  0
  152.3240  143.3855  157.5748 H   0  0  0  0  0  0  0  0  0  0  0  0
  146.9208  135.9394  152.8028 H   0  0  0  0  0  0  0  0  0  0  0  0
  145.1740  135.8592  153.0387 H   0  0  0  0  0  0  0  0  0  0  0  0
  146.2508  135.0152  154.1425 H   0  0  0  0  0  0  0  0  0  0  0  0
  147.1305  137.1137  155.0301 H   0  0  0  0  0  0  0  0  0  0  0  0
  143.6109  138.4118  155.0047 H   0  0  0  0  0  0  0  0  0  0  0  0
  144.3655  138.7123  156.5717 H   0  0  0  0  0  0  0  0  0  0  0  0
  145.0464  140.3081  154.4859 H   0  0  0  0  0  0  0  0  0  0  0  0
  146.2900  139.6954  155.5727 H   0  0  0  0  0  0  0  0  0  0  0  0
  144.6447  139.2439  152.7164 H   0  0  0  0  0  0  0  0  0  0  0  0
  148.0053  138.2393  152.6847 H   0  0  0  0  0  0  0  0  0  0  0  0
  147.2493  139.7714  152.3421 H   0  0  0  0  0  0  0  0  0  0  0  0
  147.6118  141.7477  154.0730 H   0  0  0  0  0  0  0  0  0  0  0  0
  151.7687  139.6906  158.9645 H   0  0  0  0  0  0  0  0  0  0  0  0
  153.1063  139.4290  157.8599 H   0  0  0  0  0  0  0  0  0  0  0  0
  153.7817  140.8138  159.8568 H   0  0  0  0  0  0  0  0  0  0  0  0
  154.0284  141.6642  158.3467 H   0  0  0  0  0  0  0  0  0  0  0  0
  151.8011  144.0566  161.6094 H   0  0  0  0  0  0  0  0  0  0  0  0
  152.8224  145.3173  160.9404 H   0  0  0  0  0  0  0  0  0  0  0  0
  149.9811  144.3605  158.1146 H   0  0  0  0  0  0  0  0  0  0  0  0
  150.2904  142.3027  156.6874 H   0  0  0  0  0  0  0  0  0  0  0  0
  149.9931  141.5204  158.2323 H   0  0  0  0  0  0  0  0  0  0  0  0
  151.3140  136.7027  155.6002 H   0  0  0  0  0  0  0  0  0  0  0  0
  1  2  1  0  0  0  0
  1 31  1  0  0  0  0
  1 32  1  0  0  0  0
  1 33  1  0  0  0  0
  2  6  1  0  0  0  0
  2  3  1  0  0  0  0
  2 34  1  0  0  0  0
  3  4  1  0  0  0  0
  4  5  1  0  0  0  0
  4 35  1  0  0  0  0
  4 36  1  0  0  0  0
  5  6  1  0  0  0  0
  5 37  1  0  0  0  0
  5 38  1  0  0  0  0
  6  7  1  0  0  0  0
  6  8  1  0  0  0  0
  7 39  1  0  0  0  0
  8  9  1  0  0  0  0
  8 40  1  0  0  0  0
  8 41  1  0  0  0  0
  9 28  1  0  0  0  0
  9 10  1  0  0  0  0
 10 11  2  0  0  0  0
 10 42  1  0  0  0  0
 11 12  1  0  0  0  0
 12 28  2  0  0  0  0
 12 13  1  0  0  0  0
 13 14  1  0  0  0  0
 13 25  2  0  0  0  0
 14 24  1  0  0  0  0
 14 15  1  0  0  0  0
 15 16  1  0  0  0  0
 15 43  1  0  0  0  0
 15 44  1  0  0  0  0
 16 17  1  0  0  0  0
 16 45  1  0  0  0  0
 16 46  1  0  0  0  0
 17 29  1  0  0  0  0
 17 23  1  0  0  0  0
 17 18  1  0  0  0  0
 18 19  1  0  0  0  0
 19 20  1  0  0  0  0
 19 47  1  0  0  0  0
 19 48  1  0  0  0  0
 20 21  2  0  0  0  0
 20 22  1  0  0  0  0
 22 23  1  0  0  0  0
 22 49  1  0  0  0  0
 23 30  1  0  0  0  0
 23 24  1  0  0  0  0
 24 50  1  0  0  0  0
 24 51  1  0  0  0  0
 25 26  1  0  0  0  0
 26 27  2  0  0  0  0
 26 52  1  0  0  0  0
 27 28  1  0  0  0  0
M  END
> <s_m_source_file>
AV-unprocessed.smi

> <i_m_source_file_index>
265

> <i_lp_mmshare_version>
43012

> <i_f3d_flags>
0

> <s_epik_input>
W0NIMl0xW0NIMl1PW0NAQEhdKFtDSDNdKVtDQEBdMShbT0hdKVtDSDJdbihbY0hdbjIpYyhjMjMpbltjSF1uYzNOKFtDSDJdW0NIMl00KVtDSDJdW0NAQEhdKFtDQEhdNDUpW05IXUMoPU8pW0NIMl1PNQ==

> <s_epik_cmdline>
J2VwaWtfcHl0aG9uJywgJy1waCcsICc3LjAnLCAnLXRuJywgJzgnLCAnLW1hJywgJzIwMCcsICctbWV0YWxfYmluZGluZycsICctaW1hZScsICc8aW5maWxlLm1hZT4nLCAnLW9tYWUnLCAnPG91dGZpbGUubWFlPic=

> <r_lp_tautomer_probability>
1

> <r_epik_Ionization_Penalty>
0.00221504

> <r_epik_Ionization_Penalty_Charging>
0

> <r_epik_Ionization_Penalty_Neutral>
0.00221504

> <r_epik_State_Penalty>
-0

> <r_epik_Charging_Adjusted_Penalty>
0

> <i_epik_Tot_Q>
0

> <i_epik_Tot_abs_Q>
0

> <r_epik_Metal_State_Penalty>
-0

> <b_epik_Metal_Only>
0

> <s_lp_Force_Field>
OPLS_2005

> <r_lp_Energy>
49.142

> <b_lp_Chiralities_Consistent>
1

> <s_lp_Variant>
AV-unprocessed.smi:265-15

> <Gold.Version>
5.8.1

> <Gold.Id.Protein>
6NUR|6NUR_protein|mol2

> <Gold.PLP.Fitness>
35.5560

> <Gold.PLP.PLP>
-35.3836

> <Gold.PLP.part.hbond>
-2.8849

> <Gold.PLP.part.metal>
0.0000

> <Gold.PLP.part.buried>
-3.9703

> <Gold.PLP.part.nonpolar>
-29.0671

> <Gold.PLP.part.repulsive>
0.6533

> <Gold.PLP.ligand.clash>
0.3156

> <Gold.PLP.ligand.torsion>
1.3666

> <Gold.PLP.Chemscore.Hbond>
1.0000

> <Gold.PLP.Chemscore.CHOScore>
0.0000

> <Gold.PLP.Chemscore.Metal>
0.0000

> <Gold.Chemscore.Hbonds>
donor molecule, donor type, donor heavy atom, donor atom, acceptor molecule, acceptor atom, score
      L1  H     7    39       P1 10175  1.00

> <Gold.PLP.Chemscore.Internal.Correction>
0.2211

> <Gold.Rescore>
     Score         DG    S(hbond)    S(metal)    S(lipo)     H(rot)  DE(clash)    DE(int)     intcor
      8.61     -11.52       1.00        0.00      72.19       2.25       0.25       2.66       ----

> <Gold.Chemscore.Fitness>
8.6084

> <Gold.Chemscore.DG>
-11.5161

> <Gold.Chemscore.ZeroCoef>
-5.4800

> <Gold.Chemscore.Hbond>
0.9992

> <Gold.Chemscore.Metal>
0.0000

> <Gold.Chemscore.Lipo>
72.1934

> <Gold.Chemscore.Internal_Hbond>
0.0000

> <Gold.Chemscore.DEClash>
0.2471

> <Gold.Chemscore.DEInternal>
2.6606

> <Gold.Chemscore.Rot>
2.2453

> <Gold.Chemscore.Internal.Correction>
   9.000000E+99

> <Gold.Chemscore.Hbonds>
donor molecule, donor type, donor heavy atom, donor atom, acceptor molecule, acceptor atom, score
      L1  H     7    39       P1 10175  0.97

> <Gold.Chemscore.Hbond.Weighted>
-3.3374

> <Gold.Chemscore.Metal.Weighted>
-0.0000

> <Gold.Chemscore.Lipo.Weighted>
-8.4466

> <Gold.Chemscore.Internal_Hbond.Weighted>
0.0000

> <Gold.Chemscore.DEClash.Weighted>
0.2471

> <Gold.Chemscore.DEInternal.Weighted>
2.6606

> <Gold.Chemscore.Rot.Weighted>
5.7479

> <Gold.Chemscore.Internal.Correction.Weighted>
   9.000000E+99

> <Gold.Protein.RotatedTorsions>
[ 6907 6896 6895 6894 ] final  -31.89 input  -60.11 | X-H torsion
[ 7974 7965 7964 7962 ] final  150.20 input  175.53 | X-H torsion
[ 8008 7997 7996 7995 ] final   22.71 input   59.86 | X-H torsion
[ 10167 10162 10161 10158 ] final  -45.03 input  -65.29 | X-H torsion
[ 10718 10713 10712 10709 ] final   21.19 input   66.30 | X-H torsion
[ 10763 10752 10751 10750 ] final  157.04 input  -60.55 | X-H torsion
[ 11005 11000 10999 10996 ] final   99.03 input  -57.11 | X-H torsion

> <Gold.Protein.ActiveResidues>
 VAL166  LYS551  ARG553  GLY616  TRP617  ASP618  TYR619  PRO620  LYS621  CYS622 
 ASP623  PHE694  ASN695  SER759  ASP760  ASP761  ALA762  ILE779  LEU786  VAL792 
 PHE793  MET794  SER795  GLU796  ALA797  LYS798  CYS799  TRP800  GLU811  SER814 

> <Gold.Protein.RotatedAtoms>
  151.0860  134.9887  159.8379 H   0  0  0  0  0  0  0  0  0  0  0  0  # atno 6907 bound_to 6896
  152.5424  134.2123  159.8765 H   0  0  0  0  0  0  0  0  0  0  0  0  # atno 6908 bound_to 6896
  151.2156  133.4487  159.2633 H   0  0  0  0  0  0  0  0  0  0  0  0  # atno 6909 bound_to 6896
  144.8382  139.6377  143.6028 H   0  0  0  0  0  0  0  0  0  0  0  0  # atno 7974 bound_to 7965
  154.9698  140.3088  155.4993 H   0  0  0  0  0  0  0  0  0  0  0  0  # atno 8008 bound_to 7997
  156.2967  140.2286  156.4728 H   0  0  0  0  0  0  0  0  0  0  0  0  # atno 8009 bound_to 7997
  154.7887  140.0441  157.1172 H   0  0  0  0  0  0  0  0  0  0  0  0  # atno 8010 bound_to 7997
  140.6874  143.2900  151.3581 H   0  0  0  0  0  0  0  0  0  0  0  0  # atno 10167 bound_to 10162
  157.1350  130.6607  149.5963 H   0  0  0  0  0  0  0  0  0  0  0  0  # atno 10718 bound_to 10713
  154.1939  135.2793  155.3013 H   0  0  0  0  0  0  0  0  0  0  0  0  # atno 10763 bound_to 10752
  154.5907  135.5560  153.7279 H   0  0  0  0  0  0  0  0  0  0  0  0  # atno 10764 bound_to 10752
  153.0105  135.6367  154.2078 H   0  0  0  0  0  0  0  0  0  0  0  0  # atno 10765 bound_to 10752
  139.8771  134.9077  156.4545 H   0  0  0  0  0  0  0  0  0  0  0  0  # atno 11005 bound_to 11000
  146.2678  139.6561  142.9317 LP  0  0  0  0  0  0  0  0  0  0  0  0  # atno 17320 bound_to 7965
  145.4750  141.0437  143.2677 LP  0  0  0  0  0  0  0  0  0  0  0  0  # atno 17321 bound_to 7965
  139.6244  144.0843  152.2421 LP  0  0  0  0  0  0  0  0  0  0  0  0  # atno 17342 bound_to 10162
  140.0297  144.6090  150.7498 LP  0  0  0  0  0  0  0  0  0  0  0  0  # atno 17343 bound_to 10162
  155.9800  130.4798  150.6748 LP  0  0  0  0  0  0  0  0  0  0  0  0  # atno 17370 bound_to 10713
  157.4358  131.0855  151.0993 LP  0  0  0  0  0  0  0  0  0  0  0  0  # atno 17371 bound_to 10713
  140.8908  133.7849  155.9570 LP  0  0  0  0  0  0  0  0  0  0  0  0  # atno 17394 bound_to 11000
  140.8755  134.2674  157.5170 LP  0  0  0  0  0  0  0  0  0  0  0  0  # atno 17395 bound_to 11000

$$$$
