AV-unprocessed.smi:450|AV-procd|sdf|2608|dock4
  -GOLD-   2262023 03D 1   1.00000     0.00000
 Structure written by MMmdl.
 32 32  0  0  0  0  0  0  0  0  1 V2000
  145.8583  132.1484  149.7550 C   0  0  0  0  0  0  0  0  0  0  0  0
  145.0017  132.7419  150.8835 C   0  0  0  0  0  0  0  0  0  0  0  0
  145.4940  134.1145  151.3804 C   0  0  1  0  0  0  0  0  0  0  0  0
  144.6584  134.6203  152.5671 C   0  0  0  0  0  0  0  0  0  0  0  0
  146.9034  134.0334  151.7531 N   0  0  0  0  0  0  0  0  0  0  0  0
  147.4323  133.1659  152.6297 C   0  0  0  0  0  0  0  0  0  0  0  0
  146.7828  132.2865  153.1943 O   0  0  0  0  0  0  0  0  0  0  0  0
  148.9241  133.3243  152.9258 C   0  0  0  0  0  0  0  0  0  0  0  0
  149.3239  132.4825  154.0509 N   0  0  0  0  0  0  0  0  0  0  0  0
  149.2237  131.1426  154.1703 C   0  0  0  0  0  0  0  0  0  0  0  0
  148.6713  130.3712  153.1583 N   0  0  0  0  0  0  0  0  0  0  0  0
  149.6950  130.6558  155.3148 N   0  0  0  0  0  0  0  0  0  0  0  0
  150.1495  131.7670  156.0220 C   0  0  0  0  0  0  0  0  0  0  0  0
  150.7340  131.6496  157.3151 C   0  0  0  0  0  0  0  0  0  0  0  0
  151.2116  131.5539  158.3645 N   0  0  0  0  0  0  0  0  0  0  0  0
  149.9207  132.8821  155.2449 C   0  0  0  0  0  0  0  0  0  0  0  0
  150.2364  134.2157  155.5813 C   0  0  0  0  0  0  0  0  0  0  0  0
  150.4960  135.3087  155.8568 N   0  0  0  0  0  0  0  0  0  0  0  0
  145.4392  131.2035  149.4085 H   0  0  0  0  0  0  0  0  0  0  0  0
  146.8794  131.9527  150.0836 H   0  0  0  0  0  0  0  0  0  0  0  0
  145.9048  132.8239  148.9004 H   0  0  0  0  0  0  0  0  0  0  0  0
  143.9756  132.8381  150.5267 H   0  0  0  0  0  0  0  0  0  0  0  0
  144.9672  132.0379  151.7160 H   0  0  0  0  0  0  0  0  0  0  0  0
  145.3859  134.8249  150.5586 H   0  0  0  0  0  0  0  0  0  0  0  0
  143.6030  134.6868  152.3022 H   0  0  0  0  0  0  0  0  0  0  0  0
  144.9782  135.6140  152.8824 H   0  0  0  0  0  0  0  0  0  0  0  0
  144.7446  133.9546  153.4264 H   0  0  0  0  0  0  0  0  0  0  0  0
  147.5171  134.7229  151.3443 H   0  0  0  0  0  0  0  0  0  0  0  0
  149.5116  133.0557  152.0471 H   0  0  0  0  0  0  0  0  0  0  0  0
  149.1546  134.3680  153.1420 H   0  0  0  0  0  0  0  0  0  0  0  0
  148.3299  130.7928  152.3061 H   0  0  0  0  0  0  0  0  0  0  0  0
  148.6402  129.3637  153.2151 H   0  0  0  0  0  0  0  0  0  0  0  0
  1  2  1  0  0  0  0
  1 19  1  0  0  0  0
  1 20  1  0  0  0  0
  1 21  1  0  0  0  0
  2  3  1  0  0  0  0
  2 22  1  0  0  0  0
  2 23  1  0  0  0  0
  3  4  1  0  0  0  0
  3  5  1  0  0  0  0
  3 24  1  0  0  0  0
  4 25  1  0  0  0  0
  4 26  1  0  0  0  0
  4 27  1  0  0  0  0
  5  6  1  0  0  0  0
  5 28  1  0  0  0  0
  6  7  2  0  0  0  0
  6  8  1  0  0  0  0
  8  9  1  0  0  0  0
  8 29  1  0  0  0  0
  8 30  1  0  0  0  0
  9 16  1  0  0  0  0
  9 10  1  0  0  0  0
 10 11  1  0  0  0  0
 10 12  2  0  0  0  0
 11 31  1  0  0  0  0
 11 32  1  0  0  0  0
 12 13  1  0  0  0  0
 13 14  1  0  0  0  0
 13 16  2  0  0  0  0
 14 15  3  0  0  0  0
 16 17  1  0  0  0  0
 17 18  3  0  0  0  0
M  END
> <s_m_source_file>
AV-unprocessed.smi

> <i_m_source_file_index>
450

> <i_lp_mmshare_version>
43012

> <i_f3d_flags>
0

> <s_epik_input>
W0NIM11bQ0gyXVtDQEhdKFtDSDNdKVtOSF1DKD1PKVtDSDJdbjFjKFtOSDJdKW5jKEMjTiljMUMjTg==

> <s_epik_cmdline>
J2VwaWtfcHl0aG9uJywgJy1waCcsICc3LjAnLCAnLXRuJywgJzgnLCAnLW1hJywgJzIwMCcsICctbWV0YWxfYmluZGluZycsICctaW1hZScsICc8aW5maWxlLm1hZT4nLCAnLW9tYWUnLCAnPG91dGZpbGUubWFlPic=

> <r_epik_Ionization_Penalty>
0.000482749

> <r_epik_Ionization_Penalty_Charging>
7.71074e-10

> <r_epik_Ionization_Penalty_Neutral>
0.000482748

> <r_epik_State_Penalty>
0.000433536

> <r_epik_Charging_Adjusted_Penalty>
0.000433537

> <i_epik_Tot_Q>
0

> <i_epik_Tot_abs_Q>
0

> <r_epik_Metal_State_Penalty>
-0

> <b_epik_Metal_Only>
0

> <s_lp_Force_Field>
OPLS_2005

> <r_lp_Energy>
5.27204

> <b_lp_Chiralities_Consistent>
1

> <s_lp_Variant>
AV-unprocessed.smi:450-2

> <Gold.Version>
5.8.1

> <Gold.Id.Protein>
6NUR|6NUR_protein|mol2

> <Gold.PLP.Fitness>
34.8706

> <Gold.PLP.PLP>
-27.8374

> <Gold.PLP.part.hbond>
-3.0000

> <Gold.PLP.part.metal>
0.0000

> <Gold.PLP.part.buried>
-2.5497

> <Gold.PLP.part.nonpolar>
-21.5702

> <Gold.PLP.part.repulsive>
0.2633

> <Gold.PLP.ligand.clash>
0.0000

> <Gold.PLP.ligand.torsion>
0.1498

> <Gold.PLP.Chemscore.Hbond>
2.4375

> <Gold.PLP.Chemscore.CHOScore>
0.0000

> <Gold.PLP.Chemscore.Metal>
0.0000

> <Gold.Chemscore.Hbonds>
donor molecule, donor type, donor heavy atom, donor atom, acceptor molecule, acceptor atom, score
      L1  H     5    28       P1  7948  0.74
      L1  H    11    31       P1 10747  0.55
      P1  H  6896  6909       L1    15  1.00

> <Gold.PLP.Chemscore.Internal.Correction>
0.0202

> <Gold.Rescore>
     Score         DG    S(hbond)    S(metal)    S(lipo)     H(rot)  DE(clash)    DE(int)     intcor
      8.48     -11.53       1.99        0.00      43.18       2.21       0.80       2.25       ----

> <Gold.Chemscore.Fitness>
8.4831

> <Gold.Chemscore.DG>
-11.5322

> <Gold.Chemscore.ZeroCoef>
-5.4800

> <Gold.Chemscore.Hbond>
1.9949

> <Gold.Chemscore.Metal>
0.0000

> <Gold.Chemscore.Lipo>
43.1792

> <Gold.Chemscore.Internal_Hbond>
0.0000

> <Gold.Chemscore.DEClash>
0.8040

> <Gold.Chemscore.DEInternal>
2.2452

> <Gold.Chemscore.Rot>
2.2121

> <Gold.Chemscore.Internal.Correction>
   9.000000E+99

> <Gold.Chemscore.Hbonds>
donor molecule, donor type, donor heavy atom, donor atom, acceptor molecule, acceptor atom, score
      L1  H     5    28       P1  7948  0.19
      L1  H    11    31       P1 10747  0.52
      P1  H  6896  6909       L1    15  0.84

> <Gold.Chemscore.Hbond.Weighted>
-6.6631

> <Gold.Chemscore.Metal.Weighted>
-0.0000

> <Gold.Chemscore.Lipo.Weighted>
-5.0520

> <Gold.Chemscore.Internal_Hbond.Weighted>
0.0000

> <Gold.Chemscore.DEClash.Weighted>
0.8040

> <Gold.Chemscore.DEInternal.Weighted>
2.2452

> <Gold.Chemscore.Rot.Weighted>
5.6629

> <Gold.Chemscore.Internal.Correction.Weighted>
   9.000000E+99

> <Gold.Protein.RotatedTorsions>
[ 6907 6896 6895 6894 ] final  -50.23 input  -60.11 | X-H torsion
[ 7974 7965 7964 7962 ] final  -74.29 input  175.53 | X-H torsion
[ 8008 7997 7996 7995 ] final   87.13 input   59.86 | X-H torsion
[ 10167 10162 10161 10158 ] final   -9.39 input  -65.29 | X-H torsion
[ 10718 10713 10712 10709 ] final  -14.26 input   66.30 | X-H torsion
[ 10763 10752 10751 10750 ] final   27.57 input  -60.55 | X-H torsion
[ 11005 11000 10999 10996 ] final -138.47 input  -57.11 | X-H torsion

> <Gold.Protein.ActiveResidues>
 VAL166  LYS551  ARG553  GLY616  TRP617  ASP618  TYR619  PRO620  LYS621  CYS622 
 ASP623  PHE694  ASN695  SER759  ASP760  ASP761  ALA762  ILE779  LEU786  VAL792 
 PHE793  MET794  SER795  GLU796  ALA797  LYS798  CYS799  TRP800  GLU811  SER814 

> <Gold.Protein.RotatedAtoms>
  150.8727  134.8104  159.7166 H   0  0  0  0  0  0  0  0  0  0  0  0  # atno 6907 bound_to 6896
  152.4726  134.4920  159.9708 H   0  0  0  0  0  0  0  0  0  0  0  0  # atno 6908 bound_to 6896
  151.5006  133.3466  159.2904 H   0  0  0  0  0  0  0  0  0  0  0  0  # atno 6909 bound_to 6896
  145.6410  140.9311  143.1036 H   0  0  0  0  0  0  0  0  0  0  0  0  # atno 7974 bound_to 7965
  155.9716  140.3385  155.6580 H   0  0  0  0  0  0  0  0  0  0  0  0  # atno 8008 bound_to 7997
  155.6667  140.0722  157.2553 H   0  0  0  0  0  0  0  0  0  0  0  0  # atno 8009 bound_to 7997
  154.4168  140.1699  156.1823 H   0  0  0  0  0  0  0  0  0  0  0  0  # atno 8010 bound_to 7997
  140.7086  143.5863  150.8939 H   0  0  0  0  0  0  0  0  0  0  0  0  # atno 10167 bound_to 10162
  156.6185  130.4869  149.6174 H   0  0  0  0  0  0  0  0  0  0  0  0  # atno 10718 bound_to 10713
  153.0547  135.6534  154.0607 H   0  0  0  0  0  0  0  0  0  0  0  0  # atno 10763 bound_to 10752
  154.0288  135.2913  155.3373 H   0  0  0  0  0  0  0  0  0  0  0  0  # atno 10764 bound_to 10752
  154.6855  135.5303  153.8388 H   0  0  0  0  0  0  0  0  0  0  0  0  # atno 10765 bound_to 10752
  140.8613  134.2165  157.4706 H   0  0  0  0  0  0  0  0  0  0  0  0  # atno 11005 bound_to 11000
  144.7157  139.8205  143.7399 LP  0  0  0  0  0  0  0  0  0  0  0  0  # atno 17320 bound_to 7965
  146.1281  139.4311  143.0186 LP  0  0  0  0  0  0  0  0  0  0  0  0  # atno 17321 bound_to 7965
  139.9589  143.6186  152.3008 LP  0  0  0  0  0  0  0  0  0  0  0  0  # atno 17342 bound_to 10162
  139.6732  144.7660  151.1745 LP  0  0  0  0  0  0  0  0  0  0  0  0  # atno 17343 bound_to 10162
  156.2331  130.6806  151.1483 LP  0  0  0  0  0  0  0  0  0  0  0  0  # atno 17370 bound_to 10713
  157.7234  131.0666  150.6037 LP  0  0  0  0  0  0  0  0  0  0  0  0  # atno 17371 bound_to 10713
  139.8707  134.9731  156.4796 LP  0  0  0  0  0  0  0  0  0  0  0  0  # atno 17394 bound_to 11000
  140.8680  133.8010  155.9334 LP  0  0  0  0  0  0  0  0  0  0  0  0  # atno 17395 bound_to 11000

$$$$
