AV-unprocessed.smi:1670|AV-procd|sdf|6694|dock8
  -GOLD-   22720 7423D 1   1.00000     0.00000
 Structure written by MMmdl.
 41 42  0  0  0  0  0  0  0  0  1 V2000
  143.3182  136.0372  152.5353 C   0  0  0  0  0  0  0  0  0  0  0  0
  144.7061  135.9071  151.8935 C   0  0  1  0  0  0  0  0  0  0  0  0
  144.6263  135.2102  150.5180 C   0  0  0  0  0  0  0  0  0  0  0  0
  144.7628  133.7670  150.6126 N   0  0  0  0  0  0  0  0  0  0  0  0
  143.7706  132.8230  150.7733 C   0  0  0  0  0  0  0  0  0  0  0  0
  144.3775  131.6012  150.8294 C   0  0  0  0  0  0  0  0  0  0  0  0
  145.7609  131.9043  150.6907 C   0  0  0  0  0  0  0  0  0  0  0  0
  145.9883  133.2007  150.5554 N   0  0  0  0  0  0  0  0  0  0  0  0
  145.3002  137.2379  151.7704 N   0  0  0  0  0  0  0  0  0  0  0  0
  146.1062  137.8178  152.6718 C   0  0  0  0  0  0  0  0  0  0  0  0
  146.4136  137.3073  153.7491 O   0  0  0  0  0  0  0  0  0  0  0  0
  146.5516  139.0082  152.2408 N   0  0  0  0  0  0  0  0  0  0  0  0
  147.4956  139.8998  152.9165 C   0  0  2  0  0  0  0  0  0  0  0  0
  148.4652  139.1391  153.8473 C   0  0  0  0  0  0  0  0  0  0  0  0
  149.4897  140.0985  154.4745 C   0  0  0  0  0  0  0  0  0  0  0  0
  148.7879  141.2510  155.2158 C   0  0  1  0  0  0  0  0  0  0  0  0
  149.7576  142.1446  155.7203 O   0  0  0  0  0  0  0  0  0  0  0  0
  147.8250  142.0108  154.2851 C   0  0  0  0  0  0  0  0  0  0  0  0
  146.7944  141.0581  153.6582 C   0  0  0  0  0  0  0  0  0  0  0  0
  142.8567  135.0587  152.6711 H   0  0  0  0  0  0  0  0  0  0  0  0
  142.6487  136.6382  151.9188 H   0  0  0  0  0  0  0  0  0  0  0  0
  143.3814  136.5085  153.5167 H   0  0  0  0  0  0  0  0  0  0  0  0
  145.3120  135.2925  152.5617 H   0  0  0  0  0  0  0  0  0  0  0  0
  143.6644  135.4202  150.0493 H   0  0  0  0  0  0  0  0  0  0  0  0
  145.3904  135.6008  149.8436 H   0  0  0  0  0  0  0  0  0  0  0  0
  142.7282  133.0977  150.8405 H   0  0  0  0  0  0  0  0  0  0  0  0
  143.9052  130.6382  150.9541 H   0  0  0  0  0  0  0  0  0  0  0  0
  146.6011  131.2256  150.6829 H   0  0  0  0  0  0  0  0  0  0  0  0
  145.1121  137.7387  150.9144 H   0  0  0  0  0  0  0  0  0  0  0  0
  146.2252  139.3192  151.3377 H   0  0  0  0  0  0  0  0  0  0  0  0
  148.0914  140.3394  152.1154 H   0  0  0  0  0  0  0  0  0  0  0  0
  147.9169  138.6362  154.6445 H   0  0  0  0  0  0  0  0  0  0  0  0
  148.9851  138.3584  153.2907 H   0  0  0  0  0  0  0  0  0  0  0  0
  150.1368  139.5502  155.1600 H   0  0  0  0  0  0  0  0  0  0  0  0
  150.1358  140.4993  153.6919 H   0  0  0  0  0  0  0  0  0  0  0  0
  148.2296  140.8490  156.0624 H   0  0  0  0  0  0  0  0  0  0  0  0
  149.3707  143.0047  155.7800 H   0  0  0  0  0  0  0  0  0  0  0  0
  147.3106  142.7976  154.8383 H   0  0  0  0  0  0  0  0  0  0  0  0
  148.3881  142.5062  153.4926 H   0  0  0  0  0  0  0  0  0  0  0  0
  146.1535  141.6109  152.9704 H   0  0  0  0  0  0  0  0  0  0  0  0
  146.1449  140.6730  154.4446 H   0  0  0  0  0  0  0  0  0  0  0  0
  1  2  1  0  0  0  0
  1 20  1  0  0  0  0
  1 21  1  0  0  0  0
  1 22  1  0  0  0  0
  2  3  1  0  0  0  0
  2  9  1  0  0  0  0
  2 23  1  0  0  0  0
  3  4  1  0  0  0  0
  3 24  1  0  0  0  0
  3 25  1  0  0  0  0
  4  8  1  0  0  0  0
  4  5  1  0  0  0  0
  5  6  2  0  0  0  0
  5 26  1  0  0  0  0
  6  7  1  0  0  0  0
  6 27  1  0  0  0  0
  7  8  2  0  0  0  0
  7 28  1  0  0  0  0
  9 10  1  0  0  0  0
  9 29  1  0  0  0  0
 10 11  2  0  0  0  0
 10 12  1  0  0  0  0
 12 13  1  0  0  0  0
 12 30  1  0  0  0  0
 13 19  1  0  0  0  0
 13 14  1  0  0  0  0
 13 31  1  0  0  0  0
 14 15  1  0  0  0  0
 14 32  1  0  0  0  0
 14 33  1  0  0  0  0
 15 16  1  0  0  0  0
 15 34  1  0  0  0  0
 15 35  1  0  0  0  0
 16 17  1  0  0  0  0
 16 18  1  0  0  0  0
 16 36  1  0  0  0  0
 17 37  1  0  0  0  0
 18 19  1  0  0  0  0
 18 38  1  0  0  0  0
 18 39  1  0  0  0  0
 19 40  1  0  0  0  0
 19 41  1  0  0  0  0
M  END
> <s_m_source_file>
AV-unprocessed.smi

> <i_m_source_file_index>
1670

> <i_lp_mmshare_version>
43012

> <i_f3d_flags>
0

> <s_epik_input>
bjFbY0hdW2NIXVtjSF1uMVtDSDJdW0NAQEhdKFtDSDNdKVtOSF1DKD1PKVtOSF1bQ0BASF0yW0NIMl1bQ0gyXVtDQEBIXShbT0hdKVtDSDJdW0NIMl0y

> <s_epik_cmdline>
J2VwaWtfcHl0aG9uJywgJy1waCcsICc3LjAnLCAnLXRuJywgJzgnLCAnLW1hJywgJzIwMCcsICctbWV0YWxfYmluZGluZycsICctaW1hZScsICc8aW5maWxlLm1hZT4nLCAnLW9tYWUnLCAnPG91dGZpbGUubWFlPic=

> <r_lp_tautomer_probability>
1

> <r_epik_Ionization_Penalty>
7.33369e-05

> <r_epik_Ionization_Penalty_Charging>
0

> <r_epik_Ionization_Penalty_Neutral>
7.33369e-05

> <r_epik_State_Penalty>
-0

> <r_epik_Charging_Adjusted_Penalty>
0

> <i_epik_Tot_Q>
0

> <i_epik_Tot_abs_Q>
0

> <r_epik_Metal_State_Penalty>
-0

> <b_epik_Metal_Only>
0

> <s_lp_Force_Field>
OPLS_2005

> <r_lp_Energy>
5.2693

> <b_lp_Chiralities_Consistent>
1

> <s_lp_Variant>
AV-unprocessed.smi:1670-2

> <Gold.Version>
5.8.1

> <Gold.Id.Protein>
6NUR|6NUR_protein|mol2

> <Gold.PLP.Fitness>
46.4988

> <Gold.PLP.PLP>
-37.3406

> <Gold.PLP.part.hbond>
-2.4577

> <Gold.PLP.part.metal>
0.0000

> <Gold.PLP.part.buried>
-2.2105

> <Gold.PLP.part.nonpolar>
-33.3341

> <Gold.PLP.part.repulsive>
0.4029

> <Gold.PLP.ligand.clash>
0.0000

> <Gold.PLP.ligand.torsion>
1.4453

> <Gold.PLP.Chemscore.Hbond>
2.0000

> <Gold.PLP.Chemscore.CHOScore>
2.0000

> <Gold.PLP.Chemscore.Metal>
0.0000

> <Gold.Chemscore.Hbonds>
donor molecule, donor type, donor heavy atom, donor atom, acceptor molecule, acceptor atom, score
      L1  H     9    29       P1 10171  0.98
      L1  H    17    37       P1  8028  1.00
      L1  C     5    26       P1 10186  1.00
      L1  C     7    28       P1 10747  1.00

> <Gold.PLP.Chemscore.Internal.Correction>
0.0487

> <Gold.Rescore>
     Score         DG    S(hbond)    S(metal)    S(lipo)     H(rot)  DE(clash)    DE(int)     intcor
     12.85     -16.37       1.98        0.00      85.14       2.22       0.72       2.81       ----

> <Gold.Chemscore.Fitness>
12.8510

> <Gold.Chemscore.DG>
-16.3719

> <Gold.Chemscore.ZeroCoef>
-5.4800

> <Gold.Chemscore.Hbond>
1.9820

> <Gold.Chemscore.Metal>
0.0000

> <Gold.Chemscore.Lipo>
85.1394

> <Gold.Chemscore.Internal_Hbond>
0.0000

> <Gold.Chemscore.DEClash>
0.7155

> <Gold.Chemscore.DEInternal>
2.8054

> <Gold.Chemscore.Rot>
2.2224

> <Gold.Chemscore.Internal.Correction>
   9.000000E+99

> <Gold.Chemscore.Hbonds>
donor molecule, donor type, donor heavy atom, donor atom, acceptor molecule, acceptor atom, score
      L1  H     9    29       P1 10171  0.93
      L1  H    17    37       P1  8028  1.00

> <Gold.Chemscore.Hbond.Weighted>
-6.6199

> <Gold.Chemscore.Metal.Weighted>
-0.0000

> <Gold.Chemscore.Lipo.Weighted>
-9.9613

> <Gold.Chemscore.Internal_Hbond.Weighted>
0.0000

> <Gold.Chemscore.DEClash.Weighted>
0.7155

> <Gold.Chemscore.DEInternal.Weighted>
2.8054

> <Gold.Chemscore.Rot.Weighted>
5.6893

> <Gold.Chemscore.Internal.Correction.Weighted>
   9.000000E+99

> <Gold.Protein.RotatedTorsions>
[ 6907 6896 6895 6894 ] final    2.56 input  -60.11 | X-H torsion
[ 7974 7965 7964 7962 ] final   87.73 input  175.53 | X-H torsion
[ 8008 7997 7996 7995 ] final -152.69 input   59.86 | X-H torsion
[ 10167 10162 10161 10158 ] final    1.32 input  -65.29 | X-H torsion
[ 10718 10713 10712 10709 ] final  -67.03 input   66.30 | X-H torsion
[ 10763 10752 10751 10750 ] final  102.41 input  -60.55 | X-H torsion
[ 11005 11000 10999 10996 ] final  169.47 input  -57.11 | X-H torsion

> <Gold.Protein.ActiveResidues>
 VAL166  LYS551  ARG553  GLY616  TRP617  ASP618  TYR619  PRO620  LYS621  CYS622 
 ASP623  PHE694  ASN695  SER759  ASP760  ASP761  ALA762  ILE779  LEU786  VAL792 
 PHE793  MET794  SER795  GLU796  ALA797  LYS798  CYS799  TRP800  GLU811  SER814 

> <Gold.Protein.RotatedAtoms>
  151.6108  135.1040  160.0080 H   0  0  0  0  0  0  0  0  0  0  0  0  # atno 6907 bound_to 6896
  152.4209  133.7111  159.6490 H   0  0  0  0  0  0  0  0  0  0  0  0  # atno 6908 bound_to 6896
  150.8097  133.8372  159.3210 H   0  0  0  0  0  0  0  0  0  0  0  0  # atno 6909 bound_to 6896
  145.5551  139.2299  143.2491 H   0  0  0  0  0  0  0  0  0  0  0  0  # atno 7974 bound_to 7965
  155.6591  140.0720  157.2560 H   0  0  0  0  0  0  0  0  0  0  0  0  # atno 8008 bound_to 7997
  154.4146  140.1719  156.1808 H   0  0  0  0  0  0  0  0  0  0  0  0  # atno 8009 bound_to 7997
  155.9712  140.3362  155.6580 H   0  0  0  0  0  0  0  0  0  0  0  0  # atno 8010 bound_to 7997
  140.6688  143.7105  150.7881 H   0  0  0  0  0  0  0  0  0  0  0  0  # atno 10167 bound_to 10162
  156.0580  130.4271  150.1795 H   0  0  0  0  0  0  0  0  0  0  0  0  # atno 10718 bound_to 10713
  153.3393  135.4011  155.1559 H   0  0  0  0  0  0  0  0  0  0  0  0  # atno 10763 bound_to 10752
  154.8640  135.3629  154.5367 H   0  0  0  0  0  0  0  0  0  0  0  0  # atno 10764 bound_to 10752
  153.5811  135.7076  153.5522 H   0  0  0  0  0  0  0  0  0  0  0  0  # atno 10765 bound_to 10752
  140.2981  134.7618  157.3894 H   0  0  0  0  0  0  0  0  0  0  0  0  # atno 11005 bound_to 11000
  146.1890  140.6374  142.9154 LP  0  0  0  0  0  0  0  0  0  0  0  0  # atno 17320 bound_to 7965
  144.7510  140.5191  143.6802 LP  0  0  0  0  0  0  0  0  0  0  0  0  # atno 17321 bound_to 7965
  140.0787  143.4990  152.2541 LP  0  0  0  0  0  0  0  0  0  0  0  0  # atno 17342 bound_to 10162
  139.5948  144.7563  151.3313 LP  0  0  0  0  0  0  0  0  0  0  0  0  # atno 17343 bound_to 10162
  156.9868  130.9881  151.3424 LP  0  0  0  0  0  0  0  0  0  0  0  0  # atno 17370 bound_to 10713
  157.5565  130.8217  149.8211 LP  0  0  0  0  0  0  0  0  0  0  0  0  # atno 17371 bound_to 10713
  140.1134  134.5315  155.8246 LP  0  0  0  0  0  0  0  0  0  0  0  0  # atno 17394 bound_to 11000
  141.2133  133.6732  156.6731 LP  0  0  0  0  0  0  0  0  0  0  0  0  # atno 17395 bound_to 11000

$$$$
