AV-unprocessed.smi:3180|AV-procd|sdf|12134|dock2
  -GOLD-   2272017573D 1   1.00000     0.00000
 Structure written by MMmdl.
 24 25  0  0  0  0  0  0  0  0  2 V2000
  148.2254  138.5820  152.6936 N   0  3  0  0  0  0  0  0  0  0  0  0
  148.5294  139.1589  154.0136 C   0  0  0  0  0  0  0  0  0  0  0  0
  149.2772  138.1549  154.9026 C   0  0  0  0  0  0  0  0  0  0  0  0
  150.6736  138.5186  155.0638 N   0  0  0  0  0  0  0  0  0  0  0  0
  151.7543  137.9249  154.5338 C   0  0  0  0  0  0  0  0  0  0  0  0
  152.9189  138.4924  154.8431 N   0  0  0  0  0  0  0  0  0  0  0  0
  152.5805  139.5638  155.6450 N   0  0  0  0  0  0  0  0  0  0  0  0
  151.2472  139.5266  155.7532 C   0  0  0  0  0  0  0  0  0  0  0  0
  150.4511  140.5373  156.5158 C   0  0  0  0  0  0  0  0  0  0  0  0
  150.4118  141.9881  156.0896 C   0  0  0  0  0  0  0  0  0  0  0  0
  151.1316  141.5974  157.3537 C   0  0  0  0  0  0  0  0  0  0  0  0
  148.5226  139.2213  151.9702 H   0  0  0  0  0  0  0  0  0  0  0  0
  147.2305  138.4253  152.6143 H   0  0  0  0  0  0  0  0  0  0  0  0
  149.1240  140.0614  153.8712 H   0  0  0  0  0  0  0  0  0  0  0  0
  147.5934  139.4613  154.4848 H   0  0  0  0  0  0  0  0  0  0  0  0
  148.8214  138.1118  155.8928 H   0  0  0  0  0  0  0  0  0  0  0  0
  149.2142  137.1497  154.4847 H   0  0  0  0  0  0  0  0  0  0  0  0
  151.6878  137.0532  153.8991 H   0  0  0  0  0  0  0  0  0  0  0  0
  149.5325  140.0952  156.8967 H   0  0  0  0  0  0  0  0  0  0  0  0
  151.0209  142.2858  155.2383 H   0  0  0  0  0  0  0  0  0  0  0  0
  149.4654  142.5149  156.1919 H   0  0  0  0  0  0  0  0  0  0  0  0
  150.6663  141.8643  158.3003 H   0  0  0  0  0  0  0  0  0  0  0  0
  152.2183  141.6425  157.3381 H   0  0  0  0  0  0  0  0  0  0  0  0
  148.7138  137.7044  152.5874 H   0  0  0  0  0  0  0  0  0  0  0  0
  1  2  1  0  0  0  0
  1 12  1  0  0  0  0
  1 13  1  0  0  0  0
  1 24  1  0  0  0  0
  2  3  1  0  0  0  0
  2 14  1  0  0  0  0
  2 15  1  0  0  0  0
  3  4  1  0  0  0  0
  3 16  1  0  0  0  0
  3 17  1  0  0  0  0
  4  8  1  0  0  0  0
  4  5  1  0  0  0  0
  5  6  2  0  0  0  0
  5 18  1  0  0  0  0
  6  7  1  0  0  0  0
  7  8  2  0  0  0  0
  8  9  1  0  0  0  0
  9 11  1  0  0  0  0
  9 10  1  0  0  0  0
  9 19  1  0  0  0  0
 10 11  1  0  0  0  0
 10 20  1  0  0  0  0
 10 21  1  0  0  0  0
 11 22  1  0  0  0  0
 11 23  1  0  0  0  0
M  CHG  1   1   1
M  END
> <s_m_source_file>
AV-unprocessed.smi

> <i_m_source_file_index>
3180

> <i_lp_mmshare_version>
43012

> <i_f3d_flags>
0

> <s_epik_input>
W05IMl1bQ0gyXVtDSDJdbjFbY0hdbm5jMVtDSF0yW0NIMl1bQ0gyXTI=

> <s_epik_cmdline>
J2VwaWtfcHl0aG9uJywgJy1waCcsICc3LjAnLCAnLXRuJywgJzgnLCAnLW1hJywgJzIwMCcsICctbWV0YWxfYmluZGluZycsICctaW1hZScsICc8aW5maWxlLm1hZT4nLCAnLW9tYWUnLCAnPG91dGZpbGUubWFlPic=

> <r_lp_tautomer_probability>
1

> <r_epik_Ionization_Penalty>
0.00526423

> <r_epik_Ionization_Penalty_Charging>
0.00525499

> <r_epik_Ionization_Penalty_Neutral>
9.23795e-06

> <r_epik_State_Penalty>
0.00383325

> <r_epik_Charging_Adjusted_Penalty>
0.00908824

> <i_epik_Tot_Q>
1

> <i_epik_Tot_abs_Q>
1

> <r_epik_Metal_State_Penalty>
-0

> <b_epik_Metal_Only>
0

> <s_lp_Force_Field>
OPLS_2005

> <r_lp_Energy>
11.3603

> <b_lp_Chiralities_Consistent>
1

> <s_lp_Variant>
AV-unprocessed.smi:3180-1

> <Gold.Version>
5.8.1

> <Gold.Id.Protein>
6NUR|6NUR_protein|mol2

> <Gold.PLP.Fitness>
37.0783

> <Gold.PLP.PLP>
-23.1642

> <Gold.PLP.part.hbond>
-2.7911

> <Gold.PLP.part.metal>
0.0000

> <Gold.PLP.part.buried>
-4.0336

> <Gold.PLP.part.nonpolar>
-15.9697

> <Gold.PLP.part.repulsive>
0.1050

> <Gold.PLP.ligand.clash>
0.0000

> <Gold.PLP.ligand.torsion>
0.5278

> <Gold.PLP.Chemscore.Hbond>
3.9440

> <Gold.PLP.Chemscore.CHOScore>
1.0000

> <Gold.PLP.Chemscore.Metal>
0.0000

> <Gold.Chemscore.Hbonds>
donor molecule, donor type, donor heavy atom, donor atom, acceptor molecule, acceptor atom, score
      L1  H     1    12       P1  7957  1.00
      L1  H     1    24       P1  7948  2.00
      P1  H  7997  8010       L1     7  0.52
      L1  C     5    18       P1  7949  0.62

> <Gold.PLP.Chemscore.Internal.Correction>
0.1377

> <Gold.Rescore>
     Score         DG    S(hbond)    S(metal)    S(lipo)     H(rot)  DE(clash)    DE(int)     intcor
     12.83     -13.67       2.75        0.00      30.83       1.79       0.20       0.64       ----

> <Gold.Chemscore.Fitness>
12.8299

> <Gold.Chemscore.DG>
-13.6674

> <Gold.Chemscore.ZeroCoef>
-5.4800

> <Gold.Chemscore.Hbond>
2.7455

> <Gold.Chemscore.Metal>
0.0000

> <Gold.Chemscore.Lipo>
30.8256

> <Gold.Chemscore.Internal_Hbond>
0.0000

> <Gold.Chemscore.DEClash>
0.1962

> <Gold.Chemscore.DEInternal>
0.6413

> <Gold.Chemscore.Rot>
1.7926

> <Gold.Chemscore.Internal.Correction>
   9.000000E+99

> <Gold.Chemscore.Hbonds>
donor molecule, donor type, donor heavy atom, donor atom, acceptor molecule, acceptor atom, score
      L1  H     1    12       P1  7957  0.94
      L1  H     1    24       P1  7948  0.96
      P1  H  7997  8010       L1     7  0.04

> <Gold.Chemscore.Hbond.Weighted>
-9.1700

> <Gold.Chemscore.Metal.Weighted>
-0.0000

> <Gold.Chemscore.Lipo.Weighted>
-3.6066

> <Gold.Chemscore.Internal_Hbond.Weighted>
0.0000

> <Gold.Chemscore.DEClash.Weighted>
0.1962

> <Gold.Chemscore.DEInternal.Weighted>
0.6413

> <Gold.Chemscore.Rot.Weighted>
4.5892

> <Gold.Chemscore.Internal.Correction.Weighted>
   9.000000E+99

> <Gold.Protein.RotatedTorsions>
[ 6907 6896 6895 6894 ] final   18.81 input  -60.11 | X-H torsion
[ 7974 7965 7964 7962 ] final   20.56 input  175.53 | X-H torsion
[ 8008 7997 7996 7995 ] final  114.49 input   59.86 | X-H torsion
[ 10167 10162 10161 10158 ] final  -64.52 input  -65.29 | X-H torsion
[ 10718 10713 10712 10709 ] final -124.49 input   66.30 | X-H torsion
[ 10763 10752 10751 10750 ] final -164.11 input  -60.55 | X-H torsion
[ 11005 11000 10999 10996 ] final  -85.31 input  -57.11 | X-H torsion

> <Gold.Protein.ActiveResidues>
 VAL166  LYS551  ARG553  GLY616  TRP617  ASP618  TYR619  PRO620  LYS621  CYS622 
 ASP623  PHE694  ASN695  SER759  ASP760  ASP761  ALA762  ILE779  LEU786  VAL792 
 PHE793  MET794  SER795  GLU796  ALA797  LYS798  CYS799  TRP800  GLU811  SER814 

> <Gold.Protein.RotatedAtoms>
  151.8712  135.0489  160.0479 H   0  0  0  0  0  0  0  0  0  0  0  0  # atno 6907 bound_to 6896
  152.2587  133.5274  159.5377 H   0  0  0  0  0  0  0  0  0  0  0  0  # atno 6908 bound_to 6896
  150.7109  134.0776  159.3929 H   0  0  0  0  0  0  0  0  0  0  0  0  # atno 6909 bound_to 6896
  146.2106  139.8152  142.8691 H   0  0  0  0  0  0  0  0  0  0  0  0  # atno 7974 bound_to 7965
  156.2324  140.2958  156.0223 H   0  0  0  0  0  0  0  0  0  0  0  0  # atno 8008 bound_to 7997
  155.2188  140.0415  157.2962 H   0  0  0  0  0  0  0  0  0  0  0  0  # atno 8009 bound_to 7997
  154.6019  140.2429  155.7789 H   0  0  0  0  0  0  0  0  0  0  0  0  # atno 8010 bound_to 7997
  140.5795  143.2325  151.6373 H   0  0  0  0  0  0  0  0  0  0  0  0  # atno 10167 bound_to 10162
  156.1592  130.6590  151.0026 H   0  0  0  0  0  0  0  0  0  0  0  0  # atno 10718 bound_to 10713
  154.7059  135.2997  154.9271 H   0  0  0  0  0  0  0  0  0  0  0  0  # atno 10763 bound_to 10752
  154.0188  135.6685  153.4775 H   0  0  0  0  0  0  0  0  0  0  0  0  # atno 10764 bound_to 10752
  153.0717  135.5057  154.8229 H   0  0  0  0  0  0  0  0  0  0  0  0  # atno 10765 bound_to 10752
  141.1642  133.7392  156.8996 H   0  0  0  0  0  0  0  0  0  0  0  0  # atno 11005 bound_to 11000
  145.3154  141.0230  143.3531 LP  0  0  0  0  0  0  0  0  0  0  0  0  # atno 17320 bound_to 7965
  144.8905  139.4781  143.6680 LP  0  0  0  0  0  0  0  0  0  0  0  0  # atno 17321 bound_to 7965
  139.5161  144.3356  152.0787 LP  0  0  0  0  0  0  0  0  0  0  0  0  # atno 17342 bound_to 10162
  140.2504  144.4175  150.6224 LP  0  0  0  0  0  0  0  0  0  0  0  0  # atno 17343 bound_to 10162
  157.6719  131.0859  150.7590 LP  0  0  0  0  0  0  0  0  0  0  0  0  # atno 17370 bound_to 10713
  156.7654  130.4812  149.5428 LP  0  0  0  0  0  0  0  0  0  0  0  0  # atno 17371 bound_to 10713
  140.1591  134.9177  157.2692 LP  0  0  0  0  0  0  0  0  0  0  0  0  # atno 17394 bound_to 11000
  140.2632  134.3547  155.7399 LP  0  0  0  0  0  0  0  0  0  0  0  0  # atno 17395 bound_to 11000

$$$$
