AV-unprocessed.smi:1312|AV-procd|sdf|5449|dock8
  -GOLD-   22720 5 23D 1   1.00000     0.00000
 Structure written by MMmdl.
 50 51  0  0  0  0  0  0  0  0  2 V2000
  149.5223  132.5323  154.4274 C   0  0  0  0  0  0  0  0  0  0  0  0
  148.8272  133.2622  153.2670 C   0  0  0  0  0  0  0  0  0  0  0  0
  147.5620  134.0733  153.6669 C   0  0  1  0  0  0  0  0  0  0  0  0
  147.9261  135.1045  154.7752 C   0  0  0  0  0  0  0  0  0  0  0  0
  148.7837  136.1970  154.3292 N   0  0  0  0  0  0  0  0  0  0  0  0
  149.2137  137.2058  155.1048 C   0  0  0  0  0  0  0  0  0  0  0  0
  148.9110  137.3144  156.2924 O   0  0  0  0  0  0  0  0  0  0  0  0
  150.0909  138.2725  154.4422 C   0  0  0  0  0  0  0  0  0  0  0  0
  149.3707  139.5975  154.3610 C   0  0  0  0  0  0  0  0  0  0  0  0
  149.7737  140.8375  154.9395 C   0  0  0  0  0  0  0  0  0  0  0  0
  150.9959  141.1296  155.7628 C   0  0  0  0  0  0  0  0  0  0  0  0
  148.9216  141.8151  154.6817 N   0  0  0  0  0  0  0  0  0  0  0  0
  147.9558  141.2432  153.9358 N   0  0  0  0  0  0  0  0  0  0  0  0
  146.8438  142.0513  153.4737 C   0  0  0  0  0  0  0  0  0  0  0  0
  148.1960  139.8994  153.7235 C   0  0  0  0  0  0  0  0  0  0  0  0
  147.2702  139.0443  152.9185 C   0  0  0  0  0  0  0  0  0  0  0  0
  146.9325  134.7500  152.4841 N   0  3  0  0  0  0  0  0  0  0  0  0
  146.4439  133.8724  151.3961 C   0  0  0  0  0  0  0  0  0  0  0  0
  145.5010  134.7424  150.5746 C   0  0  0  0  0  0  0  0  0  0  0  0
  144.8017  135.5807  151.6361 C   0  0  0  0  0  0  0  0  0  0  0  0
  145.8140  135.6829  152.7849 C   0  0  0  0  0  0  0  0  0  0  0  0
  150.2883  131.8557  154.0478 H   0  0  0  0  0  0  0  0  0  0  0  0
  148.8127  131.9360  155.0012 H   0  0  0  0  0  0  0  0  0  0  0  0
  150.0202  133.2194  155.1103 H   0  0  0  0  0  0  0  0  0  0  0  0
  149.5446  133.9112  152.7636 H   0  0  0  0  0  0  0  0  0  0  0  0
  148.5683  132.4834  152.5511 H   0  0  0  0  0  0  0  0  0  0  0  0
  146.8395  133.3578  154.0625 H   0  0  0  0  0  0  0  0  0  0  0  0
  147.0338  135.5568  155.2057 H   0  0  0  0  0  0  0  0  0  0  0  0
  148.4285  134.5968  155.5991 H   0  0  0  0  0  0  0  0  0  0  0  0
  149.0906  136.1783  153.3672 H   0  0  0  0  0  0  0  0  0  0  0  0
  151.0197  138.3507  155.0070 H   0  0  0  0  0  0  0  0  0  0  0  0
  150.3764  137.9260  153.4481 H   0  0  0  0  0  0  0  0  0  0  0  0
  151.8092  140.4452  155.5218 H   0  0  0  0  0  0  0  0  0  0  0  0
  150.7819  141.0287  156.8268 H   0  0  0  0  0  0  0  0  0  0  0  0
  151.3604  142.1428  155.5903 H   0  0  0  0  0  0  0  0  0  0  0  0
  146.6894  141.8917  152.4065 H   0  0  0  0  0  0  0  0  0  0  0  0
  147.0402  143.1105  153.6446 H   0  0  0  0  0  0  0  0  0  0  0  0
  145.9389  141.7676  154.0112 H   0  0  0  0  0  0  0  0  0  0  0  0
  147.5130  137.9872  153.0202 H   0  0  0  0  0  0  0  0  0  0  0  0
  147.3317  139.3008  151.8607 H   0  0  0  0  0  0  0  0  0  0  0  0
  146.2371  139.1785  153.2400 H   0  0  0  0  0  0  0  0  0  0  0  0
  147.2588  133.4783  150.7879 H   0  0  0  0  0  0  0  0  0  0  0  0
  145.8879  133.0339  151.8191 H   0  0  0  0  0  0  0  0  0  0  0  0
  146.0757  135.3877  149.9087 H   0  0  0  0  0  0  0  0  0  0  0  0
  144.8069  134.1613  149.9666 H   0  0  0  0  0  0  0  0  0  0  0  0
  144.4961  136.5570  151.2582 H   0  0  0  0  0  0  0  0  0  0  0  0
  143.9050  135.0641  151.9815 H   0  0  0  0  0  0  0  0  0  0  0  0
  145.3198  135.4284  153.7231 H   0  0  0  0  0  0  0  0  0  0  0  0
  146.2006  136.6987  152.8736 H   0  0  0  0  0  0  0  0  0  0  0  0
  147.6555  135.3120  152.0581 H   0  0  0  0  0  0  0  0  0  0  0  0
  1  2  1  0  0  0  0
  1 22  1  0  0  0  0
  1 23  1  0  0  0  0
  1 24  1  0  0  0  0
  2  3  1  0  0  0  0
  2 25  1  0  0  0  0
  2 26  1  0  0  0  0
  3  4  1  0  0  0  0
  3 17  1  0  0  0  0
  3 27  1  0  0  0  0
  4  5  1  0  0  0  0
  4 28  1  0  0  0  0
  4 29  1  0  0  0  0
  5  6  1  0  0  0  0
  5 30  1  0  0  0  0
  6  7  2  0  0  0  0
  6  8  1  0  0  0  0
  8  9  1  0  0  0  0
  8 31  1  0  0  0  0
  8 32  1  0  0  0  0
  9 15  2  0  0  0  0
  9 10  1  0  0  0  0
 10 11  1  0  0  0  0
 10 12  2  0  0  0  0
 11 33  1  0  0  0  0
 11 34  1  0  0  0  0
 11 35  1  0  0  0  0
 12 13  1  0  0  0  0
 13 14  1  0  0  0  0
 13 15  1  0  0  0  0
 14 36  1  0  0  0  0
 14 37  1  0  0  0  0
 14 38  1  0  0  0  0
 15 16  1  0  0  0  0
 16 39  1  0  0  0  0
 16 40  1  0  0  0  0
 16 41  1  0  0  0  0
 17 21  1  0  0  0  0
 17 18  1  0  0  0  0
 17 50  1  0  0  0  0
 18 19  1  0  0  0  0
 18 42  1  0  0  0  0
 18 43  1  0  0  0  0
 19 20  1  0  0  0  0
 19 44  1  0  0  0  0
 19 45  1  0  0  0  0
 20 21  1  0  0  0  0
 20 46  1  0  0  0  0
 20 47  1  0  0  0  0
 21 48  1  0  0  0  0
 21 49  1  0  0  0  0
M  CHG  1  17   1
M  END
> <s_m_source_file>
AV-unprocessed.smi

> <i_m_source_file_index>
1312

> <i_lp_mmshare_version>
43012

> <i_f3d_flags>
0

> <s_epik_input>
W0NIMl0xW0NIMl1bQ0gyXVtDSDJdTjFbQ0BIXShbQ0gyXVtDSDNdKVtDSDJdW05IXUMoPU8pW0NIMl1jMmMoW0NIM10pbm4oW0NIM10pYzJbQ0gzXQ==

> <s_epik_cmdline>
J2VwaWtfcHl0aG9uJywgJy1waCcsICc3LjAnLCAnLXRuJywgJzgnLCAnLW1hJywgJzIwMCcsICctbWV0YWxfYmluZGluZycsICctaW1hZScsICc8aW5maWxlLm1hZT4nLCAnLW9tYWUnLCAnPG91dGZpbGUubWFlPic=

> <r_lp_tautomer_probability>
1

> <r_epik_Ionization_Penalty>
0.00585463

> <r_epik_Ionization_Penalty_Charging>
0.00366302

> <r_epik_Ionization_Penalty_Neutral>
0.00219161

> <r_epik_State_Penalty>
-0

> <r_epik_Charging_Adjusted_Penalty>
0.00366302

> <i_epik_Tot_Q>
1

> <i_epik_Tot_abs_Q>
1

> <r_epik_Metal_State_Penalty>
-0

> <b_epik_Metal_Only>
0

> <s_lp_Force_Field>
OPLS_2005

> <r_lp_Energy>
35.2401

> <b_lp_Chiralities_Consistent>
1

> <s_lp_Variant>
AV-unprocessed.smi:1312-2

> <Gold.Version>
5.8.1

> <Gold.Id.Protein>
6NUR|6NUR_protein|mol2

> <Gold.PLP.Fitness>
47.2228

> <Gold.PLP.PLP>
-38.3682

> <Gold.PLP.part.hbond>
-1.9835

> <Gold.PLP.part.metal>
0.0000

> <Gold.PLP.part.buried>
-2.5161

> <Gold.PLP.part.nonpolar>
-33.8473

> <Gold.PLP.part.repulsive>
0.1499

> <Gold.PLP.ligand.clash>
0.0000

> <Gold.PLP.ligand.torsion>
0.1273

> <Gold.PLP.Chemscore.Hbond>
3.0000

> <Gold.PLP.Chemscore.CHOScore>
0.0000

> <Gold.PLP.Chemscore.Metal>
0.0000

> <Gold.Chemscore.Hbonds>
donor molecule, donor type, donor heavy atom, donor atom, acceptor molecule, acceptor atom, score
      L1  H     5    30       P1  7948  0.91
      L1  H    17    50       P1  7948  2.00

> <Gold.PLP.Chemscore.Internal.Correction>
0.1094

> <Gold.Rescore>
     Score         DG    S(hbond)    S(metal)    S(lipo)     H(rot)  DE(clash)    DE(int)     intcor
     17.24     -17.41       1.96        0.00      83.74       1.72       0.02       0.14       ----

> <Gold.Chemscore.Fitness>
17.2444

> <Gold.Chemscore.DG>
-17.4081

> <Gold.Chemscore.ZeroCoef>
-5.4800

> <Gold.Chemscore.Hbond>
1.9572

> <Gold.Chemscore.Metal>
0.0000

> <Gold.Chemscore.Lipo>
83.7411

> <Gold.Chemscore.Internal_Hbond>
0.0000

> <Gold.Chemscore.DEClash>
0.0231

> <Gold.Chemscore.DEInternal>
0.1406

> <Gold.Chemscore.Rot>
1.7213

> <Gold.Chemscore.Internal.Correction>
   9.000000E+99

> <Gold.Chemscore.Hbonds>
donor molecule, donor type, donor heavy atom, donor atom, acceptor molecule, acceptor atom, score
      L1  H     5    30       P1  7948  0.82
      L1  H    17    50       P1  7948  0.95

> <Gold.Chemscore.Hbond.Weighted>
-6.5369

> <Gold.Chemscore.Metal.Weighted>
-0.0000

> <Gold.Chemscore.Lipo.Weighted>
-9.7977

> <Gold.Chemscore.Internal_Hbond.Weighted>
0.0000

> <Gold.Chemscore.DEClash.Weighted>
0.0231

> <Gold.Chemscore.DEInternal.Weighted>
0.1406

> <Gold.Chemscore.Rot.Weighted>
4.4065

> <Gold.Chemscore.Internal.Correction.Weighted>
   9.000000E+99

> <Gold.Protein.RotatedTorsions>
[ 6907 6896 6895 6894 ] final   51.25 input  -60.11 | X-H torsion
[ 7974 7965 7964 7962 ] final -162.83 input  175.53 | X-H torsion
[ 8008 7997 7996 7995 ] final   25.58 input   59.86 | X-H torsion
[ 10167 10162 10161 10158 ] final  -85.55 input  -65.29 | X-H torsion
[ 10718 10713 10712 10709 ] final   70.89 input   66.30 | X-H torsion
[ 10763 10752 10751 10750 ] final   30.04 input  -60.55 | X-H torsion
[ 11005 11000 10999 10996 ] final  -47.34 input  -57.11 | X-H torsion

> <Gold.Protein.ActiveResidues>
 VAL166  LYS551  ARG553  GLY616  TRP617  ASP618  TYR619  PRO620  LYS621  CYS622 
 ASP623  PHE694  ASN695  SER759  ASP760  ASP761  ALA762  ILE779  LEU786  VAL792 
 PHE793  MET794  SER795  GLU796  ALA797  LYS798  CYS799  TRP800  GLU811  SER814 

> <Gold.Protein.RotatedAtoms>
  152.3107  134.7501  160.0336 H   0  0  0  0  0  0  0  0  0  0  0  0  # atno 6907 bound_to 6896
  151.7983  133.3362  159.3527 H   0  0  0  0  0  0  0  0  0  0  0  0  # atno 6908 bound_to 6896
  150.7318  134.5708  159.5933 H   0  0  0  0  0  0  0  0  0  0  0  0  # atno 6909 bound_to 6896
  144.7345  140.3196  143.6173 H   0  0  0  0  0  0  0  0  0  0  0  0  # atno 7974 bound_to 7965
  155.0140  140.3140  155.4819 H   0  0  0  0  0  0  0  0  0  0  0  0  # atno 8008 bound_to 7997
  156.2904  140.2209  156.5197 H   0  0  0  0  0  0  0  0  0  0  0  0  # atno 8009 bound_to 7997
  154.7510  140.0466  157.0881 H   0  0  0  0  0  0  0  0  0  0  0  0  # atno 8010 bound_to 7997
  140.4027  143.2656  151.9122 H   0  0  0  0  0  0  0  0  0  0  0  0  # atno 10167 bound_to 10162
  157.6423  130.9500  150.0713 H   0  0  0  0  0  0  0  0  0  0  0  0  # atno 10718 bound_to 10713
  153.0395  135.6474  154.0983 H   0  0  0  0  0  0  0  0  0  0  0  0  # atno 10763 bound_to 10752
  154.0692  135.2882  155.3313 H   0  0  0  0  0  0  0  0  0  0  0  0  # atno 10764 bound_to 10752
  154.6606  135.5393  153.8077 H   0  0  0  0  0  0  0  0  0  0  0  0  # atno 10765 bound_to 10752
  141.0635  133.6701  156.3284 H   0  0  0  0  0  0  0  0  0  0  0  0  # atno 11005 bound_to 11000
  145.7583  139.1816  143.2282 LP  0  0  0  0  0  0  0  0  0  0  0  0  # atno 17320 bound_to 7965
  146.1007  140.7547  142.9550 LP  0  0  0  0  0  0  0  0  0  0  0  0  # atno 17321 bound_to 7965
  139.4784  144.5617  151.8228 LP  0  0  0  0  0  0  0  0  0  0  0  0  # atno 17342 bound_to 10162
  140.4723  144.1569  150.5920 LP  0  0  0  0  0  0  0  0  0  0  0  0  # atno 17343 bound_to 10162
  156.1716  130.3646  149.9157 LP  0  0  0  0  0  0  0  0  0  0  0  0  # atno 17370 bound_to 10713
  156.7131  130.8977  151.3611 LP  0  0  0  0  0  0  0  0  0  0  0  0  # atno 17371 bound_to 10713
  140.5821  134.5735  157.5482 LP  0  0  0  0  0  0  0  0  0  0  0  0  # atno 17394 bound_to 11000
  139.9454  134.7711  156.0575 LP  0  0  0  0  0  0  0  0  0  0  0  0  # atno 17395 bound_to 11000

$$$$
