AV-unprocessed.smi:153|AV-procd|sdf|1258|dock10
  -GOLD-   2262018503D 1   1.00000     0.00000
 Structure written by MMmdl.
 59 62  0  0  0  0  0  0  0  0  1 V2000
  142.9680  133.7468  151.9764 C   0  0  0  0  0  0  0  0  0  0  0  0
  144.1727  133.9074  151.0367 C   0  0  2  0  0  0  0  0  0  0  0  0
  145.0119  132.7661  151.1837 O   0  0  0  0  0  0  0  0  0  0  0  0
  146.3327  133.1376  150.8337 C   0  0  0  0  0  0  0  0  0  0  0  0
  146.4674  134.4994  151.4971 C   0  0  0  0  0  0  0  0  0  0  0  0
  145.0962  135.1366  151.2730 C   0  0  1  0  0  0  0  0  0  0  0  0
  145.1513  135.8695  150.0608 O   0  0  0  0  0  0  0  0  0  0  0  0
  144.6765  136.1096  152.4072 C   0  0  0  0  0  0  0  0  0  0  0  0
  145.7284  137.0416  152.7861 N   0  0  0  0  0  0  0  0  0  0  0  0
  146.4590  137.8441  151.9416 C   0  0  0  0  0  0  0  0  0  0  0  0
  147.3420  138.6047  152.5265 N   0  0  0  0  0  0  0  0  0  0  0  0
  147.2234  138.3043  153.8805 C   0  0  0  0  0  0  0  0  0  0  0  0
  147.8684  138.7609  155.0724 C   0  0  0  0  0  0  0  0  0  0  0  0
  148.8352  139.7259  155.1135 N   0  0  0  0  0  0  0  0  0  0  0  0
  148.7935  140.8064  154.1350 C   0  0  0  0  0  0  0  0  0  0  0  0
  149.5778  139.9681  156.3531 C   0  0  0  0  0  0  0  0  0  0  0  0
  151.1024  140.0753  156.1240 C   0  0  2  0  0  0  0  0  0  0  0  0
  151.4858  139.0733  155.2032 O   0  0  0  0  0  0  0  0  0  0  0  0
  151.8915  139.8357  157.4290 C   0  0  0  0  0  0  0  0  0  0  0  0
  151.8308  140.9222  158.4078 N   0  0  0  0  0  0  0  0  0  0  0  0
  151.8498  142.2218  157.7445 C   0  0  0  0  0  0  0  0  0  0  0  0
  151.7924  143.3838  158.7512 C   0  0  0  0  0  0  0  0  0  0  0  0
  152.8791  143.2752  159.6645 O   0  0  0  0  0  0  0  0  0  0  0  0
  152.8794  142.0388  160.3700 C   0  0  0  0  0  0  0  0  0  0  0  0
  152.9331  140.8711  159.3696 C   0  0  0  0  0  0  0  0  0  0  0  0
  147.4740  138.1783  156.2383 N   0  0  0  0  0  0  0  0  0  0  0  0
  146.5196  137.2452  156.2550 C   0  0  0  0  0  0  0  0  0  0  0  0
  145.8296  136.7438  155.2317 N   0  0  0  0  0  0  0  0  0  0  0  0
  146.2192  137.3060  154.0531 C   0  0  0  0  0  0  0  0  0  0  0  0
  142.2876  134.5945  151.8978 H   0  0  0  0  0  0  0  0  0  0  0  0
  143.2786  133.6507  153.0165 H   0  0  0  0  0  0  0  0  0  0  0  0
  142.4019  132.8503  151.7227 H   0  0  0  0  0  0  0  0  0  0  0  0
  143.8055  133.9037  150.0084 H   0  0  0  0  0  0  0  0  0  0  0  0
  147.0650  132.4157  151.1954 H   0  0  0  0  0  0  0  0  0  0  0  0
  146.4237  133.2151  149.7490 H   0  0  0  0  0  0  0  0  0  0  0  0
  146.6409  134.3479  152.5630 H   0  0  0  0  0  0  0  0  0  0  0  0
  147.2991  135.0875  151.1062 H   0  0  0  0  0  0  0  0  0  0  0  0
  144.8328  136.7442  150.2236 H   0  0  0  0  0  0  0  0  0  0  0  0
  143.7970  136.6848  152.1147 H   0  0  0  0  0  0  0  0  0  0  0  0
  144.3978  135.5522  153.3018 H   0  0  0  0  0  0  0  0  0  0  0  0
  146.3121  137.8531  150.8712 H   0  0  0  0  0  0  0  0  0  0  0  0
  149.1599  140.4611  153.1681 H   0  0  0  0  0  0  0  0  0  0  0  0
  149.4227  141.6412  154.4449 H   0  0  0  0  0  0  0  0  0  0  0  0
  147.7784  141.1866  154.0142 H   0  0  0  0  0  0  0  0  0  0  0  0
  149.1938  140.8792  156.8134 H   0  0  0  0  0  0  0  0  0  0  0  0
  149.3516  139.1815  157.0746 H   0  0  0  0  0  0  0  0  0  0  0  0
  151.3426  141.0481  155.6981 H   0  0  0  0  0  0  0  0  0  0  0  0
  152.1131  138.5043  155.6218 H   0  0  0  0  0  0  0  0  0  0  0  0
  151.5274  138.9250  157.9074 H   0  0  0  0  0  0  0  0  0  0  0  0
  152.9311  139.6291  157.1690 H   0  0  0  0  0  0  0  0  0  0  0  0
  152.7521  142.3154  157.1379 H   0  0  0  0  0  0  0  0  0  0  0  0
  151.0042  142.2998  157.0602 H   0  0  0  0  0  0  0  0  0  0  0  0
  151.8577  144.3396  158.2311 H   0  0  0  0  0  0  0  0  0  0  0  0
  150.8468  143.3779  159.2957 H   0  0  0  0  0  0  0  0  0  0  0  0
  153.7428  142.0081  161.0347 H   0  0  0  0  0  0  0  0  0  0  0  0
  151.9889  141.9691  160.9966 H   0  0  0  0  0  0  0  0  0  0  0  0
  152.9142  139.9379  159.9300 H   0  0  0  0  0  0  0  0  0  0  0  0
  153.8874  140.8960  158.8409 H   0  0  0  0  0  0  0  0  0  0  0  0
  146.2719  136.8462  157.2277 H   0  0  0  0  0  0  0  0  0  0  0  0
  1  2  1  0  0  0  0
  1 30  1  0  0  0  0
  1 31  1  0  0  0  0
  1 32  1  0  0  0  0
  2  6  1  0  0  0  0
  2  3  1  0  0  0  0
  2 33  1  0  0  0  0
  3  4  1  0  0  0  0
  4  5  1  0  0  0  0
  4 34  1  0  0  0  0
  4 35  1  0  0  0  0
  5  6  1  0  0  0  0
  5 36  1  0  0  0  0
  5 37  1  0  0  0  0
  6  7  1  0  0  0  0
  6  8  1  0  0  0  0
  7 38  1  0  0  0  0
  8  9  1  0  0  0  0
  8 39  1  0  0  0  0
  8 40  1  0  0  0  0
  9 29  1  0  0  0  0
  9 10  1  0  0  0  0
 10 11  2  0  0  0  0
 10 41  1  0  0  0  0
 11 12  1  0  0  0  0
 12 29  2  0  0  0  0
 12 13  1  0  0  0  0
 13 14  1  0  0  0  0
 13 26  2  0  0  0  0
 14 15  1  0  0  0  0
 14 16  1  0  0  0  0
 15 42  1  0  0  0  0
 15 43  1  0  0  0  0
 15 44  1  0  0  0  0
 16 17  1  0  0  0  0
 16 45  1  0  0  0  0
 16 46  1  0  0  0  0
 17 18  1  0  0  0  0
 17 19  1  0  0  0  0
 17 47  1  0  0  0  0
 18 48  1  0  0  0  0
 19 20  1  0  0  0  0
 19 49  1  0  0  0  0
 19 50  1  0  0  0  0
 20 25  1  0  0  0  0
 20 21  1  0  0  0  0
 21 22  1  0  0  0  0
 21 51  1  0  0  0  0
 21 52  1  0  0  0  0
 22 23  1  0  0  0  0
 22 53  1  0  0  0  0
 22 54  1  0  0  0  0
 23 24  1  0  0  0  0
 24 25  1  0  0  0  0
 24 55  1  0  0  0  0
 24 56  1  0  0  0  0
 25 57  1  0  0  0  0
 25 58  1  0  0  0  0
 26 27  1  0  0  0  0
 27 28  2  0  0  0  0
 27 59  1  0  0  0  0
 28 29  1  0  0  0  0
M  END
> <s_m_source_file>
AV-unprocessed.smi

> <i_m_source_file_index>
153

> <i_lp_mmshare_version>
43012

> <i_f3d_flags>
0

> <s_epik_input>
W0NIMl0xW0NIMl1PW0NAQEhdKFtDSDNdKVtDQEBdMShbT0hdKVtDSDJdbihbY0hdbjIpYyhjMjMpbltjSF1uYzNOKFtDSDNdKVtDSDJdW0NASF0oW09IXSlbQ0gyXU40W0NIMl1bQ0gyXU9bQ0gyXVtDSDJdNA==

> <s_epik_cmdline>
J2VwaWtfcHl0aG9uJywgJy1waCcsICc3LjAnLCAnLXRuJywgJzgnLCAnLW1hJywgJzIwMCcsICctbWV0YWxfYmluZGluZycsICctaW1hZScsICc8aW5maWxlLm1hZT4nLCAnLW9tYWUnLCAnPG91dGZpbGUubWFlPic=

> <r_lp_tautomer_probability>
1

> <r_epik_Ionization_Penalty>
0.424123

> <r_epik_Ionization_Penalty_Charging>
0

> <r_epik_Ionization_Penalty_Neutral>
0.424123

> <r_epik_State_Penalty>
0.421495

> <r_epik_Charging_Adjusted_Penalty>
0.421495

> <i_epik_Tot_Q>
0

> <i_epik_Tot_abs_Q>
0

> <r_epik_Metal_State_Penalty>
0.421223

> <b_epik_Metal_Only>
0

> <s_lp_Force_Field>
OPLS_2005

> <r_lp_Energy>
56.4475

> <b_lp_Chiralities_Consistent>
1

> <s_lp_Variant>
AV-unprocessed.smi:153-9

> <Gold.Version>
5.8.1

> <Gold.Id.Protein>
6NUR|6NUR_protein|mol2

> <Gold.PLP.Fitness>
53.1445

> <Gold.PLP.PLP>
-46.2411

> <Gold.PLP.part.hbond>
-3.0000

> <Gold.PLP.part.metal>
0.0000

> <Gold.PLP.part.buried>
-4.7001

> <Gold.PLP.part.nonpolar>
-39.1485

> <Gold.PLP.part.repulsive>
1.4381

> <Gold.PLP.ligand.clash>
0.0000

> <Gold.PLP.ligand.torsion>
1.0026

> <Gold.PLP.Chemscore.Hbond>
2.0000

> <Gold.PLP.Chemscore.CHOScore>
0.8203

> <Gold.PLP.Chemscore.Metal>
0.0000

> <Gold.Chemscore.Hbonds>
donor molecule, donor type, donor heavy atom, donor atom, acceptor molecule, acceptor atom, score
      L1  H     7    38       P1 10171  0.81
      L1  C    10    41       P1 10171  0.37

> <Gold.PLP.Chemscore.Internal.Correction>
0.4478

> <Gold.Rescore>
     Score         DG    S(hbond)    S(metal)    S(lipo)     H(rot)  DE(clash)    DE(int)     intcor
     11.11     -13.88       1.88        0.00      95.07       3.52       1.37       1.41       ----

> <Gold.Chemscore.Fitness>
11.1053

> <Gold.Chemscore.DG>
-13.8803

> <Gold.Chemscore.ZeroCoef>
-5.4800

> <Gold.Chemscore.Hbond>
1.8804

> <Gold.Chemscore.Metal>
0.0000

> <Gold.Chemscore.Lipo>
95.0706

> <Gold.Chemscore.Internal_Hbond>
0.0000

> <Gold.Chemscore.DEClash>
1.3669

> <Gold.Chemscore.DEInternal>
1.4081

> <Gold.Chemscore.Rot>
3.5170

> <Gold.Chemscore.Internal.Correction>
   9.000000E+99

> <Gold.Chemscore.Hbonds>
donor molecule, donor type, donor heavy atom, donor atom, acceptor molecule, acceptor atom, score
      L1  H     7    38       P1 10171  0.79

> <Gold.Chemscore.Hbond.Weighted>
-6.2806

> <Gold.Chemscore.Metal.Weighted>
-0.0000

> <Gold.Chemscore.Lipo.Weighted>
-11.1233

> <Gold.Chemscore.Internal_Hbond.Weighted>
0.0000

> <Gold.Chemscore.DEClash.Weighted>
1.3669

> <Gold.Chemscore.DEInternal.Weighted>
1.4081

> <Gold.Chemscore.Rot.Weighted>
9.0036

> <Gold.Chemscore.Internal.Correction.Weighted>
   9.000000E+99

> <Gold.Protein.RotatedTorsions>
[ 6907 6896 6895 6894 ] final  -17.02 input  -60.11 | X-H torsion
[ 7974 7965 7964 7962 ] final  107.40 input  175.53 | X-H torsion
[ 8008 7997 7996 7995 ] final  152.04 input   59.86 | X-H torsion
[ 10167 10162 10161 10158 ] final   58.52 input  -65.29 | X-H torsion
[ 10718 10713 10712 10709 ] final   48.50 input   66.30 | X-H torsion
[ 10763 10752 10751 10750 ] final  118.25 input  -60.55 | X-H torsion
[ 11005 11000 10999 10996 ] final   89.39 input  -57.11 | X-H torsion

> <Gold.Protein.ActiveResidues>
 VAL166  LYS551  ARG553  GLY616  TRP617  ASP618  TYR619  PRO620  LYS621  CYS622 
 ASP623  PHE694  ASN695  SER759  ASP760  ASP761  ALA762  ILE779  LEU786  VAL792 
 PHE793  MET794  SER795  GLU796  ALA797  LYS798  CYS799  TRP800  GLU811  SER814 

> <Gold.Protein.RotatedAtoms>
  151.2997  135.0765  159.9233 H   0  0  0  0  0  0  0  0  0  0  0  0  # atno 6907 bound_to 6896
  152.5300  133.9846  159.7833 H   0  0  0  0  0  0  0  0  0  0  0  0  # atno 6908 bound_to 6896
  151.0131  133.5895  159.2711 H   0  0  0  0  0  0  0  0  0  0  0  0  # atno 6909 bound_to 6896
  145.2941  139.2590  143.3849 H   0  0  0  0  0  0  0  0  0  0  0  0  # atno 7974 bound_to 7965
  156.2647  140.2031  156.6271 H   0  0  0  0  0  0  0  0  0  0  0  0  # atno 8008 bound_to 7997
  154.6711  140.0550  157.0191 H   0  0  0  0  0  0  0  0  0  0  0  0  # atno 8009 bound_to 7997
  155.1135  140.3218  155.4518 H   0  0  0  0  0  0  0  0  0  0  0  0  # atno 8010 bound_to 7997
  140.1863  144.4131  150.6592 H   0  0  0  0  0  0  0  0  0  0  0  0  # atno 10167 bound_to 10162
  157.4692  130.8245  149.7970 H   0  0  0  0  0  0  0  0  0  0  0  0  # atno 10718 bound_to 10713
  153.5647  135.3514  155.2813 H   0  0  0  0  0  0  0  0  0  0  0  0  # atno 10763 bound_to 10752
  154.8690  135.4145  154.2792 H   0  0  0  0  0  0  0  0  0  0  0  0  # atno 10764 bound_to 10752
  153.3545  135.7057  153.6831 H   0  0  0  0  0  0  0  0  0  0  0  0  # atno 10765 bound_to 10752
  139.8876  134.8548  156.3135 H   0  0  0  0  0  0  0  0  0  0  0  0  # atno 11005 bound_to 11000
  146.3175  140.3439  142.8650 LP  0  0  0  0  0  0  0  0  0  0  0  0  # atno 17320 bound_to 7965
  144.9148  140.7800  143.5785 LP  0  0  0  0  0  0  0  0  0  0  0  0  # atno 17321 bound_to 7965
  140.6486  143.2219  151.6129 LP  0  0  0  0  0  0  0  0  0  0  0  0  # atno 17342 bound_to 10162
  139.5275  144.3016  152.1069 LP  0  0  0  0  0  0  0  0  0  0  0  0  # atno 17343 bound_to 10162
  156.0065  130.3853  150.2412 LP  0  0  0  0  0  0  0  0  0  0  0  0  # atno 17370 bound_to 10713
  157.0594  131.0085  151.3227 LP  0  0  0  0  0  0  0  0  0  0  0  0  # atno 17371 bound_to 10713
  140.9834  133.7253  156.0706 LP  0  0  0  0  0  0  0  0  0  0  0  0  # atno 17394 bound_to 11000
  140.7719  134.3823  157.5506 LP  0  0  0  0  0  0  0  0  0  0  0  0  # atno 17395 bound_to 11000

$$$$
