AV-unprocessed.smi:1490|AV-procd|sdf|6031|dock10
  -GOLD-   22720 6133D 1   1.00000     0.00000
 Structure written by MMmdl.
 37 38  0  0  0  0  0  0  0  0  3 V2000
  152.1095  138.8705  156.0002 C   0  0  0  0  0  0  0  0  0  0  0  0
  152.9728  139.1422  157.0892 O   0  0  0  0  0  0  0  0  0  0  0  0
  153.1007  138.0449  157.9784 C   0  0  0  0  0  0  0  0  0  0  0  0
  152.4308  138.3929  159.3154 C   0  0  0  0  0  0  0  0  0  0  0  0
  153.0197  139.5887  159.9343 N   0  0  0  0  0  0  0  0  0  0  0  0
  153.9821  139.7038  160.8920 C   0  0  0  0  0  0  0  0  0  0  0  0
  154.8303  138.3769  161.6831 S   0  0  0  0  0  0  0  0  0  0  0  0
  153.5329  137.3567  162.4392 C   0  0  0  0  0  0  0  0  0  0  0  0
  153.9976  136.6856  163.7311 C   0  0  0  0  0  0  0  0  0  0  0  0
  154.3220  137.3796  164.6936 O   0  0  0  0  0  0  0  0  0  0  0  0
  153.9832  135.3382  163.6299 N   0  5  0  0  0  0  0  0  0  0  0  0
  154.6343  134.5481  164.6559 C   0  0  0  0  0  0  0  0  0  0  0  0
  153.7165  133.5223  165.1747 C   0  0  0  0  0  0  0  0  0  0  0  0
  152.9945  132.7146  165.5826 N   0  0  0  0  0  0  0  0  0  0  0  0
  154.1611  141.0305  161.1400 N   0  3  0  0  0  0  0  0  0  0  0  0
  153.2967  141.7754  160.3361 C   0  0  0  0  0  0  0  0  0  0  0  0
  153.1070  143.1497  160.2319 C   0  0  0  0  0  0  0  0  0  0  0  0
  152.1314  143.5880  159.3122 C   0  0  0  0  0  0  0  0  0  0  0  0
  151.8417  145.2786  159.1296 Cl  0  0  0  0  0  0  0  0  0  0  0  0
  151.3877  142.6704  158.5410 C   0  0  0  0  0  0  0  0  0  0  0  0
  151.5879  141.2787  158.6543 C   0  0  0  0  0  0  0  0  0  0  0  0
  152.5572  140.8555  159.5628 C   0  0  0  0  0  0  0  0  0  0  0  0
  152.0509  139.7464  155.3539 H   0  0  0  0  0  0  0  0  0  0  0  0
  151.1012  138.6380  156.3448 H   0  0  0  0  0  0  0  0  0  0  0  0
  152.4782  138.0352  155.4038 H   0  0  0  0  0  0  0  0  0  0  0  0
  152.6323  137.1578  157.5501 H   0  0  0  0  0  0  0  0  0  0  0  0
  154.1557  137.8148  158.1355 H   0  0  0  0  0  0  0  0  0  0  0  0
  151.3691  138.5877  159.1612 H   0  0  0  0  0  0  0  0  0  0  0  0
  152.4918  137.5596  160.0157 H   0  0  0  0  0  0  0  0  0  0  0  0
  152.6621  137.9822  162.6374 H   0  0  0  0  0  0  0  0  0  0  0  0
  153.2147  136.5923  161.7286 H   0  0  0  0  0  0  0  0  0  0  0  0
  155.5189  134.0268  164.2881 H   0  0  0  0  0  0  0  0  0  0  0  0
  154.9560  135.1520  165.5047 H   0  0  0  0  0  0  0  0  0  0  0  0
  153.6740  143.8524  160.8248 H   0  0  0  0  0  0  0  0  0  0  0  0
  150.6466  143.0410  157.8476 H   0  0  0  0  0  0  0  0  0  0  0  0
  151.0101  140.5855  158.0611 H   0  0  0  0  0  0  0  0  0  0  0  0
  154.8204  141.3933  161.8164 H   0  0  0  0  0  0  0  0  0  0  0  0
  1  2  1  0  0  0  0
  1 23  1  0  0  0  0
  1 24  1  0  0  0  0
  1 25  1  0  0  0  0
  2  3  1  0  0  0  0
  3  4  1  0  0  0  0
  3 26  1  0  0  0  0
  3 27  1  0  0  0  0
  4  5  1  0  0  0  0
  4 28  1  0  0  0  0
  4 29  1  0  0  0  0
  5 22  1  0  0  0  0
  5  6  1  0  0  0  0
  6  7  1  0  0  0  0
  6 15  2  0  0  0  0
  7  8  1  0  0  0  0
  8  9  1  0  0  0  0
  8 30  1  0  0  0  0
  8 31  1  0  0  0  0
  9 10  2  0  0  0  0
  9 11  1  0  0  0  0
 11 12  1  0  0  0  0
 12 13  1  0  0  0  0
 12 32  1  0  0  0  0
 12 33  1  0  0  0  0
 13 14  3  0  0  0  0
 15 16  1  0  0  0  0
 15 37  1  0  0  0  0
 16 22  2  0  0  0  0
 16 17  1  0  0  0  0
 17 18  2  0  0  0  0
 17 34  1  0  0  0  0
 18 19  1  0  0  0  0
 18 20  1  0  0  0  0
 20 21  2  0  0  0  0
 20 35  1  0  0  0  0
 21 22  1  0  0  0  0
 21 36  1  0  0  0  0
M  CHG  1  11  -1
M  CHG  1  15   1
M  END
> <s_m_source_file>
AV-unprocessed.smi

> <i_m_source_file_index>
1490

> <i_lp_mmshare_version>
43012

> <i_f3d_flags>
0

> <s_epik_input>
W2NIXTFjKENsKVtjSF1bY0hdYyhjMTIpbihbQ0gyXVtDSDJdT1tDSDNdKWMobjIpU1tDSDJdQyg9TylbTkhdW0NIMl1DI04=

> <s_epik_cmdline>
J2VwaWtfcHl0aG9uJywgJy1waCcsICc3LjAnLCAnLXRuJywgJzgnLCAnLW1hJywgJzIwMCcsICctbWV0YWxfYmluZGluZycsICctaW1hZScsICc8aW5maWxlLm1hZT4nLCAnLW9tYWUnLCAnPG91dGZpbGUubWFlPic=

> <r_epik_Ionization_Penalty>
9.25224

> <r_epik_Ionization_Penalty_Charging>
9.25224

> <r_epik_Ionization_Penalty_Neutral>
2.90678e-12

> <r_epik_State_Penalty>
9.37242

> <r_epik_Charging_Adjusted_Penalty>
18.6247

> <i_epik_Tot_Q>
0

> <i_epik_Tot_abs_Q>
2

> <r_epik_Metal_State_Penalty>
5.29561

> <b_epik_Metal_Only>
1

> <s_lp_Force_Field>
OPLS_2005

> <r_lp_Energy>
5.70634

> <b_lp_Chiralities_Consistent>
1

> <s_lp_Variant>
AV-unprocessed.smi:1490-3

> <Gold.Version>
5.8.1

> <Gold.Id.Protein>
6NUR|6NUR_protein|mol2

> <Gold.PLP.Fitness>
48.0351

> <Gold.PLP.PLP>
-46.8110

> <Gold.PLP.part.hbond>
-1.0000

> <Gold.PLP.part.metal>
0.0000

> <Gold.PLP.part.buried>
-7.6344

> <Gold.PLP.part.nonpolar>
-38.9382

> <Gold.PLP.part.repulsive>
0.2068

> <Gold.PLP.ligand.clash>
0.0000

> <Gold.PLP.ligand.torsion>
0.9837

> <Gold.PLP.Chemscore.Hbond>
1.0000

> <Gold.PLP.Chemscore.CHOScore>
0.0000

> <Gold.PLP.Chemscore.Metal>
0.0000

> <Gold.Chemscore.Hbonds>
donor molecule, donor type, donor heavy atom, donor atom, acceptor molecule, acceptor atom, score
      P1  H  7997  8010       L1     2  1.00

> <Gold.PLP.Chemscore.Internal.Correction>
0.1916

> <Gold.Rescore>
     Score         DG    S(hbond)    S(metal)    S(lipo)     H(rot)  DE(clash)    DE(int)     intcor
     13.89     -14.81       0.97        0.00     112.01       2.74       0.02       0.89       ----

> <Gold.Chemscore.Fitness>
13.8925

> <Gold.Chemscore.DG>
-14.8059

> <Gold.Chemscore.ZeroCoef>
-5.4800

> <Gold.Chemscore.Hbond>
0.9702

> <Gold.Chemscore.Metal>
0.0000

> <Gold.Chemscore.Lipo>
112.0073

> <Gold.Chemscore.Internal_Hbond>
0.0000

> <Gold.Chemscore.DEClash>
0.0237

> <Gold.Chemscore.DEInternal>
0.8896

> <Gold.Chemscore.Rot>
2.7420

> <Gold.Chemscore.Internal.Correction>
   9.000000E+99

> <Gold.Chemscore.Hbonds>
donor molecule, donor type, donor heavy atom, donor atom, acceptor molecule, acceptor atom, score
      P1  H  7997  8010       L1     2  0.48

> <Gold.Chemscore.Hbond.Weighted>
-3.2405

> <Gold.Chemscore.Metal.Weighted>
-0.0000

> <Gold.Chemscore.Lipo.Weighted>
-13.1049

> <Gold.Chemscore.Internal_Hbond.Weighted>
0.0000

> <Gold.Chemscore.DEClash.Weighted>
0.0237

> <Gold.Chemscore.DEInternal.Weighted>
0.8896

> <Gold.Chemscore.Rot.Weighted>
7.0194

> <Gold.Chemscore.Internal.Correction.Weighted>
   9.000000E+99

> <Gold.Protein.RotatedTorsions>
[ 6907 6896 6895 6894 ] final -101.52 input  -60.11 | X-H torsion
[ 7974 7965 7964 7962 ] final  -41.18 input  175.53 | X-H torsion
[ 8008 7997 7996 7995 ] final   76.53 input   59.86 | X-H torsion
[ 10167 10162 10161 10158 ] final   49.16 input  -65.29 | X-H torsion
[ 10718 10713 10712 10709 ] final  130.53 input   66.30 | X-H torsion
[ 10763 10752 10751 10750 ] final  177.18 input  -60.55 | X-H torsion
[ 11005 11000 10999 10996 ] final   98.17 input  -57.11 | X-H torsion

> <Gold.Protein.ActiveResidues>
 VAL166  LYS551  ARG553  GLY616  TRP617  ASP618  TYR619  PRO620  LYS621  CYS622 
 ASP623  PHE694  ASN695  SER759  ASP760  ASP761  ALA762  ILE779  LEU786  VAL792 
 PHE793  MET794  SER795  GLU796  ALA797  LYS798  CYS799  TRP800  GLU811  SER814 

> <Gold.Protein.RotatedAtoms>
  150.7158  134.0721  159.3867 H   0  0  0  0  0  0  0  0  0  0  0  0  # atno 6907 bound_to 6896
  151.8703  135.0489  160.0488 H   0  0  0  0  0  0  0  0  0  0  0  0  # atno 6908 bound_to 6896
  152.2648  133.5294  159.5440 H   0  0  0  0  0  0  0  0  0  0  0  0  # atno 6909 bound_to 6896
  146.0235  140.6821  142.9167 H   0  0  0  0  0  0  0  0  0  0  0  0  # atno 7974 bound_to 7965
  155.8286  140.3467  155.5558 H   0  0  0  0  0  0  0  0  0  0  0  0  # atno 8008 bound_to 7997
  155.8266  140.0921  157.1837 H   0  0  0  0  0  0  0  0  0  0  0  0  # atno 8009 bound_to 7997
  154.4004  140.1420  156.3551 H   0  0  0  0  0  0  0  0  0  0  0  0  # atno 8010 bound_to 7997
  140.2858  144.3104  150.6253 H   0  0  0  0  0  0  0  0  0  0  0  0  # atno 10167 bound_to 10162
  157.5053  131.1095  150.9369 H   0  0  0  0  0  0  0  0  0  0  0  0  # atno 10718 bound_to 10713
  154.4910  135.2779  155.1496 H   0  0  0  0  0  0  0  0  0  0  0  0  # atno 10763 bound_to 10752
  154.3168  135.6218  153.5493 H   0  0  0  0  0  0  0  0  0  0  0  0  # atno 10764 bound_to 10752
  152.9888  135.5733  154.5332 H   0  0  0  0  0  0  0  0  0  0  0  0  # atno 10765 bound_to 10752
  139.8773  134.9036  156.4416 H   0  0  0  0  0  0  0  0  0  0  0  0  # atno 11005 bound_to 11000
  144.7000  140.3608  143.7164 LP  0  0  0  0  0  0  0  0  0  0  0  0  # atno 17320 bound_to 7965
  145.7155  139.1696  143.2514 LP  0  0  0  0  0  0  0  0  0  0  0  0  # atno 17321 bound_to 7965
  140.5774  143.2175  151.7490 LP  0  0  0  0  0  0  0  0  0  0  0  0  # atno 17342 bound_to 10162
  139.4951  144.4130  152.0060 LP  0  0  0  0  0  0  0  0  0  0  0  0  # atno 17343 bound_to 10162
  157.0027  130.5606  149.5313 LP  0  0  0  0  0  0  0  0  0  0  0  0  # atno 17370 bound_to 10713
  156.0255  130.5348  150.8393 LP  0  0  0  0  0  0  0  0  0  0  0  0  # atno 17371 bound_to 10713
  140.8995  133.7789  155.9664 LP  0  0  0  0  0  0  0  0  0  0  0  0  # atno 17394 bound_to 11000
  140.8666  134.2777  157.5210 LP  0  0  0  0  0  0  0  0  0  0  0  0  # atno 17395 bound_to 11000

$$$$
