AV-unprocessed.smi:1961|AV-procd|sdf|7918|dock3
  -GOLD-   2272010 83D 1   1.00000     0.00000
 Structure written by MMmdl.
 36 37  0  0  0  0  0  0  0  0  1 V2000
  151.9084  141.1597  157.9743 C   0  0  0  0  0  0  0  0  0  0  0  0
  150.8478  141.7229  157.0170 C   0  0  0  0  0  0  0  0  0  0  0  0
  149.6120  142.2742  157.7438 C   0  0  0  0  0  0  0  0  0  0  0  0
  150.4818  140.7472  155.9417 C   0  0  0  0  0  0  0  0  0  0  0  0
  151.3808  140.2137  155.1035 N   0  0  0  0  0  0  0  0  0  0  0  0
  150.8029  139.3358  154.1974 N   0  0  0  0  0  0  0  0  0  0  0  0
  149.4794  139.2304  154.3782 C   0  0  0  0  0  0  0  0  0  0  0  0
  148.6390  138.3980  153.5924 N   0  0  0  0  0  0  0  0  0  0  0  0
  147.2952  138.3745  153.5482 C   0  0  0  0  0  0  0  0  0  0  0  0
  146.5473  139.0884  154.2168 O   0  0  0  0  0  0  0  0  0  0  0  0
  146.8549  137.4618  152.6704 N   0  0  0  0  0  0  0  0  0  0  0  0
  145.4510  137.1902  152.3795 C   0  0  0  0  0  0  0  0  0  0  0  0
  145.2782  136.0089  151.4089 C   0  0  2  0  0  0  0  0  0  0  0  0
  143.8739  135.4007  151.3802 C   0  0  0  0  0  0  0  0  0  0  0  0
  144.1134  133.9406  151.0208 C   0  0  0  0  0  0  0  0  0  0  0  0
  145.6342  133.7813  151.0833 C   0  0  0  0  0  0  0  0  0  0  0  0
  146.0844  134.9136  151.8113 O   0  0  0  0  0  0  0  0  0  0  0  0
  148.8259  140.2086  155.6808 S   0  0  0  0  0  0  0  0  0  0  0  0
  152.8040  140.8547  157.4321 H   0  0  0  0  0  0  0  0  0  0  0  0
  151.5335  140.2900  158.5152 H   0  0  0  0  0  0  0  0  0  0  0  0
  152.2068  141.9055  158.7116 H   0  0  0  0  0  0  0  0  0  0  0  0
  151.3112  142.5731  156.5149 H   0  0  0  0  0  0  0  0  0  0  0  0
  148.9208  142.7424  157.0422 H   0  0  0  0  0  0  0  0  0  0  0  0
  149.8926  143.0262  158.4817 H   0  0  0  0  0  0  0  0  0  0  0  0
  149.0727  141.4828  158.2656 H   0  0  0  0  0  0  0  0  0  0  0  0
  149.1181  137.7508  152.9840 H   0  0  0  0  0  0  0  0  0  0  0  0
  147.5374  136.9174  152.1637 H   0  0  0  0  0  0  0  0  0  0  0  0
  144.9077  136.9990  153.3064 H   0  0  0  0  0  0  0  0  0  0  0  0
  145.0147  138.0918  151.9488 H   0  0  0  0  0  0  0  0  0  0  0  0
  145.5756  136.3004  150.3997 H   0  0  0  0  0  0  0  0  0  0  0  0
  143.4114  135.4612  152.3663 H   0  0  0  0  0  0  0  0  0  0  0  0
  143.2191  135.9089  150.6718 H   0  0  0  0  0  0  0  0  0  0  0  0
  143.6202  133.2870  151.7410 H   0  0  0  0  0  0  0  0  0  0  0  0
  143.7330  133.6945  150.0288 H   0  0  0  0  0  0  0  0  0  0  0  0
  145.9410  132.8511  151.5622 H   0  0  0  0  0  0  0  0  0  0  0  0
  146.0645  133.8067  150.0808 H   0  0  0  0  0  0  0  0  0  0  0  0
  1  2  1  0  0  0  0
  1 19  1  0  0  0  0
  1 20  1  0  0  0  0
  1 21  1  0  0  0  0
  2  3  1  0  0  0  0
  2  4  1  0  0  0  0
  2 22  1  0  0  0  0
  3 23  1  0  0  0  0
  3 24  1  0  0  0  0
  3 25  1  0  0  0  0
  4 18  1  0  0  0  0
  4  5  2  0  0  0  0
  5  6  1  0  0  0  0
  6  7  2  0  0  0  0
  7  8  1  0  0  0  0
  7 18  1  0  0  0  0
  8  9  1  0  0  0  0
  8 26  1  0  0  0  0
  9 10  2  0  0  0  0
  9 11  1  0  0  0  0
 11 12  1  0  0  0  0
 11 27  1  0  0  0  0
 12 13  1  0  0  0  0
 12 28  1  0  0  0  0
 12 29  1  0  0  0  0
 13 17  1  0  0  0  0
 13 14  1  0  0  0  0
 13 30  1  0  0  0  0
 14 15  1  0  0  0  0
 14 31  1  0  0  0  0
 14 32  1  0  0  0  0
 15 16  1  0  0  0  0
 15 33  1  0  0  0  0
 15 34  1  0  0  0  0
 16 17  1  0  0  0  0
 16 35  1  0  0  0  0
 16 36  1  0  0  0  0
M  END
> <s_m_source_file>
AV-unprocessed.smi

> <i_m_source_file_index>
1961

> <i_lp_mmshare_version>
43012

> <i_f3d_flags>
0

> <s_epik_input>
W0NIM11bQ0hdKFtDSDNdKWMxbm5jKHMxKVtOSF1DKD1PKVtOSF1bQ0gyXVtDQEBIXTJbQ0gyXVtDSDJdW0NIMl1PMg==

> <s_epik_cmdline>
J2VwaWtfcHl0aG9uJywgJy1waCcsICc3LjAnLCAnLXRuJywgJzgnLCAnLW1hJywgJzIwMCcsICctbWV0YWxfYmluZGluZycsICctaW1hZScsICc8aW5maWxlLm1hZT4nLCAnLW9tYWUnLCAnPG91dGZpbGUubWFlPic=

> <r_lp_tautomer_probability>
1

> <r_epik_Ionization_Penalty>
0.000505257

> <r_epik_Ionization_Penalty_Charging>
0

> <r_epik_Ionization_Penalty_Neutral>
0.000505257

> <r_epik_State_Penalty>
-0

> <r_epik_Charging_Adjusted_Penalty>
0

> <i_epik_Tot_Q>
0

> <i_epik_Tot_abs_Q>
0

> <r_epik_Metal_State_Penalty>
0.219912

> <b_epik_Metal_Only>
0

> <s_lp_Force_Field>
OPLS_2005

> <r_lp_Energy>
10.186

> <b_lp_Chiralities_Consistent>
1

> <s_lp_Variant>
AV-unprocessed.smi:1961-1

> <Gold.Version>
5.8.1

> <Gold.Id.Protein>
6NUR|6NUR_protein|mol2

> <Gold.PLP.Fitness>
33.7905

> <Gold.PLP.PLP>
-28.2168

> <Gold.PLP.part.hbond>
-4.8565

> <Gold.PLP.part.metal>
0.0000

> <Gold.PLP.part.buried>
-5.0100

> <Gold.PLP.part.nonpolar>
-20.2429

> <Gold.PLP.part.repulsive>
0.6359

> <Gold.PLP.ligand.clash>
0.0000

> <Gold.PLP.ligand.torsion>
0.1937

> <Gold.PLP.Chemscore.Hbond>
1.9600

> <Gold.PLP.Chemscore.CHOScore>
0.0000

> <Gold.PLP.Chemscore.Metal>
0.0000

> <Gold.Chemscore.Hbonds>
donor molecule, donor type, donor heavy atom, donor atom, acceptor molecule, acceptor atom, score
      L1  H     8    26       P1  7948  0.94
      L1  H    11    27       P1  7948  1.00

> <Gold.PLP.Chemscore.Internal.Correction>
0.0810

> <Gold.Rescore>
     Score         DG    S(hbond)    S(metal)    S(lipo)     H(rot)  DE(clash)    DE(int)     intcor
     13.54     -15.00       1.95        0.00      57.26       1.45       0.12       1.34       ----

> <Gold.Chemscore.Fitness>
13.5393

> <Gold.Chemscore.DG>
-15.0021

> <Gold.Chemscore.ZeroCoef>
-5.4800

> <Gold.Chemscore.Hbond>
1.9536

> <Gold.Chemscore.Metal>
0.0000

> <Gold.Chemscore.Lipo>
57.2553

> <Gold.Chemscore.Internal_Hbond>
0.0000

> <Gold.Chemscore.DEClash>
0.1193

> <Gold.Chemscore.DEInternal>
1.3435

> <Gold.Chemscore.Rot>
1.4461

> <Gold.Chemscore.Internal.Correction>
   9.000000E+99

> <Gold.Chemscore.Hbonds>
donor molecule, donor type, donor heavy atom, donor atom, acceptor molecule, acceptor atom, score
      L1  H     8    26       P1  7948  0.92
      L1  H    11    27       P1  7948  0.97

> <Gold.Chemscore.Hbond.Weighted>
-6.5251

> <Gold.Chemscore.Metal.Weighted>
-0.0000

> <Gold.Chemscore.Lipo.Weighted>
-6.6989

> <Gold.Chemscore.Internal_Hbond.Weighted>
0.0000

> <Gold.Chemscore.DEClash.Weighted>
0.1193

> <Gold.Chemscore.DEInternal.Weighted>
1.3435

> <Gold.Chemscore.Rot.Weighted>
3.7019

> <Gold.Chemscore.Internal.Correction.Weighted>
   9.000000E+99

> <Gold.Protein.RotatedTorsions>
[ 6907 6896 6895 6894 ] final  163.28 input  -60.11 | X-H torsion
[ 7974 7965 7964 7962 ] final  -96.36 input  175.53 | X-H torsion
[ 8008 7997 7996 7995 ] final  -15.12 input   59.86 | X-H torsion
[ 10167 10162 10161 10158 ] final  129.34 input  -65.29 | X-H torsion
[ 10718 10713 10712 10709 ] final  -59.96 input   66.30 | X-H torsion
[ 10763 10752 10751 10750 ] final  -22.43 input  -60.55 | X-H torsion
[ 11005 11000 10999 10996 ] final  -34.11 input  -57.11 | X-H torsion

> <Gold.Protein.ActiveResidues>
 VAL166  LYS551  ARG553  GLY616  TRP617  ASP618  TYR619  PRO620  LYS621  CYS622 
 ASP623  PHE694  ASN695  SER759  ASP760  ASP761  ALA762  ILE779  LEU786  VAL792 
 PHE793  MET794  SER795  GLU796  ALA797  LYS798  CYS799  TRP800  GLU811  SER814 

> <Gold.Protein.RotatedAtoms>
  151.9276  133.3602  159.3919 H   0  0  0  0  0  0  0  0  0  0  0  0  # atno 6907 bound_to 6896
  150.7024  134.4570  159.5372 H   0  0  0  0  0  0  0  0  0  0  0  0  # atno 6908 bound_to 6896
  152.2205  134.8417  160.0537 H   0  0  0  0  0  0  0  0  0  0  0  0  # atno 6909 bound_to 6896
  145.3478  140.9471  143.2571 H   0  0  0  0  0  0  0  0  0  0  0  0  # atno 7974 bound_to 7965
  154.5155  140.2204  155.9074 H   0  0  0  0  0  0  0  0  0  0  0  0  # atno 8008 bound_to 7997
  156.1602  140.3143  155.8760 H   0  0  0  0  0  0  0  0  0  0  0  0  # atno 8009 bound_to 7997
  155.3766  140.0470  157.3035 H   0  0  0  0  0  0  0  0  0  0  0  0  # atno 8010 bound_to 7997
  139.5482  144.6791  151.4405 H   0  0  0  0  0  0  0  0  0  0  0  0  # atno 10167 bound_to 10162
  156.1024  130.4184  150.0787 H   0  0  0  0  0  0  0  0  0  0  0  0  # atno 10718 bound_to 10713
  153.6518  135.6980  153.5206 H   0  0  0  0  0  0  0  0  0  0  0  0  # atno 10763 bound_to 10752
  153.2700  135.4218  155.0978 H   0  0  0  0  0  0  0  0  0  0  0  0  # atno 10764 bound_to 10752
  154.8474  135.3576  154.6063 H   0  0  0  0  0  0  0  0  0  0  0  0  # atno 10765 bound_to 10752
  140.9689  133.7121  156.1492 H   0  0  0  0  0  0  0  0  0  0  0  0  # atno 11005 bound_to 11000
  144.8740  139.4997  143.6754 LP  0  0  0  0  0  0  0  0  0  0  0  0  # atno 17320 bound_to 7965
  146.2980  139.7339  142.9112 LP  0  0  0  0  0  0  0  0  0  0  0  0  # atno 17321 bound_to 7965
  140.6737  143.8237  150.7032 LP  0  0  0  0  0  0  0  0  0  0  0  0  # atno 17342 bound_to 10162
  140.1669  143.4228  152.2028 LP  0  0  0  0  0  0  0  0  0  0  0  0  # atno 17343 bound_to 10162
  156.8771  130.9544  151.3603 LP  0  0  0  0  0  0  0  0  0  0  0  0  # atno 17370 bound_to 10713
  157.6197  130.8645  149.9087 LP  0  0  0  0  0  0  0  0  0  0  0  0  # atno 17371 bound_to 10713
  140.7357  134.4205  157.5561 LP  0  0  0  0  0  0  0  0  0  0  0  0  # atno 17394 bound_to 11000
  139.8905  134.8803  156.2367 LP  0  0  0  0  0  0  0  0  0  0  0  0  # atno 17395 bound_to 11000

$$$$
