AV-unprocessed.smi:2060|AV-procd|sdf|8358|dock6
  -GOLD-   2272011 33D 1   1.00000     0.00000
 Structure written by MMmdl.
 45 46  0  0  0  0  0  0  0  0  3 V2000
  149.2762  139.7686  154.1932 C   0  0  0  0  0  0  0  0  0  0  0  0
  148.3113  140.9755  154.0962 C   0  0  0  0  0  0  0  0  0  0  0  0
  147.4481  141.3810  155.3564 C   0  0  1  0  0  0  0  0  0  0  0  0
  146.3893  142.4142  154.8683 C   0  0  0  0  0  0  0  0  0  0  0  0
  146.7327  140.1179  155.9641 C   0  0  0  0  0  0  0  0  0  0  0  0
  145.6569  139.6510  155.0831 N   0  5  0  0  0  0  0  0  0  0  0  0
  144.7740  138.6650  155.3986 C   0  0  0  0  0  0  0  0  0  0  0  0
  144.8865  137.8084  156.2831 O   0  0  0  0  0  0  0  0  0  0  0  0
  143.6823  138.6926  154.6123 N   0  0  0  0  0  0  0  0  0  0  0  0
  142.5443  137.8441  154.6405 C   0  0  0  0  0  0  0  0  0  0  0  0
  141.3956  138.1481  153.8622 C   0  0  0  0  0  0  0  0  0  0  0  0
  140.5411  137.1239  154.1592 C   0  0  0  0  0  0  0  0  0  0  0  0
  139.1583  136.7942  153.7124 C   0  0  0  0  0  0  0  0  0  0  0  0
  141.1193  136.2652  155.0421 O   0  0  0  0  0  0  0  0  0  0  0  0
  142.4032  136.7321  155.3468 N   0  0  0  0  0  0  0  0  0  0  0  0
  148.3081  141.9876  156.4553 N   0  3  0  0  0  0  0  0  0  0  0  0
  147.6415  142.3447  157.7411 C   0  0  0  0  0  0  0  0  0  0  0  0
  148.5904  143.1554  158.6422 C   0  0  0  0  0  0  0  0  0  0  0  0
  149.7938  142.4368  158.8696 O   0  0  0  0  0  0  0  0  0  0  0  0
  150.4831  142.1793  157.6556 C   0  0  0  0  0  0  0  0  0  0  0  0
  149.6023  141.2997  156.7571 C   0  0  0  0  0  0  0  0  0  0  0  0
  149.7646  139.6059  153.2324 H   0  0  0  0  0  0  0  0  0  0  0  0
  148.7585  138.8434  154.4419 H   0  0  0  0  0  0  0  0  0  0  0  0
  150.0708  139.9223  154.9231 H   0  0  0  0  0  0  0  0  0  0  0  0
  148.8945  141.8281  153.7421 H   0  0  0  0  0  0  0  0  0  0  0  0
  147.6386  140.7224  153.2766 H   0  0  0  0  0  0  0  0  0  0  0  0
  145.7523  142.0230  154.0743 H   0  0  0  0  0  0  0  0  0  0  0  0
  146.8758  143.3052  154.4696 H   0  0  0  0  0  0  0  0  0  0  0  0
  145.7061  142.7470  155.6513 H   0  0  0  0  0  0  0  0  0  0  0  0
  147.4717  139.3309  156.1164 H   0  0  0  0  0  0  0  0  0  0  0  0
  146.3695  140.3561  156.9639 H   0  0  0  0  0  0  0  0  0  0  0  0
  143.6648  139.4193  153.9128 H   0  0  0  0  0  0  0  0  0  0  0  0
  141.2240  138.9806  153.1961 H   0  0  0  0  0  0  0  0  0  0  0  0
  138.7585  137.5795  153.0707 H   0  0  0  0  0  0  0  0  0  0  0  0
  138.4916  136.6844  154.5676 H   0  0  0  0  0  0  0  0  0  0  0  0
  139.1467  135.8597  153.1512 H   0  0  0  0  0  0  0  0  0  0  0  0
  146.7651  142.9709  157.5850 H   0  0  0  0  0  0  0  0  0  0  0  0
  147.3137  141.4373  158.2503 H   0  0  0  0  0  0  0  0  0  0  0  0
  148.8143  144.1246  158.1934 H   0  0  0  0  0  0  0  0  0  0  0  0
  148.1145  143.3549  159.6025 H   0  0  0  0  0  0  0  0  0  0  0  0
  150.7441  143.1138  157.1557 H   0  0  0  0  0  0  0  0  0  0  0  0
  151.4175  141.6665  157.8834 H   0  0  0  0  0  0  0  0  0  0  0  0
  149.4141  140.3510  157.2619 H   0  0  0  0  0  0  0  0  0  0  0  0
  150.1590  141.0726  155.8486 H   0  0  0  0  0  0  0  0  0  0  0  0
  148.5689  142.8793  156.0554 H   0  0  0  0  0  0  0  0  0  0  0  0
  1  2  1  0  0  0  0
  1 22  1  0  0  0  0
  1 23  1  0  0  0  0
  1 24  1  0  0  0  0
  2  3  1  0  0  0  0
  2 25  1  0  0  0  0
  2 26  1  0  0  0  0
  3  4  1  0  0  0  0
  3  5  1  0  0  0  0
  3 16  1  0  0  0  0
  4 27  1  0  0  0  0
  4 28  1  0  0  0  0
  4 29  1  0  0  0  0
  5  6  1  0  0  0  0
  5 30  1  0  0  0  0
  5 31  1  0  0  0  0
  6  7  1  0  0  0  0
  7  8  2  0  0  0  0
  7  9  1  0  0  0  0
  9 10  1  0  0  0  0
  9 32  1  0  0  0  0
 10 15  2  0  0  0  0
 10 11  1  0  0  0  0
 11 12  2  0  0  0  0
 11 33  1  0  0  0  0
 12 13  1  0  0  0  0
 12 14  1  0  0  0  0
 13 34  1  0  0  0  0
 13 35  1  0  0  0  0
 13 36  1  0  0  0  0
 14 15  1  0  0  0  0
 16 21  1  0  0  0  0
 16 17  1  0  0  0  0
 16 45  1  0  0  0  0
 17 18  1  0  0  0  0
 17 37  1  0  0  0  0
 17 38  1  0  0  0  0
 18 19  1  0  0  0  0
 18 39  1  0  0  0  0
 18 40  1  0  0  0  0
 19 20  1  0  0  0  0
 20 21  1  0  0  0  0
 20 41  1  0  0  0  0
 20 42  1  0  0  0  0
 21 43  1  0  0  0  0
 21 44  1  0  0  0  0
M  CHG  1   6  -1
M  CHG  1  16   1
M  END
> <s_m_source_file>
AV-unprocessed.smi

> <i_m_source_file_index>
2060

> <i_lp_mmshare_version>
43012

> <i_f3d_flags>
0

> <s_epik_input>
W0NIMl0xW0NIMl1PW0NIMl1bQ0gyXU4xW0NAQF0oW0NIM10pKFtDSDJdW0NIM10pW0NIMl1bTkhdQyg9TylbTkhdYzJbY0hdYyhbQ0gzXSlvbjI=

> <s_epik_cmdline>
J2VwaWtfcHl0aG9uJywgJy1waCcsICc3LjAnLCAnLXRuJywgJzgnLCAnLW1hJywgJzIwMCcsICctbWV0YWxfYmluZGluZycsICctaW1hZScsICc8aW5maWxlLm1hZT4nLCAnLW9tYWUnLCAnPG91dGZpbGUubWFlPic=

> <r_epik_Ionization_Penalty>
6.79469

> <r_epik_Ionization_Penalty_Charging>
6.79469

> <r_epik_Ionization_Penalty_Neutral>
5.68576e-06

> <r_epik_State_Penalty>
7.33145

> <r_epik_Charging_Adjusted_Penalty>
14.1261

> <i_epik_Tot_Q>
0

> <i_epik_Tot_abs_Q>
2

> <r_epik_Metal_State_Penalty>
3.24803

> <b_epik_Metal_Only>
1

> <s_lp_Force_Field>
OPLS_2005

> <r_lp_Energy>
29.3309

> <b_lp_Chiralities_Consistent>
1

> <s_lp_Variant>
AV-unprocessed.smi:2060-5

> <Gold.Version>
5.8.1

> <Gold.Id.Protein>
6NUR|6NUR_protein|mol2

> <Gold.PLP.Fitness>
36.5348

> <Gold.PLP.PLP>
-27.3480

> <Gold.PLP.part.hbond>
-3.9125

> <Gold.PLP.part.metal>
0.0000

> <Gold.PLP.part.buried>
-3.6116

> <Gold.PLP.part.nonpolar>
-20.5789

> <Gold.PLP.part.repulsive>
0.2112

> <Gold.PLP.ligand.clash>
0.0000

> <Gold.PLP.ligand.torsion>
0.5403

> <Gold.PLP.Chemscore.Hbond>
3.3448

> <Gold.PLP.Chemscore.CHOScore>
0.0000

> <Gold.PLP.Chemscore.Metal>
0.0000

> <Gold.Chemscore.Hbonds>
donor molecule, donor type, donor heavy atom, donor atom, acceptor molecule, acceptor atom, score
      L1  H     9    32       P1 10175  1.00
      L1  H    16    45       P1  8028  2.00
      P1  H 11000 11005       L1    14  0.39

> <Gold.PLP.Chemscore.Internal.Correction>
0.2332

> <Gold.Rescore>
     Score         DG    S(hbond)    S(metal)    S(lipo)     H(rot)  DE(clash)    DE(int)     intcor
     13.39     -16.44       2.52        0.00      59.52       1.73       0.12       2.93       ----

> <Gold.Chemscore.Fitness>
13.3914

> <Gold.Chemscore.DG>
-16.4389

> <Gold.Chemscore.ZeroCoef>
-5.4800

> <Gold.Chemscore.Hbond>
2.5216

> <Gold.Chemscore.Metal>
0.0000

> <Gold.Chemscore.Lipo>
59.5213

> <Gold.Chemscore.Internal_Hbond>
0.0000

> <Gold.Chemscore.DEClash>
0.1164

> <Gold.Chemscore.DEInternal>
2.9311

> <Gold.Chemscore.Rot>
1.7294

> <Gold.Chemscore.Internal.Correction>
   9.000000E+99

> <Gold.Chemscore.Hbonds>
donor molecule, donor type, donor heavy atom, donor atom, acceptor molecule, acceptor atom, score
      L1  H     9    32       P1 10175  1.00
      L1  H    16    45       P1  8028  0.98
      P1  H 11000 11005       L1    14  0.38

> <Gold.Chemscore.Hbond.Weighted>
-8.4222

> <Gold.Chemscore.Metal.Weighted>
-0.0000

> <Gold.Chemscore.Lipo.Weighted>
-6.9640

> <Gold.Chemscore.Internal_Hbond.Weighted>
0.0000

> <Gold.Chemscore.DEClash.Weighted>
0.1164

> <Gold.Chemscore.DEInternal.Weighted>
2.9311

> <Gold.Chemscore.Rot.Weighted>
4.4272

> <Gold.Chemscore.Internal.Correction.Weighted>
   9.000000E+99

> <Gold.Protein.RotatedTorsions>
[ 6907 6896 6895 6894 ] final  -51.05 input  -60.11 | X-H torsion
[ 7974 7965 7964 7962 ] final  -84.23 input  175.53 | X-H torsion
[ 8008 7997 7996 7995 ] final   -4.36 input   59.86 | X-H torsion
[ 10167 10162 10161 10158 ] final  177.21 input  -65.29 | X-H torsion
[ 10718 10713 10712 10709 ] final  -57.71 input   66.30 | X-H torsion
[ 10763 10752 10751 10750 ] final  173.61 input  -60.55 | X-H torsion
[ 11005 11000 10999 10996 ] final   53.21 input  -57.11 | X-H torsion

> <Gold.Protein.ActiveResidues>
 VAL166  LYS551  ARG553  GLY616  TRP617  ASP618  TYR619  PRO620  LYS621  CYS622 
 ASP623  PHE694  ASN695  SER759  ASP760  ASP761  ALA762  ILE779  LEU786  VAL792 
 PHE793  MET794  SER795  GLU796  ALA797  LYS798  CYS799  TRP800  GLU811  SER814 

> <Gold.Protein.RotatedAtoms>
  150.8648  134.8009  159.7110 H   0  0  0  0  0  0  0  0  0  0  0  0  # atno 6907 bound_to 6896
  152.4673  134.5041  159.9743 H   0  0  0  0  0  0  0  0  0  0  0  0  # atno 6908 bound_to 6896
  151.5139  133.3441  159.2925 H   0  0  0  0  0  0  0  0  0  0  0  0  # atno 6909 bound_to 6896
  145.5094  140.9541  143.1715 H   0  0  0  0  0  0  0  0  0  0  0  0  # atno 7974 bound_to 7965
  154.6151  140.2486  155.7619 H   0  0  0  0  0  0  0  0  0  0  0  0  # atno 8008 bound_to 7997
  156.2394  140.2938  156.0351 H   0  0  0  0  0  0  0  0  0  0  0  0  # atno 8009 bound_to 7997
  155.1988  140.0393  157.2904 H   0  0  0  0  0  0  0  0  0  0  0  0  # atno 8010 bound_to 7997
  139.5244  144.2825  152.0535 H   0  0  0  0  0  0  0  0  0  0  0  0  # atno 10167 bound_to 10162
  156.1190  130.4168  150.0477 H   0  0  0  0  0  0  0  0  0  0  0  0  # atno 10718 bound_to 10713
  154.4425  135.2762  155.1838 H   0  0  0  0  0  0  0  0  0  0  0  0  # atno 10763 bound_to 10752
  154.3698  135.6111  153.5737 H   0  0  0  0  0  0  0  0  0  0  0  0  # atno 10764 bound_to 10752
  152.9842  135.5854  154.4755 H   0  0  0  0  0  0  0  0  0  0  0  0  # atno 10765 bound_to 10752
  140.0786  134.5370  155.8970 H   0  0  0  0  0  0  0  0  0  0  0  0  # atno 11005 bound_to 11000
  144.7735  139.6681  143.7184 LP  0  0  0  0  0  0  0  0  0  0  0  0  # atno 17320 bound_to 7965
  146.2176  139.5577  142.9640 LP  0  0  0  0  0  0  0  0  0  0  0  0  # atno 17321 bound_to 7965
  140.2279  144.4399  150.6313 LP  0  0  0  0  0  0  0  0  0  0  0  0  # atno 17342 bound_to 10162
  140.6375  143.2197  151.6363 LP  0  0  0  0  0  0  0  0  0  0  0  0  # atno 17343 bound_to 10162
  156.8421  130.9429  151.3631 LP  0  0  0  0  0  0  0  0  0  0  0  0  # atno 17370 bound_to 10713
  157.6373  130.8777  149.9383 LP  0  0  0  0  0  0  0  0  0  0  0  0  # atno 17371 bound_to 10713
  141.2038  133.6635  156.6086 LP  0  0  0  0  0  0  0  0  0  0  0  0  # atno 17394 bound_to 11000
  140.3521  134.7759  157.4474 LP  0  0  0  0  0  0  0  0  0  0  0  0  # atno 17395 bound_to 11000

$$$$
