AV-unprocessed.smi:2433|AV-procd|sdf|9589|dock9
  -GOLD-   2272013223D 1   1.00000     0.00000
 Structure written by MMmdl.
 38 40  0  0  0  0  0  0  0  0  1 V2000
  150.0346  141.2351  154.6131 O   0  0  0  0  0  0  0  0  0  0  0  0
  150.7002  141.0211  155.6268 C   0  0  0  0  0  0  0  0  0  0  0  0
  150.6886  141.9187  156.7817 C   0  0  0  0  0  0  0  0  0  0  0  0
  151.4230  141.6441  157.8855 C   0  0  0  0  0  0  0  0  0  0  0  0
  151.4071  142.5949  159.0814 C   0  0  0  0  0  0  0  0  0  0  0  0
  151.2152  144.0987  158.7967 C   0  0  0  0  0  0  0  0  0  0  0  0
  152.7392  144.2551  158.8174 C   0  0  0  0  0  0  0  0  0  0  0  0
  152.8103  142.9426  159.6059 C   0  0  0  0  0  0  0  0  0  0  0  0
  152.2208  140.4937  157.9361 N   0  0  0  0  0  0  0  0  0  0  0  0
  152.2505  139.6825  156.9273 C   0  0  0  0  0  0  0  0  0  0  0  0
  151.5032  139.9257  155.7595 N   0  0  0  0  0  0  0  0  0  0  0  0
  151.6285  138.9299  154.6827 C   0  0  0  0  0  0  0  0  0  0  0  0
  151.0078  137.5683  155.0652 C   0  0  2  0  0  0  0  0  0  0  0  0
  151.5937  136.5609  154.2641 O   0  0  0  0  0  0  0  0  0  0  0  0
  149.4957  137.5979  154.9019 C   0  0  0  0  0  0  0  0  0  0  0  0
  148.8694  138.7443  154.3674 C   0  0  0  0  0  0  0  0  0  0  0  0
  147.4715  138.7763  154.1988 C   0  0  0  0  0  0  0  0  0  0  0  0
  146.6919  137.6608  154.5600 C   0  0  0  0  0  0  0  0  0  0  0  0
  145.3482  137.6913  154.3952 F   0  0  0  0  0  0  0  0  0  0  0  0
  147.3110  136.5129  155.0906 C   0  0  0  0  0  0  0  0  0  0  0  0
  148.7089  136.4805  155.2602 C   0  0  0  0  0  0  0  0  0  0  0  0
  150.0808  142.8115  156.7498 H   0  0  0  0  0  0  0  0  0  0  0  0
  150.7416  142.2286  159.8640 H   0  0  0  0  0  0  0  0  0  0  0  0
  150.7383  144.3682  157.8546 H   0  0  0  0  0  0  0  0  0  0  0  0
  150.7394  144.6170  159.6307 H   0  0  0  0  0  0  0  0  0  0  0  0
  153.1850  144.1747  157.8247 H   0  0  0  0  0  0  0  0  0  0  0  0
  153.1014  145.1319  159.3547 H   0  0  0  0  0  0  0  0  0  0  0  0
  152.8259  143.1035  160.6850 H   0  0  0  0  0  0  0  0  0  0  0  0
  153.6090  142.2694  159.2916 H   0  0  0  0  0  0  0  0  0  0  0  0
  152.8479  138.7691  156.9210 H   0  0  0  0  0  0  0  0  0  0  0  0
  151.1123  139.3235  153.8044 H   0  0  0  0  0  0  0  0  0  0  0  0
  152.6616  138.8012  154.3524 H   0  0  0  0  0  0  0  0  0  0  0  0
  151.2315  137.3296  156.1059 H   0  0  0  0  0  0  0  0  0  0  0  0
  151.3341  136.7045  153.3667 H   0  0  0  0  0  0  0  0  0  0  0  0
  149.4594  139.6032  154.0818 H   0  0  0  0  0  0  0  0  0  0  0  0
  146.9976  139.6565  153.7896 H   0  0  0  0  0  0  0  0  0  0  0  0
  146.7141  135.6556  155.3650 H   0  0  0  0  0  0  0  0  0  0  0  0
  149.1751  135.5931  155.6626 H   0  0  0  0  0  0  0  0  0  0  0  0
  1  2  2  0  0  0  0
  2 11  1  0  0  0  0
  2  3  1  0  0  0  0
  3  4  2  0  0  0  0
  3 22  1  0  0  0  0
  4  5  1  0  0  0  0
  4  9  1  0  0  0  0
  5  8  1  0  0  0  0
  5  6  1  0  0  0  0
  5 23  1  0  0  0  0
  6  7  1  0  0  0  0
  6 24  1  0  0  0  0
  6 25  1  0  0  0  0
  7  8  1  0  0  0  0
  7 26  1  0  0  0  0
  7 27  1  0  0  0  0
  8 28  1  0  0  0  0
  8 29  1  0  0  0  0
  9 10  2  0  0  0  0
 10 11  1  0  0  0  0
 10 30  1  0  0  0  0
 11 12  1  0  0  0  0
 12 13  1  0  0  0  0
 12 31  1  0  0  0  0
 12 32  1  0  0  0  0
 13 14  1  0  0  0  0
 13 15  1  0  0  0  0
 13 33  1  0  0  0  0
 14 34  1  0  0  0  0
 15 21  1  0  0  0  0
 15 16  2  0  0  0  0
 16 17  1  0  0  0  0
 16 35  1  0  0  0  0
 17 18  2  0  0  0  0
 17 36  1  0  0  0  0
 18 19  1  0  0  0  0
 18 20  1  0  0  0  0
 20 21  2  0  0  0  0
 20 37  1  0  0  0  0
 21 38  1  0  0  0  0
M  END
> <s_m_source_file>
AV-unprocessed.smi

> <i_m_source_file_index>
2433

> <i_lp_mmshare_version>
43012

> <i_f3d_flags>
0

> <s_epik_input>
W0NIMl0xW0NIMl1bQ0gyXVtDSF0xYyhbY0hdYzI9TyluW2NIXW4yW0NIMl1bQ0BIXShbT0hdKWMzW2NIXVtjSF1jKEYpW2NIXVtjSF0z

> <s_epik_cmdline>
J2VwaWtfcHl0aG9uJywgJy1waCcsICc3LjAnLCAnLXRuJywgJzgnLCAnLW1hJywgJzIwMCcsICctbWV0YWxfYmluZGluZycsICctaW1hZScsICc8aW5maWxlLm1hZT4nLCAnLW9tYWUnLCAnPG91dGZpbGUubWFlPic=

> <r_lp_tautomer_probability>
1

> <r_epik_Ionization_Penalty>
2.57762e-05

> <r_epik_Ionization_Penalty_Charging>
5.39435e-08

> <r_epik_Ionization_Penalty_Neutral>
2.57223e-05

> <r_epik_State_Penalty>
-0

> <r_epik_Charging_Adjusted_Penalty>
5.39435e-08

> <i_epik_Tot_Q>
0

> <i_epik_Tot_abs_Q>
0

> <r_epik_Metal_State_Penalty>
-0

> <b_epik_Metal_Only>
0

> <s_lp_Force_Field>
OPLS_2005

> <r_lp_Energy>
28.7145

> <b_lp_Chiralities_Consistent>
1

> <s_lp_Variant>
AV-unprocessed.smi:2433-1

> <Gold.Version>
5.8.1

> <Gold.Id.Protein>
6NUR|6NUR_protein|mol2

> <Gold.PLP.Fitness>
43.5510

> <Gold.PLP.PLP>
-38.1415

> <Gold.PLP.part.hbond>
-3.1321

> <Gold.PLP.part.metal>
0.0000

> <Gold.PLP.part.buried>
-2.6963

> <Gold.PLP.part.nonpolar>
-32.0532

> <Gold.PLP.part.repulsive>
0.1499

> <Gold.PLP.ligand.clash>
0.0000

> <Gold.PLP.ligand.torsion>
0.7869

> <Gold.PLP.Chemscore.Hbond>
2.1976

> <Gold.PLP.Chemscore.CHOScore>
0.0000

> <Gold.PLP.Chemscore.Metal>
0.0000

> <Gold.Chemscore.Hbonds>
donor molecule, donor type, donor heavy atom, donor atom, acceptor molecule, acceptor atom, score
      L1  H    14    34       P1  7949  0.96
      P1  H  7989  7998       L1     1  0.28
      P1  H 10752 10765       L1    14  1.00

> <Gold.PLP.Chemscore.Internal.Correction>
0.3904

> <Gold.Rescore>
     Score         DG    S(hbond)    S(metal)    S(lipo)     H(rot)  DE(clash)    DE(int)     intcor
     14.21     -16.43       1.78        0.00      89.62       2.14       0.11       2.11       ----

> <Gold.Chemscore.Fitness>
14.2101

> <Gold.Chemscore.DG>
-16.4308

> <Gold.Chemscore.ZeroCoef>
-5.4800

> <Gold.Chemscore.Hbond>
1.7773

> <Gold.Chemscore.Metal>
0.0000

> <Gold.Chemscore.Lipo>
89.6198

> <Gold.Chemscore.Internal_Hbond>
0.0000

> <Gold.Chemscore.DEClash>
0.1107

> <Gold.Chemscore.DEInternal>
2.1101

> <Gold.Chemscore.Rot>
2.1370

> <Gold.Chemscore.Internal.Correction>
   9.000000E+99

> <Gold.Chemscore.Hbonds>
donor molecule, donor type, donor heavy atom, donor atom, acceptor molecule, acceptor atom, score
      L1  H    14    34       P1  7949  0.62
      P1  H  7989  7998       L1     1  0.02
      P1  H 10752 10765       L1    14  0.85

> <Gold.Chemscore.Hbond.Weighted>
-5.9361

> <Gold.Chemscore.Metal.Weighted>
-0.0000

> <Gold.Chemscore.Lipo.Weighted>
-10.4855

> <Gold.Chemscore.Internal_Hbond.Weighted>
0.0000

> <Gold.Chemscore.DEClash.Weighted>
0.1107

> <Gold.Chemscore.DEInternal.Weighted>
2.1101

> <Gold.Chemscore.Rot.Weighted>
5.4707

> <Gold.Chemscore.Internal.Correction.Weighted>
   9.000000E+99

> <Gold.Protein.RotatedTorsions>
[ 6907 6896 6895 6894 ] final  156.48 input  -60.11 | X-H torsion
[ 7974 7965 7964 7962 ] final  -68.73 input  175.53 | X-H torsion
[ 8008 7997 7996 7995 ] final  -31.67 input   59.86 | X-H torsion
[ 10167 10162 10161 10158 ] final   43.96 input  -65.29 | X-H torsion
[ 10718 10713 10712 10709 ] final   70.19 input   66.30 | X-H torsion
[ 10763 10752 10751 10750 ] final  169.21 input  -60.55 | X-H torsion
[ 11005 11000 10999 10996 ] final  -83.20 input  -57.11 | X-H torsion

> <Gold.Protein.ActiveResidues>
 VAL166  LYS551  ARG553  GLY616  TRP617  ASP618  TYR619  PRO620  LYS621  CYS622 
 ASP623  PHE694  ASN695  SER759  ASP760  ASP761  ALA762  ILE779  LEU786  VAL792 
 PHE793  MET794  SER795  GLU796  ALA797  LYS798  CYS799  TRP800  GLU811  SER814 

> <Gold.Protein.RotatedAtoms>
  152.0291  133.3930  159.4289 H   0  0  0  0  0  0  0  0  0  0  0  0  # atno 6907 bound_to 6896
  150.6884  134.3541  159.4931 H   0  0  0  0  0  0  0  0  0  0  0  0  # atno 6908 bound_to 6896
  152.1325  134.9124  160.0608 H   0  0  0  0  0  0  0  0  0  0  0  0  # atno 6909 bound_to 6896
  145.7128  140.9071  143.0672 H   0  0  0  0  0  0  0  0  0  0  0  0  # atno 7974 bound_to 7965
  154.4205  140.1758  156.1605 H   0  0  0  0  0  0  0  0  0  0  0  0  # atno 8008 bound_to 7997
  155.9842  140.3375  155.6667 H   0  0  0  0  0  0  0  0  0  0  0  0  # atno 8009 bound_to 7997
  155.6459  140.0685  157.2594 H   0  0  0  0  0  0  0  0  0  0  0  0  # atno 8010 bound_to 7997
  140.3391  144.2493  150.6158 H   0  0  0  0  0  0  0  0  0  0  0  0  # atno 10167 bound_to 10162
  157.6387  130.9464  150.0617 H   0  0  0  0  0  0  0  0  0  0  0  0  # atno 10718 bound_to 10713
  154.3798  135.2753  155.2218 H   0  0  0  0  0  0  0  0  0  0  0  0  # atno 10763 bound_to 10752
  154.4329  135.5973  153.6084 H   0  0  0  0  0  0  0  0  0  0  0  0  # atno 10764 bound_to 10752
  152.9835  135.6000  154.4039 H   0  0  0  0  0  0  0  0  0  0  0  0  # atno 10765 bound_to 10752
  141.1659  133.7282  156.8685 H   0  0  0  0  0  0  0  0  0  0  0  0  # atno 11005 bound_to 11000
  144.6937  139.9097  143.7463 LP  0  0  0  0  0  0  0  0  0  0  0  0  # atno 17320 bound_to 7965
  146.0697  139.3687  143.0530 LP  0  0  0  0  0  0  0  0  0  0  0  0  # atno 17321 bound_to 7965
  140.5326  143.2240  151.8214 LP  0  0  0  0  0  0  0  0  0  0  0  0  # atno 17342 bound_to 10162
  139.4843  144.4701  151.9435 LP  0  0  0  0  0  0  0  0  0  0  0  0  # atno 17343 bound_to 10162
  156.1647  130.3645  149.9249 LP  0  0  0  0  0  0  0  0  0  0  0  0  # atno 17370 bound_to 10713
  156.7238  130.9017  151.3620 LP  0  0  0  0  0  0  0  0  0  0  0  0  # atno 17371 bound_to 10713
  140.1798  134.9041  157.2935 LP  0  0  0  0  0  0  0  0  0  0  0  0  # atno 17394 bound_to 11000
  140.2408  134.3798  155.7481 LP  0  0  0  0  0  0  0  0  0  0  0  0  # atno 17395 bound_to 11000

$$$$
