AV-unprocessed.smi:266|AV-procd|sdf|2038|dock1
  -GOLD-   2262021253D 1   1.00000     0.00000
 Structure written by MMmdl.
 52 55  0  0  0  0  0  0  0  0  1 V2000
  152.5148  142.2398  159.9239 C   0  0  0  0  0  0  0  0  0  0  0  0
  151.4929  143.3799  159.7938 C   0  0  1  0  0  0  0  0  0  0  0  0
  152.0301  144.5099  160.4785 O   0  0  0  0  0  0  0  0  0  0  0  0
  151.6142  145.6934  159.8203 C   0  0  0  0  0  0  0  0  0  0  0  0
  151.6997  145.3016  158.3535 C   0  0  0  0  0  0  0  0  0  0  0  0
  151.1726  143.8697  158.3530 C   0  0  2  0  0  0  0  0  0  0  0  0
  149.7612  143.9301  158.2238 O   0  0  0  0  0  0  0  0  0  0  0  0
  151.7169  143.0022  157.1872 C   0  0  0  0  0  0  0  0  0  0  0  0
  151.0389  141.7209  157.0591 N   0  0  0  0  0  0  0  0  0  0  0  0
  151.3306  140.5586  157.7385 C   0  0  0  0  0  0  0  0  0  0  0  0
  150.5635  139.5404  157.4571 N   0  0  0  0  0  0  0  0  0  0  0  0
  149.6829  140.0367  156.5042 C   0  0  0  0  0  0  0  0  0  0  0  0
  148.5920  139.4862  155.7764 C   0  0  0  0  0  0  0  0  0  0  0  0
  148.1500  138.2197  155.9089 N   0  0  0  0  0  0  0  0  0  0  0  0
  147.9070  137.5542  154.6360 C   0  0  0  0  0  0  0  0  0  0  0  0
  148.8594  137.4700  156.9410 C   0  0  0  0  0  0  0  0  0  0  0  0
  148.1047  137.4617  158.2811 C   0  0  1  0  0  0  0  0  0  0  0  0
  146.8091  136.6308  158.2103 C   0  0  0  0  0  0  0  0  0  0  0  0
  146.2809  136.4260  159.6333 C   0  0  0  0  0  0  0  0  0  0  0  0
  147.7679  136.2830  160.6919 S   0  0  0  0  0  0  0  0  0  0  0  0
  147.6651  137.2485  161.7964 O   0  0  0  0  0  0  0  0  0  0  0  0
  148.0508  134.8630  160.9506 O   0  0  0  0  0  0  0  0  0  0  0  0
  148.9520  136.9062  159.4390 C   0  0  0  0  0  0  0  0  0  0  0  0
  147.9340  140.2873  154.9038 N   0  0  0  0  0  0  0  0  0  0  0  0
  148.3206  141.5569  154.7456 C   0  0  0  0  0  0  0  0  0  0  0  0
  149.3142  142.2093  155.3536 N   0  0  0  0  0  0  0  0  0  0  0  0
  149.9728  141.4033  156.2359 C   0  0  0  0  0  0  0  0  0  0  0  0
  152.1670  141.3334  159.4285 H   0  0  0  0  0  0  0  0  0  0  0  0
  152.6833  141.9935  160.9723 H   0  0  0  0  0  0  0  0  0  0  0  0
  153.4790  142.5164  159.4961 H   0  0  0  0  0  0  0  0  0  0  0  0
  150.5778  143.0815  160.3087 H   0  0  0  0  0  0  0  0  0  0  0  0
  150.5890  145.9349  160.1052 H   0  0  0  0  0  0  0  0  0  0  0  0
  152.2535  146.5403  160.0703 H   0  0  0  0  0  0  0  0  0  0  0  0
  151.1512  145.9755  157.6938 H   0  0  0  0  0  0  0  0  0  0  0  0
  152.7467  145.3165  158.0488 H   0  0  0  0  0  0  0  0  0  0  0  0
  149.5410  143.8592  157.3076 H   0  0  0  0  0  0  0  0  0  0  0  0
  151.6088  143.5257  156.2371 H   0  0  0  0  0  0  0  0  0  0  0  0
  152.7837  142.8137  157.3151 H   0  0  0  0  0  0  0  0  0  0  0  0
  152.1300  140.4922  158.4622 H   0  0  0  0  0  0  0  0  0  0  0  0
  147.5183  138.2511  153.8918 H   0  0  0  0  0  0  0  0  0  0  0  0
  147.1719  136.7595  154.7595 H   0  0  0  0  0  0  0  0  0  0  0  0
  148.8250  137.1132  154.2459 H   0  0  0  0  0  0  0  0  0  0  0  0
  149.0012  136.4455  156.5941 H   0  0  0  0  0  0  0  0  0  0  0  0
  149.8582  137.8844  157.0908 H   0  0  0  0  0  0  0  0  0  0  0  0
  147.8143  138.4814  158.5370 H   0  0  0  0  0  0  0  0  0  0  0  0
  146.0613  137.1019  157.5719 H   0  0  0  0  0  0  0  0  0  0  0  0
  147.0311  135.6560  157.7740 H   0  0  0  0  0  0  0  0  0  0  0  0
  145.7131  137.2957  159.9644 H   0  0  0  0  0  0  0  0  0  0  0  0
  145.6555  135.5390  159.7357 H   0  0  0  0  0  0  0  0  0  0  0  0
  149.5633  136.0648  159.1108 H   0  0  0  0  0  0  0  0  0  0  0  0
  149.6080  137.6558  159.8816 H   0  0  0  0  0  0  0  0  0  0  0  0
  147.7501  142.1335  154.0326 H   0  0  0  0  0  0  0  0  0  0  0  0
  1  2  1  0  0  0  0
  1 28  1  0  0  0  0
  1 29  1  0  0  0  0
  1 30  1  0  0  0  0
  2  6  1  0  0  0  0
  2  3  1  0  0  0  0
  2 31  1  0  0  0  0
  3  4  1  0  0  0  0
  4  5  1  0  0  0  0
  4 32  1  0  0  0  0
  4 33  1  0  0  0  0
  5  6  1  0  0  0  0
  5 34  1  0  0  0  0
  5 35  1  0  0  0  0
  6  7  1  0  0  0  0
  6  8  1  0  0  0  0
  7 36  1  0  0  0  0
  8  9  1  0  0  0  0
  8 37  1  0  0  0  0
  8 38  1  0  0  0  0
  9 27  1  0  0  0  0
  9 10  1  0  0  0  0
 10 11  2  0  0  0  0
 10 39  1  0  0  0  0
 11 12  1  0  0  0  0
 12 27  2  0  0  0  0
 12 13  1  0  0  0  0
 13 14  1  0  0  0  0
 13 24  2  0  0  0  0
 14 15  1  0  0  0  0
 14 16  1  0  0  0  0
 15 40  1  0  0  0  0
 15 41  1  0  0  0  0
 15 42  1  0  0  0  0
 16 17  1  0  0  0  0
 16 43  1  0  0  0  0
 16 44  1  0  0  0  0
 17 23  1  0  0  0  0
 17 18  1  0  0  0  0
 17 45  1  0  0  0  0
 18 19  1  0  0  0  0
 18 46  1  0  0  0  0
 18 47  1  0  0  0  0
 19 20  1  0  0  0  0
 19 48  1  0  0  0  0
 19 49  1  0  0  0  0
 20 21  2  0  0  0  0
 20 22  2  0  0  0  0
 20 23  1  0  0  0  0
 23 50  1  0  0  0  0
 23 51  1  0  0  0  0
 24 25  1  0  0  0  0
 25 26  2  0  0  0  0
 25 52  1  0  0  0  0
 26 27  1  0  0  0  0
M  END
> <s_m_source_file>
AV-unprocessed.smi

> <i_m_source_file_index>
266

> <i_lp_mmshare_version>
43012

> <i_f3d_flags>
0

> <s_epik_input>
W0NIMl0xW0NIMl1PW0NAQEhdKFtDSDNdKVtDQEBdMShbT0hdKVtDSDJdbihbY0hdbjIpYyhjMjMpbltjSF1uYzNOKFtDSDNdKVtDSDJdW0NAQEhdKFtDSDJdNClbQ0gyXVtDSDJdUzQoPU8pPU8=

> <s_epik_cmdline>
J2VwaWtfcHl0aG9uJywgJy1waCcsICc3LjAnLCAnLXRuJywgJzgnLCAnLW1hJywgJzIwMCcsICctbWV0YWxfYmluZGluZycsICctaW1hZScsICc8aW5maWxlLm1hZT4nLCAnLW9tYWUnLCAnPG91dGZpbGUubWFlPic=

> <r_lp_tautomer_probability>
1

> <r_epik_Ionization_Penalty>
0.00155497

> <r_epik_Ionization_Penalty_Charging>
0

> <r_epik_Ionization_Penalty_Neutral>
0.00155497

> <r_epik_State_Penalty>
-0

> <r_epik_Charging_Adjusted_Penalty>
0

> <i_epik_Tot_Q>
0

> <i_epik_Tot_abs_Q>
0

> <r_epik_Metal_State_Penalty>
-0

> <b_epik_Metal_Only>
0

> <s_lp_Force_Field>
OPLS_2005

> <r_lp_Energy>
32.9828

> <b_lp_Chiralities_Consistent>
1

> <s_lp_Variant>
AV-unprocessed.smi:266-8

> <Gold.Version>
5.8.1

> <Gold.Id.Protein>
6NUR|6NUR_protein|mol2

> <Gold.PLP.Fitness>
39.7303

> <Gold.PLP.PLP>
-35.4851

> <Gold.PLP.part.hbond>
-4.0000

> <Gold.PLP.part.metal>
0.0000

> <Gold.PLP.part.buried>
-6.9236

> <Gold.PLP.part.nonpolar>
-28.1090

> <Gold.PLP.part.repulsive>
3.8417

> <Gold.PLP.ligand.clash>
1.3941

> <Gold.PLP.ligand.torsion>
1.2623

> <Gold.PLP.Chemscore.Hbond>
2.5779

> <Gold.PLP.Chemscore.CHOScore>
0.0000

> <Gold.PLP.Chemscore.Metal>
0.0000

> <Gold.Chemscore.Hbonds>
donor molecule, donor type, donor heavy atom, donor atom, acceptor molecule, acceptor atom, score
      L1  H     7    36       P1  8028  0.94
      P1  H  6931  6943       L1    21  0.98
      P1  H  6934  6947       L1    21  0.69

> <Gold.PLP.Chemscore.Internal.Correction>
0.4304

> <Gold.Rescore>
     Score         DG    S(hbond)    S(metal)    S(lipo)     H(rot)  DE(clash)    DE(int)     intcor
      9.50     -15.92       2.44        0.00      79.87       2.76       3.54       2.88       ----

> <Gold.Chemscore.Fitness>
9.4958

> <Gold.Chemscore.DG>
-15.9159

> <Gold.Chemscore.ZeroCoef>
-5.4800

> <Gold.Chemscore.Hbond>
2.4448

> <Gold.Chemscore.Metal>
0.0000

> <Gold.Chemscore.Lipo>
79.8746

> <Gold.Chemscore.Internal_Hbond>
0.0000

> <Gold.Chemscore.DEClash>
3.5449

> <Gold.Chemscore.DEInternal>
2.8751

> <Gold.Chemscore.Rot>
2.7637

> <Gold.Chemscore.Internal.Correction>
   9.000000E+99

> <Gold.Chemscore.Hbonds>
donor molecule, donor type, donor heavy atom, donor atom, acceptor molecule, acceptor atom, score
      L1  H     7    36       P1  8028  0.50
      P1  H  6931  6943       L1    21  0.80
      P1  H  6934  6947       L1    21  0.39

> <Gold.Chemscore.Hbond.Weighted>
-8.1656

> <Gold.Chemscore.Metal.Weighted>
-0.0000

> <Gold.Chemscore.Lipo.Weighted>
-9.3453

> <Gold.Chemscore.Internal_Hbond.Weighted>
0.0000

> <Gold.Chemscore.DEClash.Weighted>
3.5449

> <Gold.Chemscore.DEInternal.Weighted>
2.8751

> <Gold.Chemscore.Rot.Weighted>
7.0750

> <Gold.Chemscore.Internal.Correction.Weighted>
   9.000000E+99

> <Gold.Protein.RotatedTorsions>
[ 6907 6896 6895 6894 ] final  -92.50 input  -60.11 | X-H torsion
[ 7974 7965 7964 7962 ] final  -30.16 input  175.53 | X-H torsion
[ 8008 7997 7996 7995 ] final  -76.38 input   59.86 | X-H torsion
[ 10167 10162 10161 10158 ] final   -7.10 input  -65.29 | X-H torsion
[ 10718 10713 10712 10709 ] final  -71.23 input   66.30 | X-H torsion
[ 10763 10752 10751 10750 ] final  141.74 input  -60.55 | X-H torsion
[ 11005 11000 10999 10996 ] final  163.79 input  -57.11 | X-H torsion

> <Gold.Protein.ActiveResidues>
 VAL166  LYS551  ARG553  GLY616  TRP617  ASP618  TYR619  PRO620  LYS621  CYS622 
 ASP623  PHE694  ASN695  SER759  ASP760  ASP761  ALA762  ILE779  LEU786  VAL792 
 PHE793  MET794  SER795  GLU796  ALA797  LYS798  CYS799  TRP800  GLU811  SER814 

> <Gold.Protein.RotatedAtoms>
  150.6907  134.2112  159.4359 H   0  0  0  0  0  0  0  0  0  0  0  0  # atno 6907 bound_to 6896
  152.0073  134.9893  160.0576 H   0  0  0  0  0  0  0  0  0  0  0  0  # atno 6908 bound_to 6896
  152.1522  133.4494  159.4856 H   0  0  0  0  0  0  0  0  0  0  0  0  # atno 6909 bound_to 6896
  146.1163  140.5505  142.8755 H   0  0  0  0  0  0  0  0  0  0  0  0  # atno 7974 bound_to 7965
  154.5500  140.0728  156.8652 H   0  0  0  0  0  0  0  0  0  0  0  0  # atno 8008 bound_to 7997
  155.3011  140.3384  155.4229 H   0  0  0  0  0  0  0  0  0  0  0  0  # atno 8009 bound_to 7997
  156.1953  140.1701  156.7997 H   0  0  0  0  0  0  0  0  0  0  0  0  # atno 8010 bound_to 7997
  140.7018  143.6119  150.8695 H   0  0  0  0  0  0  0  0  0  0  0  0  # atno 10167 bound_to 10162
  156.0372  130.4347  150.2413 H   0  0  0  0  0  0  0  0  0  0  0  0  # atno 10718 bound_to 10713
  153.9442  135.2977  155.3441 H   0  0  0  0  0  0  0  0  0  0  0  0  # atno 10763 bound_to 10752
  154.7461  135.5002  153.9209 H   0  0  0  0  0  0  0  0  0  0  0  0  # atno 10764 bound_to 10752
  153.1027  135.6738  153.9750 H   0  0  0  0  0  0  0  0  0  0  0  0  # atno 10765 bound_to 10752
  140.2393  134.8063  157.3395 H   0  0  0  0  0  0  0  0  0  0  0  0  # atno 11005 bound_to 11000
  144.7556  140.5299  143.6771 LP  0  0  0  0  0  0  0  0  0  0  0  0  # atno 17320 bound_to 7965
  145.5559  139.1478  143.3368 LP  0  0  0  0  0  0  0  0  0  0  0  0  # atno 17321 bound_to 7965
  139.9842  143.5918  152.2932 LP  0  0  0  0  0  0  0  0  0  0  0  0  # atno 17342 bound_to 10162
  139.6550  144.7662  151.2074 LP  0  0  0  0  0  0  0  0  0  0  0  0  # atno 17343 bound_to 10162
  157.0512  131.0063  151.3253 LP  0  0  0  0  0  0  0  0  0  0  0  0  # atno 17370 bound_to 10713
  157.5139  130.7956  149.7735 LP  0  0  0  0  0  0  0  0  0  0  0  0  # atno 17371 bound_to 10713
  140.1669  134.4657  155.7857 LP  0  0  0  0  0  0  0  0  0  0  0  0  # atno 17394 bound_to 11000
  141.2212  133.6925  156.7641 LP  0  0  0  0  0  0  0  0  0  0  0  0  # atno 17395 bound_to 11000

$$$$
