AV-unprocessed.smi:1047|AV-procd|sdf|4590|dock3
  -GOLD-   22720 3 63D 1   1.00000     0.00000
 Structure written by MMmdl.
 57 59  0  0  0  0  0  0  0  0  3 V2000
  150.2665  131.3935  157.8479 C   0  0  0  0  0  0  0  0  0  0  0  0
  151.4091  131.5761  156.8389 C   0  0  0  0  0  0  0  0  0  0  0  0
  151.0837  132.4107  155.6833 N   0  0  0  0  0  0  0  0  0  0  0  0
  149.7874  132.0766  155.0983 C   0  0  0  0  0  0  0  0  0  0  0  0
  149.4480  132.9848  153.9042 C   0  0  0  0  0  0  0  0  0  0  0  0
  149.4955  134.3483  154.3123 O   0  0  0  0  0  0  0  0  0  0  0  0
  150.7655  134.7292  154.8358 C   0  0  1  0  0  0  0  0  0  0  0  0
  150.6947  136.2102  155.2316 C   0  0  0  0  0  0  0  0  0  0  0  0
  150.7336  137.0802  154.0398 N   0  3  0  0  0  0  0  0  0  0  0  0
  150.8170  138.5213  154.3501 C   0  0  0  0  0  0  0  0  0  0  0  0
  151.9659  138.8266  155.3310 C   0  0  1  0  0  0  0  0  0  0  0  0
  152.7610  139.8692  154.8030 O   0  0  0  0  0  0  0  0  0  0  0  0
  151.4912  139.2828  156.7260 C   0  0  0  0  0  0  0  0  0  0  0  0
  151.0777  140.6927  156.7668 N   0  0  0  0  0  0  0  0  0  0  0  0
  150.2930  141.3887  155.8993 C   0  0  0  0  0  0  0  0  0  0  0  0
  150.1832  142.6604  156.3732 N   0  3  0  0  0  0  0  0  0  0  0  0
  150.9045  142.7788  157.5629 C   0  0  0  0  0  0  0  0  0  0  0  0
  151.0914  143.8658  158.4084 C   0  0  0  0  0  0  0  0  0  0  0  0
  151.8889  143.6607  159.5566 C   0  0  0  0  0  0  0  0  0  0  0  0
  152.1105  144.8283  160.5036 C   0  0  0  0  0  0  0  0  0  0  0  0
  152.4714  142.3947  159.8234 C   0  0  0  0  0  0  0  0  0  0  0  0
  153.3295  142.1854  161.0597 C   0  0  0  0  0  0  0  0  0  0  0  0
  152.2696  141.3014  158.9510 C   0  0  0  0  0  0  0  0  0  0  0  0
  151.4793  141.5193  157.8242 C   0  0  0  0  0  0  0  0  0  0  0  0
  151.0915  133.8248  156.0409 C   0  0  0  0  0  0  0  0  0  0  0  0
  150.5479  130.6744  158.6175 H   0  0  0  0  0  0  0  0  0  0  0  0
  149.3658  131.0195  157.3601 H   0  0  0  0  0  0  0  0  0  0  0  0
  150.0161  132.3254  158.3537 H   0  0  0  0  0  0  0  0  0  0  0  0
  152.2859  131.9755  157.3509 H   0  0  0  0  0  0  0  0  0  0  0  0
  151.6944  130.5838  156.4869 H   0  0  0  0  0  0  0  0  0  0  0  0
  149.7792  131.0404  154.7610 H   0  0  0  0  0  0  0  0  0  0  0  0
  149.0054  132.1665  155.8540 H   0  0  0  0  0  0  0  0  0  0  0  0
  150.1464  132.8195  153.0822 H   0  0  0  0  0  0  0  0  0  0  0  0
  148.4502  132.7592  153.5275 H   0  0  0  0  0  0  0  0  0  0  0  0
  151.5300  134.5967  154.0675 H   0  0  0  0  0  0  0  0  0  0  0  0
  149.7847  136.4044  155.8013 H   0  0  0  0  0  0  0  0  0  0  0  0
  151.5383  136.4620  155.8754 H   0  0  0  0  0  0  0  0  0  0  0  0
  151.5303  136.8212  153.4755 H   0  0  0  0  0  0  0  0  0  0  0  0
  150.9429  139.0915  153.4283 H   0  0  0  0  0  0  0  0  0  0  0  0
  149.8629  138.8206  154.7839 H   0  0  0  0  0  0  0  0  0  0  0  0
  152.5957  137.9430  155.4443 H   0  0  0  0  0  0  0  0  0  0  0  0
  152.8784  139.7297  153.8759 H   0  0  0  0  0  0  0  0  0  0  0  0
  150.6249  138.6939  157.0316 H   0  0  0  0  0  0  0  0  0  0  0  0
  152.2558  139.1066  157.4828 H   0  0  0  0  0  0  0  0  0  0  0  0
  149.8350  141.0006  155.0007 H   0  0  0  0  0  0  0  0  0  0  0  0
  150.6450  144.8269  158.1982 H   0  0  0  0  0  0  0  0  0  0  0  0
  151.7547  144.5836  161.5047 H   0  0  0  0  0  0  0  0  0  0  0  0
  151.5771  145.7192  160.1703 H   0  0  0  0  0  0  0  0  0  0  0  0
  153.1706  145.0772  160.5633 H   0  0  0  0  0  0  0  0  0  0  0  0
  153.7216  141.1691  161.1064 H   0  0  0  0  0  0  0  0  0  0  0  0
  152.7461  142.3589  161.9643 H   0  0  0  0  0  0  0  0  0  0  0  0
  154.1787  142.8692  161.0580 H   0  0  0  0  0  0  0  0  0  0  0  0
  152.7156  140.3402  159.1583 H   0  0  0  0  0  0  0  0  0  0  0  0
  150.3693  134.0071  156.8384 H   0  0  0  0  0  0  0  0  0  0  0  0
  152.0697  134.0962  156.4402 H   0  0  0  0  0  0  0  0  0  0  0  0
  149.8920  136.9171  153.5050 H   0  0  0  0  0  0  0  0  0  0  0  0
  149.6480  143.3904  155.9199 H   0  0  0  0  0  0  0  0  0  0  0  0
  1  2  1  0  0  0  0
  1 26  1  0  0  0  0
  1 27  1  0  0  0  0
  1 28  1  0  0  0  0
  2  3  1  0  0  0  0
  2 29  1  0  0  0  0
  2 30  1  0  0  0  0
  3 25  1  0  0  0  0
  3  4  1  0  0  0  0
  4  5  1  0  0  0  0
  4 31  1  0  0  0  0
  4 32  1  0  0  0  0
  5  6  1  0  0  0  0
  5 33  1  0  0  0  0
  5 34  1  0  0  0  0
  6  7  1  0  0  0  0
  7  8  1  0  0  0  0
  7 25  1  0  0  0  0
  7 35  1  0  0  0  0
  8  9  1  0  0  0  0
  8 36  1  0  0  0  0
  8 37  1  0  0  0  0
  9 10  1  0  0  0  0
  9 38  1  0  0  0  0
  9 56  1  0  0  0  0
 10 11  1  0  0  0  0
 10 39  1  0  0  0  0
 10 40  1  0  0  0  0
 11 12  1  0  0  0  0
 11 13  1  0  0  0  0
 11 41  1  0  0  0  0
 12 42  1  0  0  0  0
 13 14  1  0  0  0  0
 13 43  1  0  0  0  0
 13 44  1  0  0  0  0
 14 24  1  0  0  0  0
 14 15  1  0  0  0  0
 15 16  2  0  0  0  0
 15 45  1  0  0  0  0
 16 17  1  0  0  0  0
 16 57  1  0  0  0  0
 17 24  2  0  0  0  0
 17 18  1  0  0  0  0
 18 19  2  0  0  0  0
 18 46  1  0  0  0  0
 19 20  1  0  0  0  0
 19 21  1  0  0  0  0
 20 47  1  0  0  0  0
 20 48  1  0  0  0  0
 20 49  1  0  0  0  0
 21 22  1  0  0  0  0
 21 23  2  0  0  0  0
 22 50  1  0  0  0  0
 22 51  1  0  0  0  0
 22 52  1  0  0  0  0
 23 24  1  0  0  0  0
 23 53  1  0  0  0  0
 25 54  1  0  0  0  0
 25 55  1  0  0  0  0
M  CHG  1   9   1
M  CHG  1  16   1
M  END
> <s_m_source_file>
AV-unprocessed.smi

> <i_m_source_file_index>
1047

> <i_lp_mmshare_version>
43012

> <i_f3d_flags>
0

> <s_epik_input>
W0NIM11bQ0gyXU4xW0NIMl1bQ0gyXU9bQ0BIXShbQ0gyXTEpW0NIMl1bTkhdW0NIMl1bQ0BIXShbT0hdKVtDSDJdbihbY0hdbjIpYyhjMjMpW2NIXWMoW0NIM10pYyhbY0hdMylbQ0gzXQ==

> <s_epik_cmdline>
J2VwaWtfcHl0aG9uJywgJy1waCcsICc3LjAnLCAnLXRuJywgJzgnLCAnLW1hJywgJzIwMCcsICctbWV0YWxfYmluZGluZycsICctaW1hZScsICc8aW5maWxlLm1hZT4nLCAnLW9tYWUnLCAnPG91dGZpbGUubWFlPic=

> <r_epik_Ionization_Penalty>
1.75732

> <r_epik_Ionization_Penalty_Charging>
1.18089

> <r_epik_Ionization_Penalty_Neutral>
0.576429

> <r_epik_State_Penalty>
1.69377

> <r_epik_Charging_Adjusted_Penalty>
2.87466

> <i_epik_Tot_Q>
2

> <i_epik_Tot_abs_Q>
2

> <r_epik_Metal_State_Penalty>
5.70174

> <b_epik_Metal_Only>
0

> <s_lp_Force_Field>
OPLS_2005

> <r_lp_Energy>
42.3107

> <b_lp_Chiralities_Consistent>
1

> <s_lp_Variant>
AV-unprocessed.smi:1047-31

> <Gold.Version>
5.8.1

> <Gold.Id.Protein>
6NUR|6NUR_protein|mol2

> <Gold.PLP.Fitness>
67.4881

> <Gold.PLP.PLP>
-53.7975

> <Gold.PLP.part.hbond>
-4.8243

> <Gold.PLP.part.metal>
0.0000

> <Gold.PLP.part.buried>
-6.4365

> <Gold.PLP.part.nonpolar>
-42.0259

> <Gold.PLP.part.repulsive>
0.3573

> <Gold.PLP.ligand.clash>
0.0000

> <Gold.PLP.ligand.torsion>
1.3280

> <Gold.PLP.Chemscore.Hbond>
5.3667

> <Gold.PLP.Chemscore.CHOScore>
0.0000

> <Gold.PLP.Chemscore.Metal>
0.0000

> <Gold.Chemscore.Hbonds>
donor molecule, donor type, donor heavy atom, donor atom, acceptor molecule, acceptor atom, score
      L1  H     9    38       P1  7949  0.45
      L1  H     9    56       P1  7948  1.98
      L1  H    16    57       P1  8028  2.00
      P1  H  7997  8010       L1    12  0.99

> <Gold.PLP.Chemscore.Internal.Correction>
0.2465

> <Gold.Rescore>
     Score         DG    S(hbond)    S(metal)    S(lipo)     H(rot)  DE(clash)    DE(int)     intcor
     21.95     -23.57       2.66        0.00     137.48       2.69       0.29       1.33       ----

> <Gold.Chemscore.Fitness>
21.9455

> <Gold.Chemscore.DG>
-23.5673

> <Gold.Chemscore.ZeroCoef>
-5.4800

> <Gold.Chemscore.Hbond>
2.6626

> <Gold.Chemscore.Metal>
0.0000

> <Gold.Chemscore.Lipo>
137.4783

> <Gold.Chemscore.Internal_Hbond>
0.0000

> <Gold.Chemscore.DEClash>
0.2869

> <Gold.Chemscore.DEInternal>
1.3349

> <Gold.Chemscore.Rot>
2.6917

> <Gold.Chemscore.Internal.Correction>
   9.000000E+99

> <Gold.Chemscore.Hbonds>
donor molecule, donor type, donor heavy atom, donor atom, acceptor molecule, acceptor atom, score
      L1  H     9    38       P1  7949  0.21
      L1  H     9    56       P1  7948  0.32
      L1  H    16    57       P1  8028  0.95
      P1  H  7997  8010       L1    12  0.74

> <Gold.Chemscore.Hbond.Weighted>
-8.8930

> <Gold.Chemscore.Metal.Weighted>
-0.0000

> <Gold.Chemscore.Lipo.Weighted>
-16.0850

> <Gold.Chemscore.Internal_Hbond.Weighted>
0.0000

> <Gold.Chemscore.DEClash.Weighted>
0.2869

> <Gold.Chemscore.DEInternal.Weighted>
1.3349

> <Gold.Chemscore.Rot.Weighted>
6.8907

> <Gold.Chemscore.Internal.Correction.Weighted>
   9.000000E+99

> <Gold.Protein.RotatedTorsions>
[ 6907 6896 6895 6894 ] final  -57.68 input  -60.11 | X-H torsion
[ 7974 7965 7964 7962 ] final  134.82 input  175.53 | X-H torsion
[ 8008 7997 7996 7995 ] final  110.02 input   59.86 | X-H torsion
[ 10167 10162 10161 10158 ] final  141.63 input  -65.29 | X-H torsion
[ 10718 10713 10712 10709 ] final  152.05 input   66.30 | X-H torsion
[ 10763 10752 10751 10750 ] final -128.06 input  -60.55 | X-H torsion
[ 11005 11000 10999 10996 ] final    6.76 input  -57.11 | X-H torsion

> <Gold.Protein.ActiveResidues>
 VAL166  LYS551  ARG553  GLY616  TRP617  ASP618  TYR619  PRO620  LYS621  CYS622 
 ASP623  PHE694  ASN695  SER759  ASP760  ASP761  ALA762  ILE779  LEU786  VAL792 
 PHE793  MET794  SER795  GLU796  ALA797  LYS798  CYS799  TRP800  GLU811  SER814 

> <Gold.Protein.RotatedAtoms>
  150.8067  134.7196  159.6649 H   0  0  0  0  0  0  0  0  0  0  0  0  # atno 6907 bound_to 6896
  152.4186  134.5993  160.0005 H   0  0  0  0  0  0  0  0  0  0  0  0  # atno 6908 bound_to 6896
  151.6215  133.3301  159.3125 H   0  0  0  0  0  0  0  0  0  0  0  0  # atno 6909 bound_to 6896
  144.9725  139.4590  143.5426 H   0  0  0  0  0  0  0  0  0  0  0  0  # atno 7974 bound_to 7965
  156.2023  140.3046  155.9552 H   0  0  0  0  0  0  0  0  0  0  0  0  # atno 8008 bound_to 7997
  155.2925  140.0442  157.3041 H   0  0  0  0  0  0  0  0  0  0  0  0  # atno 8009 bound_to 7997
  154.5586  140.2313  155.8379 H   0  0  0  0  0  0  0  0  0  0  0  0  # atno 8010 bound_to 7997
  139.5015  144.6159  151.6165 H   0  0  0  0  0  0  0  0  0  0  0  0  # atno 10167 bound_to 10162
  157.2628  131.0801  151.1654 H   0  0  0  0  0  0  0  0  0  0  0  0  # atno 10718 bound_to 10713
  154.8755  135.3941  154.3696 H   0  0  0  0  0  0  0  0  0  0  0  0  # atno 10763 bound_to 10752
  153.4457  135.7027  153.6145 H   0  0  0  0  0  0  0  0  0  0  0  0  # atno 10764 bound_to 10752
  153.4707  135.3791  155.2358 H   0  0  0  0  0  0  0  0  0  0  0  0  # atno 10765 bound_to 10752
  140.5558  134.0239  155.7953 H   0  0  0  0  0  0  0  0  0  0  0  0  # atno 11005 bound_to 11000
  146.3386  139.8947  142.8803 LP  0  0  0  0  0  0  0  0  0  0  0  0  # atno 17320 bound_to 7965
  145.2538  141.0053  143.3866 LP  0  0  0  0  0  0  0  0  0  0  0  0  # atno 17321 bound_to 7965
  140.5846  143.9886  150.6288 LP  0  0  0  0  0  0  0  0  0  0  0  0  # atno 17342 bound_to 10162
  140.3046  143.3238  152.0938 LP  0  0  0  0  0  0  0  0  0  0  0  0  # atno 17343 bound_to 10162
  157.3157  130.6912  149.6240 LP  0  0  0  0  0  0  0  0  0  0  0  0  # atno 17370 bound_to 10713
  155.9664  130.4350  150.5074 LP  0  0  0  0  0  0  0  0  0  0  0  0  # atno 17371 bound_to 10713
  141.1144  133.9564  157.2850 LP  0  0  0  0  0  0  0  0  0  0  0  0  # atno 17394 bound_to 11000
  139.9432  135.0188  156.8773 LP  0  0  0  0  0  0  0  0  0  0  0  0  # atno 17395 bound_to 11000

$$$$
