AV-unprocessed.smi:1297|AV-procd|sdf|5416|dock1
  -GOLD-   22720 4573D 1   1.00000     0.00000
 Structure written by MMmdl.
 26 27  0  0  0  0  0  0  0  0  1 V2000
  152.8124  144.0615  158.5898 C   0  0  0  0  0  0  0  0  0  0  0  0
  152.6915  142.5541  159.5948 S   0  0  0  0  0  0  0  0  0  0  0  0
  152.6576  141.3282  158.3180 C   0  0  0  0  0  0  0  0  0  0  0  0
  153.5535  140.3439  158.1917 N   0  0  0  0  0  0  0  0  0  0  0  0
  153.1754  139.6342  157.0756 N   0  0  0  0  0  0  0  0  0  0  0  0
  152.0704  140.2362  156.6319 C   0  0  0  0  0  0  0  0  0  0  0  0
  151.3355  139.8072  155.4008 C   0  0  0  0  0  0  0  0  0  0  0  0
  150.6472  138.4618  155.3351 C   0  0  0  0  0  0  0  0  0  0  0  0
  151.8739  138.7160  154.5001 C   0  0  0  0  0  0  0  0  0  0  0  0
  151.7045  141.3117  157.3607 N   0  0  0  0  0  0  0  0  0  0  0  0
  150.5813  142.2204  157.1566 C   0  0  0  0  0  0  0  0  0  0  0  0
  149.2370  141.4882  157.1897 C   0  0  0  0  0  0  0  0  0  0  0  0
  148.1392  142.2024  156.9288 N   0  0  0  0  0  0  0  0  0  0  0  0
  149.1911  140.2855  157.4365 O   0  0  0  0  0  0  0  0  0  0  0  0
  152.8503  144.9373  159.2374 H   0  0  0  0  0  0  0  0  0  0  0  0
  151.9457  144.1590  157.9355 H   0  0  0  0  0  0  0  0  0  0  0  0
  153.7163  144.0485  157.9801 H   0  0  0  0  0  0  0  0  0  0  0  0
  150.8449  140.6566  154.9296 H   0  0  0  0  0  0  0  0  0  0  0  0
  150.7561  137.7929  156.1865 H   0  0  0  0  0  0  0  0  0  0  0  0
  149.6879  138.4149  154.8242 H   0  0  0  0  0  0  0  0  0  0  0  0
  151.7351  138.8372  153.4278 H   0  0  0  0  0  0  0  0  0  0  0  0
  152.7920  138.2126  154.7973 H   0  0  0  0  0  0  0  0  0  0  0  0
  150.5977  143.0000  157.9184 H   0  0  0  0  0  0  0  0  0  0  0  0
  150.7028  142.7268  156.1984 H   0  0  0  0  0  0  0  0  0  0  0  0
  147.2327  141.7570  156.9396 H   0  0  0  0  0  0  0  0  0  0  0  0
  148.2195  143.1871  156.7204 H   0  0  0  0  0  0  0  0  0  0  0  0
  1  2  1  0  0  0  0
  1 15  1  0  0  0  0
  1 16  1  0  0  0  0
  1 17  1  0  0  0  0
  2  3  1  0  0  0  0
  3 10  1  0  0  0  0
  3  4  2  0  0  0  0
  4  5  1  0  0  0  0
  5  6  2  0  0  0  0
  6  7  1  0  0  0  0
  6 10  1  0  0  0  0
  7  9  1  0  0  0  0
  7  8  1  0  0  0  0
  7 18  1  0  0  0  0
  8  9  1  0  0  0  0
  8 19  1  0  0  0  0
  8 20  1  0  0  0  0
  9 21  1  0  0  0  0
  9 22  1  0  0  0  0
 10 11  1  0  0  0  0
 11 12  1  0  0  0  0
 11 23  1  0  0  0  0
 11 24  1  0  0  0  0
 12 13  1  0  0  0  0
 12 14  2  0  0  0  0
 13 25  1  0  0  0  0
 13 26  1  0  0  0  0
M  END
> <s_m_source_file>
AV-unprocessed.smi

> <i_m_source_file_index>
1297

> <i_lp_mmshare_version>
43012

> <i_f3d_flags>
0

> <s_epik_input>
W0NIM11TYzFubmMoW0NIXTJbQ0gyXVtDSDJdMiluMVtDSDJdQyg9TylbTkgyXQ==

> <s_epik_cmdline>
J2VwaWtfcHl0aG9uJywgJy1waCcsICc3LjAnLCAnLXRuJywgJzgnLCAnLW1hJywgJzIwMCcsICctbWV0YWxfYmluZGluZycsICctaW1hZScsICc8aW5maWxlLm1hZT4nLCAnLW9tYWUnLCAnPG91dGZpbGUubWFlPic=

> <r_lp_tautomer_probability>
1

> <r_epik_Ionization_Penalty>
2.14715e-06

> <r_epik_Ionization_Penalty_Charging>
0

> <r_epik_Ionization_Penalty_Neutral>
2.14715e-06

> <r_epik_State_Penalty>
-0

> <r_epik_Charging_Adjusted_Penalty>
0

> <i_epik_Tot_Q>
0

> <i_epik_Tot_abs_Q>
0

> <r_epik_Metal_State_Penalty>
-0

> <b_epik_Metal_Only>
0

> <s_lp_Force_Field>
OPLS_2005

> <r_lp_Energy>
5.16146

> <b_lp_Chiralities_Consistent>
1

> <s_lp_Variant>
AV-unprocessed.smi:1297-1

> <Gold.Version>
5.8.1

> <Gold.Id.Protein>
6NUR|6NUR_protein|mol2

> <Gold.PLP.Fitness>
34.1511

> <Gold.PLP.PLP>
-28.1869

> <Gold.PLP.part.hbond>
-3.0000

> <Gold.PLP.part.metal>
0.0000

> <Gold.PLP.part.buried>
-1.3533

> <Gold.PLP.part.nonpolar>
-23.0234

> <Gold.PLP.part.repulsive>
0.0206

> <Gold.PLP.ligand.clash>
0.0000

> <Gold.PLP.ligand.torsion>
0.0858

> <Gold.PLP.Chemscore.Hbond>
2.0000

> <Gold.PLP.Chemscore.CHOScore>
0.0000

> <Gold.PLP.Chemscore.Metal>
0.0000

> <Gold.Chemscore.Hbonds>
donor molecule, donor type, donor heavy atom, donor atom, acceptor molecule, acceptor atom, score
      L1  H    13    26       P1  8028  1.00
      P1  H  7997  8008       L1     5  0.15

> <Gold.PLP.Chemscore.Internal.Correction>
0.1356

> <Gold.Rescore>
     Score         DG    S(hbond)    S(metal)    S(lipo)     H(rot)  DE(clash)    DE(int)     intcor
      9.40      -9.62       1.02        0.00      54.03       2.19       0.00       0.22       ----

> <Gold.Chemscore.Fitness>
9.3977

> <Gold.Chemscore.DG>
-9.6177

> <Gold.Chemscore.ZeroCoef>
-5.4800

> <Gold.Chemscore.Hbond>
1.0247

> <Gold.Chemscore.Metal>
0.0000

> <Gold.Chemscore.Lipo>
54.0251

> <Gold.Chemscore.Internal_Hbond>
0.0000

> <Gold.Chemscore.DEClash>
0.0015

> <Gold.Chemscore.DEInternal>
0.2185

> <Gold.Chemscore.Rot>
2.1897

> <Gold.Chemscore.Internal.Correction>
   9.000000E+99

> <Gold.Chemscore.Hbonds>
donor molecule, donor type, donor heavy atom, donor atom, acceptor molecule, acceptor atom, score
      L1  H    13    26       P1  8028  0.29

> <Gold.Chemscore.Hbond.Weighted>
-3.4224

> <Gold.Chemscore.Metal.Weighted>
-0.0000

> <Gold.Chemscore.Lipo.Weighted>
-6.3209

> <Gold.Chemscore.Internal_Hbond.Weighted>
0.0000

> <Gold.Chemscore.DEClash.Weighted>
0.0015

> <Gold.Chemscore.DEInternal.Weighted>
0.2185

> <Gold.Chemscore.Rot.Weighted>
5.6057

> <Gold.Chemscore.Internal.Correction.Weighted>
   9.000000E+99

> <Gold.Protein.RotatedTorsions>
[ 6907 6896 6895 6894 ] final  116.74 input  -60.11 | X-H torsion
[ 7974 7965 7964 7962 ] final  -28.29 input  175.53 | X-H torsion
[ 8008 7997 7996 7995 ] final  -53.41 input   59.86 | X-H torsion
[ 10167 10162 10161 10158 ] final  -22.81 input  -65.29 | X-H torsion
[ 10718 10713 10712 10709 ] final  126.78 input   66.30 | X-H torsion
[ 10763 10752 10751 10750 ] final   17.50 input  -60.55 | X-H torsion
[ 11005 11000 10999 10996 ] final  -87.47 input  -57.11 | X-H torsion

> <Gold.Protein.ActiveResidues>
 VAL166  LYS551  ARG553  GLY616  TRP617  ASP618  TYR619  PRO620  LYS621  CYS622 
 ASP623  PHE694  ASN695  SER759  ASP760  ASP761  ALA762  ILE779  LEU786  VAL792 
 PHE793  MET794  SER795  GLU796  ALA797  LYS798  CYS799  TRP800  GLU811  SER814 

> <Gold.Protein.RotatedAtoms>
  152.4658  133.7920  159.6906 H   0  0  0  0  0  0  0  0  0  0  0  0  # atno 6907 bound_to 6896
  150.8622  133.7617  159.2995 H   0  0  0  0  0  0  0  0  0  0  0  0  # atno 6908 bound_to 6896
  151.5179  135.1069  159.9923 H   0  0  0  0  0  0  0  0  0  0  0  0  # atno 6909 bound_to 6896
  146.1298  140.5264  142.8698 H   0  0  0  0  0  0  0  0  0  0  0  0  # atno 7974 bound_to 7965
  154.4132  140.1200  156.5149 H   0  0  0  0  0  0  0  0  0  0  0  0  # atno 8008 bound_to 7997
  155.6761  140.3496  155.4818 H   0  0  0  0  0  0  0  0  0  0  0  0  # atno 8009 bound_to 7997
  155.9591  140.1119  157.0901 H   0  0  0  0  0  0  0  0  0  0  0  0  # atno 8010 bound_to 7997
  140.7287  143.4500  151.0530 H   0  0  0  0  0  0  0  0  0  0  0  0  # atno 10167 bound_to 10162
  157.5389  131.1097  150.8890 H   0  0  0  0  0  0  0  0  0  0  0  0  # atno 10718 bound_to 10713
  153.1333  135.6745  153.9142 H   0  0  0  0  0  0  0  0  0  0  0  0  # atno 10763 bound_to 10752
  153.8622  135.3080  155.3439 H   0  0  0  0  0  0  0  0  0  0  0  0  # atno 10764 bound_to 10752
  154.7726  135.4931  153.9762 H   0  0  0  0  0  0  0  0  0  0  0  0  # atno 10765 bound_to 10752
  141.1616  133.7513  156.9312 H   0  0  0  0  0  0  0  0  0  0  0  0  # atno 11005 bound_to 11000
  144.7679  140.5572  143.6690 LP  0  0  0  0  0  0  0  0  0  0  0  0  # atno 17320 bound_to 7965
  145.5285  139.1475  143.3513 LP  0  0  0  0  0  0  0  0  0  0  0  0  # atno 17321 bound_to 7965
  139.8175  143.7865  152.3175 LP  0  0  0  0  0  0  0  0  0  0  0  0  # atno 17342 bound_to 10162
  139.7936  144.7401  150.9921 LP  0  0  0  0  0  0  0  0  0  0  0  0  # atno 17343 bound_to 10162
  156.9449  130.5398  149.5281 LP  0  0  0  0  0  0  0  0  0  0  0  0  # atno 17370 bound_to 10713
  156.0481  130.5554  150.8927 LP  0  0  0  0  0  0  0  0  0  0  0  0  # atno 17371 bound_to 10713
  140.1385  134.9309  157.2435 LP  0  0  0  0  0  0  0  0  0  0  0  0  # atno 17394 bound_to 11000
  140.2865  134.3289  155.7327 LP  0  0  0  0  0  0  0  0  0  0  0  0  # atno 17395 bound_to 11000

$$$$
