AV-unprocessed.smi:37|AV-procd|sdf|316|dock7
  -GOLD-   2262016133D 1   1.00000     0.00000
 Structure written by MMmdl.
 44 45  0  0  0  0  0  0  0  0  1 V2000
  151.5503  144.9803  158.8532 C   0  0  0  0  0  0  0  0  0  0  0  0
  152.6579  143.9239  158.7340 C   0  0  0  0  0  0  0  0  0  0  0  0
  152.3772  142.6467  159.5277 C   0  0  0  0  0  0  0  0  0  0  0  0
  152.2243  142.6481  160.7503 O   0  0  0  0  0  0  0  0  0  0  0  0
  152.3185  141.5678  158.7346 O   0  0  0  0  0  0  0  0  0  0  0  0
  152.0010  140.3013  159.2899 C   0  0  0  0  0  0  0  0  0  0  0  0
  151.9933  139.2186  158.2012 C   0  0  1  0  0  0  0  0  0  0  0  0
  153.3203  138.8216  157.8556 O   0  0  0  0  0  0  0  0  0  0  0  0
  153.4911  137.4488  158.0562 C   0  0  1  0  0  0  0  0  0  0  0  0
  154.1469  137.2510  159.4180 N   0  0  0  0  0  0  0  0  0  0  0  0
  153.5875  137.6581  160.6279 C   0  0  0  0  0  0  0  0  0  0  0  0
  154.2077  137.4982  161.8212 C   0  0  0  0  0  0  0  0  0  0  0  0
  153.6018  137.9194  162.9441 F   0  0  0  0  0  0  0  0  0  0  0  0
  155.5273  136.8819  161.9011 C   0  0  0  0  0  0  0  0  0  0  0  0
  156.1685  136.7001  162.9338 O   0  0  0  0  0  0  0  0  0  0  0  0
  156.0550  136.4939  160.6682 N   0  0  0  0  0  0  0  0  0  0  0  0
  155.4276  136.6514  159.4318 C   0  0  0  0  0  0  0  0  0  0  0  0
  155.9940  136.2718  158.4077 O   0  0  0  0  0  0  0  0  0  0  0  0
  152.0860  136.8526  157.9179 C   0  0  2  0  0  0  0  0  0  0  0  0
  151.6710  136.6847  155.9721 Br  0  0  0  0  0  0  0  0  0  0  0  0
  151.2234  137.9397  158.5548 C   0  0  2  0  0  0  0  0  0  0  0  0
  149.8938  137.9604  158.0516 O   0  0  0  0  0  0  0  0  0  0  0  0
  149.0647  136.9304  158.2939 C   0  0  0  0  0  0  0  0  0  0  0  0
  149.3450  135.9209  158.9429 O   0  0  0  0  0  0  0  0  0  0  0  0
  147.6922  137.1386  157.6504 C   0  0  0  0  0  0  0  0  0  0  0  0
  147.7518  137.3493  156.1302 C   0  0  0  0  0  0  0  0  0  0  0  0
  156.9689  136.0648  160.6715 H   0  0  0  0  0  0  0  0  0  0  0  0
  151.8050  145.8685  158.2750 H   0  0  0  0  0  0  0  0  0  0  0  0
  151.4073  145.2909  159.8887 H   0  0  0  0  0  0  0  0  0  0  0  0
  150.5983  144.6044  158.4770 H   0  0  0  0  0  0  0  0  0  0  0  0
  152.7910  143.6531  157.6868 H   0  0  0  0  0  0  0  0  0  0  0  0
  153.6041  144.3443  159.0754 H   0  0  0  0  0  0  0  0  0  0  0  0
  152.7360  140.0460  160.0545 H   0  0  0  0  0  0  0  0  0  0  0  0
  151.0261  140.3468  159.7772 H   0  0  0  0  0  0  0  0  0  0  0  0
  151.5699  139.6486  157.2924 H   0  0  0  0  0  0  0  0  0  0  0  0
  154.1991  137.0154  157.3472 H   0  0  0  0  0  0  0  0  0  0  0  0
  152.6177  138.1250  160.6661 H   0  0  0  0  0  0  0  0  0  0  0  0
  151.9924  135.8590  158.3544 H   0  0  0  0  0  0  0  0  0  0  0  0
  151.2145  137.8246  159.6383 H   0  0  0  0  0  0  0  0  0  0  0  0
  147.0691  136.2730  157.8763 H   0  0  0  0  0  0  0  0  0  0  0  0
  147.2183  137.9997  158.1218 H   0  0  0  0  0  0  0  0  0  0  0  0
  146.7498  137.4838  155.7226 H   0  0  0  0  0  0  0  0  0  0  0  0
  148.1990  136.4912  155.6270 H   0  0  0  0  0  0  0  0  0  0  0  0
  148.3338  138.2348  155.8722 H   0  0  0  0  0  0  0  0  0  0  0  0
  1  2  1  0  0  0  0
  1 28  1  0  0  0  0
  1 29  1  0  0  0  0
  1 30  1  0  0  0  0
  2  3  1  0  0  0  0
  2 31  1  0  0  0  0
  2 32  1  0  0  0  0
  3  4  2  0  0  0  0
  3  5  1  0  0  0  0
  5  6  1  0  0  0  0
  6  7  1  0  0  0  0
  6 33  1  0  0  0  0
  6 34  1  0  0  0  0
  7 21  1  0  0  0  0
  7  8  1  0  0  0  0
  7 35  1  0  0  0  0
  8  9  1  0  0  0  0
  9 10  1  0  0  0  0
  9 19  1  0  0  0  0
  9 36  1  0  0  0  0
 10 17  1  0  0  0  0
 10 11  1  0  0  0  0
 11 12  2  0  0  0  0
 11 37  1  0  0  0  0
 12 13  1  0  0  0  0
 12 14  1  0  0  0  0
 14 15  2  0  0  0  0
 14 16  1  0  0  0  0
 16 27  1  0  0  0  0
 16 17  1  0  0  0  0
 17 18  2  0  0  0  0
 19 20  1  0  0  0  0
 19 21  1  0  0  0  0
 19 38  1  0  0  0  0
 21 22  1  0  0  0  0
 21 39  1  0  0  0  0
 22 23  1  0  0  0  0
 23 24  2  0  0  0  0
 23 25  1  0  0  0  0
 25 26  1  0  0  0  0
 25 40  1  0  0  0  0
 25 41  1  0  0  0  0
 26 42  1  0  0  0  0
 26 43  1  0  0  0  0
 26 44  1  0  0  0  0
M  END
> <s_m_source_file>
AV-unprocessed.smi

> <i_m_source_file_index>
37

> <i_lp_mmshare_version>
43012

> <i_f3d_flags>
0

> <s_epik_input>
W0NIM11bQ0gyXUMoPU8pT1tDSDJdW0NAQEhdMU9bQ0BASF0objJbY0hdYyhGKWMoPU8pW25IXWMyPU8pW0NAQEhdKEJyKVtDQEhdMU9DKD1PKVtDSDJdW0NIM10=

> <s_epik_cmdline>
J2VwaWtfcHl0aG9uJywgJy1waCcsICc3LjAnLCAnLXRuJywgJzgnLCAnLW1hJywgJzIwMCcsICctbWV0YWxfYmluZGluZycsICctaW1hZScsICc8aW5maWxlLm1hZT4nLCAnLW9tYWUnLCAnPG91dGZpbGUubWFlPic=

> <r_lp_tautomer_probability>
0.999537

> <r_epik_Ionization_Penalty>
0.104106

> <r_epik_Ionization_Penalty_Charging>
0.104106

> <r_epik_Ionization_Penalty_Neutral>
3.94675e-16

> <r_epik_State_Penalty>
0.0940182

> <r_epik_Charging_Adjusted_Penalty>
0.198124

> <i_epik_Tot_Q>
0

> <i_epik_Tot_abs_Q>
0

> <r_epik_Metal_State_Penalty>
3.05314

> <b_epik_Metal_Only>
0

> <s_epik_Chemistry_Notes>
This compound has an ester and may undergo hydrolysis at high or low pH. This compound contains an acetal/aminal-like group ( X-CH(R)-Y where X, Y are N, S, or O) that may be acid/base labile, releasing an aldehyde.

> <s_lp_Force_Field>
OPLS_2005

> <r_lp_Energy>
20.7256

> <b_lp_Chiralities_Consistent>
1

> <s_lp_Variant>
AV-unprocessed.smi:37-14

> <Gold.Version>
5.8.1

> <Gold.Id.Protein>
6NUR|6NUR_protein|mol2

> <Gold.PLP.Fitness>
40.4165

> <Gold.PLP.PLP>
-31.7394

> <Gold.PLP.part.hbond>
-3.0000

> <Gold.PLP.part.metal>
0.0000

> <Gold.PLP.part.buried>
-6.5800

> <Gold.PLP.part.nonpolar>
-22.2936

> <Gold.PLP.part.repulsive>
0.0128

> <Gold.PLP.ligand.clash>
0.0000

> <Gold.PLP.ligand.torsion>
0.2255

> <Gold.PLP.Chemscore.Hbond>
3.0000

> <Gold.PLP.Chemscore.CHOScore>
0.0000

> <Gold.PLP.Chemscore.Metal>
0.0000

> <Gold.Chemscore.Hbonds>
donor molecule, donor type, donor heavy atom, donor atom, acceptor molecule, acceptor atom, score
      P1  H  6896  6907       L1    24  1.00
      P1  H  7997  8008       L1     8  1.00

> <Gold.PLP.Chemscore.Internal.Correction>
0.1281

> <Gold.Rescore>
     Score         DG    S(hbond)    S(metal)    S(lipo)     H(rot)  DE(clash)    DE(int)     intcor
     13.46     -14.03       2.96        0.00      61.55       3.33       0.00       0.57       ----

> <Gold.Chemscore.Fitness>
13.4612

> <Gold.Chemscore.DG>
-14.0329

> <Gold.Chemscore.ZeroCoef>
-5.4800

> <Gold.Chemscore.Hbond>
2.9571

> <Gold.Chemscore.Metal>
0.0000

> <Gold.Chemscore.Lipo>
61.5532

> <Gold.Chemscore.Internal_Hbond>
0.0000

> <Gold.Chemscore.DEClash>
0.0000

> <Gold.Chemscore.DEInternal>
0.5717

> <Gold.Chemscore.Rot>
3.3303

> <Gold.Chemscore.Internal.Correction>
   9.000000E+99

> <Gold.Chemscore.Hbonds>
donor molecule, donor type, donor heavy atom, donor atom, acceptor molecule, acceptor atom, score
      P1  H  6896  6907       L1    24  0.99
      P1  H  7997  8008       L1     8  0.98

> <Gold.Chemscore.Hbond.Weighted>
-9.8767

> <Gold.Chemscore.Metal.Weighted>
-0.0000

> <Gold.Chemscore.Lipo.Weighted>
-7.2017

> <Gold.Chemscore.Internal_Hbond.Weighted>
0.0000

> <Gold.Chemscore.DEClash.Weighted>
0.0000

> <Gold.Chemscore.DEInternal.Weighted>
0.5717

> <Gold.Chemscore.Rot.Weighted>
8.5256

> <Gold.Chemscore.Internal.Correction.Weighted>
   9.000000E+99

> <Gold.Protein.RotatedTorsions>
[ 6907 6896 6895 6894 ] final  -65.58 input  -60.11 | X-H torsion
[ 7974 7965 7964 7962 ] final   12.81 input  175.53 | X-H torsion
[ 8008 7997 7996 7995 ] final  -82.23 input   59.86 | X-H torsion
[ 10167 10162 10161 10158 ] final -160.87 input  -65.29 | X-H torsion
[ 10718 10713 10712 10709 ] final    4.41 input   66.30 | X-H torsion
[ 10763 10752 10751 10750 ] final   62.85 input  -60.55 | X-H torsion
[ 11005 11000 10999 10996 ] final  -40.82 input  -57.11 | X-H torsion

> <Gold.Protein.ActiveResidues>
 VAL166  LYS551  ARG553  GLY616  TRP617  ASP618  TYR619  PRO620  LYS621  CYS622 
 ASP623  PHE694  ASN695  SER759  ASP760  ASP761  ALA762  ILE779  LEU786  VAL792 
 PHE793  MET794  SER795  GLU796  ALA797  LYS798  CYS799  TRP800  GLU811  SER814 

> <Gold.Protein.RotatedAtoms>
  150.7515  134.6140  159.6100 H   0  0  0  0  0  0  0  0  0  0  0  0  # atno 6907 bound_to 6896
  152.3466  134.7060  160.0257 H   0  0  0  0  0  0  0  0  0  0  0  0  # atno 6908 bound_to 6896
  151.7495  133.3290  159.3424 H   0  0  0  0  0  0  0  0  0  0  0  0  # atno 6909 bound_to 6896
  146.2343  139.9281  142.8500 H   0  0  0  0  0  0  0  0  0  0  0  0  # atno 7974 bound_to 7965
  154.6065  140.0636  156.9437 H   0  0  0  0  0  0  0  0  0  0  0  0  # atno 8008 bound_to 7997
  155.2045  140.3317  155.4320 H   0  0  0  0  0  0  0  0  0  0  0  0  # atno 8009 bound_to 7997
  156.2350  140.1859  156.7125 H   0  0  0  0  0  0  0  0  0  0  0  0  # atno 8010 bound_to 7997
  139.6507  144.0089  152.2159 H   0  0  0  0  0  0  0  0  0  0  0  0  # atno 10167 bound_to 10162
  156.8922  130.5691  149.5649 H   0  0  0  0  0  0  0  0  0  0  0  0  # atno 10718 bound_to 10713
  152.9997  135.5450  154.6258 H   0  0  0  0  0  0  0  0  0  0  0  0  # atno 10763 bound_to 10752
  154.5547  135.2829  155.0978 H   0  0  0  0  0  0  0  0  0  0  0  0  # atno 10764 bound_to 10752
  154.2204  135.6451  153.5195 H   0  0  0  0  0  0  0  0  0  0  0  0  # atno 10765 bound_to 10752
  141.0202  133.6866  156.2374 H   0  0  0  0  0  0  0  0  0  0  0  0  # atno 11005 bound_to 11000
  145.2071  140.9879  143.4122 LP  0  0  0  0  0  0  0  0  0  0  0  0  # atno 17320 bound_to 7965
  144.9723  139.3867  143.6303 LP  0  0  0  0  0  0  0  0  0  0  0  0  # atno 17321 bound_to 7965
  139.9802  144.6433  150.7907 LP  0  0  0  0  0  0  0  0  0  0  0  0  # atno 17342 bound_to 10162
  140.7536  143.3012  151.3076 LP  0  0  0  0  0  0  0  0  0  0  0  0  # atno 17343 bound_to 10162
  156.0623  130.5673  150.9219 LP  0  0  0  0  0  0  0  0  0  0  0  0  # atno 17370 bound_to 10713
  157.6077  131.0938  150.8850 LP  0  0  0  0  0  0  0  0  0  0  0  0  # atno 17371 bound_to 10713
  140.6586  134.4992  157.5582 LP  0  0  0  0  0  0  0  0  0  0  0  0  # atno 17394 bound_to 11000
  139.9141  134.8282  156.1425 LP  0  0  0  0  0  0  0  0  0  0  0  0  # atno 17395 bound_to 11000

$$$$
