AV-unprocessed.smi:1320|AV-procd|sdf|5460|dock2
  -GOLD-   22720 5 23D 1   1.00000     0.00000
 Structure written by MMmdl.
 36 37  0  0  0  0  0  0  0  0  1 V2000
  149.3164  141.0847  157.7256 O   0  0  0  0  0  0  0  0  0  0  0  0
  149.3483  142.1447  157.1033 C   0  0  0  0  0  0  0  0  0  0  0  0
  148.7374  142.3313  155.9201 N   0  0  0  0  0  0  0  0  0  0  0  0
  147.9979  141.3150  155.1756 C   0  0  0  0  0  0  0  0  0  0  0  0
  148.8655  140.6098  154.1141 C   0  0  0  0  0  0  0  0  0  0  0  0
  149.6053  139.3879  154.6339 C   0  0  0  0  0  0  0  0  0  0  0  0
  148.9406  138.1502  154.7640 C   0  0  0  0  0  0  0  0  0  0  0  0
  149.6577  137.0546  155.2824 C   0  0  0  0  0  0  0  0  0  0  0  0
  151.0049  137.2379  155.6492 C   0  0  0  0  0  0  0  0  0  0  0  0
  151.5777  138.5141  155.4801 C   0  0  0  0  0  0  0  0  0  0  0  0
  150.8996  139.5707  154.9833 N   0  0  0  0  0  0  0  0  0  0  0  0
  150.0119  143.2184  157.5676 N   0  0  0  0  0  0  0  0  0  0  0  0
  150.7727  143.3406  158.8132 C   0  0  0  0  0  0  0  0  0  0  0  0
  150.4988  144.6992  159.4865 C   0  0  0  0  0  0  0  0  0  0  0  0
  151.8670  145.2688  159.8642 C   0  0  0  0  0  0  0  0  0  0  0  0
  152.8129  144.7057  158.8090 C   0  0  0  0  0  0  0  0  0  0  0  0
  152.2934  143.2895  158.5581 C   0  0  0  0  0  0  0  0  0  0  0  0
  148.8190  143.2401  155.4876 H   0  0  0  0  0  0  0  0  0  0  0  0
  147.5698  140.5749  155.8536 H   0  0  0  0  0  0  0  0  0  0  0  0
  147.1524  141.8012  154.6889 H   0  0  0  0  0  0  0  0  0  0  0  0
  148.2395  140.3100  153.2729 H   0  0  0  0  0  0  0  0  0  0  0  0
  149.5912  141.3166  153.7088 H   0  0  0  0  0  0  0  0  0  0  0  0
  147.9030  138.0443  154.4829 H   0  0  0  0  0  0  0  0  0  0  0  0
  149.1822  136.0920  155.3996 H   0  0  0  0  0  0  0  0  0  0  0  0
  151.5851  136.4209  156.0520 H   0  0  0  0  0  0  0  0  0  0  0  0
  152.6076  138.6916  155.7520 H   0  0  0  0  0  0  0  0  0  0  0  0
  149.9585  144.0552  157.0048 H   0  0  0  0  0  0  0  0  0  0  0  0
  150.4895  142.5435  159.5031 H   0  0  0  0  0  0  0  0  0  0  0  0
  150.0119  145.3836  158.7896 H   0  0  0  0  0  0  0  0  0  0  0  0
  149.8437  144.6050  160.3531 H   0  0  0  0  0  0  0  0  0  0  0  0
  151.8738  146.3587  159.8977 H   0  0  0  0  0  0  0  0  0  0  0  0
  152.1584  144.9032  160.8497 H   0  0  0  0  0  0  0  0  0  0  0  0
  152.7339  145.2942  157.8939 H   0  0  0  0  0  0  0  0  0  0  0  0
  153.8557  144.7211  159.1273 H   0  0  0  0  0  0  0  0  0  0  0  0
  152.7532  142.6057  159.2729 H   0  0  0  0  0  0  0  0  0  0  0  0
  152.5564  142.9324  157.5614 H   0  0  0  0  0  0  0  0  0  0  0  0
  1  2  2  0  0  0  0
  2  3  1  0  0  0  0
  2 12  1  0  0  0  0
  3  4  1  0  0  0  0
  3 18  1  0  0  0  0
  4  5  1  0  0  0  0
  4 19  1  0  0  0  0
  4 20  1  0  0  0  0
  5  6  1  0  0  0  0
  5 21  1  0  0  0  0
  5 22  1  0  0  0  0
  6 11  1  0  0  0  0
  6  7  2  0  0  0  0
  7  8  1  0  0  0  0
  7 23  1  0  0  0  0
  8  9  2  0  0  0  0
  8 24  1  0  0  0  0
  9 10  1  0  0  0  0
  9 25  1  0  0  0  0
 10 11  2  0  0  0  0
 10 26  1  0  0  0  0
 12 13  1  0  0  0  0
 12 27  1  0  0  0  0
 13 17  1  0  0  0  0
 13 14  1  0  0  0  0
 13 28  1  0  0  0  0
 14 15  1  0  0  0  0
 14 29  1  0  0  0  0
 14 30  1  0  0  0  0
 15 16  1  0  0  0  0
 15 31  1  0  0  0  0
 15 32  1  0  0  0  0
 16 17  1  0  0  0  0
 16 33  1  0  0  0  0
 16 34  1  0  0  0  0
 17 35  1  0  0  0  0
 17 36  1  0  0  0  0
M  END
> <s_m_source_file>
AV-unprocessed.smi

> <i_m_source_file_index>
1320

> <i_lp_mmshare_version>
43012

> <i_f3d_flags>
0

> <s_epik_input>
W0NIMl0xW0NIMl1bQ0gyXVtDSDJdW0NIXTFbTkhdQyg9TylbTkhdW0NIMl1bQ0gyXWMyW2NIXVtjSF1bY0hdW2NIXW4y

> <s_epik_cmdline>
J2VwaWtfcHl0aG9uJywgJy1waCcsICc3LjAnLCAnLXRuJywgJzgnLCAnLW1hJywgJzIwMCcsICctbWV0YWxfYmluZGluZycsICctaW1hZScsICc8aW5maWxlLm1hZT4nLCAnLW9tYWUnLCAnPG91dGZpbGUubWFlPic=

> <r_epik_Ionization_Penalty>
0.0441051

> <r_epik_Ionization_Penalty_Charging>
0

> <r_epik_Ionization_Penalty_Neutral>
0.0441051

> <r_epik_State_Penalty>
0.0373009

> <r_epik_Charging_Adjusted_Penalty>
0.0373009

> <i_epik_Tot_Q>
0

> <i_epik_Tot_abs_Q>
0

> <r_epik_Metal_State_Penalty>
0.0347078

> <b_epik_Metal_Only>
0

> <s_lp_Force_Field>
OPLS_2005

> <r_lp_Energy>
26.6462

> <b_lp_Chiralities_Consistent>
1

> <s_lp_Variant>
AV-unprocessed.smi:1320-1

> <Gold.Version>
5.8.1

> <Gold.Id.Protein>
6NUR|6NUR_protein|mol2

> <Gold.PLP.Fitness>
44.6677

> <Gold.PLP.PLP>
-37.7111

> <Gold.PLP.part.hbond>
-3.0000

> <Gold.PLP.part.metal>
0.0000

> <Gold.PLP.part.buried>
-3.7033

> <Gold.PLP.part.nonpolar>
-31.5854

> <Gold.PLP.part.repulsive>
0.2032

> <Gold.PLP.ligand.clash>
0.0000

> <Gold.PLP.ligand.torsion>
0.8777

> <Gold.PLP.Chemscore.Hbond>
2.8960

> <Gold.PLP.Chemscore.CHOScore>
0.0000

> <Gold.PLP.Chemscore.Metal>
0.0000

> <Gold.Chemscore.Hbonds>
donor molecule, donor type, donor heavy atom, donor atom, acceptor molecule, acceptor atom, score
      L1  H     3    18       P1  8028  0.86
      L1  H    12    27       P1  8028  0.77
      P1  H  7989  7998       L1    11  0.81

> <Gold.PLP.Chemscore.Internal.Correction>
0.0240

> <Gold.Rescore>
     Score         DG    S(hbond)    S(metal)    S(lipo)     H(rot)  DE(clash)    DE(int)     intcor
     21.00     -22.14       2.74        0.00      97.26       1.51       0.31       0.83       ----

> <Gold.Chemscore.Fitness>
20.9959

> <Gold.Chemscore.DG>
-22.1413

> <Gold.Chemscore.ZeroCoef>
-5.4800

> <Gold.Chemscore.Hbond>
2.7355

> <Gold.Chemscore.Metal>
0.0000

> <Gold.Chemscore.Lipo>
97.2647

> <Gold.Chemscore.Internal_Hbond>
0.0000

> <Gold.Chemscore.DEClash>
0.3149

> <Gold.Chemscore.DEInternal>
0.8305

> <Gold.Chemscore.Rot>
1.5060

> <Gold.Chemscore.Internal.Correction>
   9.000000E+99

> <Gold.Chemscore.Hbonds>
donor molecule, donor type, donor heavy atom, donor atom, acceptor molecule, acceptor atom, score
      L1  H     3    18       P1  8028  0.80
      L1  H    12    27       P1  8028  0.70
      P1  H  7989  7998       L1    11  0.36

> <Gold.Chemscore.Hbond.Weighted>
-9.1366

> <Gold.Chemscore.Metal.Weighted>
-0.0000

> <Gold.Chemscore.Lipo.Weighted>
-11.3800

> <Gold.Chemscore.Internal_Hbond.Weighted>
0.0000

> <Gold.Chemscore.DEClash.Weighted>
0.3149

> <Gold.Chemscore.DEInternal.Weighted>
0.8305

> <Gold.Chemscore.Rot.Weighted>
3.8553

> <Gold.Chemscore.Internal.Correction.Weighted>
   9.000000E+99

> <Gold.Protein.RotatedTorsions>
[ 6907 6896 6895 6894 ] final   80.21 input  -60.11 | X-H torsion
[ 7974 7965 7964 7962 ] final -111.13 input  175.53 | X-H torsion
[ 8008 7997 7996 7995 ] final   99.91 input   59.86 | X-H torsion
[ 10167 10162 10161 10158 ] final  120.88 input  -65.29 | X-H torsion
[ 10718 10713 10712 10709 ] final -123.84 input   66.30 | X-H torsion
[ 10763 10752 10751 10750 ] final   14.39 input  -60.55 | X-H torsion
[ 11005 11000 10999 10996 ] final  -46.82 input  -57.11 | X-H torsion

> <Gold.Protein.ActiveResidues>
 VAL166  LYS551  ARG553  GLY616  TRP617  ASP618  TYR619  PRO620  LYS621  CYS622 
 ASP623  PHE694  ASN695  SER759  ASP760  ASP761  ALA762  ILE779  LEU786  VAL792 
 PHE793  MET794  SER795  GLU796  ALA797  LYS798  CYS799  TRP800  GLU811  SER814 

> <Gold.Protein.RotatedAtoms>
  152.5227  134.3392  159.9210 H   0  0  0  0  0  0  0  0  0  0  0  0  # atno 6907 bound_to 6896
  151.3342  133.3982  159.2673 H   0  0  0  0  0  0  0  0  0  0  0  0  # atno 6908 bound_to 6896
  150.9856  134.9220  159.7927 H   0  0  0  0  0  0  0  0  0  0  0  0  # atno 6909 bound_to 6896
  145.1598  140.8872  143.3597 H   0  0  0  0  0  0  0  0  0  0  0  0  # atno 7974 bound_to 7965
  156.1152  140.3221  155.8128 H   0  0  0  0  0  0  0  0  0  0  0  0  # atno 8008 bound_to 7997
  155.4603  140.0539  157.3009 H   0  0  0  0  0  0  0  0  0  0  0  0  # atno 8009 bound_to 7997
  154.4787  140.2044  155.9828 H   0  0  0  0  0  0  0  0  0  0  0  0  # atno 8010 bound_to 7997
  139.5954  144.7040  151.3188 H   0  0  0  0  0  0  0  0  0  0  0  0  # atno 10167 bound_to 10162
  156.1537  130.6552  150.9950 H   0  0  0  0  0  0  0  0  0  0  0  0  # atno 10718 bound_to 10713
  153.1627  135.6798  153.8720 H   0  0  0  0  0  0  0  0  0  0  0  0  # atno 10763 bound_to 10752
  153.8110  135.3143  155.3402 H   0  0  0  0  0  0  0  0  0  0  0  0  # atno 10764 bound_to 10752
  154.7943  135.4816  154.0215 H   0  0  0  0  0  0  0  0  0  0  0  0  # atno 10765 bound_to 10752
  141.0602  133.6711  156.3209 H   0  0  0  0  0  0  0  0  0  0  0  0  # atno 11005 bound_to 11000
  145.0343  139.3314  143.6009 LP  0  0  0  0  0  0  0  0  0  0  0  0  # atno 17320 bound_to 7965
  146.3484  139.9692  142.8708 LP  0  0  0  0  0  0  0  0  0  0  0  0  # atno 17321 bound_to 7965
  140.7208  143.7142  150.7746 LP  0  0  0  0  0  0  0  0  0  0  0  0  # atno 17342 bound_to 10162
  140.0707  143.5064  152.2581 LP  0  0  0  0  0  0  0  0  0  0  0  0  # atno 17343 bound_to 10162
  157.6677  131.0868  150.7688 LP  0  0  0  0  0  0  0  0  0  0  0  0  # atno 17370 bound_to 10713
  156.7754  130.4842  149.5410 LP  0  0  0  0  0  0  0  0  0  0  0  0  # atno 17371 bound_to 10713
  140.5883  134.5676  157.5494 LP  0  0  0  0  0  0  0  0  0  0  0  0  # atno 17394 bound_to 11000
  139.9426  134.7760  156.0641 LP  0  0  0  0  0  0  0  0  0  0  0  0  # atno 17395 bound_to 11000

$$$$
