AV-unprocessed.smi:1397|AV-procd|sdf|5679|dock9
  -GOLD-   22720 5303D 1   1.00000     0.00000
 Structure written by MMmdl.
 37 38  0  0  0  0  0  0  0  0  1 V2000
  149.5000  141.0663  156.2066 C   0  0  0  0  0  0  0  0  0  0  0  0
  148.7433  141.3229  154.9013 C   0  0  0  0  0  0  0  0  0  0  0  0
  149.2312  142.1173  154.0974 O   0  0  0  0  0  0  0  0  0  0  0  0
  147.5761  140.6735  154.6730 N   0  0  0  0  0  0  0  0  0  0  0  0
  146.8201  140.8153  153.4226 C   0  0  0  0  0  0  0  0  0  0  0  0
  146.8931  139.4925  152.6387 C   0  0  0  0  0  0  0  0  0  0  0  0
  146.3886  138.3066  153.4920 C   0  0  0  0  0  0  0  0  0  0  0  0
  146.6317  137.0384  152.8106 N   0  0  0  0  0  0  0  0  0  0  0  0
  145.6920  136.1301  152.5088 C   0  0  0  0  0  0  0  0  0  0  0  0
  144.4977  136.2764  152.7713 O   0  0  0  0  0  0  0  0  0  0  0  0
  146.2278  135.0613  151.8932 N   0  0  0  0  0  0  0  0  0  0  0  0
  145.5682  133.8907  151.4315 C   0  0  0  0  0  0  0  0  0  0  0  0
  146.3888  132.7451  151.3216 C   0  0  0  0  0  0  0  0  0  0  0  0
  145.8297  131.5325  150.8736 C   0  0  0  0  0  0  0  0  0  0  0  0
  144.4626  131.4967  150.5463 C   0  0  0  0  0  0  0  0  0  0  0  0
  143.7165  132.6819  150.6832 C   0  0  0  0  0  0  0  0  0  0  0  0
  144.2503  133.8449  151.1125 N   0  0  0  0  0  0  0  0  0  0  0  0
  147.0628  138.2896  154.8801 C   0  0  0  0  0  0  0  0  0  0  0  0
  146.9748  139.6684  155.5588 C   0  0  0  0  0  0  0  0  0  0  0  0
  149.7581  140.0115  156.3038 H   0  0  0  0  0  0  0  0  0  0  0  0
  148.9003  141.3667  157.0661 H   0  0  0  0  0  0  0  0  0  0  0  0
  150.4275  141.6393  156.2324 H   0  0  0  0  0  0  0  0  0  0  0  0
  145.7815  141.0561  153.6539 H   0  0  0  0  0  0  0  0  0  0  0  0
  147.1822  141.6340  152.7993 H   0  0  0  0  0  0  0  0  0  0  0  0
  146.3077  139.5737  151.7219 H   0  0  0  0  0  0  0  0  0  0  0  0
  147.9253  139.3158  152.3320 H   0  0  0  0  0  0  0  0  0  0  0  0
  145.3149  138.4278  153.6493 H   0  0  0  0  0  0  0  0  0  0  0  0
  147.5874  136.8369  152.5553 H   0  0  0  0  0  0  0  0  0  0  0  0
  147.2254  135.0841  151.7429 H   0  0  0  0  0  0  0  0  0  0  0  0
  147.4376  132.7900  151.5775 H   0  0  0  0  0  0  0  0  0  0  0  0
  146.4399  130.6459  150.7831 H   0  0  0  0  0  0  0  0  0  0  0  0
  143.9983  130.5856  150.1990 H   0  0  0  0  0  0  0  0  0  0  0  0
  142.6642  132.6977  150.4407 H   0  0  0  0  0  0  0  0  0  0  0  0
  146.5967  137.5333  155.5127 H   0  0  0  0  0  0  0  0  0  0  0  0
  148.1122  138.0067  154.7807 H   0  0  0  0  0  0  0  0  0  0  0  0
  147.4326  139.6236  156.5457 H   0  0  0  0  0  0  0  0  0  0  0  0
  145.9303  139.9292  155.7357 H   0  0  0  0  0  0  0  0  0  0  0  0
  1  2  1  0  0  0  0
  1 20  1  0  0  0  0
  1 21  1  0  0  0  0
  1 22  1  0  0  0  0
  2  3  2  0  0  0  0
  2  4  1  0  0  0  0
  4 19  1  0  0  0  0
  4  5  1  0  0  0  0
  5  6  1  0  0  0  0
  5 23  1  0  0  0  0
  5 24  1  0  0  0  0
  6  7  1  0  0  0  0
  6 25  1  0  0  0  0
  6 26  1  0  0  0  0
  7  8  1  0  0  0  0
  7 18  1  0  0  0  0
  7 27  1  0  0  0  0
  8  9  1  0  0  0  0
  8 28  1  0  0  0  0
  9 10  2  0  0  0  0
  9 11  1  0  0  0  0
 11 12  1  0  0  0  0
 11 29  1  0  0  0  0
 12 17  1  0  0  0  0
 12 13  2  0  0  0  0
 13 14  1  0  0  0  0
 13 30  1  0  0  0  0
 14 15  2  0  0  0  0
 14 31  1  0  0  0  0
 15 16  1  0  0  0  0
 15 32  1  0  0  0  0
 16 17  2  0  0  0  0
 16 33  1  0  0  0  0
 18 19  1  0  0  0  0
 18 34  1  0  0  0  0
 18 35  1  0  0  0  0
 19 36  1  0  0  0  0
 19 37  1  0  0  0  0
M  END
> <s_m_source_file>
AV-unprocessed.smi

> <i_m_source_file_index>
1397

> <i_lp_mmshare_version>
43012

> <i_f3d_flags>
0

> <s_epik_input>
W0NIM11DKD1PKU4xW0NIMl1bQ0gyXVtDSF0oW0NIMl1bQ0gyXTEpW05IXUMoPU8pW05IXWMyW2NIXVtjSF1bY0hdW2NIXW4y

> <s_epik_cmdline>
J2VwaWtfcHl0aG9uJywgJy1waCcsICc3LjAnLCAnLXRuJywgJzgnLCAnLW1hJywgJzIwMCcsICctbWV0YWxfYmluZGluZycsICctaW1hZScsICc8aW5maWxlLm1hZT4nLCAnLW9tYWUnLCAnPG91dGZpbGUubWFlPic=

> <r_lp_tautomer_probability>
1

> <r_epik_Ionization_Penalty>
4.8787e-05

> <r_epik_Ionization_Penalty_Charging>
0

> <r_epik_Ionization_Penalty_Neutral>
4.8787e-05

> <r_epik_State_Penalty>
-0

> <r_epik_Charging_Adjusted_Penalty>
0

> <i_epik_Tot_Q>
0

> <i_epik_Tot_abs_Q>
0

> <r_epik_Metal_State_Penalty>
-0

> <b_epik_Metal_Only>
0

> <s_lp_Force_Field>
OPLS_2005

> <r_lp_Energy>
25.5882

> <b_lp_Chiralities_Consistent>
1

> <s_lp_Variant>
AV-unprocessed.smi:1397-1

> <Gold.Version>
5.8.1

> <Gold.Id.Protein>
6NUR|6NUR_protein|mol2

> <Gold.PLP.Fitness>
36.7599

> <Gold.PLP.PLP>
-27.2189

> <Gold.PLP.part.hbond>
-3.6305

> <Gold.PLP.part.metal>
0.0000

> <Gold.PLP.part.buried>
-2.0731

> <Gold.PLP.part.nonpolar>
-23.5755

> <Gold.PLP.part.repulsive>
1.1349

> <Gold.PLP.ligand.clash>
0.0000

> <Gold.PLP.ligand.torsion>
0.1561

> <Gold.PLP.Chemscore.Hbond>
2.2800

> <Gold.PLP.Chemscore.CHOScore>
1.0000

> <Gold.PLP.Chemscore.Metal>
0.0000

> <Gold.Chemscore.Hbonds>
donor molecule, donor type, donor heavy atom, donor atom, acceptor molecule, acceptor atom, score
      L1  H     8    28       P1  7948  1.00
      L1  H    11    29       P1  7948  0.94
      P1  H  8011  8017       L1     3  0.34
      L1  C    16    33       P1 10186  0.96

> <Gold.PLP.Chemscore.Internal.Correction>
0.0131

> <Gold.Rescore>
     Score         DG    S(hbond)    S(metal)    S(lipo)     H(rot)  DE(clash)    DE(int)     intcor
     16.14     -17.45       2.12        0.00      63.69       1.00       0.29       1.01       ----

> <Gold.Chemscore.Fitness>
16.1417

> <Gold.Chemscore.DG>
-17.4463

> <Gold.Chemscore.ZeroCoef>
-5.4800

> <Gold.Chemscore.Hbond>
2.1181

> <Gold.Chemscore.Metal>
0.0000

> <Gold.Chemscore.Lipo>
63.6897

> <Gold.Chemscore.Internal_Hbond>
0.0000

> <Gold.Chemscore.DEClash>
0.2932

> <Gold.Chemscore.DEInternal>
1.0114

> <Gold.Chemscore.Rot>
1.0000

> <Gold.Chemscore.Internal.Correction>
   9.000000E+99

> <Gold.Chemscore.Hbonds>
donor molecule, donor type, donor heavy atom, donor atom, acceptor molecule, acceptor atom, score
      L1  H     8    28       P1  7948  1.00
      L1  H    11    29       P1  7948  0.78
      P1  H  8011  8017       L1     3  0.34

> <Gold.Chemscore.Hbond.Weighted>
-7.0746

> <Gold.Chemscore.Metal.Weighted>
-0.0000

> <Gold.Chemscore.Lipo.Weighted>
-7.4517

> <Gold.Chemscore.Internal_Hbond.Weighted>
0.0000

> <Gold.Chemscore.DEClash.Weighted>
0.2932

> <Gold.Chemscore.DEInternal.Weighted>
1.0114

> <Gold.Chemscore.Rot.Weighted>
2.5600

> <Gold.Chemscore.Internal.Correction.Weighted>
   9.000000E+99

> <Gold.Protein.RotatedTorsions>
[ 6907 6896 6895 6894 ] final  -48.40 input  -60.11 | X-H torsion
[ 7974 7965 7964 7962 ] final  -21.84 input  175.53 | X-H torsion
[ 8008 7997 7996 7995 ] final   80.47 input   59.86 | X-H torsion
[ 10167 10162 10161 10158 ] final  155.75 input  -65.29 | X-H torsion
[ 10718 10713 10712 10709 ] final   98.67 input   66.30 | X-H torsion
[ 10763 10752 10751 10750 ] final   14.01 input  -60.55 | X-H torsion
[ 11005 11000 10999 10996 ] final -122.06 input  -57.11 | X-H torsion

> <Gold.Protein.ActiveResidues>
 VAL166  LYS551  ARG553  GLY616  TRP617  ASP618  TYR619  PRO620  LYS621  CYS622 
 ASP623  PHE694  ASN695  SER759  ASP760  ASP761  ALA762  ILE779  LEU786  VAL792 
 PHE793  MET794  SER795  GLU796  ALA797  LYS798  CYS799  TRP800  GLU811  SER814 

> <Gold.Protein.RotatedAtoms>
  150.8909  134.8313  159.7292 H   0  0  0  0  0  0  0  0  0  0  0  0  # atno 6907 bound_to 6896
  152.4836  134.4649  159.9627 H   0  0  0  0  0  0  0  0  0  0  0  0  # atno 6908 bound_to 6896
  151.4712  133.3530  159.2859 H   0  0  0  0  0  0  0  0  0  0  0  0  # atno 6909 bound_to 6896
  146.1710  140.4397  142.8532 H   0  0  0  0  0  0  0  0  0  0  0  0  # atno 7974 bound_to 7965
  155.8839  140.3442  155.5908 H   0  0  0  0  0  0  0  0  0  0  0  0  # atno 8008 bound_to 7997
  155.7688  140.0842  157.2137 H   0  0  0  0  0  0  0  0  0  0  0  0  # atno 8009 bound_to 7997
  154.4027  140.1522  156.2905 H   0  0  0  0  0  0  0  0  0  0  0  0  # atno 8010 bound_to 7997
  139.4821  144.5071  151.8081 H   0  0  0  0  0  0  0  0  0  0  0  0  # atno 10167 bound_to 10162
  157.6891  131.0647  150.4831 H   0  0  0  0  0  0  0  0  0  0  0  0  # atno 10718 bound_to 10713
  153.1665  135.6805  153.8668 H   0  0  0  0  0  0  0  0  0  0  0  0  # atno 10763 bound_to 10752
  153.8047  135.3151  155.3395 H   0  0  0  0  0  0  0  0  0  0  0  0  # atno 10764 bound_to 10752
  154.7968  135.4802  154.0272 H   0  0  0  0  0  0  0  0  0  0  0  0  # atno 10765 bound_to 10752
  141.0023  134.0384  157.3521 H   0  0  0  0  0  0  0  0  0  0  0  0  # atno 11005 bound_to 11000
  144.8163  140.6473  143.6382 LP  0  0  0  0  0  0  0  0  0  0  0  0  # atno 17320 bound_to 7965
  145.4340  139.1545  143.4006 LP  0  0  0  0  0  0  0  0  0  0  0  0  # atno 17321 bound_to 7965
  140.4570  144.1775  150.5902 LP  0  0  0  0  0  0  0  0  0  0  0  0  # atno 17342 bound_to 10162
  140.4525  143.2481  151.9329 LP  0  0  0  0  0  0  0  0  0  0  0  0  # atno 17343 bound_to 10162
  156.5162  130.4151  149.6275 LP  0  0  0  0  0  0  0  0  0  0  0  0  # atno 17370 bound_to 10713
  156.3196  130.7273  151.2182 LP  0  0  0  0  0  0  0  0  0  0  0  0  # atno 17371 bound_to 10713
  139.9045  135.0175  156.7424 LP  0  0  0  0  0  0  0  0  0  0  0  0  # atno 17394 bound_to 11000
  140.6868  133.9425  155.7943 LP  0  0  0  0  0  0  0  0  0  0  0  0  # atno 17395 bound_to 11000

$$$$
