AV-unprocessed.smi:44|AV-procd|sdf|402|dock2
  -GOLD-   2262016253D 1   1.00000     0.00000
 Structure written by MMmdl.
 29 31  0  0  0  0  0  0  0  0  3 V2000
  152.5390  140.3575  158.6283 O   0  0  0  0  0  0  0  0  0  0  0  0
  152.2357  140.1473  157.4557 C   0  0  0  0  0  0  0  0  0  0  0  0
  152.9033  139.3789  156.5356 N   0  5  0  0  0  0  0  0  0  0  0  0
  152.4391  139.2273  155.2335 C   0  0  0  0  0  0  0  0  0  0  0  0
  151.3838  139.7473  154.7143 N   0  0  0  0  0  0  0  0  0  0  0  0
  150.6311  140.5539  155.5807 C   0  0  0  0  0  0  0  0  0  0  0  0
  150.9961  140.7739  156.8883 C   0  0  0  0  0  0  0  0  0  0  0  0
  150.0818  141.5973  157.4879 N   0  3  0  0  0  0  0  0  0  0  0  0
  149.2028  141.8391  156.5156 C   0  0  0  0  0  0  0  0  0  0  0  0
  149.4704  141.2355  155.3184 N   0  0  0  0  0  0  0  0  0  0  0  0
  148.6792  141.3177  154.0534 C   0  0  2  0  0  0  0  0  0  0  0  0
  147.4766  142.2407  154.2552 C   0  0  0  0  0  0  0  0  0  0  0  0
  146.4053  141.2591  154.6764 C   0  0  0  0  0  0  0  0  0  0  0  0
  146.7518  140.0444  153.8161 C   0  0  2  0  0  0  0  0  0  0  0  0
  146.2262  138.7191  154.3868 C   0  0  0  0  0  0  0  0  0  0  0  0
  144.8156  138.7299  154.4049 O   0  0  0  0  0  0  0  0  0  0  0  0
  148.1790  140.0421  153.7753 O   0  0  0  0  0  0  0  0  0  0  0  0
  150.0743  141.9397  158.4402 H   0  0  0  0  0  0  0  0  0  0  0  0
  149.3890  141.6601  153.2995 H   0  0  0  0  0  0  0  0  0  0  0  0
  146.3709  140.2122  152.8069 H   0  0  0  0  0  0  0  0  0  0  0  0
  153.0916  138.5811  154.6409 H   0  0  0  0  0  0  0  0  0  0  0  0
  148.3419  142.4655  156.6612 H   0  0  0  0  0  0  0  0  0  0  0  0
  147.6762  143.0270  154.9844 H   0  0  0  0  0  0  0  0  0  0  0  0
  147.2229  142.6994  153.2985 H   0  0  0  0  0  0  0  0  0  0  0  0
  146.5004  141.0267  155.7378 H   0  0  0  0  0  0  0  0  0  0  0  0
  145.3954  141.6299  154.4990 H   0  0  0  0  0  0  0  0  0  0  0  0
  146.5908  137.8642  153.8174 H   0  0  0  0  0  0  0  0  0  0  0  0
  146.5663  138.5934  155.4152 H   0  0  0  0  0  0  0  0  0  0  0  0
  144.5117  139.4397  153.8601 H   0  0  0  0  0  0  0  0  0  0  0  0
  1  2  2  0  0  0  0
  2  7  1  0  0  0  0
  2  3  1  0  0  0  0
  3  4  1  0  0  0  0
  4 21  1  0  0  0  0
  4  5  2  0  0  0  0
  5  6  1  0  0  0  0
  6 10  1  0  0  0  0
  6  7  2  0  0  0  0
  7  8  1  0  0  0  0
  8  9  2  0  0  0  0
  8 18  1  0  0  0  0
  9 10  1  0  0  0  0
  9 22  1  0  0  0  0
 10 11  1  0  0  0  0
 11 19  1  0  0  0  0
 11 17  1  0  0  0  0
 11 12  1  0  0  0  0
 12 13  1  0  0  0  0
 12 23  1  0  0  0  0
 12 24  1  0  0  0  0
 13 14  1  0  0  0  0
 13 25  1  0  0  0  0
 13 26  1  0  0  0  0
 14 20  1  0  0  0  0
 14 15  1  0  0  0  0
 14 17  1  0  0  0  0
 15 16  1  0  0  0  0
 15 27  1  0  0  0  0
 15 28  1  0  0  0  0
 16 29  1  0  0  0  0
M  CHG  1   3  -1
M  CHG  1   8   1
M  END
> <s_m_source_file>
AV-unprocessed.smi

> <i_m_source_file_index>
44

> <i_lp_mmshare_version>
43012

> <i_f3d_flags>
0

> <s_epik_input>
bjFbY0hdW25IXWMoPU8pYyhjMTIpbltjSF1uMltDQEhdM1tDSDJdW0NIMl1bQ0BIXShPMylbQ0gyXVtPSF0=

> <s_epik_cmdline>
J2VwaWtfcHl0aG9uJywgJy1waCcsICc3LjAnLCAnLXRuJywgJzgnLCAnLW1hJywgJzIwMCcsICctbWV0YWxfYmluZGluZycsICctaW1hZScsICc8aW5maWxlLm1hZT4nLCAnLW9tYWUnLCAnPG91dGZpbGUubWFlPic=

> <r_lp_tautomer_probability>
0.144281

> <r_epik_Ionization_Penalty>
5.63685

> <r_epik_Ionization_Penalty_Charging>
5.58669

> <r_epik_Ionization_Penalty_Neutral>
0.0501585

> <r_epik_State_Penalty>
1.20809

> <r_epik_Charging_Adjusted_Penalty>
6.79478

> <i_epik_Tot_Q>
0

> <i_epik_Tot_abs_Q>
2

> <r_epik_Metal_State_Penalty>
1.52487

> <b_epik_Metal_Only>
0

> <s_epik_Chemistry_Notes>
This compound contains an acetal/aminal-like group ( X-CH(R)-Y where X, Y are N, S, or O) that may be acid/base labile, releasing an aldehyde.

> <s_lp_Force_Field>
OPLS_2005

> <r_lp_Energy>
43.1819

> <b_lp_Chiralities_Consistent>
1

> <s_lp_Variant>
AV-unprocessed.smi:44-8

> <Gold.Version>
5.8.1

> <Gold.Id.Protein>
6NUR|6NUR_protein|mol2

> <Gold.PLP.Fitness>
40.0357

> <Gold.PLP.PLP>
-26.4490

> <Gold.PLP.part.hbond>
-3.0000

> <Gold.PLP.part.metal>
0.0000

> <Gold.PLP.part.buried>
-1.2519

> <Gold.PLP.part.nonpolar>
-22.2674

> <Gold.PLP.part.repulsive>
1.2726

> <Gold.PLP.ligand.clash>
0.0000

> <Gold.PLP.ligand.torsion>
0.0330

> <Gold.PLP.Chemscore.Hbond>
4.0000

> <Gold.PLP.Chemscore.CHOScore>
0.5456

> <Gold.PLP.Chemscore.Metal>
0.0000

> <Gold.Chemscore.Hbonds>
donor molecule, donor type, donor heavy atom, donor atom, acceptor molecule, acceptor atom, score
      L1  H    16    29       P1 10175  1.00
      P1  H  7989  7998       L1     5  0.95
      P1  H  7997  8010       L1     3  2.00
      L1  C     9    22       P1  8028  0.56

> <Gold.PLP.Chemscore.Internal.Correction>
0.0157

> <Gold.Rescore>
     Score         DG    S(hbond)    S(metal)    S(lipo)     H(rot)  DE(clash)    DE(int)     intcor
      8.94      -9.77       2.13        0.00      25.55       2.27       0.79       0.04       ----

> <Gold.Chemscore.Fitness>
8.9371

> <Gold.Chemscore.DG>
-9.7722

> <Gold.Chemscore.ZeroCoef>
-5.4800

> <Gold.Chemscore.Hbond>
2.1316

> <Gold.Chemscore.Metal>
0.0000

> <Gold.Chemscore.Lipo>
25.5466

> <Gold.Chemscore.Internal_Hbond>
0.0000

> <Gold.Chemscore.DEClash>
0.7935

> <Gold.Chemscore.DEInternal>
0.0417

> <Gold.Chemscore.Rot>
2.2720

> <Gold.Chemscore.Internal.Correction>
   9.000000E+99

> <Gold.Chemscore.Hbonds>
donor molecule, donor type, donor heavy atom, donor atom, acceptor molecule, acceptor atom, score
      L1  H    16    29       P1 10175  1.00
      P1  H  7989  7998       L1     5  0.20
      P1  H  7997  8010       L1     3  0.22

> <Gold.Chemscore.Hbond.Weighted>
-7.1197

> <Gold.Chemscore.Metal.Weighted>
-0.0000

> <Gold.Chemscore.Lipo.Weighted>
-2.9890

> <Gold.Chemscore.Internal_Hbond.Weighted>
0.0000

> <Gold.Chemscore.DEClash.Weighted>
0.7935

> <Gold.Chemscore.DEInternal.Weighted>
0.0417

> <Gold.Chemscore.Rot.Weighted>
5.8164

> <Gold.Chemscore.Internal.Correction.Weighted>
   9.000000E+99

> <Gold.Protein.RotatedTorsions>
[ 6907 6896 6895 6894 ] final -106.29 input  -60.11 | X-H torsion
[ 7974 7965 7964 7962 ] final -105.40 input  175.53 | X-H torsion
[ 8008 7997 7996 7995 ] final   74.24 input   59.86 | X-H torsion
[ 10167 10162 10161 10158 ] final  -98.83 input  -65.29 | X-H torsion
[ 10718 10713 10712 10709 ] final  -85.48 input   66.30 | X-H torsion
[ 10763 10752 10751 10750 ] final  136.20 input  -60.55 | X-H torsion
[ 11005 11000 10999 10996 ] final  -52.67 input  -57.11 | X-H torsion

> <Gold.Protein.ActiveResidues>
 VAL166  LYS551  ARG553  GLY616  TRP617  ASP618  TYR619  PRO620  LYS621  CYS622 
 ASP623  PHE694  ASN695  SER759  ASP760  ASP761  ALA762  ILE779  LEU786  VAL792 
 PHE793  MET794  SER795  GLU796  ALA797  LYS798  CYS799  TRP800  GLU811  SER814 

> <Gold.Protein.RotatedAtoms>
  150.7381  133.9999  159.3634 H   0  0  0  0  0  0  0  0  0  0  0  0  # atno 6907 bound_to 6896
  151.7952  135.0722  160.0402 H   0  0  0  0  0  0  0  0  0  0  0  0  # atno 6908 bound_to 6896
  152.3180  133.5786  159.5761 H   0  0  0  0  0  0  0  0  0  0  0  0  # atno 6909 bound_to 6896
  145.2309  140.9170  143.3205 H   0  0  0  0  0  0  0  0  0  0  0  0  # atno 7974 bound_to 7965
  155.7955  140.3478  155.5373 H   0  0  0  0  0  0  0  0  0  0  0  0  # atno 8008 bound_to 7997
  155.8591  140.0968  157.1646 H   0  0  0  0  0  0  0  0  0  0  0  0  # atno 8009 bound_to 7997
  154.4011  140.1362  156.3925 H   0  0  0  0  0  0  0  0  0  0  0  0  # atno 8010 bound_to 7997
  140.2689  143.3357  152.0554 H   0  0  0  0  0  0  0  0  0  0  0  0  # atno 10167 bound_to 10162
  155.9996  130.4732  150.4568 H   0  0  0  0  0  0  0  0  0  0  0  0  # atno 10718 bound_to 10713
  153.8526  135.3077  155.3433 H   0  0  0  0  0  0  0  0  0  0  0  0  # atno 10763 bound_to 10752
  154.7884  135.4796  154.0001 H   0  0  0  0  0  0  0  0  0  0  0  0  # atno 10764 bound_to 10752
  153.1509  135.6843  153.8977 H   0  0  0  0  0  0  0  0  0  0  0  0  # atno 10765 bound_to 10752
  141.0936  133.6628  156.4058 H   0  0  0  0  0  0  0  0  0  0  0  0  # atno 11005 bound_to 11000
  144.9677  139.3912  143.6324 LP  0  0  0  0  0  0  0  0  0  0  0  0  # atno 17320 bound_to 7965
  146.3353  139.8761  142.8832 LP  0  0  0  0  0  0  0  0  0  0  0  0  # atno 17321 bound_to 7965
  139.4995  144.6670  151.6334 LP  0  0  0  0  0  0  0  0  0  0  0  0  # atno 17342 bound_to 10162
  140.5906  143.9787  150.6322 LP  0  0  0  0  0  0  0  0  0  0  0  0  # atno 17343 bound_to 10162
  157.2596  131.0564  151.2328 LP  0  0  0  0  0  0  0  0  0  0  0  0  # atno 17370 bound_to 10713
  157.3448  130.7051  149.6403 LP  0  0  0  0  0  0  0  0  0  0  0  0  # atno 17371 bound_to 10713
  140.5193  134.6319  157.5312 LP  0  0  0  0  0  0  0  0  0  0  0  0  # atno 17394 bound_to 11000
  139.9767  134.7203  155.9936 LP  0  0  0  0  0  0  0  0  0  0  0  0  # atno 17395 bound_to 11000

$$$$
