AV-unprocessed.smi:1901|AV-procd|sdf|7718|dock2
  -GOLD-   22720 9463D 1   1.00000     0.00000
 Structure written by MMmdl.
 27 28  0  0  0  0  0  0  0  0  2 V2000
  151.0467  140.8696  158.1705 O   0  0  0  0  0  0  0  0  0  0  0  0
  152.2059  140.5228  157.9339 C   0  0  0  0  0  0  0  0  0  0  0  0
  153.1846  140.8908  158.7715 N   0  0  0  0  0  0  0  0  0  0  0  0
  153.0039  141.6867  159.9795 C   0  0  0  0  0  0  0  0  0  0  0  0
  152.2087  142.9683  159.6808 C   0  0  2  0  0  0  0  0  0  0  0  0
  152.8302  143.8719  158.6338 C   0  0  0  0  0  0  0  0  0  0  0  0
  152.1327  145.2004  158.9110 C   0  0  0  0  0  0  0  0  0  0  0  0
  151.8536  145.2115  160.3084 O   0  0  0  0  0  0  0  0  0  0  0  0
  152.1047  143.9253  160.8677 C   0  0  0  0  0  0  0  0  0  0  0  0
  152.6502  139.7810  156.8873 N   0  5  0  0  0  0  0  0  0  0  0  0
  151.8697  139.2329  155.9296 C   0  0  0  0  0  0  0  0  0  0  0  0
  151.1599  139.8863  154.9947 N   0  0  0  0  0  0  0  0  0  0  0  0
  150.4468  139.0513  154.1344 C   0  0  0  0  0  0  0  0  0  0  0  0
  150.6119  137.7219  154.4130 C   0  0  0  0  0  0  0  0  0  0  0  0
  151.6721  137.4848  155.7718 S   0  0  0  0  0  0  0  0  0  0  0  0
  154.1237  140.5928  158.5523 H   0  0  0  0  0  0  0  0  0  0  0  0
  152.4771  141.0906  160.7260 H   0  0  0  0  0  0  0  0  0  0  0  0
  153.9802  141.9351  160.3988 H   0  0  0  0  0  0  0  0  0  0  0  0
  151.1998  142.7031  159.3595 H   0  0  0  0  0  0  0  0  0  0  0  0
  153.9035  143.9693  158.8043 H   0  0  0  0  0  0  0  0  0  0  0  0
  152.6774  143.5186  157.6137 H   0  0  0  0  0  0  0  0  0  0  0  0
  152.7389  146.0578  158.6182 H   0  0  0  0  0  0  0  0  0  0  0  0
  151.1874  145.2528  158.3696 H   0  0  0  0  0  0  0  0  0  0  0  0
  151.3219  143.6366  161.5695 H   0  0  0  0  0  0  0  0  0  0  0  0
  153.0481  143.9683  161.4136 H   0  0  0  0  0  0  0  0  0  0  0  0
  149.8473  139.4901  153.3509 H   0  0  0  0  0  0  0  0  0  0  0  0
  150.1784  136.8727  153.9069 H   0  0  0  0  0  0  0  0  0  0  0  0
  1  2  2  0  0  0  0
  2  3  1  0  0  0  0
  2 10  1  0  0  0  0
  3  4  1  0  0  0  0
  3 16  1  0  0  0  0
  4  5  1  0  0  0  0
  4 17  1  0  0  0  0
  4 18  1  0  0  0  0
  5  9  1  0  0  0  0
  5  6  1  0  0  0  0
  5 19  1  0  0  0  0
  6  7  1  0  0  0  0
  6 20  1  0  0  0  0
  6 21  1  0  0  0  0
  7  8  1  0  0  0  0
  7 22  1  0  0  0  0
  7 23  1  0  0  0  0
  8  9  1  0  0  0  0
  9 24  1  0  0  0  0
  9 25  1  0  0  0  0
 10 11  1  0  0  0  0
 11 15  1  0  0  0  0
 11 12  2  0  0  0  0
 12 13  1  0  0  0  0
 13 14  2  0  0  0  0
 13 26  1  0  0  0  0
 14 15  1  0  0  0  0
 14 27  1  0  0  0  0
M  CHG  1  10  -1
M  END
> <s_m_source_file>
AV-unprocessed.smi

> <i_m_source_file_index>
1901

> <i_lp_mmshare_version>
43012

> <i_f3d_flags>
0

> <s_epik_input>
czFbY0hdW2NIXW5jMVtOSF1DKD1PKVtOSF1bQ0gyXVtDQEBIXTJbQ0gyXVtDSDJdT1tDSDJdMg==

> <s_epik_cmdline>
J2VwaWtfcHl0aG9uJywgJy1waCcsICc3LjAnLCAnLXRuJywgJzgnLCAnLW1hJywgJzIwMCcsICctbWV0YWxfYmluZGluZycsICctaW1hZScsICc8aW5maWxlLm1hZT4nLCAnLW9tYWUnLCAnPG91dGZpbGUubWFlPic=

> <r_lp_tautomer_probability>
0.999

> <r_epik_Ionization_Penalty>
8.4411

> <r_epik_Ionization_Penalty_Charging>
6.72681

> <r_epik_Ionization_Penalty_Neutral>
1.71429

> <r_epik_State_Penalty>
6.72698

> <r_epik_Charging_Adjusted_Penalty>
13.4538

> <i_epik_Tot_Q>
-1

> <i_epik_Tot_abs_Q>
1

> <r_epik_Metal_State_Penalty>
2.64812

> <b_epik_Metal_Only>
1

> <s_lp_Force_Field>
OPLS_2005

> <r_lp_Energy>
18.4833

> <b_lp_Chiralities_Consistent>
1

> <s_lp_Variant>
AV-unprocessed.smi:1901-3

> <Gold.Version>
5.8.1

> <Gold.Id.Protein>
6NUR|6NUR_protein|mol2

> <Gold.PLP.Fitness>
46.3870

> <Gold.PLP.PLP>
-34.2226

> <Gold.PLP.part.hbond>
-2.0000

> <Gold.PLP.part.metal>
0.0000

> <Gold.PLP.part.buried>
-3.7867

> <Gold.PLP.part.nonpolar>
-28.9982

> <Gold.PLP.part.repulsive>
0.3031

> <Gold.PLP.ligand.clash>
0.0000

> <Gold.PLP.ligand.torsion>
0.6888

> <Gold.PLP.Chemscore.Hbond>
2.4500

> <Gold.PLP.Chemscore.CHOScore>
2.0600

> <Gold.PLP.Chemscore.Metal>
0.0000

> <Gold.Chemscore.Hbonds>
donor molecule, donor type, donor heavy atom, donor atom, acceptor molecule, acceptor atom, score
      P1  H  7989  7998       L1    12  0.35
      P1  H  7997  8009       L1    10  2.00
      L1  C    13    26       P1  7957  1.00
      L1  C    14    27       P1  7948  0.97
      L1  C    14    27       P1  7949  0.08

> <Gold.PLP.Chemscore.Internal.Correction>
0.0118

> <Gold.Rescore>
     Score         DG    S(hbond)    S(metal)    S(lipo)     H(rot)  DE(clash)    DE(int)     intcor
     12.97     -14.73       0.92        0.00      81.16       1.30       0.13       1.63       ----

> <Gold.Chemscore.Fitness>
12.9748

> <Gold.Chemscore.DG>
-14.7299

> <Gold.Chemscore.ZeroCoef>
-5.4800

> <Gold.Chemscore.Hbond>
0.9228

> <Gold.Chemscore.Metal>
0.0000

> <Gold.Chemscore.Lipo>
81.1612

> <Gold.Chemscore.Internal_Hbond>
0.0000

> <Gold.Chemscore.DEClash>
0.1300

> <Gold.Chemscore.DEInternal>
1.6251

> <Gold.Chemscore.Rot>
1.3000

> <Gold.Chemscore.Internal.Correction>
   9.000000E+99

> <Gold.Chemscore.Hbonds>
donor molecule, donor type, donor heavy atom, donor atom, acceptor molecule, acceptor atom, score
      P1  H  7989  7998       L1    12  0.01
      P1  H  7997  8009       L1    10  0.77

> <Gold.Chemscore.Hbond.Weighted>
-3.0820

> <Gold.Chemscore.Metal.Weighted>
-0.0000

> <Gold.Chemscore.Lipo.Weighted>
-9.4959

> <Gold.Chemscore.Internal_Hbond.Weighted>
0.0000

> <Gold.Chemscore.DEClash.Weighted>
0.1300

> <Gold.Chemscore.DEInternal.Weighted>
1.6251

> <Gold.Chemscore.Rot.Weighted>
3.3280

> <Gold.Chemscore.Internal.Correction.Weighted>
   9.000000E+99

> <Gold.Protein.RotatedTorsions>
[ 6907 6896 6895 6894 ] final   56.77 input  -60.11 | X-H torsion
[ 7974 7965 7964 7962 ] final  -37.41 input  175.53 | X-H torsion
[ 8008 7997 7996 7995 ] final -175.38 input   59.86 | X-H torsion
[ 10167 10162 10161 10158 ] final  -34.44 input  -65.29 | X-H torsion
[ 10718 10713 10712 10709 ] final   99.17 input   66.30 | X-H torsion
[ 10763 10752 10751 10750 ] final   55.07 input  -60.55 | X-H torsion
[ 11005 11000 10999 10996 ] final  157.34 input  -57.11 | X-H torsion

> <Gold.Protein.ActiveResidues>
 VAL166  LYS551  ARG553  GLY616  TRP617  ASP618  TYR619  PRO620  LYS621  CYS622 
 ASP623  PHE694  ASN695  SER759  ASP760  ASP761  ALA762  ILE779  LEU786  VAL792 
 PHE793  MET794  SER795  GLU796  ALA797  LYS798  CYS799  TRP800  GLU811  SER814 

> <Gold.Protein.RotatedAtoms>
  152.3668  134.6792  160.0189 H   0  0  0  0  0  0  0  0  0  0  0  0  # atno 6907 bound_to 6896
  151.7098  133.3306  159.3296 H   0  0  0  0  0  0  0  0  0  0  0  0  # atno 6908 bound_to 6896
  150.7644  134.6477  159.6315 H   0  0  0  0  0  0  0  0  0  0  0  0  # atno 6909 bound_to 6896
  146.0577  140.6393  142.9012 H   0  0  0  0  0  0  0  0  0  0  0  0  # atno 7974 bound_to 7965
  155.9818  140.1183  157.0719 H   0  0  0  0  0  0  0  0  0  0  0  0  # atno 8008 bound_to 7997
  154.4185  140.1143  156.5514 H   0  0  0  0  0  0  0  0  0  0  0  0  # atno 8009 bound_to 7997
  155.6460  140.3473  155.4734 H   0  0  0  0  0  0  0  0  0  0  0  0  # atno 8010 bound_to 7997
  140.7185  143.3548  151.2082 H   0  0  0  0  0  0  0  0  0  0  0  0  # atno 10167 bound_to 10162
  157.6881  131.0662  150.4908 H   0  0  0  0  0  0  0  0  0  0  0  0  # atno 10718 bound_to 10713
  152.9812  135.5723  154.5007 H   0  0  0  0  0  0  0  0  0  0  0  0  # atno 10763 bound_to 10752
  154.4527  135.2779  155.1772 H   0  0  0  0  0  0  0  0  0  0  0  0  # atno 10764 bound_to 10752
  154.3393  135.6233  153.5642 H   0  0  0  0  0  0  0  0  0  0  0  0  # atno 10765 bound_to 10752
  140.1760  134.8509  157.2747 H   0  0  0  0  0  0  0  0  0  0  0  0  # atno 11005 bound_to 11000
  144.7157  140.4201  143.7046 LP  0  0  0  0  0  0  0  0  0  0  0  0  # atno 17320 bound_to 7965
  145.6615  139.1582  143.2806 LP  0  0  0  0  0  0  0  0  0  0  0  0  # atno 17321 bound_to 7965
  139.7086  143.9413  152.2938 LP  0  0  0  0  0  0  0  0  0  0  0  0  # atno 17342 bound_to 10162
  139.9131  144.6845  150.8541 LP  0  0  0  0  0  0  0  0  0  0  0  0  # atno 17343 bound_to 10162
  156.5235  130.4167  149.6238 LP  0  0  0  0  0  0  0  0  0  0  0  0  # atno 17370 bound_to 10713
  156.3133  130.7241  151.2138 LP  0  0  0  0  0  0  0  0  0  0  0  0  # atno 17371 bound_to 10713
  140.2322  134.3895  155.7517 LP  0  0  0  0  0  0  0  0  0  0  0  0  # atno 17394 bound_to 11000
  141.2220  133.7221  156.8659 LP  0  0  0  0  0  0  0  0  0  0  0  0  # atno 17395 bound_to 11000

$$$$
