AV-unprocessed.smi:3187|AV-procd|sdf|12177|dock5
  -GOLD-   2272018 13D 1   1.00000     0.00000
 Structure written by MMmdl.
 41 42  0  0  0  0  0  0  0  0  2 V2000
  153.7025  140.5456  160.3385 C   0  0  0  0  0  0  0  0  0  0  0  0
  152.9886  141.8773  160.5027 C   0  0  0  0  0  0  0  0  0  0  0  0
  152.9171  142.4503  161.7195 C   0  0  0  0  0  0  0  0  0  0  0  0
  152.3000  143.8029  161.9906 C   0  0  0  0  0  0  0  0  0  0  0  0
  152.2222  144.6383  160.7105 C   0  0  0  0  0  0  0  0  0  0  0  0
  151.5959  143.8398  159.5556 C   0  0  1  0  0  0  0  0  0  0  0  0
  151.4490  144.7541  158.3236 C   0  0  0  0  0  0  0  0  0  0  0  0
  152.3896  142.5339  159.2414 C   0  0  2  0  0  0  0  0  0  0  0  0
  151.5090  141.5578  158.4163 C   0  0  0  0  0  0  0  0  0  0  0  0
  151.2352  142.0464  157.0490 N   0  3  0  0  0  0  0  0  0  0  0  0
  150.8963  140.9832  156.0839 C   0  0  0  0  0  0  0  0  0  0  0  0
  152.1023  140.0700  155.8269 C   0  0  0  0  0  0  0  0  0  0  0  0
  151.6881  138.7114  155.5412 N   0  0  0  0  0  0  0  0  0  0  0  0
  150.7246  138.3039  154.6278 C   0  0  0  0  0  0  0  0  0  0  0  0
  150.6751  136.9297  154.6958 C   0  0  0  0  0  0  0  0  0  0  0  0
  151.5955  136.4740  155.6369 N   0  0  0  0  0  0  0  0  0  0  0  0
  152.1560  137.5850  156.0964 C   0  0  0  0  0  0  0  0  0  0  0  0
  154.4410  140.6039  159.5387 H   0  0  0  0  0  0  0  0  0  0  0  0
  152.9941  139.7490  160.1129 H   0  0  0  0  0  0  0  0  0  0  0  0
  154.2276  140.2626  161.2517 H   0  0  0  0  0  0  0  0  0  0  0  0
  153.3314  141.9438  162.5794 H   0  0  0  0  0  0  0  0  0  0  0  0
  151.3087  143.6559  162.4203 H   0  0  0  0  0  0  0  0  0  0  0  0
  152.8990  144.3268  162.7361 H   0  0  0  0  0  0  0  0  0  0  0  0
  151.6474  145.5445  160.9062 H   0  0  0  0  0  0  0  0  0  0  0  0
  153.2243  144.9644  160.4273 H   0  0  0  0  0  0  0  0  0  0  0  0
  150.5925  143.5559  159.8778 H   0  0  0  0  0  0  0  0  0  0  0  0
  152.4230  145.0567  157.9377 H   0  0  0  0  0  0  0  0  0  0  0  0
  150.9013  145.6626  158.5760 H   0  0  0  0  0  0  0  0  0  0  0  0
  150.9050  144.2762  157.5106 H   0  0  0  0  0  0  0  0  0  0  0  0
  153.2469  142.8194  158.6296 H   0  0  0  0  0  0  0  0  0  0  0  0
  151.9902  140.5798  158.3682 H   0  0  0  0  0  0  0  0  0  0  0  0
  150.5434  141.3985  158.8935 H   0  0  0  0  0  0  0  0  0  0  0  0
  150.4694  142.7038  157.0895 H   0  0  0  0  0  0  0  0  0  0  0  0
  150.0624  140.3979  156.4744 H   0  0  0  0  0  0  0  0  0  0  0  0
  150.5633  141.4381  155.1498 H   0  0  0  0  0  0  0  0  0  0  0  0
  152.6908  140.4386  154.9855 H   0  0  0  0  0  0  0  0  0  0  0  0
  152.7624  140.0549  156.6952 H   0  0  0  0  0  0  0  0  0  0  0  0
  150.1685  139.0039  154.0216 H   0  0  0  0  0  0  0  0  0  0  0  0
  150.0543  136.2396  154.1438 H   0  0  0  0  0  0  0  0  0  0  0  0
  152.9269  137.5783  156.8531 H   0  0  0  0  0  0  0  0  0  0  0  0
  152.0575  142.5292  156.7156 H   0  0  0  0  0  0  0  0  0  0  0  0
  1  2  1  0  0  0  0
  1 18  1  0  0  0  0
  1 19  1  0  0  0  0
  1 20  1  0  0  0  0
  2  8  1  0  0  0  0
  2  3  2  0  0  0  0
  3  4  1  0  0  0  0
  3 21  1  0  0  0  0
  4  5  1  0  0  0  0
  4 22  1  0  0  0  0
  4 23  1  0  0  0  0
  5  6  1  0  0  0  0
  5 24  1  0  0  0  0
  5 25  1  0  0  0  0
  6  7  1  0  0  0  0
  6  8  1  0  0  0  0
  6 26  1  0  0  0  0
  7 27  1  0  0  0  0
  7 28  1  0  0  0  0
  7 29  1  0  0  0  0
  8  9  1  0  0  0  0
  8 30  1  0  0  0  0
  9 10  1  0  0  0  0
  9 31  1  0  0  0  0
  9 32  1  0  0  0  0
 10 11  1  0  0  0  0
 10 33  1  0  0  0  0
 10 41  1  0  0  0  0
 11 12  1  0  0  0  0
 11 34  1  0  0  0  0
 11 35  1  0  0  0  0
 12 13  1  0  0  0  0
 12 36  1  0  0  0  0
 12 37  1  0  0  0  0
 13 17  1  0  0  0  0
 13 14  1  0  0  0  0
 14 15  2  0  0  0  0
 14 38  1  0  0  0  0
 15 16  1  0  0  0  0
 15 39  1  0  0  0  0
 16 17  2  0  0  0  0
 17 40  1  0  0  0  0
M  CHG  1  10   1
M  END
> <s_m_source_file>
AV-unprocessed.smi

> <i_m_source_file_index>
3187

> <i_lp_mmshare_version>
43012

> <i_f3d_flags>
0

> <s_epik_input>
W0NIM11DMT1bQ0hdW0NIMl1bQ0gyXVtDQEBIXShbQ0gzXSlbQ0BIXTFbQ0gyXVtOSF1bQ0gyXVtDSDJdbjJbY0hdW2NIXW5bY0hdMg==

> <s_epik_cmdline>
J2VwaWtfcHl0aG9uJywgJy1waCcsICc3LjAnLCAnLXRuJywgJzgnLCAnLW1hJywgJzIwMCcsICctbWV0YWxfYmluZGluZycsICctaW1hZScsICc8aW5maWxlLm1hZT4nLCAnLW9tYWUnLCAnPG91dGZpbGUubWFlPic=

> <r_lp_tautomer_probability>
1

> <r_epik_Ionization_Penalty>
0.0501625

> <r_epik_Ionization_Penalty_Charging>
0.0501625

> <r_epik_Ionization_Penalty_Neutral>
0

> <r_epik_State_Penalty>
0.0972392

> <r_epik_Charging_Adjusted_Penalty>
0.147402

> <i_epik_Tot_Q>
1

> <i_epik_Tot_abs_Q>
1

> <r_epik_Metal_State_Penalty>
0.000104376

> <b_epik_Metal_Only>
0

> <s_lp_Force_Field>
OPLS_2005

> <r_lp_Energy>
17.2086

> <b_lp_Chiralities_Consistent>
1

> <s_lp_Variant>
AV-unprocessed.smi:3187-3

> <Gold.Version>
5.8.1

> <Gold.Id.Protein>
6NUR|6NUR_protein|mol2

> <Gold.PLP.Fitness>
49.2473

> <Gold.PLP.PLP>
-44.3882

> <Gold.PLP.part.hbond>
-1.0000

> <Gold.PLP.part.metal>
0.0000

> <Gold.PLP.part.buried>
-4.5887

> <Gold.PLP.part.nonpolar>
-40.0825

> <Gold.PLP.part.repulsive>
0.1300

> <Gold.PLP.ligand.clash>
0.0000

> <Gold.PLP.ligand.torsion>
0.5211

> <Gold.PLP.Chemscore.Hbond>
1.0000

> <Gold.PLP.Chemscore.CHOScore>
0.9539

> <Gold.PLP.Chemscore.Metal>
0.0000

> <Gold.Chemscore.Hbonds>
donor molecule, donor type, donor heavy atom, donor atom, acceptor molecule, acceptor atom, score
      P1  H 10752 10765       L1    16  1.00
      L1  C    15    39       P1  7948  0.95

> <Gold.PLP.Chemscore.Internal.Correction>
0.0398

> <Gold.Rescore>
     Score         DG    S(hbond)    S(metal)    S(lipo)     H(rot)  DE(clash)    DE(int)     intcor
     16.81     -18.38       0.90        0.00     125.78       1.89       0.01       1.57       ----

> <Gold.Chemscore.Fitness>
16.8065

> <Gold.Chemscore.DG>
-18.3813

> <Gold.Chemscore.ZeroCoef>
-5.4800

> <Gold.Chemscore.Hbond>
0.9015

> <Gold.Chemscore.Metal>
0.0000

> <Gold.Chemscore.Lipo>
125.7822

> <Gold.Chemscore.Internal_Hbond>
0.0000

> <Gold.Chemscore.DEClash>
0.0059

> <Gold.Chemscore.DEInternal>
1.5689

> <Gold.Chemscore.Rot>
1.8853

> <Gold.Chemscore.Internal.Correction>
   9.000000E+99

> <Gold.Chemscore.Hbonds>
donor molecule, donor type, donor heavy atom, donor atom, acceptor molecule, acceptor atom, score
      P1  H 10752 10765       L1    16  0.37

> <Gold.Chemscore.Hbond.Weighted>
-3.0110

> <Gold.Chemscore.Metal.Weighted>
-0.0000

> <Gold.Chemscore.Lipo.Weighted>
-14.7165

> <Gold.Chemscore.Internal_Hbond.Weighted>
0.0000

> <Gold.Chemscore.DEClash.Weighted>
0.0059

> <Gold.Chemscore.DEInternal.Weighted>
1.5689

> <Gold.Chemscore.Rot.Weighted>
4.8263

> <Gold.Chemscore.Internal.Correction.Weighted>
   9.000000E+99

> <Gold.Protein.RotatedTorsions>
[ 6907 6896 6895 6894 ] final   98.58 input  -60.11 | X-H torsion
[ 7974 7965 7964 7962 ] final  -23.83 input  175.53 | X-H torsion
[ 8008 7997 7996 7995 ] final -156.44 input   59.86 | X-H torsion
[ 10167 10162 10161 10158 ] final  114.94 input  -65.29 | X-H torsion
[ 10718 10713 10712 10709 ] final -112.39 input   66.30 | X-H torsion
[ 10763 10752 10751 10750 ] final -156.43 input  -60.55 | X-H torsion
[ 11005 11000 10999 10996 ] final  121.02 input  -57.11 | X-H torsion

> <Gold.Protein.ActiveResidues>
 VAL166  LYS551  ARG553  GLY616  TRP617  ASP618  TYR619  PRO620  LYS621  CYS622 
 ASP623  PHE694  ASN695  SER759  ASP760  ASP761  ALA762  ILE779  LEU786  VAL792 
 PHE793  MET794  SER795  GLU796  ALA797  LYS798  CYS799  TRP800  GLU811  SER814 

> <Gold.Protein.RotatedAtoms>
  152.5407  134.0559  159.8130 H   0  0  0  0  0  0  0  0  0  0  0  0  # atno 6907 bound_to 6896
  151.0693  133.5471  159.2635 H   0  0  0  0  0  0  0  0  0  0  0  0  # atno 6908 bound_to 6896
  151.2340  135.0573  159.9053 H   0  0  0  0  0  0  0  0  0  0  0  0  # atno 6909 bound_to 6896
  146.1592  140.4669  142.8578 H   0  0  0  0  0  0  0  0  0  0  0  0  # atno 7974 bound_to 7965
  155.7173  140.0785  157.2346 H   0  0  0  0  0  0  0  0  0  0  0  0  # atno 8008 bound_to 7997
  154.4050  140.1619  156.2416 H   0  0  0  0  0  0  0  0  0  0  0  0  # atno 8009 bound_to 7997
  155.9229  140.3396  155.6190 H   0  0  0  0  0  0  0  0  0  0  0  0  # atno 8010 bound_to 7997
  139.6352  144.7119  151.2349 H   0  0  0  0  0  0  0  0  0  0  0  0  # atno 10167 bound_to 10162
  156.0703  130.5917  150.8501 H   0  0  0  0  0  0  0  0  0  0  0  0  # atno 10718 bound_to 10713
  154.7713  135.3146  154.8183 H   0  0  0  0  0  0  0  0  0  0  0  0  # atno 10763 bound_to 10752
  153.8917  135.6824  153.4764 H   0  0  0  0  0  0  0  0  0  0  0  0  # atno 10764 bound_to 10752
  153.1328  135.4773  154.9310 H   0  0  0  0  0  0  0  0  0  0  0  0  # atno 10765 bound_to 10752
  139.9209  134.9637  156.7895 H   0  0  0  0  0  0  0  0  0  0  0  0  # atno 11005 bound_to 11000
  144.8004  140.6203  143.6482 LP  0  0  0  0  0  0  0  0  0  0  0  0  # atno 17320 bound_to 7965
  145.4630  139.1511  143.3856 LP  0  0  0  0  0  0  0  0  0  0  0  0  # atno 17321 bound_to 7965
  140.7461  143.6408  150.8336 LP  0  0  0  0  0  0  0  0  0  0  0  0  # atno 17342 bound_to 10162
  140.0039  143.5715  152.2865 LP  0  0  0  0  0  0  0  0  0  0  0  0  # atno 17343 bound_to 10162
  157.5769  131.0946  150.9332 LP  0  0  0  0  0  0  0  0  0  0  0  0  # atno 17370 bound_to 10713
  156.9535  130.5429  149.5283 LP  0  0  0  0  0  0  0  0  0  0  0  0  # atno 17371 bound_to 10713
  140.6479  133.9759  155.7740 LP  0  0  0  0  0  0  0  0  0  0  0  0  # atno 17394 bound_to 11000
  141.0728  134.0180  157.3501 LP  0  0  0  0  0  0  0  0  0  0  0  0  # atno 17395 bound_to 11000

$$$$
