AV-unprocessed.smi:2671|AV-procd|sdf|10346|dock3
  -GOLD-   2272014373D 1   1.00000     0.00000
 Structure written by MMmdl.
 28 29  0  0  0  0  0  0  0  0  2 V2000
  153.1760  137.8678  155.1863 O   0  0  0  0  0  0  0  0  0  0  0  0
  152.6276  138.7087  155.8954 C   0  0  0  0  0  0  0  0  0  0  0  0
  151.3620  139.2998  155.4635 C   0  0  0  0  0  0  0  0  0  0  0  0
  150.7631  140.2249  156.2543 C   0  0  0  0  0  0  0  0  0  0  0  0
  149.4538  140.8822  155.8517 C   0  0  0  0  0  0  0  0  0  0  0  0
  149.0794  141.7729  156.7705 F   0  0  0  0  0  0  0  0  0  0  0  0
  149.5985  141.5208  154.6907 F   0  0  0  0  0  0  0  0  0  0  0  0
  148.4746  139.9861  155.7154 F   0  0  0  0  0  0  0  0  0  0  0  0
  151.3581  140.6157  157.4687 N   0  0  0  0  0  0  0  0  0  0  0  0
  152.4671  140.0839  157.8262 C   0  0  0  0  0  0  0  0  0  0  0  0
  153.2311  140.5760  159.3819 S   0  0  0  0  0  0  0  0  0  0  0  0
  152.0818  141.8099  160.0616 C   0  0  0  0  0  0  0  0  0  0  0  0
  152.5402  143.2426  159.7567 C   0  0  2  0  0  0  0  0  0  0  0  0
  151.6943  144.3360  160.4127 C   0  0  0  0  0  0  0  0  0  0  0  0
  151.8247  145.5187  159.4638 C   0  0  0  0  0  0  0  0  0  0  0  0
  152.5100  144.9350  158.2260 C   0  0  0  0  0  0  0  0  0  0  0  0
  152.3913  143.5282  158.3751 O   0  0  0  0  0  0  0  0  0  0  0  0
  153.1391  139.1340  157.0866 N   0  5  0  0  0  0  0  0  0  0  0  0
  150.9132  139.0015  154.5275 H   0  0  0  0  0  0  0  0  0  0  0  0
  151.9882  141.6651  161.1384 H   0  0  0  0  0  0  0  0  0  0  0  0
  151.0958  141.6410  159.6280 H   0  0  0  0  0  0  0  0  0  0  0  0
  153.5910  143.3686  160.0250 H   0  0  0  0  0  0  0  0  0  0  0  0
  150.6495  144.0274  160.4673 H   0  0  0  0  0  0  0  0  0  0  0  0
  152.0269  144.5675  161.4248 H   0  0  0  0  0  0  0  0  0  0  0  0
  150.8414  145.9215  159.2189 H   0  0  0  0  0  0  0  0  0  0  0  0
  152.4198  146.3240  159.8958 H   0  0  0  0  0  0  0  0  0  0  0  0
  152.0578  145.2758  157.2944 H   0  0  0  0  0  0  0  0  0  0  0  0
  153.5672  145.2041  158.2097 H   0  0  0  0  0  0  0  0  0  0  0  0
  1  2  2  0  0  0  0
  2 18  1  0  0  0  0
  2  3  1  0  0  0  0
  3 19  1  0  0  0  0
  3  4  2  0  0  0  0
  4  5  1  0  0  0  0
  4  9  1  0  0  0  0
  5  6  1  0  0  0  0
  5  7  1  0  0  0  0
  5  8  1  0  0  0  0
  9 10  2  0  0  0  0
 10 11  1  0  0  0  0
 10 18  1  0  0  0  0
 11 12  1  0  0  0  0
 12 13  1  0  0  0  0
 12 20  1  0  0  0  0
 12 21  1  0  0  0  0
 13 17  1  0  0  0  0
 13 14  1  0  0  0  0
 13 22  1  0  0  0  0
 14 15  1  0  0  0  0
 14 23  1  0  0  0  0
 14 24  1  0  0  0  0
 15 16  1  0  0  0  0
 15 25  1  0  0  0  0
 15 26  1  0  0  0  0
 16 17  1  0  0  0  0
 16 27  1  0  0  0  0
 16 28  1  0  0  0  0
M  CHG  1  18  -1
M  END
> <s_m_source_file>
AV-unprocessed.smi

> <i_m_source_file_index>
2671

> <i_lp_mmshare_version>
43012

> <i_f3d_flags>
0

> <s_epik_input>
W09IXWMxW2NIXWMoQyhGKShGKUYpbmMobjEpU1tDSDJdW0NAQEhdMltDSDJdW0NIMl1bQ0gyXU8y

> <s_epik_cmdline>
J2VwaWtfcHl0aG9uJywgJy1waCcsICc3LjAnLCAnLXRuJywgJzgnLCAnLW1hJywgJzIwMCcsICctbWV0YWxfYmluZGluZycsICctaW1hZScsICc8aW5maWxlLm1hZT4nLCAnLW9tYWUnLCAnPG91dGZpbGUubWFlPic=

> <r_lp_tautomer_probability>
1

> <r_epik_Ionization_Penalty>
0.972901

> <r_epik_Ionization_Penalty_Charging>
0.00136034

> <r_epik_Ionization_Penalty_Neutral>
0.971541

> <r_epik_State_Penalty>
0.242243

> <r_epik_Charging_Adjusted_Penalty>
0.243604

> <i_epik_Tot_Q>
-1

> <i_epik_Tot_abs_Q>
1

> <r_epik_Metal_State_Penalty>
0.0617458

> <b_epik_Metal_Only>
0

> <s_lp_Force_Field>
OPLS_2005

> <r_lp_Energy>
24.2298

> <b_lp_Chiralities_Consistent>
1

> <s_lp_Variant>
AV-unprocessed.smi:2671-1

> <Gold.Version>
5.8.1

> <Gold.Id.Protein>
6NUR|6NUR_protein|mol2

> <Gold.PLP.Fitness>
43.3730

> <Gold.PLP.PLP>
-37.9491

> <Gold.PLP.part.hbond>
-1.8917

> <Gold.PLP.part.metal>
0.0000

> <Gold.PLP.part.buried>
-2.8278

> <Gold.PLP.part.nonpolar>
-32.8911

> <Gold.PLP.part.repulsive>
0.0326

> <Gold.PLP.ligand.clash>
0.0000

> <Gold.PLP.ligand.torsion>
0.2988

> <Gold.PLP.Chemscore.Hbond>
2.0000

> <Gold.PLP.Chemscore.CHOScore>
0.0000

> <Gold.PLP.Chemscore.Metal>
0.0000

> <Gold.Chemscore.Hbonds>
donor molecule, donor type, donor heavy atom, donor atom, acceptor molecule, acceptor atom, score
      P1  H  7997  8010       L1    18  1.60
      P1  H 10752 10763       L1     1  0.05

> <Gold.PLP.Chemscore.Internal.Correction>
0.0215

> <Gold.Rescore>
     Score         DG    S(hbond)    S(metal)    S(lipo)     H(rot)  DE(clash)    DE(int)     intcor
     12.41     -12.83       0.60        0.00      82.05       1.66       0.10       0.32       ----

> <Gold.Chemscore.Fitness>
12.4077

> <Gold.Chemscore.DG>
-12.8301

> <Gold.Chemscore.ZeroCoef>
-5.4800

> <Gold.Chemscore.Hbond>
0.6026

> <Gold.Chemscore.Metal>
0.0000

> <Gold.Chemscore.Lipo>
82.0458

> <Gold.Chemscore.Internal_Hbond>
0.0000

> <Gold.Chemscore.DEClash>
0.1019

> <Gold.Chemscore.DEInternal>
0.3205

> <Gold.Chemscore.Rot>
1.6649

> <Gold.Chemscore.Internal.Correction>
   9.000000E+99

> <Gold.Chemscore.Hbonds>
donor molecule, donor type, donor heavy atom, donor atom, acceptor molecule, acceptor atom, score
      P1  H  7997  8010       L1    18  0.08
      P1  H 10752 10763       L1     1  0.05

> <Gold.Chemscore.Hbond.Weighted>
-2.0128

> <Gold.Chemscore.Metal.Weighted>
-0.0000

> <Gold.Chemscore.Lipo.Weighted>
-9.5994

> <Gold.Chemscore.Internal_Hbond.Weighted>
0.0000

> <Gold.Chemscore.DEClash.Weighted>
0.1019

> <Gold.Chemscore.DEInternal.Weighted>
0.3205

> <Gold.Chemscore.Rot.Weighted>
4.2620

> <Gold.Chemscore.Internal.Correction.Weighted>
   9.000000E+99

> <Gold.Protein.RotatedTorsions>
[ 6907 6896 6895 6894 ] final  102.17 input  -60.11 | X-H torsion
[ 7974 7965 7964 7962 ] final -100.67 input  175.53 | X-H torsion
[ 8008 7997 7996 7995 ] final   49.05 input   59.86 | X-H torsion
[ 10167 10162 10161 10158 ] final   77.34 input  -65.29 | X-H torsion
[ 10718 10713 10712 10709 ] final -112.99 input   66.30 | X-H torsion
[ 10763 10752 10751 10750 ] final   50.44 input  -60.55 | X-H torsion
[ 11005 11000 10999 10996 ] final -142.66 input  -57.11 | X-H torsion

> <Gold.Protein.ActiveResidues>
 VAL166  LYS551  ARG553  GLY616  TRP617  ASP618  TYR619  PRO620  LYS621  CYS622 
 ASP623  PHE694  ASN695  SER759  ASP760  ASP761  ALA762  ILE779  LEU786  VAL792 
 PHE793  MET794  SER795  GLU796  ALA797  LYS798  CYS799  TRP800  GLU811  SER814 

> <Gold.Protein.RotatedAtoms>
  152.5331  134.0015  159.7896 H   0  0  0  0  0  0  0  0  0  0  0  0  # atno 6907 bound_to 6896
  151.0233  133.5849  159.2676 H   0  0  0  0  0  0  0  0  0  0  0  0  # atno 6908 bound_to 6896
  151.2880  135.0740  159.9247 H   0  0  0  0  0  0  0  0  0  0  0  0  # atno 6909 bound_to 6896
  145.2915  140.9354  143.2875 H   0  0  0  0  0  0  0  0  0  0  0  0  # atno 7974 bound_to 7965
  155.3958  140.3435  155.4254 H   0  0  0  0  0  0  0  0  0  0  0  0  # atno 8008 bound_to 7997
  156.1532  140.1577  156.8768 H   0  0  0  0  0  0  0  0  0  0  0  0  # atno 8009 bound_to 7997
  154.5071  140.0799  156.7897 H   0  0  0  0  0  0  0  0  0  0  0  0  # atno 8010 bound_to 7997
  139.9826  144.5815  150.7887 H   0  0  0  0  0  0  0  0  0  0  0  0  # atno 10167 bound_to 10162
  156.0739  130.5949  150.8582 H   0  0  0  0  0  0  0  0  0  0  0  0  # atno 10718 bound_to 10713
  152.9785  135.5879  154.4253 H   0  0  0  0  0  0  0  0  0  0  0  0  # atno 10763 bound_to 10752
  154.3872  135.2767  155.2178 H   0  0  0  0  0  0  0  0  0  0  0  0  # atno 10764 bound_to 10752
  154.4066  135.6091  153.5982 H   0  0  0  0  0  0  0  0  0  0  0  0  # atno 10765 bound_to 10752
  140.8203  134.2639  157.4903 H   0  0  0  0  0  0  0  0  0  0  0  0  # atno 11005 bound_to 11000
  144.9169  139.4460  143.6560 LP  0  0  0  0  0  0  0  0  0  0  0  0  # atno 17320 bound_to 7965
  146.3183  139.8007  142.8966 LP  0  0  0  0  0  0  0  0  0  0  0  0  # atno 17321 bound_to 7965
  140.7483  143.2921  151.3303 LP  0  0  0  0  0  0  0  0  0  0  0  0  # atno 17342 bound_to 10162
  139.6398  144.0560  152.2545 LP  0  0  0  0  0  0  0  0  0  0  0  0  # atno 17343 bound_to 10162
  157.5824  131.0946  150.9250 LP  0  0  0  0  0  0  0  0  0  0  0  0  # atno 17370 bound_to 10713
  156.9442  130.5396  149.5281 LP  0  0  0  0  0  0  0  0  0  0  0  0  # atno 17371 bound_to 10713
  139.8709  134.9532  156.4137 LP  0  0  0  0  0  0  0  0  0  0  0  0  # atno 17394 bound_to 11000
  140.9106  133.7715  155.9787 LP  0  0  0  0  0  0  0  0  0  0  0  0  # atno 17395 bound_to 11000

$$$$
