AV-unprocessed.smi:1788|AV-procd|sdf|7213|dock2
  -GOLD-   22720 8453D 1   1.00000     0.00000
 Structure written by MMmdl.
 55 57  0  0  0  0  0  0  0  0  2 V2000
  147.7125  132.2615  153.9109 C   0  0  0  0  0  0  0  0  0  0  0  0
  147.3515  133.3054  152.8449 C   0  0  1  0  0  0  0  0  0  0  0  0
  146.4277  132.7113  151.7687 C   0  0  0  0  0  0  0  0  0  0  0  0
  146.0625  133.7812  150.7322 C   0  0  0  0  0  0  0  0  0  0  0  0
  145.4504  135.0175  151.4100 C   0  0  0  0  0  0  0  0  0  0  0  0
  146.3656  135.5718  152.4411 N   0  3  1  0  0  0  0  0  0  0  0  0
  145.8576  136.8424  153.0172 C   0  0  0  0  0  0  0  0  0  0  0  0
  146.1728  138.0597  152.1253 C   0  0  0  0  0  0  0  0  0  0  0  0
  147.4274  138.6973  152.5081 N   0  0  0  0  0  0  0  0  0  0  0  0
  147.6811  139.2281  153.7129 C   0  0  0  0  0  0  0  0  0  0  0  0
  146.8560  139.2487  154.6253 O   0  0  0  0  0  0  0  0  0  0  0  0
  148.9273  139.7294  153.7688 N   0  0  0  0  0  0  0  0  0  0  0  0
  149.5995  140.3612  154.8519 C   0  0  0  0  0  0  0  0  0  0  0  0
  150.9641  140.1792  155.1781 C   0  0  0  0  0  0  0  0  0  0  0  0
  151.5038  140.8797  156.2739 C   0  0  0  0  0  0  0  0  0  0  0  0
  150.6746  141.7512  157.0184 C   0  0  0  0  0  0  0  0  0  0  0  0
  151.1959  142.4636  158.1209 N   0  0  0  0  0  0  0  0  0  0  0  0
  151.6053  143.8512  157.9101 C   0  0  0  0  0  0  0  0  0  0  0  0
  151.8587  144.5469  159.2582 C   0  0  0  0  0  0  0  0  0  0  0  0
  152.8113  143.8024  160.0098 O   0  0  0  0  0  0  0  0  0  0  0  0
  152.3456  142.4889  160.3001 C   0  0  0  0  0  0  0  0  0  0  0  0
  152.1035  141.7185  158.9904 C   0  0  0  0  0  0  0  0  0  0  0  0
  149.3676  141.9225  156.7028 N   0  0  0  0  0  0  0  0  0  0  0  0
  148.8547  141.2509  155.6513 C   0  0  0  0  0  0  0  0  0  0  0  0
  146.7025  134.5547  153.4739 C   0  0  0  0  0  0  0  0  0  0  0  0
  146.8251  131.9096  154.4378 H   0  0  0  0  0  0  0  0  0  0  0  0
  148.3971  132.6757  154.6516 H   0  0  0  0  0  0  0  0  0  0  0  0
  148.1989  131.3947  153.4626 H   0  0  0  0  0  0  0  0  0  0  0  0
  148.2796  133.6150  152.3614 H   0  0  0  0  0  0  0  0  0  0  0  0
  146.9126  131.8678  151.2760 H   0  0  0  0  0  0  0  0  0  0  0  0
  145.5188  132.3228  152.2305 H   0  0  0  0  0  0  0  0  0  0  0  0
  146.9541  134.0717  150.1748 H   0  0  0  0  0  0  0  0  0  0  0  0
  145.3627  133.3700  150.0040 H   0  0  0  0  0  0  0  0  0  0  0  0
  145.2454  135.7738  150.6513 H   0  0  0  0  0  0  0  0  0  0  0  0
  144.4945  134.7611  151.8700 H   0  0  0  0  0  0  0  0  0  0  0  0
  144.7739  136.7806  153.1274 H   0  0  0  0  0  0  0  0  0  0  0  0
  146.2607  136.9724  154.0228 H   0  0  0  0  0  0  0  0  0  0  0  0
  146.2232  137.7851  151.0714 H   0  0  0  0  0  0  0  0  0  0  0  0
  145.3771  138.7998  152.2139 H   0  0  0  0  0  0  0  0  0  0  0  0
  148.1596  138.7214  151.8132 H   0  0  0  0  0  0  0  0  0  0  0  0
  149.4630  139.6687  152.9153 H   0  0  0  0  0  0  0  0  0  0  0  0
  151.6140  139.5271  154.6172 H   0  0  0  0  0  0  0  0  0  0  0  0
  152.5405  140.7290  156.5352 H   0  0  0  0  0  0  0  0  0  0  0  0
  152.5119  143.8713  157.3036 H   0  0  0  0  0  0  0  0  0  0  0  0
  150.8338  144.3955  157.3638 H   0  0  0  0  0  0  0  0  0  0  0  0
  152.2439  145.5534  159.0943 H   0  0  0  0  0  0  0  0  0  0  0  0
  150.9312  144.6489  159.8241 H   0  0  0  0  0  0  0  0  0  0  0  0
  153.0921  141.9742  160.9051 H   0  0  0  0  0  0  0  0  0  0  0  0
  151.4327  142.5385  160.8959 H   0  0  0  0  0  0  0  0  0  0  0  0
  151.7159  140.7298  159.2307 H   0  0  0  0  0  0  0  0  0  0  0  0
  153.0482  141.5696  158.4657 H   0  0  0  0  0  0  0  0  0  0  0  0
  147.8100  141.4313  155.4435 H   0  0  0  0  0  0  0  0  0  0  0  0
  145.7981  134.2767  154.0181 H   0  0  0  0  0  0  0  0  0  0  0  0
  147.3896  134.9771  154.2061 H   0  0  0  0  0  0  0  0  0  0  0  0
  147.2241  135.7994  151.9600 H   0  0  0  0  0  0  0  0  0  0  0  0
  1  2  1  0  0  0  0
  1 26  1  0  0  0  0
  1 27  1  0  0  0  0
  1 28  1  0  0  0  0
  2 25  1  0  0  0  0
  2  3  1  0  0  0  0
  2 29  1  0  0  0  0
  3  4  1  0  0  0  0
  3 30  1  0  0  0  0
  3 31  1  0  0  0  0
  4  5  1  0  0  0  0
  4 32  1  0  0  0  0
  4 33  1  0  0  0  0
  5  6  1  0  0  0  0
  5 34  1  0  0  0  0
  5 35  1  0  0  0  0
  6  7  1  0  0  0  0
  6 25  1  0  0  0  0
  6 55  1  0  0  0  0
  7  8  1  0  0  0  0
  7 36  1  0  0  0  0
  7 37  1  0  0  0  0
  8  9  1  0  0  0  0
  8 38  1  0  0  0  0
  8 39  1  0  0  0  0
  9 10  1  0  0  0  0
  9 40  1  0  0  0  0
 10 11  2  0  0  0  0
 10 12  1  0  0  0  0
 12 13  1  0  0  0  0
 12 41  1  0  0  0  0
 13 24  1  0  0  0  0
 13 14  2  0  0  0  0
 14 15  1  0  0  0  0
 14 42  1  0  0  0  0
 15 16  2  0  0  0  0
 15 43  1  0  0  0  0
 16 17  1  0  0  0  0
 16 23  1  0  0  0  0
 17 22  1  0  0  0  0
 17 18  1  0  0  0  0
 18 19  1  0  0  0  0
 18 44  1  0  0  0  0
 18 45  1  0  0  0  0
 19 20  1  0  0  0  0
 19 46  1  0  0  0  0
 19 47  1  0  0  0  0
 20 21  1  0  0  0  0
 21 22  1  0  0  0  0
 21 48  1  0  0  0  0
 21 49  1  0  0  0  0
 22 50  1  0  0  0  0
 22 51  1  0  0  0  0
 23 24  2  0  0  0  0
 24 52  1  0  0  0  0
 25 53  1  0  0  0  0
 25 54  1  0  0  0  0
M  CHG  1   6   1
M  END
> <s_m_source_file>
AV-unprocessed.smi

> <i_m_source_file_index>
1788

> <i_lp_mmshare_version>
43012

> <i_f3d_flags>
0

> <s_epik_input>
W0NIM11bQ0BASF0xW0NIMl1bQ0gyXVtDSDJdTihbQ0gyXTEpW0NIMl1bQ0gyXVtOSF1DKD1PKVtOSF1jMltjSF1bY0hdYyhuW2NIXTIpTjNbQ0gyXVtDSDJdT1tDSDJdW0NIMl0z

> <s_epik_cmdline>
J2VwaWtfcHl0aG9uJywgJy1waCcsICc3LjAnLCAnLXRuJywgJzgnLCAnLW1hJywgJzIwMCcsICctbWV0YWxfYmluZGluZycsICctaW1hZScsICc8aW5maWxlLm1hZT4nLCAnLW9tYWUnLCAnPG91dGZpbGUubWFlPic=

> <r_lp_tautomer_probability>
1

> <r_epik_Ionization_Penalty>
0.00340126

> <r_epik_Ionization_Penalty_Charging>
0.00171832

> <r_epik_Ionization_Penalty_Neutral>
0.00168294

> <r_epik_State_Penalty>
-0

> <r_epik_Charging_Adjusted_Penalty>
0.00171832

> <i_epik_Tot_Q>
1

> <i_epik_Tot_abs_Q>
1

> <r_epik_Metal_State_Penalty>
-0

> <b_epik_Metal_Only>
0

> <s_lp_Force_Field>
OPLS_2005

> <r_lp_Energy>
34.4498

> <b_lp_Chiralities_Consistent>
1

> <s_lp_Variant>
AV-unprocessed.smi:1788-4

> <Gold.Version>
5.8.1

> <Gold.Id.Protein>
6NUR|6NUR_protein|mol2

> <Gold.PLP.Fitness>
55.8560

> <Gold.PLP.PLP>
-46.7699

> <Gold.PLP.part.hbond>
-4.0000

> <Gold.PLP.part.metal>
0.0000

> <Gold.PLP.part.buried>
-3.0312

> <Gold.PLP.part.nonpolar>
-40.9666

> <Gold.PLP.part.repulsive>
0.9217

> <Gold.PLP.ligand.clash>
0.0000

> <Gold.PLP.ligand.torsion>
1.3735

> <Gold.PLP.Chemscore.Hbond>
3.8000

> <Gold.PLP.Chemscore.CHOScore>
0.0000

> <Gold.PLP.Chemscore.Metal>
0.0000

> <Gold.Chemscore.Hbonds>
donor molecule, donor type, donor heavy atom, donor atom, acceptor molecule, acceptor atom, score
      L1  H     6    55       P1  7948  2.00
      L1  H     9    40       P1  7957  0.78
      L1  H    12    41       P1  7957  0.98

> <Gold.PLP.Chemscore.Internal.Correction>
0.4332

> <Gold.Rescore>
     Score         DG    S(hbond)    S(metal)    S(lipo)     H(rot)  DE(clash)    DE(int)     intcor
     20.18     -24.14       2.80        0.00     114.55       1.60       1.86       2.09       ----

> <Gold.Chemscore.Fitness>
20.1778

> <Gold.Chemscore.DG>
-24.1354

> <Gold.Chemscore.ZeroCoef>
-5.4800

> <Gold.Chemscore.Hbond>
2.7974

> <Gold.Chemscore.Metal>
0.0000

> <Gold.Chemscore.Lipo>
114.5467

> <Gold.Chemscore.Internal_Hbond>
0.0000

> <Gold.Chemscore.DEClash>
1.8630

> <Gold.Chemscore.DEInternal>
2.0946

> <Gold.Chemscore.Rot>
1.5976

> <Gold.Chemscore.Internal.Correction>
   9.000000E+99

> <Gold.Chemscore.Hbonds>
donor molecule, donor type, donor heavy atom, donor atom, acceptor molecule, acceptor atom, score
      L1  H     6    55       P1  7948  0.99
      L1  H     9    40       P1  7957  0.60
      L1  H    12    41       P1  7957  0.93

> <Gold.Chemscore.Hbond.Weighted>
-9.3434

> <Gold.Chemscore.Metal.Weighted>
-0.0000

> <Gold.Chemscore.Lipo.Weighted>
-13.4020

> <Gold.Chemscore.Internal_Hbond.Weighted>
0.0000

> <Gold.Chemscore.DEClash.Weighted>
1.8630

> <Gold.Chemscore.DEInternal.Weighted>
2.0946

> <Gold.Chemscore.Rot.Weighted>
4.0899

> <Gold.Chemscore.Internal.Correction.Weighted>
   9.000000E+99

> <Gold.Protein.RotatedTorsions>
[ 6907 6896 6895 6894 ] final  142.88 input  -60.11 | X-H torsion
[ 7974 7965 7964 7962 ] final  146.78 input  175.53 | X-H torsion
[ 8008 7997 7996 7995 ] final   64.44 input   59.86 | X-H torsion
[ 10167 10162 10161 10158 ] final -176.21 input  -65.29 | X-H torsion
[ 10718 10713 10712 10709 ] final  -36.53 input   66.30 | X-H torsion
[ 10763 10752 10751 10750 ] final  -29.45 input  -60.55 | X-H torsion
[ 11005 11000 10999 10996 ] final  136.08 input  -57.11 | X-H torsion

> <Gold.Protein.ActiveResidues>
 VAL166  LYS551  ARG553  GLY616  TRP617  ASP618  TYR619  PRO620  LYS621  CYS622 
 ASP623  PHE694  ASN695  SER759  ASP760  ASP761  ALA762  ILE779  LEU786  VAL792 
 PHE793  MET794  SER795  GLU796  ALA797  LYS798  CYS799  TRP800  GLU811  SER814 

> <Gold.Protein.RotatedAtoms>
  152.2133  133.4927  159.5121 H   0  0  0  0  0  0  0  0  0  0  0  0  # atno 6907 bound_to 6896
  150.6995  134.1439  159.4124 H   0  0  0  0  0  0  0  0  0  0  0  0  # atno 6908 bound_to 6896
  151.9358  135.0235  160.0583 H   0  0  0  0  0  0  0  0  0  0  0  0  # atno 6909 bound_to 6896
  144.8643  139.5948  143.5916 H   0  0  0  0  0  0  0  0  0  0  0  0  # atno 7974 bound_to 7965
  155.6460  140.3497  155.4731 H   0  0  0  0  0  0  0  0  0  0  0  0  # atno 8008 bound_to 7997
  155.9887  140.1189  157.0682 H   0  0  0  0  0  0  0  0  0  0  0  0  # atno 8009 bound_to 7997
  154.4212  140.1124  156.5521 H   0  0  0  0  0  0  0  0  0  0  0  0  # atno 8010 bound_to 7997
  139.5541  144.2033  152.1129 H   0  0  0  0  0  0  0  0  0  0  0  0  # atno 10167 bound_to 10162
  156.3258  130.4272  149.7918 H   0  0  0  0  0  0  0  0  0  0  0  0  # atno 10718 bound_to 10713
  153.7648  135.6916  153.4918 H   0  0  0  0  0  0  0  0  0  0  0  0  # atno 10763 bound_to 10752
  153.1914  135.4469  155.0153 H   0  0  0  0  0  0  0  0  0  0  0  0  # atno 10764 bound_to 10752
  154.8140  135.3390  154.7161 H   0  0  0  0  0  0  0  0  0  0  0  0  # atno 10765 bound_to 10752
  140.0022  134.9474  157.0098 H   0  0  0  0  0  0  0  0  0  0  0  0  # atno 11005 bound_to 11000
  146.2884  139.7069  142.9178 LP  0  0  0  0  0  0  0  0  0  0  0  0  # atno 17320 bound_to 7965
  145.4251  141.0410  143.2942 LP  0  0  0  0  0  0  0  0  0  0  0  0  # atno 17321 bound_to 7965
  140.1534  144.5093  150.6674 LP  0  0  0  0  0  0  0  0  0  0  0  0  # atno 17342 bound_to 10162
  140.6811  143.2327  151.5382 LP  0  0  0  0  0  0  0  0  0  0  0  0  # atno 17343 bound_to 10162
  156.5209  130.8214  151.3203 LP  0  0  0  0  0  0  0  0  0  0  0  0  # atno 17370 bound_to 10713
  157.7421  130.9883  150.2491 LP  0  0  0  0  0  0  0  0  0  0  0  0  # atno 17371 bound_to 10713
  140.4706  134.1390  155.7202 LP  0  0  0  0  0  0  0  0  0  0  0  0  # atno 17394 bound_to 11000
  141.1650  133.8719  157.1739 LP  0  0  0  0  0  0  0  0  0  0  0  0  # atno 17395 bound_to 11000

$$$$
