AV-unprocessed.smi:1413|AV-procd|sdf|5758|dock9
  -GOLD-   22720 5393D 1   1.00000     0.00000
 Structure written by MMmdl.
 53 55  0  0  0  0  0  0  0  0  1 V2000
  152.2363  144.6121  157.7094 C   0  0  0  0  0  0  0  0  0  0  0  0
  151.3821  143.7413  158.6480 C   0  0  1  0  0  0  0  0  0  0  0  0
  150.4383  142.7790  157.9003 C   0  0  0  0  0  0  0  0  0  0  0  0
  151.1761  141.6493  157.3421 N   0  0  0  0  0  0  0  0  0  0  0  0
  150.4789  140.8716  156.3925 C   0  0  0  0  0  0  0  0  0  0  0  0
  151.1779  139.9552  155.5724 C   0  0  0  0  0  0  0  0  0  0  0  0
  150.4625  139.1950  154.6283 C   0  0  0  0  0  0  0  0  0  0  0  0
  149.0691  139.3659  154.5171 C   0  0  0  0  0  0  0  0  0  0  0  0
  148.3766  138.5732  153.5611 N   0  0  0  0  0  0  0  0  0  0  0  0
  147.0570  138.5136  153.3130 C   0  0  0  0  0  0  0  0  0  0  0  0
  146.1923  139.1767  153.8849 O   0  0  0  0  0  0  0  0  0  0  0  0
  146.7896  137.6373  152.3345 N   0  0  0  0  0  0  0  0  0  0  0  0
  145.4623  137.3497  151.7958 C   0  0  2  0  0  0  0  0  0  0  0  0
  144.4556  137.2103  152.9511 C   0  0  0  0  0  0  0  0  0  0  0  0
  145.5331  136.0803  150.9251 C   0  0  1  0  0  0  0  0  0  0  0  0
  146.0834  134.8459  151.6420 C   0  0  0  0  0  0  0  0  0  0  0  0
  145.4818  133.7237  150.8285 C   0  0  0  0  0  0  0  0  0  0  0  0
  144.0936  134.2737  150.5178 C   0  0  0  0  0  0  0  0  0  0  0  0
  144.2269  135.6929  150.5002 O   0  0  0  0  0  0  0  0  0  0  0  0
  148.4522  140.2912  155.3925 C   0  0  0  0  0  0  0  0  0  0  0  0
  149.1349  141.0211  156.2999 N   0  0  0  0  0  0  0  0  0  0  0  0
  151.9994  140.9570  158.3301 C   0  0  0  0  0  0  0  0  0  0  0  0
  152.9409  141.9501  159.0345 C   0  0  2  0  0  0  0  0  0  0  0  0
  153.7256  141.2863  160.1710 C   0  0  0  0  0  0  0  0  0  0  0  0
  152.1786  143.0206  159.5910 O   0  0  0  0  0  0  0  0  0  0  0  0
  151.6026  145.2516  157.0946 H   0  0  0  0  0  0  0  0  0  0  0  0
  152.8453  144.0153  157.0308 H   0  0  0  0  0  0  0  0  0  0  0  0
  152.9040  145.2589  158.2788 H   0  0  0  0  0  0  0  0  0  0  0  0
  150.7637  144.4229  159.2324 H   0  0  0  0  0  0  0  0  0  0  0  0
  149.6932  142.3868  158.5939 H   0  0  0  0  0  0  0  0  0  0  0  0
  149.8910  143.3309  157.1376 H   0  0  0  0  0  0  0  0  0  0  0  0
  152.2447  139.8169  155.6655 H   0  0  0  0  0  0  0  0  0  0  0  0
  150.9827  138.4890  153.9975 H   0  0  0  0  0  0  0  0  0  0  0  0
  148.9635  138.0164  152.9574 H   0  0  0  0  0  0  0  0  0  0  0  0
  147.5631  137.1434  151.9145 H   0  0  0  0  0  0  0  0  0  0  0  0
  145.1494  138.1795  151.1593 H   0  0  0  0  0  0  0  0  0  0  0  0
  143.4444  137.0444  152.5794 H   0  0  0  0  0  0  0  0  0  0  0  0
  144.4286  138.1126  153.5630 H   0  0  0  0  0  0  0  0  0  0  0  0
  144.7125  136.3743  153.6025 H   0  0  0  0  0  0  0  0  0  0  0  0
  146.1289  136.2676  150.0298 H   0  0  0  0  0  0  0  0  0  0  0  0
  147.1731  134.8162  151.6661 H   0  0  0  0  0  0  0  0  0  0  0  0
  145.7161  134.7994  152.6683 H   0  0  0  0  0  0  0  0  0  0  0  0
  146.0474  133.5856  149.9062 H   0  0  0  0  0  0  0  0  0  0  0  0
  145.4556  132.7722  151.3603 H   0  0  0  0  0  0  0  0  0  0  0  0
  143.7023  133.8989  149.5720 H   0  0  0  0  0  0  0  0  0  0  0  0
  143.3900  134.0035  151.3058 H   0  0  0  0  0  0  0  0  0  0  0  0
  147.3864  140.4558  155.3992 H   0  0  0  0  0  0  0  0  0  0  0  0
  151.3502  140.4692  159.0587 H   0  0  0  0  0  0  0  0  0  0  0  0
  152.5931  140.1784  157.8490 H   0  0  0  0  0  0  0  0  0  0  0  0
  153.6590  142.3448  158.3158 H   0  0  0  0  0  0  0  0  0  0  0  0
  154.3383  140.4653  159.7978 H   0  0  0  0  0  0  0  0  0  0  0  0
  153.0555  140.8857  160.9320 H   0  0  0  0  0  0  0  0  0  0  0  0
  154.3896  142.0025  160.6557 H   0  0  0  0  0  0  0  0  0  0  0  0
  1  2  1  0  0  0  0
  1 26  1  0  0  0  0
  1 27  1  0  0  0  0
  1 28  1  0  0  0  0
  2 25  1  0  0  0  0
  2  3  1  0  0  0  0
  2 29  1  0  0  0  0
  3  4  1  0  0  0  0
  3 30  1  0  0  0  0
  3 31  1  0  0  0  0
  4  5  1  0  0  0  0
  4 22  1  0  0  0  0
  5 21  1  0  0  0  0
  5  6  2  0  0  0  0
  6  7  1  0  0  0  0
  6 32  1  0  0  0  0
  7  8  2  0  0  0  0
  7 33  1  0  0  0  0
  8  9  1  0  0  0  0
  8 20  1  0  0  0  0
  9 10  1  0  0  0  0
  9 34  1  0  0  0  0
 10 11  2  0  0  0  0
 10 12  1  0  0  0  0
 12 13  1  0  0  0  0
 12 35  1  0  0  0  0
 13 14  1  0  0  0  0
 13 15  1  0  0  0  0
 13 36  1  0  0  0  0
 14 37  1  0  0  0  0
 14 38  1  0  0  0  0
 14 39  1  0  0  0  0
 15 19  1  0  0  0  0
 15 16  1  0  0  0  0
 15 40  1  0  0  0  0
 16 17  1  0  0  0  0
 16 41  1  0  0  0  0
 16 42  1  0  0  0  0
 17 18  1  0  0  0  0
 17 43  1  0  0  0  0
 17 44  1  0  0  0  0
 18 19  1  0  0  0  0
 18 45  1  0  0  0  0
 18 46  1  0  0  0  0
 20 21  2  0  0  0  0
 20 47  1  0  0  0  0
 22 23  1  0  0  0  0
 22 48  1  0  0  0  0
 22 49  1  0  0  0  0
 23 24  1  0  0  0  0
 23 25  1  0  0  0  0
 23 50  1  0  0  0  0
 24 51  1  0  0  0  0
 24 52  1  0  0  0  0
 24 53  1  0  0  0  0
M  END
> <s_m_source_file>
AV-unprocessed.smi

> <i_m_source_file_index>
1413

> <i_lp_mmshare_version>
43012

> <i_f3d_flags>
0

> <s_epik_input>
W0NIM11bQ0BASF0xW0NIMl1OKFtDSDJdW0NASF0oTzEpW0NIM10pYzJbY0hdW2NIXWMoW2NIXW4yKVtOSF1DKD1PKVtOSF1bQ0BIXShbQ0gzXSlbQ0BASF0zW0NIMl1bQ0gyXVtDSDJdTzM=

> <s_epik_cmdline>
J2VwaWtfcHl0aG9uJywgJy1waCcsICc3LjAnLCAnLXRuJywgJzgnLCAnLW1hJywgJzIwMCcsICctbWV0YWxfYmluZGluZycsICctaW1hZScsICc8aW5maWxlLm1hZT4nLCAnLW9tYWUnLCAnPG91dGZpbGUubWFlPic=

> <r_lp_tautomer_probability>
1

> <r_epik_Ionization_Penalty>
0.00271172

> <r_epik_Ionization_Penalty_Charging>
0

> <r_epik_Ionization_Penalty_Neutral>
0.00271172

> <r_epik_State_Penalty>
0.00186503

> <r_epik_Charging_Adjusted_Penalty>
0.00186503

> <i_epik_Tot_Q>
0

> <i_epik_Tot_abs_Q>
0

> <r_epik_Metal_State_Penalty>
-0

> <b_epik_Metal_Only>
0

> <s_lp_Force_Field>
OPLS_2005

> <r_lp_Energy>
37.0266

> <b_lp_Chiralities_Consistent>
1

> <s_lp_Variant>
AV-unprocessed.smi:1413-11

> <Gold.Version>
5.8.1

> <Gold.Id.Protein>
6NUR|6NUR_protein|mol2

> <Gold.PLP.Fitness>
48.3125

> <Gold.PLP.PLP>
-43.2979

> <Gold.PLP.part.hbond>
-2.4618

> <Gold.PLP.part.metal>
0.0000

> <Gold.PLP.part.buried>
-6.5145

> <Gold.PLP.part.nonpolar>
-36.6571

> <Gold.PLP.part.repulsive>
0.5797

> <Gold.PLP.ligand.clash>
0.0000

> <Gold.PLP.ligand.torsion>
0.4100

> <Gold.PLP.Chemscore.Hbond>
1.8284

> <Gold.PLP.Chemscore.CHOScore>
0.0000

> <Gold.PLP.Chemscore.Metal>
0.0000

> <Gold.Chemscore.Hbonds>
donor molecule, donor type, donor heavy atom, donor atom, acceptor molecule, acceptor atom, score
      L1  H     9    34       P1  7948  0.77
      L1  H    12    35       P1  7948  1.00

> <Gold.PLP.Chemscore.Internal.Correction>
0.3495

> <Gold.Rescore>
     Score         DG    S(hbond)    S(metal)    S(lipo)     H(rot)  DE(clash)    DE(int)     intcor
     18.76     -21.75       1.85        0.00     115.66       1.35       0.13       2.86       ----

> <Gold.Chemscore.Fitness>
18.7572

> <Gold.Chemscore.DG>
-21.7488

> <Gold.Chemscore.ZeroCoef>
-5.4800

> <Gold.Chemscore.Hbond>
1.8520

> <Gold.Chemscore.Metal>
0.0000

> <Gold.Chemscore.Lipo>
115.6562

> <Gold.Chemscore.Internal_Hbond>
0.0000

> <Gold.Chemscore.DEClash>
0.1321

> <Gold.Chemscore.DEInternal>
2.8595

> <Gold.Chemscore.Rot>
1.3471

> <Gold.Chemscore.Internal.Correction>
   9.000000E+99

> <Gold.Chemscore.Hbonds>
donor molecule, donor type, donor heavy atom, donor atom, acceptor molecule, acceptor atom, score
      L1  H     9    34       P1  7948  0.74
      L1  H    12    35       P1  7948  0.99

> <Gold.Chemscore.Hbond.Weighted>
-6.1855

> <Gold.Chemscore.Metal.Weighted>
-0.0000

> <Gold.Chemscore.Lipo.Weighted>
-13.5318

> <Gold.Chemscore.Internal_Hbond.Weighted>
0.0000

> <Gold.Chemscore.DEClash.Weighted>
0.1321

> <Gold.Chemscore.DEInternal.Weighted>
2.8595

> <Gold.Chemscore.Rot.Weighted>
3.4485

> <Gold.Chemscore.Internal.Correction.Weighted>
   9.000000E+99

> <Gold.Protein.RotatedTorsions>
[ 6907 6896 6895 6894 ] final  112.66 input  -60.11 | X-H torsion
[ 7974 7965 7964 7962 ] final   27.06 input  175.53 | X-H torsion
[ 8008 7997 7996 7995 ] final  120.16 input   59.86 | X-H torsion
[ 10167 10162 10161 10158 ] final   95.99 input  -65.29 | X-H torsion
[ 10718 10713 10712 10709 ] final -122.74 input   66.30 | X-H torsion
[ 10763 10752 10751 10750 ] final  163.47 input  -60.55 | X-H torsion
[ 11005 11000 10999 10996 ] final  104.54 input  -57.11 | X-H torsion

> <Gold.Protein.ActiveResidues>
 VAL166  LYS551  ARG553  GLY616  TRP617  ASP618  TYR619  PRO620  LYS621  CYS622 
 ASP623  PHE694  ASN695  SER759  ASP760  ASP761  ALA762  ILE779  LEU786  VAL792 
 PHE793  MET794  SER795  GLU796  ALA797  LYS798  CYS799  TRP800  GLU811  SER814 

> <Gold.Protein.RotatedAtoms>
  152.4904  133.8485  159.7188 H   0  0  0  0  0  0  0  0  0  0  0  0  # atno 6907 bound_to 6896
  150.9028  133.7087  159.2881 H   0  0  0  0  0  0  0  0  0  0  0  0  # atno 6908 bound_to 6896
  151.4522  135.1035  159.9753 H   0  0  0  0  0  0  0  0  0  0  0  0  # atno 6909 bound_to 6896
  146.1804  139.7243  142.8904 H   0  0  0  0  0  0  0  0  0  0  0  0  # atno 7974 bound_to 7965
  156.2629  140.2837  156.1105 H   0  0  0  0  0  0  0  0  0  0  0  0  # atno 8008 bound_to 7997
  155.1262  140.0393  157.2780 H   0  0  0  0  0  0  0  0  0  0  0  0  # atno 8009 bound_to 7997
  154.6633  140.2571  155.7091 H   0  0  0  0  0  0  0  0  0  0  0  0  # atno 8010 bound_to 7997
  139.7936  144.6842  150.9859 H   0  0  0  0  0  0  0  0  0  0  0  0  # atno 10167 bound_to 10162
  156.1443  130.6489  150.9819 H   0  0  0  0  0  0  0  0  0  0  0  0  # atno 10718 bound_to 10713
  154.2941  135.2760  155.2641 H   0  0  0  0  0  0  0  0  0  0  0  0  # atno 10763 bound_to 10752
  154.5107  135.5783  153.6606 H   0  0  0  0  0  0  0  0  0  0  0  0  # atno 10764 bound_to 10752
  152.9910  135.6180  154.3108 H   0  0  0  0  0  0  0  0  0  0  0  0  # atno 10765 bound_to 10752
  139.8793  134.9304  156.5377 H   0  0  0  0  0  0  0  0  0  0  0  0  # atno 11005 bound_to 11000
  145.4091  141.0394  143.3027 LP  0  0  0  0  0  0  0  0  0  0  0  0  # atno 17320 bound_to 7965
  144.8306  139.5635  143.6945 LP  0  0  0  0  0  0  0  0  0  0  0  0  # atno 17321 bound_to 7965
  140.7820  143.4355  151.0630 LP  0  0  0  0  0  0  0  0  0  0  0  0  # atno 17342 bound_to 10162
  139.8030  143.8057  152.3164 LP  0  0  0  0  0  0  0  0  0  0  0  0  # atno 17343 bound_to 10162
  157.6603  131.0882  150.7853 LP  0  0  0  0  0  0  0  0  0  0  0  0  # atno 17370 bound_to 10713
  156.7926  130.4895  149.5382 LP  0  0  0  0  0  0  0  0  0  0  0  0  # atno 17371 bound_to 10713
  140.8334  133.8261  155.9005 LP  0  0  0  0  0  0  0  0  0  0  0  0  # atno 17394 bound_to 11000
  140.9307  134.2025  157.4866 LP  0  0  0  0  0  0  0  0  0  0  0  0  # atno 17395 bound_to 11000

$$$$
