AV-unprocessed.smi:432|AV-procd|sdf|2549|dock1
  -GOLD-   2262022513D 1   1.00000     0.00000
 Structure written by MMmdl.
 31 32  0  0  0  0  0  0  0  0  1 V2000
  151.7460  140.0380  155.1370 O   0  0  0  0  0  0  0  0  0  0  0  0
  150.8044  139.8954  155.9186 C   0  0  0  0  0  0  0  0  0  0  0  0
  151.0458  139.7396  157.4278 C   0  0  0  0  0  0  0  0  0  0  0  0
  151.2227  141.0185  158.1328 N   0  0  0  0  0  0  0  0  0  0  0  0
  150.4913  142.0635  157.5959 N   0  0  0  0  0  0  0  0  0  0  0  0
  150.5585  143.2297  158.1393 C   0  0  0  0  0  0  0  0  0  0  0  0
  151.3792  143.4926  159.3008 C   0  0  0  0  0  0  0  0  0  0  0  0
  151.4268  145.0779  159.9878 Cl  0  0  0  0  0  0  0  0  0  0  0  0
  152.0971  142.4629  159.8155 C   0  0  0  0  0  0  0  0  0  0  0  0
  153.1024  142.7000  161.2040 Cl  0  0  0  0  0  0  0  0  0  0  0  0
  152.0486  141.1205  159.2197 C   0  0  0  0  0  0  0  0  0  0  0  0
  152.6901  140.1620  159.6528 O   0  0  0  0  0  0  0  0  0  0  0  0
  149.5226  139.8552  155.5248 N   0  0  0  0  0  0  0  0  0  0  0  0
  149.0605  139.9998  154.1467 C   0  0  0  0  0  0  0  0  0  0  0  0
  148.1894  141.2607  153.9791 C   0  0  0  0  0  0  0  0  0  0  0  0
  146.7566  140.7601  153.7942 C   0  0  0  0  0  0  0  0  0  0  0  0
  146.9202  139.4117  153.1006 C   0  0  0  0  0  0  0  0  0  0  0  0
  148.1734  138.8082  153.7372 C   0  0  0  0  0  0  0  0  0  0  0  0
  150.2163  139.1853  157.8712 H   0  0  0  0  0  0  0  0  0  0  0  0
  151.9251  139.1076  157.5646 H   0  0  0  0  0  0  0  0  0  0  0  0
  149.9998  144.0819  157.7520 H   0  0  0  0  0  0  0  0  0  0  0  0
  148.8128  139.7302  156.2320 H   0  0  0  0  0  0  0  0  0  0  0  0
  149.9176  140.0593  153.4733 H   0  0  0  0  0  0  0  0  0  0  0  0
  148.2728  141.9615  154.8113 H   0  0  0  0  0  0  0  0  0  0  0  0
  148.5016  141.7948  153.0808 H   0  0  0  0  0  0  0  0  0  0  0  0
  146.2878  140.6172  154.7689 H   0  0  0  0  0  0  0  0  0  0  0  0
  146.1388  141.4549  153.2246 H   0  0  0  0  0  0  0  0  0  0  0  0
  146.0439  138.7724  153.2107 H   0  0  0  0  0  0  0  0  0  0  0  0
  147.0881  139.5668  152.0340 H   0  0  0  0  0  0  0  0  0  0  0  0
  148.6871  138.1282  153.0569 H   0  0  0  0  0  0  0  0  0  0  0  0
  147.8809  138.2259  154.6125 H   0  0  0  0  0  0  0  0  0  0  0  0
  1  2  2  0  0  0  0
  2  3  1  0  0  0  0
  2 13  1  0  0  0  0
  3  4  1  0  0  0  0
  3 19  1  0  0  0  0
  3 20  1  0  0  0  0
  4 11  1  0  0  0  0
  4  5  1  0  0  0  0
  5  6  2  0  0  0  0
  6  7  1  0  0  0  0
  6 21  1  0  0  0  0
  7  8  1  0  0  0  0
  7  9  2  0  0  0  0
  9 10  1  0  0  0  0
  9 11  1  0  0  0  0
 11 12  2  0  0  0  0
 13 14  1  0  0  0  0
 13 22  1  0  0  0  0
 14 18  1  0  0  0  0
 14 15  1  0  0  0  0
 14 23  1  0  0  0  0
 15 16  1  0  0  0  0
 15 24  1  0  0  0  0
 15 25  1  0  0  0  0
 16 17  1  0  0  0  0
 16 26  1  0  0  0  0
 16 27  1  0  0  0  0
 17 18  1  0  0  0  0
 17 28  1  0  0  0  0
 17 29  1  0  0  0  0
 18 30  1  0  0  0  0
 18 31  1  0  0  0  0
M  END
> <s_m_source_file>
AV-unprocessed.smi

> <i_m_source_file_index>
432

> <i_lp_mmshare_version>
43012

> <i_f3d_flags>
0

> <s_epik_input>
W0NIMl0xW0NIMl1bQ0gyXVtDSDJdW0NIXTFbTkhdQyg9TylbQ0gyXW4ybltjSF1jKENsKWMoQ2wpYzI9Tw==

> <s_epik_cmdline>
J2VwaWtfcHl0aG9uJywgJy1waCcsICc3LjAnLCAnLXRuJywgJzgnLCAnLW1hJywgJzIwMCcsICctbWV0YWxfYmluZGluZycsICctaW1hZScsICc8aW5maWxlLm1hZT4nLCAnLW9tYWUnLCAnPG91dGZpbGUubWFlPic=

> <r_lp_tautomer_probability>
1

> <r_epik_Ionization_Penalty>
1.93318e-08

> <r_epik_Ionization_Penalty_Charging>
3.01013e-11

> <r_epik_Ionization_Penalty_Neutral>
1.93017e-08

> <r_epik_State_Penalty>
-0

> <r_epik_Charging_Adjusted_Penalty>
3.01013e-11

> <i_epik_Tot_Q>
0

> <i_epik_Tot_abs_Q>
0

> <r_epik_Metal_State_Penalty>
-0

> <b_epik_Metal_Only>
0

> <s_lp_Force_Field>
OPLS_2005

> <r_lp_Energy>
31.6968

> <b_lp_Chiralities_Consistent>
1

> <s_lp_Variant>
AV-unprocessed.smi:432-1

> <Gold.Version>
5.8.1

> <Gold.Id.Protein>
6NUR|6NUR_protein|mol2

> <Gold.PLP.Fitness>
41.3757

> <Gold.PLP.PLP>
-36.8720

> <Gold.PLP.part.hbond>
-1.0000

> <Gold.PLP.part.metal>
0.0000

> <Gold.PLP.part.buried>
-3.7212

> <Gold.PLP.part.nonpolar>
-32.7429

> <Gold.PLP.part.repulsive>
0.1686

> <Gold.PLP.ligand.clash>
0.0000

> <Gold.PLP.ligand.torsion>
0.7139

> <Gold.PLP.Chemscore.Hbond>
0.9760

> <Gold.PLP.Chemscore.CHOScore>
1.0000

> <Gold.PLP.Chemscore.Metal>
0.0000

> <Gold.Chemscore.Hbonds>
donor molecule, donor type, donor heavy atom, donor atom, acceptor molecule, acceptor atom, score
      P1  H  7989  7998       L1     1  0.96
      L1  C     6    21       P1  8028  1.00
      L1  C     6    21       P1  8029  0.05

> <Gold.PLP.Chemscore.Internal.Correction>
0.0035

> <Gold.Rescore>
     Score         DG    S(hbond)    S(metal)    S(lipo)     H(rot)  DE(clash)    DE(int)     intcor
     15.03     -15.82       0.97        0.00      94.26       1.53       0.12       0.67       ----

> <Gold.Chemscore.Fitness>
15.0272

> <Gold.Chemscore.DG>
-15.8228

> <Gold.Chemscore.ZeroCoef>
-5.4800

> <Gold.Chemscore.Hbond>
0.9678

> <Gold.Chemscore.Metal>
0.0000

> <Gold.Chemscore.Lipo>
94.2575

> <Gold.Chemscore.Internal_Hbond>
0.0000

> <Gold.Chemscore.DEClash>
0.1233

> <Gold.Chemscore.DEInternal>
0.6723

> <Gold.Chemscore.Rot>
1.5303

> <Gold.Chemscore.Internal.Correction>
   9.000000E+99

> <Gold.Chemscore.Hbonds>
donor molecule, donor type, donor heavy atom, donor atom, acceptor molecule, acceptor atom, score
      P1  H  7989  7998       L1     1  0.92

> <Gold.Chemscore.Hbond.Weighted>
-3.2323

> <Gold.Chemscore.Metal.Weighted>
-0.0000

> <Gold.Chemscore.Lipo.Weighted>
-11.0281

> <Gold.Chemscore.Internal_Hbond.Weighted>
0.0000

> <Gold.Chemscore.DEClash.Weighted>
0.1233

> <Gold.Chemscore.DEInternal.Weighted>
0.6723

> <Gold.Chemscore.Rot.Weighted>
3.9176

> <Gold.Chemscore.Internal.Correction.Weighted>
   9.000000E+99

> <Gold.Protein.RotatedTorsions>
[ 6907 6896 6895 6894 ] final   38.33 input  -60.11 | X-H torsion
[ 7974 7965 7964 7962 ] final   85.83 input  175.53 | X-H torsion
[ 8008 7997 7996 7995 ] final  130.32 input   59.86 | X-H torsion
[ 10167 10162 10161 10158 ] final -109.07 input  -65.29 | X-H torsion
[ 10718 10713 10712 10709 ] final   48.68 input   66.30 | X-H torsion
[ 10763 10752 10751 10750 ] final   21.16 input  -60.55 | X-H torsion
[ 11005 11000 10999 10996 ] final  123.91 input  -57.11 | X-H torsion

> <Gold.Protein.ActiveResidues>
 VAL166  LYS551  ARG553  GLY616  TRP617  ASP618  TYR619  PRO620  LYS621  CYS622 
 ASP623  PHE694  ASN695  SER759  ASP760  ASP761  ALA762  ILE779  LEU786  VAL792 
 PHE793  MET794  SER795  GLU796  ALA797  LYS798  CYS799  TRP800  GLU811  SER814 

> <Gold.Protein.RotatedAtoms>
  152.1550  134.8958  160.0545 H   0  0  0  0  0  0  0  0  0  0  0  0  # atno 6907 bound_to 6896
  151.9976  133.3808  159.4177 H   0  0  0  0  0  0  0  0  0  0  0  0  # atno 6908 bound_to 6896
  150.6880  134.3791  159.5070 H   0  0  0  0  0  0  0  0  0  0  0  0  # atno 6909 bound_to 6896
  145.5803  139.2324  143.2357 H   0  0  0  0  0  0  0  0  0  0  0  0  # atno 7974 bound_to 7965
  156.2952  140.2599  156.2743 H   0  0  0  0  0  0  0  0  0  0  0  0  # atno 8008 bound_to 7997
  154.9664  140.0391  157.2232 H   0  0  0  0  0  0  0  0  0  0  0  0  # atno 8009 bound_to 7997
  154.7899  140.2810  155.6004 H   0  0  0  0  0  0  0  0  0  0  0  0  # atno 8010 bound_to 7997
  140.1592  143.4134  152.1438 H   0  0  0  0  0  0  0  0  0  0  0  0  # atno 10167 bound_to 10162
  157.4711  130.8256  149.7989 H   0  0  0  0  0  0  0  0  0  0  0  0  # atno 10718 bound_to 10713
  153.1018  135.6674  153.9660 H   0  0  0  0  0  0  0  0  0  0  0  0  # atno 10763 bound_to 10752
  153.9228  135.3012  155.3448 H   0  0  0  0  0  0  0  0  0  0  0  0  # atno 10764 bound_to 10752
  154.7438  135.5067  153.9244 H   0  0  0  0  0  0  0  0  0  0  0  0  # atno 10765 bound_to 10752
  139.9334  134.9640  156.8331 H   0  0  0  0  0  0  0  0  0  0  0  0  # atno 11005 bound_to 11000
  146.1721  140.6629  142.9228 LP  0  0  0  0  0  0  0  0  0  0  0  0  # atno 17320 bound_to 7965
  144.7397  140.4908  143.6878 LP  0  0  0  0  0  0  0  0  0  0  0  0  # atno 17321 bound_to 7965
  139.5389  144.7237  151.4800 LP  0  0  0  0  0  0  0  0  0  0  0  0  # atno 17342 bound_to 10162
  140.6653  143.8410  150.6935 LP  0  0  0  0  0  0  0  0  0  0  0  0  # atno 17343 bound_to 10162
  156.0074  130.3849  150.2383 LP  0  0  0  0  0  0  0  0  0  0  0  0  # atno 17370 bound_to 10713
  157.0565  131.0078  151.3236 LP  0  0  0  0  0  0  0  0  0  0  0  0  # atno 17371 bound_to 10713
  140.6140  134.0056  155.7589 LP  0  0  0  0  0  0  0  0  0  0  0  0  # atno 17394 bound_to 11000
  141.0936  133.9879  157.3197 LP  0  0  0  0  0  0  0  0  0  0  0  0  # atno 17395 bound_to 11000

$$$$
