AV-unprocessed.smi:1697|AV-procd|sdf|6811|dock4
  -GOLD-   22720 7583D 1   1.00000     0.00000
 Structure written by MMmdl.
 53 55  0  0  0  0  0  0  0  0  1 V2000
  149.6620  132.5393  154.7383 C   0  0  0  0  0  0  0  0  0  0  0  0
  150.3705  133.5853  155.6019 C   0  0  0  0  0  0  0  0  0  0  0  0
  149.4211  134.5587  156.0113 O   0  0  0  0  0  0  0  0  0  0  0  0
  149.4386  135.7574  155.2458 C   0  0  0  0  0  0  0  0  0  0  0  0
  150.7834  136.4978  155.3795 C   0  0  0  0  0  0  0  0  0  0  0  0
  150.7101  137.8743  154.6971 C   0  0  0  0  0  0  0  0  0  0  0  0
  149.6368  138.7153  155.2284 N   0  0  0  0  0  0  0  0  0  0  0  0
  149.6571  140.0355  154.5946 C   0  0  0  0  0  0  0  0  0  0  0  0
  149.2937  141.2208  155.5107 C   0  0  2  0  0  0  0  0  0  0  0  0
  148.3798  142.0444  154.8150 O   0  0  0  0  0  0  0  0  0  0  0  0
  150.5214  142.0598  155.9170 C   0  0  0  0  0  0  0  0  0  0  0  0
  151.2978  141.4214  156.9638 N   0  0  0  0  0  0  0  0  0  0  0  0
  151.8924  140.2136  156.9223 C   0  0  0  0  0  0  0  0  0  0  0  0
  152.5634  139.8292  158.0046 N   0  0  0  0  0  0  0  0  0  0  0  0
  152.3779  140.9119  158.8478 C   0  0  0  0  0  0  0  0  0  0  0  0
  152.8369  141.1405  160.1636 C   0  0  0  0  0  0  0  0  0  0  0  0
  152.5199  142.3382  160.8438 C   0  0  0  0  0  0  0  0  0  0  0  0
  153.0334  142.5420  162.2582 C   0  0  0  0  0  0  0  0  0  0  0  0
  151.7305  143.3299  160.2072 C   0  0  0  0  0  0  0  0  0  0  0  0
  151.3730  144.6224  160.9195 C   0  0  0  0  0  0  0  0  0  0  0  0
  151.2669  143.1190  158.8920 C   0  0  0  0  0  0  0  0  0  0  0  0
  151.5890  141.9234  158.2265 C   0  0  0  0  0  0  0  0  0  0  0  0
  148.3487  138.0340  155.0643 C   0  0  0  0  0  0  0  0  0  0  0  0
  148.3116  136.6647  155.7630 C   0  0  0  0  0  0  0  0  0  0  0  0
  150.3625  131.7763  154.3989 H   0  0  0  0  0  0  0  0  0  0  0  0
  149.2137  132.9979  153.8566 H   0  0  0  0  0  0  0  0  0  0  0  0
  148.8696  132.0413  155.2978 H   0  0  0  0  0  0  0  0  0  0  0  0
  150.8249  133.0993  156.4649 H   0  0  0  0  0  0  0  0  0  0  0  0
  151.1699  134.0558  155.0279 H   0  0  0  0  0  0  0  0  0  0  0  0
  149.2423  135.5317  154.1959 H   0  0  0  0  0  0  0  0  0  0  0  0
  151.0318  136.6255  156.4340 H   0  0  0  0  0  0  0  0  0  0  0  0
  151.5917  135.9176  154.9356 H   0  0  0  0  0  0  0  0  0  0  0  0
  151.6685  138.3787  154.8256 H   0  0  0  0  0  0  0  0  0  0  0  0
  150.5760  137.7392  153.6228 H   0  0  0  0  0  0  0  0  0  0  0  0
  150.6543  140.2205  154.1924 H   0  0  0  0  0  0  0  0  0  0  0  0
  148.9870  140.0284  153.7333 H   0  0  0  0  0  0  0  0  0  0  0  0
  148.7762  140.8665  156.4016 H   0  0  0  0  0  0  0  0  0  0  0  0
  148.7363  142.9189  154.7763 H   0  0  0  0  0  0  0  0  0  0  0  0
  151.1786  142.2114  155.0598 H   0  0  0  0  0  0  0  0  0  0  0  0
  150.2177  143.0517  156.2553 H   0  0  0  0  0  0  0  0  0  0  0  0
  151.8337  139.5835  156.0465 H   0  0  0  0  0  0  0  0  0  0  0  0
  153.4370  140.3846  160.6483 H   0  0  0  0  0  0  0  0  0  0  0  0
  152.2009  142.6086  162.9587 H   0  0  0  0  0  0  0  0  0  0  0  0
  153.6184  143.4594  162.3260 H   0  0  0  0  0  0  0  0  0  0  0  0
  153.6711  141.7158  162.5736 H   0  0  0  0  0  0  0  0  0  0  0  0
  150.7132  145.2419  160.3113 H   0  0  0  0  0  0  0  0  0  0  0  0
  152.2720  145.2003  161.1344 H   0  0  0  0  0  0  0  0  0  0  0  0
  150.8613  144.4135  161.8592 H   0  0  0  0  0  0  0  0  0  0  0  0
  150.6672  143.8661  158.3933 H   0  0  0  0  0  0  0  0  0  0  0  0
  147.5450  138.6398  155.4799 H   0  0  0  0  0  0  0  0  0  0  0  0
  148.1269  137.9094  154.0033 H   0  0  0  0  0  0  0  0  0  0  0  0
  147.3438  136.1891  155.6016 H   0  0  0  0  0  0  0  0  0  0  0  0
  148.4133  136.8046  156.8401 H   0  0  0  0  0  0  0  0  0  0  0  0
  1  2  1  0  0  0  0
  1 25  1  0  0  0  0
  1 26  1  0  0  0  0
  1 27  1  0  0  0  0
  2  3  1  0  0  0  0
  2 28  1  0  0  0  0
  2 29  1  0  0  0  0
  3  4  1  0  0  0  0
  4 24  1  0  0  0  0
  4  5  1  0  0  0  0
  4 30  1  0  0  0  0
  5  6  1  0  0  0  0
  5 31  1  0  0  0  0
  5 32  1  0  0  0  0
  6  7  1  0  0  0  0
  6 33  1  0  0  0  0
  6 34  1  0  0  0  0
  7  8  1  0  0  0  0
  7 23  1  0  0  0  0
  8  9  1  0  0  0  0
  8 35  1  0  0  0  0
  8 36  1  0  0  0  0
  9 10  1  0  0  0  0
  9 11  1  0  0  0  0
  9 37  1  0  0  0  0
 10 38  1  0  0  0  0
 11 12  1  0  0  0  0
 11 39  1  0  0  0  0
 11 40  1  0  0  0  0
 12 22  1  0  0  0  0
 12 13  1  0  0  0  0
 13 14  2  0  0  0  0
 13 41  1  0  0  0  0
 14 15  1  0  0  0  0
 15 22  2  0  0  0  0
 15 16  1  0  0  0  0
 16 17  2  0  0  0  0
 16 42  1  0  0  0  0
 17 18  1  0  0  0  0
 17 19  1  0  0  0  0
 18 43  1  0  0  0  0
 18 44  1  0  0  0  0
 18 45  1  0  0  0  0
 19 20  1  0  0  0  0
 19 21  2  0  0  0  0
 20 46  1  0  0  0  0
 20 47  1  0  0  0  0
 20 48  1  0  0  0  0
 21 22  1  0  0  0  0
 21 49  1  0  0  0  0
 23 24  1  0  0  0  0
 23 50  1  0  0  0  0
 23 51  1  0  0  0  0
 24 52  1  0  0  0  0
 24 53  1  0  0  0  0
M  END
> <s_m_source_file>
AV-unprocessed.smi

> <i_m_source_file_index>
1697

> <i_lp_mmshare_version>
43012

> <i_f3d_flags>
0

> <s_epik_input>
W0NIM11bQ0gyXU9bQ0hdMVtDSDJdW0NIMl1OKFtDSDJdW0NIMl0xKVtDSDJdW0NASF0oW09IXSlbQ0gyXW4oW2NIXW4yKWMoYzIzKVtjSF1jKFtDSDNdKWMoW2NIXTMpW0NIM10=

> <s_epik_cmdline>
J2VwaWtfcHl0aG9uJywgJy1waCcsICc3LjAnLCAnLXRuJywgJzgnLCAnLW1hJywgJzIwMCcsICctbWV0YWxfYmluZGluZycsICctaW1hZScsICc8aW5maWxlLm1hZT4nLCAnLW9tYWUnLCAnPG91dGZpbGUubWFlPic=

> <r_epik_Ionization_Penalty>
1.9836

> <r_epik_Ionization_Penalty_Charging>
0

> <r_epik_Ionization_Penalty_Neutral>
1.9836

> <r_epik_State_Penalty>
2.07269

> <r_epik_Charging_Adjusted_Penalty>
2.07269

> <i_epik_Tot_Q>
0

> <i_epik_Tot_abs_Q>
0

> <r_epik_Metal_State_Penalty>
2.00215

> <b_epik_Metal_Only>
0

> <s_lp_Force_Field>
OPLS_2005

> <r_lp_Energy>
30.2153

> <b_lp_Chiralities_Consistent>
1

> <s_lp_Variant>
AV-unprocessed.smi:1697-9

> <Gold.Version>
5.8.1

> <Gold.Id.Protein>
6NUR|6NUR_protein|mol2

> <Gold.PLP.Fitness>
50.1274

> <Gold.PLP.PLP>
-47.1294

> <Gold.PLP.part.hbond>
-2.0000

> <Gold.PLP.part.metal>
0.0000

> <Gold.PLP.part.buried>
-5.7685

> <Gold.PLP.part.nonpolar>
-39.1505

> <Gold.PLP.part.repulsive>
0.1369

> <Gold.PLP.ligand.clash>
0.0000

> <Gold.PLP.ligand.torsion>
1.5555

> <Gold.PLP.Chemscore.Hbond>
2.0000

> <Gold.PLP.Chemscore.CHOScore>
0.0000

> <Gold.PLP.Chemscore.Metal>
0.0000

> <Gold.Chemscore.Hbonds>
donor molecule, donor type, donor heavy atom, donor atom, acceptor molecule, acceptor atom, score
      L1  H    10    38       P1  8028  0.94
      P1  H  7997  8010       L1    14  0.30

> <Gold.PLP.Chemscore.Internal.Correction>
0.1090

> <Gold.Rescore>
     Score         DG    S(hbond)    S(metal)    S(lipo)     H(rot)  DE(clash)    DE(int)     intcor
     17.37     -19.55       1.29        0.00     131.53       2.19       0.18       2.00       ----

> <Gold.Chemscore.Fitness>
17.3650

> <Gold.Chemscore.DG>
-19.5480

> <Gold.Chemscore.ZeroCoef>
-5.4800

> <Gold.Chemscore.Hbond>
1.2865

> <Gold.Chemscore.Metal>
0.0000

> <Gold.Chemscore.Lipo>
131.5264

> <Gold.Chemscore.Internal_Hbond>
0.0000

> <Gold.Chemscore.DEClash>
0.1792

> <Gold.Chemscore.DEInternal>
2.0038

> <Gold.Chemscore.Rot>
2.1943

> <Gold.Chemscore.Internal.Correction>
   9.000000E+99

> <Gold.Chemscore.Hbonds>
donor molecule, donor type, donor heavy atom, donor atom, acceptor molecule, acceptor atom, score
      L1  H    10    38       P1  8028  0.89
      P1  H  7997  8010       L1    14  0.02

> <Gold.Chemscore.Hbond.Weighted>
-4.2968

> <Gold.Chemscore.Metal.Weighted>
-0.0000

> <Gold.Chemscore.Lipo.Weighted>
-15.3886

> <Gold.Chemscore.Internal_Hbond.Weighted>
0.0000

> <Gold.Chemscore.DEClash.Weighted>
0.1792

> <Gold.Chemscore.DEInternal.Weighted>
2.0038

> <Gold.Chemscore.Rot.Weighted>
5.6174

> <Gold.Chemscore.Internal.Correction.Weighted>
   9.000000E+99

> <Gold.Protein.RotatedTorsions>
[ 6907 6896 6895 6894 ] final  -98.71 input  -60.11 | X-H torsion
[ 7974 7965 7964 7962 ] final   65.47 input  175.53 | X-H torsion
[ 8008 7997 7996 7995 ] final   36.88 input   59.86 | X-H torsion
[ 10167 10162 10161 10158 ] final  119.49 input  -65.29 | X-H torsion
[ 10718 10713 10712 10709 ] final  175.93 input   66.30 | X-H torsion
[ 10763 10752 10751 10750 ] final   37.86 input  -60.55 | X-H torsion
[ 11005 11000 10999 10996 ] final   12.84 input  -57.11 | X-H torsion

> <Gold.Protein.ActiveResidues>
 VAL166  LYS551  ARG553  GLY616  TRP617  ASP618  TYR619  PRO620  LYS621  CYS622 
 ASP623  PHE694  ASN695  SER759  ASP760  ASP761  ALA762  ILE779  LEU786  VAL792 
 PHE793  MET794  SER795  GLU796  ALA797  LYS798  CYS799  TRP800  GLU811  SER814 

> <Gold.Protein.RotatedAtoms>
  150.7056  134.1152  159.4014 H   0  0  0  0  0  0  0  0  0  0  0  0  # atno 6907 bound_to 6896
  151.9139  135.0325  160.0526 H   0  0  0  0  0  0  0  0  0  0  0  0  # atno 6908 bound_to 6896
  152.2313  133.5025  159.5254 H   0  0  0  0  0  0  0  0  0  0  0  0  # atno 6909 bound_to 6896
  145.8381  139.3179  143.0948 H   0  0  0  0  0  0  0  0  0  0  0  0  # atno 7974 bound_to 7965
  155.1946  140.3311  155.4353 H   0  0  0  0  0  0  0  0  0  0  0  0  # atno 8008 bound_to 7997
  156.2429  140.1904  156.6987 H   0  0  0  0  0  0  0  0  0  0  0  0  # atno 8009 bound_to 7997
  154.6182  140.0599  156.9568 H   0  0  0  0  0  0  0  0  0  0  0  0  # atno 8010 bound_to 7997
  139.6043  144.7065  151.2990 H   0  0  0  0  0  0  0  0  0  0  0  0  # atno 10167 bound_to 10162
  156.9277  130.9961  151.2993 H   0  0  0  0  0  0  0  0  0  0  0  0  # atno 10718 bound_to 10713
  153.0022  135.6266  154.2213 H   0  0  0  0  0  0  0  0  0  0  0  0  # atno 10763 bound_to 10752
  154.1956  135.2806  155.3009 H   0  0  0  0  0  0  0  0  0  0  0  0  # atno 10764 bound_to 10752
  154.5725  135.5672  153.7167 H   0  0  0  0  0  0  0  0  0  0  0  0  # atno 10765 bound_to 10752
  140.4874  134.0874  155.7764 H   0  0  0  0  0  0  0  0  0  0  0  0  # atno 11005 bound_to 11000
  145.9496  140.8919  143.0266 LP  0  0  0  0  0  0  0  0  0  0  0  0  # atno 17320 bound_to 7965
  144.6735  140.1661  143.7418 LP  0  0  0  0  0  0  0  0  0  0  0  0  # atno 17321 bound_to 7965
  140.7273  143.6967  150.7878 LP  0  0  0  0  0  0  0  0  0  0  0  0  # atno 17342 bound_to 10162
  140.0549  143.5212  152.2656 LP  0  0  0  0  0  0  0  0  0  0  0  0  # atno 17343 bound_to 10162
  157.5867  130.8415  149.8600 LP  0  0  0  0  0  0  0  0  0  0  0  0  # atno 17370 bound_to 10713
  156.0462  130.3727  150.1313 LP  0  0  0  0  0  0  0  0  0  0  0  0  # atno 17371 bound_to 10713
  141.1501  133.8984  157.2119 LP  0  0  0  0  0  0  0  0  0  0  0  0  # atno 17394 bound_to 11000
  139.9790  135.0104  156.9702 LP  0  0  0  0  0  0  0  0  0  0  0  0  # atno 17395 bound_to 11000

$$$$
