AV-unprocessed.smi:51|AV-procd|sdf|503|dock3
  -GOLD-   2262016373D 1   1.00000     0.00000
 Structure written by MMmdl.
 26 27  0  0  0  0  0  0  0  0  3 V2000
  151.0095  139.8124  154.6725 O   0  0  0  0  0  0  0  0  0  0  0  0
  151.4438  140.3783  155.6988 C   0  0  0  0  0  0  0  0  0  0  0  0
  152.3825  139.9627  156.4138 O   0  5  0  0  0  0  0  0  0  0  0  0
  150.7448  141.6819  156.1150 C   0  0  2  0  0  0  0  0  0  0  0  0
  151.4432  142.3704  157.3020 C   0  0  0  0  0  0  0  0  0  0  0  0
  150.6370  141.9122  158.5199 C   0  0  1  0  0  0  0  0  0  0  0  0
  150.7316  142.8133  159.6025 O   0  0  0  0  0  0  0  0  0  0  0  0
  149.2127  141.8056  157.9731 C   0  0  0  0  0  0  0  0  0  0  0  0
  149.3826  141.4241  156.5777 N   0  0  0  0  0  0  0  0  0  0  0  0
  148.2854  141.2601  155.7079 C   0  0  0  0  0  0  0  0  0  0  0  0
  146.9493  141.3232  156.1588 C   0  0  0  0  0  0  0  0  0  0  0  0
  145.9343  141.1551  155.1997 C   0  0  0  0  0  0  0  0  0  0  0  0
  146.2484  140.9382  153.9003 N   0  3  0  0  0  0  0  0  0  0  0  0
  147.5368  140.8855  153.5340 C   0  0  0  0  0  0  0  0  0  0  0  0
  148.5459  141.0391  154.3986 N   0  0  0  0  0  0  0  0  0  0  0  0
  150.7333  142.3660  155.2654 H   0  0  0  0  0  0  0  0  0  0  0  0
  152.5046  142.1322  157.3877 H   0  0  0  0  0  0  0  0  0  0  0  0
  151.3607  143.4519  157.1837 H   0  0  0  0  0  0  0  0  0  0  0  0
  150.9830  140.9283  158.8398 H   0  0  0  0  0  0  0  0  0  0  0  0
  150.3788  142.3926  160.3716 H   0  0  0  0  0  0  0  0  0  0  0  0
  148.6258  141.0745  158.5306 H   0  0  0  0  0  0  0  0  0  0  0  0
  148.7002  142.7680  158.0176 H   0  0  0  0  0  0  0  0  0  0  0  0
  146.6933  141.5007  157.1926 H   0  0  0  0  0  0  0  0  0  0  0  0
  144.8798  141.1887  155.4307 H   0  0  0  0  0  0  0  0  0  0  0  0
  147.7384  140.7116  152.4874 H   0  0  0  0  0  0  0  0  0  0  0  0
  145.5043  140.8191  153.2130 H   0  0  0  0  0  0  0  0  0  0  0  0
  1  2  2  0  0  0  0
  2  3  1  0  0  0  0
  2  4  1  0  0  0  0
  4  9  1  0  0  0  0
  4  5  1  0  0  0  0
  4 16  1  0  0  0  0
  5  6  1  0  0  0  0
  5 17  1  0  0  0  0
  5 18  1  0  0  0  0
  6  7  1  0  0  0  0
  6  8  1  0  0  0  0
  6 19  1  0  0  0  0
  7 20  1  0  0  0  0
  8  9  1  0  0  0  0
  8 21  1  0  0  0  0
  8 22  1  0  0  0  0
  9 10  1  0  0  0  0
 10 15  1  0  0  0  0
 10 11  2  0  0  0  0
 11 12  1  0  0  0  0
 11 23  1  0  0  0  0
 12 13  2  0  0  0  0
 12 24  1  0  0  0  0
 13 14  1  0  0  0  0
 13 26  1  0  0  0  0
 14 15  2  0  0  0  0
 14 25  1  0  0  0  0
M  CHG  1   3  -1
M  CHG  1  13   1
M  END
> <s_m_source_file>
AV-unprocessed.smi

> <i_m_source_file_index>
51

> <i_lp_mmshare_version>
43012

> <i_f3d_flags>
0

> <s_epik_input>
Tz1DKFtPSF0pW0NAQEhdMVtDSDJdW0NAQEhdKFtPSF0pW0NIMl1OMWMyW2NIXVtjSF1uW2NIXW4y

> <s_epik_cmdline>
J2VwaWtfcHl0aG9uJywgJy1waCcsICc3LjAnLCAnLXRuJywgJzgnLCAnLW1hJywgJzIwMCcsICctbWV0YWxfYmluZGluZycsICctaW1hZScsICc8aW5maWxlLm1hZT4nLCAnLW9tYWUnLCAnPG91dGZpbGUubWFlPic=

> <r_lp_tautomer_probability>
0.999336

> <r_epik_Ionization_Penalty>
0.688427

> <r_epik_Ionization_Penalty_Charging>
0.688427

> <r_epik_Ionization_Penalty_Neutral>
1.98379e-07

> <r_epik_State_Penalty>
0.709817

> <r_epik_Charging_Adjusted_Penalty>
1.39824

> <i_epik_Tot_Q>
0

> <i_epik_Tot_abs_Q>
2

> <r_epik_Metal_State_Penalty>
0.873261

> <b_epik_Metal_Only>
0

> <s_lp_Force_Field>
OPLS_2005

> <r_lp_Energy>
13.2296

> <b_lp_Chiralities_Consistent>
1

> <s_lp_Variant>
AV-unprocessed.smi:51-5

> <Gold.Version>
5.8.1

> <Gold.Id.Protein>
6NUR|6NUR_protein|mol2

> <Gold.PLP.Fitness>
40.7127

> <Gold.PLP.PLP>
-22.9510

> <Gold.PLP.part.hbond>
-4.0000

> <Gold.PLP.part.metal>
0.0000

> <Gold.PLP.part.buried>
-3.9486

> <Gold.PLP.part.nonpolar>
-15.0166

> <Gold.PLP.part.repulsive>
0.2218

> <Gold.PLP.ligand.clash>
0.0000

> <Gold.PLP.ligand.torsion>
0.1759

> <Gold.PLP.Chemscore.Hbond>
5.0000

> <Gold.PLP.Chemscore.CHOScore>
1.0000

> <Gold.PLP.Chemscore.Metal>
0.0000

> <Gold.Chemscore.Hbonds>
donor molecule, donor type, donor heavy atom, donor atom, acceptor molecule, acceptor atom, score
      L1  H    13    26       P1 10175  2.00
      P1  H  7989  7998       L1     1  0.95
      P1  H  7997  8008       L1     3  2.00
      L1  C    14    25       P1  7957  1.00

> <Gold.PLP.Chemscore.Internal.Correction>
0.1136

> <Gold.Rescore>
     Score         DG    S(hbond)    S(metal)    S(lipo)     H(rot)  DE(clash)    DE(int)     intcor
      9.65     -11.47       1.98        0.00      31.83       1.70       0.21       1.61       ----

> <Gold.Chemscore.Fitness>
9.6494

> <Gold.Chemscore.DG>
-11.4688

> <Gold.Chemscore.ZeroCoef>
-5.4800

> <Gold.Chemscore.Hbond>
1.9826

> <Gold.Chemscore.Metal>
0.0000

> <Gold.Chemscore.Lipo>
31.8286

> <Gold.Chemscore.Internal_Hbond>
0.0000

> <Gold.Chemscore.DEClash>
0.2136

> <Gold.Chemscore.DEInternal>
1.6058

> <Gold.Chemscore.Rot>
1.7020

> <Gold.Chemscore.Internal.Correction>
   9.000000E+99

> <Gold.Chemscore.Hbonds>
donor molecule, donor type, donor heavy atom, donor atom, acceptor molecule, acceptor atom, score
      L1  H    13    26       P1 10175  0.63
      P1  H  7989  7998       L1     1  0.22
      P1  H  7997  8008       L1     3  0.98

> <Gold.Chemscore.Hbond.Weighted>
-6.6220

> <Gold.Chemscore.Metal.Weighted>
-0.0000

> <Gold.Chemscore.Lipo.Weighted>
-3.7240

> <Gold.Chemscore.Internal_Hbond.Weighted>
0.0000

> <Gold.Chemscore.DEClash.Weighted>
0.2136

> <Gold.Chemscore.DEInternal.Weighted>
1.6058

> <Gold.Chemscore.Rot.Weighted>
4.3571

> <Gold.Chemscore.Internal.Correction.Weighted>
   9.000000E+99

> <Gold.Protein.RotatedTorsions>
[ 6907 6896 6895 6894 ] final  144.37 input  -60.11 | X-H torsion
[ 7974 7965 7964 7962 ] final  175.43 input  175.53 | X-H torsion
[ 8008 7997 7996 7995 ] final  -51.11 input   59.86 | X-H torsion
[ 10167 10162 10161 10158 ] final -172.99 input  -65.29 | X-H torsion
[ 10718 10713 10712 10709 ] final   71.33 input   66.30 | X-H torsion
[ 10763 10752 10751 10750 ] final -143.02 input  -60.55 | X-H torsion
[ 11005 11000 10999 10996 ] final  103.77 input  -57.11 | X-H torsion

> <Gold.Protein.ActiveResidues>
 VAL166  LYS551  ARG553  GLY616  TRP617  ASP618  TYR619  PRO620  LYS621  CYS622 
 ASP623  PHE694  ASN695  SER759  ASP760  ASP761  ALA762  ILE779  LEU786  VAL792 
 PHE793  MET794  SER795  GLU796  ALA797  LYS798  CYS799  TRP800  GLU811  SER814 

> <Gold.Protein.RotatedAtoms>
  152.1946  133.4797  159.5025 H   0  0  0  0  0  0  0  0  0  0  0  0  # atno 6907 bound_to 6896
  150.6957  134.1669  159.4206 H   0  0  0  0  0  0  0  0  0  0  0  0  # atno 6908 bound_to 6896
  151.9585  135.0135  160.0597 H   0  0  0  0  0  0  0  0  0  0  0  0  # atno 6909 bound_to 6896
  144.7202  139.9946  143.6440 H   0  0  0  0  0  0  0  0  0  0  0  0  # atno 7974 bound_to 7965
  154.4076  140.1256  156.4775 H   0  0  0  0  0  0  0  0  0  0  0  0  # atno 8008 bound_to 7997
  155.7118  140.3494  155.4957 H   0  0  0  0  0  0  0  0  0  0  0  0  # atno 8009 bound_to 7997
  155.9294  140.1067  157.1135 H   0  0  0  0  0  0  0  0  0  0  0  0  # atno 8010 bound_to 7997
  139.5713  144.1634  152.1388 H   0  0  0  0  0  0  0  0  0  0  0  0  # atno 10167 bound_to 10162
  157.6446  130.9523  150.0774 H   0  0  0  0  0  0  0  0  0  0  0  0  # atno 10718 bound_to 10713
  154.8486  135.3479  154.6121 H   0  0  0  0  0  0  0  0  0  0  0  0  # atno 10763 bound_to 10752
  153.6730  135.6984  153.5146 H   0  0  0  0  0  0  0  0  0  0  0  0  # atno 10764 bound_to 10752
  153.2727  135.4288  155.0960 H   0  0  0  0  0  0  0  0  0  0  0  0  # atno 10765 bound_to 10752
  139.8786  134.9276  156.5260 H   0  0  0  0  0  0  0  0  0  0  0  0  # atno 11005 bound_to 11000
  146.0384  139.3399  143.0712 LP  0  0  0  0  0  0  0  0  0  0  0  0  # atno 17320 bound_to 7965
  145.8365  140.9603  143.0821 LP  0  0  0  0  0  0  0  0  0  0  0  0  # atno 17321 bound_to 7965
  140.1168  144.5408  150.6889 LP  0  0  0  0  0  0  0  0  0  0  0  0  # atno 17342 bound_to 10162
  140.6997  143.2427  151.4898 LP  0  0  0  0  0  0  0  0  0  0  0  0  # atno 17343 bound_to 10162
  156.1760  130.3648  149.9099 LP  0  0  0  0  0  0  0  0  0  0  0  0  # atno 17370 bound_to 10713
  156.7063  130.8953  151.3605 LP  0  0  0  0  0  0  0  0  0  0  0  0  # atno 17371 bound_to 10713
  140.8415  133.8201  155.9080 LP  0  0  0  0  0  0  0  0  0  0  0  0  # atno 17394 bound_to 11000
  140.9232  134.2115  157.4913 LP  0  0  0  0  0  0  0  0  0  0  0  0  # atno 17395 bound_to 11000

$$$$
