AV-unprocessed.smi:2727|AV-procd|sdf|10522|dock2
  -GOLD-   2272014563D 1   1.00000     0.00000
 Structure written by MMmdl.
 40 41  0  0  0  0  0  0  0  0  1 V2000
  147.4951  133.7158  155.5482 O   0  0  0  0  0  0  0  0  0  0  0  0
  147.7473  133.9992  154.3724 C   0  0  0  0  0  0  0  0  0  0  0  0
  147.9206  135.2710  153.9815 N   0  0  0  0  0  0  0  0  0  0  0  0
  147.8482  136.4393  154.8528 C   0  0  0  0  0  0  0  0  0  0  0  0
  148.9398  136.4032  155.9419 C   0  0  0  0  0  0  0  0  0  0  0  0
  150.3717  136.5042  155.3856 C   0  0  0  0  0  0  0  0  0  0  0  0
  151.1888  135.6274  155.6732 O   0  0  0  0  0  0  0  0  0  0  0  0
  150.7007  137.5604  154.6015 N   0  0  0  0  0  0  0  0  0  0  0  0
  152.0705  137.7520  154.1097 C   0  0  0  0  0  0  0  0  0  0  0  0
  152.9730  138.4322  155.1595 C   0  0  0  0  0  0  0  0  0  0  0  0
  152.2890  139.4880  156.0560 C   0  0  0  0  0  0  0  0  0  0  0  0
  151.3011  140.4262  155.3348 C   0  0  0  0  0  0  0  0  0  0  0  0
  149.8820  139.8370  155.1848 C   0  0  0  0  0  0  0  0  0  0  0  0
  149.7833  138.6428  154.2171 C   0  0  0  0  0  0  0  0  0  0  0  0
  147.9025  133.1440  153.2910 N   0  0  0  0  0  0  0  0  0  0  0  0
  147.0737  133.2105  152.2952 C   0  0  0  0  0  0  0  0  0  0  0  0
  147.0742  132.4422  151.1417 N   0  0  0  0  0  0  0  0  0  0  0  0
  146.0216  132.8400  150.3645 C   0  0  0  0  0  0  0  0  0  0  0  0
  145.3850  133.8194  150.9999 C   0  0  0  0  0  0  0  0  0  0  0  0
  146.0050  134.0705  152.1864 O   0  0  0  0  0  0  0  0  0  0  0  0
  148.1267  135.4407  153.0075 H   0  0  0  0  0  0  0  0  0  0  0  0
  147.9243  137.3491  154.2543 H   0  0  0  0  0  0  0  0  0  0  0  0
  146.8598  136.4525  155.3132 H   0  0  0  0  0  0  0  0  0  0  0  0
  148.7766  137.2191  156.6469 H   0  0  0  0  0  0  0  0  0  0  0  0
  148.8484  135.4730  156.5020 H   0  0  0  0  0  0  0  0  0  0  0  0
  152.5100  136.8032  153.7975 H   0  0  0  0  0  0  0  0  0  0  0  0
  152.0663  138.3612  153.2055 H   0  0  0  0  0  0  0  0  0  0  0  0
  153.4070  137.6688  155.8059 H   0  0  0  0  0  0  0  0  0  0  0  0
  153.8161  138.8902  154.6417 H   0  0  0  0  0  0  0  0  0  0  0  0
  151.7752  138.9918  156.8807 H   0  0  0  0  0  0  0  0  0  0  0  0
  153.0706  140.0875  156.5236 H   0  0  0  0  0  0  0  0  0  0  0  0
  151.2163  141.3413  155.9221 H   0  0  0  0  0  0  0  0  0  0  0  0
  151.6991  140.7310  154.3663 H   0  0  0  0  0  0  0  0  0  0  0  0
  149.5042  139.5520  156.1668 H   0  0  0  0  0  0  0  0  0  0  0  0
  149.2139  140.6220  154.8294 H   0  0  0  0  0  0  0  0  0  0  0  0
  150.0015  138.9809  153.2035 H   0  0  0  0  0  0  0  0  0  0  0  0
  148.7523  138.2945  154.1635 H   0  0  0  0  0  0  0  0  0  0  0  0
  147.7125  131.7041  150.8813 H   0  0  0  0  0  0  0  0  0  0  0  0
  145.8346  132.3653  149.4128 H   0  0  0  0  0  0  0  0  0  0  0  0
  144.5158  134.4110  150.7533 H   0  0  0  0  0  0  0  0  0  0  0  0
  1  2  2  0  0  0  0
  2 15  1  0  0  0  0
  2  3  1  0  0  0  0
  3  4  1  0  0  0  0
  3 21  1  0  0  0  0
  4  5  1  0  0  0  0
  4 22  1  0  0  0  0
  4 23  1  0  0  0  0
  5  6  1  0  0  0  0
  5 24  1  0  0  0  0
  5 25  1  0  0  0  0
  6  7  2  0  0  0  0
  6  8  1  0  0  0  0
  8 14  1  0  0  0  0
  8  9  1  0  0  0  0
  9 10  1  0  0  0  0
  9 26  1  0  0  0  0
  9 27  1  0  0  0  0
 10 11  1  0  0  0  0
 10 28  1  0  0  0  0
 10 29  1  0  0  0  0
 11 12  1  0  0  0  0
 11 30  1  0  0  0  0
 11 31  1  0  0  0  0
 12 13  1  0  0  0  0
 12 32  1  0  0  0  0
 12 33  1  0  0  0  0
 13 14  1  0  0  0  0
 13 34  1  0  0  0  0
 13 35  1  0  0  0  0
 14 36  1  0  0  0  0
 14 37  1  0  0  0  0
 15 16  2  0  0  0  0
 16 20  1  0  0  0  0
 16 17  1  0  0  0  0
 17 38  1  0  0  0  0
 17 18  1  0  0  0  0
 18 39  1  0  0  0  0
 18 19  2  0  0  0  0
 19 40  1  0  0  0  0
 19 20  1  0  0  0  0
M  END
> <s_m_source_file>
AV-unprocessed.smi

> <i_m_source_file_index>
2727

> <i_lp_mmshare_version>
43012

> <i_f3d_flags>
0

> <s_epik_input>
bzFbY0hdW2NIXW5jMVtOSF1DKD1PKVtOSF1bQ0gyXVtDSDJdQyg9TylOMltDSDJdW0NIMl1bQ0gyXVtDSDJdW0NIMl1bQ0gyXTI=

> <s_epik_cmdline>
J2VwaWtfcHl0aG9uJywgJy1waCcsICc3LjAnLCAnLXRuJywgJzgnLCAnLW1hJywgJzIwMCcsICctbWV0YWxfYmluZGluZycsICctaW1hZScsICc8aW5maWxlLm1hZT4nLCAnLW9tYWUnLCAnPG91dGZpbGUubWFlPic=

> <r_lp_tautomer_probability>
0.107061

> <r_epik_Ionization_Penalty>
0.376272

> <r_epik_Ionization_Penalty_Charging>
0.375918

> <r_epik_Ionization_Penalty_Neutral>
0.000353756

> <r_epik_State_Penalty>
2.48665

> <r_epik_Charging_Adjusted_Penalty>
2.86256

> <i_epik_Tot_Q>
0

> <i_epik_Tot_abs_Q>
0

> <r_epik_Metal_State_Penalty>
4.1171

> <b_epik_Metal_Only>
0

> <s_lp_Force_Field>
OPLS_2005

> <r_lp_Energy>
48.3689

> <b_lp_Chiralities_Consistent>
1

> <s_lp_Variant>
AV-unprocessed.smi:2727-2

> <Gold.Version>
5.8.1

> <Gold.Id.Protein>
6NUR|6NUR_protein|mol2

> <Gold.PLP.Fitness>
39.6414

> <Gold.PLP.PLP>
-31.7267

> <Gold.PLP.part.hbond>
-2.8752

> <Gold.PLP.part.metal>
0.0000

> <Gold.PLP.part.buried>
-3.6503

> <Gold.PLP.part.nonpolar>
-24.7480

> <Gold.PLP.part.repulsive>
0.4866

> <Gold.PLP.ligand.clash>
0.0000

> <Gold.PLP.ligand.torsion>
0.6365

> <Gold.PLP.Chemscore.Hbond>
3.0000

> <Gold.PLP.Chemscore.CHOScore>
0.0552

> <Gold.PLP.Chemscore.Metal>
0.0000

> <Gold.Chemscore.Hbonds>
donor molecule, donor type, donor heavy atom, donor atom, acceptor molecule, acceptor atom, score
      L1  H     3    21       P1  7948  1.00
      L1  H    17    38       P1 10747  1.00
      P1  H 10752 10764       L1     7  1.00

> <Gold.PLP.Chemscore.Internal.Correction>
0.0221

> <Gold.Rescore>
     Score         DG    S(hbond)    S(metal)    S(lipo)     H(rot)  DE(clash)    DE(int)     intcor
     17.23     -18.11       2.96        0.00      60.76       1.70       0.09       0.79       ----

> <Gold.Chemscore.Fitness>
17.2269

> <Gold.Chemscore.DG>
-18.1074

> <Gold.Chemscore.ZeroCoef>
-5.4800

> <Gold.Chemscore.Hbond>
2.9570

> <Gold.Chemscore.Metal>
0.0000

> <Gold.Chemscore.Lipo>
60.7641

> <Gold.Chemscore.Internal_Hbond>
0.0000

> <Gold.Chemscore.DEClash>
0.0859

> <Gold.Chemscore.DEInternal>
0.7946

> <Gold.Chemscore.Rot>
1.7025

> <Gold.Chemscore.Internal.Correction>
   9.000000E+99

> <Gold.Chemscore.Hbonds>
donor molecule, donor type, donor heavy atom, donor atom, acceptor molecule, acceptor atom, score
      L1  H     3    21       P1  7948  0.94
      L1  H    17    38       P1 10747  0.99
      P1  H 10752 10764       L1     7  0.93

> <Gold.Chemscore.Hbond.Weighted>
-9.8763

> <Gold.Chemscore.Metal.Weighted>
-0.0000

> <Gold.Chemscore.Lipo.Weighted>
-7.1094

> <Gold.Chemscore.Internal_Hbond.Weighted>
0.0000

> <Gold.Chemscore.DEClash.Weighted>
0.0859

> <Gold.Chemscore.DEInternal.Weighted>
0.7946

> <Gold.Chemscore.Rot.Weighted>
4.3584

> <Gold.Chemscore.Internal.Correction.Weighted>
   9.000000E+99

> <Gold.Protein.RotatedTorsions>
[ 6907 6896 6895 6894 ] final  -35.63 input  -60.11 | X-H torsion
[ 7974 7965 7964 7962 ] final  -14.49 input  175.53 | X-H torsion
[ 8008 7997 7996 7995 ] final  161.18 input   59.86 | X-H torsion
[ 10167 10162 10161 10158 ] final  -66.39 input  -65.29 | X-H torsion
[ 10718 10713 10712 10709 ] final -177.66 input   66.30 | X-H torsion
[ 10763 10752 10751 10750 ] final  -54.14 input  -60.55 | X-H torsion
[ 11005 11000 10999 10996 ] final -147.07 input  -57.11 | X-H torsion

> <Gold.Protein.ActiveResidues>
 VAL166  LYS551  ARG553  GLY616  TRP617  ASP618  TYR619  PRO620  LYS621  CYS622 
 ASP623  PHE694  ASN695  SER759  ASP760  ASP761  ALA762  ILE779  LEU786  VAL792 
 PHE793  MET794  SER795  GLU796  ALA797  LYS798  CYS799  TRP800  GLU811  SER814 

> <Gold.Protein.RotatedAtoms>
  151.0374  134.9582  159.8143 H   0  0  0  0  0  0  0  0  0  0  0  0  # atno 6907 bound_to 6896
  152.5357  134.2702  159.8979 H   0  0  0  0  0  0  0  0  0  0  0  0  # atno 6908 bound_to 6896
  151.2713  133.4211  159.2655 H   0  0  0  0  0  0  0  0  0  0  0  0  # atno 6909 bound_to 6896
  146.2072  140.3356  142.8403 H   0  0  0  0  0  0  0  0  0  0  0  0  # atno 7974 bound_to 7965
  156.2121  140.1784  156.7672 H   0  0  0  0  0  0  0  0  0  0  0  0  # atno 8008 bound_to 7997
  154.5737  140.0678  156.9032 H   0  0  0  0  0  0  0  0  0  0  0  0  # atno 8009 bound_to 7997
  155.2626  140.3337  155.4274 H   0  0  0  0  0  0  0  0  0  0  0  0  # atno 8010 bound_to 7997
  140.5660  143.2315  151.6634 H   0  0  0  0  0  0  0  0  0  0  0  0  # atno 10167 bound_to 10162
  156.8328  130.9659  151.3105 H   0  0  0  0  0  0  0  0  0  0  0  0  # atno 10718 bound_to 10713
  154.1700  135.6460  153.5007 H   0  0  0  0  0  0  0  0  0  0  0  0  # atno 10763 bound_to 10752
  153.0087  135.5381  154.6622 H   0  0  0  0  0  0  0  0  0  0  0  0  # atno 10764 bound_to 10752
  154.5959  135.2939  155.0559 H   0  0  0  0  0  0  0  0  0  0  0  0  # atno 10765 bound_to 10752
  140.7755  134.3140  157.5062 H   0  0  0  0  0  0  0  0  0  0  0  0  # atno 11005 bound_to 11000
  144.8822  140.7415  143.5980 LP  0  0  0  0  0  0  0  0  0  0  0  0  # atno 17320 bound_to 7965
  145.3276  139.1769  143.4554 LP  0  0  0  0  0  0  0  0  0  0  0  0  # atno 17321 bound_to 7965
  139.5093  144.3581  152.0588 LP  0  0  0  0  0  0  0  0  0  0  0  0  # atno 17342 bound_to 10162
  140.2713  144.3961  150.6150 LP  0  0  0  0  0  0  0  0  0  0  0  0  # atno 17343 bound_to 10162
  157.6398  130.8796  149.9426 LP  0  0  0  0  0  0  0  0  0  0  0  0  # atno 17370 bound_to 10713
  156.0925  130.3662  150.0369 LP  0  0  0  0  0  0  0  0  0  0  0  0  # atno 17371 bound_to 10713
  139.8750  134.9286  156.3456 LP  0  0  0  0  0  0  0  0  0  0  0  0  # atno 17394 bound_to 11000
  140.9533  133.7436  156.0301 LP  0  0  0  0  0  0  0  0  0  0  0  0  # atno 17395 bound_to 11000

$$$$
