AV-unprocessed.smi:153|AV-procd|sdf|1250|dock1
  -GOLD-   2262018473D 1   1.00000     0.00000
 Structure written by MMmdl.
 60 63  0  0  0  0  0  0  0  0  2 V2000
  152.7230  144.4419  157.1564 C   0  0  0  0  0  0  0  0  0  0  0  0
  151.8632  143.8759  158.3003 C   0  0  2  0  0  0  0  0  0  0  0  0
  152.7599  143.7821  159.4088 O   0  0  0  0  0  0  0  0  0  0  0  0
  153.0226  142.4243  159.7483 C   0  0  0  0  0  0  0  0  0  0  0  0
  152.4753  141.5948  158.5912 C   0  0  0  0  0  0  0  0  0  0  0  0
  151.3202  142.4435  158.0880 C   0  0  1  0  0  0  0  0  0  0  0  0
  150.2241  142.2691  158.9710 O   0  0  0  0  0  0  0  0  0  0  0  0
  150.8588  142.0567  156.6546 C   0  0  0  0  0  0  0  0  0  0  0  0
  150.3812  140.6848  156.5159 N   0  0  0  0  0  0  0  0  0  0  0  0
  149.2367  140.1393  157.0499 C   0  0  0  0  0  0  0  0  0  0  0  0
  149.0325  138.8841  156.7621 N   0  0  0  0  0  0  0  0  0  0  0  0
  150.1072  138.5272  155.9547 C   0  0  0  0  0  0  0  0  0  0  0  0
  150.5084  137.3307  155.2811 C   0  0  0  0  0  0  0  0  0  0  0  0
  149.8304  136.1464  155.3098 N   0  0  0  0  0  0  0  0  0  0  0  0
  148.3841  136.1362  155.4916 C   0  0  0  0  0  0  0  0  0  0  0  0
  150.4737  134.9050  154.8683 C   0  0  0  0  0  0  0  0  0  0  0  0
  150.8093  133.9564  156.0372 C   0  0  2  0  0  0  0  0  0  0  0  0
  151.8560  134.5582  156.7726 O   0  0  0  0  0  0  0  0  0  0  0  0
  151.2801  132.5611  155.5698 C   0  0  0  0  0  0  0  0  0  0  0  0
  150.1558  131.6609  155.2111 N   0  3  0  0  0  0  0  0  0  0  0  0
  149.2131  132.2545  154.2300 C   0  0  0  0  0  0  0  0  0  0  0  0
  148.0630  131.2781  153.9296 C   0  0  0  0  0  0  0  0  0  0  0  0
  148.5927  130.0454  153.4587 O   0  0  0  0  0  0  0  0  0  0  0  0
  149.4287  129.4217  154.4252 C   0  0  0  0  0  0  0  0  0  0  0  0
  150.6244  130.3361  154.7395 C   0  0  0  0  0  0  0  0  0  0  0  0
  151.6484  137.3996  154.5427 N   0  0  0  0  0  0  0  0  0  0  0  0
  152.3467  138.5339  154.4589 C   0  0  0  0  0  0  0  0  0  0  0  0
  152.0901  139.7116  155.0256 N   0  0  0  0  0  0  0  0  0  0  0  0
  150.9539  139.6612  155.7774 C   0  0  0  0  0  0  0  0  0  0  0  0
  152.1425  144.6206  156.2560 H   0  0  0  0  0  0  0  0  0  0  0  0
  153.5426  143.7708  156.8991 H   0  0  0  0  0  0  0  0  0  0  0  0
  153.1615  145.3973  157.4454 H   0  0  0  0  0  0  0  0  0  0  0  0
  151.0608  144.5809  158.5237 H   0  0  0  0  0  0  0  0  0  0  0  0
  154.0861  142.2534  159.9157 H   0  0  0  0  0  0  0  0  0  0  0  0
  152.4934  142.1882  160.6723 H   0  0  0  0  0  0  0  0  0  0  0  0
  153.2376  141.5003  157.8165 H   0  0  0  0  0  0  0  0  0  0  0  0
  152.1813  140.5883  158.8914 H   0  0  0  0  0  0  0  0  0  0  0  0
  150.1285  143.0527  159.4907 H   0  0  0  0  0  0  0  0  0  0  0  0
  150.0864  142.7355  156.2926 H   0  0  0  0  0  0  0  0  0  0  0  0
  151.6956  142.1784  155.9657 H   0  0  0  0  0  0  0  0  0  0  0  0
  148.5382  140.6974  157.6531 H   0  0  0  0  0  0  0  0  0  0  0  0
  148.0970  136.7325  156.3582 H   0  0  0  0  0  0  0  0  0  0  0  0
  148.0201  135.1220  155.6582 H   0  0  0  0  0  0  0  0  0  0  0  0
  147.8811  136.5288  154.6077 H   0  0  0  0  0  0  0  0  0  0  0  0
  149.8936  134.3838  154.1066 H   0  0  0  0  0  0  0  0  0  0  0  0
  151.3999  135.1880  154.3663 H   0  0  0  0  0  0  0  0  0  0  0  0
  149.9420  133.8824  156.6924 H   0  0  0  0  0  0  0  0  0  0  0  0
  151.5437  135.3681  157.1454 H   0  0  0  0  0  0  0  0  0  0  0  0
  151.9378  132.6374  154.7047 H   0  0  0  0  0  0  0  0  0  0  0  0
  151.8789  132.1123  156.3643 H   0  0  0  0  0  0  0  0  0  0  0  0
  148.8021  133.1892  154.6095 H   0  0  0  0  0  0  0  0  0  0  0  0
  149.7455  132.4927  153.3075 H   0  0  0  0  0  0  0  0  0  0  0  0
  147.4511  131.1106  154.8173 H   0  0  0  0  0  0  0  0  0  0  0  0
  147.4070  131.6945  153.1650 H   0  0  0  0  0  0  0  0  0  0  0  0
  148.8589  129.2003  155.3291 H   0  0  0  0  0  0  0  0  0  0  0  0
  149.7787  128.4687  154.0280 H   0  0  0  0  0  0  0  0  0  0  0  0
  151.2440  130.4621  153.8502 H   0  0  0  0  0  0  0  0  0  0  0  0
  151.2490  129.8707  155.5031 H   0  0  0  0  0  0  0  0  0  0  0  0
  153.2380  138.4913  153.8503 H   0  0  0  0  0  0  0  0  0  0  0  0
  149.6377  131.4902  156.0609 H   0  0  0  0  0  0  0  0  0  0  0  0
  1  2  1  0  0  0  0
  1 30  1  0  0  0  0
  1 31  1  0  0  0  0
  1 32  1  0  0  0  0
  2  6  1  0  0  0  0
  2  3  1  0  0  0  0
  2 33  1  0  0  0  0
  3  4  1  0  0  0  0
  4  5  1  0  0  0  0
  4 34  1  0  0  0  0
  4 35  1  0  0  0  0
  5  6  1  0  0  0  0
  5 36  1  0  0  0  0
  5 37  1  0  0  0  0
  6  7  1  0  0  0  0
  6  8  1  0  0  0  0
  7 38  1  0  0  0  0
  8  9  1  0  0  0  0
  8 39  1  0  0  0  0
  8 40  1  0  0  0  0
  9 29  1  0  0  0  0
  9 10  1  0  0  0  0
 10 11  2  0  0  0  0
 10 41  1  0  0  0  0
 11 12  1  0  0  0  0
 12 29  2  0  0  0  0
 12 13  1  0  0  0  0
 13 14  1  0  0  0  0
 13 26  2  0  0  0  0
 14 15  1  0  0  0  0
 14 16  1  0  0  0  0
 15 42  1  0  0  0  0
 15 43  1  0  0  0  0
 15 44  1  0  0  0  0
 16 17  1  0  0  0  0
 16 45  1  0  0  0  0
 16 46  1  0  0  0  0
 17 18  1  0  0  0  0
 17 19  1  0  0  0  0
 17 47  1  0  0  0  0
 18 48  1  0  0  0  0
 19 20  1  0  0  0  0
 19 49  1  0  0  0  0
 19 50  1  0  0  0  0
 20 25  1  0  0  0  0
 20 21  1  0  0  0  0
 20 60  1  0  0  0  0
 21 22  1  0  0  0  0
 21 51  1  0  0  0  0
 21 52  1  0  0  0  0
 22 23  1  0  0  0  0
 22 53  1  0  0  0  0
 22 54  1  0  0  0  0
 23 24  1  0  0  0  0
 24 25  1  0  0  0  0
 24 55  1  0  0  0  0
 24 56  1  0  0  0  0
 25 57  1  0  0  0  0
 25 58  1  0  0  0  0
 26 27  1  0  0  0  0
 27 28  2  0  0  0  0
 27 59  1  0  0  0  0
 28 29  1  0  0  0  0
M  CHG  1  20   1
M  END
> <s_m_source_file>
AV-unprocessed.smi

> <i_m_source_file_index>
153

> <i_lp_mmshare_version>
43012

> <i_f3d_flags>
0

> <s_epik_input>
W0NIMl0xW0NIMl1PW0NAQEhdKFtDSDNdKVtDQEBdMShbT0hdKVtDSDJdbihbY0hdbjIpYyhjMjMpbltjSF1uYzNOKFtDSDNdKVtDSDJdW0NASF0oW09IXSlbQ0gyXU40W0NIMl1bQ0gyXU9bQ0gyXVtDSDJdNA==

> <s_epik_cmdline>
J2VwaWtfcHl0aG9uJywgJy1waCcsICc3LjAnLCAnLXRuJywgJzgnLCAnLW1hJywgJzIwMCcsICctbWV0YWxfYmluZGluZycsICctaW1hZScsICc8aW5maWxlLm1hZT4nLCAnLW9tYWUnLCAnPG91dGZpbGUubWFlPic=

> <r_lp_tautomer_probability>
1

> <r_epik_Ionization_Penalty>
0.403509

> <r_epik_Ionization_Penalty_Charging>
0.40072

> <r_epik_Ionization_Penalty_Neutral>
0.00278876

> <r_epik_State_Penalty>
0.400058

> <r_epik_Charging_Adjusted_Penalty>
0.800778

> <i_epik_Tot_Q>
1

> <i_epik_Tot_abs_Q>
1

> <r_epik_Metal_State_Penalty>
0.400321

> <b_epik_Metal_Only>
0

> <s_lp_Force_Field>
OPLS_2005

> <r_lp_Energy>
46.9593

> <b_lp_Chiralities_Consistent>
1

> <s_lp_Variant>
AV-unprocessed.smi:153-1

> <Gold.Version>
5.8.1

> <Gold.Id.Protein>
6NUR|6NUR_protein|mol2

> <Gold.PLP.Fitness>
50.3656

> <Gold.PLP.PLP>
-47.9333

> <Gold.PLP.part.hbond>
-3.2816

> <Gold.PLP.part.metal>
0.0000

> <Gold.PLP.part.buried>
-10.1336

> <Gold.PLP.part.nonpolar>
-36.4681

> <Gold.PLP.part.repulsive>
1.0541

> <Gold.PLP.ligand.clash>
0.0000

> <Gold.PLP.ligand.torsion>
0.7820

> <Gold.PLP.Chemscore.Hbond>
1.2043

> <Gold.PLP.Chemscore.CHOScore>
0.0000

> <Gold.PLP.Chemscore.Metal>
0.0000

> <Gold.Chemscore.Hbonds>
donor molecule, donor type, donor heavy atom, donor atom, acceptor molecule, acceptor atom, score
      P1  H  7989  7998       L1    28  0.85
      P1  H 10752 10763       L1    26  0.52

> <Gold.PLP.Chemscore.Internal.Correction>
0.3833

> <Gold.Rescore>
     Score         DG    S(hbond)    S(metal)    S(lipo)     H(rot)  DE(clash)    DE(int)     intcor
      7.82      -9.98       0.40        0.00     106.26       3.62       0.37       1.79       ----

> <Gold.Chemscore.Fitness>
7.8223

> <Gold.Chemscore.DG>
-9.9828

> <Gold.Chemscore.ZeroCoef>
-5.4800

> <Gold.Chemscore.Hbond>
0.3992

> <Gold.Chemscore.Metal>
0.0000

> <Gold.Chemscore.Lipo>
106.2558

> <Gold.Chemscore.Internal_Hbond>
0.0000

> <Gold.Chemscore.DEClash>
0.3663

> <Gold.Chemscore.DEInternal>
1.7943

> <Gold.Chemscore.Rot>
3.6182

> <Gold.Chemscore.Internal.Correction>
   9.000000E+99

> <Gold.Chemscore.Hbonds>
donor molecule, donor type, donor heavy atom, donor atom, acceptor molecule, acceptor atom, score
      P1  H  7989  7998       L1    28  0.18
      P1  H 10752 10763       L1    26  0.34

> <Gold.Chemscore.Hbond.Weighted>
-1.3334

> <Gold.Chemscore.Metal.Weighted>
-0.0000

> <Gold.Chemscore.Lipo.Weighted>
-12.4319

> <Gold.Chemscore.Internal_Hbond.Weighted>
0.0000

> <Gold.Chemscore.DEClash.Weighted>
0.3663

> <Gold.Chemscore.DEInternal.Weighted>
1.7943

> <Gold.Chemscore.Rot.Weighted>
9.2625

> <Gold.Chemscore.Internal.Correction.Weighted>
   9.000000E+99

> <Gold.Protein.RotatedTorsions>
[ 6907 6896 6895 6894 ] final  -50.62 input  -60.11 | X-H torsion
[ 7974 7965 7964 7962 ] final  -95.04 input  175.53 | X-H torsion
[ 8008 7997 7996 7995 ] final   65.00 input   59.86 | X-H torsion
[ 10167 10162 10161 10158 ] final -109.38 input  -65.29 | X-H torsion
[ 10718 10713 10712 10709 ] final -139.18 input   66.30 | X-H torsion
[ 10763 10752 10751 10750 ] final   30.40 input  -60.55 | X-H torsion
[ 11005 11000 10999 10996 ] final   -6.06 input  -57.11 | X-H torsion

> <Gold.Protein.ActiveResidues>
 VAL166  LYS551  ARG553  GLY616  TRP617  ASP618  TYR619  PRO620  LYS621  CYS622 
 ASP623  PHE694  ASN695  SER759  ASP760  ASP761  ALA762  ILE779  LEU786  VAL792 
 PHE793  MET794  SER795  GLU796  ALA797  LYS798  CYS799  TRP800  GLU811  SER814 

> <Gold.Protein.RotatedAtoms>
  150.8689  134.8059  159.7139 H   0  0  0  0  0  0  0  0  0  0  0  0  # atno 6907 bound_to 6896
  152.4701  134.4979  159.9725 H   0  0  0  0  0  0  0  0  0  0  0  0  # atno 6908 bound_to 6896
  151.5070  133.3454  159.2914 H   0  0  0  0  0  0  0  0  0  0  0  0  # atno 6909 bound_to 6896
  145.3653  140.9498  143.2478 H   0  0  0  0  0  0  0  0  0  0  0  0  # atno 7974 bound_to 7965
  155.6549  140.3497  155.4761 H   0  0  0  0  0  0  0  0  0  0  0  0  # atno 8008 bound_to 7997
  155.9817  140.1176  157.0744 H   0  0  0  0  0  0  0  0  0  0  0  0  # atno 8009 bound_to 7997
  154.4193  140.1137  156.5430 H   0  0  0  0  0  0  0  0  0  0  0  0  # atno 8010 bound_to 7997
  140.1559  143.4160  152.1461 H   0  0  0  0  0  0  0  0  0  0  0  0  # atno 10167 bound_to 10162
  156.3078  130.7465  151.1533 H   0  0  0  0  0  0  0  0  0  0  0  0  # atno 10718 bound_to 10713
  153.0374  135.6465  154.1038 H   0  0  0  0  0  0  0  0  0  0  0  0  # atno 10763 bound_to 10752
  154.0751  135.2877  155.3302 H   0  0  0  0  0  0  0  0  0  0  0  0  # atno 10764 bound_to 10752
  154.6568  135.5406  153.8033 H   0  0  0  0  0  0  0  0  0  0  0  0  # atno 10765 bound_to 10752
  140.6979  133.9015  155.8662 H   0  0  0  0  0  0  0  0  0  0  0  0  # atno 11005 bound_to 11000
  144.8616  139.5169  143.6809 LP  0  0  0  0  0  0  0  0  0  0  0  0  # atno 17320 bound_to 7965
  146.2909  139.7137  142.9161 LP  0  0  0  0  0  0  0  0  0  0  0  0  # atno 17321 bound_to 7965
  139.5403  144.7250  151.4754 LP  0  0  0  0  0  0  0  0  0  0  0  0  # atno 17342 bound_to 10162
  140.6673  143.8370  150.6957 LP  0  0  0  0  0  0  0  0  0  0  0  0  # atno 17343 bound_to 10162
  157.7384  131.0541  150.5298 LP  0  0  0  0  0  0  0  0  0  0  0  0  # atno 17370 bound_to 10713
  156.5434  130.4214  149.6143 LP  0  0  0  0  0  0  0  0  0  0  0  0  # atno 17371 bound_to 10713
  141.0188  134.0918  157.4143 LP  0  0  0  0  0  0  0  0  0  0  0  0  # atno 17394 bound_to 11000
  139.8905  135.0112  156.6739 LP  0  0  0  0  0  0  0  0  0  0  0  0  # atno 17395 bound_to 11000

$$$$
