AV-unprocessed.smi:618|AV-procd|sdf|3079|dock3
  -GOLD-   22720 0 03D 1   1.00000     0.00000
 Structure written by MMmdl.
 41 43  0  0  0  0  0  0  0  0  2 V2000
  146.3002  139.2529  154.0708 O   0  0  0  0  0  0  0  0  0  0  0  0
  147.1049  138.5043  153.5181 C   0  0  0  0  0  0  0  0  0  0  0  0
  146.7409  137.4890  152.7225 N   0  0  0  0  0  0  0  0  0  0  0  0
  145.3639  137.1140  152.4112 C   0  0  0  0  0  0  0  0  0  0  0  0
  145.2157  135.6379  151.9878 C   0  0  1  0  0  0  0  0  0  0  0  0
  145.3679  135.4071  150.4685 C   0  0  0  0  0  0  0  0  0  0  0  0
  145.3126  133.9687  150.1196 N   0  3  2  0  0  0  0  0  0  0  0  0
  143.9672  133.3617  150.0251 C   0  0  0  0  0  0  0  0  0  0  0  0
  144.1362  131.8811  150.4010 C   0  0  0  0  0  0  0  0  0  0  0  0
  145.6343  131.6924  150.6645 C   0  0  0  0  0  0  0  0  0  0  0  0
  146.1430  133.1001  150.9788 C   0  0  2  0  0  0  0  0  0  0  0  0
  145.9794  133.4605  152.4727 C   0  0  0  0  0  0  0  0  0  0  0  0
  146.1836  134.8518  152.6728 O   0  0  0  0  0  0  0  0  0  0  0  0
  148.4430  138.5883  153.6114 N   0  0  0  0  0  0  0  0  0  0  0  0
  149.2317  139.5045  154.3599 C   0  0  0  0  0  0  0  0  0  0  0  0
  148.7825  140.7685  154.8149 C   0  0  0  0  0  0  0  0  0  0  0  0
  149.6632  141.5741  155.5620 C   0  0  0  0  0  0  0  0  0  0  0  0
  150.9564  141.0869  155.8324 C   0  0  0  0  0  0  0  0  0  0  0  0
  151.3943  139.8806  155.4153 N   0  0  0  0  0  0  0  0  0  0  0  0
  150.5446  139.1136  154.6997 C   0  0  0  0  0  0  0  0  0  0  0  0
  147.4699  136.9334  152.2995 H   0  0  0  0  0  0  0  0  0  0  0  0
  144.7082  137.3336  153.2555 H   0  0  0  0  0  0  0  0  0  0  0  0
  145.0304  137.7559  151.5956 H   0  0  0  0  0  0  0  0  0  0  0  0
  144.2233  135.3140  152.3055 H   0  0  0  0  0  0  0  0  0  0  0  0
  144.6101  135.9571  149.9093 H   0  0  0  0  0  0  0  0  0  0  0  0
  146.3363  135.7787  150.1320 H   0  0  0  0  0  0  0  0  0  0  0  0
  143.2698  133.8427  150.7120 H   0  0  0  0  0  0  0  0  0  0  0  0
  143.5749  133.4841  149.0152 H   0  0  0  0  0  0  0  0  0  0  0  0
  143.5643  131.6612  151.3036 H   0  0  0  0  0  0  0  0  0  0  0  0
  143.7786  131.2137  149.6162 H   0  0  0  0  0  0  0  0  0  0  0  0
  145.8387  130.9733  151.4588 H   0  0  0  0  0  0  0  0  0  0  0  0
  146.1175  131.3262  149.7577 H   0  0  0  0  0  0  0  0  0  0  0  0
  147.1912  133.2105  150.6979 H   0  0  0  0  0  0  0  0  0  0  0  0
  144.9938  133.1791  152.8475 H   0  0  0  0  0  0  0  0  0  0  0  0
  146.7069  132.9101  153.0697 H   0  0  0  0  0  0  0  0  0  0  0  0
  148.9664  137.9397  153.0418 H   0  0  0  0  0  0  0  0  0  0  0  0
  147.7861  141.1324  154.6215 H   0  0  0  0  0  0  0  0  0  0  0  0
  149.3527  142.5435  155.9231 H   0  0  0  0  0  0  0  0  0  0  0  0
  151.6556  141.6794  156.4036 H   0  0  0  0  0  0  0  0  0  0  0  0
  150.9287  138.1539  154.3856 H   0  0  0  0  0  0  0  0  0  0  0  0
  145.6996  133.8825  149.1905 H   0  0  0  0  0  0  0  0  0  0  0  0
  1  2  2  0  0  0  0
  2  3  1  0  0  0  0
  2 14  1  0  0  0  0
  3  4  1  0  0  0  0
  3 21  1  0  0  0  0
  4  5  1  0  0  0  0
  4 22  1  0  0  0  0
  4 23  1  0  0  0  0
  5 13  1  0  0  0  0
  5  6  1  0  0  0  0
  5 24  1  0  0  0  0
  6  7  1  0  0  0  0
  6 25  1  0  0  0  0
  6 26  1  0  0  0  0
  7 11  1  0  0  0  0
  7  8  1  0  0  0  0
  7 41  1  0  0  0  0
  8  9  1  0  0  0  0
  8 27  1  0  0  0  0
  8 28  1  0  0  0  0
  9 10  1  0  0  0  0
  9 29  1  0  0  0  0
  9 30  1  0  0  0  0
 10 11  1  0  0  0  0
 10 31  1  0  0  0  0
 10 32  1  0  0  0  0
 11 12  1  0  0  0  0
 11 33  1  0  0  0  0
 12 13  1  0  0  0  0
 12 34  1  0  0  0  0
 12 35  1  0  0  0  0
 14 15  1  0  0  0  0
 14 36  1  0  0  0  0
 15 20  1  0  0  0  0
 15 16  2  0  0  0  0
 16 17  1  0  0  0  0
 16 37  1  0  0  0  0
 17 18  2  0  0  0  0
 17 38  1  0  0  0  0
 18 19  1  0  0  0  0
 18 39  1  0  0  0  0
 19 20  2  0  0  0  0
 20 40  1  0  0  0  0
M  CHG  1   7   1
M  END
> <s_m_source_file>
AV-unprocessed.smi

> <i_m_source_file_index>
618

> <i_lp_mmshare_version>
43012

> <i_f3d_flags>
0

> <s_epik_input>
W2NIXTFuW2NIXVtjSF1bY0hdYzFbTkhdQyg9TylbTkhdW0NIMl1bQ0BIXShbQ0gyXTIpT1tDSDJdW0NAQEhdKE4yMylbQ0gyXVtDSDJdW0NIMl0z

> <s_epik_cmdline>
J2VwaWtfcHl0aG9uJywgJy1waCcsICc3LjAnLCAnLXRuJywgJzgnLCAnLW1hJywgJzIwMCcsICctbWV0YWxfYmluZGluZycsICctaW1hZScsICc8aW5maWxlLm1hZT4nLCAnLW9tYWUnLCAnPG91dGZpbGUubWFlPic=

> <r_epik_Ionization_Penalty>
0.111044

> <r_epik_Ionization_Penalty_Charging>
0.10673

> <r_epik_Ionization_Penalty_Neutral>
0.00431361

> <r_epik_State_Penalty>
0.0978747

> <r_epik_Charging_Adjusted_Penalty>
0.204605

> <i_epik_Tot_Q>
1

> <i_epik_Tot_abs_Q>
1

> <r_epik_Metal_State_Penalty>
0.0947591

> <b_epik_Metal_Only>
0

> <s_lp_Force_Field>
OPLS_2005

> <r_lp_Energy>
40.8554

> <b_lp_Chiralities_Consistent>
1

> <s_lp_Variant>
AV-unprocessed.smi:618-6

> <Gold.Version>
5.8.1

> <Gold.Id.Protein>
6NUR|6NUR_protein|mol2

> <Gold.PLP.Fitness>
44.1939

> <Gold.PLP.PLP>
-36.5986

> <Gold.PLP.part.hbond>
-5.0000

> <Gold.PLP.part.metal>
0.0000

> <Gold.PLP.part.buried>
-3.2391

> <Gold.PLP.part.nonpolar>
-30.3852

> <Gold.PLP.part.repulsive>
0.4243

> <Gold.PLP.ligand.clash>
0.0000

> <Gold.PLP.ligand.torsion>
0.6268

> <Gold.PLP.Chemscore.Hbond>
2.9488

> <Gold.PLP.Chemscore.CHOScore>
0.0000

> <Gold.PLP.Chemscore.Metal>
0.0000

> <Gold.Chemscore.Hbonds>
donor molecule, donor type, donor heavy atom, donor atom, acceptor molecule, acceptor atom, score
      L1  H     3    21       P1  7948  1.00
      L1  H     7    41       P1  7921  0.91
      L1  H    14    36       P1  7948  0.94
      P1  H  7989  7998       L1    19  0.01

> <Gold.PLP.Chemscore.Internal.Correction>
0.0027

> <Gold.Rescore>
     Score         DG    S(hbond)    S(metal)    S(lipo)     H(rot)  DE(clash)    DE(int)     intcor
     20.02     -22.29       2.79        0.00      91.69       1.27       0.89       1.38       ----

> <Gold.Chemscore.Fitness>
20.0175

> <Gold.Chemscore.DG>
-22.2867

> <Gold.Chemscore.ZeroCoef>
-5.4800

> <Gold.Chemscore.Hbond>
2.7899

> <Gold.Chemscore.Metal>
0.0000

> <Gold.Chemscore.Lipo>
91.6943

> <Gold.Chemscore.Internal_Hbond>
0.0000

> <Gold.Chemscore.DEClash>
0.8907

> <Gold.Chemscore.DEInternal>
1.3784

> <Gold.Chemscore.Rot>
1.2656

> <Gold.Chemscore.Internal.Correction>
   9.000000E+99

> <Gold.Chemscore.Hbonds>
donor molecule, donor type, donor heavy atom, donor atom, acceptor molecule, acceptor atom, score
      L1  H     3    21       P1  7948  1.00
      L1  H     7    41       P1  7921  0.35
      L1  H    14    36       P1  7948  0.84

> <Gold.Chemscore.Hbond.Weighted>
-9.3183

> <Gold.Chemscore.Metal.Weighted>
-0.0000

> <Gold.Chemscore.Lipo.Weighted>
-10.7282

> <Gold.Chemscore.Internal_Hbond.Weighted>
0.0000

> <Gold.Chemscore.DEClash.Weighted>
0.8907

> <Gold.Chemscore.DEInternal.Weighted>
1.3784

> <Gold.Chemscore.Rot.Weighted>
3.2399

> <Gold.Chemscore.Internal.Correction.Weighted>
   9.000000E+99

> <Gold.Protein.RotatedTorsions>
[ 6907 6896 6895 6894 ] final   80.63 input  -60.11 | X-H torsion
[ 7974 7965 7964 7962 ] final   36.91 input  175.53 | X-H torsion
[ 8008 7997 7996 7995 ] final  -18.27 input   59.86 | X-H torsion
[ 10167 10162 10161 10158 ] final -121.70 input  -65.29 | X-H torsion
[ 10718 10713 10712 10709 ] final   -0.12 input   66.30 | X-H torsion
[ 10763 10752 10751 10750 ] final  101.15 input  -60.55 | X-H torsion
[ 11005 11000 10999 10996 ] final  -43.78 input  -57.11 | X-H torsion

> <Gold.Protein.ActiveResidues>
 VAL166  LYS551  ARG553  GLY616  TRP617  ASP618  TYR619  PRO620  LYS621  CYS622 
 ASP623  PHE694  ASN695  SER759  ASP760  ASP761  ALA762  ILE779  LEU786  VAL792 
 PHE793  MET794  SER795  GLU796  ALA797  LYS798  CYS799  TRP800  GLU811  SER814 

> <Gold.Protein.RotatedAtoms>
  152.5241  134.3328  159.9188 H   0  0  0  0  0  0  0  0  0  0  0  0  # atno 6907 bound_to 6896
  151.3277  133.4007  159.2667 H   0  0  0  0  0  0  0  0  0  0  0  0  # atno 6908 bound_to 6896
  150.9906  134.9259  159.7955 H   0  0  0  0  0  0  0  0  0  0  0  0  # atno 6909 bound_to 6896
  146.1177  139.5960  142.9310 H   0  0  0  0  0  0  0  0  0  0  0  0  # atno 7974 bound_to 7965
  154.4918  140.2120  155.9533 H   0  0  0  0  0  0  0  0  0  0  0  0  # atno 8008 bound_to 7997
  156.1315  140.3196  155.8325 H   0  0  0  0  0  0  0  0  0  0  0  0  # atno 8009 bound_to 7997
  155.4287  140.0502  157.3011 H   0  0  0  0  0  0  0  0  0  0  0  0  # atno 8010 bound_to 7997
  140.0222  143.5333  152.2215 H   0  0  0  0  0  0  0  0  0  0  0  0  # atno 10167 bound_to 10162
  156.8252  130.5470  149.5693 H   0  0  0  0  0  0  0  0  0  0  0  0  # atno 10718 bound_to 10713
  153.3231  135.4054  155.1433 H   0  0  0  0  0  0  0  0  0  0  0  0  # atno 10763 bound_to 10752
  154.8605  135.3592  154.5570 H   0  0  0  0  0  0  0  0  0  0  0  0  # atno 10764 bound_to 10752
  153.6005  135.7071  153.5445 H   0  0  0  0  0  0  0  0  0  0  0  0  # atno 10765 bound_to 10752
  141.0407  133.6781  156.2781 H   0  0  0  0  0  0  0  0  0  0  0  0  # atno 11005 bound_to 11000
  145.5532  141.0411  143.2267 LP  0  0  0  0  0  0  0  0  0  0  0  0  # atno 17320 bound_to 7965
  144.7568  139.7055  143.7251 LP  0  0  0  0  0  0  0  0  0  0  0  0  # atno 17321 bound_to 7965
  139.6132  144.7613  151.2904 LP  0  0  0  0  0  0  0  0  0  0  0  0  # atno 17342 bound_to 10162
  140.7338  143.6785  150.8021 LP  0  0  0  0  0  0  0  0  0  0  0  0  # atno 17343 bound_to 10162
  156.0966  130.5937  150.9823 LP  0  0  0  0  0  0  0  0  0  0  0  0  # atno 17370 bound_to 10713
  157.6436  131.0907  150.8200 LP  0  0  0  0  0  0  0  0  0  0  0  0  # atno 17371 bound_to 10713
  140.6240  134.5333  157.5551 LP  0  0  0  0  0  0  0  0  0  0  0  0  # atno 17394 bound_to 11000
  139.9274  134.8030  156.1030 LP  0  0  0  0  0  0  0  0  0  0  0  0  # atno 17395 bound_to 11000

$$$$
