AV-unprocessed.smi:37|AV-procd|sdf|316|dock10
  -GOLD-   2262016133D 1   1.00000     0.00000
 Structure written by MMmdl.
 44 45  0  0  0  0  0  0  0  0  1 V2000
  151.8631  145.3383  160.0864 C   0  0  0  0  0  0  0  0  0  0  0  0
  152.3483  144.2967  159.0683 C   0  0  0  0  0  0  0  0  0  0  0  0
  151.4775  143.0404  159.0116 C   0  0  0  0  0  0  0  0  0  0  0  0
  151.4599  142.2066  159.9187 O   0  0  0  0  0  0  0  0  0  0  0  0
  150.7600  142.9797  157.8812 O   0  0  0  0  0  0  0  0  0  0  0  0
  149.8045  141.9453  157.7075 C   0  0  0  0  0  0  0  0  0  0  0  0
  148.8747  142.2590  156.5265 C   0  0  1  0  0  0  0  0  0  0  0  0
  149.5616  142.1415  155.2805 O   0  0  0  0  0  0  0  0  0  0  0  0
  148.9297  141.2054  154.4569 C   0  0  1  0  0  0  0  0  0  0  0  0
  149.6652  139.8782  154.6037 N   0  0  0  0  0  0  0  0  0  0  0  0
  150.9287  139.7372  155.1746 C   0  0  0  0  0  0  0  0  0  0  0  0
  151.5727  138.5491  155.2630 C   0  0  0  0  0  0  0  0  0  0  0  0
  152.7913  138.4966  155.8268 F   0  0  0  0  0  0  0  0  0  0  0  0
  150.9633  137.3284  154.7473 C   0  0  0  0  0  0  0  0  0  0  0  0
  151.4712  136.2095  154.7774 O   0  0  0  0  0  0  0  0  0  0  0  0
  149.7016  137.5129  154.1786 N   0  0  0  0  0  0  0  0  0  0  0  0
  149.0260  138.7298  154.0815 C   0  0  0  0  0  0  0  0  0  0  0  0
  147.9149  138.7702  153.5548 O   0  0  0  0  0  0  0  0  0  0  0  0
  147.4691  141.1946  154.9208 C   0  0  2  0  0  0  0  0  0  0  0  0
  146.5492  142.7722  154.1137 Br  0  0  0  0  0  0  0  0  0  0  0  0
  147.6210  141.3804  156.4287 C   0  0  2  0  0  0  0  0  0  0  0  0
  146.4891  141.9961  157.0299 O   0  0  0  0  0  0  0  0  0  0  0  0
  146.5143  142.3290  158.3320 C   0  0  0  0  0  0  0  0  0  0  0  0
  147.4265  142.0738  159.1204 O   0  0  0  0  0  0  0  0  0  0  0  0
  145.2463  143.0732  158.7557 C   0  0  0  0  0  0  0  0  0  0  0  0
  145.5134  144.4890  159.2880 C   0  0  0  0  0  0  0  0  0  0  0  0
  149.2400  136.6966  153.8044 H   0  0  0  0  0  0  0  0  0  0  0  0
  152.5220  146.2067  160.0889 H   0  0  0  0  0  0  0  0  0  0  0  0
  151.8518  144.9302  161.0976 H   0  0  0  0  0  0  0  0  0  0  0  0
  150.8577  145.6886  159.8505 H   0  0  0  0  0  0  0  0  0  0  0  0
  152.3699  144.7426  158.0741 H   0  0  0  0  0  0  0  0  0  0  0  0
  153.3705  144.0006  159.3051 H   0  0  0  0  0  0  0  0  0  0  0  0
  150.3207  141.0015  157.5260 H   0  0  0  0  0  0  0  0  0  0  0  0
  149.2199  141.8267  158.6208 H   0  0  0  0  0  0  0  0  0  0  0  0
  148.5715  143.3045  156.5966 H   0  0  0  0  0  0  0  0  0  0  0  0
  149.0289  141.4564  153.3990 H   0  0  0  0  0  0  0  0  0  0  0  0
  151.4567  140.5842  155.5794 H   0  0  0  0  0  0  0  0  0  0  0  0
  146.9216  140.3067  154.6069 H   0  0  0  0  0  0  0  0  0  0  0  0
  147.8265  140.4225  156.9058 H   0  0  0  0  0  0  0  0  0  0  0  0
  144.5729  143.1245  157.8998 H   0  0  0  0  0  0  0  0  0  0  0  0
  144.7402  142.4833  159.5200 H   0  0  0  0  0  0  0  0  0  0  0  0
  144.5789  144.9761  159.5667 H   0  0  0  0  0  0  0  0  0  0  0  0
  145.9974  145.1122  158.5351 H   0  0  0  0  0  0  0  0  0  0  0  0
  146.1510  144.4693  160.1727 H   0  0  0  0  0  0  0  0  0  0  0  0
  1  2  1  0  0  0  0
  1 28  1  0  0  0  0
  1 29  1  0  0  0  0
  1 30  1  0  0  0  0
  2  3  1  0  0  0  0
  2 31  1  0  0  0  0
  2 32  1  0  0  0  0
  3  4  2  0  0  0  0
  3  5  1  0  0  0  0
  5  6  1  0  0  0  0
  6  7  1  0  0  0  0
  6 33  1  0  0  0  0
  6 34  1  0  0  0  0
  7 21  1  0  0  0  0
  7  8  1  0  0  0  0
  7 35  1  0  0  0  0
  8  9  1  0  0  0  0
  9 10  1  0  0  0  0
  9 19  1  0  0  0  0
  9 36  1  0  0  0  0
 10 17  1  0  0  0  0
 10 11  1  0  0  0  0
 11 12  2  0  0  0  0
 11 37  1  0  0  0  0
 12 13  1  0  0  0  0
 12 14  1  0  0  0  0
 14 15  2  0  0  0  0
 14 16  1  0  0  0  0
 16 27  1  0  0  0  0
 16 17  1  0  0  0  0
 17 18  2  0  0  0  0
 19 20  1  0  0  0  0
 19 21  1  0  0  0  0
 19 38  1  0  0  0  0
 21 22  1  0  0  0  0
 21 39  1  0  0  0  0
 22 23  1  0  0  0  0
 23 24  2  0  0  0  0
 23 25  1  0  0  0  0
 25 26  1  0  0  0  0
 25 40  1  0  0  0  0
 25 41  1  0  0  0  0
 26 42  1  0  0  0  0
 26 43  1  0  0  0  0
 26 44  1  0  0  0  0
M  END
> <s_m_source_file>
AV-unprocessed.smi

> <i_m_source_file_index>
37

> <i_lp_mmshare_version>
43012

> <i_f3d_flags>
0

> <s_epik_input>
W0NIM11bQ0gyXUMoPU8pT1tDSDJdW0NAQEhdMU9bQ0BASF0objJbY0hdYyhGKWMoPU8pW25IXWMyPU8pW0NAQEhdKEJyKVtDQEhdMU9DKD1PKVtDSDJdW0NIM10=

> <s_epik_cmdline>
J2VwaWtfcHl0aG9uJywgJy1waCcsICc3LjAnLCAnLXRuJywgJzgnLCAnLW1hJywgJzIwMCcsICctbWV0YWxfYmluZGluZycsICctaW1hZScsICc8aW5maWxlLm1hZT4nLCAnLW9tYWUnLCAnPG91dGZpbGUubWFlPic=

> <r_lp_tautomer_probability>
0.999537

> <r_epik_Ionization_Penalty>
0.104106

> <r_epik_Ionization_Penalty_Charging>
0.104106

> <r_epik_Ionization_Penalty_Neutral>
3.94675e-16

> <r_epik_State_Penalty>
0.0940182

> <r_epik_Charging_Adjusted_Penalty>
0.198124

> <i_epik_Tot_Q>
0

> <i_epik_Tot_abs_Q>
0

> <r_epik_Metal_State_Penalty>
3.05314

> <b_epik_Metal_Only>
0

> <s_epik_Chemistry_Notes>
This compound has an ester and may undergo hydrolysis at high or low pH. This compound contains an acetal/aminal-like group ( X-CH(R)-Y where X, Y are N, S, or O) that may be acid/base labile, releasing an aldehyde.

> <s_lp_Force_Field>
OPLS_2005

> <r_lp_Energy>
20.7256

> <b_lp_Chiralities_Consistent>
1

> <s_lp_Variant>
AV-unprocessed.smi:37-14

> <Gold.Version>
5.8.1

> <Gold.Id.Protein>
6NUR|6NUR_protein|mol2

> <Gold.PLP.Fitness>
44.9473

> <Gold.PLP.PLP>
-40.0096

> <Gold.PLP.part.hbond>
-4.4513

> <Gold.PLP.part.metal>
0.0000

> <Gold.PLP.part.buried>
-2.0348

> <Gold.PLP.part.nonpolar>
-38.2085

> <Gold.PLP.part.repulsive>
3.7891

> <Gold.PLP.ligand.clash>
0.0000

> <Gold.PLP.ligand.torsion>
0.5762

> <Gold.PLP.Chemscore.Hbond>
1.9873

> <Gold.PLP.Chemscore.CHOScore>
0.0000

> <Gold.PLP.Chemscore.Metal>
0.0000

> <Gold.Chemscore.Hbonds>
donor molecule, donor type, donor heavy atom, donor atom, acceptor molecule, acceptor atom, score
      L1  H    16    27       P1  7948  0.54
      P1  H  6934  6946       L1    24  0.48
      P1  H 10752 10763       L1    15  1.00

> <Gold.PLP.Chemscore.Internal.Correction>
0.1281

> <Gold.Rescore>
     Score         DG    S(hbond)    S(metal)    S(lipo)     H(rot)  DE(clash)    DE(int)     intcor
      5.85     -12.48       2.49        0.00      61.63       3.33       3.12       3.52       ----

> <Gold.Chemscore.Fitness>
5.8455

> <Gold.Chemscore.DG>
-12.4841

> <Gold.Chemscore.ZeroCoef>
-5.4800

> <Gold.Chemscore.Hbond>
2.4906

> <Gold.Chemscore.Metal>
0.0000

> <Gold.Chemscore.Lipo>
61.6341

> <Gold.Chemscore.Internal_Hbond>
0.0000

> <Gold.Chemscore.DEClash>
3.1226

> <Gold.Chemscore.DEInternal>
3.5161

> <Gold.Chemscore.Rot>
3.3303

> <Gold.Chemscore.Internal.Correction>
   9.000000E+99

> <Gold.Chemscore.Hbonds>
donor molecule, donor type, donor heavy atom, donor atom, acceptor molecule, acceptor atom, score
      L1  H    16    27       P1  7948  0.51
      P1  H  6934  6946       L1    24  0.42
      P1  H 10752 10763       L1    15  0.98

> <Gold.Chemscore.Hbond.Weighted>
-8.3185

> <Gold.Chemscore.Metal.Weighted>
-0.0000

> <Gold.Chemscore.Lipo.Weighted>
-7.2112

> <Gold.Chemscore.Internal_Hbond.Weighted>
0.0000

> <Gold.Chemscore.DEClash.Weighted>
3.1226

> <Gold.Chemscore.DEInternal.Weighted>
3.5161

> <Gold.Chemscore.Rot.Weighted>
8.5256

> <Gold.Chemscore.Internal.Correction.Weighted>
   9.000000E+99

> <Gold.Protein.RotatedTorsions>
[ 6907 6896 6895 6894 ] final  -46.43 input  -60.11 | X-H torsion
[ 7974 7965 7964 7962 ] final   18.42 input  175.53 | X-H torsion
[ 8008 7997 7996 7995 ] final   19.06 input   59.86 | X-H torsion
[ 10167 10162 10161 10158 ] final   57.47 input  -65.29 | X-H torsion
[ 10718 10713 10712 10709 ] final  -95.60 input   66.30 | X-H torsion
[ 10763 10752 10751 10750 ] final   55.08 input  -60.55 | X-H torsion
[ 11005 11000 10999 10996 ] final -109.98 input  -57.11 | X-H torsion

> <Gold.Protein.ActiveResidues>
 VAL166  LYS551  ARG553  GLY616  TRP617  ASP618  TYR619  PRO620  LYS621  CYS622 
 ASP623  PHE694  ASN695  SER759  ASP760  ASP761  ALA762  ILE779  LEU786  VAL792 
 PHE793  MET794  SER795  GLU796  ALA797  LYS798  CYS799  TRP800  GLU811  SER814 

> <Gold.Protein.RotatedAtoms>
  150.9114  134.8530  159.7427 H   0  0  0  0  0  0  0  0  0  0  0  0  # atno 6907 bound_to 6896
  152.4946  134.4354  159.9536 H   0  0  0  0  0  0  0  0  0  0  0  0  # atno 6908 bound_to 6896
  151.4396  133.3607  159.2815 H   0  0  0  0  0  0  0  0  0  0  0  0  # atno 6909 bound_to 6896
  146.2185  139.8459  142.8632 H   0  0  0  0  0  0  0  0  0  0  0  0  # atno 7974 bound_to 7965
  154.9151  140.3019  155.5245 H   0  0  0  0  0  0  0  0  0  0  0  0  # atno 8008 bound_to 7997
  156.3013  140.2382  156.4131 H   0  0  0  0  0  0  0  0  0  0  0  0  # atno 8009 bound_to 7997
  154.8386  140.0415  157.1515 H   0  0  0  0  0  0  0  0  0  0  0  0  # atno 8010 bound_to 7997
  140.1977  144.4021  150.6543 H   0  0  0  0  0  0  0  0  0  0  0  0  # atno 10167 bound_to 10162
  156.0046  130.5116  150.6101 H   0  0  0  0  0  0  0  0  0  0  0  0  # atno 10718 bound_to 10713
  152.9812  135.5723  154.5009 H   0  0  0  0  0  0  0  0  0  0  0  0  # atno 10763 bound_to 10752
  154.4529  135.2779  155.1770 H   0  0  0  0  0  0  0  0  0  0  0  0  # atno 10764 bound_to 10752
  154.3391  135.6233  153.5641 H   0  0  0  0  0  0  0  0  0  0  0  0  # atno 10765 bound_to 10752
  141.0818  133.9207  157.2273 H   0  0  0  0  0  0  0  0  0  0  0  0  # atno 11005 bound_to 11000
  145.2851  141.0150  143.3695 LP  0  0  0  0  0  0  0  0  0  0  0  0  # atno 17320 bound_to 7965
  144.9120  139.4517  143.6582 LP  0  0  0  0  0  0  0  0  0  0  0  0  # atno 17321 bound_to 7965
  140.6412  143.2204  151.6286 LP  0  0  0  0  0  0  0  0  0  0  0  0  # atno 17342 bound_to 10162
  139.5230  144.3146  152.0963 LP  0  0  0  0  0  0  0  0  0  0  0  0  # atno 17343 bound_to 10162
  157.3935  131.0799  151.1373 LP  0  0  0  0  0  0  0  0  0  0  0  0  # atno 17370 bound_to 10713
  157.2057  130.6415  149.5755 LP  0  0  0  0  0  0  0  0  0  0  0  0  # atno 17371 bound_to 10713
  139.9632  135.0149  156.9317 LP  0  0  0  0  0  0  0  0  0  0  0  0  # atno 17394 bound_to 11000
  140.5452  134.0681  155.7353 LP  0  0  0  0  0  0  0  0  0  0  0  0  # atno 17395 bound_to 11000

$$$$
