AV-unprocessed.smi:2289|AV-procd|sdf|9209|dock4
  -GOLD-   2272012423D 1   1.00000     0.00000
 Structure written by MMmdl.
 40 41  0  0  0  0  0  0  0  0  1 V2000
  152.6172  138.2593  154.0656 C   0  0  0  0  0  0  0  0  0  0  0  0
  151.3683  137.5093  154.4937 C   0  0  0  0  0  0  0  0  0  0  0  0
  151.5192  136.1294  154.6580 N   0  0  0  0  0  0  0  0  0  0  0  0
  150.5094  135.4102  155.0243 C   0  0  0  0  0  0  0  0  0  0  0  0
  149.2465  135.9771  155.2660 N   0  0  0  0  0  0  0  0  0  0  0  0
  148.1846  135.0484  155.6907 C   0  0  0  0  0  0  0  0  0  0  0  0
  147.3604  134.5198  154.4944 C   0  0  1  0  0  0  0  0  0  0  0  0
  147.0309  135.6109  153.6592 O   0  0  0  0  0  0  0  0  0  0  0  0
  148.1622  133.5028  153.6545 C   0  0  0  0  0  0  0  0  0  0  0  0
  147.2832  132.6219  152.7705 C   0  0  0  0  0  0  0  0  0  0  0  0
  146.5391  133.2546  151.7497 C   0  0  0  0  0  0  0  0  0  0  0  0
  145.7083  132.5100  150.8944 C   0  0  0  0  0  0  0  0  0  0  0  0
  145.6096  131.1185  151.0564 C   0  0  0  0  0  0  0  0  0  0  0  0
  146.3379  130.4772  152.0750 C   0  0  0  0  0  0  0  0  0  0  0  0
  147.1787  131.2126  152.9444 C   0  0  0  0  0  0  0  0  0  0  0  0
  147.9344  130.4727  154.0494 C   0  0  0  0  0  0  0  0  0  0  0  0
  147.7419  129.1546  153.9835 F   0  0  0  0  0  0  0  0  0  0  0  0
  149.2447  130.6915  153.9485 F   0  0  0  0  0  0  0  0  0  0  0  0
  147.5096  130.8836  155.2445 F   0  0  0  0  0  0  0  0  0  0  0  0
  149.0138  137.3148  155.1314 C   0  0  0  0  0  0  0  0  0  0  0  0
  147.9049  137.8059  155.3497 O   0  0  0  0  0  0  0  0  0  0  0  0
  150.1717  138.1206  154.7109 C   0  0  0  0  0  0  0  0  0  0  0  0
  149.9487  139.6191  154.5480 C   0  0  0  0  0  0  0  0  0  0  0  0
  152.4651  138.7314  153.0948 H   0  0  0  0  0  0  0  0  0  0  0  0
  153.4738  137.5895  153.9816 H   0  0  0  0  0  0  0  0  0  0  0  0
  152.8685  139.0310  154.7938 H   0  0  0  0  0  0  0  0  0  0  0  0
  150.5745  134.3308  155.1728 H   0  0  0  0  0  0  0  0  0  0  0  0
  148.5791  134.2192  156.2814 H   0  0  0  0  0  0  0  0  0  0  0  0
  147.5245  135.5735  156.3842 H   0  0  0  0  0  0  0  0  0  0  0  0
  146.4434  134.0548  154.8576 H   0  0  0  0  0  0  0  0  0  0  0  0
  147.7055  135.7045  153.0040 H   0  0  0  0  0  0  0  0  0  0  0  0
  148.9448  134.0111  153.0948 H   0  0  0  0  0  0  0  0  0  0  0  0
  148.6907  132.8249  154.3260 H   0  0  0  0  0  0  0  0  0  0  0  0
  146.6050  134.3248  151.6176 H   0  0  0  0  0  0  0  0  0  0  0  0
  145.1472  133.0064  150.1163 H   0  0  0  0  0  0  0  0  0  0  0  0
  144.9719  130.5420  150.4024 H   0  0  0  0  0  0  0  0  0  0  0  0
  146.2361  129.4075  152.1804 H   0  0  0  0  0  0  0  0  0  0  0  0
  149.6566  140.0605  155.5012 H   0  0  0  0  0  0  0  0  0  0  0  0
  149.1492  139.8050  153.8303 H   0  0  0  0  0  0  0  0  0  0  0  0
  150.8316  140.1498  154.1961 H   0  0  0  0  0  0  0  0  0  0  0  0
  1  2  1  0  0  0  0
  1 24  1  0  0  0  0
  1 25  1  0  0  0  0
  1 26  1  0  0  0  0
  2 22  2  0  0  0  0
  2  3  1  0  0  0  0
  3  4  2  0  0  0  0
  4  5  1  0  0  0  0
  4 27  1  0  0  0  0
  5  6  1  0  0  0  0
  5 20  1  0  0  0  0
  6  7  1  0  0  0  0
  6 28  1  0  0  0  0
  6 29  1  0  0  0  0
  7  8  1  0  0  0  0
  7  9  1  0  0  0  0
  7 30  1  0  0  0  0
  8 31  1  0  0  0  0
  9 10  1  0  0  0  0
  9 32  1  0  0  0  0
  9 33  1  0  0  0  0
 10 15  1  0  0  0  0
 10 11  2  0  0  0  0
 11 12  1  0  0  0  0
 11 34  1  0  0  0  0
 12 13  2  0  0  0  0
 12 35  1  0  0  0  0
 13 14  1  0  0  0  0
 13 36  1  0  0  0  0
 14 15  2  0  0  0  0
 14 37  1  0  0  0  0
 15 16  1  0  0  0  0
 16 17  1  0  0  0  0
 16 18  1  0  0  0  0
 16 19  1  0  0  0  0
 20 21  2  0  0  0  0
 20 22  1  0  0  0  0
 22 23  1  0  0  0  0
 23 38  1  0  0  0  0
 23 39  1  0  0  0  0
 23 40  1  0  0  0  0
M  END
> <s_m_source_file>
AV-unprocessed.smi

> <i_m_source_file_index>
2289

> <i_lp_mmshare_version>
43012

> <i_f3d_flags>
0

> <s_epik_input>
W0NIM11jMW5bY0hdbihjKD1PKWMxW0NIM10pW0NIMl1bQ0BIXShbT0hdKVtDSDJdYzJbY0hdW2NIXVtjSF1bY0hdYzJDKEYpKEYpRg==

> <s_epik_cmdline>
J2VwaWtfcHl0aG9uJywgJy1waCcsICc3LjAnLCAnLXRuJywgJzgnLCAnLW1hJywgJzIwMCcsICctbWV0YWxfYmluZGluZycsICctaW1hZScsICc8aW5maWxlLm1hZT4nLCAnLW9tYWUnLCAnPG91dGZpbGUubWFlPic=

> <r_lp_tautomer_probability>
1

> <r_epik_Ionization_Penalty>
8.92636e-05

> <r_epik_Ionization_Penalty_Charging>
8.63033e-08

> <r_epik_Ionization_Penalty_Neutral>
8.91773e-05

> <r_epik_State_Penalty>
-0

> <r_epik_Charging_Adjusted_Penalty>
8.63033e-08

> <i_epik_Tot_Q>
0

> <i_epik_Tot_abs_Q>
0

> <r_epik_Metal_State_Penalty>
-0

> <b_epik_Metal_Only>
0

> <s_lp_Force_Field>
OPLS_2005

> <r_lp_Energy>
23.2294

> <b_lp_Chiralities_Consistent>
1

> <s_lp_Variant>
AV-unprocessed.smi:2289-2

> <Gold.Version>
5.8.1

> <Gold.Id.Protein>
6NUR|6NUR_protein|mol2

> <Gold.PLP.Fitness>
40.9842

> <Gold.PLP.PLP>
-36.2305

> <Gold.PLP.part.hbond>
-2.0000

> <Gold.PLP.part.metal>
0.0000

> <Gold.PLP.part.buried>
-5.2225

> <Gold.PLP.part.nonpolar>
-29.7824

> <Gold.PLP.part.repulsive>
0.2007

> <Gold.PLP.ligand.clash>
1.3178

> <Gold.PLP.ligand.torsion>
0.6931

> <Gold.PLP.Chemscore.Hbond>
2.0000

> <Gold.PLP.Chemscore.CHOScore>
0.0000

> <Gold.PLP.Chemscore.Metal>
0.0000

> <Gold.Chemscore.Hbonds>
donor molecule, donor type, donor heavy atom, donor atom, acceptor molecule, acceptor atom, score
      L1  H     8    31       P1  7948  1.00
      P1  H 10752 10763       L1     3  1.00

> <Gold.PLP.Chemscore.Internal.Correction>
1.4577

> <Gold.Rescore>
     Score         DG    S(hbond)    S(metal)    S(lipo)     H(rot)  DE(clash)    DE(int)     intcor
     14.08     -15.63       1.94        0.00      83.03       2.37       0.06       1.49       ----

> <Gold.Chemscore.Fitness>
14.0783

> <Gold.Chemscore.DG>
-15.6278

> <Gold.Chemscore.ZeroCoef>
-5.4800

> <Gold.Chemscore.Hbond>
1.9448

> <Gold.Chemscore.Metal>
0.0000

> <Gold.Chemscore.Lipo>
83.0325

> <Gold.Chemscore.Internal_Hbond>
0.0000

> <Gold.Chemscore.DEClash>
0.0601

> <Gold.Chemscore.DEInternal>
1.4894

> <Gold.Chemscore.Rot>
2.3681

> <Gold.Chemscore.Internal.Correction>
   9.000000E+99

> <Gold.Chemscore.Hbonds>
donor molecule, donor type, donor heavy atom, donor atom, acceptor molecule, acceptor atom, score
      L1  H     8    31       P1  7948  1.00
      P1  H 10752 10763       L1     3  0.88

> <Gold.Chemscore.Hbond.Weighted>
-6.4955

> <Gold.Chemscore.Metal.Weighted>
-0.0000

> <Gold.Chemscore.Lipo.Weighted>
-9.7148

> <Gold.Chemscore.Internal_Hbond.Weighted>
0.0000

> <Gold.Chemscore.DEClash.Weighted>
0.0601

> <Gold.Chemscore.DEInternal.Weighted>
1.4894

> <Gold.Chemscore.Rot.Weighted>
6.0624

> <Gold.Chemscore.Internal.Correction.Weighted>
   9.000000E+99

> <Gold.Protein.RotatedTorsions>
[ 6907 6896 6895 6894 ] final  105.09 input  -60.11 | X-H torsion
[ 7974 7965 7964 7962 ] final -142.42 input  175.53 | X-H torsion
[ 8008 7997 7996 7995 ] final    3.68 input   59.86 | X-H torsion
[ 10167 10162 10161 10158 ] final   91.91 input  -65.29 | X-H torsion
[ 10718 10713 10712 10709 ] final   99.63 input   66.30 | X-H torsion
[ 10763 10752 10751 10750 ] final   69.42 input  -60.55 | X-H torsion
[ 11005 11000 10999 10996 ] final   52.25 input  -57.11 | X-H torsion

> <Gold.Protein.ActiveResidues>
 VAL166  LYS551  ARG553  GLY616  TRP617  ASP618  TYR619  PRO620  LYS621  CYS622 
 ASP623  PHE694  ASN695  SER759  ASP760  ASP761  ALA762  ILE779  LEU786  VAL792 
 PHE793  MET794  SER795  GLU796  ALA797  LYS798  CYS799  TRP800  GLU811  SER814 

> <Gold.Protein.RotatedAtoms>
  152.5242  133.9580  159.7703 H   0  0  0  0  0  0  0  0  0  0  0  0  # atno 6907 bound_to 6896
  150.9876  133.6173  159.2720 H   0  0  0  0  0  0  0  0  0  0  0  0  # atno 6908 bound_to 6896
  151.3328  135.0852  159.9397 H   0  0  0  0  0  0  0  0  0  0  0  0  # atno 6909 bound_to 6896
  144.8445  140.5960  143.5431 H   0  0  0  0  0  0  0  0  0  0  0  0  # atno 7974 bound_to 7965
  154.7066  140.2684  155.6669 H   0  0  0  0  0  0  0  0  0  0  0  0  # atno 8008 bound_to 7997
  156.2782  140.2761  156.1618 H   0  0  0  0  0  0  0  0  0  0  0  0  # atno 8009 bound_to 7997
  155.0692  140.0372  157.2593 H   0  0  0  0  0  0  0  0  0  0  0  0  # atno 8010 bound_to 7997
  139.8328  144.6679  150.9379 H   0  0  0  0  0  0  0  0  0  0  0  0  # atno 10167 bound_to 10162
  157.6872  131.0675  150.4977 H   0  0  0  0  0  0  0  0  0  0  0  0  # atno 10718 bound_to 10713
  153.0286  135.5211  154.7286 H   0  0  0  0  0  0  0  0  0  0  0  0  # atno 10763 bound_to 10752
  154.6320  135.2901  155.0207 H   0  0  0  0  0  0  0  0  0  0  0  0  # atno 10764 bound_to 10752
  154.1156  135.6615  153.4945 H   0  0  0  0  0  0  0  0  0  0  0  0  # atno 10765 bound_to 10752
  140.0865  134.5268  155.8894 H   0  0  0  0  0  0  0  0  0  0  0  0  # atno 11005 bound_to 11000
  145.4626  139.1511  143.3858 LP  0  0  0  0  0  0  0  0  0  0  0  0  # atno 17320 bound_to 7965
  146.2731  140.4757  142.8806 LP  0  0  0  0  0  0  0  0  0  0  0  0  # atno 17321 bound_to 7965
  140.7805  143.3985  151.1189 LP  0  0  0  0  0  0  0  0  0  0  0  0  # atno 17342 bound_to 10162
  139.7637  143.8597  152.3106 LP  0  0  0  0  0  0  0  0  0  0  0  0  # atno 17343 bound_to 10162
  156.5300  130.4182  149.6206 LP  0  0  0  0  0  0  0  0  0  0  0  0  # atno 17370 bound_to 10713
  156.3077  130.7212  151.2098 LP  0  0  0  0  0  0  0  0  0  0  0  0  # atno 17371 bound_to 10713
  141.2064  133.6655  156.6240 LP  0  0  0  0  0  0  0  0  0  0  0  0  # atno 17394 bound_to 11000
  140.3413  134.7846  157.4400 LP  0  0  0  0  0  0  0  0  0  0  0  0  # atno 17395 bound_to 11000

$$$$
