AV-unprocessed.smi:3253|AV-procd|sdf|12451|dock3
  -GOLD-   2272018343D 1   1.00000     0.00000
 Structure written by MMmdl.
 36 37  0  0  0  0  0  0  0  0  1 V2000
  151.2800  140.7828  157.4024 C   0  0  0  0  0  0  0  0  0  0  0  0
  150.4901  142.0273  156.9655 C   0  0  2  0  0  0  0  0  0  0  0  0
  149.8700  142.7995  158.1508 C   0  0  0  0  0  0  0  0  0  0  0  0
  150.8313  143.6430  158.8355 N   0  0  0  0  0  0  0  0  0  0  0  0
  151.9312  143.2332  159.5778 C   0  0  0  0  0  0  0  0  0  0  0  0
  152.5443  144.3775  160.0358 C   0  0  0  0  0  0  0  0  0  0  0  0
  151.8399  145.4953  159.5950 N   0  0  0  0  0  0  0  0  0  0  0  0
  150.8377  144.9817  158.8936 C   0  0  0  0  0  0  0  0  0  0  0  0
  149.4483  141.6265  156.0243 N   0  0  0  0  0  0  0  0  0  0  0  0
  149.6130  140.7757  154.9993 C   0  0  0  0  0  0  0  0  0  0  0  0
  150.6878  140.2353  154.7363 O   0  0  0  0  0  0  0  0  0  0  0  0
  148.3725  140.4922  154.1380 C   0  0  1  0  0  0  0  0  0  0  0  0
  147.2351  139.8698  154.9735 C   0  0  0  0  0  0  0  0  0  0  0  0
  146.1554  140.9389  154.9815 C   0  0  0  0  0  0  0  0  0  0  0  0
  145.1170  140.8348  155.6326 O   0  0  0  0  0  0  0  0  0  0  0  0
  146.4996  141.9720  154.2081 N   0  0  0  0  0  0  0  0  0  0  0  0
  145.7042  143.1721  153.9874 C   0  0  0  0  0  0  0  0  0  0  0  0
  147.7705  141.7792  153.5314 C   0  0  0  0  0  0  0  0  0  0  0  0
  152.1280  141.0478  158.0342 H   0  0  0  0  0  0  0  0  0  0  0  0
  151.6769  140.2477  156.5391 H   0  0  0  0  0  0  0  0  0  0  0  0
  150.6507  140.0907  157.9630 H   0  0  0  0  0  0  0  0  0  0  0  0
  151.1873  142.6880  156.4464 H   0  0  0  0  0  0  0  0  0  0  0  0
  149.0507  143.4337  157.8088 H   0  0  0  0  0  0  0  0  0  0  0  0
  149.4436  142.1034  158.8746 H   0  0  0  0  0  0  0  0  0  0  0  0
  152.1817  142.1914  159.7126 H   0  0  0  0  0  0  0  0  0  0  0  0
  153.4299  144.4814  160.6449 H   0  0  0  0  0  0  0  0  0  0  0  0
  150.0917  145.5935  158.4078 H   0  0  0  0  0  0  0  0  0  0  0  0
  148.5310  142.0246  156.1653 H   0  0  0  0  0  0  0  0  0  0  0  0
  148.6485  139.8095  153.3322 H   0  0  0  0  0  0  0  0  0  0  0  0
  146.8482  138.9666  154.5005 H   0  0  0  0  0  0  0  0  0  0  0  0
  147.5274  139.6161  155.9939 H   0  0  0  0  0  0  0  0  0  0  0  0
  144.7559  142.9191  153.5120 H   0  0  0  0  0  0  0  0  0  0  0  0
  146.2286  143.8785  153.3433 H   0  0  0  0  0  0  0  0  0  0  0  0
  145.4926  143.6707  154.9340 H   0  0  0  0  0  0  0  0  0  0  0  0
  148.4096  142.6544  153.6624 H   0  0  0  0  0  0  0  0  0  0  0  0
  147.5953  141.6576  152.4617 H   0  0  0  0  0  0  0  0  0  0  0  0
  1  2  1  0  0  0  0
  1 19  1  0  0  0  0
  1 20  1  0  0  0  0
  1 21  1  0  0  0  0
  2  3  1  0  0  0  0
  2  9  1  0  0  0  0
  2 22  1  0  0  0  0
  3  4  1  0  0  0  0
  3 23  1  0  0  0  0
  3 24  1  0  0  0  0
  4  8  1  0  0  0  0
  4  5  1  0  0  0  0
  5  6  2  0  0  0  0
  5 25  1  0  0  0  0
  6  7  1  0  0  0  0
  6 26  1  0  0  0  0
  7  8  2  0  0  0  0
  8 27  1  0  0  0  0
  9 10  1  0  0  0  0
  9 28  1  0  0  0  0
 10 11  2  0  0  0  0
 10 12  1  0  0  0  0
 12 18  1  0  0  0  0
 12 13  1  0  0  0  0
 12 29  1  0  0  0  0
 13 14  1  0  0  0  0
 13 30  1  0  0  0  0
 13 31  1  0  0  0  0
 14 15  2  0  0  0  0
 14 16  1  0  0  0  0
 16 17  1  0  0  0  0
 16 18  1  0  0  0  0
 17 32  1  0  0  0  0
 17 33  1  0  0  0  0
 17 34  1  0  0  0  0
 18 35  1  0  0  0  0
 18 36  1  0  0  0  0
M  END
> <s_m_source_file>
AV-unprocessed.smi

> <i_m_source_file_index>
3253

> <i_lp_mmshare_version>
43012

> <i_f3d_flags>
0

> <s_epik_input>
W2NIXTFuW2NIXVtjSF1uMVtDSDJdW0NAQEhdKFtDSDNdKVtOSF1DKD1PKVtDQEBIXTJbQ0gyXUMoPU8pTihbQ0gzXSlbQ0gyXTI=

> <s_epik_cmdline>
J2VwaWtfcHl0aG9uJywgJy1waCcsICc3LjAnLCAnLXRuJywgJzgnLCAnLW1hJywgJzIwMCcsICctbWV0YWxfYmluZGluZycsICctaW1hZScsICc8aW5maWxlLm1hZT4nLCAnLW9tYWUnLCAnPG91dGZpbGUubWFlPic=

> <r_lp_tautomer_probability>
1

> <r_epik_Ionization_Penalty>
0.628884

> <r_epik_Ionization_Penalty_Charging>
0.628884

> <r_epik_Ionization_Penalty_Neutral>
2.35084e-08

> <r_epik_State_Penalty>
0.64556

> <r_epik_Charging_Adjusted_Penalty>
1.27444

> <i_epik_Tot_Q>
0

> <i_epik_Tot_abs_Q>
0

> <r_epik_Metal_State_Penalty>
0.308736

> <b_epik_Metal_Only>
0

> <s_lp_Force_Field>
OPLS_2005

> <r_lp_Energy>
12.6609

> <b_lp_Chiralities_Consistent>
1

> <s_lp_Variant>
AV-unprocessed.smi:3253-7

> <Gold.Version>
5.8.1

> <Gold.Id.Protein>
6NUR|6NUR_protein|mol2

> <Gold.PLP.Fitness>
40.1635

> <Gold.PLP.PLP>
-34.9254

> <Gold.PLP.part.hbond>
-1.7514

> <Gold.PLP.part.metal>
0.0000

> <Gold.PLP.part.buried>
-5.5495

> <Gold.PLP.part.nonpolar>
-28.1866

> <Gold.PLP.part.repulsive>
0.3838

> <Gold.PLP.ligand.clash>
0.0000

> <Gold.PLP.ligand.torsion>
0.3965

> <Gold.PLP.Chemscore.Hbond>
1.0000

> <Gold.PLP.Chemscore.CHOScore>
1.0000

> <Gold.PLP.Chemscore.Metal>
0.0000

> <Gold.Chemscore.Hbonds>
donor molecule, donor type, donor heavy atom, donor atom, acceptor molecule, acceptor atom, score
      P1  H  7989  7998       L1    11  1.00
      L1  C     8    27       P1  8029  1.00

> <Gold.PLP.Chemscore.Internal.Correction>
0.0312

> <Gold.Rescore>
     Score         DG    S(hbond)    S(metal)    S(lipo)     H(rot)  DE(clash)    DE(int)     intcor
      9.53     -11.37       0.98        0.00      65.31       1.97       0.12       1.72       ----

> <Gold.Chemscore.Fitness>
9.5290

> <Gold.Chemscore.DG>
-11.3727

> <Gold.Chemscore.ZeroCoef>
-5.4800

> <Gold.Chemscore.Hbond>
0.9841

> <Gold.Chemscore.Metal>
0.0000

> <Gold.Chemscore.Lipo>
65.3070

> <Gold.Chemscore.Internal_Hbond>
0.0000

> <Gold.Chemscore.DEClash>
0.1230

> <Gold.Chemscore.DEInternal>
1.7207

> <Gold.Chemscore.Rot>
1.9669

> <Gold.Chemscore.Internal.Correction>
   9.000000E+99

> <Gold.Chemscore.Hbonds>
donor molecule, donor type, donor heavy atom, donor atom, acceptor molecule, acceptor atom, score
      P1  H  7989  7998       L1    11  0.95

> <Gold.Chemscore.Hbond.Weighted>
-3.2870

> <Gold.Chemscore.Metal.Weighted>
-0.0000

> <Gold.Chemscore.Lipo.Weighted>
-7.6409

> <Gold.Chemscore.Internal_Hbond.Weighted>
0.0000

> <Gold.Chemscore.DEClash.Weighted>
0.1230

> <Gold.Chemscore.DEInternal.Weighted>
1.7207

> <Gold.Chemscore.Rot.Weighted>
5.0352

> <Gold.Chemscore.Internal.Correction.Weighted>
   9.000000E+99

> <Gold.Protein.RotatedTorsions>
[ 6907 6896 6895 6894 ] final  120.43 input  -60.11 | X-H torsion
[ 7974 7965 7964 7962 ] final  -22.22 input  175.53 | X-H torsion
[ 8008 7997 7996 7995 ] final  -86.84 input   59.86 | X-H torsion
[ 10167 10162 10161 10158 ] final  -35.30 input  -65.29 | X-H torsion
[ 10718 10713 10712 10709 ] final  -39.35 input   66.30 | X-H torsion
[ 10763 10752 10751 10750 ] final  -49.86 input  -60.55 | X-H torsion
[ 11005 11000 10999 10996 ] final -144.49 input  -57.11 | X-H torsion

> <Gold.Protein.ActiveResidues>
 VAL166  LYS551  ARG553  GLY616  TRP617  ASP618  TYR619  PRO620  LYS621  CYS622 
 ASP623  PHE694  ASN695  SER759  ASP760  ASP761  ALA762  ILE779  LEU786  VAL792 
 PHE793  MET794  SER795  GLU796  ALA797  LYS798  CYS799  TRP800  GLU811  SER814 

> <Gold.Protein.RotatedAtoms>
  152.4398  133.7428  159.6649 H   0  0  0  0  0  0  0  0  0  0  0  0  # atno 6907 bound_to 6896
  150.8287  133.8117  159.3113 H   0  0  0  0  0  0  0  0  0  0  0  0  # atno 6908 bound_to 6896
  151.5777  135.1062  160.0062 H   0  0  0  0  0  0  0  0  0  0  0  0  # atno 6909 bound_to 6896
  146.1688  140.4449  142.8541 H   0  0  0  0  0  0  0  0  0  0  0  0  # atno 7974 bound_to 7965
  154.6564  140.0573  157.0013 H   0  0  0  0  0  0  0  0  0  0  0  0  # atno 8008 bound_to 7997
  155.1294  140.3255  155.4459 H   0  0  0  0  0  0  0  0  0  0  0  0  # atno 8009 bound_to 7997
  156.2599  140.1983  156.6413 H   0  0  0  0  0  0  0  0  0  0  0  0  # atno 8010 bound_to 7997
  140.7168  143.3487  151.2201 H   0  0  0  0  0  0  0  0  0  0  0  0  # atno 10167 bound_to 10162
  156.2934  130.4231  149.8215 H   0  0  0  0  0  0  0  0  0  0  0  0  # atno 10718 bound_to 10713
  154.1010  135.6563  153.4868 H   0  0  0  0  0  0  0  0  0  0  0  0  # atno 10763 bound_to 10752
  153.0288  135.5225  154.7286 H   0  0  0  0  0  0  0  0  0  0  0  0  # atno 10764 bound_to 10752
  154.6438  135.2992  155.0040 H   0  0  0  0  0  0  0  0  0  0  0  0  # atno 10765 bound_to 10752
  140.8018  134.2847  157.4975 H   0  0  0  0  0  0  0  0  0  0  0  0  # atno 11005 bound_to 11000
  144.8132  140.6422  143.6401 LP  0  0  0  0  0  0  0  0  0  0  0  0  # atno 17320 bound_to 7965
  145.4395  139.1537  143.3978 LP  0  0  0  0  0  0  0  0  0  0  0  0  # atno 17321 bound_to 7965
  139.7013  143.9529  152.2906 LP  0  0  0  0  0  0  0  0  0  0  0  0  # atno 17342 bound_to 10162
  139.9223  144.6792  150.8449 LP  0  0  0  0  0  0  0  0  0  0  0  0  # atno 17343 bound_to 10162
  156.5620  130.8387  151.3331 LP  0  0  0  0  0  0  0  0  0  0  0  0  # atno 17370 bound_to 10713
  157.7349  130.9753  150.2052 LP  0  0  0  0  0  0  0  0  0  0  0  0  # atno 17371 bound_to 10713
  139.8721  134.9434  156.3852 LP  0  0  0  0  0  0  0  0  0  0  0  0  # atno 17394 bound_to 11000
  140.9286  133.7595  155.9996 LP  0  0  0  0  0  0  0  0  0  0  0  0  # atno 17395 bound_to 11000

$$$$
