AV-unprocessed.smi:2740|AV-procd|sdf|10555|dock5
  -GOLD-   2272015 03D 1   1.00000     0.00000
 Structure written by MMmdl.
 31 32  0  0  0  0  0  0  0  0  1 V2000
  144.3352  131.7624  150.4353 C   0  0  0  0  0  0  0  0  0  0  0  0
  144.6043  133.1282  150.9701 C   0  0  0  0  0  0  0  0  0  0  0  0
  143.6862  134.0625  151.3854 C   0  0  0  0  0  0  0  0  0  0  0  0
  144.2571  135.2538  151.8401 N   0  0  0  0  0  0  0  0  0  0  0  0
  145.5925  135.2278  151.7718 C   0  0  0  0  0  0  0  0  0  0  0  0
  146.4370  136.2966  152.1722 N   0  0  0  0  0  0  0  0  0  0  0  0
  146.0928  137.4428  152.7848 C   0  0  0  0  0  0  0  0  0  0  0  0
  144.9460  137.7669  153.0945 O   0  0  0  0  0  0  0  0  0  0  0  0
  147.1681  138.2088  153.0198 N   0  0  0  0  0  0  0  0  0  0  0  0
  147.1497  139.5170  153.6671 C   0  0  0  0  0  0  0  0  0  0  0  0
  148.5691  140.0289  153.9666 C   0  0  1  0  0  0  0  0  0  0  0  0
  148.6386  141.4249  154.5873 C   0  0  0  0  0  0  0  0  0  0  0  0
  149.9681  141.3740  155.3035 C   0  0  0  0  0  0  0  0  0  0  0  0
  149.9806  139.9428  155.8323 C   0  0  0  0  0  0  0  0  0  0  0  0
  149.2101  139.1748  154.9106 O   0  0  0  0  0  0  0  0  0  0  0  0
  146.2372  133.7235  151.1333 S   0  0  0  0  0  0  0  0  0  0  0  0
  143.3087  131.4566  150.6389 H   0  0  0  0  0  0  0  0  0  0  0  0
  144.9998  131.0287  150.8919 H   0  0  0  0  0  0  0  0  0  0  0  0
  144.4883  131.7331  149.3565 H   0  0  0  0  0  0  0  0  0  0  0  0
  142.6108  133.9634  151.3938 H   0  0  0  0  0  0  0  0  0  0  0  0
  147.4188  136.1698  151.9762 H   0  0  0  0  0  0  0  0  0  0  0  0
  148.0707  137.8615  152.7307 H   0  0  0  0  0  0  0  0  0  0  0  0
  146.5990  140.2447  153.0684 H   0  0  0  0  0  0  0  0  0  0  0  0
  146.5978  139.4146  154.6018 H   0  0  0  0  0  0  0  0  0  0  0  0
  149.1700  140.0124  153.0559 H   0  0  0  0  0  0  0  0  0  0  0  0
  148.5805  142.2241  153.8477 H   0  0  0  0  0  0  0  0  0  0  0  0
  147.8332  141.5667  155.3094 H   0  0  0  0  0  0  0  0  0  0  0  0
  150.7824  141.5205  154.5926 H   0  0  0  0  0  0  0  0  0  0  0  0
  150.0610  142.1216  156.0917 H   0  0  0  0  0  0  0  0  0  0  0  0
  150.9914  139.5473  155.9332 H   0  0  0  0  0  0  0  0  0  0  0  0
  149.4989  139.8942  156.8095 H   0  0  0  0  0  0  0  0  0  0  0  0
  1  2  1  0  0  0  0
  1 17  1  0  0  0  0
  1 18  1  0  0  0  0
  1 19  1  0  0  0  0
  2 16  1  0  0  0  0
  2  3  2  0  0  0  0
  3  4  1  0  0  0  0
  3 20  1  0  0  0  0
  4  5  2  0  0  0  0
  5  6  1  0  0  0  0
  5 16  1  0  0  0  0
  6  7  1  0  0  0  0
  6 21  1  0  0  0  0
  7  8  2  0  0  0  0
  7  9  1  0  0  0  0
  9 10  1  0  0  0  0
  9 22  1  0  0  0  0
 10 11  1  0  0  0  0
 10 23  1  0  0  0  0
 10 24  1  0  0  0  0
 11 15  1  0  0  0  0
 11 12  1  0  0  0  0
 11 25  1  0  0  0  0
 12 13  1  0  0  0  0
 12 26  1  0  0  0  0
 12 27  1  0  0  0  0
 13 14  1  0  0  0  0
 13 28  1  0  0  0  0
 13 29  1  0  0  0  0
 14 15  1  0  0  0  0
 14 30  1  0  0  0  0
 14 31  1  0  0  0  0
M  END
> <s_m_source_file>
AV-unprocessed.smi

> <i_m_source_file_index>
2740

> <i_lp_mmshare_version>
43012

> <i_f3d_flags>
0

> <s_epik_input>
W0NIM11jMVtjSF1uYyhzMSlbTkhdQyg9TylbTkhdW0NIMl1bQ0BASF0yW0NIMl1bQ0gyXVtDSDJdTzI=

> <s_epik_cmdline>
J2VwaWtfcHl0aG9uJywgJy1waCcsICc3LjAnLCAnLXRuJywgJzgnLCAnLW1hJywgJzIwMCcsICctbWV0YWxfYmluZGluZycsICctaW1hZScsICc8aW5maWxlLm1hZT4nLCAnLW9tYWUnLCAnPG91dGZpbGUubWFlPic=

> <r_lp_tautomer_probability>
0.999

> <r_epik_Ionization_Penalty>
0.000387528

> <r_epik_Ionization_Penalty_Charging>
0

> <r_epik_Ionization_Penalty_Neutral>
0.000387528

> <r_epik_State_Penalty>
0.000177984

> <r_epik_Charging_Adjusted_Penalty>
0.000177984

> <i_epik_Tot_Q>
0

> <i_epik_Tot_abs_Q>
0

> <r_epik_Metal_State_Penalty>
0.00626158

> <b_epik_Metal_Only>
0

> <s_lp_Force_Field>
OPLS_2005

> <r_lp_Energy>
15.3507

> <b_lp_Chiralities_Consistent>
1

> <s_lp_Variant>
AV-unprocessed.smi:2740-2

> <Gold.Version>
5.8.1

> <Gold.Id.Protein>
6NUR|6NUR_protein|mol2

> <Gold.PLP.Fitness>
33.4794

> <Gold.PLP.PLP>
-25.2408

> <Gold.PLP.part.hbond>
-1.9537

> <Gold.PLP.part.metal>
0.0000

> <Gold.PLP.part.buried>
-2.7363

> <Gold.PLP.part.nonpolar>
-22.0233

> <Gold.PLP.part.repulsive>
1.0924

> <Gold.PLP.ligand.clash>
0.0000

> <Gold.PLP.ligand.torsion>
0.0516

> <Gold.PLP.Chemscore.Hbond>
1.8156

> <Gold.PLP.Chemscore.CHOScore>
0.9639

> <Gold.PLP.Chemscore.Metal>
0.0000

> <Gold.Chemscore.Hbonds>
donor molecule, donor type, donor heavy atom, donor atom, acceptor molecule, acceptor atom, score
      L1  H     6    21       P1  7948  0.96
      L1  H     9    22       P1  7948  0.84
      L1  C     3    20       P1 10186  0.97

> <Gold.PLP.Chemscore.Internal.Correction>
0.0032

> <Gold.Rescore>
     Score         DG    S(hbond)    S(metal)    S(lipo)     H(rot)  DE(clash)    DE(int)     intcor
     14.41     -15.90       1.96        0.00      60.78       1.27       0.16       1.33       ----

> <Gold.Chemscore.Fitness>
14.4082

> <Gold.Chemscore.DG>
-15.9009

> <Gold.Chemscore.ZeroCoef>
-5.4800

> <Gold.Chemscore.Hbond>
1.9627

> <Gold.Chemscore.Metal>
0.0000

> <Gold.Chemscore.Lipo>
60.7771

> <Gold.Chemscore.Internal_Hbond>
0.0000

> <Gold.Chemscore.DEClash>
0.1618

> <Gold.Chemscore.DEInternal>
1.3310

> <Gold.Chemscore.Rot>
1.2678

> <Gold.Chemscore.Internal.Correction>
   9.000000E+99

> <Gold.Chemscore.Hbonds>
donor molecule, donor type, donor heavy atom, donor atom, acceptor molecule, acceptor atom, score
      L1  H     6    21       P1  7948  0.91
      L1  H     9    22       P1  7948  0.77

> <Gold.Chemscore.Hbond.Weighted>
-6.5555

> <Gold.Chemscore.Metal.Weighted>
-0.0000

> <Gold.Chemscore.Lipo.Weighted>
-7.1109

> <Gold.Chemscore.Internal_Hbond.Weighted>
0.0000

> <Gold.Chemscore.DEClash.Weighted>
0.1618

> <Gold.Chemscore.DEInternal.Weighted>
1.3310

> <Gold.Chemscore.Rot.Weighted>
3.2455

> <Gold.Chemscore.Internal.Correction.Weighted>
   9.000000E+99

> <Gold.Protein.RotatedTorsions>
[ 6907 6896 6895 6894 ] final  166.66 input  -60.11 | X-H torsion
[ 7974 7965 7964 7962 ] final -158.68 input  175.53 | X-H torsion
[ 8008 7997 7996 7995 ] final   57.95 input   59.86 | X-H torsion
[ 10167 10162 10161 10158 ] final -129.31 input  -65.29 | X-H torsion
[ 10718 10713 10712 10709 ] final  -80.43 input   66.30 | X-H torsion
[ 10763 10752 10751 10750 ] final -146.31 input  -60.55 | X-H torsion
[ 11005 11000 10999 10996 ] final   13.95 input  -57.11 | X-H torsion

> <Gold.Protein.ActiveResidues>
 VAL166  LYS551  ARG553  GLY616  TRP617  ASP618  TYR619  PRO620  LYS621  CYS622 
 ASP623  PHE694  ASN695  SER759  ASP760  ASP761  ALA762  ILE779  LEU786  VAL792 
 PHE793  MET794  SER795  GLU796  ALA797  LYS798  CYS799  TRP800  GLU811  SER814 

> <Gold.Protein.RotatedAtoms>
  151.8755  133.3484  159.3748 H   0  0  0  0  0  0  0  0  0  0  0  0  # atno 6907 bound_to 6896
  150.7141  134.5071  159.5598 H   0  0  0  0  0  0  0  0  0  0  0  0  # atno 6908 bound_to 6896
  152.2612  134.8032  160.0481 H   0  0  0  0  0  0  0  0  0  0  0  0  # atno 6909 bound_to 6896
  144.7495  140.3792  143.6059 H   0  0  0  0  0  0  0  0  0  0  0  0  # atno 7974 bound_to 7965
  155.5420  140.3484  155.4449 H   0  0  0  0  0  0  0  0  0  0  0  0  # atno 8008 bound_to 7997
  156.0644  140.1348  156.9929 H   0  0  0  0  0  0  0  0  0  0  0  0  # atno 8009 bound_to 7997
  154.4496  140.0978  156.6550 H   0  0  0  0  0  0  0  0  0  0  0  0  # atno 8010 bound_to 7997
  139.9411  143.6162  152.2503 H   0  0  0  0  0  0  0  0  0  0  0  0  # atno 10167 bound_to 10162
  156.0070  130.4574  150.3799 H   0  0  0  0  0  0  0  0  0  0  0  0  # atno 10718 bound_to 10713
  154.8342  135.3390  154.6642 H   0  0  0  0  0  0  0  0  0  0  0  0  # atno 10763 bound_to 10752
  153.7258  135.6955  153.5006 H   0  0  0  0  0  0  0  0  0  0  0  0  # atno 10764 bound_to 10752
  153.2348  135.4404  155.0587 H   0  0  0  0  0  0  0  0  0  0  0  0  # atno 10765 bound_to 10752
  140.4749  134.0993  155.7739 H   0  0  0  0  0  0  0  0  0  0  0  0  # atno 11005 bound_to 11000
  145.6995  139.1658  143.2601 LP  0  0  0  0  0  0  0  0  0  0  0  0  # atno 17320 bound_to 7965
  146.1426  140.7037  142.9360 LP  0  0  0  0  0  0  0  0  0  0  0  0  # atno 17321 bound_to 7965
  139.6704  144.7661  151.1795 LP  0  0  0  0  0  0  0  0  0  0  0  0  # atno 17342 bound_to 10162
  140.7610  143.5874  150.8831 LP  0  0  0  0  0  0  0  0  0  0  0  0  # atno 17343 bound_to 10162
  157.1879  131.0408  151.2715 LP  0  0  0  0  0  0  0  0  0  0  0  0  # atno 17370 bound_to 10713
  157.4087  130.7373  149.6822 LP  0  0  0  0  0  0  0  0  0  0  0  0  # atno 17371 bound_to 10713
  141.1559  133.8884  157.1978 LP  0  0  0  0  0  0  0  0  0  0  0  0  # atno 17394 bound_to 11000
  139.9862  135.0081  156.9867 LP  0  0  0  0  0  0  0  0  0  0  0  0  # atno 17395 bound_to 11000

$$$$
