AV-unprocessed.smi:198|AV-procd|sdf|1556|dock10
  -GOLD-   2262019423D 1   1.00000     0.00000
 Structure written by MMmdl.
 59 63  0  0  0  0  0  0  0  0  2 V2000
  146.1579  132.1321  150.0696 C   0  0  0  0  0  0  0  0  0  0  0  0
  147.0022  131.8075  151.2396 N   0  3  1  0  0  0  0  0  0  0  0  0
  147.4955  133.0226  151.9326 C   0  0  0  0  0  0  0  0  0  0  0  0
  148.4844  132.6546  153.0484 C   0  0  0  0  0  0  0  0  0  0  0  0
  147.8395  131.6779  154.0555 C   0  0  1  0  0  0  0  0  0  0  0  0
  147.2626  130.4407  153.3277 C   0  0  2  0  0  0  0  0  0  0  0  0
  148.3738  129.4706  152.8751 C   0  0  0  0  0  0  0  0  0  0  0  0
  149.2707  129.0953  154.0631 C   0  0  0  0  0  0  0  0  0  0  0  0
  149.8383  130.3485  154.7467 C   0  0  0  0  0  0  0  0  0  0  0  0
  148.7634  131.2712  155.1221 N   0  0  0  0  0  0  0  0  0  0  0  0
  149.0513  132.2280  156.0431 C   0  0  0  0  0  0  0  0  0  0  0  0
  150.1678  132.9905  155.8952 N   0  0  0  0  0  0  0  0  0  0  0  0
  150.4527  133.9510  156.7789 C   0  0  0  0  0  0  0  0  0  0  0  0
  149.7681  134.3147  157.8643 N   0  0  0  0  0  0  0  0  0  0  0  0
  148.6497  133.5507  158.0248 C   0  0  0  0  0  0  0  0  0  0  0  0
  148.2234  132.4935  157.1713 C   0  0  0  0  0  0  0  0  0  0  0  0
  147.0522  131.9322  157.6659 N   0  0  0  0  0  0  0  0  0  0  0  0
  146.7976  132.6215  158.7442 C   0  0  0  0  0  0  0  0  0  0  0  0
  147.6961  133.6265  159.0261 N   0  0  0  0  0  0  0  0  0  0  0  0
  147.6659  134.5230  160.1478 C   0  0  0  0  0  0  0  0  0  0  0  0
  147.4503  133.9891  161.5642 C   0  0  0  0  0  0  0  0  0  0  0  0
  146.6101  135.2369  161.9204 C   0  0  0  0  0  0  0  0  0  0  0  0
  145.2827  134.9437  162.6360 C   0  0  0  0  0  0  0  0  0  0  0  0
  144.6355  133.8166  162.0808 O   0  0  0  0  0  0  0  0  0  0  0  0
  147.3148  136.3613  162.7124 C   0  0  0  0  0  0  0  0  0  0  0  0
  148.5014  136.8182  162.0960 O   0  0  0  0  0  0  0  0  0  0  0  0
  146.4782  135.4590  160.3961 C   0  0  0  0  0  0  0  0  0  0  0  0
  146.3337  130.8642  152.1713 C   0  0  0  0  0  0  0  0  0  0  0  0
  145.2509  132.6558  150.3750 H   0  0  0  0  0  0  0  0  0  0  0  0
  145.8673  131.2241  149.5403 H   0  0  0  0  0  0  0  0  0  0  0  0
  146.6995  132.7667  149.3671 H   0  0  0  0  0  0  0  0  0  0  0  0
  147.9884  133.6791  151.2145 H   0  0  0  0  0  0  0  0  0  0  0  0
  146.6520  133.5786  152.3450 H   0  0  0  0  0  0  0  0  0  0  0  0
  149.3812  132.2201  152.6066 H   0  0  0  0  0  0  0  0  0  0  0  0
  148.8061  133.5628  153.5593 H   0  0  0  0  0  0  0  0  0  0  0  0
  146.9918  132.1946  154.5029 H   0  0  0  0  0  0  0  0  0  0  0  0
  146.6481  129.8970  154.0472 H   0  0  0  0  0  0  0  0  0  0  0  0
  147.9344  128.5687  152.4475 H   0  0  0  0  0  0  0  0  0  0  0  0
  148.9796  129.9205  152.0881 H   0  0  0  0  0  0  0  0  0  0  0  0
  148.6938  128.5178  154.7866 H   0  0  0  0  0  0  0  0  0  0  0  0
  150.0847  128.4505  153.7308 H   0  0  0  0  0  0  0  0  0  0  0  0
  150.3967  130.0466  155.6340 H   0  0  0  0  0  0  0  0  0  0  0  0
  150.5429  130.8523  154.0842 H   0  0  0  0  0  0  0  0  0  0  0  0
  151.3568  134.5099  156.5871 H   0  0  0  0  0  0  0  0  0  0  0  0
  145.9403  132.4102  159.3665 H   0  0  0  0  0  0  0  0  0  0  0  0
  148.5870  135.1050  160.1032 H   0  0  0  0  0  0  0  0  0  0  0  0
  146.8662  133.0673  161.5746 H   0  0  0  0  0  0  0  0  0  0  0  0
  148.3670  133.8744  162.1436 H   0  0  0  0  0  0  0  0  0  0  0  0
  145.4368  134.7739  163.7022 H   0  0  0  0  0  0  0  0  0  0  0  0
  144.6007  135.7906  162.5543 H   0  0  0  0  0  0  0  0  0  0  0  0
  143.7969  133.7131  162.5042 H   0  0  0  0  0  0  0  0  0  0  0  0
  146.6539  137.2204  162.8318 H   0  0  0  0  0  0  0  0  0  0  0  0
  147.5780  136.0288  163.7168 H   0  0  0  0  0  0  0  0  0  0  0  0
  149.1801  136.1759  162.2374 H   0  0  0  0  0  0  0  0  0  0  0  0
  146.6445  136.4858  160.0684 H   0  0  0  0  0  0  0  0  0  0  0  0
  145.5401  135.0765  159.9930 H   0  0  0  0  0  0  0  0  0  0  0  0
  145.4387  131.3403  152.5753 H   0  0  0  0  0  0  0  0  0  0  0  0
  145.9973  129.9818  151.6254 H   0  0  0  0  0  0  0  0  0  0  0  0
  147.8167  131.3295  150.8810 H   0  0  0  0  0  0  0  0  0  0  0  0
  1  2  1  0  0  0  0
  1 29  1  0  0  0  0
  1 30  1  0  0  0  0
  1 31  1  0  0  0  0
  2 28  1  0  0  0  0
  2  3  1  0  0  0  0
  2 59  1  0  0  0  0
  3  4  1  0  0  0  0
  3 32  1  0  0  0  0
  3 33  1  0  0  0  0
  4  5  1  0  0  0  0
  4 34  1  0  0  0  0
  4 35  1  0  0  0  0
  5 10  1  0  0  0  0
  5  6  1  0  0  0  0
  5 36  1  0  0  0  0
  6  7  1  0  0  0  0
  6 28  1  0  0  0  0
  6 37  1  0  0  0  0
  7  8  1  0  0  0  0
  7 38  1  0  0  0  0
  7 39  1  0  0  0  0
  8  9  1  0  0  0  0
  8 40  1  0  0  0  0
  8 41  1  0  0  0  0
  9 10  1  0  0  0  0
  9 42  1  0  0  0  0
  9 43  1  0  0  0  0
 10 11  1  0  0  0  0
 11 16  1  0  0  0  0
 11 12  2  0  0  0  0
 12 13  1  0  0  0  0
 13 14  2  0  0  0  0
 13 44  1  0  0  0  0
 14 15  1  0  0  0  0
 15 19  1  0  0  0  0
 15 16  2  0  0  0  0
 16 17  1  0  0  0  0
 17 18  2  0  0  0  0
 18 19  1  0  0  0  0
 18 45  1  0  0  0  0
 19 20  1  0  0  0  0
 20 27  1  0  0  0  0
 20 21  1  0  0  0  0
 20 46  1  0  0  0  0
 21 22  1  0  0  0  0
 21 47  1  0  0  0  0
 21 48  1  0  0  0  0
 22 23  1  0  0  0  0
 22 25  1  0  0  0  0
 22 27  1  0  0  0  0
 23 24  1  0  0  0  0
 23 49  1  0  0  0  0
 23 50  1  0  0  0  0
 24 51  1  0  0  0  0
 25 26  1  0  0  0  0
 25 52  1  0  0  0  0
 25 53  1  0  0  0  0
 26 54  1  0  0  0  0
 27 55  1  0  0  0  0
 27 56  1  0  0  0  0
 28 57  1  0  0  0  0
 28 58  1  0  0  0  0
M  CHG  1   2   1
M  END
> <s_m_source_file>
AV-unprocessed.smi

> <i_m_source_file_index>
198

> <i_lp_mmshare_version>
43012

> <i_f3d_flags>
0

> <s_epik_input>
W0NIMl0xW0NIMl1OKFtDSDNdKVtDSDJdW0NAQEhdKFtDQEhdMTIpW0NIMl1bQ0gyXVtDSDJdTjJjKG5bY0hdbjMpYyhjMzQpbltjSF1uNFtDSF0oW0NIMl01KVtDSDJdQzUoW0NIMl1bT0hdKVtDSDJdW09IXQ==

> <s_epik_cmdline>
J2VwaWtfcHl0aG9uJywgJy1waCcsICc3LjAnLCAnLXRuJywgJzgnLCAnLW1hJywgJzIwMCcsICctbWV0YWxfYmluZGluZycsICctaW1hZScsICc8aW5maWxlLm1hZT4nLCAnLW9tYWUnLCAnPG91dGZpbGUubWFlPic=

> <r_lp_tautomer_probability>
1

> <r_epik_Ionization_Penalty>
0.00239938

> <r_epik_Ionization_Penalty_Charging>
0.00138697

> <r_epik_Ionization_Penalty_Neutral>
0.00101241

> <r_epik_State_Penalty>
-0

> <r_epik_Charging_Adjusted_Penalty>
0.00138697

> <i_epik_Tot_Q>
1

> <i_epik_Tot_abs_Q>
1

> <r_epik_Metal_State_Penalty>
-0

> <b_epik_Metal_Only>
0

> <s_lp_Force_Field>
OPLS_2005

> <r_lp_Energy>
58.4616

> <b_lp_Chiralities_Consistent>
1

> <s_lp_Variant>
AV-unprocessed.smi:198-5

> <Gold.Version>
5.8.1

> <Gold.Id.Protein>
6NUR|6NUR_protein|mol2

> <Gold.PLP.Fitness>
49.7248

> <Gold.PLP.PLP>
-41.3143

> <Gold.PLP.part.hbond>
-3.0000

> <Gold.PLP.part.metal>
0.0000

> <Gold.PLP.part.buried>
-4.1438

> <Gold.PLP.part.nonpolar>
-34.8211

> <Gold.PLP.part.repulsive>
0.0289

> <Gold.PLP.ligand.clash>
0.0000

> <Gold.PLP.ligand.torsion>
0.7499

> <Gold.PLP.Chemscore.Hbond>
3.0000

> <Gold.PLP.Chemscore.CHOScore>
0.0000

> <Gold.PLP.Chemscore.Metal>
0.0000

> <Gold.Chemscore.Hbonds>
donor molecule, donor type, donor heavy atom, donor atom, acceptor molecule, acceptor atom, score
      L1  H     2    59       P1 10747  0.65
      P1  H  6896  6908       L1    14  1.00
      P1  H  6931  6943       L1    26  0.99

> <Gold.PLP.Chemscore.Internal.Correction>
0.9103

> <Gold.Rescore>
     Score         DG    S(hbond)    S(metal)    S(lipo)     H(rot)  DE(clash)    DE(int)     intcor
     16.90     -17.70       2.50        0.00     100.56       3.08       0.08       0.72       ----

> <Gold.Chemscore.Fitness>
16.8998

> <Gold.Chemscore.DG>
-17.7031

> <Gold.Chemscore.ZeroCoef>
-5.4800

> <Gold.Chemscore.Hbond>
2.4962

> <Gold.Chemscore.Metal>
0.0000

> <Gold.Chemscore.Lipo>
100.5629

> <Gold.Chemscore.Internal_Hbond>
0.0000

> <Gold.Chemscore.DEClash>
0.0849

> <Gold.Chemscore.DEInternal>
0.7184

> <Gold.Chemscore.Rot>
3.0781

> <Gold.Chemscore.Internal.Correction>
   9.000000E+99

> <Gold.Chemscore.Hbonds>
donor molecule, donor type, donor heavy atom, donor atom, acceptor molecule, acceptor atom, score
      L1  H     2    59       P1 10747  0.65
      P1  H  6896  6908       L1    14  0.33
      P1  H  6931  6943       L1    26  0.79

> <Gold.Chemscore.Hbond.Weighted>
-8.3373

> <Gold.Chemscore.Metal.Weighted>
-0.0000

> <Gold.Chemscore.Lipo.Weighted>
-11.7659

> <Gold.Chemscore.Internal_Hbond.Weighted>
0.0000

> <Gold.Chemscore.DEClash.Weighted>
0.0849

> <Gold.Chemscore.DEInternal.Weighted>
0.7184

> <Gold.Chemscore.Rot.Weighted>
7.8800

> <Gold.Chemscore.Internal.Correction.Weighted>
   9.000000E+99

> <Gold.Protein.RotatedTorsions>
[ 6907 6896 6895 6894 ] final  131.64 input  -60.11 | X-H torsion
[ 7974 7965 7964 7962 ] final  -71.34 input  175.53 | X-H torsion
[ 8008 7997 7996 7995 ] final  -36.31 input   59.86 | X-H torsion
[ 10167 10162 10161 10158 ] final  103.89 input  -65.29 | X-H torsion
[ 10718 10713 10712 10709 ] final -175.24 input   66.30 | X-H torsion
[ 10763 10752 10751 10750 ] final  131.77 input  -60.55 | X-H torsion
[ 11005 11000 10999 10996 ] final -114.90 input  -57.11 | X-H torsion

> <Gold.Protein.ActiveResidues>
 VAL166  LYS551  ARG553  GLY616  TRP617  ASP618  TYR619  PRO620  LYS621  CYS622 
 ASP623  PHE694  ASN695  SER759  ASP760  ASP761  ALA762  ILE779  LEU786  VAL792 
 PHE793  MET794  SER795  GLU796  ALA797  LYS798  CYS799  TRP800  GLU811  SER814 

> <Gold.Protein.RotatedAtoms>
  152.3405  133.6061  159.5872 H   0  0  0  0  0  0  0  0  0  0  0  0  # atno 6907 bound_to 6896
  150.7476  133.9729  159.3560 H   0  0  0  0  0  0  0  0  0  0  0  0  # atno 6908 bound_to 6896
  151.7594  135.0814  160.0394 H   0  0  0  0  0  0  0  0  0  0  0  0  # atno 6909 bound_to 6896
  145.6793  140.9193  143.0841 H   0  0  0  0  0  0  0  0  0  0  0  0  # atno 7974 bound_to 7965
  154.4076  140.1634  156.2353 H   0  0  0  0  0  0  0  0  0  0  0  0  # atno 8008 bound_to 7997
  155.9248  140.3419  155.6178 H   0  0  0  0  0  0  0  0  0  0  0  0  # atno 8009 bound_to 7997
  155.7179  140.0764  157.2334 H   0  0  0  0  0  0  0  0  0  0  0  0  # atno 8010 bound_to 7997
  139.7224  144.7055  151.0852 H   0  0  0  0  0  0  0  0  0  0  0  0  # atno 10167 bound_to 10162
  156.7969  130.9538  151.3119 H   0  0  0  0  0  0  0  0  0  0  0  0  # atno 10718 bound_to 10713
  153.7798  135.3170  155.3364 H   0  0  0  0  0  0  0  0  0  0  0  0  # atno 10763 bound_to 10752
  154.8166  135.4632  154.0663 H   0  0  0  0  0  0  0  0  0  0  0  0  # atno 10764 bound_to 10752
  153.1948  135.6914  153.8392 H   0  0  0  0  0  0  0  0  0  0  0  0  # atno 10765 bound_to 10752
  141.0522  133.9669  157.2816 H   0  0  0  0  0  0  0  0  0  0  0  0  # atno 11005 bound_to 11000
  144.7031  139.8675  143.7438 LP  0  0  0  0  0  0  0  0  0  0  0  0  # atno 17320 bound_to 7965
  146.0978  139.3972  143.0365 LP  0  0  0  0  0  0  0  0  0  0  0  0  # atno 17321 bound_to 7965
  140.7756  143.5149  150.9607 LP  0  0  0  0  0  0  0  0  0  0  0  0  # atno 17342 bound_to 10162
  139.8836  143.7041  152.3154 LP  0  0  0  0  0  0  0  0  0  0  0  0  # atno 17343 bound_to 10162
  157.6573  130.8935  149.9755 LP  0  0  0  0  0  0  0  0  0  0  0  0  # atno 17370 bound_to 10713
  156.1125  130.3649  150.0025 LP  0  0  0  0  0  0  0  0  0  0  0  0  # atno 17371 bound_to 10713
  139.9360  135.0196  156.8556 LP  0  0  0  0  0  0  0  0  0  0  0  0  # atno 17394 bound_to 11000
  140.6033  134.0151  155.7546 LP  0  0  0  0  0  0  0  0  0  0  0  0  # atno 17395 bound_to 11000

$$$$
