AV-unprocessed.smi:72|AV-procd|sdf|741|dock3
  -GOLD-   2262017 73D 1   1.00000     0.00000
 Structure written by MMmdl.
 28 29  0  0  0  0  0  0  0  0  2 V2000
  154.1999  138.0515  155.0315 N   0  0  0  0  0  0  0  0  0  0  0  0
  152.9721  138.3389  155.0501 C   0  0  0  0  0  0  0  0  0  0  0  0
  152.0044  137.4129  154.5031 N   0  0  0  0  0  0  0  0  0  0  0  0
  150.7518  137.7500  154.5465 C   0  0  0  0  0  0  0  0  0  0  0  0
  150.3158  139.0152  155.1246 N   0  0  0  0  0  0  0  0  0  0  0  0
  148.8522  139.4211  155.1760 C   0  0  2  0  0  0  0  0  0  0  0  0
  148.0421  138.3557  154.7636 O   0  0  0  0  0  0  0  0  0  0  0  0
  147.4654  138.6380  153.4910 C   0  0  1  0  0  0  0  0  0  0  0  0
  146.1668  137.8353  153.3184 C   0  0  0  0  0  0  0  0  0  0  0  0
  146.4524  136.4537  153.2655 O   0  0  0  0  0  0  0  0  0  0  0  0
  147.2469  140.1478  153.5794 C   0  0  2  0  0  0  0  0  0  0  0  0
  147.0186  140.7531  152.3202 O   0  0  0  0  0  0  0  0  0  0  0  0
  148.5211  140.6282  154.2660 C   0  0  2  0  0  0  0  0  0  0  0  0
  149.5453  140.9355  153.3317 O   0  0  0  0  0  0  0  0  0  0  0  0
  151.2895  139.9069  155.6477 C   0  0  0  0  0  0  0  0  0  0  0  0
  150.9012  140.9780  156.1147 O   0  0  0  0  0  0  0  0  0  0  0  0
  152.6021  139.5461  155.6005 N   0  5  0  0  0  0  0  0  0  0  0  0
  148.6341  139.6020  156.2298 H   0  0  0  0  0  0  0  0  0  0  0  0
  148.1796  138.4153  152.6957 H   0  0  0  0  0  0  0  0  0  0  0  0
  146.3948  140.3548  154.2290 H   0  0  0  0  0  0  0  0  0  0  0  0
  148.3392  141.5104  154.8807 H   0  0  0  0  0  0  0  0  0  0  0  0
  154.3835  137.1518  154.6122 H   0  0  0  0  0  0  0  0  0  0  0  0
  149.9602  137.1121  154.1543 H   0  0  0  0  0  0  0  0  0  0  0  0
  145.4594  138.0473  154.1206 H   0  0  0  0  0  0  0  0  0  0  0  0
  145.6818  138.1036  152.3794 H   0  0  0  0  0  0  0  0  0  0  0  0
  147.3386  136.3419  152.9568 H   0  0  0  0  0  0  0  0  0  0  0  0
  147.7383  140.5329  151.7492 H   0  0  0  0  0  0  0  0  0  0  0  0
  149.6130  140.2189  152.7183 H   0  0  0  0  0  0  0  0  0  0  0  0
  1  2  2  0  0  0  0
  1 22  1  0  0  0  0
  2 17  1  0  0  0  0
  2  3  1  0  0  0  0
  3  4  2  0  0  0  0
  4  5  1  0  0  0  0
  4 23  1  0  0  0  0
  5  6  1  0  0  0  0
  5 15  1  0  0  0  0
  6 18  1  0  0  0  0
  6 13  1  0  0  0  0
  6  7  1  0  0  0  0
  7  8  1  0  0  0  0
  8 19  1  0  0  0  0
  8  9  1  0  0  0  0
  8 11  1  0  0  0  0
  9 10  1  0  0  0  0
  9 24  1  0  0  0  0
  9 25  1  0  0  0  0
 10 26  1  0  0  0  0
 11 20  1  0  0  0  0
 11 12  1  0  0  0  0
 11 13  1  0  0  0  0
 12 27  1  0  0  0  0
 13 21  1  0  0  0  0
 13 14  1  0  0  0  0
 14 28  1  0  0  0  0
 15 16  2  0  0  0  0
 15 17  1  0  0  0  0
M  CHG  1  17  -1
M  END
> <s_m_source_file>
AV-unprocessed.smi

> <i_m_source_file_index>
72

> <i_lp_mmshare_version>
43012

> <i_f3d_flags>
0

> <s_epik_input>
W05IMl1jMW5bY0hdbihjKD1PKW4xKVtDQEBIXTJPW0NASF0oW0NIMl1bT0hdKVtDQEBIXShbT0hdKVtDQEhdMltPSF0=

> <s_epik_cmdline>
J2VwaWtfcHl0aG9uJywgJy1waCcsICc3LjAnLCAnLXRuJywgJzgnLCAnLW1hJywgJzIwMCcsICctbWV0YWxfYmluZGluZycsICctaW1hZScsICc8aW5maWxlLm1hZT4nLCAnLW9tYWUnLCAnPG91dGZpbGUubWFlPic=

> <r_lp_tautomer_probability>
7.17554e-07

> <r_epik_Ionization_Penalty>
12.8705

> <r_epik_Ionization_Penalty_Charging>
5.64144

> <r_epik_Ionization_Penalty_Neutral>
7.22905

> <r_epik_State_Penalty>
3.30104

> <r_epik_Charging_Adjusted_Penalty>
8.94249

> <i_epik_Tot_Q>
-1

> <i_epik_Tot_abs_Q>
1

> <r_epik_Metal_State_Penalty>
0.529074

> <b_epik_Metal_Only>
1

> <s_epik_Chemistry_Notes>
This compound contains an acetal/aminal-like group ( X-CH(R)-Y where X, Y are N, S, or O) that may be acid/base labile, releasing an aldehyde.

> <s_lp_Force_Field>
OPLS_2005

> <r_lp_Energy>
42.5031

> <b_lp_Chiralities_Consistent>
1

> <s_lp_Variant>
AV-unprocessed.smi:72-79

> <Gold.Version>
5.8.1

> <Gold.Id.Protein>
6NUR|6NUR_protein|mol2

> <Gold.PLP.Fitness>
51.5777

> <Gold.PLP.PLP>
-28.5680

> <Gold.PLP.part.hbond>
-8.7785

> <Gold.PLP.part.metal>
0.0000

> <Gold.PLP.part.buried>
-2.4962

> <Gold.PLP.part.nonpolar>
-19.0884

> <Gold.PLP.part.repulsive>
0.3058

> <Gold.PLP.ligand.clash>
0.0000

> <Gold.PLP.ligand.torsion>
0.1152

> <Gold.PLP.Chemscore.Hbond>
6.7107

> <Gold.PLP.Chemscore.CHOScore>
1.0174

> <Gold.PLP.Chemscore.Metal>
0.0000

> <Gold.Chemscore.Hbonds>
donor molecule, donor type, donor heavy atom, donor atom, acceptor molecule, acceptor atom, score
      L1  H    10    26       P1  7948  1.00
      L1  H    12    27       P1  7957  1.00
      L1  H    14    28       P1  7957  0.74
      P1  H  7989  7998       L1    14  0.07
      P1  H  7997  8008       L1    17  1.70
      P1  H  8011  8017       L1    14  1.00
      P1  H 10752 10764       L1     3  0.82
      L1  C     4    23       P1  7948  0.78

> <Gold.PLP.Chemscore.Internal.Correction>
0.0557

> <Gold.Rescore>
     Score         DG    S(hbond)    S(metal)    S(lipo)     H(rot)  DE(clash)    DE(int)     intcor
     11.36     -12.26       4.29        0.00      23.86       4.04       0.59       0.31       ----

> <Gold.Chemscore.Fitness>
11.3634

> <Gold.Chemscore.DG>
-12.2607

> <Gold.Chemscore.ZeroCoef>
-5.4800

> <Gold.Chemscore.Hbond>
4.2912

> <Gold.Chemscore.Metal>
0.0000

> <Gold.Chemscore.Lipo>
23.8554

> <Gold.Chemscore.Internal_Hbond>
0.0000

> <Gold.Chemscore.DEClash>
0.5920

> <Gold.Chemscore.DEInternal>
0.3054

> <Gold.Chemscore.Rot>
4.0403

> <Gold.Chemscore.Internal.Correction>
   9.000000E+99

> <Gold.Chemscore.Hbonds>
donor molecule, donor type, donor heavy atom, donor atom, acceptor molecule, acceptor atom, score
      L1  H    10    26       P1  7948  0.99
      L1  H    12    27       P1  7957  0.97
      L1  H    14    28       P1  7957  0.71
      P1  H  7997  8008       L1    17  0.15
      P1  H  8011  8017       L1    14  0.45
      P1  H 10752 10764       L1     3  0.42

> <Gold.Chemscore.Hbond.Weighted>
-14.3327

> <Gold.Chemscore.Metal.Weighted>
-0.0000

> <Gold.Chemscore.Lipo.Weighted>
-2.7911

> <Gold.Chemscore.Internal_Hbond.Weighted>
0.0000

> <Gold.Chemscore.DEClash.Weighted>
0.5920

> <Gold.Chemscore.DEInternal.Weighted>
0.3054

> <Gold.Chemscore.Rot.Weighted>
10.3431

> <Gold.Chemscore.Internal.Correction.Weighted>
   9.000000E+99

> <Gold.Protein.RotatedTorsions>
[ 6907 6896 6895 6894 ] final -118.76 input  -60.11 | X-H torsion
[ 7974 7965 7964 7962 ] final  -38.71 input  175.53 | X-H torsion
[ 8008 7997 7996 7995 ] final  -26.41 input   59.86 | X-H torsion
[ 10167 10162 10161 10158 ] final  159.38 input  -65.29 | X-H torsion
[ 10718 10713 10712 10709 ] final  121.58 input   66.30 | X-H torsion
[ 10763 10752 10751 10750 ] final  -89.98 input  -60.55 | X-H torsion
[ 11005 11000 10999 10996 ] final  174.98 input  -57.11 | X-H torsion

> <Gold.Protein.ActiveResidues>
 VAL166  LYS551  ARG553  GLY616  TRP617  ASP618  TYR619  PRO620  LYS621  CYS622 
 ASP623  PHE694  ASN695  SER759  ASP760  ASP761  ALA762  ILE779  LEU786  VAL792 
 PHE793  MET794  SER795  GLU796  ALA797  LYS798  CYS799  TRP800  GLU811  SER814 

> <Gold.Protein.RotatedAtoms>
  150.8247  133.8192  159.3123 H   0  0  0  0  0  0  0  0  0  0  0  0  # atno 6907 bound_to 6896
  151.5940  135.1050  160.0055 H   0  0  0  0  0  0  0  0  0  0  0  0  # atno 6908 bound_to 6896
  152.4333  133.7275  159.6625 H   0  0  0  0  0  0  0  0  0  0  0  0  # atno 6909 bound_to 6896
  146.0462  140.6542  142.9063 H   0  0  0  0  0  0  0  0  0  0  0  0  # atno 7974 bound_to 7965
  154.4426  140.1900  156.0771 H   0  0  0  0  0  0  0  0  0  0  0  0  # atno 8008 bound_to 7997
  156.0467  140.3313  155.7278 H   0  0  0  0  0  0  0  0  0  0  0  0  # atno 8009 bound_to 7997
  155.5619  140.0604  157.2817 H   0  0  0  0  0  0  0  0  0  0  0  0  # atno 8010 bound_to 7997
  139.4832  144.4736  151.8543 H   0  0  0  0  0  0  0  0  0  0  0  0  # atno 10167 bound_to 10162
  157.5807  131.1075  150.8192 H   0  0  0  0  0  0  0  0  0  0  0  0  # atno 10718 bound_to 10713
  154.6610  135.5321  153.8018 H   0  0  0  0  0  0  0  0  0  0  0  0  # atno 10763 bound_to 10752
  153.0442  135.6505  154.0872 H   0  0  0  0  0  0  0  0  0  0  0  0  # atno 10764 bound_to 10752
  154.0780  135.2949  155.3275 H   0  0  0  0  0  0  0  0  0  0  0  0  # atno 10765 bound_to 10752
  140.3573  134.7144  157.4307 H   0  0  0  0  0  0  0  0  0  0  0  0  # atno 11005 bound_to 11000
  144.7099  140.3999  143.7088 LP  0  0  0  0  0  0  0  0  0  0  0  0  # atno 17320 bound_to 7965
  145.6801  139.1616  143.2705 LP  0  0  0  0  0  0  0  0  0  0  0  0  # atno 17321 bound_to 7965
  140.4206  144.2248  150.5887 LP  0  0  0  0  0  0  0  0  0  0  0  0  # atno 17342 bound_to 10162
  140.4877  143.2357  151.8863 LP  0  0  0  0  0  0  0  0  0  0  0  0  # atno 17343 bound_to 10162
  156.8639  130.5123  149.5301 LP  0  0  0  0  0  0  0  0  0  0  0  0  # atno 17370 bound_to 10713
  156.0853  130.5853  150.9637 LP  0  0  0  0  0  0  0  0  0  0  0  0  # atno 17371 bound_to 10713
  140.0655  134.5935  155.8700 LP  0  0  0  0  0  0  0  0  0  0  0  0  # atno 17394 bound_to 11000
  141.1995  133.6607  156.5845 LP  0  0  0  0  0  0  0  0  0  0  0  0  # atno 17395 bound_to 11000

$$$$
