AV-unprocessed.smi:1986|AV-procd|sdf|8046|dock2
  -GOLD-   2272010243D 1   1.00000     0.00000
 Structure written by MMmdl.
 46 47  0  0  0  0  0  0  0  0  2 V2000
  147.6838  141.3120  154.1673 C   0  0  0  0  0  0  0  0  0  0  0  0
  148.7448  140.2190  154.3860 C   0  0  0  0  0  0  0  0  0  0  0  0
  149.3073  140.1098  155.8409 C   0  0  1  0  0  0  0  0  0  0  0  0
  149.5484  141.5622  156.3316 C   0  0  0  0  0  0  0  0  0  0  0  0
  148.2094  139.4602  156.7513 C   0  0  0  0  0  0  0  0  0  0  0  0
  148.6413  138.2611  157.4700 N   0  0  0  0  0  0  0  0  0  0  0  0
  147.9208  137.5797  158.3739 C   0  0  0  0  0  0  0  0  0  0  0  0
  146.7956  137.9225  158.7400 O   0  0  0  0  0  0  0  0  0  0  0  0
  148.5840  136.3206  158.9511 C   0  0  0  0  0  0  0  0  0  0  0  0
  147.9373  135.8351  160.1789 N   0  0  0  0  0  0  0  0  0  0  0  0
  147.7385  136.8677  161.1923 N   0  5  0  0  0  0  0  0  0  0  0  0
  147.1124  136.5433  162.3546 C   0  0  0  0  0  0  0  0  0  0  0  0
  146.8865  137.3632  163.2415 O   0  0  0  0  0  0  0  0  0  0  0  0
  146.7019  135.1624  162.5483 C   0  0  0  0  0  0  0  0  0  0  0  0
  146.9303  134.2222  161.6103 C   0  0  0  0  0  0  0  0  0  0  0  0
  147.5901  134.5264  160.3464 C   0  0  0  0  0  0  0  0  0  0  0  0
  147.8130  133.6697  159.4902 O   0  0  0  0  0  0  0  0  0  0  0  0
  150.5584  139.2926  155.8772 N   0  0  0  0  0  0  0  0  0  0  0  0
  151.3770  139.4593  157.0860 C   0  0  0  0  0  0  0  0  0  0  0  0
  152.5790  138.4995  157.1145 C   0  0  0  0  0  0  0  0  0  0  0  0
  153.3705  138.6823  155.9478 O   0  0  0  0  0  0  0  0  0  0  0  0
  152.6293  138.4631  154.7548 C   0  0  0  0  0  0  0  0  0  0  0  0
  151.4331  139.4281  154.7038 C   0  0  0  0  0  0  0  0  0  0  0  0
  147.3302  141.2981  153.1364 H   0  0  0  0  0  0  0  0  0  0  0  0
  148.0821  142.3079  154.3593 H   0  0  0  0  0  0  0  0  0  0  0  0
  146.8167  141.1666  154.8113 H   0  0  0  0  0  0  0  0  0  0  0  0
  148.3331  139.2629  154.0646 H   0  0  0  0  0  0  0  0  0  0  0  0
  149.5558  140.3884  153.6772 H   0  0  0  0  0  0  0  0  0  0  0  0
  148.6498  142.1720  156.2391 H   0  0  0  0  0  0  0  0  0  0  0  0
  150.3173  142.0729  155.7532 H   0  0  0  0  0  0  0  0  0  0  0  0
  149.8439  141.5971  157.3800 H   0  0  0  0  0  0  0  0  0  0  0  0
  147.8747  140.1794  157.4994 H   0  0  0  0  0  0  0  0  0  0  0  0
  147.3199  139.2085  156.1738 H   0  0  0  0  0  0  0  0  0  0  0  0
  149.5566  137.9033  157.2388 H   0  0  0  0  0  0  0  0  0  0  0  0
  148.5789  135.5234  158.2053 H   0  0  0  0  0  0  0  0  0  0  0  0
  149.6361  136.5485  159.1313 H   0  0  0  0  0  0  0  0  0  0  0  0
  146.2055  134.8836  163.4661 H   0  0  0  0  0  0  0  0  0  0  0  0
  146.6099  133.2084  161.7977 H   0  0  0  0  0  0  0  0  0  0  0  0
  151.7435  140.4838  157.1546 H   0  0  0  0  0  0  0  0  0  0  0  0
  150.7958  139.2693  157.9854 H   0  0  0  0  0  0  0  0  0  0  0  0
  153.1939  138.6902  157.9943 H   0  0  0  0  0  0  0  0  0  0  0  0
  152.2434  137.4631  157.1776 H   0  0  0  0  0  0  0  0  0  0  0  0
  153.2819  138.6240  153.8965 H   0  0  0  0  0  0  0  0  0  0  0  0
  152.2920  137.4264  154.7107 H   0  0  0  0  0  0  0  0  0  0  0  0
  150.8919  139.2209  153.7834 H   0  0  0  0  0  0  0  0  0  0  0  0
  151.8116  140.4472  154.6280 H   0  0  0  0  0  0  0  0  0  0  0  0
  1  2  1  0  0  0  0
  1 24  1  0  0  0  0
  1 25  1  0  0  0  0
  1 26  1  0  0  0  0
  2  3  1  0  0  0  0
  2 27  1  0  0  0  0
  2 28  1  0  0  0  0
  3  4  1  0  0  0  0
  3  5  1  0  0  0  0
  3 18  1  0  0  0  0
  4 29  1  0  0  0  0
  4 30  1  0  0  0  0
  4 31  1  0  0  0  0
  5  6  1  0  0  0  0
  5 32  1  0  0  0  0
  5 33  1  0  0  0  0
  6  7  1  0  0  0  0
  6 34  1  0  0  0  0
  7  8  2  0  0  0  0
  7  9  1  0  0  0  0
  9 35  1  0  0  0  0
  9 36  1  0  0  0  0
  9 10  1  0  0  0  0
 10 11  1  0  0  0  0
 10 16  1  0  0  0  0
 11 12  1  0  0  0  0
 12 13  2  0  0  0  0
 12 14  1  0  0  0  0
 14 37  1  0  0  0  0
 14 15  2  0  0  0  0
 15 38  1  0  0  0  0
 15 16  1  0  0  0  0
 16 17  2  0  0  0  0
 18 23  1  0  0  0  0
 18 19  1  0  0  0  0
 19 20  1  0  0  0  0
 19 39  1  0  0  0  0
 19 40  1  0  0  0  0
 20 21  1  0  0  0  0
 20 41  1  0  0  0  0
 20 42  1  0  0  0  0
 21 22  1  0  0  0  0
 22 23  1  0  0  0  0
 22 43  1  0  0  0  0
 22 44  1  0  0  0  0
 23 45  1  0  0  0  0
 23 46  1  0  0  0  0
M  CHG  1  11  -1
M  END
> <s_m_source_file>
AV-unprocessed.smi

> <i_m_source_file_index>
1986

> <i_lp_mmshare_version>
43012

> <i_f3d_flags>
0

> <s_epik_input>
W0NIMl0xW0NIMl1PW0NIMl1bQ0gyXU4xW0NAQF0oW0NIM10pKFtDSDJdW0NIM10pW0NIMl1bTkhdQyg9TylbQ0gyXW4yW25IXWMoPU8pW2NIXVtjSF1jMj1P

> <s_epik_cmdline>
J2VwaWtfcHl0aG9uJywgJy1waCcsICc3LjAnLCAnLXRuJywgJzgnLCAnLW1hJywgJzIwMCcsICctbWV0YWxfYmluZGluZycsICctaW1hZScsICc8aW5maWxlLm1hZT4nLCAnLW9tYWUnLCAnPG91dGZpbGUubWFlPic=

> <r_lp_tautomer_probability>
1

> <r_epik_Ionization_Penalty>
0.416475

> <r_epik_Ionization_Penalty_Charging>
0.0978085

> <r_epik_Ionization_Penalty_Neutral>
0.318667

> <r_epik_State_Penalty>
0.355037

> <r_epik_Charging_Adjusted_Penalty>
0.452845

> <i_epik_Tot_Q>
-1

> <i_epik_Tot_abs_Q>
1

> <r_epik_Metal_State_Penalty>
0.355037

> <b_epik_Metal_Only>
0

> <s_lp_Force_Field>
OPLS_2005

> <r_lp_Energy>
59.1101

> <b_lp_Chiralities_Consistent>
1

> <s_lp_Variant>
AV-unprocessed.smi:1986-1

> <Gold.Version>
5.8.1

> <Gold.Id.Protein>
6NUR|6NUR_protein|mol2

> <Gold.PLP.Fitness>
45.4156

> <Gold.PLP.PLP>
-36.2353

> <Gold.PLP.part.hbond>
-4.9997

> <Gold.PLP.part.metal>
0.0000

> <Gold.PLP.part.buried>
-0.1480

> <Gold.PLP.part.nonpolar>
-31.8822

> <Gold.PLP.part.repulsive>
0.0861

> <Gold.PLP.ligand.clash>
0.0000

> <Gold.PLP.ligand.torsion>
2.2328

> <Gold.PLP.Chemscore.Hbond>
4.4960

> <Gold.PLP.Chemscore.CHOScore>
0.0000

> <Gold.PLP.Chemscore.Metal>
0.0000

> <Gold.Chemscore.Hbonds>
donor molecule, donor type, donor heavy atom, donor atom, acceptor molecule, acceptor atom, score
      P1  H  6931  6943       L1    11  1.90
      P1  H  6934  6947       L1    11  0.86
      P1  H  7997  8008       L1    21  0.94

> <Gold.PLP.Chemscore.Internal.Correction>
0.1579

> <Gold.Rescore>
     Score         DG    S(hbond)    S(metal)    S(lipo)     H(rot)  DE(clash)    DE(int)     intcor
      9.46     -14.67       2.25        0.00      67.33       2.42       1.51       3.71       ----

> <Gold.Chemscore.Fitness>
9.4564

> <Gold.Chemscore.DG>
-14.6745

> <Gold.Chemscore.ZeroCoef>
-5.4800

> <Gold.Chemscore.Hbond>
2.2488

> <Gold.Chemscore.Metal>
0.0000

> <Gold.Chemscore.Lipo>
67.3317

> <Gold.Chemscore.Internal_Hbond>
0.0000

> <Gold.Chemscore.DEClash>
1.5104

> <Gold.Chemscore.DEInternal>
3.7077

> <Gold.Chemscore.Rot>
2.4197

> <Gold.Chemscore.Internal.Correction>
   9.000000E+99

> <Gold.Chemscore.Hbonds>
donor molecule, donor type, donor heavy atom, donor atom, acceptor molecule, acceptor atom, score
      P1  H  6931  6943       L1    11  0.20
      P1  H  6934  6947       L1    11  0.14
      P1  H  7997  8008       L1    21  0.50

> <Gold.Chemscore.Hbond.Weighted>
-7.5110

> <Gold.Chemscore.Metal.Weighted>
-0.0000

> <Gold.Chemscore.Lipo.Weighted>
-7.8778

> <Gold.Chemscore.Internal_Hbond.Weighted>
0.0000

> <Gold.Chemscore.DEClash.Weighted>
1.5104

> <Gold.Chemscore.DEInternal.Weighted>
3.7077

> <Gold.Chemscore.Rot.Weighted>
6.1943

> <Gold.Chemscore.Internal.Correction.Weighted>
   9.000000E+99

> <Gold.Protein.RotatedTorsions>
[ 6907 6896 6895 6894 ] final -171.38 input  -60.11 | X-H torsion
[ 7974 7965 7964 7962 ] final -160.33 input  175.53 | X-H torsion
[ 8008 7997 7996 7995 ] final  -38.19 input   59.86 | X-H torsion
[ 10167 10162 10161 10158 ] final   22.21 input  -65.29 | X-H torsion
[ 10718 10713 10712 10709 ] final   63.90 input   66.30 | X-H torsion
[ 10763 10752 10751 10750 ] final -113.58 input  -60.55 | X-H torsion
[ 11005 11000 10999 10996 ] final   62.12 input  -57.11 | X-H torsion

> <Gold.Protein.ActiveResidues>
 VAL166  LYS551  ARG553  GLY616  TRP617  ASP618  TYR619  PRO620  LYS621  CYS622 
 ASP623  PHE694  ASN695  SER759  ASP760  ASP761  ALA762  ILE779  LEU786  VAL792 
 PHE793  MET794  SER795  GLU796  ALA797  LYS798  CYS799  TRP800  GLU811  SER814 

> <Gold.Protein.RotatedAtoms>
  151.5229  133.3463  159.2904 H   0  0  0  0  0  0  0  0  0  0  0  0  # atno 6907 bound_to 6896
  150.8641  134.8002  159.7116 H   0  0  0  0  0  0  0  0  0  0  0  0  # atno 6908 bound_to 6896
  152.4651  134.5103  159.9803 H   0  0  0  0  0  0  0  0  0  0  0  0  # atno 6909 bound_to 6896
  144.7431  140.3557  143.6106 H   0  0  0  0  0  0  0  0  0  0  0  0  # atno 7974 bound_to 7965
  154.4041  140.1584  156.2660 H   0  0  0  0  0  0  0  0  0  0  0  0  # atno 8008 bound_to 7997
  155.8995  140.3434  155.5993 H   0  0  0  0  0  0  0  0  0  0  0  0  # atno 8009 bound_to 7997
  155.7464  140.0799  157.2212 H   0  0  0  0  0  0  0  0  0  0  0  0  # atno 8010 bound_to 7997
  140.5366  143.9750  150.6495 H   0  0  0  0  0  0  0  0  0  0  0  0  # atno 10167 bound_to 10162
  157.6003  130.9131  149.9776 H   0  0  0  0  0  0  0  0  0  0  0  0  # atno 10718 bound_to 10713
  154.8402  135.4449  154.1371 H   0  0  0  0  0  0  0  0  0  0  0  0  # atno 10763 bound_to 10752
  153.2566  135.6932  153.7628 H   0  0  0  0  0  0  0  0  0  0  0  0  # atno 10764 bound_to 10752
  153.6921  135.3385  155.3180 H   0  0  0  0  0  0  0  0  0  0  0  0  # atno 10765 bound_to 10752
  140.0114  134.6291  155.9775 H   0  0  0  0  0  0  0  0  0  0  0  0  # atno 11005 bound_to 11000
  145.7230  139.1715  143.2474 LP  0  0  0  0  0  0  0  0  0  0  0  0  # atno 17320 bound_to 7965
  146.1263  140.7244  142.9433 LP  0  0  0  0  0  0  0  0  0  0  0  0  # atno 17321 bound_to 7965
  140.3139  143.3180  152.0852 LP  0  0  0  0  0  0  0  0  0  0  0  0  # atno 17342 bound_to 10162
  139.4973  144.6618  151.6447 LP  0  0  0  0  0  0  0  0  0  0  0  0  # atno 17343 bound_to 10162
  156.1075  130.3652  150.0108 LP  0  0  0  0  0  0  0  0  0  0  0  0  # atno 17370 bound_to 10713
  156.8212  130.9359  151.3641 LP  0  0  0  0  0  0  0  0  0  0  0  0  # atno 17371 bound_to 10713
  141.1713  133.6537  156.4663 LP  0  0  0  0  0  0  0  0  0  0  0  0  # atno 17394 bound_to 11000
  140.4548  134.6896  157.5057 LP  0  0  0  0  0  0  0  0  0  0  0  0  # atno 17395 bound_to 11000

$$$$
