AV-unprocessed.smi:513|AV-procd|sdf|2773|dock1
  -GOLD-   2262023243D 1   1.00000     0.00000
 Structure written by MMmdl.
 42 44  0  0  0  0  0  0  0  0  1 V2000
  150.1213  138.8100  154.7463 C   0  0  0  0  0  0  0  0  0  0  0  0
  150.7643  140.0479  154.9876 O   0  0  0  0  0  0  0  0  0  0  0  0
  151.8658  139.9288  155.8734 C   0  0  0  0  0  0  0  0  0  0  0  0
  151.3540  139.6377  157.2906 C   0  0  0  0  0  0  0  0  0  0  0  0
  151.7898  140.6561  158.2443 N   0  0  0  0  0  0  0  0  0  0  0  0
  152.5721  140.5224  159.3525 C   0  0  0  0  0  0  0  0  0  0  0  0
  153.1444  139.3054  159.7249 N   0  0  0  0  0  0  0  0  0  0  0  0
  153.4911  138.9421  161.0960 C   0  0  0  0  0  0  0  0  0  0  0  0
  152.9876  137.5241  161.4345 C   0  0  0  0  0  0  0  0  0  0  0  0
  153.6021  136.5520  160.5360 N   0  0  0  0  0  0  0  0  0  0  0  0
  153.2489  136.8979  159.1634 C   0  0  0  0  0  0  0  0  0  0  0  0
  153.7629  138.3160  158.8450 C   0  0  0  0  0  0  0  0  0  0  0  0
  152.7085  141.6393  160.0739 N   0  0  0  0  0  0  0  0  0  0  0  0
  151.9793  142.5699  159.3516 C   0  0  0  0  0  0  0  0  0  0  0  0
  151.4181  142.0017  158.2556 C   0  0  0  0  0  0  0  0  0  0  0  0
  150.5606  142.7561  157.3322 C   0  0  0  0  0  0  0  0  0  0  0  0
  150.0285  142.2602  156.3414 O   0  0  0  0  0  0  0  0  0  0  0  0
  150.4105  144.0552  157.6882 N   0  0  0  0  0  0  0  0  0  0  0  0
  150.9502  144.6889  158.7742 C   0  0  0  0  0  0  0  0  0  0  0  0
  150.7139  145.8818  158.9628 O   0  0  0  0  0  0  0  0  0  0  0  0
  151.7416  143.9471  159.6160 N   0  0  0  0  0  0  0  0  0  0  0  0
  152.3620  144.5273  160.8086 C   0  0  0  0  0  0  0  0  0  0  0  0
  149.8302  144.6198  157.0848 H   0  0  0  0  0  0  0  0  0  0  0  0
  149.2874  138.9594  154.0606 H   0  0  0  0  0  0  0  0  0  0  0  0
  149.7267  138.3843  155.6698 H   0  0  0  0  0  0  0  0  0  0  0  0
  150.8059  138.0922  154.2923 H   0  0  0  0  0  0  0  0  0  0  0  0
  152.5236  139.1229  155.5451 H   0  0  0  0  0  0  0  0  0  0  0  0
  152.4507  140.8499  155.8678 H   0  0  0  0  0  0  0  0  0  0  0  0
  150.2715  139.5675  157.2740 H   0  0  0  0  0  0  0  0  0  0  0  0
  151.6971  138.6608  157.6283 H   0  0  0  0  0  0  0  0  0  0  0  0
  154.5714  139.0108  161.2332 H   0  0  0  0  0  0  0  0  0  0  0  0
  153.0428  139.6590  161.7847 H   0  0  0  0  0  0  0  0  0  0  0  0
  153.2465  137.2689  162.4622 H   0  0  0  0  0  0  0  0  0  0  0  0
  151.9010  137.4700  161.3544 H   0  0  0  0  0  0  0  0  0  0  0  0
  153.2612  135.6261  160.7519 H   0  0  0  0  0  0  0  0  0  0  0  0
  153.7035  136.1721  158.4888 H   0  0  0  0  0  0  0  0  0  0  0  0
  152.1684  136.8328  159.0280 H   0  0  0  0  0  0  0  0  0  0  0  0
  153.5821  138.5686  157.8011 H   0  0  0  0  0  0  0  0  0  0  0  0
  154.8459  138.3563  158.9708 H   0  0  0  0  0  0  0  0  0  0  0  0
  152.1888  145.5977  160.9240 H   0  0  0  0  0  0  0  0  0  0  0  0
  153.4413  144.3751  160.7781 H   0  0  0  0  0  0  0  0  0  0  0  0
  151.9796  144.0344  161.7029 H   0  0  0  0  0  0  0  0  0  0  0  0
  1  2  1  0  0  0  0
  1 24  1  0  0  0  0
  1 25  1  0  0  0  0
  1 26  1  0  0  0  0
  2  3  1  0  0  0  0
  3  4  1  0  0  0  0
  3 27  1  0  0  0  0
  3 28  1  0  0  0  0
  4  5  1  0  0  0  0
  4 29  1  0  0  0  0
  4 30  1  0  0  0  0
  5 15  1  0  0  0  0
  5  6  1  0  0  0  0
  6  7  1  0  0  0  0
  6 13  2  0  0  0  0
  7 12  1  0  0  0  0
  7  8  1  0  0  0  0
  8  9  1  0  0  0  0
  8 31  1  0  0  0  0
  8 32  1  0  0  0  0
  9 10  1  0  0  0  0
  9 33  1  0  0  0  0
  9 34  1  0  0  0  0
 10 11  1  0  0  0  0
 10 35  1  0  0  0  0
 11 12  1  0  0  0  0
 11 36  1  0  0  0  0
 11 37  1  0  0  0  0
 12 38  1  0  0  0  0
 12 39  1  0  0  0  0
 13 14  1  0  0  0  0
 14 21  1  0  0  0  0
 14 15  2  0  0  0  0
 15 16  1  0  0  0  0
 16 17  2  0  0  0  0
 16 18  1  0  0  0  0
 18 23  1  0  0  0  0
 18 19  1  0  0  0  0
 19 20  2  0  0  0  0
 19 21  1  0  0  0  0
 21 22  1  0  0  0  0
 22 40  1  0  0  0  0
 22 41  1  0  0  0  0
 22 42  1  0  0  0  0
M  END
> <s_m_source_file>
AV-unprocessed.smi

> <i_m_source_file_index>
513

> <i_lp_mmshare_version>
43012

> <i_f3d_flags>
0

> <s_epik_input>
W0NIM11uMWMoPU8pW25IXWMoPU8pYyhjMTIpbihbQ0gyXVtDSDJdT1tDSDNdKWMobjIpTjNbQ0gyXVtDSDJdW05IXVtDSDJdW0NIMl0z

> <s_epik_cmdline>
J2VwaWtfcHl0aG9uJywgJy1waCcsICc3LjAnLCAnLXRuJywgJzgnLCAnLW1hJywgJzIwMCcsICctbWV0YWxfYmluZGluZycsICctaW1hZScsICc8aW5maWxlLm1hZT4nLCAnLW9tYWUnLCAnPG91dGZpbGUubWFlPic=

> <r_epik_Ionization_Penalty>
2.51416

> <r_epik_Ionization_Penalty_Charging>
1.6225e-05

> <r_epik_Ionization_Penalty_Neutral>
2.51414

> <r_epik_State_Penalty>
2.67993

> <r_epik_Charging_Adjusted_Penalty>
2.67995

> <i_epik_Tot_Q>
0

> <i_epik_Tot_abs_Q>
0

> <r_epik_Metal_State_Penalty>
2.70812

> <b_epik_Metal_Only>
0

> <s_lp_Force_Field>
OPLS_2005

> <r_lp_Energy>
48.0947

> <b_lp_Chiralities_Consistent>
1

> <s_lp_Variant>
AV-unprocessed.smi:513-2

> <Gold.Version>
5.8.1

> <Gold.Id.Protein>
6NUR|6NUR_protein|mol2

> <Gold.PLP.Fitness>
43.5135

> <Gold.PLP.PLP>
-38.9413

> <Gold.PLP.part.hbond>
-3.1768

> <Gold.PLP.part.metal>
0.0000

> <Gold.PLP.part.buried>
-6.5684

> <Gold.PLP.part.nonpolar>
-29.2090

> <Gold.PLP.part.repulsive>
0.5853

> <Gold.PLP.ligand.clash>
0.0000

> <Gold.PLP.ligand.torsion>
0.8724

> <Gold.PLP.Chemscore.Hbond>
2.0000

> <Gold.PLP.Chemscore.CHOScore>
0.0000

> <Gold.PLP.Chemscore.Metal>
0.0000

> <Gold.Chemscore.Hbonds>
donor molecule, donor type, donor heavy atom, donor atom, acceptor molecule, acceptor atom, score
      L1  H    18    23       P1  8028  0.99
      P1  H  7989  7998       L1     2  1.00

> <Gold.PLP.Chemscore.Internal.Correction>
0.3170

> <Gold.Rescore>
     Score         DG    S(hbond)    S(metal)    S(lipo)     H(rot)  DE(clash)    DE(int)     intcor
     12.38     -15.03       1.97        0.00      59.31       1.55       0.29       2.36       ----

> <Gold.Chemscore.Fitness>
12.3779

> <Gold.Chemscore.DG>
-15.0337

> <Gold.Chemscore.ZeroCoef>
-5.4800

> <Gold.Chemscore.Hbond>
1.9726

> <Gold.Chemscore.Metal>
0.0000

> <Gold.Chemscore.Lipo>
59.3140

> <Gold.Chemscore.Internal_Hbond>
0.0000

> <Gold.Chemscore.DEClash>
0.2927

> <Gold.Chemscore.DEInternal>
2.3631

> <Gold.Chemscore.Rot>
1.5526

> <Gold.Chemscore.Internal.Correction>
   9.000000E+99

> <Gold.Chemscore.Hbonds>
donor molecule, donor type, donor heavy atom, donor atom, acceptor molecule, acceptor atom, score
      L1  H    18    23       P1  8028  0.24
      P1  H  7989  7998       L1     2  0.24

> <Gold.Chemscore.Hbond.Weighted>
-6.5885

> <Gold.Chemscore.Metal.Weighted>
-0.0000

> <Gold.Chemscore.Lipo.Weighted>
-6.9397

> <Gold.Chemscore.Internal_Hbond.Weighted>
0.0000

> <Gold.Chemscore.DEClash.Weighted>
0.2927

> <Gold.Chemscore.DEInternal.Weighted>
2.3631

> <Gold.Chemscore.Rot.Weighted>
3.9745

> <Gold.Chemscore.Internal.Correction.Weighted>
   9.000000E+99

> <Gold.Protein.RotatedTorsions>
[ 6907 6896 6895 6894 ] final  -75.36 input  -60.11 | X-H torsion
[ 7974 7965 7964 7962 ] final -117.76 input  175.53 | X-H torsion
[ 8008 7997 7996 7995 ] final    1.20 input   59.86 | X-H torsion
[ 10167 10162 10161 10158 ] final   12.23 input  -65.29 | X-H torsion
[ 10718 10713 10712 10709 ] final   45.45 input   66.30 | X-H torsion
[ 10763 10752 10751 10750 ] final  -72.85 input  -60.55 | X-H torsion
[ 11005 11000 10999 10996 ] final   15.63 input  -57.11 | X-H torsion

> <Gold.Protein.ActiveResidues>
 VAL166  LYS551  ARG553  GLY616  TRP617  ASP618  TYR619  PRO620  LYS621  CYS622 
 ASP623  PHE694  ASN695  SER759  ASP760  ASP761  ALA762  ILE779  LEU786  VAL792 
 PHE793  MET794  SER795  GLU796  ALA797  LYS798  CYS799  TRP800  GLU811  SER814 

> <Gold.Protein.RotatedAtoms>
  150.7062  134.4733  159.5435 H   0  0  0  0  0  0  0  0  0  0  0  0  # atno 6907 bound_to 6896
  152.2385  134.8249  160.0473 H   0  0  0  0  0  0  0  0  0  0  0  0  # atno 6908 bound_to 6896
  151.9039  133.3509  159.3877 H   0  0  0  0  0  0  0  0  0  0  0  0  # atno 6909 bound_to 6896
  145.0816  140.8429  143.4036 H   0  0  0  0  0  0  0  0  0  0  0  0  # atno 7974 bound_to 7965
  154.6769  140.2624  155.6948 H   0  0  0  0  0  0  0  0  0  0  0  0  # atno 8008 bound_to 7997
  156.2681  140.2818  156.1222 H   0  0  0  0  0  0  0  0  0  0  0  0  # atno 8009 bound_to 7997
  155.1087  140.0375  157.2708 H   0  0  0  0  0  0  0  0  0  0  0  0  # atno 8010 bound_to 7997
  140.6081  143.8466  150.7035 H   0  0  0  0  0  0  0  0  0  0  0  0  # atno 10167 bound_to 10162
  157.4376  130.8062  149.7663 H   0  0  0  0  0  0  0  0  0  0  0  0  # atno 10718 bound_to 10713
  154.4514  135.5916  153.6194 H   0  0  0  0  0  0  0  0  0  0  0  0  # atno 10763 bound_to 10752
  152.9814  135.6022  154.3600 H   0  0  0  0  0  0  0  0  0  0  0  0  # atno 10764 bound_to 10752
  154.3462  135.2841  155.2375 H   0  0  0  0  0  0  0  0  0  0  0  0  # atno 10765 bound_to 10752
  140.4561  134.1174  155.7709 H   0  0  0  0  0  0  0  0  0  0  0  0  # atno 11005 bound_to 11000
  145.1172  139.2718  143.5607 LP  0  0  0  0  0  0  0  0  0  0  0  0  # atno 17320 bound_to 7965
  146.3531  140.0785  142.8619 LP  0  0  0  0  0  0  0  0  0  0  0  0  # atno 17321 bound_to 7965
  140.2027  143.3946  152.1779 LP  0  0  0  0  0  0  0  0  0  0  0  0  # atno 17342 bound_to 10162
  139.5340  144.7190  151.4957 LP  0  0  0  0  0  0  0  0  0  0  0  0  # atno 17343 bound_to 10162
  155.9936  130.3923  150.2892 LP  0  0  0  0  0  0  0  0  0  0  0  0  # atno 17370 bound_to 10713
  157.1054  131.0207  151.3069 LP  0  0  0  0  0  0  0  0  0  0  0  0  # atno 17371 bound_to 10713
  141.1642  133.8735  157.1762 LP  0  0  0  0  0  0  0  0  0  0  0  0  # atno 17394 bound_to 11000
  139.9975  135.0041  157.0115 LP  0  0  0  0  0  0  0  0  0  0  0  0  # atno 17395 bound_to 11000

$$$$
