AV-unprocessed.smi:2559|AV-procd|sdf|10034|dock4
  -GOLD-   2272014 73D 1   1.00000     0.00000
 Structure written by MMmdl.
 44 46  0  0  0  0  0  0  0  0  1 V2000
  155.6431  139.1587  162.4973 C   0  0  0  0  0  0  0  0  0  0  0  0
  154.6594  138.6051  161.5644 N   0  0  0  0  0  0  0  0  0  0  0  0
  154.5157  137.2466  161.4477 C   0  0  0  0  0  0  0  0  0  0  0  0
  155.1945  136.4543  162.1011 O   0  0  0  0  0  0  0  0  0  0  0  0
  153.5772  136.7809  160.5691 N   0  0  0  0  0  0  0  0  0  0  0  0
  152.7548  137.5108  159.7771 C   0  0  0  0  0  0  0  0  0  0  0  0
  151.9244  137.0057  159.0256 O   0  0  0  0  0  0  0  0  0  0  0  0
  152.9565  138.9616  159.9147 C   0  0  0  0  0  0  0  0  0  0  0  0
  153.8638  139.4865  160.7779 C   0  0  0  0  0  0  0  0  0  0  0  0
  153.8348  140.8715  160.7433 N   0  0  0  0  0  0  0  0  0  0  0  0
  152.9037  141.1330  159.8223 C   0  0  0  0  0  0  0  0  0  0  0  0
  152.5313  142.4301  159.4647 N   0  0  0  0  0  0  0  0  0  0  0  0
  152.0360  142.8523  158.1538 C   0  0  0  0  0  0  0  0  0  0  0  0
  150.7548  143.6958  158.2747 C   0  0  0  0  0  0  0  0  0  0  0  0
  151.0071  144.9289  159.1525 C   0  0  0  0  0  0  0  0  0  0  0  0
  151.6317  144.5033  160.4886 C   0  0  0  0  0  0  0  0  0  0  0  0
  152.8660  143.6132  160.2564 C   0  0  0  0  0  0  0  0  0  0  0  0
  152.3097  140.0306  159.2872 N   0  0  0  0  0  0  0  0  0  0  0  0
  151.2091  139.9698  158.3250 C   0  0  0  0  0  0  0  0  0  0  0  0
  151.5877  139.1836  157.0522 C   0  0  2  0  0  0  0  0  0  0  0  0
  152.8294  139.6147  156.5299 O   0  0  0  0  0  0  0  0  0  0  0  0
  150.5181  139.2341  155.9453 C   0  0  0  0  0  0  0  0  0  0  0  0
  150.7750  140.2653  155.0135 O   0  0  0  0  0  0  0  0  0  0  0  0
  153.4840  135.7777  160.5056 H   0  0  0  0  0  0  0  0  0  0  0  0
  155.4659  138.7890  163.5086 H   0  0  0  0  0  0  0  0  0  0  0  0
  155.6134  140.2472  162.5421 H   0  0  0  0  0  0  0  0  0  0  0  0
  156.6525  138.8698  162.2013 H   0  0  0  0  0  0  0  0  0  0  0  0
  152.8134  143.4371  157.6601 H   0  0  0  0  0  0  0  0  0  0  0  0
  151.8716  141.9883  157.5113 H   0  0  0  0  0  0  0  0  0  0  0  0
  150.4149  144.0046  157.2860 H   0  0  0  0  0  0  0  0  0  0  0  0
  149.9531  143.0956  158.7050 H   0  0  0  0  0  0  0  0  0  0  0  0
  151.6825  145.6121  158.6360 H   0  0  0  0  0  0  0  0  0  0  0  0
  150.0781  145.4741  159.3217 H   0  0  0  0  0  0  0  0  0  0  0  0
  151.9085  145.3839  161.0689 H   0  0  0  0  0  0  0  0  0  0  0  0
  150.8953  143.9597  161.0817 H   0  0  0  0  0  0  0  0  0  0  0  0
  153.2756  143.3043  161.2186 H   0  0  0  0  0  0  0  0  0  0  0  0
  153.6516  144.1762  159.7508 H   0  0  0  0  0  0  0  0  0  0  0  0
  150.3401  139.5176  158.7935 H   0  0  0  0  0  0  0  0  0  0  0  0
  150.8853  140.9775  158.0754 H   0  0  0  0  0  0  0  0  0  0  0  0
  151.7236  138.1366  157.3238 H   0  0  0  0  0  0  0  0  0  0  0  0
  152.7395  139.7273  155.5961 H   0  0  0  0  0  0  0  0  0  0  0  0
  150.4577  138.2791  155.4221 H   0  0  0  0  0  0  0  0  0  0  0  0
  149.5372  139.4152  156.3852 H   0  0  0  0  0  0  0  0  0  0  0  0
  150.4080  141.0699  155.3466 H   0  0  0  0  0  0  0  0  0  0  0  0
  1  2  1  0  0  0  0
  1 25  1  0  0  0  0
  1 26  1  0  0  0  0
  1 27  1  0  0  0  0
  2  9  1  0  0  0  0
  2  3  1  0  0  0  0
  3  4  2  0  0  0  0
  3  5  1  0  0  0  0
  5 24  1  0  0  0  0
  5  6  1  0  0  0  0
  6  7  2  0  0  0  0
  6  8  1  0  0  0  0
  8 18  1  0  0  0  0
  8  9  2  0  0  0  0
  9 10  1  0  0  0  0
 10 11  2  0  0  0  0
 11 12  1  0  0  0  0
 11 18  1  0  0  0  0
 12 17  1  0  0  0  0
 12 13  1  0  0  0  0
 13 14  1  0  0  0  0
 13 28  1  0  0  0  0
 13 29  1  0  0  0  0
 14 15  1  0  0  0  0
 14 30  1  0  0  0  0
 14 31  1  0  0  0  0
 15 16  1  0  0  0  0
 15 32  1  0  0  0  0
 15 33  1  0  0  0  0
 16 17  1  0  0  0  0
 16 34  1  0  0  0  0
 16 35  1  0  0  0  0
 17 36  1  0  0  0  0
 17 37  1  0  0  0  0
 18 19  1  0  0  0  0
 19 20  1  0  0  0  0
 19 38  1  0  0  0  0
 19 39  1  0  0  0  0
 20 21  1  0  0  0  0
 20 22  1  0  0  0  0
 20 40  1  0  0  0  0
 21 41  1  0  0  0  0
 22 23  1  0  0  0  0
 22 42  1  0  0  0  0
 22 43  1  0  0  0  0
 23 44  1  0  0  0  0
M  END
> <s_m_source_file>
AV-unprocessed.smi

> <i_m_source_file_index>
2559

> <i_lp_mmshare_version>
43012

> <i_f3d_flags>
0

> <s_epik_input>
Tz1jMVtuSF1jKD1PKW4oW0NIM10pYyhjMTIpbmMobjJbQ0gyXVtDQEhdKFtPSF0pW0NIMl1bT0hdKU4zW0NIMl1bQ0gyXVtDSDJdW0NIMl1bQ0gyXTM=

> <s_epik_cmdline>
J2VwaWtfcHl0aG9uJywgJy1waCcsICc3LjAnLCAnLXRuJywgJzgnLCAnLW1hJywgJzIwMCcsICctbWV0YWxfYmluZGluZycsICctaW1hZScsICc8aW5maWxlLm1hZT4nLCAnLW9tYWUnLCAnPG91dGZpbGUubWFlPic=

> <r_lp_tautomer_probability>
1

> <r_epik_Ionization_Penalty>
0.0023969

> <r_epik_Ionization_Penalty_Charging>
9.35512e-05

> <r_epik_Ionization_Penalty_Neutral>
0.00230335

> <r_epik_State_Penalty>
-0

> <r_epik_Charging_Adjusted_Penalty>
9.35512e-05

> <i_epik_Tot_Q>
0

> <i_epik_Tot_abs_Q>
0

> <r_epik_Metal_State_Penalty>
0.0757518

> <b_epik_Metal_Only>
0

> <s_lp_Force_Field>
OPLS_2005

> <r_lp_Energy>
44.2112

> <b_lp_Chiralities_Consistent>
1

> <s_lp_Variant>
AV-unprocessed.smi:2559-1

> <Gold.Version>
5.8.1

> <Gold.Id.Protein>
6NUR|6NUR_protein|mol2

> <Gold.PLP.Fitness>
46.8316

> <Gold.PLP.PLP>
-39.0931

> <Gold.PLP.part.hbond>
-3.0000

> <Gold.PLP.part.metal>
0.0000

> <Gold.PLP.part.buried>
-7.7923

> <Gold.PLP.part.nonpolar>
-30.2305

> <Gold.PLP.part.repulsive>
0.0850

> <Gold.PLP.ligand.clash>
0.0000

> <Gold.PLP.ligand.torsion>
0.7099

> <Gold.PLP.Chemscore.Hbond>
2.8775

> <Gold.PLP.Chemscore.CHOScore>
0.0000

> <Gold.PLP.Chemscore.Metal>
0.0000

> <Gold.Chemscore.Hbonds>
donor molecule, donor type, donor heavy atom, donor atom, acceptor molecule, acceptor atom, score
      P1  H  6896  6909       L1     7  0.82
      P1  H  7989  7998       L1    23  1.00
      P1  H  7997  8009       L1    21  0.95

> <Gold.PLP.Chemscore.Internal.Correction>
0.5259

> <Gold.Rescore>
     Score         DG    S(hbond)    S(metal)    S(lipo)     H(rot)  DE(clash)    DE(int)     intcor
     12.80     -14.71       2.31        0.00      77.82       2.97       0.03       1.89       ----

> <Gold.Chemscore.Fitness>
12.7957

> <Gold.Chemscore.DG>
-14.7130

> <Gold.Chemscore.ZeroCoef>
-5.4800

> <Gold.Chemscore.Hbond>
2.3136

> <Gold.Chemscore.Metal>
0.0000

> <Gold.Chemscore.Lipo>
77.8198

> <Gold.Chemscore.Internal_Hbond>
0.0000

> <Gold.Chemscore.DEClash>
0.0294

> <Gold.Chemscore.DEInternal>
1.8880

> <Gold.Chemscore.Rot>
2.9685

> <Gold.Chemscore.Internal.Correction>
   9.000000E+99

> <Gold.Chemscore.Hbonds>
donor molecule, donor type, donor heavy atom, donor atom, acceptor molecule, acceptor atom, score
      P1  H  6896  6909       L1     7  0.23
      P1  H  7989  7998       L1    23  0.30
      P1  H  7997  8009       L1    21  0.21

> <Gold.Chemscore.Hbond.Weighted>
-7.7275

> <Gold.Chemscore.Metal.Weighted>
-0.0000

> <Gold.Chemscore.Lipo.Weighted>
-9.1049

> <Gold.Chemscore.Internal_Hbond.Weighted>
0.0000

> <Gold.Chemscore.DEClash.Weighted>
0.0294

> <Gold.Chemscore.DEInternal.Weighted>
1.8880

> <Gold.Chemscore.Rot.Weighted>
7.5994

> <Gold.Chemscore.Internal.Correction.Weighted>
   9.000000E+99

> <Gold.Protein.RotatedTorsions>
[ 6907 6896 6895 6894 ] final  121.39 input  -60.11 | X-H torsion
[ 7974 7965 7964 7962 ] final  152.84 input  175.53 | X-H torsion
[ 8008 7997 7996 7995 ] final  174.82 input   59.86 | X-H torsion
[ 10167 10162 10161 10158 ] final   83.88 input  -65.29 | X-H torsion
[ 10718 10713 10712 10709 ] final   54.76 input   66.30 | X-H torsion
[ 10763 10752 10751 10750 ] final   52.77 input  -60.55 | X-H torsion
[ 11005 11000 10999 10996 ] final   25.15 input  -57.11 | X-H torsion

> <Gold.Protein.ActiveResidues>
 VAL166  LYS551  ARG553  GLY616  TRP617  ASP618  TYR619  PRO620  LYS621  CYS622 
 ASP623  PHE694  ASN695  SER759  ASP760  ASP761  ALA762  ILE779  LEU786  VAL792 
 PHE793  MET794  SER795  GLU796  ALA797  LYS798  CYS799  TRP800  GLU811  SER814 

> <Gold.Protein.RotatedAtoms>
  152.4325  133.7303  159.6583 H   0  0  0  0  0  0  0  0  0  0  0  0  # atno 6907 bound_to 6896
  150.8206  133.8249  159.3147 H   0  0  0  0  0  0  0  0  0  0  0  0  # atno 6908 bound_to 6896
  151.5932  135.1054  160.0095 H   0  0  0  0  0  0  0  0  0  0  0  0  # atno 6909 bound_to 6896
  144.8195  139.6721  143.6106 H   0  0  0  0  0  0  0  0  0  0  0  0  # atno 7974 bound_to 7965
  156.0934  140.1424  156.9562 H   0  0  0  0  0  0  0  0  0  0  0  0  # atno 8008 bound_to 7997
  154.4656  140.0927  156.7058 H   0  0  0  0  0  0  0  0  0  0  0  0  # atno 8009 bound_to 7997
  155.4881  140.3447  155.4352 H   0  0  0  0  0  0  0  0  0  0  0  0  # atno 8010 bound_to 7997
  139.9138  144.6255  150.8510 H   0  0  0  0  0  0  0  0  0  0  0  0  # atno 10167 bound_to 10162
  157.5285  130.8614  149.8655 H   0  0  0  0  0  0  0  0  0  0  0  0  # atno 10718 bound_to 10713
  152.9791  135.5801  154.4632 H   0  0  0  0  0  0  0  0  0  0  0  0  # atno 10763 bound_to 10752
  154.4205  135.2771  155.1980 H   0  0  0  0  0  0  0  0  0  0  0  0  # atno 10764 bound_to 10752
  154.3731  135.6163  153.5804 H   0  0  0  0  0  0  0  0  0  0  0  0  # atno 10765 bound_to 10752
  140.3509  134.2229  155.7680 H   0  0  0  0  0  0  0  0  0  0  0  0  # atno 11005 bound_to 11000
  146.2500  139.6179  142.9433 LP  0  0  0  0  0  0  0  0  0  0  0  0  # atno 17320 bound_to 7965
  145.5137  141.0434  143.2473 LP  0  0  0  0  0  0  0  0  0  0  0  0  # atno 17321 bound_to 7965
  140.7679  143.3346  151.2335 LP  0  0  0  0  0  0  0  0  0  0  0  0  # atno 17342 bound_to 10162
  139.6920  143.9676  152.2864 LP  0  0  0  0  0  0  0  0  0  0  0  0  # atno 17343 bound_to 10162
  156.0405  130.3740  150.1448 LP  0  0  0  0  0  0  0  0  0  0  0  0  # atno 17370 bound_to 10713
  156.9634  130.9812  151.3474 LP  0  0  0  0  0  0  0  0  0  0  0  0  # atno 17371 bound_to 10713
  141.2012  133.7968  157.0451 LP  0  0  0  0  0  0  0  0  0  0  0  0  # atno 17394 bound_to 11000
  140.0704  134.9706  157.1457 LP  0  0  0  0  0  0  0  0  0  0  0  0  # atno 17395 bound_to 11000

$$$$
