AV-unprocessed.smi:400|AV-procd|sdf|2492|dock6
  -GOLD-   2262022433D 1   1.00000     0.00000
 Structure written by MMmdl.
 40 41  0  0  0  0  0  0  0  0  1 V2000
  153.9494  133.9864  160.2313 C   0  0  0  0  0  0  0  0  0  0  0  0
  153.9311  134.2012  161.7529 C   0  0  0  0  0  0  0  0  0  0  0  0
  154.5344  135.5477  162.2114 C   0  0  2  0  0  0  0  0  0  0  0  0
  154.5949  135.6282  163.7465 C   0  0  0  0  0  0  0  0  0  0  0  0
  153.7543  136.7471  161.6500 C   0  0  0  0  0  0  0  0  0  0  0  0
  152.6557  136.5658  161.1235 O   0  0  0  0  0  0  0  0  0  0  0  0
  154.3514  137.9474  161.7773 N   0  0  0  0  0  0  0  0  0  0  0  0
  153.8774  139.2166  161.3517 C   0  0  0  0  0  0  0  0  0  0  0  0
  152.9146  139.1822  160.3212 C   0  0  0  0  0  0  0  0  0  0  0  0
  152.3791  140.3882  159.8302 C   0  0  0  0  0  0  0  0  0  0  0  0
  152.8115  141.6187  160.3798 C   0  0  0  0  0  0  0  0  0  0  0  0
  152.3209  142.8673  159.9394 N   0  0  0  0  0  0  0  0  0  0  0  0
  152.4116  144.0070  160.8476 C   0  0  0  0  0  0  0  0  0  0  0  0
  151.5597  145.1771  160.3262 C   0  0  0  0  0  0  0  0  0  0  0  0
  151.9509  145.5000  158.9960 O   0  0  0  0  0  0  0  0  0  0  0  0
  151.7459  144.4083  158.1053 C   0  0  0  0  0  0  0  0  0  0  0  0
  152.6006  143.2071  158.5461 C   0  0  0  0  0  0  0  0  0  0  0  0
  153.7834  141.5469  161.4044 C   0  0  0  0  0  0  0  0  0  0  0  0
  154.2985  140.3923  161.8753 N   0  0  0  0  0  0  0  0  0  0  0  0
  153.5681  132.9972  159.9776 H   0  0  0  0  0  0  0  0  0  0  0  0
  154.9625  134.0620  159.8357 H   0  0  0  0  0  0  0  0  0  0  0  0
  153.3299  134.7180  159.7121 H   0  0  0  0  0  0  0  0  0  0  0  0
  152.9075  134.1051  162.1181 H   0  0  0  0  0  0  0  0  0  0  0  0
  154.4888  133.3878  162.2185 H   0  0  0  0  0  0  0  0  0  0  0  0
  155.5603  135.5999  161.8422 H   0  0  0  0  0  0  0  0  0  0  0  0
  155.0032  136.5833  164.0793 H   0  0  0  0  0  0  0  0  0  0  0  0
  155.2330  134.8430  164.1530 H   0  0  0  0  0  0  0  0  0  0  0  0
  153.6066  135.5140  164.1940 H   0  0  0  0  0  0  0  0  0  0  0  0
  155.2536  137.9498  162.2299 H   0  0  0  0  0  0  0  0  0  0  0  0
  152.5831  138.2410  159.9072 H   0  0  0  0  0  0  0  0  0  0  0  0
  151.6380  140.3438  159.0466 H   0  0  0  0  0  0  0  0  0  0  0  0
  152.0643  143.7257  161.8425 H   0  0  0  0  0  0  0  0  0  0  0  0
  153.4536  144.3172  160.9368 H   0  0  0  0  0  0  0  0  0  0  0  0
  150.4977  144.9279  160.3541 H   0  0  0  0  0  0  0  0  0  0  0  0
  151.6974  146.0533  160.9598 H   0  0  0  0  0  0  0  0  0  0  0  0
  150.6879  144.1423  158.0760 H   0  0  0  0  0  0  0  0  0  0  0  0
  152.0237  144.7161  157.0972 H   0  0  0  0  0  0  0  0  0  0  0  0
  153.6597  143.4491  158.4496 H   0  0  0  0  0  0  0  0  0  0  0  0
  152.4054  142.3700  157.8774 H   0  0  0  0  0  0  0  0  0  0  0  0
  154.1829  142.4418  161.8577 H   0  0  0  0  0  0  0  0  0  0  0  0
  1  2  1  0  0  0  0
  1 20  1  0  0  0  0
  1 21  1  0  0  0  0
  1 22  1  0  0  0  0
  2  3  1  0  0  0  0
  2 23  1  0  0  0  0
  2 24  1  0  0  0  0
  3  4  1  0  0  0  0
  3  5  1  0  0  0  0
  3 25  1  0  0  0  0
  4 26  1  0  0  0  0
  4 27  1  0  0  0  0
  4 28  1  0  0  0  0
  5  6  2  0  0  0  0
  5  7  1  0  0  0  0
  7  8  1  0  0  0  0
  7 29  1  0  0  0  0
  8 19  1  0  0  0  0
  8  9  2  0  0  0  0
  9 10  1  0  0  0  0
  9 30  1  0  0  0  0
 10 11  2  0  0  0  0
 10 31  1  0  0  0  0
 11 12  1  0  0  0  0
 11 18  1  0  0  0  0
 12 17  1  0  0  0  0
 12 13  1  0  0  0  0
 13 14  1  0  0  0  0
 13 32  1  0  0  0  0
 13 33  1  0  0  0  0
 14 15  1  0  0  0  0
 14 34  1  0  0  0  0
 14 35  1  0  0  0  0
 15 16  1  0  0  0  0
 16 17  1  0  0  0  0
 16 36  1  0  0  0  0
 16 37  1  0  0  0  0
 17 38  1  0  0  0  0
 17 39  1  0  0  0  0
 18 19  2  0  0  0  0
 18 40  1  0  0  0  0
M  END
> <s_m_source_file>
AV-unprocessed.smi

> <i_m_source_file_index>
400

> <i_lp_mmshare_version>
43012

> <i_f3d_flags>
0

> <s_epik_input>
W0NIM11bQ0gyXVtDQEhdKFtDSDNdKUMoPU8pW05IXWMxW2NIXVtjSF1jKFtjSF1uMSlOMltDSDJdW0NIMl1PW0NIMl1bQ0gyXTI=

> <s_epik_cmdline>
J2VwaWtfcHl0aG9uJywgJy1waCcsICc3LjAnLCAnLXRuJywgJzgnLCAnLW1hJywgJzIwMCcsICctbWV0YWxfYmluZGluZycsICctaW1hZScsICc8aW5maWxlLm1hZT4nLCAnLW9tYWUnLCAnPG91dGZpbGUubWFlPic=

> <r_lp_tautomer_probability>
1

> <r_epik_Ionization_Penalty>
0.00393323

> <r_epik_Ionization_Penalty_Charging>
0

> <r_epik_Ionization_Penalty_Neutral>
0.00393323

> <r_epik_State_Penalty>
0.00357844

> <r_epik_Charging_Adjusted_Penalty>
0.00357844

> <i_epik_Tot_Q>
0

> <i_epik_Tot_abs_Q>
0

> <r_epik_Metal_State_Penalty>
-0

> <b_epik_Metal_Only>
0

> <s_lp_Force_Field>
OPLS_2005

> <r_lp_Energy>
25.3319

> <b_lp_Chiralities_Consistent>
1

> <s_lp_Variant>
AV-unprocessed.smi:400-1

> <Gold.Version>
5.8.1

> <Gold.Id.Protein>
6NUR|6NUR_protein|mol2

> <Gold.PLP.Fitness>
40.4669

> <Gold.PLP.PLP>
-38.8446

> <Gold.PLP.part.hbond>
-1.6046

> <Gold.PLP.part.metal>
0.0000

> <Gold.PLP.part.buried>
-6.8488

> <Gold.PLP.part.nonpolar>
-31.2871

> <Gold.PLP.part.repulsive>
0.1106

> <Gold.PLP.ligand.clash>
0.0421

> <Gold.PLP.ligand.torsion>
0.6611

> <Gold.PLP.Chemscore.Hbond>
0.8613

> <Gold.PLP.Chemscore.CHOScore>
0.0000

> <Gold.PLP.Chemscore.Metal>
0.0000

> <Gold.Chemscore.Hbonds>
donor molecule, donor type, donor heavy atom, donor atom, acceptor molecule, acceptor atom, score
      P1  H  6896  6907       L1     6  0.98

> <Gold.PLP.Chemscore.Internal.Correction>
0.4029

> <Gold.Rescore>
     Score         DG    S(hbond)    S(metal)    S(lipo)     H(rot)  DE(clash)    DE(int)     intcor
     12.71     -15.75       1.00        0.00      87.76       1.30       0.00       3.04       ----

> <Gold.Chemscore.Fitness>
12.7051

> <Gold.Chemscore.DG>
-15.7489

> <Gold.Chemscore.ZeroCoef>
-5.4800

> <Gold.Chemscore.Hbond>
0.9998

> <Gold.Chemscore.Metal>
0.0000

> <Gold.Chemscore.Lipo>
87.7620

> <Gold.Chemscore.Internal_Hbond>
0.0000

> <Gold.Chemscore.DEClash>
0.0021

> <Gold.Chemscore.DEInternal>
3.0417

> <Gold.Chemscore.Rot>
1.3041

> <Gold.Chemscore.Internal.Correction>
   9.000000E+99

> <Gold.Chemscore.Hbonds>
donor molecule, donor type, donor heavy atom, donor atom, acceptor molecule, acceptor atom, score
      P1  H  6896  6907       L1     6  0.92

> <Gold.Chemscore.Hbond.Weighted>
-3.3393

> <Gold.Chemscore.Metal.Weighted>
-0.0000

> <Gold.Chemscore.Lipo.Weighted>
-10.2682

> <Gold.Chemscore.Internal_Hbond.Weighted>
0.0000

> <Gold.Chemscore.DEClash.Weighted>
0.0021

> <Gold.Chemscore.DEInternal.Weighted>
3.0417

> <Gold.Chemscore.Rot.Weighted>
3.3385

> <Gold.Chemscore.Internal.Correction.Weighted>
   9.000000E+99

> <Gold.Protein.RotatedTorsions>
[ 6907 6896 6895 6894 ] final   36.47 input  -60.11 | X-H torsion
[ 7974 7965 7964 7962 ] final -158.37 input  175.53 | X-H torsion
[ 8008 7997 7996 7995 ] final  -43.84 input   59.86 | X-H torsion
[ 10167 10162 10161 10158 ] final   -7.86 input  -65.29 | X-H torsion
[ 10718 10713 10712 10709 ] final  -54.40 input   66.30 | X-H torsion
[ 10763 10752 10751 10750 ] final -130.93 input  -60.55 | X-H torsion
[ 11005 11000 10999 10996 ] final  -82.58 input  -57.11 | X-H torsion

> <Gold.Protein.ActiveResidues>
 VAL166  LYS551  ARG553  GLY616  TRP617  ASP618  TYR619  PRO620  LYS621  CYS622 
 ASP623  PHE694  ASN695  SER759  ASP760  ASP761  ALA762  ILE779  LEU786  VAL792 
 PHE793  MET794  SER795  GLU796  ALA797  LYS798  CYS799  TRP800  GLU811  SER814 

> <Gold.Protein.RotatedAtoms>
  152.1301  134.9141  160.0558 H   0  0  0  0  0  0  0  0  0  0  0  0  # atno 6907 bound_to 6896
  152.0249  133.3908  159.4281 H   0  0  0  0  0  0  0  0  0  0  0  0  # atno 6908 bound_to 6896
  150.6855  134.3507  159.4951 H   0  0  0  0  0  0  0  0  0  0  0  0  # atno 6909 bound_to 6896
  144.7508  140.3837  143.6049 H   0  0  0  0  0  0  0  0  0  0  0  0  # atno 7974 bound_to 7965
  154.3997  140.1437  156.3585 H   0  0  0  0  0  0  0  0  0  0  0  0  # atno 8008 bound_to 7997
  155.8203  140.3469  155.5489 H   0  0  0  0  0  0  0  0  0  0  0  0  # atno 8009 bound_to 7997
  155.8295  140.0910  157.1791 H   0  0  0  0  0  0  0  0  0  0  0  0  # atno 8010 bound_to 7997
  140.7042  143.6033  150.8776 H   0  0  0  0  0  0  0  0  0  0  0  0  # atno 10167 bound_to 10162
  156.1454  130.4153  150.0033 H   0  0  0  0  0  0  0  0  0  0  0  0  # atno 10718 bound_to 10713
  154.8753  135.3846  154.4164 H   0  0  0  0  0  0  0  0  0  0  0  0  # atno 10763 bound_to 10752
  153.4872  135.7030  153.5909 H   0  0  0  0  0  0  0  0  0  0  0  0  # atno 10764 bound_to 10752
  153.4299  135.3881  155.2131 H   0  0  0  0  0  0  0  0  0  0  0  0  # atno 10765 bound_to 10752
  141.1662  133.7252  156.8593 H   0  0  0  0  0  0  0  0  0  0  0  0  # atno 11005 bound_to 11000
  145.6950  139.1648  143.2625 LP  0  0  0  0  0  0  0  0  0  0  0  0  # atno 17320 bound_to 7965
  146.1456  140.6997  142.9346 LP  0  0  0  0  0  0  0  0  0  0  0  0  # atno 17321 bound_to 7965
  139.9757  143.6007  152.2959 LP  0  0  0  0  0  0  0  0  0  0  0  0  # atno 17342 bound_to 10162
  139.6610  144.7662  151.1964 LP  0  0  0  0  0  0  0  0  0  0  0  0  # atno 17343 bound_to 10162
  156.7906  130.9254  151.3646 LP  0  0  0  0  0  0  0  0  0  0  0  0  # atno 17370 bound_to 10713
  157.6612  130.8968  149.9834 LP  0  0  0  0  0  0  0  0  0  0  0  0  # atno 17371 bound_to 10713
  140.1860  134.9000  157.3004 LP  0  0  0  0  0  0  0  0  0  0  0  0  # atno 17394 bound_to 11000
  140.2343  134.3872  155.7508 LP  0  0  0  0  0  0  0  0  0  0  0  0  # atno 17395 bound_to 11000

$$$$
