AV-unprocessed.smi:2632|AV-procd|sdf|10250|dock7
  -GOLD-   2272014263D 1   1.00000     0.00000
 Structure written by MMmdl.
 38 39  0  0  0  0  0  0  0  0  1 V2000
  144.7444  143.6430  157.7749 C   0  0  0  0  0  0  0  0  0  0  0  0
  144.4630  142.3268  157.3341 O   0  0  0  0  0  0  0  0  0  0  0  0
  145.6375  141.5822  157.0557 C   0  0  0  0  0  0  0  0  0  0  0  0
  146.5031  142.3494  156.0422 C   0  0  0  0  0  0  0  0  0  0  0  0
  147.7574  141.6829  155.7530 N   0  0  0  0  0  0  0  0  0  0  0  0
  148.7315  141.4087  156.7167 C   0  0  0  0  0  0  0  0  0  0  0  0
  148.4987  141.7689  158.0334 N   0  0  0  0  0  0  0  0  0  0  0  0
  149.9040  140.8137  156.3755 C   0  0  0  0  0  0  0  0  0  0  0  0
  151.2313  140.4383  157.4957 S   0  0  0  0  0  0  0  0  0  0  0  0
  151.5002  142.0156  158.2365 C   0  0  0  0  0  0  0  0  0  0  0  0
  151.1391  143.1887  157.5447 C   0  0  0  0  0  0  0  0  0  0  0  0
  151.3630  144.4482  158.1339 C   0  0  0  0  0  0  0  0  0  0  0  0
  151.9458  144.5372  159.4153 C   0  0  0  0  0  0  0  0  0  0  0  0
  152.1868  145.8943  160.0439 C   0  0  0  0  0  0  0  0  0  0  0  0
  152.3061  143.3600  160.1043 C   0  0  0  0  0  0  0  0  0  0  0  0
  152.0823  142.0997  159.5163 C   0  0  0  0  0  0  0  0  0  0  0  0
  150.2137  140.4247  154.9979 C   0  0  0  0  0  0  0  0  0  0  0  0
  151.2405  139.8732  154.6021 O   0  0  0  0  0  0  0  0  0  0  0  0
  149.2067  140.7401  154.0864 N   0  0  0  0  0  0  0  0  0  0  0  0
  147.9960  141.3590  154.3933 C   0  0  0  0  0  0  0  0  0  0  0  0
  147.1961  141.6011  153.4888 O   0  0  0  0  0  0  0  0  0  0  0  0
  149.3711  140.5039  153.1186 H   0  0  0  0  0  0  0  0  0  0  0  0
  143.8110  144.1675  157.9784 H   0  0  0  0  0  0  0  0  0  0  0  0
  145.2895  144.2050  157.0154 H   0  0  0  0  0  0  0  0  0  0  0  0
  145.3318  143.6339  158.6940 H   0  0  0  0  0  0  0  0  0  0  0  0
  146.2010  141.4332  157.9778 H   0  0  0  0  0  0  0  0  0  0  0  0
  145.3803  140.5940  156.6715 H   0  0  0  0  0  0  0  0  0  0  0  0
  145.9810  142.4921  155.0969 H   0  0  0  0  0  0  0  0  0  0  0  0
  146.7390  143.3559  156.3923 H   0  0  0  0  0  0  0  0  0  0  0  0
  147.6422  142.2246  158.3136 H   0  0  0  0  0  0  0  0  0  0  0  0
  149.1115  141.4719  158.7793 H   0  0  0  0  0  0  0  0  0  0  0  0
  150.6945  143.1272  156.5623 H   0  0  0  0  0  0  0  0  0  0  0  0
  151.0868  145.3451  157.5992 H   0  0  0  0  0  0  0  0  0  0  0  0
  152.3075  145.8120  161.1244 H   0  0  0  0  0  0  0  0  0  0  0  0
  151.3476  146.5625  159.8481 H   0  0  0  0  0  0  0  0  0  0  0  0
  153.0894  146.3454  159.6312 H   0  0  0  0  0  0  0  0  0  0  0  0
  152.7558  143.4187  161.0847 H   0  0  0  0  0  0  0  0  0  0  0  0
  152.3626  141.2009  160.0459 H   0  0  0  0  0  0  0  0  0  0  0  0
  1  2  1  0  0  0  0
  1 23  1  0  0  0  0
  1 24  1  0  0  0  0
  1 25  1  0  0  0  0
  2  3  1  0  0  0  0
  3  4  1  0  0  0  0
  3 26  1  0  0  0  0
  3 27  1  0  0  0  0
  4  5  1  0  0  0  0
  4 28  1  0  0  0  0
  4 29  1  0  0  0  0
  5 20  1  0  0  0  0
  5  6  1  0  0  0  0
  6  7  1  0  0  0  0
  6  8  2  0  0  0  0
  7 30  1  0  0  0  0
  7 31  1  0  0  0  0
  8  9  1  0  0  0  0
  8 17  1  0  0  0  0
  9 10  1  0  0  0  0
 10 16  1  0  0  0  0
 10 11  2  0  0  0  0
 11 12  1  0  0  0  0
 11 32  1  0  0  0  0
 12 13  2  0  0  0  0
 12 33  1  0  0  0  0
 13 14  1  0  0  0  0
 13 15  1  0  0  0  0
 14 34  1  0  0  0  0
 14 35  1  0  0  0  0
 14 36  1  0  0  0  0
 15 16  2  0  0  0  0
 15 37  1  0  0  0  0
 16 38  1  0  0  0  0
 17 18  2  0  0  0  0
 17 19  1  0  0  0  0
 19 22  1  0  0  0  0
 19 20  1  0  0  0  0
 20 21  2  0  0  0  0
M  END
> <s_m_source_file>
AV-unprocessed.smi

> <i_m_source_file_index>
2632

> <i_lp_mmshare_version>
43012

> <i_f3d_flags>
0

> <s_epik_input>
W0NIM11PW0NIMl1bQ0gyXW4xYyhbTkgyXSljKGMoPU8pW25IXWMxPU8pU2MyW2NIXVtjSF1jKFtDSDNdKVtjSF1bY0hdMg==

> <s_epik_cmdline>
J2VwaWtfcHl0aG9uJywgJy1waCcsICc3LjAnLCAnLXRuJywgJzgnLCAnLW1hJywgJzIwMCcsICctbWV0YWxfYmluZGluZycsICctaW1hZScsICc8aW5maWxlLm1hZT4nLCAnLW9tYWUnLCAnPG91dGZpbGUubWFlPic=

> <r_lp_tautomer_probability>
1

> <r_epik_Ionization_Penalty>
1.3786e-05

> <r_epik_Ionization_Penalty_Charging>
1.17844e-05

> <r_epik_Ionization_Penalty_Neutral>
2.00164e-06

> <r_epik_State_Penalty>
-0

> <r_epik_Charging_Adjusted_Penalty>
1.17844e-05

> <i_epik_Tot_Q>
0

> <i_epik_Tot_abs_Q>
0

> <r_epik_Metal_State_Penalty>
0.0115847

> <b_epik_Metal_Only>
0

> <s_epik_Chemistry_Notes>
This compound has an imine and may undergo hydrolysis.

> <s_lp_Force_Field>
OPLS_2005

> <r_lp_Energy>
18.7052

> <b_lp_Chiralities_Consistent>
1

> <s_lp_Variant>
AV-unprocessed.smi:2632-1

> <Gold.Version>
5.8.1

> <Gold.Id.Protein>
6NUR|6NUR_protein|mol2

> <Gold.PLP.Fitness>
42.1192

> <Gold.PLP.PLP>
-36.8830

> <Gold.PLP.part.hbond>
-1.9826

> <Gold.PLP.part.metal>
0.0000

> <Gold.PLP.part.buried>
-3.2345

> <Gold.PLP.part.nonpolar>
-31.2003

> <Gold.PLP.part.repulsive>
0.6030

> <Gold.PLP.ligand.clash>
0.0000

> <Gold.PLP.ligand.torsion>
0.3939

> <Gold.PLP.Chemscore.Hbond>
2.0000

> <Gold.PLP.Chemscore.CHOScore>
0.0000

> <Gold.PLP.Chemscore.Metal>
0.0000

> <Gold.Chemscore.Hbonds>
donor molecule, donor type, donor heavy atom, donor atom, acceptor molecule, acceptor atom, score
      L1  H    19    22       P1  7957  1.00
      P1  H  7989  7998       L1    18  0.95

> <Gold.PLP.Chemscore.Internal.Correction>
0.0240

> <Gold.Rescore>
     Score         DG    S(hbond)    S(metal)    S(lipo)     H(rot)  DE(clash)    DE(int)     intcor
     14.53     -16.72       1.73        0.00      90.77       2.02       0.33       1.86       ----

> <Gold.Chemscore.Fitness>
14.5314

> <Gold.Chemscore.DG>
-16.7180

> <Gold.Chemscore.ZeroCoef>
-5.4800

> <Gold.Chemscore.Hbond>
1.7316

> <Gold.Chemscore.Metal>
0.0000

> <Gold.Chemscore.Lipo>
90.7737

> <Gold.Chemscore.Internal_Hbond>
0.0000

> <Gold.Chemscore.DEClash>
0.3280

> <Gold.Chemscore.DEInternal>
1.8586

> <Gold.Chemscore.Rot>
2.0180

> <Gold.Chemscore.Internal.Correction>
   9.000000E+99

> <Gold.Chemscore.Hbonds>
donor molecule, donor type, donor heavy atom, donor atom, acceptor molecule, acceptor atom, score
      L1  H    19    22       P1  7957  0.93
      P1  H  7989  7998       L1    18  0.20

> <Gold.Chemscore.Hbond.Weighted>
-5.7836

> <Gold.Chemscore.Metal.Weighted>
-0.0000

> <Gold.Chemscore.Lipo.Weighted>
-10.6205

> <Gold.Chemscore.Internal_Hbond.Weighted>
0.0000

> <Gold.Chemscore.DEClash.Weighted>
0.3280

> <Gold.Chemscore.DEInternal.Weighted>
1.8586

> <Gold.Chemscore.Rot.Weighted>
5.1661

> <Gold.Chemscore.Internal.Correction.Weighted>
   9.000000E+99

> <Gold.Protein.RotatedTorsions>
[ 6907 6896 6895 6894 ] final  159.32 input  -60.11 | X-H torsion
[ 7974 7965 7964 7962 ] final  140.96 input  175.53 | X-H torsion
[ 8008 7997 7996 7995 ] final   -2.75 input   59.86 | X-H torsion
[ 10167 10162 10161 10158 ] final   44.35 input  -65.29 | X-H torsion
[ 10718 10713 10712 10709 ] final   62.79 input   66.30 | X-H torsion
[ 10763 10752 10751 10750 ] final  -37.64 input  -60.55 | X-H torsion
[ 11005 11000 10999 10996 ] final   18.77 input  -57.11 | X-H torsion

> <Gold.Protein.ActiveResidues>
 VAL166  LYS551  ARG553  GLY616  TRP617  ASP618  TYR619  PRO620  LYS621  CYS622 
 ASP623  PHE694  ASN695  SER759  ASP760  ASP761  ALA762  ILE779  LEU786  VAL792 
 PHE793  MET794  SER795  GLU796  ALA797  LYS798  CYS799  TRP800  GLU811  SER814 

> <Gold.Protein.RotatedAtoms>
  151.9873  133.3778  159.4130 H   0  0  0  0  0  0  0  0  0  0  0  0  # atno 6907 bound_to 6896
  150.6926  134.3975  159.5113 H   0  0  0  0  0  0  0  0  0  0  0  0  # atno 6908 bound_to 6896
  152.1703  134.8839  160.0585 H   0  0  0  0  0  0  0  0  0  0  0  0  # atno 6909 bound_to 6896
  144.9139  139.5256  143.5695 H   0  0  0  0  0  0  0  0  0  0  0  0  # atno 7974 bound_to 7965
  154.6324  140.2526  155.7418 H   0  0  0  0  0  0  0  0  0  0  0  0  # atno 8008 bound_to 7997
  156.2486  140.2904  156.0601 H   0  0  0  0  0  0  0  0  0  0  0  0  # atno 8009 bound_to 7997
  155.1724  140.0387  157.2856 H   0  0  0  0  0  0  0  0  0  0  0  0  # atno 8010 bound_to 7997
  140.3352  144.2539  150.6162 H   0  0  0  0  0  0  0  0  0  0  0  0  # atno 10167 bound_to 10162
  157.5926  130.9070  149.9633 H   0  0  0  0  0  0  0  0  0  0  0  0  # atno 10718 bound_to 10713
  153.8996  135.6804  153.4756 H   0  0  0  0  0  0  0  0  0  0  0  0  # atno 10763 bound_to 10752
  153.1137  135.4771  154.9076 H   0  0  0  0  0  0  0  0  0  0  0  0  # atno 10764 bound_to 10752
  154.7582  135.3203  154.8384 H   0  0  0  0  0  0  0  0  0  0  0  0  # atno 10765 bound_to 10752
  140.4211  134.1518  155.7673 H   0  0  0  0  0  0  0  0  0  0  0  0  # atno 11005 bound_to 11000
  146.3172  139.7967  142.8974 LP  0  0  0  0  0  0  0  0  0  0  0  0  # atno 17320 bound_to 7965
  145.3407  141.0287  143.3394 LP  0  0  0  0  0  0  0  0  0  0  0  0  # atno 17321 bound_to 7965
  140.5360  143.2233  151.8162 LP  0  0  0  0  0  0  0  0  0  0  0  0  # atno 17342 bound_to 10162
  139.4849  144.4660  151.9483 LP  0  0  0  0  0  0  0  0  0  0  0  0  # atno 17343 bound_to 10162
  156.0983  130.3657  150.0266 LP  0  0  0  0  0  0  0  0  0  0  0  0  # atno 17370 bound_to 10713
  156.8385  130.9417  151.3633 LP  0  0  0  0  0  0  0  0  0  0  0  0  # atno 17371 bound_to 10713
  141.1784  133.8466  157.1344 LP  0  0  0  0  0  0  0  0  0  0  0  0  # atno 17394 bound_to 11000
  140.0200  134.9950  157.0571 LP  0  0  0  0  0  0  0  0  0  0  0  0  # atno 17395 bound_to 11000

$$$$
