AV-unprocessed.smi:2500|AV-procd|sdf|9842|dock1
  -GOLD-   2272013463D 1   1.00000     0.00000
 Structure written by MMmdl.
 38 39  0  0  0  0  0  0  0  0  1 V2000
  151.3355  142.8081  156.9121 C   0  0  0  0  0  0  0  0  0  0  0  0
  150.2039  142.3029  156.1508 N   0  0  0  0  0  0  0  0  0  0  0  0
  150.2327  141.1990  155.3858 C   0  0  0  0  0  0  0  0  0  0  0  0
  151.2390  140.5005  155.2550 O   0  0  0  0  0  0  0  0  0  0  0  0
  148.9500  140.8544  154.6730 C   0  0  0  0  0  0  0  0  0  0  0  0
  147.9377  141.8287  154.5249 C   0  0  0  0  0  0  0  0  0  0  0  0
  146.7542  141.4776  153.8513 C   0  0  0  0  0  0  0  0  0  0  0  0
  146.6199  140.1708  153.3477 C   0  0  0  0  0  0  0  0  0  0  0  0
  147.6719  139.2482  153.5320 C   0  0  0  0  0  0  0  0  0  0  0  0
  147.4489  137.9585  152.9828 N   0  0  0  0  0  0  0  0  0  0  0  0
  146.2840  137.2892  152.8691 C   0  0  0  0  0  0  0  0  0  0  0  0
  145.1822  137.7458  153.1701 O   0  0  0  0  0  0  0  0  0  0  0  0
  146.4072  136.0441  152.3724 N   0  0  0  0  0  0  0  0  0  0  0  0
  145.3603  135.0513  152.1189 C   0  0  1  0  0  0  0  0  0  0  0  0
  144.5024  135.4628  150.9278 C   0  0  0  0  0  0  0  0  0  0  0  0
  144.1319  134.6224  149.9468 C   0  0  0  0  0  0  0  0  0  0  0  0
  144.5135  133.1546  149.9139 C   0  0  0  0  0  0  0  0  0  0  0  0
  145.0345  132.6621  151.2757 C   0  0  0  0  0  0  0  0  0  0  0  0
  146.0108  133.6671  151.9055 C   0  0  0  0  0  0  0  0  0  0  0  0
  148.8072  139.5991  154.1829 N   0  0  0  0  0  0  0  0  0  0  0  0
  151.0519  143.7197  157.4379 H   0  0  0  0  0  0  0  0  0  0  0  0
  152.1734  143.0409  156.2541 H   0  0  0  0  0  0  0  0  0  0  0  0
  151.6642  142.0760  157.6507 H   0  0  0  0  0  0  0  0  0  0  0  0
  149.3373  142.8199  156.2036 H   0  0  0  0  0  0  0  0  0  0  0  0
  148.0569  142.8285  154.9164 H   0  0  0  0  0  0  0  0  0  0  0  0
  145.9619  142.1999  153.7218 H   0  0  0  0  0  0  0  0  0  0  0  0
  145.7178  139.8847  152.8264 H   0  0  0  0  0  0  0  0  0  0  0  0
  148.2742  137.4743  152.6617 H   0  0  0  0  0  0  0  0  0  0  0  0
  147.3424  135.7592  152.1191 H   0  0  0  0  0  0  0  0  0  0  0  0
  144.6996  134.9829  152.9847 H   0  0  0  0  0  0  0  0  0  0  0  0
  144.1834  136.4942  150.8857 H   0  0  0  0  0  0  0  0  0  0  0  0
  143.5407  134.9901  149.1209 H   0  0  0  0  0  0  0  0  0  0  0  0
  143.6489  132.5638  149.6105 H   0  0  0  0  0  0  0  0  0  0  0  0
  145.2763  133.0208  149.1463 H   0  0  0  0  0  0  0  0  0  0  0  0
  144.1926  132.5119  151.9529 H   0  0  0  0  0  0  0  0  0  0  0  0
  145.5135  131.6893  151.1610 H   0  0  0  0  0  0  0  0  0  0  0  0
  146.8775  133.7631  151.2492 H   0  0  0  0  0  0  0  0  0  0  0  0
  146.3871  133.2824  152.8543 H   0  0  0  0  0  0  0  0  0  0  0  0
  1  2  1  0  0  0  0
  1 21  1  0  0  0  0
  1 22  1  0  0  0  0
  1 23  1  0  0  0  0
  2  3  1  0  0  0  0
  2 24  1  0  0  0  0
  3  4  2  0  0  0  0
  3  5  1  0  0  0  0
  5 20  1  0  0  0  0
  5  6  2  0  0  0  0
  6  7  1  0  0  0  0
  6 25  1  0  0  0  0
  7  8  2  0  0  0  0
  7 26  1  0  0  0  0
  8  9  1  0  0  0  0
  8 27  1  0  0  0  0
  9 10  1  0  0  0  0
  9 20  2  0  0  0  0
 10 11  1  0  0  0  0
 10 28  1  0  0  0  0
 11 12  2  0  0  0  0
 11 13  1  0  0  0  0
 13 14  1  0  0  0  0
 13 29  1  0  0  0  0
 14 19  1  0  0  0  0
 14 15  1  0  0  0  0
 14 30  1  0  0  0  0
 15 16  2  0  0  0  0
 15 31  1  0  0  0  0
 16 17  1  0  0  0  0
 16 32  1  0  0  0  0
 17 18  1  0  0  0  0
 17 33  1  0  0  0  0
 17 34  1  0  0  0  0
 18 19  1  0  0  0  0
 18 35  1  0  0  0  0
 18 36  1  0  0  0  0
 19 37  1  0  0  0  0
 19 38  1  0  0  0  0
M  END
> <s_m_source_file>
AV-unprocessed.smi

> <i_m_source_file_index>
2500

> <i_lp_mmshare_version>
43012

> <i_f3d_flags>
0

> <s_epik_input>
W0NIM11bTkhdQyg9TyljMVtjSF1bY0hdW2NIXWMobjEpW05IXUMoPU8pW05IXVtDQEBIXTJbQ0hdPVtDSF1bQ0gyXVtDSDJdW0NIMl0y

> <s_epik_cmdline>
J2VwaWtfcHl0aG9uJywgJy1waCcsICc3LjAnLCAnLXRuJywgJzgnLCAnLW1hJywgJzIwMCcsICctbWV0YWxfYmluZGluZycsICctaW1hZScsICc8aW5maWxlLm1hZT4nLCAnLW9tYWUnLCAnPG91dGZpbGUubWFlPic=

> <r_lp_tautomer_probability>
1

> <r_epik_Ionization_Penalty>
3.75371e-05

> <r_epik_Ionization_Penalty_Charging>
0

> <r_epik_Ionization_Penalty_Neutral>
3.75371e-05

> <r_epik_State_Penalty>
-0

> <r_epik_Charging_Adjusted_Penalty>
0

> <i_epik_Tot_Q>
0

> <i_epik_Tot_abs_Q>
0

> <r_epik_Metal_State_Penalty>
-0

> <b_epik_Metal_Only>
0

> <s_lp_Force_Field>
OPLS_2005

> <r_lp_Energy>
23.2344

> <b_lp_Chiralities_Consistent>
1

> <s_lp_Variant>
AV-unprocessed.smi:2500-2

> <Gold.Version>
5.8.1

> <Gold.Id.Protein>
6NUR|6NUR_protein|mol2

> <Gold.PLP.Fitness>
41.5129

> <Gold.PLP.PLP>
-32.1847

> <Gold.PLP.part.hbond>
-3.9926

> <Gold.PLP.part.metal>
0.0000

> <Gold.PLP.part.buried>
-0.2626

> <Gold.PLP.part.nonpolar>
-28.2344

> <Gold.PLP.part.repulsive>
0.5524

> <Gold.PLP.ligand.clash>
0.0000

> <Gold.PLP.ligand.torsion>
0.5023

> <Gold.PLP.Chemscore.Hbond>
3.4416

> <Gold.PLP.Chemscore.CHOScore>
0.0000

> <Gold.PLP.Chemscore.Metal>
0.0000

> <Gold.Chemscore.Hbonds>
donor molecule, donor type, donor heavy atom, donor atom, acceptor molecule, acceptor atom, score
      L1  H     2    24       P1  8028  0.62
      L1  H    10    28       P1  7948  1.00
      L1  H    13    29       P1  7948  0.96
      P1  H  7989  7998       L1     4  0.88

> <Gold.PLP.Chemscore.Internal.Correction>
0.0080

> <Gold.Rescore>
     Score         DG    S(hbond)    S(metal)    S(lipo)     H(rot)  DE(clash)    DE(int)     intcor
     18.72     -21.06       2.84        0.00      74.08       1.00       0.51       1.83       ----

> <Gold.Chemscore.Fitness>
18.7163

> <Gold.Chemscore.DG>
-21.0609

> <Gold.Chemscore.ZeroCoef>
-5.4800

> <Gold.Chemscore.Hbond>
2.8365

> <Gold.Chemscore.Metal>
0.0000

> <Gold.Chemscore.Lipo>
74.0761

> <Gold.Chemscore.Internal_Hbond>
0.0000

> <Gold.Chemscore.DEClash>
0.5116

> <Gold.Chemscore.DEInternal>
1.8330

> <Gold.Chemscore.Rot>
1.0000

> <Gold.Chemscore.Internal.Correction>
   9.000000E+99

> <Gold.Chemscore.Hbonds>
donor molecule, donor type, donor heavy atom, donor atom, acceptor molecule, acceptor atom, score
      L1  H     2    24       P1  8028  0.58
      L1  H    10    28       P1  7948  0.94
      L1  H    13    29       P1  7948  0.92
      P1  H  7989  7998       L1     4  0.19

> <Gold.Chemscore.Hbond.Weighted>
-9.4740

> <Gold.Chemscore.Metal.Weighted>
-0.0000

> <Gold.Chemscore.Lipo.Weighted>
-8.6669

> <Gold.Chemscore.Internal_Hbond.Weighted>
0.0000

> <Gold.Chemscore.DEClash.Weighted>
0.5116

> <Gold.Chemscore.DEInternal.Weighted>
1.8330

> <Gold.Chemscore.Rot.Weighted>
2.5600

> <Gold.Chemscore.Internal.Correction.Weighted>
   9.000000E+99

> <Gold.Protein.RotatedTorsions>
[ 6907 6896 6895 6894 ] final -147.39 input  -60.11 | X-H torsion
[ 7974 7965 7964 7962 ] final   -8.55 input  175.53 | X-H torsion
[ 8008 7997 7996 7995 ] final  161.18 input   59.86 | X-H torsion
[ 10167 10162 10161 10158 ] final   26.83 input  -65.29 | X-H torsion
[ 10718 10713 10712 10709 ] final  -21.81 input   66.30 | X-H torsion
[ 10763 10752 10751 10750 ] final  117.97 input  -60.55 | X-H torsion
[ 11005 11000 10999 10996 ] final   46.88 input  -57.11 | X-H torsion

> <Gold.Protein.ActiveResidues>
 VAL166  LYS551  ARG553  GLY616  TRP617  ASP618  TYR619  PRO620  LYS621  CYS622 
 ASP623  PHE694  ASN695  SER759  ASP760  ASP761  ALA762  ILE779  LEU786  VAL792 
 PHE793  MET794  SER795  GLU796  ALA797  LYS798  CYS799  TRP800  GLU811  SER814 

> <Gold.Protein.RotatedAtoms>
  151.1550  133.4882  159.2594 H   0  0  0  0  0  0  0  0  0  0  0  0  # atno 6907 bound_to 6896
  151.1514  135.0228  159.8680 H   0  0  0  0  0  0  0  0  0  0  0  0  # atno 6908 bound_to 6896
  152.5463  134.1434  159.8541 H   0  0  0  0  0  0  0  0  0  0  0  0  # atno 6909 bound_to 6896
  146.2277  140.2485  142.8346 H   0  0  0  0  0  0  0  0  0  0  0  0  # atno 7974 bound_to 7965
  156.2121  140.1784  156.7671 H   0  0  0  0  0  0  0  0  0  0  0  0  # atno 8008 bound_to 7997
  154.5738  140.0678  156.9033 H   0  0  0  0  0  0  0  0  0  0  0  0  # atno 8009 bound_to 7997
  155.2625  140.3337  155.4274 H   0  0  0  0  0  0  0  0  0  0  0  0  # atno 8010 bound_to 7997
  140.4989  144.0347  150.6325 H   0  0  0  0  0  0  0  0  0  0  0  0  # atno 10167 bound_to 10162
  156.5131  130.4614  149.6637 H   0  0  0  0  0  0  0  0  0  0  0  0  # atno 10718 bound_to 10713
  153.5606  135.3521  155.2797 H   0  0  0  0  0  0  0  0  0  0  0  0  # atno 10763 bound_to 10752
  154.8695  135.4135  154.2835 H   0  0  0  0  0  0  0  0  0  0  0  0  # atno 10764 bound_to 10752
  153.3580  135.7058  153.6804 H   0  0  0  0  0  0  0  0  0  0  0  0  # atno 10765 bound_to 10752
  140.1329  134.4682  155.8507 H   0  0  0  0  0  0  0  0  0  0  0  0  # atno 11005 bound_to 11000
  144.9430  140.8098  143.5619 LP  0  0  0  0  0  0  0  0  0  0  0  0  # atno 17320 bound_to 7965
  145.2438  139.2061  143.4978 LP  0  0  0  0  0  0  0  0  0  0  0  0  # atno 17321 bound_to 7965
  140.3637  143.2893  152.0355 LP  0  0  0  0  0  0  0  0  0  0  0  0  # atno 17342 bound_to 10162
  139.4867  144.6283  151.7120 LP  0  0  0  0  0  0  0  0  0  0  0  0  # atno 17343 bound_to 10162
  156.3221  130.7286  151.2200 LP  0  0  0  0  0  0  0  0  0  0  0  0  # atno 17370 bound_to 10713
  157.7448  131.0453  150.4834 LP  0  0  0  0  0  0  0  0  0  0  0  0  # atno 17371 bound_to 10713
  141.2173  133.6803  156.7103 LP  0  0  0  0  0  0  0  0  0  0  0  0  # atno 17394 bound_to 11000
  140.2819  134.8310  157.3941 LP  0  0  0  0  0  0  0  0  0  0  0  0  # atno 17395 bound_to 11000

$$$$
