AV-unprocessed.smi:1670|AV-procd|sdf|6693|dock2
  -GOLD-   22720 7423D 1   1.00000     0.00000
 Structure written by MMmdl.
 41 42  0  0  0  0  0  0  0  0  1 V2000
  144.5624  134.8014  152.9354 C   0  0  0  0  0  0  0  0  0  0  0  0
  144.9201  135.8570  151.8803 C   0  0  2  0  0  0  0  0  0  0  0  0
  145.0371  135.2295  150.4744 C   0  0  0  0  0  0  0  0  0  0  0  0
  144.9508  133.7794  150.4995 N   0  0  0  0  0  0  0  0  0  0  0  0
  143.8279  132.9919  150.6403 C   0  0  0  0  0  0  0  0  0  0  0  0
  144.2352  131.6898  150.5841 C   0  0  0  0  0  0  0  0  0  0  0  0
  145.6438  131.7836  150.4061 C   0  0  0  0  0  0  0  0  0  0  0  0
  146.0703  133.0353  150.3616 N   0  0  0  0  0  0  0  0  0  0  0  0
  146.1705  136.5107  152.2653 N   0  0  0  0  0  0  0  0  0  0  0  0
  146.2883  137.5016  153.1612 C   0  0  0  0  0  0  0  0  0  0  0  0
  145.3466  137.9589  153.8093 O   0  0  0  0  0  0  0  0  0  0  0  0
  147.5525  137.9445  153.2425 N   0  0  0  0  0  0  0  0  0  0  0  0
  148.0536  139.0517  154.0584 C   0  0  2  0  0  0  0  0  0  0  0  0
  147.5824  140.4300  153.5466 C   0  0  0  0  0  0  0  0  0  0  0  0
  148.0661  141.5547  154.4764 C   0  0  0  0  0  0  0  0  0  0  0  0
  149.5956  141.5134  154.6471 C   0  0  1  0  0  0  0  0  0  0  0  0
  149.9947  142.5168  155.5569 O   0  0  0  0  0  0  0  0  0  0  0  0
  150.0643  140.1399  155.1612 C   0  0  0  0  0  0  0  0  0  0  0  0
  149.5875  139.0098  154.2345 C   0  0  0  0  0  0  0  0  0  0  0  0
  143.6173  134.3134  152.6960 H   0  0  0  0  0  0  0  0  0  0  0  0
  144.4575  135.2525  153.9227 H   0  0  0  0  0  0  0  0  0  0  0  0
  145.3288  134.0282  153.0013 H   0  0  0  0  0  0  0  0  0  0  0  0
  144.1094  136.5879  151.8700 H   0  0  0  0  0  0  0  0  0  0  0  0
  144.2660  135.6251  149.8108 H   0  0  0  0  0  0  0  0  0  0  0  0
  145.9959  135.4951  150.0274 H   0  0  0  0  0  0  0  0  0  0  0  0
  142.8432  133.4196  150.7604 H   0  0  0  0  0  0  0  0  0  0  0  0
  143.6196  130.8053  150.6554 H   0  0  0  0  0  0  0  0  0  0  0  0
  146.3644  130.9847  150.3105 H   0  0  0  0  0  0  0  0  0  0  0  0
  147.0044  136.2092  151.7828 H   0  0  0  0  0  0  0  0  0  0  0  0
  148.2369  137.4859  152.6590 H   0  0  0  0  0  0  0  0  0  0  0  0
  147.6086  138.9005  155.0427 H   0  0  0  0  0  0  0  0  0  0  0  0
  147.9611  140.6158  152.5412 H   0  0  0  0  0  0  0  0  0  0  0  0
  146.4943  140.4528  153.4773 H   0  0  0  0  0  0  0  0  0  0  0  0
  147.7588  142.5215  154.0756 H   0  0  0  0  0  0  0  0  0  0  0  0
  147.5810  141.4532  155.4483 H   0  0  0  0  0  0  0  0  0  0  0  0
  150.0717  141.7218  153.6880 H   0  0  0  0  0  0  0  0  0  0  0  0
  149.3625  143.2183  155.5266 H   0  0  0  0  0  0  0  0  0  0  0  0
  151.1521  140.1191  155.2386 H   0  0  0  0  0  0  0  0  0  0  0  0
  149.6786  139.9689  156.1673 H   0  0  0  0  0  0  0  0  0  0  0  0
  149.8921  138.0456  154.6432 H   0  0  0  0  0  0  0  0  0  0  0  0
  150.0874  139.1080  153.2705 H   0  0  0  0  0  0  0  0  0  0  0  0
  1  2  1  0  0  0  0
  1 20  1  0  0  0  0
  1 21  1  0  0  0  0
  1 22  1  0  0  0  0
  2  3  1  0  0  0  0
  2  9  1  0  0  0  0
  2 23  1  0  0  0  0
  3  4  1  0  0  0  0
  3 24  1  0  0  0  0
  3 25  1  0  0  0  0
  4  8  1  0  0  0  0
  4  5  1  0  0  0  0
  5  6  2  0  0  0  0
  5 26  1  0  0  0  0
  6  7  1  0  0  0  0
  6 27  1  0  0  0  0
  7  8  2  0  0  0  0
  7 28  1  0  0  0  0
  9 10  1  0  0  0  0
  9 29  1  0  0  0  0
 10 11  2  0  0  0  0
 10 12  1  0  0  0  0
 12 13  1  0  0  0  0
 12 30  1  0  0  0  0
 13 19  1  0  0  0  0
 13 14  1  0  0  0  0
 13 31  1  0  0  0  0
 14 15  1  0  0  0  0
 14 32  1  0  0  0  0
 14 33  1  0  0  0  0
 15 16  1  0  0  0  0
 15 34  1  0  0  0  0
 15 35  1  0  0  0  0
 16 17  1  0  0  0  0
 16 18  1  0  0  0  0
 16 36  1  0  0  0  0
 17 37  1  0  0  0  0
 18 19  1  0  0  0  0
 18 38  1  0  0  0  0
 18 39  1  0  0  0  0
 19 40  1  0  0  0  0
 19 41  1  0  0  0  0
M  END
> <s_m_source_file>
AV-unprocessed.smi

> <i_m_source_file_index>
1670

> <i_lp_mmshare_version>
43012

> <i_f3d_flags>
0

> <s_epik_input>
bjFbY0hdW2NIXVtjSF1uMVtDSDJdW0NAQEhdKFtDSDNdKVtOSF1DKD1PKVtOSF1bQ0BASF0yW0NIMl1bQ0gyXVtDQEBIXShbT0hdKVtDSDJdW0NIMl0y

> <s_epik_cmdline>
J2VwaWtfcHl0aG9uJywgJy1waCcsICc3LjAnLCAnLXRuJywgJzgnLCAnLW1hJywgJzIwMCcsICctbWV0YWxfYmluZGluZycsICctaW1hZScsICc8aW5maWxlLm1hZT4nLCAnLW9tYWUnLCAnPG91dGZpbGUubWFlPic=

> <r_lp_tautomer_probability>
1

> <r_epik_Ionization_Penalty>
7.33369e-05

> <r_epik_Ionization_Penalty_Charging>
0

> <r_epik_Ionization_Penalty_Neutral>
7.33369e-05

> <r_epik_State_Penalty>
-0

> <r_epik_Charging_Adjusted_Penalty>
0

> <i_epik_Tot_Q>
0

> <i_epik_Tot_abs_Q>
0

> <r_epik_Metal_State_Penalty>
-0

> <b_epik_Metal_Only>
0

> <s_lp_Force_Field>
OPLS_2005

> <r_lp_Energy>
5.26958

> <b_lp_Chiralities_Consistent>
1

> <s_lp_Variant>
AV-unprocessed.smi:1670-1

> <Gold.Version>
5.8.1

> <Gold.Id.Protein>
6NUR|6NUR_protein|mol2

> <Gold.PLP.Fitness>
46.9090

> <Gold.PLP.PLP>
-35.0614

> <Gold.PLP.part.hbond>
-2.5342

> <Gold.PLP.part.metal>
0.0000

> <Gold.PLP.part.buried>
-3.0592

> <Gold.PLP.part.nonpolar>
-29.5573

> <Gold.PLP.part.repulsive>
0.4009

> <Gold.PLP.ligand.clash>
0.0000

> <Gold.PLP.ligand.torsion>
1.4347

> <Gold.PLP.Chemscore.Hbond>
2.9040

> <Gold.PLP.Chemscore.CHOScore>
1.9852

> <Gold.PLP.Chemscore.Metal>
0.0000

> <Gold.Chemscore.Hbonds>
donor molecule, donor type, donor heavy atom, donor atom, acceptor molecule, acceptor atom, score
      L1  H     9    29       P1  7948  0.90
      L1  H    12    30       P1  7948  1.00
      L1  H    17    37       P1  8028  1.00
      L1  C     5    26       P1 10186  1.00
      L1  C     7    28       P1 10747  0.82

> <Gold.PLP.Chemscore.Internal.Correction>
0.0492

> <Gold.Rescore>
     Score         DG    S(hbond)    S(metal)    S(lipo)     H(rot)  DE(clash)    DE(int)     intcor
     17.64     -19.22       2.93        0.00      82.54       2.22       0.03       1.55       ----

> <Gold.Chemscore.Fitness>
17.6401

> <Gold.Chemscore.DG>
-19.2212

> <Gold.Chemscore.ZeroCoef>
-5.4800

> <Gold.Chemscore.Hbond>
2.9262

> <Gold.Chemscore.Metal>
0.0000

> <Gold.Chemscore.Lipo>
82.5379

> <Gold.Chemscore.Internal_Hbond>
0.0000

> <Gold.Chemscore.DEClash>
0.0319

> <Gold.Chemscore.DEInternal>
1.5492

> <Gold.Chemscore.Rot>
2.2224

> <Gold.Chemscore.Internal.Correction>
   9.000000E+99

> <Gold.Chemscore.Hbonds>
donor molecule, donor type, donor heavy atom, donor atom, acceptor molecule, acceptor atom, score
      L1  H     9    29       P1  7948  0.88
      L1  H    12    30       P1  7948  0.99
      L1  H    17    37       P1  8028  0.95

> <Gold.Chemscore.Hbond.Weighted>
-9.7736

> <Gold.Chemscore.Metal.Weighted>
-0.0000

> <Gold.Chemscore.Lipo.Weighted>
-9.6569

> <Gold.Chemscore.Internal_Hbond.Weighted>
0.0000

> <Gold.Chemscore.DEClash.Weighted>
0.0319

> <Gold.Chemscore.DEInternal.Weighted>
1.5492

> <Gold.Chemscore.Rot.Weighted>
5.6893

> <Gold.Chemscore.Internal.Correction.Weighted>
   9.000000E+99

> <Gold.Protein.RotatedTorsions>
[ 6907 6896 6895 6894 ] final  -29.93 input  -60.11 | X-H torsion
[ 7974 7965 7964 7962 ] final  -64.59 input  175.53 | X-H torsion
[ 8008 7997 7996 7995 ] final  -74.57 input   59.86 | X-H torsion
[ 10167 10162 10161 10158 ] final -157.60 input  -65.29 | X-H torsion
[ 10718 10713 10712 10709 ] final -153.29 input   66.30 | X-H torsion
[ 10763 10752 10751 10750 ] final  -94.77 input  -60.55 | X-H torsion
[ 11005 11000 10999 10996 ] final   40.30 input  -57.11 | X-H torsion

> <Gold.Protein.ActiveResidues>
 VAL166  LYS551  ARG553  GLY616  TRP617  ASP618  TYR619  PRO620  LYS621  CYS622 
 ASP623  PHE694  ASN695  SER759  ASP760  ASP761  ALA762  ILE779  LEU786  VAL792 
 PHE793  MET794  SER795  GLU796  ALA797  LYS798  CYS799  TRP800  GLU811  SER814 

> <Gold.Protein.RotatedAtoms>
  151.1124  135.0034  159.8500 H   0  0  0  0  0  0  0  0  0  0  0  0  # atno 6907 bound_to 6896
  152.5444  134.1820  159.8649 H   0  0  0  0  0  0  0  0  0  0  0  0  # atno 6908 bound_to 6896
  151.1871  133.4645  159.2627 H   0  0  0  0  0  0  0  0  0  0  0  0  # atno 6909 bound_to 6896
  145.7648  140.8843  143.0411 H   0  0  0  0  0  0  0  0  0  0  0  0  # atno 7974 bound_to 7965
  154.5342  140.0759  156.8399 H   0  0  0  0  0  0  0  0  0  0  0  0  # atno 8008 bound_to 7997
  155.3311  140.3402  155.4221 H   0  0  0  0  0  0  0  0  0  0  0  0  # atno 8009 bound_to 7997
  156.1812  140.1653  156.8257 H   0  0  0  0  0  0  0  0  0  0  0  0  # atno 8010 bound_to 7997
  139.6757  143.9667  152.2309 H   0  0  0  0  0  0  0  0  0  0  0  0  # atno 10167 bound_to 10162
  156.4839  130.8316  151.2541 H   0  0  0  0  0  0  0  0  0  0  0  0  # atno 10718 bound_to 10713
  154.7087  135.5145  153.8633 H   0  0  0  0  0  0  0  0  0  0  0  0  # atno 10763 bound_to 10752
  153.0762  135.6617  154.0150 H   0  0  0  0  0  0  0  0  0  0  0  0  # atno 10764 bound_to 10752
  153.9996  135.3012  155.3383 H   0  0  0  0  0  0  0  0  0  0  0  0  # atno 10765 bound_to 10752
  140.1944  134.3947  155.8129 H   0  0  0  0  0  0  0  0  0  0  0  0  # atno 11005 bound_to 11000
  144.6823  139.9773  143.7483 LP  0  0  0  0  0  0  0  0  0  0  0  0  # atno 17320 bound_to 7965
  146.0228  139.3266  143.0802 LP  0  0  0  0  0  0  0  0  0  0  0  0  # atno 17321 bound_to 7965
  139.9444  144.6661  150.8234 LP  0  0  0  0  0  0  0  0  0  0  0  0  # atno 17342 bound_to 10162
  140.7634  143.3223  151.2593 LP  0  0  0  0  0  0  0  0  0  0  0  0  # atno 17343 bound_to 10162
  157.7480  131.0036  150.3044 LP  0  0  0  0  0  0  0  0  0  0  0  0  # atno 17370 bound_to 10713
  156.3494  130.3828  149.7341 LP  0  0  0  0  0  0  0  0  0  0  0  0  # atno 17371 bound_to 10713
  141.2227  133.7062  156.8151 LP  0  0  0  0  0  0  0  0  0  0  0  0  # atno 17394 bound_to 11000
  140.2123  134.8818  157.3288 LP  0  0  0  0  0  0  0  0  0  0  0  0  # atno 17395 bound_to 11000

$$$$
