AV-unprocessed.smi:2646|AV-procd|sdf|10281|dock6
  -GOLD-   2272014293D 1   1.00000     0.00000
 Structure written by MMmdl.
 43 44  0  0  0  0  0  0  0  0  1 V2000
  149.4893  132.3329  154.9413 C   0  0  0  0  0  0  0  0  0  0  0  0
  148.3393  133.2911  154.5380 C   0  0  1  0  0  0  0  0  0  0  0  0
  147.3638  133.4275  155.7444 C   0  0  0  0  0  0  0  0  0  0  0  0
  148.0226  133.8365  156.9263 O   0  0  0  0  0  0  0  0  0  0  0  0
  148.8869  134.6155  154.2047 N   0  0  0  0  0  0  0  0  0  0  0  0
  149.6292  135.4389  154.9633 C   0  0  0  0  0  0  0  0  0  0  0  0
  149.9763  135.1898  156.1169 O   0  0  0  0  0  0  0  0  0  0  0  0
  149.9162  136.5704  154.2975 N   0  0  0  0  0  0  0  0  0  0  0  0
  150.6813  137.6835  154.7379 C   0  0  0  0  0  0  0  0  0  0  0  0
  151.6139  137.4766  155.7749 C   0  0  0  0  0  0  0  0  0  0  0  0
  152.3722  138.5663  156.2432 C   0  0  0  0  0  0  0  0  0  0  0  0
  152.1604  139.8299  155.6588 C   0  0  0  0  0  0  0  0  0  0  0  0
  151.2608  140.0492  154.6769 N   0  0  0  0  0  0  0  0  0  0  0  0
  150.5377  138.9993  154.2312 C   0  0  0  0  0  0  0  0  0  0  0  0
  147.6066  132.7531  153.2577 C   0  0  0  0  0  0  0  0  0  0  0  0
  146.6140  133.7734  152.6358 C   0  0  0  0  0  0  0  0  0  0  0  0
  145.9533  133.2384  151.3552 C   0  0  0  0  0  0  0  0  0  0  0  0
  145.2363  131.9073  151.6112 C   0  0  0  0  0  0  0  0  0  0  0  0
  146.2053  130.8780  152.2054 C   0  0  0  0  0  0  0  0  0  0  0  0
  146.8676  131.4067  153.4874 C   0  0  0  0  0  0  0  0  0  0  0  0
  149.1426  131.3003  154.9949 H   0  0  0  0  0  0  0  0  0  0  0  0
  149.8999  132.5791  155.9205 H   0  0  0  0  0  0  0  0  0  0  0  0
  150.3200  132.3667  154.2369 H   0  0  0  0  0  0  0  0  0  0  0  0
  146.5829  134.1592  155.5382 H   0  0  0  0  0  0  0  0  0  0  0  0
  146.8467  132.4889  155.9437 H   0  0  0  0  0  0  0  0  0  0  0  0
  148.4509  134.6623  156.7594 H   0  0  0  0  0  0  0  0  0  0  0  0
  148.6676  134.9421  153.2752 H   0  0  0  0  0  0  0  0  0  0  0  0
  149.4892  136.6710  153.3884 H   0  0  0  0  0  0  0  0  0  0  0  0
  151.7520  136.4955  156.2053 H   0  0  0  0  0  0  0  0  0  0  0  0
  153.0991  138.4370  157.0314 H   0  0  0  0  0  0  0  0  0  0  0  0
  152.7245  140.6880  155.9932 H   0  0  0  0  0  0  0  0  0  0  0  0
  149.8171  139.2422  153.4661 H   0  0  0  0  0  0  0  0  0  0  0  0
  148.3688  132.5688  152.4991 H   0  0  0  0  0  0  0  0  0  0  0  0
  145.8355  134.0330  153.3538 H   0  0  0  0  0  0  0  0  0  0  0  0
  147.1220  134.7034  152.3844 H   0  0  0  0  0  0  0  0  0  0  0  0
  145.2450  133.9721  150.9692 H   0  0  0  0  0  0  0  0  0  0  0  0
  146.7108  133.1039  150.5818 H   0  0  0  0  0  0  0  0  0  0  0  0
  144.4002  132.0637  152.2942 H   0  0  0  0  0  0  0  0  0  0  0  0
  144.8122  131.5268  150.6814 H   0  0  0  0  0  0  0  0  0  0  0  0
  145.6750  129.9494  152.4184 H   0  0  0  0  0  0  0  0  0  0  0  0
  146.9748  130.6331  151.4719 H   0  0  0  0  0  0  0  0  0  0  0  0
  147.5573  130.6430  153.8435 H   0  0  0  0  0  0  0  0  0  0  0  0
  146.1078  131.5195  154.2615 H   0  0  0  0  0  0  0  0  0  0  0  0
  1  2  1  0  0  0  0
  1 21  1  0  0  0  0
  1 22  1  0  0  0  0
  1 23  1  0  0  0  0
  2  3  1  0  0  0  0
  2  5  1  0  0  0  0
  2 15  1  0  0  0  0
  3  4  1  0  0  0  0
  3 24  1  0  0  0  0
  3 25  1  0  0  0  0
  4 26  1  0  0  0  0
  5  6  1  0  0  0  0
  5 27  1  0  0  0  0
  6  7  2  0  0  0  0
  6  8  1  0  0  0  0
  8  9  1  0  0  0  0
  8 28  1  0  0  0  0
  9 14  1  0  0  0  0
  9 10  2  0  0  0  0
 10 11  1  0  0  0  0
 10 29  1  0  0  0  0
 11 12  2  0  0  0  0
 11 30  1  0  0  0  0
 12 13  1  0  0  0  0
 12 31  1  0  0  0  0
 13 14  2  0  0  0  0
 14 32  1  0  0  0  0
 15 20  1  0  0  0  0
 15 16  1  0  0  0  0
 15 33  1  0  0  0  0
 16 17  1  0  0  0  0
 16 34  1  0  0  0  0
 16 35  1  0  0  0  0
 17 18  1  0  0  0  0
 17 36  1  0  0  0  0
 17 37  1  0  0  0  0
 18 19  1  0  0  0  0
 18 38  1  0  0  0  0
 18 39  1  0  0  0  0
 19 20  1  0  0  0  0
 19 40  1  0  0  0  0
 19 41  1  0  0  0  0
 20 42  1  0  0  0  0
 20 43  1  0  0  0  0
M  END
> <s_m_source_file>
AV-unprocessed.smi

> <i_m_source_file_index>
2646

> <i_lp_mmshare_version>
43012

> <i_f3d_flags>
0

> <s_epik_input>
W0NIMl0xW0NIMl1bQ0gyXVtDSDJdW0NIMl1bQ0hdMVtDQF0oW0NIM10pKFtDSDJdW09IXSlbTkhdQyg9TylbTkhdYzJbY0hdW2NIXVtjSF1uW2NIXTI=

> <s_epik_cmdline>
J2VwaWtfcHl0aG9uJywgJy1waCcsICc3LjAnLCAnLXRuJywgJzgnLCAnLW1hJywgJzIwMCcsICctbWV0YWxfYmluZGluZycsICctaW1hZScsICc8aW5maWxlLm1hZT4nLCAnLW9tYWUnLCAnPG91dGZpbGUubWFlPic=

> <r_epik_Ionization_Penalty>
0.00498697

> <r_epik_Ionization_Penalty_Charging>
0

> <r_epik_Ionization_Penalty_Neutral>
0.00498697

> <r_epik_State_Penalty>
0.00359645

> <r_epik_Charging_Adjusted_Penalty>
0.00359645

> <i_epik_Tot_Q>
0

> <i_epik_Tot_abs_Q>
0

> <r_epik_Metal_State_Penalty>
-0

> <b_epik_Metal_Only>
0

> <s_lp_Force_Field>
OPLS_2005

> <r_lp_Energy>
21.3241

> <b_lp_Chiralities_Consistent>
1

> <s_lp_Variant>
AV-unprocessed.smi:2646-1

> <Gold.Version>
5.8.1

> <Gold.Id.Protein>
6NUR|6NUR_protein|mol2

> <Gold.PLP.Fitness>
44.3324

> <Gold.PLP.PLP>
-32.9567

> <Gold.PLP.part.hbond>
-3.9174

> <Gold.PLP.part.metal>
0.0000

> <Gold.PLP.part.buried>
-2.0086

> <Gold.PLP.part.nonpolar>
-27.0178

> <Gold.PLP.part.repulsive>
0.1699

> <Gold.PLP.ligand.clash>
0.0000

> <Gold.PLP.ligand.torsion>
0.2379

> <Gold.PLP.Chemscore.Hbond>
2.9353

> <Gold.PLP.Chemscore.CHOScore>
1.0000

> <Gold.PLP.Chemscore.Metal>
0.0000

> <Gold.Chemscore.Hbonds>
donor molecule, donor type, donor heavy atom, donor atom, acceptor molecule, acceptor atom, score
      L1  H     5    27       P1  7948  0.98
      L1  H     8    28       P1  7948  1.00
      P1  H  7989  7998       L1    13  0.88
      L1  C    14    32       P1  7957  1.00

> <Gold.PLP.Chemscore.Internal.Correction>
0.0457

> <Gold.Rescore>
     Score         DG    S(hbond)    S(metal)    S(lipo)     H(rot)  DE(clash)    DE(int)     intcor
     12.16     -17.10       2.13        0.00      81.75       1.98       0.40       4.55       ----

> <Gold.Chemscore.Fitness>
12.1560

> <Gold.Chemscore.DG>
-17.1041

> <Gold.Chemscore.ZeroCoef>
-5.4800

> <Gold.Chemscore.Hbond>
2.1339

> <Gold.Chemscore.Metal>
0.0000

> <Gold.Chemscore.Lipo>
81.7537

> <Gold.Chemscore.Internal_Hbond>
0.0000

> <Gold.Chemscore.DEClash>
0.3966

> <Gold.Chemscore.DEInternal>
4.5516

> <Gold.Chemscore.Rot>
1.9798

> <Gold.Chemscore.Internal.Correction>
   9.000000E+99

> <Gold.Chemscore.Hbonds>
donor molecule, donor type, donor heavy atom, donor atom, acceptor molecule, acceptor atom, score
      L1  H     5    27       P1  7948  0.51
      L1  H     8    28       P1  7948  0.78
      P1  H  7989  7998       L1    13  0.55

> <Gold.Chemscore.Hbond.Weighted>
-7.1271

> <Gold.Chemscore.Metal.Weighted>
-0.0000

> <Gold.Chemscore.Lipo.Weighted>
-9.5652

> <Gold.Chemscore.Internal_Hbond.Weighted>
0.0000

> <Gold.Chemscore.DEClash.Weighted>
0.3966

> <Gold.Chemscore.DEInternal.Weighted>
4.5516

> <Gold.Chemscore.Rot.Weighted>
5.0682

> <Gold.Chemscore.Internal.Correction.Weighted>
   9.000000E+99

> <Gold.Protein.RotatedTorsions>
[ 6907 6896 6895 6894 ] final  -71.38 input  -60.11 | X-H torsion
[ 7974 7965 7964 7962 ] final  -29.67 input  175.53 | X-H torsion
[ 8008 7997 7996 7995 ] final  -33.34 input   59.86 | X-H torsion
[ 10167 10162 10161 10158 ] final  144.99 input  -65.29 | X-H torsion
[ 10718 10713 10712 10709 ] final  117.75 input   66.30 | X-H torsion
[ 10763 10752 10751 10750 ] final  -48.47 input  -60.55 | X-H torsion
[ 11005 11000 10999 10996 ] final    9.47 input  -57.11 | X-H torsion

> <Gold.Protein.ActiveResidues>
 VAL166  LYS551  ARG553  GLY616  TRP617  ASP618  TYR619  PRO620  LYS621  CYS622 
 ASP623  PHE694  ASN695  SER759  ASP760  ASP761  ALA762  ILE779  LEU786  VAL792 
 PHE793  MET794  SER795  GLU796  ALA797  LYS798  CYS799  TRP800  GLU811  SER814 

> <Gold.Protein.RotatedAtoms>
  150.7215  134.5316  159.5702 H   0  0  0  0  0  0  0  0  0  0  0  0  # atno 6907 bound_to 6896
  152.2848  134.7785  160.0398 H   0  0  0  0  0  0  0  0  0  0  0  0  # atno 6908 bound_to 6896
  151.8419  133.3389  159.3682 H   0  0  0  0  0  0  0  0  0  0  0  0  # atno 6909 bound_to 6896
  146.1199  140.5442  142.8740 H   0  0  0  0  0  0  0  0  0  0  0  0  # atno 7974 bound_to 7965
  154.4152  140.1713  156.1873 H   0  0  0  0  0  0  0  0  0  0  0  0  # atno 8008 bound_to 7997
  155.9633  140.3391  155.6486 H   0  0  0  0  0  0  0  0  0  0  0  0  # atno 8009 bound_to 7997
  155.6721  140.0713  157.2507 H   0  0  0  0  0  0  0  0  0  0  0  0  # atno 8010 bound_to 7997
  139.4935  144.5933  151.6635 H   0  0  0  0  0  0  0  0  0  0  0  0  # atno 10167 bound_to 10162
  157.6076  131.1040  150.7658 H   0  0  0  0  0  0  0  0  0  0  0  0  # atno 10718 bound_to 10713
  154.0783  135.6595  153.4834 H   0  0  0  0  0  0  0  0  0  0  0  0  # atno 10763 bound_to 10752
  153.0365  135.5174  154.7499 H   0  0  0  0  0  0  0  0  0  0  0  0  # atno 10764 bound_to 10752
  154.6586  135.3011  154.9863 H   0  0  0  0  0  0  0  0  0  0  0  0  # atno 10765 bound_to 10752
  140.5254  134.0518  155.7857 H   0  0  0  0  0  0  0  0  0  0  0  0  # atno 11005 bound_to 11000
  144.7588  140.5371  143.6750 LP  0  0  0  0  0  0  0  0  0  0  0  0  # atno 17320 bound_to 7965
  145.5487  139.1476  143.3406 LP  0  0  0  0  0  0  0  0  0  0  0  0  # atno 17321 bound_to 7965
  140.5565  144.0339  150.6150 LP  0  0  0  0  0  0  0  0  0  0  0  0  # atno 17342 bound_to 10162
  140.3411  143.3019  152.0587 LP  0  0  0  0  0  0  0  0  0  0  0  0  # atno 17343 bound_to 10162
  156.8043  130.4931  149.5365 LP  0  0  0  0  0  0  0  0  0  0  0  0  # atno 17370 bound_to 10713
  156.1168  130.6080  151.0132 LP  0  0  0  0  0  0  0  0  0  0  0  0  # atno 17371 bound_to 10713
  141.1311  133.9300  157.2533 LP  0  0  0  0  0  0  0  0  0  0  0  0  # atno 17394 bound_to 11000
  139.9583  135.0160  156.9190 LP  0  0  0  0  0  0  0  0  0  0  0  0  # atno 17395 bound_to 11000

$$$$
