AV-unprocessed.smi:2032|AV-procd|sdf|8256|dock2
  -GOLD-   2272010533D 1   1.00000     0.00000
 Structure written by MMmdl.
 42 43  0  0  0  0  0  0  0  0  3 V2000
  146.8768  133.3456  150.9184 C   0  0  0  0  0  0  0  0  0  0  0  0
  145.9686  133.2938  152.1599 C   0  0  1  0  0  0  0  0  0  0  0  0
  146.7222  133.5137  153.4844 C   0  0  0  0  0  0  0  0  0  0  0  0
  147.1388  134.9321  153.6493 N   0  3  2  0  0  0  0  0  0  0  0  0
  147.9901  135.1364  154.8653 C   0  0  2  0  0  0  0  0  0  0  0  0
  149.3418  134.3835  154.8173 C   0  0  0  0  0  0  0  0  0  0  0  0
  147.1956  134.7335  156.1353 C   0  0  0  0  0  0  0  0  0  0  0  0
  147.3453  135.6897  157.2275 N   0  0  0  0  0  0  0  0  0  0  0  0
  148.0528  135.4891  158.3480 C   0  0  0  0  0  0  0  0  0  0  0  0
  148.6642  134.4298  158.5066 O   0  0  0  0  0  0  0  0  0  0  0  0
  148.0000  136.5241  159.2157 N   0  5  0  0  0  0  0  0  0  0  0  0
  147.5576  136.3289  160.4686 C   0  0  0  0  0  0  0  0  0  0  0  0
  147.3117  137.3310  161.3203 N   0  0  0  0  0  0  0  0  0  0  0  0
  146.8510  136.9003  162.5660 C   0  0  0  0  0  0  0  0  0  0  0  0
  146.7365  135.5390  162.6626 C   0  0  0  0  0  0  0  0  0  0  0  0
  147.2055  134.7525  161.1824 S   0  0  0  0  0  0  0  0  0  0  0  0
  145.9454  135.8118  153.5286 C   0  0  0  0  0  0  0  0  0  0  0  0
  145.2176  135.5704  152.1927 C   0  0  2  0  0  0  0  0  0  0  0  0
  143.9290  136.3937  152.0852 C   0  0  0  0  0  0  0  0  0  0  0  0
  144.8678  134.1959  152.0707 O   0  0  0  0  0  0  0  0  0  0  0  0
  147.6286  132.5567  150.9585 H   0  0  0  0  0  0  0  0  0  0  0  0
  147.4085  134.2927  150.8312 H   0  0  0  0  0  0  0  0  0  0  0  0
  146.2973  133.2009  150.0064 H   0  0  0  0  0  0  0  0  0  0  0  0
  145.5347  132.2939  152.1889 H   0  0  0  0  0  0  0  0  0  0  0  0
  146.0744  133.2373  154.3181 H   0  0  0  0  0  0  0  0  0  0  0  0
  147.5758  132.8391  153.5246 H   0  0  0  0  0  0  0  0  0  0  0  0
  148.2311  136.1993  154.9194 H   0  0  0  0  0  0  0  0  0  0  0  0
  149.9231  134.5441  155.7252 H   0  0  0  0  0  0  0  0  0  0  0  0
  149.9737  134.7295  153.9992 H   0  0  0  0  0  0  0  0  0  0  0  0
  149.1971  133.3081  154.7096 H   0  0  0  0  0  0  0  0  0  0  0  0
  146.1321  134.6126  155.9326 H   0  0  0  0  0  0  0  0  0  0  0  0
  147.5430  133.7640  156.4938 H   0  0  0  0  0  0  0  0  0  0  0  0
  146.8642  136.5727  157.1347 H   0  0  0  0  0  0  0  0  0  0  0  0
  146.6281  137.6335  163.3268 H   0  0  0  0  0  0  0  0  0  0  0  0
  146.4059  134.9538  163.5072 H   0  0  0  0  0  0  0  0  0  0  0  0
  145.2735  135.6335  154.3698 H   0  0  0  0  0  0  0  0  0  0  0  0
  146.2329  136.8624  153.5550 H   0  0  0  0  0  0  0  0  0  0  0  0
  145.8682  135.8577  151.3664 H   0  0  0  0  0  0  0  0  0  0  0  0
  144.1365  137.4616  152.1582 H   0  0  0  0  0  0  0  0  0  0  0  0
  143.2269  136.1343  152.8780 H   0  0  0  0  0  0  0  0  0  0  0  0
  143.4328  136.2171  151.1305 H   0  0  0  0  0  0  0  0  0  0  0  0
  147.7267  135.1599  152.8604 H   0  0  0  0  0  0  0  0  0  0  0  0
  1  2  1  0  0  0  0
  1 21  1  0  0  0  0
  1 22  1  0  0  0  0
  1 23  1  0  0  0  0
  2 20  1  0  0  0  0
  2  3  1  0  0  0  0
  2 24  1  0  0  0  0
  3  4  1  0  0  0  0
  3 25  1  0  0  0  0
  3 26  1  0  0  0  0
  4  5  1  0  0  0  0
  4 17  1  0  0  0  0
  4 42  1  0  0  0  0
  5  6  1  0  0  0  0
  5  7  1  0  0  0  0
  5 27  1  0  0  0  0
  6 28  1  0  0  0  0
  6 29  1  0  0  0  0
  6 30  1  0  0  0  0
  7  8  1  0  0  0  0
  7 31  1  0  0  0  0
  7 32  1  0  0  0  0
  8  9  1  0  0  0  0
  8 33  1  0  0  0  0
  9 10  2  0  0  0  0
  9 11  1  0  0  0  0
 11 12  1  0  0  0  0
 12 16  1  0  0  0  0
 12 13  2  0  0  0  0
 13 14  1  0  0  0  0
 14 15  2  0  0  0  0
 14 34  1  0  0  0  0
 15 16  1  0  0  0  0
 15 35  1  0  0  0  0
 17 18  1  0  0  0  0
 17 36  1  0  0  0  0
 17 37  1  0  0  0  0
 18 19  1  0  0  0  0
 18 20  1  0  0  0  0
 18 38  1  0  0  0  0
 19 39  1  0  0  0  0
 19 40  1  0  0  0  0
 19 41  1  0  0  0  0
M  CHG  1   4   1
M  CHG  1  11  -1
M  END
> <s_m_source_file>
AV-unprocessed.smi

> <i_m_source_file_index>
2032

> <i_lp_mmshare_version>
43012

> <i_f3d_flags>
0

> <s_epik_input>
W0NIM11bQ0BASF0xW0NIMl1OKFtDSDJdW0NASF0oTzEpW0NIM10pW0NASF0oW0NIM10pW0NIMl1bTkhdQyg9TylbTkhdYzJuW2NIXVtjSF1zMg==

> <s_epik_cmdline>
J2VwaWtfcHl0aG9uJywgJy1waCcsICc3LjAnLCAnLXRuJywgJzgnLCAnLW1hJywgJzIwMCcsICctbWV0YWxfYmluZGluZycsICctaW1hZScsICc8aW5maWxlLm1hZT4nLCAnLW9tYWUnLCAnPG91dGZpbGUubWFlPic=

> <r_lp_tautomer_probability>
0.999

> <r_epik_Ionization_Penalty>
6.71699

> <r_epik_Ionization_Penalty_Charging>
5.88592

> <r_epik_Ionization_Penalty_Neutral>
0.831074

> <r_epik_State_Penalty>
6.08365

> <r_epik_Charging_Adjusted_Penalty>
11.9696

> <i_epik_Tot_Q>
0

> <i_epik_Tot_abs_Q>
2

> <r_epik_Metal_State_Penalty>
2.0947

> <b_epik_Metal_Only>
1

> <s_lp_Force_Field>
OPLS_2005

> <r_lp_Energy>
13.0478

> <b_lp_Chiralities_Consistent>
1

> <s_lp_Variant>
AV-unprocessed.smi:2032-26

> <Gold.Version>
5.8.1

> <Gold.Id.Protein>
6NUR|6NUR_protein|mol2

> <Gold.PLP.Fitness>
42.9257

> <Gold.PLP.PLP>
-30.9479

> <Gold.PLP.part.hbond>
-4.0000

> <Gold.PLP.part.metal>
0.0000

> <Gold.PLP.part.buried>
-4.1899

> <Gold.PLP.part.nonpolar>
-22.3269

> <Gold.PLP.part.repulsive>
0.0839

> <Gold.PLP.ligand.clash>
0.0000

> <Gold.PLP.ligand.torsion>
1.2317

> <Gold.PLP.Chemscore.Hbond>
4.7520

> <Gold.PLP.Chemscore.CHOScore>
0.0000

> <Gold.PLP.Chemscore.Metal>
0.0000

> <Gold.Chemscore.Hbonds>
donor molecule, donor type, donor heavy atom, donor atom, acceptor molecule, acceptor atom, score
      L1  H     4    42       P1  7948  2.00
      P1  H  6896  6909       L1    10  0.65
      P1  H  6931  6943       L1    13  0.75
      P1  H  6934  6947       L1    13  0.99

> <Gold.PLP.Chemscore.Internal.Correction>
0.1852

> <Gold.Rescore>
     Score         DG    S(hbond)    S(metal)    S(lipo)     H(rot)  DE(clash)    DE(int)     intcor
     18.45     -19.88       3.48        0.00      58.38       1.58       0.09       1.34       ----

> <Gold.Chemscore.Fitness>
18.4535

> <Gold.Chemscore.DG>
-19.8849

> <Gold.Chemscore.ZeroCoef>
-5.4800

> <Gold.Chemscore.Hbond>
3.4781

> <Gold.Chemscore.Metal>
0.0000

> <Gold.Chemscore.Lipo>
58.3807

> <Gold.Chemscore.Internal_Hbond>
0.0000

> <Gold.Chemscore.DEClash>
0.0898

> <Gold.Chemscore.DEInternal>
1.3415

> <Gold.Chemscore.Rot>
1.5791

> <Gold.Chemscore.Internal.Correction>
   9.000000E+99

> <Gold.Chemscore.Hbonds>
donor molecule, donor type, donor heavy atom, donor atom, acceptor molecule, acceptor atom, score
      L1  H     4    42       P1  7948  0.99
      P1  H  6896  6909       L1    10  0.65
      P1  H  6931  6943       L1    13  0.13
      P1  H  6934  6947       L1    13  0.89

> <Gold.Chemscore.Hbond.Weighted>
-11.6168

> <Gold.Chemscore.Metal.Weighted>
-0.0000

> <Gold.Chemscore.Lipo.Weighted>
-6.8305

> <Gold.Chemscore.Internal_Hbond.Weighted>
0.0000

> <Gold.Chemscore.DEClash.Weighted>
0.0898

> <Gold.Chemscore.DEInternal.Weighted>
1.3415

> <Gold.Chemscore.Rot.Weighted>
4.0425

> <Gold.Chemscore.Internal.Correction.Weighted>
   9.000000E+99

> <Gold.Protein.RotatedTorsions>
[ 6907 6896 6895 6894 ] final   26.95 input  -60.11 | X-H torsion
[ 7974 7965 7964 7962 ] final   29.47 input  175.53 | X-H torsion
[ 8008 7997 7996 7995 ] final  157.43 input   59.86 | X-H torsion
[ 10167 10162 10161 10158 ] final -118.62 input  -65.29 | X-H torsion
[ 10718 10713 10712 10709 ] final   26.87 input   66.30 | X-H torsion
[ 10763 10752 10751 10750 ] final  -56.44 input  -60.55 | X-H torsion
[ 11005 11000 10999 10996 ] final   32.79 input  -57.11 | X-H torsion

> <Gold.Protein.ActiveResidues>
 VAL166  LYS551  ARG553  GLY616  TRP617  ASP618  TYR619  PRO620  LYS621  CYS622 
 ASP623  PHE694  ASN695  SER759  ASP760  ASP761  ALA762  ILE779  LEU786  VAL792 
 PHE793  MET794  SER795  GLU796  ALA797  LYS798  CYS799  TRP800  GLU811  SER814 

> <Gold.Protein.RotatedAtoms>
  151.9951  134.9959  160.0562 H   0  0  0  0  0  0  0  0  0  0  0  0  # atno 6907 bound_to 6896
  152.1572  133.4554  159.4851 H   0  0  0  0  0  0  0  0  0  0  0  0  # atno 6908 bound_to 6896
  150.6883  134.2034  159.4374 H   0  0  0  0  0  0  0  0  0  0  0  0  # atno 6909 bound_to 6896
  146.1669  139.6917  142.8995 H   0  0  0  0  0  0  0  0  0  0  0  0  # atno 7974 bound_to 7965
  156.2364  140.1885  156.7108 H   0  0  0  0  0  0  0  0  0  0  0  0  # atno 8008 bound_to 7997
  154.6114  140.0621  156.9526 H   0  0  0  0  0  0  0  0  0  0  0  0  # atno 8009 bound_to 7997
  155.2009  140.3292  155.4346 H   0  0  0  0  0  0  0  0  0  0  0  0  # atno 8010 bound_to 7997
  140.0555  143.5018  152.2059 H   0  0  0  0  0  0  0  0  0  0  0  0  # atno 10167 bound_to 10162
  157.2126  130.6941  149.6235 H   0  0  0  0  0  0  0  0  0  0  0  0  # atno 10718 bound_to 10713
  154.2067  135.6401  153.5103 H   0  0  0  0  0  0  0  0  0  0  0  0  # atno 10763 bound_to 10752
  152.9999  135.5464  154.6258 H   0  0  0  0  0  0  0  0  0  0  0  0  # atno 10764 bound_to 10752
  154.5685  135.2915  155.0824 H   0  0  0  0  0  0  0  0  0  0  0  0  # atno 10765 bound_to 10752
  140.2698  134.3095  155.7831 H   0  0  0  0  0  0  0  0  0  0  0  0  # atno 11005 bound_to 11000
  145.4443  141.0424  143.2840 LP  0  0  0  0  0  0  0  0  0  0  0  0  # atno 17320 bound_to 7965
  144.8106  139.5970  143.7031 LP  0  0  0  0  0  0  0  0  0  0  0  0  # atno 17321 bound_to 7965
  139.5926  144.7555  151.3363 LP  0  0  0  0  0  0  0  0  0  0  0  0  # atno 17342 bound_to 10162
  140.7197  143.7171  150.7724 LP  0  0  0  0  0  0  0  0  0  0  0  0  # atno 17343 bound_to 10162
  155.9689  130.4546  150.5856 LP  0  0  0  0  0  0  0  0  0  0  0  0  # atno 17370 bound_to 10713
  157.3657  131.0757  151.1600 LP  0  0  0  0  0  0  0  0  0  0  0  0  # atno 17371 bound_to 10713
  141.2179  133.7460  156.9317 LP  0  0  0  0  0  0  0  0  0  0  0  0  # atno 17394 bound_to 11000
  140.1384  134.9310  157.2433 LP  0  0  0  0  0  0  0  0  0  0  0  0  # atno 17395 bound_to 11000

$$$$
