AV-unprocessed.smi:2774|AV-procd|sdf|10681|dock5
  -GOLD-   2272015123D 1   1.00000     0.00000
 Structure written by MMmdl.
 35 36  0  0  0  0  0  0  0  0  2 V2000
  148.9013  140.6303  153.9338 O   0  0  0  0  0  0  0  0  0  0  0  0
  150.0725  140.8461  154.6967 C   0  0  1  0  0  0  0  0  0  0  0  0
  149.6757  141.4690  156.0464 C   0  0  0  0  0  0  0  0  0  0  0  0
  150.4659  142.6866  156.3314 N   0  3  0  0  0  0  0  0  0  0  0  0
  150.9503  142.8200  157.7234 C   0  0  2  0  0  0  0  0  0  0  0  0
  151.7215  144.1442  157.9214 C   0  0  0  0  0  0  0  0  0  0  0  0
  152.1988  144.3462  159.3694 C   0  0  0  0  0  0  0  0  0  0  0  0
  153.1551  143.2401  159.8353 C   0  0  0  0  0  0  0  0  0  0  0  0
  152.3400  141.6219  159.8103 S   0  0  0  0  0  0  0  0  0  0  0  0
  151.8313  141.6061  158.0698 C   0  0  0  0  0  0  0  0  0  0  0  0
  150.8597  139.5601  154.8948 C   0  0  0  0  0  0  0  0  0  0  0  0
  150.4329  138.3596  154.2892 C   0  0  0  0  0  0  0  0  0  0  0  0
  151.1958  137.1925  154.4950 C   0  0  0  0  0  0  0  0  0  0  0  0
  152.3194  137.1635  155.2428 N   0  0  0  0  0  0  0  0  0  0  0  0
  152.7250  138.3151  155.8189 C   0  0  0  0  0  0  0  0  0  0  0  0
  152.0356  139.5360  155.6759 C   0  0  0  0  0  0  0  0  0  0  0  0
  149.1413  140.5957  153.0197 H   0  0  0  0  0  0  0  0  0  0  0  0
  150.6960  141.5505  154.1438 H   0  0  0  0  0  0  0  0  0  0  0  0
  148.6101  141.6984  156.0523 H   0  0  0  0  0  0  0  0  0  0  0  0
  149.8512  140.7473  156.8455 H   0  0  0  0  0  0  0  0  0  0  0  0
  151.2744  142.6648  155.7267 H   0  0  0  0  0  0  0  0  0  0  0  0
  150.0824  142.8054  158.3849 H   0  0  0  0  0  0  0  0  0  0  0  0
  152.5789  144.1773  157.2476 H   0  0  0  0  0  0  0  0  0  0  0  0
  151.0920  144.9921  157.6525 H   0  0  0  0  0  0  0  0  0  0  0  0
  152.7013  145.3106  159.4499 H   0  0  0  0  0  0  0  0  0  0  0  0
  151.3386  144.3951  160.0383 H   0  0  0  0  0  0  0  0  0  0  0  0
  154.0385  143.2050  159.1968 H   0  0  0  0  0  0  0  0  0  0  0  0
  153.5009  143.4416  160.8495 H   0  0  0  0  0  0  0  0  0  0  0  0
  151.2897  140.6778  157.8851 H   0  0  0  0  0  0  0  0  0  0  0  0
  152.7229  141.5854  157.4417 H   0  0  0  0  0  0  0  0  0  0  0  0
  149.5417  138.3268  153.6796 H   0  0  0  0  0  0  0  0  0  0  0  0
  150.8955  136.2576  154.0453 H   0  0  0  0  0  0  0  0  0  0  0  0
  153.6270  138.2629  156.4105 H   0  0  0  0  0  0  0  0  0  0  0  0
  152.4059  140.4299  156.1566 H   0  0  0  0  0  0  0  0  0  0  0  0
  149.9143  143.4995  156.0957 H   0  0  0  0  0  0  0  0  0  0  0  0
  1  2  1  0  0  0  0
  1 17  1  0  0  0  0
  2  3  1  0  0  0  0
  2 11  1  0  0  0  0
  2 18  1  0  0  0  0
  3  4  1  0  0  0  0
  3 19  1  0  0  0  0
  3 20  1  0  0  0  0
  4  5  1  0  0  0  0
  4 21  1  0  0  0  0
  4 35  1  0  0  0  0
  5 10  1  0  0  0  0
  5  6  1  0  0  0  0
  5 22  1  0  0  0  0
  6  7  1  0  0  0  0
  6 23  1  0  0  0  0
  6 24  1  0  0  0  0
  7  8  1  0  0  0  0
  7 25  1  0  0  0  0
  7 26  1  0  0  0  0
  8  9  1  0  0  0  0
  8 27  1  0  0  0  0
  8 28  1  0  0  0  0
  9 10  1  0  0  0  0
 10 29  1  0  0  0  0
 10 30  1  0  0  0  0
 11 16  1  0  0  0  0
 11 12  2  0  0  0  0
 12 13  1  0  0  0  0
 12 31  1  0  0  0  0
 13 14  2  0  0  0  0
 13 32  1  0  0  0  0
 14 15  1  0  0  0  0
 15 16  2  0  0  0  0
 15 33  1  0  0  0  0
 16 34  1  0  0  0  0
M  CHG  1   4   1
M  END
> <s_m_source_file>
AV-unprocessed.smi

> <i_m_source_file_index>
2774

> <i_lp_mmshare_version>
43012

> <i_f3d_flags>
0

> <s_epik_input>
W2NIXTFbY0hdbltjSF1bY0hdYzFbQ0BIXShbT0hdKVtDSDJdW05IXVtDQEBIXTJbQ0gyXVtDSDJdW0NIMl1TW0NIMl0y

> <s_epik_cmdline>
J2VwaWtfcHl0aG9uJywgJy1waCcsICc3LjAnLCAnLXRuJywgJzgnLCAnLW1hJywgJzIwMCcsICctbWV0YWxfYmluZGluZycsICctaW1hZScsICc8aW5maWxlLm1hZT4nLCAnLW9tYWUnLCAnPG91dGZpbGUubWFlPic=

> <r_epik_Ionization_Penalty>
0.0205977

> <r_epik_Ionization_Penalty_Charging>
0.0185619

> <r_epik_Ionization_Penalty_Neutral>
0.00203589

> <r_epik_State_Penalty>
0.0147768

> <r_epik_Charging_Adjusted_Penalty>
0.0333386

> <i_epik_Tot_Q>
1

> <i_epik_Tot_abs_Q>
1

> <r_epik_Metal_State_Penalty>
0.0152254

> <b_epik_Metal_Only>
0

> <s_lp_Force_Field>
OPLS_2005

> <r_lp_Energy>
10.436

> <b_lp_Chiralities_Consistent>
1

> <s_lp_Variant>
AV-unprocessed.smi:2774-2

> <Gold.Version>
5.8.1

> <Gold.Id.Protein>
6NUR|6NUR_protein|mol2

> <Gold.PLP.Fitness>
50.6633

> <Gold.PLP.PLP>
-39.2320

> <Gold.PLP.part.hbond>
-3.0000

> <Gold.PLP.part.metal>
0.0000

> <Gold.PLP.part.buried>
-0.5677

> <Gold.PLP.part.nonpolar>
-36.7328

> <Gold.PLP.part.repulsive>
0.1591

> <Gold.PLP.ligand.clash>
0.0000

> <Gold.PLP.ligand.torsion>
1.0237

> <Gold.PLP.Chemscore.Hbond>
3.7840

> <Gold.PLP.Chemscore.CHOScore>
0.7000

> <Gold.PLP.Chemscore.Metal>
0.0000

> <Gold.Chemscore.Hbonds>
donor molecule, donor type, donor heavy atom, donor atom, acceptor molecule, acceptor atom, score
      L1  H     1    17       P1  7957  1.00
      L1  H     4    35       P1  8028  2.00
      P1  H 10752 10764       L1    14  0.73
      L1  C    13    32       P1  7948  0.03
      L1  C    13    32       P1  7949  0.60

> <Gold.PLP.Chemscore.Internal.Correction>
0.0266

> <Gold.Rescore>
     Score         DG    S(hbond)    S(metal)    S(lipo)     H(rot)  DE(clash)    DE(int)     intcor
     21.57     -23.62       2.89        0.00     115.50       1.97       0.96       1.09       ----

> <Gold.Chemscore.Fitness>
21.5693

> <Gold.Chemscore.DG>
-23.6221

> <Gold.Chemscore.ZeroCoef>
-5.4800

> <Gold.Chemscore.Hbond>
2.8946

> <Gold.Chemscore.Metal>
0.0000

> <Gold.Chemscore.Lipo>
115.5011

> <Gold.Chemscore.Internal_Hbond>
0.0000

> <Gold.Chemscore.DEClash>
0.9624

> <Gold.Chemscore.DEInternal>
1.0904

> <Gold.Chemscore.Rot>
1.9686

> <Gold.Chemscore.Internal.Correction>
   9.000000E+99

> <Gold.Chemscore.Hbonds>
donor molecule, donor type, donor heavy atom, donor atom, acceptor molecule, acceptor atom, score
      L1  H     1    17       P1  7957  0.97
      L1  H     4    35       P1  8028  1.00
      P1  H 10752 10764       L1    14  0.16

> <Gold.Chemscore.Hbond.Weighted>
-9.6681

> <Gold.Chemscore.Metal.Weighted>
-0.0000

> <Gold.Chemscore.Lipo.Weighted>
-13.5136

> <Gold.Chemscore.Internal_Hbond.Weighted>
0.0000

> <Gold.Chemscore.DEClash.Weighted>
0.9624

> <Gold.Chemscore.DEInternal.Weighted>
1.0904

> <Gold.Chemscore.Rot.Weighted>
5.0396

> <Gold.Chemscore.Internal.Correction.Weighted>
   9.000000E+99

> <Gold.Protein.RotatedTorsions>
[ 6907 6896 6895 6894 ] final   62.67 input  -60.11 | X-H torsion
[ 7974 7965 7964 7962 ] final  -26.93 input  175.53 | X-H torsion
[ 8008 7997 7996 7995 ] final   81.98 input   59.86 | X-H torsion
[ 10167 10162 10161 10158 ] final   38.45 input  -65.29 | X-H torsion
[ 10718 10713 10712 10709 ] final   35.08 input   66.30 | X-H torsion
[ 10763 10752 10751 10750 ] final  -54.76 input  -60.55 | X-H torsion
[ 11005 11000 10999 10996 ] final  128.78 input  -57.11 | X-H torsion

> <Gold.Protein.ActiveResidues>
 VAL166  LYS551  ARG553  GLY616  TRP617  ASP618  TYR619  PRO620  LYS621  CYS622 
 ASP623  PHE694  ASN695  SER759  ASP760  ASP761  ALA762  ILE779  LEU786  VAL792 
 PHE793  MET794  SER795  GLU796  ALA797  LYS798  CYS799  TRP800  GLU811  SER814 

> <Gold.Protein.RotatedAtoms>
  152.4191  134.5987  159.9993 H   0  0  0  0  0  0  0  0  0  0  0  0  # atno 6907 bound_to 6896
  151.6142  133.3339  159.3082 H   0  0  0  0  0  0  0  0  0  0  0  0  # atno 6908 bound_to 6896
  150.8079  134.7255  159.6727 H   0  0  0  0  0  0  0  0  0  0  0  0  # atno 6909 bound_to 6896
  146.1392  140.5084  142.8659 H   0  0  0  0  0  0  0  0  0  0  0  0  # atno 7974 bound_to 7965
  155.9045  140.3431  155.6051 H   0  0  0  0  0  0  0  0  0  0  0  0  # atno 8008 bound_to 7997
  155.7461  140.0814  157.2242 H   0  0  0  0  0  0  0  0  0  0  0  0  # atno 8009 bound_to 7997
  154.4048  140.1562  156.2658 H   0  0  0  0  0  0  0  0  0  0  0  0  # atno 8010 bound_to 7997
  140.3935  144.1820  150.6131 H   0  0  0  0  0  0  0  0  0  0  0  0  # atno 10167 bound_to 10162
  157.3183  130.7435  149.6768 H   0  0  0  0  0  0  0  0  0  0  0  0  # atno 10718 bound_to 10713
  154.1800  135.6445  153.5031 H   0  0  0  0  0  0  0  0  0  0  0  0  # atno 10763 bound_to 10752
  153.0062  135.5403  154.6524 H   0  0  0  0  0  0  0  0  0  0  0  0  # atno 10764 bound_to 10752
  154.5886  135.2932  155.0631 H   0  0  0  0  0  0  0  0  0  0  0  0  # atno 10765 bound_to 10752
  139.9579  134.9609  156.9052 H   0  0  0  0  0  0  0  0  0  0  0  0  # atno 11005 bound_to 11000
  144.7774  140.5768  143.6629 LP  0  0  0  0  0  0  0  0  0  0  0  0  # atno 17320 bound_to 7965
  145.5085  139.1480  143.3618 LP  0  0  0  0  0  0  0  0  0  0  0  0  # atno 17321 bound_to 7965
  140.4814  143.2378  151.8949 LP  0  0  0  0  0  0  0  0  0  0  0  0  # atno 17342 bound_to 10162
  139.4788  144.5265  151.8728 LP  0  0  0  0  0  0  0  0  0  0  0  0  # atno 17343 bound_to 10162
  155.9683  130.4231  150.4545 LP  0  0  0  0  0  0  0  0  0  0  0  0  # atno 17370 bound_to 10713
  157.2556  131.0556  151.2352 LP  0  0  0  0  0  0  0  0  0  0  0  0  # atno 17371 bound_to 10713
  140.5567  134.0575  155.7386 LP  0  0  0  0  0  0  0  0  0  0  0  0  # atno 17394 bound_to 11000
  141.1253  133.9393  157.2648 LP  0  0  0  0  0  0  0  0  0  0  0  0  # atno 17395 bound_to 11000

$$$$
