AV-unprocessed.smi:1830|AV-procd|sdf|7439|dock5
  -GOLD-   22720 9123D 1   1.00000     0.00000
 Structure written by MMmdl.
 53 56  0  0  0  0  0  0  0  0  2 V2000
  151.7439  135.2056  155.3788 O   0  0  0  0  0  0  0  0  0  0  0  0
  150.9047  135.4993  154.5276 C   0  0  0  0  0  0  0  0  0  0  0  0
  150.8296  136.7045  153.9458 N   0  0  0  0  0  0  0  0  0  0  0  0
  151.7226  137.8262  154.2180 C   0  0  0  0  0  0  0  0  0  0  0  0
  151.2290  138.6789  155.4011 C   0  0  1  0  0  0  0  0  0  0  0  0
  152.3397  138.8883  156.4580 C   0  0  0  0  0  0  0  0  0  0  0  0
  151.8265  139.7999  157.4972 N   0  3  1  0  0  0  0  0  0  0  0  0
  152.7047  140.1353  158.6312 C   0  0  0  0  0  0  0  0  0  0  0  0
  152.1741  141.4858  159.1539 C   0  0  0  0  0  0  0  0  0  0  0  0
  151.0928  141.9274  158.1503 C   0  0  0  0  0  0  0  0  0  0  0  0
  151.3983  141.0766  156.9219 C   0  0  2  0  0  0  0  0  0  0  0  0
  150.2691  140.8175  155.9172 C   0  0  0  0  0  0  0  0  0  0  0  0
  150.7875  139.9497  154.9087 O   0  0  0  0  0  0  0  0  0  0  0  0
  149.9677  134.6677  154.0433 N   0  0  0  0  0  0  0  0  0  0  0  0
  149.8003  133.2823  154.3226 C   0  0  0  0  0  0  0  0  0  0  0  0
  150.7251  132.5728  155.1274 C   0  0  0  0  0  0  0  0  0  0  0  0
  150.4832  131.2214  155.4283 C   0  0  0  0  0  0  0  0  0  0  0  0
  149.3125  130.6285  154.9271 C   0  0  0  0  0  0  0  0  0  0  0  0
  148.4149  131.2940  154.1731 N   0  0  0  0  0  0  0  0  0  0  0  0
  148.6412  132.5941  153.8621 C   0  0  0  0  0  0  0  0  0  0  0  0
  147.6725  133.2352  153.0559 N   0  0  0  0  0  0  0  0  0  0  0  0
  146.3348  133.5004  153.5751 C   0  0  0  0  0  0  0  0  0  0  0  0
  145.4922  133.8262  152.3455 C   0  0  0  0  0  0  0  0  0  0  0  0
  146.0871  132.8995  151.2896 C   0  0  0  0  0  0  0  0  0  0  0  0
  147.5747  132.8437  151.6527 C   0  0  0  0  0  0  0  0  0  0  0  0
  150.1050  136.8551  153.2591 H   0  0  0  0  0  0  0  0  0  0  0  0
  152.7024  137.4093  154.4516 H   0  0  0  0  0  0  0  0  0  0  0  0
  151.8556  138.4418  153.3266 H   0  0  0  0  0  0  0  0  0  0  0  0
  150.3829  138.1741  155.8714 H   0  0  0  0  0  0  0  0  0  0  0  0
  152.6234  137.9381  156.9117 H   0  0  0  0  0  0  0  0  0  0  0  0
  153.2348  139.3124  155.9996 H   0  0  0  0  0  0  0  0  0  0  0  0
  152.6796  139.3528  159.3900 H   0  0  0  0  0  0  0  0  0  0  0  0
  153.7344  140.2441  158.2874 H   0  0  0  0  0  0  0  0  0  0  0  0
  151.7602  141.3962  160.1586 H   0  0  0  0  0  0  0  0  0  0  0  0
  152.9840  142.2151  159.1965 H   0  0  0  0  0  0  0  0  0  0  0  0
  150.1030  141.6852  158.5401 H   0  0  0  0  0  0  0  0  0  0  0  0
  151.1198  142.9970  157.9403 H   0  0  0  0  0  0  0  0  0  0  0  0
  152.2448  141.5249  156.3967 H   0  0  0  0  0  0  0  0  0  0  0  0
  149.3988  140.3670  156.3969 H   0  0  0  0  0  0  0  0  0  0  0  0
  149.9437  141.7501  155.4560 H   0  0  0  0  0  0  0  0  0  0  0  0
  149.3978  135.0275  153.2917 H   0  0  0  0  0  0  0  0  0  0  0  0
  151.6033  133.0484  155.5362 H   0  0  0  0  0  0  0  0  0  0  0  0
  151.1725  130.6575  156.0390 H   0  0  0  0  0  0  0  0  0  0  0  0
  149.0871  129.5945  155.1418 H   0  0  0  0  0  0  0  0  0  0  0  0
  145.9284  132.6167  154.0690 H   0  0  0  0  0  0  0  0  0  0  0  0
  146.3415  134.3221  154.2919 H   0  0  0  0  0  0  0  0  0  0  0  0
  144.4258  133.6653  152.5057 H   0  0  0  0  0  0  0  0  0  0  0  0
  145.6406  134.8672  152.0549 H   0  0  0  0  0  0  0  0  0  0  0  0
  145.6482  131.9055  151.3874 H   0  0  0  0  0  0  0  0  0  0  0  0
  145.9119  133.2454  150.2707 H   0  0  0  0  0  0  0  0  0  0  0  0
  148.1299  133.5616  151.0490 H   0  0  0  0  0  0  0  0  0  0  0  0
  147.9925  131.8523  151.4714 H   0  0  0  0  0  0  0  0  0  0  0  0
  151.0003  139.3729  157.8915 H   0  0  0  0  0  0  0  0  0  0  0  0
  1  2  2  0  0  0  0
  2  3  1  0  0  0  0
  2 14  1  0  0  0  0
  3  4  1  0  0  0  0
  3 26  1  0  0  0  0
  4  5  1  0  0  0  0
  4 27  1  0  0  0  0
  4 28  1  0  0  0  0
  5 13  1  0  0  0  0
  5  6  1  0  0  0  0
  5 29  1  0  0  0  0
  6  7  1  0  0  0  0
  6 30  1  0  0  0  0
  6 31  1  0  0  0  0
  7 11  1  0  0  0  0
  7  8  1  0  0  0  0
  7 53  1  0  0  0  0
  8  9  1  0  0  0  0
  8 32  1  0  0  0  0
  8 33  1  0  0  0  0
  9 10  1  0  0  0  0
  9 34  1  0  0  0  0
  9 35  1  0  0  0  0
 10 11  1  0  0  0  0
 10 36  1  0  0  0  0
 10 37  1  0  0  0  0
 11 12  1  0  0  0  0
 11 38  1  0  0  0  0
 12 13  1  0  0  0  0
 12 39  1  0  0  0  0
 12 40  1  0  0  0  0
 14 15  1  0  0  0  0
 14 41  1  0  0  0  0
 15 20  1  0  0  0  0
 15 16  2  0  0  0  0
 16 17  1  0  0  0  0
 16 42  1  0  0  0  0
 17 18  2  0  0  0  0
 17 43  1  0  0  0  0
 18 19  1  0  0  0  0
 18 44  1  0  0  0  0
 19 20  2  0  0  0  0
 20 21  1  0  0  0  0
 21 25  1  0  0  0  0
 21 22  1  0  0  0  0
 22 23  1  0  0  0  0
 22 45  1  0  0  0  0
 22 46  1  0  0  0  0
 23 24  1  0  0  0  0
 23 47  1  0  0  0  0
 23 48  1  0  0  0  0
 24 25  1  0  0  0  0
 24 49  1  0  0  0  0
 24 50  1  0  0  0  0
 25 51  1  0  0  0  0
 25 52  1  0  0  0  0
M  CHG  1   7   1
M  END
> <s_m_source_file>
AV-unprocessed.smi

> <i_m_source_file_index>
1830

> <i_lp_mmshare_version>
43012

> <i_f3d_flags>
0

> <s_epik_input>
W0NIMl0xW0NIMl1bQ0gyXVtDQEhdKE4xMilbQ0gyXU9bQ0BASF0oW0NIMl0yKVtDSDJdW05IXUMoPU8pW05IXWMzW2NIXVtjSF1bY0hdbmMzTjRbQ0gyXVtDSDJdW0NIMl1bQ0gyXTQ=

> <s_epik_cmdline>
J2VwaWtfcHl0aG9uJywgJy1waCcsICc3LjAnLCAnLXRuJywgJzgnLCAnLW1hJywgJzIwMCcsICctbWV0YWxfYmluZGluZycsICctaW1hZScsICc8aW5maWxlLm1hZT4nLCAnLW9tYWUnLCAnPG91dGZpbGUubWFlPic=

> <r_lp_tautomer_probability>
1

> <r_epik_Ionization_Penalty>
0.193547

> <r_epik_Ionization_Penalty_Charging>
0.10673

> <r_epik_Ionization_Penalty_Neutral>
0.0868166

> <r_epik_State_Penalty>
0.173595

> <r_epik_Charging_Adjusted_Penalty>
0.280326

> <i_epik_Tot_Q>
1

> <i_epik_Tot_abs_Q>
1

> <r_epik_Metal_State_Penalty>
0.164683

> <b_epik_Metal_Only>
0

> <s_lp_Force_Field>
OPLS_2005

> <r_lp_Energy>
64.524

> <b_lp_Chiralities_Consistent>
1

> <s_lp_Variant>
AV-unprocessed.smi:1830-8

> <Gold.Version>
5.8.1

> <Gold.Id.Protein>
6NUR|6NUR_protein|mol2

> <Gold.PLP.Fitness>
51.3305

> <Gold.PLP.PLP>
-41.4413

> <Gold.PLP.part.hbond>
-5.2546

> <Gold.PLP.part.metal>
0.0000

> <Gold.PLP.part.buried>
-4.9222

> <Gold.PLP.part.nonpolar>
-32.3019

> <Gold.PLP.part.repulsive>
0.4996

> <Gold.PLP.ligand.clash>
0.0000

> <Gold.PLP.ligand.torsion>
1.0715

> <Gold.PLP.Chemscore.Hbond>
3.8960

> <Gold.PLP.Chemscore.CHOScore>
0.0000

> <Gold.PLP.Chemscore.Metal>
0.0000

> <Gold.Chemscore.Hbonds>
donor molecule, donor type, donor heavy atom, donor atom, acceptor molecule, acceptor atom, score
      L1  H     3    26       P1  7948  0.70
      L1  H    14    41       P1  7948  0.55
      P1  H  7989  7998       L1    13  1.00
      P1  H 10752 10763       L1     1  0.64

> <Gold.PLP.Chemscore.Internal.Correction>
0.3441

> <Gold.Rescore>
     Score         DG    S(hbond)    S(metal)    S(lipo)     H(rot)  DE(clash)    DE(int)     intcor
     20.15     -22.92       2.99        0.00      94.51       1.41       0.25       2.52       ----

> <Gold.Chemscore.Fitness>
20.1488

> <Gold.Chemscore.DG>
-22.9171

> <Gold.Chemscore.ZeroCoef>
-5.4800

> <Gold.Chemscore.Hbond>
2.9882

> <Gold.Chemscore.Metal>
0.0000

> <Gold.Chemscore.Lipo>
94.5090

> <Gold.Chemscore.Internal_Hbond>
0.0000

> <Gold.Chemscore.DEClash>
0.2527

> <Gold.Chemscore.DEInternal>
2.5156

> <Gold.Chemscore.Rot>
1.4067

> <Gold.Chemscore.Internal.Correction>
   9.000000E+99

> <Gold.Chemscore.Hbonds>
donor molecule, donor type, donor heavy atom, donor atom, acceptor molecule, acceptor atom, score
      L1  H     3    26       P1  7948  0.07
      L1  H    14    41       P1  7948  0.03
      P1  H  7989  7998       L1    13  0.85
      P1  H 10752 10763       L1     1  0.49

> <Gold.Chemscore.Hbond.Weighted>
-9.9807

> <Gold.Chemscore.Metal.Weighted>
-0.0000

> <Gold.Chemscore.Lipo.Weighted>
-11.0576

> <Gold.Chemscore.Internal_Hbond.Weighted>
0.0000

> <Gold.Chemscore.DEClash.Weighted>
0.2527

> <Gold.Chemscore.DEInternal.Weighted>
2.5156

> <Gold.Chemscore.Rot.Weighted>
3.6011

> <Gold.Chemscore.Internal.Correction.Weighted>
   9.000000E+99

> <Gold.Protein.RotatedTorsions>
[ 6907 6896 6895 6894 ] final -154.29 input  -60.11 | X-H torsion
[ 7974 7965 7964 7962 ] final  152.25 input  175.53 | X-H torsion
[ 8008 7997 7996 7995 ] final  117.78 input   59.86 | X-H torsion
[ 10167 10162 10161 10158 ] final   16.97 input  -65.29 | X-H torsion
[ 10718 10713 10712 10709 ] final -156.53 input   66.30 | X-H torsion
[ 10763 10752 10751 10750 ] final   81.16 input  -60.55 | X-H torsion
[ 11005 11000 10999 10996 ] final   92.83 input  -57.11 | X-H torsion

> <Gold.Protein.ActiveResidues>
 VAL166  LYS551  ARG553  GLY616  TRP617  ASP618  TYR619  PRO620  LYS621  CYS622 
 ASP623  PHE694  ASN695  SER759  ASP760  ASP761  ALA762  ILE779  LEU786  VAL792 
 PHE793  MET794  SER795  GLU796  ALA797  LYS798  CYS799  TRP800  GLU811  SER814 

> <Gold.Protein.RotatedAtoms>
  151.2553  133.4329  159.2613 H   0  0  0  0  0  0  0  0  0  0  0  0  # atno 6907 bound_to 6896
  151.0580  134.9717  159.8256 H   0  0  0  0  0  0  0  0  0  0  0  0  # atno 6908 bound_to 6896
  152.5393  134.2505  159.8949 H   0  0  0  0  0  0  0  0  0  0  0  0  # atno 6909 bound_to 6896
  144.8235  139.6644  143.6090 H   0  0  0  0  0  0  0  0  0  0  0  0  # atno 7974 bound_to 7965
  156.2512  140.2889  156.0732 H   0  0  0  0  0  0  0  0  0  0  0  0  # atno 8008 bound_to 7997
  155.1648  140.0400  157.2867 H   0  0  0  0  0  0  0  0  0  0  0  0  # atno 8009 bound_to 7997
  154.6367  140.2512  155.7376 H   0  0  0  0  0  0  0  0  0  0  0  0  # atno 8010 bound_to 7997
  140.5759  143.9073  150.6750 H   0  0  0  0  0  0  0  0  0  0  0  0  # atno 10167 bound_to 10162
  156.5278  130.8507  151.2705 H   0  0  0  0  0  0  0  0  0  0  0  0  # atno 10718 bound_to 10713
  153.1093  135.4776  154.9007 H   0  0  0  0  0  0  0  0  0  0  0  0  # atno 10763 bound_to 10752
  154.7464  135.3095  154.8640 H   0  0  0  0  0  0  0  0  0  0  0  0  # atno 10764 bound_to 10752
  153.9233  135.6852  153.4800 H   0  0  0  0  0  0  0  0  0  0  0  0  # atno 10765 bound_to 10752
  139.8818  134.8755  156.3630 H   0  0  0  0  0  0  0  0  0  0  0  0  # atno 11005 bound_to 11000
  146.2541  139.6263  142.9407 LP  0  0  0  0  0  0  0  0  0  0  0  0  # atno 17320 bound_to 7965
  145.5051  141.0437  143.2519 LP  0  0  0  0  0  0  0  0  0  0  0  0  # atno 17321 bound_to 7965
  140.2560  143.3558  152.1364 LP  0  0  0  0  0  0  0  0  0  0  0  0  # atno 17342 bound_to 10162
  139.5143  144.6945  151.5668 LP  0  0  0  0  0  0  0  0  0  0  0  0  # atno 17343 bound_to 10162
  157.7427  130.9895  150.2534 LP  0  0  0  0  0  0  0  0  0  0  0  0  # atno 17370 bound_to 10713
  156.3089  130.3769  149.7680 LP  0  0  0  0  0  0  0  0  0  0  0  0  # atno 17371 bound_to 10713
  140.9516  133.7447  156.0280 LP  0  0  0  0  0  0  0  0  0  0  0  0  # atno 17394 bound_to 11000
  140.8098  134.3412  157.5415 LP  0  0  0  0  0  0  0  0  0  0  0  0  # atno 17395 bound_to 11000

$$$$
