AV-unprocessed.smi:1555|AV-procd|sdf|6265|dock3
  -GOLD-   22720 6453D 1   1.00000     0.00000
 Structure written by MMmdl.
 42 43  0  0  0  0  0  0  0  0  2 V2000
  149.6562  142.3629  158.3544 C   0  0  0  0  0  0  0  0  0  0  0  0
  150.7168  142.5336  157.2574 C   0  0  1  0  0  0  0  0  0  0  0  0
  151.7763  143.5808  157.6491 C   0  0  0  0  0  0  0  0  0  0  0  0
  152.2855  143.3820  159.0099 N   0  0  0  0  0  0  0  0  0  0  0  0
  153.0721  142.3537  159.4630 C   0  0  0  0  0  0  0  0  0  0  0  0
  153.2977  142.5919  160.7942 C   0  0  0  0  0  0  0  0  0  0  0  0
  152.6396  143.7537  161.0972 N   0  3  0  0  0  0  0  0  0  0  0  0
  152.0233  144.2317  160.0113 C   0  0  0  0  0  0  0  0  0  0  0  0
  151.3600  141.2484  156.9936 N   0  0  0  0  0  0  0  0  0  0  0  0
  151.1773  140.4825  155.9045 C   0  0  0  0  0  0  0  0  0  0  0  0
  150.4092  140.8060  154.9977 O   0  0  0  0  0  0  0  0  0  0  0  0
  151.9063  139.3378  155.8898 N   0  0  0  0  0  0  0  0  0  0  0  0
  152.4051  138.6032  157.0646 C   0  0  0  0  0  0  0  0  0  0  0  0
  151.5801  137.3142  157.2265 C   0  0  0  0  0  0  0  0  0  0  0  0
  151.6417  136.4428  155.9521 C   0  0  0  0  0  0  0  0  0  0  0  0
  150.7321  135.2076  156.0818 C   0  0  0  0  0  0  0  0  0  0  0  0
  151.2004  134.3442  157.0963 O   0  0  0  0  0  0  0  0  0  0  0  0
  151.3099  137.2869  154.6989 C   0  0  0  0  0  0  0  0  0  0  0  0
  152.1439  138.5806  154.6549 C   0  0  0  0  0  0  0  0  0  0  0  0
  149.1488  143.3057  158.5598 H   0  0  0  0  0  0  0  0  0  0  0  0
  150.1009  142.0140  159.2873 H   0  0  0  0  0  0  0  0  0  0  0  0
  148.8958  141.6400  158.0570 H   0  0  0  0  0  0  0  0  0  0  0  0
  150.2121  142.8878  156.3568 H   0  0  0  0  0  0  0  0  0  0  0  0
  152.6282  143.5369  156.9688 H   0  0  0  0  0  0  0  0  0  0  0  0
  151.3694  144.5911  157.5826 H   0  0  0  0  0  0  0  0  0  0  0  0
  153.4062  141.5512  158.8213 H   0  0  0  0  0  0  0  0  0  0  0  0
  153.8627  142.0367  161.5288 H   0  0  0  0  0  0  0  0  0  0  0  0
  151.4337  145.1295  159.9537 H   0  0  0  0  0  0  0  0  0  0  0  0
  151.9981  140.9082  157.6982 H   0  0  0  0  0  0  0  0  0  0  0  0
  153.4560  138.3542  156.9106 H   0  0  0  0  0  0  0  0  0  0  0  0
  152.3820  139.1767  157.9912 H   0  0  0  0  0  0  0  0  0  0  0  0
  151.9471  136.7481  158.0832 H   0  0  0  0  0  0  0  0  0  0  0  0
  150.5438  137.5736  157.4484 H   0  0  0  0  0  0  0  0  0  0  0  0
  152.6708  136.0929  155.8534 H   0  0  0  0  0  0  0  0  0  0  0  0
  149.7156  135.5094  156.3361 H   0  0  0  0  0  0  0  0  0  0  0  0
  150.6793  134.6623  155.1390 H   0  0  0  0  0  0  0  0  0  0  0  0
  151.3777  133.4987  156.7131 H   0  0  0  0  0  0  0  0  0  0  0  0
  151.4904  136.7061  153.7940 H   0  0  0  0  0  0  0  0  0  0  0  0
  150.2490  137.5415  154.6942 H   0  0  0  0  0  0  0  0  0  0  0  0
  151.8987  139.1481  153.7562 H   0  0  0  0  0  0  0  0  0  0  0  0
  153.2049  138.3412  154.5725 H   0  0  0  0  0  0  0  0  0  0  0  0
  152.6213  144.1907  162.0103 H   0  0  0  0  0  0  0  0  0  0  0  0
  1  2  1  0  0  0  0
  1 20  1  0  0  0  0
  1 21  1  0  0  0  0
  1 22  1  0  0  0  0
  2  3  1  0  0  0  0
  2  9  1  0  0  0  0
  2 23  1  0  0  0  0
  3  4  1  0  0  0  0
  3 24  1  0  0  0  0
  3 25  1  0  0  0  0
  4  8  1  0  0  0  0
  4  5  1  0  0  0  0
  5  6  2  0  0  0  0
  5 26  1  0  0  0  0
  6  7  1  0  0  0  0
  6 27  1  0  0  0  0
  7  8  2  0  0  0  0
  7 42  1  0  0  0  0
  8 28  1  0  0  0  0
  9 10  1  0  0  0  0
  9 29  1  0  0  0  0
 10 11  2  0  0  0  0
 10 12  1  0  0  0  0
 12 19  1  0  0  0  0
 12 13  1  0  0  0  0
 13 14  1  0  0  0  0
 13 30  1  0  0  0  0
 13 31  1  0  0  0  0
 14 15  1  0  0  0  0
 14 32  1  0  0  0  0
 14 33  1  0  0  0  0
 15 16  1  0  0  0  0
 15 18  1  0  0  0  0
 15 34  1  0  0  0  0
 16 17  1  0  0  0  0
 16 35  1  0  0  0  0
 16 36  1  0  0  0  0
 17 37  1  0  0  0  0
 18 19  1  0  0  0  0
 18 38  1  0  0  0  0
 18 39  1  0  0  0  0
 19 40  1  0  0  0  0
 19 41  1  0  0  0  0
M  CHG  1   7   1
M  END
> <s_m_source_file>
AV-unprocessed.smi

> <i_m_source_file_index>
1555

> <i_lp_mmshare_version>
43012

> <i_f3d_flags>
0

> <s_epik_input>
W2NIXTFuW2NIXVtjSF1uMVtDSDJdW0NAQEhdKFtDSDNdKVtOSF1DKD1PKU4yW0NIMl1bQ0gyXVtDSF0oW0NIMl1bT0hdKVtDSDJdW0NIMl0y

> <s_epik_cmdline>
J2VwaWtfcHl0aG9uJywgJy1waCcsICc3LjAnLCAnLXRuJywgJzgnLCAnLW1hJywgJzIwMCcsICctbWV0YWxfYmluZGluZycsICctaW1hZScsICc8aW5maWxlLm1hZT4nLCAnLW9tYWUnLCAnPG91dGZpbGUubWFlPic=

> <r_lp_tautomer_probability>
1

> <r_epik_Ionization_Penalty>
0.253261

> <r_epik_Ionization_Penalty_Charging>
0

> <r_epik_Ionization_Penalty_Neutral>
0.253261

> <r_epik_State_Penalty>
0.244619

> <r_epik_Charging_Adjusted_Penalty>
0.244619

> <i_epik_Tot_Q>
1

> <i_epik_Tot_abs_Q>
1

> <r_epik_Metal_State_Penalty>
0.535039

> <b_epik_Metal_Only>
0

> <s_lp_Force_Field>
OPLS_2005

> <r_lp_Energy>
35.1674

> <b_lp_Chiralities_Consistent>
1

> <s_lp_Variant>
AV-unprocessed.smi:1555-2

> <Gold.Version>
5.8.1

> <Gold.Id.Protein>
6NUR|6NUR_protein|mol2

> <Gold.PLP.Fitness>
42.3892

> <Gold.PLP.PLP>
-39.2828

> <Gold.PLP.part.hbond>
-2.0000

> <Gold.PLP.part.metal>
0.0000

> <Gold.PLP.part.buried>
-5.5244

> <Gold.PLP.part.nonpolar>
-33.0118

> <Gold.PLP.part.repulsive>
0.2251

> <Gold.PLP.ligand.clash>
0.0000

> <Gold.PLP.ligand.torsion>
0.5292

> <Gold.PLP.Chemscore.Hbond>
1.3780

> <Gold.PLP.Chemscore.CHOScore>
0.0000

> <Gold.PLP.Chemscore.Metal>
0.0000

> <Gold.Chemscore.Hbonds>
donor molecule, donor type, donor heavy atom, donor atom, acceptor molecule, acceptor atom, score
      P1  H  6896  6907       L1    17  0.14
      P1  H  7989  7998       L1    11  0.83

> <Gold.PLP.Chemscore.Internal.Correction>
0.0309

> <Gold.Rescore>
     Score         DG    S(hbond)    S(metal)    S(lipo)     H(rot)  DE(clash)    DE(int)     intcor
     11.33     -12.01       1.19        0.00      78.02       2.56       0.00       0.68       ----

> <Gold.Chemscore.Fitness>
11.3250

> <Gold.Chemscore.DG>
-12.0097

> <Gold.Chemscore.ZeroCoef>
-5.4800

> <Gold.Chemscore.Hbond>
1.1864

> <Gold.Chemscore.Metal>
0.0000

> <Gold.Chemscore.Lipo>
78.0189

> <Gold.Chemscore.Internal_Hbond>
0.0000

> <Gold.Chemscore.DEClash>
0.0025

> <Gold.Chemscore.DEInternal>
0.6822

> <Gold.Chemscore.Rot>
2.5630

> <Gold.Chemscore.Internal.Correction>
   9.000000E+99

> <Gold.Chemscore.Hbonds>
donor molecule, donor type, donor heavy atom, donor atom, acceptor molecule, acceptor atom, score
      P1  H  6896  6907       L1    17  0.07
      P1  H  7989  7998       L1    11  0.24

> <Gold.Chemscore.Hbond.Weighted>
-3.9627

> <Gold.Chemscore.Metal.Weighted>
-0.0000

> <Gold.Chemscore.Lipo.Weighted>
-9.1282

> <Gold.Chemscore.Internal_Hbond.Weighted>
0.0000

> <Gold.Chemscore.DEClash.Weighted>
0.0025

> <Gold.Chemscore.DEInternal.Weighted>
0.6822

> <Gold.Chemscore.Rot.Weighted>
6.5612

> <Gold.Chemscore.Internal.Correction.Weighted>
   9.000000E+99

> <Gold.Protein.RotatedTorsions>
[ 6907 6896 6895 6894 ] final -112.55 input  -60.11 | X-H torsion
[ 7974 7965 7964 7962 ] final -147.82 input  175.53 | X-H torsion
[ 8008 7997 7996 7995 ] final  -89.05 input   59.86 | X-H torsion
[ 10167 10162 10161 10158 ] final -133.31 input  -65.29 | X-H torsion
[ 10718 10713 10712 10709 ] final  145.21 input   66.30 | X-H torsion
[ 10763 10752 10751 10750 ] final   73.40 input  -60.55 | X-H torsion
[ 11005 11000 10999 10996 ] final   71.47 input  -57.11 | X-H torsion

> <Gold.Protein.ActiveResidues>
 VAL166  LYS551  ARG553  GLY616  TRP617  ASP618  TYR619  PRO620  LYS621  CYS622 
 ASP623  PHE694  ASN695  SER759  ASP760  ASP761  ALA762  ILE779  LEU786  VAL792 
 PHE793  MET794  SER795  GLU796  ALA797  LYS798  CYS799  TRP800  GLU811  SER814 

> <Gold.Protein.RotatedAtoms>
  150.7766  133.9073  159.3358 H   0  0  0  0  0  0  0  0  0  0  0  0  # atno 6907 bound_to 6896
  151.6946  135.0938  160.0249 H   0  0  0  0  0  0  0  0  0  0  0  0  # atno 6908 bound_to 6896
  152.3804  133.6500  159.6192 H   0  0  0  0  0  0  0  0  0  0  0  0  # atno 6909 bound_to 6896
  144.8068  140.5277  143.5669 H   0  0  0  0  0  0  0  0  0  0  0  0  # atno 7974 bound_to 7965
  154.6820  140.0546  157.0276 H   0  0  0  0  0  0  0  0  0  0  0  0  # atno 8008 bound_to 7997
  155.0938  140.3222  155.4547 H   0  0  0  0  0  0  0  0  0  0  0  0  # atno 8009 bound_to 7997
  156.2697  140.2043  156.6065 H   0  0  0  0  0  0  0  0  0  0  0  0  # atno 8010 bound_to 7997
  139.8995  143.6624  152.2597 H   0  0  0  0  0  0  0  0  0  0  0  0  # atno 10167 bound_to 10162
  157.3480  131.0946  151.1025 H   0  0  0  0  0  0  0  0  0  0  0  0  # atno 10718 bound_to 10713
  153.0519  135.5064  154.7888 H   0  0  0  0  0  0  0  0  0  0  0  0  # atno 10763 bound_to 10752
  154.6744  135.2958  154.9701 H   0  0  0  0  0  0  0  0  0  0  0  0  # atno 10764 bound_to 10752
  154.0508  135.6704  153.4853 H   0  0  0  0  0  0  0  0  0  0  0  0  # atno 10765 bound_to 10752
  139.9542  134.7174  156.0792 H   0  0  0  0  0  0  0  0  0  0  0  0  # atno 11005 bound_to 11000
  145.5418  139.1475  143.3443 LP  0  0  0  0  0  0  0  0  0  0  0  0  # atno 17320 bound_to 7965
  146.2361  140.5557  142.8954 LP  0  0  0  0  0  0  0  0  0  0  0  0  # atno 17321 bound_to 7965
  139.7038  144.7631  151.1228 LP  0  0  0  0  0  0  0  0  0  0  0  0  # atno 17342 bound_to 10162
  140.7710  143.5422  150.9299 LP  0  0  0  0  0  0  0  0  0  0  0  0  # atno 17343 bound_to 10162
  157.2212  130.6482  149.5812 LP  0  0  0  0  0  0  0  0  0  0  0  0  # atno 17370 bound_to 10713
  155.9717  130.4628  150.6161 LP  0  0  0  0  0  0  0  0  0  0  0  0  # atno 17371 bound_to 10713
  141.1210  133.6613  156.3215 LP  0  0  0  0  0  0  0  0  0  0  0  0  # atno 17394 bound_to 11000
  140.5648  134.5898  157.5443 LP  0  0  0  0  0  0  0  0  0  0  0  0  # atno 17395 bound_to 11000

$$$$
