AV-unprocessed.smi:1232|AV-procd|sdf|5168|dock7
  -GOLD-   22720 4243D 1   1.00000     0.00000
 Structure written by MMmdl.
 53 54  0  0  0  0  0  0  0  0  1 V2000
  147.8715  134.9123  158.4237 C   0  0  0  0  0  0  0  0  0  0  0  0
  148.9963  134.7279  157.4100 C   0  0  0  0  0  0  0  0  0  0  0  0
  150.1066  134.3671  157.7964 O   0  0  0  0  0  0  0  0  0  0  0  0
  148.6890  134.9867  156.1259 N   0  0  0  0  0  0  0  0  0  0  0  0
  149.5397  134.8680  154.9327 C   0  0  1  0  0  0  0  0  0  0  0  0
  150.7314  135.8408  155.0010 C   0  0  0  0  0  0  0  0  0  0  0  0
  151.6156  135.6848  155.8436 O   0  0  0  0  0  0  0  0  0  0  0  0
  150.7530  136.8280  154.0907 N   0  0  0  0  0  0  0  0  0  0  0  0
  151.7895  137.8473  153.9643 C   0  0  0  0  0  0  0  0  0  0  0  0
  151.8213  138.8136  155.1365 C   0  0  0  0  0  0  0  0  0  0  0  0
  150.8110  139.7814  155.3007 C   0  0  0  0  0  0  0  0  0  0  0  0
  150.8805  140.6629  156.3962 C   0  0  0  0  0  0  0  0  0  0  0  0
  151.9646  140.5584  157.3004 C   0  0  0  0  0  0  0  0  0  0  0  0
  152.0598  141.4383  158.4009 N   0  0  0  0  0  0  0  0  0  0  0  0
  153.0131  141.1120  159.4601 C   0  0  0  0  0  0  0  0  0  0  0  0
  152.7803  142.0104  160.6861 C   0  0  0  0  0  0  0  0  0  0  0  0
  152.8337  143.3786  160.2955 O   0  0  0  0  0  0  0  0  0  0  0  0
  151.8230  143.7055  159.3458 C   0  0  1  0  0  0  0  0  0  0  0  0
  151.9021  145.2083  159.0569 C   0  0  0  0  0  0  0  0  0  0  0  0
  152.0290  142.8616  158.0731 C   0  0  0  0  0  0  0  0  0  0  0  0
  152.9319  139.6212  157.1409 N   0  0  0  0  0  0  0  0  0  0  0  0
  152.8615  138.7794  156.0884 C   0  0  0  0  0  0  0  0  0  0  0  0
  149.8918  133.3995  154.5358 C   0  0  0  0  0  0  0  0  0  0  0  0
  148.6496  132.5648  154.1658 C   0  0  0  0  0  0  0  0  0  0  0  0
  150.6792  132.6716  155.6430 C   0  0  0  0  0  0  0  0  0  0  0  0
  147.0229  135.4424  157.9896 H   0  0  0  0  0  0  0  0  0  0  0  0
  148.2261  135.4841  159.2816 H   0  0  0  0  0  0  0  0  0  0  0  0
  147.5254  133.9415  158.7786 H   0  0  0  0  0  0  0  0  0  0  0  0
  147.7429  135.2905  155.9481 H   0  0  0  0  0  0  0  0  0  0  0  0
  148.9001  135.2441  154.1324 H   0  0  0  0  0  0  0  0  0  0  0  0
  149.9907  136.8750  153.4302 H   0  0  0  0  0  0  0  0  0  0  0  0
  152.7753  137.3933  153.8514 H   0  0  0  0  0  0  0  0  0  0  0  0
  151.6044  138.3977  153.0415 H   0  0  0  0  0  0  0  0  0  0  0  0
  149.9901  139.8487  154.6019 H   0  0  0  0  0  0  0  0  0  0  0  0
  150.0996  141.3958  156.5352 H   0  0  0  0  0  0  0  0  0  0  0  0
  152.9095  140.0668  159.7541 H   0  0  0  0  0  0  0  0  0  0  0  0
  154.0292  141.2478  159.0870 H   0  0  0  0  0  0  0  0  0  0  0  0
  151.8190  141.7908  161.1536 H   0  0  0  0  0  0  0  0  0  0  0  0
  153.5483  141.8257  161.4373 H   0  0  0  0  0  0  0  0  0  0  0  0
  150.8441  143.4867  159.7761 H   0  0  0  0  0  0  0  0  0  0  0  0
  151.1369  145.5111  158.3416 H   0  0  0  0  0  0  0  0  0  0  0  0
  152.8735  145.4803  158.6433 H   0  0  0  0  0  0  0  0  0  0  0  0
  151.7533  145.7885  159.9678 H   0  0  0  0  0  0  0  0  0  0  0  0
  152.9716  143.1287  157.5937 H   0  0  0  0  0  0  0  0  0  0  0  0
  151.2369  143.0936  157.3625 H   0  0  0  0  0  0  0  0  0  0  0  0
  153.6631  138.0609  156.0058 H   0  0  0  0  0  0  0  0  0  0  0  0
  150.5187  133.4147  153.6449 H   0  0  0  0  0  0  0  0  0  0  0  0
  147.9308  132.5381  154.9852 H   0  0  0  0  0  0  0  0  0  0  0  0
  148.9247  131.5355  153.9336 H   0  0  0  0  0  0  0  0  0  0  0  0
  148.1415  132.9596  153.2857 H   0  0  0  0  0  0  0  0  0  0  0  0
  150.1069  132.6262  156.5699 H   0  0  0  0  0  0  0  0  0  0  0  0
  151.6267  133.1630  155.8615 H   0  0  0  0  0  0  0  0  0  0  0  0
  150.9144  131.6483  155.3491 H   0  0  0  0  0  0  0  0  0  0  0  0
  1  2  1  0  0  0  0
  1 26  1  0  0  0  0
  1 27  1  0  0  0  0
  1 28  1  0  0  0  0
  2  3  2  0  0  0  0
  2  4  1  0  0  0  0
  4  5  1  0  0  0  0
  4 29  1  0  0  0  0
  5  6  1  0  0  0  0
  5 23  1  0  0  0  0
  5 30  1  0  0  0  0
  6  7  2  0  0  0  0
  6  8  1  0  0  0  0
  8  9  1  0  0  0  0
  8 31  1  0  0  0  0
  9 10  1  0  0  0  0
  9 32  1  0  0  0  0
  9 33  1  0  0  0  0
 10 22  1  0  0  0  0
 10 11  2  0  0  0  0
 11 12  1  0  0  0  0
 11 34  1  0  0  0  0
 12 13  2  0  0  0  0
 12 35  1  0  0  0  0
 13 14  1  0  0  0  0
 13 21  1  0  0  0  0
 14 20  1  0  0  0  0
 14 15  1  0  0  0  0
 15 16  1  0  0  0  0
 15 36  1  0  0  0  0
 15 37  1  0  0  0  0
 16 17  1  0  0  0  0
 16 38  1  0  0  0  0
 16 39  1  0  0  0  0
 17 18  1  0  0  0  0
 18 19  1  0  0  0  0
 18 20  1  0  0  0  0
 18 40  1  0  0  0  0
 19 41  1  0  0  0  0
 19 42  1  0  0  0  0
 19 43  1  0  0  0  0
 20 44  1  0  0  0  0
 20 45  1  0  0  0  0
 21 22  2  0  0  0  0
 22 46  1  0  0  0  0
 23 24  1  0  0  0  0
 23 25  1  0  0  0  0
 23 47  1  0  0  0  0
 24 48  1  0  0  0  0
 24 49  1  0  0  0  0
 24 50  1  0  0  0  0
 25 51  1  0  0  0  0
 25 52  1  0  0  0  0
 25 53  1  0  0  0  0
M  END
> <s_m_source_file>
AV-unprocessed.smi

> <i_m_source_file_index>
1232

> <i_lp_mmshare_version>
43012

> <i_f3d_flags>
0

> <s_epik_input>
W0NIM11DKD1PKVtOSF1bQ0BASF0oW0NIXShbQ0gzXSlbQ0gzXSlDKD1PKVtOSF1bQ0gyXWMxW2NIXVtjSF1jKG5bY0hdMSlOMltDSDJdW0NIMl1PW0NAQEhdKFtDSDNdKVtDSDJdMg==

> <s_epik_cmdline>
J2VwaWtfcHl0aG9uJywgJy1waCcsICc3LjAnLCAnLXRuJywgJzgnLCAnLW1hJywgJzIwMCcsICctbWV0YWxfYmluZGluZycsICctaW1hZScsICc8aW5maWxlLm1hZT4nLCAnLW9tYWUnLCAnPG91dGZpbGUubWFlPic=

> <r_lp_tautomer_probability>
1

> <r_epik_Ionization_Penalty>
0.00557618

> <r_epik_Ionization_Penalty_Charging>
0

> <r_epik_Ionization_Penalty_Neutral>
0.00557618

> <r_epik_State_Penalty>
0.00408363

> <r_epik_Charging_Adjusted_Penalty>
0.00408363

> <i_epik_Tot_Q>
0

> <i_epik_Tot_abs_Q>
0

> <r_epik_Metal_State_Penalty>
-0

> <b_epik_Metal_Only>
0

> <s_lp_Force_Field>
OPLS_2005

> <r_lp_Energy>
20.4044

> <b_lp_Chiralities_Consistent>
1

> <s_lp_Variant>
AV-unprocessed.smi:1232-2

> <Gold.Version>
5.8.1

> <Gold.Id.Protein>
6NUR|6NUR_protein|mol2

> <Gold.PLP.Fitness>
57.2532

> <Gold.PLP.PLP>
-46.1385

> <Gold.PLP.part.hbond>
-5.0000

> <Gold.PLP.part.metal>
0.0000

> <Gold.PLP.part.buried>
-3.8630

> <Gold.PLP.part.nonpolar>
-38.1633

> <Gold.PLP.part.repulsive>
0.1210

> <Gold.PLP.ligand.clash>
0.0000

> <Gold.PLP.ligand.torsion>
0.5382

> <Gold.PLP.Chemscore.Hbond>
3.8448

> <Gold.PLP.Chemscore.CHOScore>
0.0000

> <Gold.PLP.Chemscore.Metal>
0.0000

> <Gold.Chemscore.Hbonds>
donor molecule, donor type, donor heavy atom, donor atom, acceptor molecule, acceptor atom, score
      L1  H     8    31       P1  7948  0.95
      P1  H  6896  6908       L1     3  0.88
      P1  H  7997  8010       L1    21  0.84
      P1  H 10752 10765       L1     7  1.00

> <Gold.PLP.Chemscore.Internal.Correction>
0.6568

> <Gold.Rescore>
     Score         DG    S(hbond)    S(metal)    S(lipo)     H(rot)  DE(clash)    DE(int)     intcor
     19.82     -23.07       2.94        0.00     113.00       2.13       0.03       3.23       ----

> <Gold.Chemscore.Fitness>
19.8166

> <Gold.Chemscore.DG>
-23.0676

> <Gold.Chemscore.ZeroCoef>
-5.4800

> <Gold.Chemscore.Hbond>
2.9412

> <Gold.Chemscore.Metal>
0.0000

> <Gold.Chemscore.Lipo>
113.0006

> <Gold.Chemscore.Internal_Hbond>
0.0000

> <Gold.Chemscore.DEClash>
0.0257

> <Gold.Chemscore.DEInternal>
3.2253

> <Gold.Chemscore.Rot>
2.1317

> <Gold.Chemscore.Internal.Correction>
   9.000000E+99

> <Gold.Chemscore.Hbonds>
donor molecule, donor type, donor heavy atom, donor atom, acceptor molecule, acceptor atom, score
      L1  H     8    31       P1  7948  0.21
      P1  H  6896  6908       L1     3  0.86
      P1  H  7997  8010       L1    21  0.14
      P1  H 10752 10765       L1     7  0.82

> <Gold.Chemscore.Hbond.Weighted>
-9.8237

> <Gold.Chemscore.Metal.Weighted>
-0.0000

> <Gold.Chemscore.Lipo.Weighted>
-13.2211

> <Gold.Chemscore.Internal_Hbond.Weighted>
0.0000

> <Gold.Chemscore.DEClash.Weighted>
0.0257

> <Gold.Chemscore.DEInternal.Weighted>
3.2253

> <Gold.Chemscore.Rot.Weighted>
5.4572

> <Gold.Chemscore.Internal.Correction.Weighted>
   9.000000E+99

> <Gold.Protein.RotatedTorsions>
[ 6907 6896 6895 6894 ] final  138.80 input  -60.11 | X-H torsion
[ 7974 7965 7964 7962 ] final  -74.27 input  175.53 | X-H torsion
[ 8008 7997 7996 7995 ] final   37.42 input   59.86 | X-H torsion
[ 10167 10162 10161 10158 ] final  -32.73 input  -65.29 | X-H torsion
[ 10718 10713 10712 10709 ] final  130.08 input   66.30 | X-H torsion
[ 10763 10752 10751 10750 ] final -142.21 input  -60.55 | X-H torsion
[ 11005 11000 10999 10996 ] final  -52.05 input  -57.11 | X-H torsion

> <Gold.Protein.ActiveResidues>
 VAL166  LYS551  ARG553  GLY616  TRP617  ASP618  TYR619  PRO620  LYS621  CYS622 
 ASP623  PHE694  ASN695  SER759  ASP760  ASP761  ALA762  ILE779  LEU786  VAL792 
 PHE793  MET794  SER795  GLU796  ALA797  LYS798  CYS799  TRP800  GLU811  SER814 

> <Gold.Protein.RotatedAtoms>
  152.2624  133.5309  159.5389 H   0  0  0  0  0  0  0  0  0  0  0  0  # atno 6907 bound_to 6896
  150.7130  134.0811  159.3907 H   0  0  0  0  0  0  0  0  0  0  0  0  # atno 6908 bound_to 6896
  151.8728  135.0483  160.0532 H   0  0  0  0  0  0  0  0  0  0  0  0  # atno 6909 bound_to 6896
  145.6413  140.9310  143.1034 H   0  0  0  0  0  0  0  0  0  0  0  0  # atno 7974 bound_to 7965
  155.2034  140.3317  155.4339 H   0  0  0  0  0  0  0  0  0  0  0  0  # atno 8008 bound_to 7997
  156.2398  140.1889  156.7069 H   0  0  0  0  0  0  0  0  0  0  0  0  # atno 8009 bound_to 7997
  154.6126  140.0607  156.9499 H   0  0  0  0  0  0  0  0  0  0  0  0  # atno 8010 bound_to 7997
  140.7216  143.3672  151.1847 H   0  0  0  0  0  0  0  0  0  0  0  0  # atno 10167 bound_to 10162
  157.5095  131.1096  150.9313 H   0  0  0  0  0  0  0  0  0  0  0  0  # atno 10718 bound_to 10713
  154.8517  135.3502  154.5992 H   0  0  0  0  0  0  0  0  0  0  0  0  # atno 10763 bound_to 10752
  153.6601  135.6990  153.5185 H   0  0  0  0  0  0  0  0  0  0  0  0  # atno 10764 bound_to 10752
  153.2825  135.4259  155.1049 H   0  0  0  0  0  0  0  0  0  0  0  0  # atno 10765 bound_to 10752
  141.0903  133.6634  156.3966 H   0  0  0  0  0  0  0  0  0  0  0  0  # atno 11005 bound_to 11000
  144.7156  139.8209  143.7400 LP  0  0  0  0  0  0  0  0  0  0  0  0  # atno 17320 bound_to 7965
  146.1278  139.4307  143.0188 LP  0  0  0  0  0  0  0  0  0  0  0  0  # atno 17321 bound_to 7965
  139.7237  143.9183  152.2994 LP  0  0  0  0  0  0  0  0  0  0  0  0  # atno 17342 bound_to 10162
  139.8948  144.6945  150.8730 LP  0  0  0  0  0  0  0  0  0  0  0  0  # atno 17343 bound_to 10162
  156.9957  130.5580  149.5307 LP  0  0  0  0  0  0  0  0  0  0  0  0  # atno 17370 bound_to 10713
  156.0280  130.5373  150.8458 LP  0  0  0  0  0  0  0  0  0  0  0  0  # atno 17371 bound_to 10713
  140.5266  134.6252  157.5336 LP  0  0  0  0  0  0  0  0  0  0  0  0  # atno 17394 bound_to 11000
  139.9728  134.7264  156.0007 LP  0  0  0  0  0  0  0  0  0  0  0  0  # atno 17395 bound_to 11000

$$$$
