AV-unprocessed.smi:287|AV-procd|sdf|2191|dock7
  -GOLD-   2262021583D 1   1.00000     0.00000
 Structure written by MMmdl.
 55 58  0  0  0  0  0  0  0  0  1 V2000
  152.4116  140.6892  158.8965 C   0  0  0  0  0  0  0  0  0  0  0  0
  151.9765  140.0644  157.6154 C   0  0  0  0  0  0  0  0  0  0  0  0
  150.7642  139.8871  157.0147 C   0  0  0  0  0  0  0  0  0  0  0  0
  150.9943  139.2034  155.7831 C   0  0  0  0  0  0  0  0  0  0  0  0
  149.9370  138.7977  154.7651 C   0  0  1  0  0  0  0  0  0  0  0  0
  149.1655  140.0423  154.2973 C   0  0  0  0  0  0  0  0  0  0  0  0
  150.4950  138.2362  153.5926 O   0  0  0  0  0  0  0  0  0  0  0  0
  148.9532  137.7386  155.3131 C   0  0  0  0  0  0  0  0  0  0  0  0
  149.6278  136.5710  155.8712 N   0  0  0  0  0  0  0  0  0  0  0  0
  149.2636  135.3297  155.4881 C   0  0  0  0  0  0  0  0  0  0  0  0
  150.0221  134.2481  155.8053 N   0  0  0  0  0  0  0  0  0  0  0  0
  149.6391  133.0283  155.4168 C   0  0  0  0  0  0  0  0  0  0  0  0
  148.5570  132.6769  154.7194 N   0  0  0  0  0  0  0  0  0  0  0  0
  147.7917  133.7606  154.3976 C   0  0  0  0  0  0  0  0  0  0  0  0
  148.0760  135.1107  154.7438 C   0  0  0  0  0  0  0  0  0  0  0  0
  147.0782  135.9435  154.2542 N   0  0  0  0  0  0  0  0  0  0  0  0
  146.2515  135.1278  153.6569 C   0  0  0  0  0  0  0  0  0  0  0  0
  146.6018  133.7966  153.6973 N   0  0  0  0  0  0  0  0  0  0  0  0
  145.8518  132.6411  153.1133 C   0  0  1  0  0  0  0  0  0  0  0  0
  144.7383  133.1111  152.4276 O   0  0  0  0  0  0  0  0  0  0  0  0
  144.3991  132.1894  151.3967 C   0  0  1  0  0  0  0  0  0  0  0  0
  143.9631  132.9708  150.1432 C   0  0  0  0  0  0  0  0  0  0  0  0
  143.2044  132.1731  149.2577 O   0  0  0  0  0  0  0  0  0  0  0  0
  145.6004  131.2364  151.2156 C   0  0  2  0  0  0  0  0  0  0  0  0
  145.2463  129.9442  151.6719 O   0  0  0  0  0  0  0  0  0  0  0  0
  146.6825  131.8233  152.1147 C   0  0  1  0  0  0  0  0  0  0  0  0
  147.5980  132.6039  151.3684 O   0  0  0  0  0  0  0  0  0  0  0  0
  152.3565  139.0323  155.7278 C   0  0  0  0  0  0  0  0  0  0  0  0
  153.2831  138.4236  154.7280 C   0  0  0  0  0  0  0  0  0  0  0  0
  152.9585  139.5456  156.8368 O   0  0  0  0  0  0  0  0  0  0  0  0
  145.5240  132.0495  153.9695 H   0  0  0  0  0  0  0  0  0  0  0  0
  143.5326  131.6332  151.7586 H   0  0  0  0  0  0  0  0  0  0  0  0
  145.9257  131.1467  150.1782 H   0  0  0  0  0  0  0  0  0  0  0  0
  147.2520  131.0622  152.6502 H   0  0  0  0  0  0  0  0  0  0  0  0
  151.5537  141.0448  159.4676 H   0  0  0  0  0  0  0  0  0  0  0  0
  153.0685  141.5387  158.7090 H   0  0  0  0  0  0  0  0  0  0  0  0
  152.9529  139.9708  159.5127 H   0  0  0  0  0  0  0  0  0  0  0  0
  149.8144  140.2079  157.4164 H   0  0  0  0  0  0  0  0  0  0  0  0
  148.6644  140.5324  155.1328 H   0  0  0  0  0  0  0  0  0  0  0  0
  148.4017  139.7871  153.5616 H   0  0  0  0  0  0  0  0  0  0  0  0
  149.8331  140.7746  153.8411 H   0  0  0  0  0  0  0  0  0  0  0  0
  150.1510  138.7012  152.8454 H   0  0  0  0  0  0  0  0  0  0  0  0
  148.3672  138.1875  156.1164 H   0  0  0  0  0  0  0  0  0  0  0  0
  148.2434  137.4336  154.5423 H   0  0  0  0  0  0  0  0  0  0  0  0
  150.3644  136.7586  156.5366 H   0  0  0  0  0  0  0  0  0  0  0  0
  150.2911  132.2180  155.7071 H   0  0  0  0  0  0  0  0  0  0  0  0
  145.3529  135.4776  153.1700 H   0  0  0  0  0  0  0  0  0  0  0  0
  143.3459  133.8202  150.4364 H   0  0  0  0  0  0  0  0  0  0  0  0
  144.8312  133.3724  149.6198 H   0  0  0  0  0  0  0  0  0  0  0  0
  143.0247  132.6753  148.4778 H   0  0  0  0  0  0  0  0  0  0  0  0
  144.4863  130.0189  152.2282 H   0  0  0  0  0  0  0  0  0  0  0  0
  148.2000  132.0221  150.9304 H   0  0  0  0  0  0  0  0  0  0  0  0
  153.1034  138.8354  153.7349 H   0  0  0  0  0  0  0  0  0  0  0  0
  153.1407  137.3440  154.6786 H   0  0  0  0  0  0  0  0  0  0  0  0
  154.3250  138.6146  154.9867 H   0  0  0  0  0  0  0  0  0  0  0  0
  1  2  1  0  0  0  0
  1 35  1  0  0  0  0
  1 36  1  0  0  0  0
  1 37  1  0  0  0  0
  2 30  1  0  0  0  0
  2  3  2  0  0  0  0
  3  4  1  0  0  0  0
  3 38  1  0  0  0  0
  4  5  1  0  0  0  0
  4 28  2  0  0  0  0
  5  6  1  0  0  0  0
  5  7  1  0  0  0  0
  5  8  1  0  0  0  0
  6 39  1  0  0  0  0
  6 40  1  0  0  0  0
  6 41  1  0  0  0  0
  7 42  1  0  0  0  0
  8  9  1  0  0  0  0
  8 43  1  0  0  0  0
  8 44  1  0  0  0  0
  9 10  1  0  0  0  0
  9 45  1  0  0  0  0
 10 15  1  0  0  0  0
 10 11  2  0  0  0  0
 11 12  1  0  0  0  0
 12 13  2  0  0  0  0
 12 46  1  0  0  0  0
 13 14  1  0  0  0  0
 14 18  1  0  0  0  0
 14 15  2  0  0  0  0
 15 16  1  0  0  0  0
 16 17  2  0  0  0  0
 17 18  1  0  0  0  0
 17 47  1  0  0  0  0
 18 19  1  0  0  0  0
 19 31  1  0  0  0  0
 19 26  1  0  0  0  0
 19 20  1  0  0  0  0
 20 21  1  0  0  0  0
 21 32  1  0  0  0  0
 21 22  1  0  0  0  0
 21 24  1  0  0  0  0
 22 23  1  0  0  0  0
 22 48  1  0  0  0  0
 22 49  1  0  0  0  0
 23 50  1  0  0  0  0
 24 33  1  0  0  0  0
 24 25  1  0  0  0  0
 24 26  1  0  0  0  0
 25 51  1  0  0  0  0
 26 34  1  0  0  0  0
 26 27  1  0  0  0  0
 27 52  1  0  0  0  0
 28 29  1  0  0  0  0
 28 30  1  0  0  0  0
 29 53  1  0  0  0  0
 29 54  1  0  0  0  0
 29 55  1  0  0  0  0
M  END
> <s_m_source_file>
AV-unprocessed.smi

> <i_m_source_file_index>
287

> <i_lp_mmshare_version>
43012

> <i_f3d_flags>
0

> <s_epik_input>
W0NIM11jMVtjSF1jKGMobzEpW0NIM10pW0NAQF0oW0NIM10pKFtPSF0pW0NIMl1bTkhdYyhuW2NIXW4yKWMoYzIzKW5bY0hdbjNbQ0BASF00T1tDQEhdKFtDSDJdW09IXSlbQ0BASF0oW09IXSlbQ0BIXTRbT0hd

> <s_epik_cmdline>
J2VwaWtfcHl0aG9uJywgJy1waCcsICc3LjAnLCAnLXRuJywgJzgnLCAnLW1hJywgJzIwMCcsICctbWV0YWxfYmluZGluZycsICctaW1hZScsICc8aW5maWxlLm1hZT4nLCAnLW9tYWUnLCAnPG91dGZpbGUubWFlPic=

> <r_lp_tautomer_probability>
1

> <r_epik_Ionization_Penalty>
0.000992612

> <r_epik_Ionization_Penalty_Charging>
0

> <r_epik_Ionization_Penalty_Neutral>
0.000992612

> <r_epik_State_Penalty>
-0

> <r_epik_Charging_Adjusted_Penalty>
0

> <i_epik_Tot_Q>
0

> <i_epik_Tot_abs_Q>
0

> <r_epik_Metal_State_Penalty>
-0

> <b_epik_Metal_Only>
0

> <s_epik_Chemistry_Notes>
This compound contains an acetal/aminal-like group ( X-CH(R)-Y where X, Y are N, S, or O) that may be acid/base labile, releasing an aldehyde.

> <s_lp_Force_Field>
OPLS_2005

> <r_lp_Energy>
44.0492

> <b_lp_Chiralities_Consistent>
1

> <s_lp_Variant>
AV-unprocessed.smi:287-15

> <Gold.Version>
5.8.1

> <Gold.Id.Protein>
6NUR|6NUR_protein|mol2

> <Gold.PLP.Fitness>
54.5496

> <Gold.PLP.PLP>
-43.1764

> <Gold.PLP.part.hbond>
-6.4914

> <Gold.PLP.part.metal>
0.0000

> <Gold.PLP.part.buried>
-3.6863

> <Gold.PLP.part.nonpolar>
-32.0608

> <Gold.PLP.part.repulsive>
0.7358

> <Gold.PLP.ligand.clash>
0.0000

> <Gold.PLP.ligand.torsion>
0.3535

> <Gold.PLP.Chemscore.Hbond>
4.0000

> <Gold.PLP.Chemscore.CHOScore>
0.0000

> <Gold.PLP.Chemscore.Metal>
0.0000

> <Gold.Chemscore.Hbonds>
donor molecule, donor type, donor heavy atom, donor atom, acceptor molecule, acceptor atom, score
      L1  H     7    42       P1  7957  0.59
      L1  H    27    52       P1 10747  1.00
      P1  H  7997  8008       L1    30  0.99
      P1  H 10785 10796       L1    23  0.84

> <Gold.PLP.Chemscore.Internal.Correction>
0.0802

> <Gold.Rescore>
     Score         DG    S(hbond)    S(metal)    S(lipo)     H(rot)  DE(clash)    DE(int)     intcor
     11.90     -14.90       3.69        0.00      90.37       5.27       0.30       2.70       ----

> <Gold.Chemscore.Fitness>
11.8976

> <Gold.Chemscore.DG>
-14.8971

> <Gold.Chemscore.ZeroCoef>
-5.4800

> <Gold.Chemscore.Hbond>
3.6910

> <Gold.Chemscore.Metal>
0.0000

> <Gold.Chemscore.Lipo>
90.3677

> <Gold.Chemscore.Internal_Hbond>
0.0000

> <Gold.Chemscore.DEClash>
0.2956

> <Gold.Chemscore.DEInternal>
2.7039

> <Gold.Chemscore.Rot>
5.2672

> <Gold.Chemscore.Internal.Correction>
   9.000000E+99

> <Gold.Chemscore.Hbonds>
donor molecule, donor type, donor heavy atom, donor atom, acceptor molecule, acceptor atom, score
      L1  H     7    42       P1  7957  0.29
      L1  H    27    52       P1 10747  0.94
      P1  H  7997  8008       L1    30  0.86
      P1  H 10785 10796       L1    23  0.53

> <Gold.Chemscore.Hbond.Weighted>
-12.3280

> <Gold.Chemscore.Metal.Weighted>
-0.0000

> <Gold.Chemscore.Lipo.Weighted>
-10.5730

> <Gold.Chemscore.Internal_Hbond.Weighted>
0.0000

> <Gold.Chemscore.DEClash.Weighted>
0.2956

> <Gold.Chemscore.DEInternal.Weighted>
2.7039

> <Gold.Chemscore.Rot.Weighted>
13.4839

> <Gold.Chemscore.Internal.Correction.Weighted>
   9.000000E+99

> <Gold.Protein.RotatedTorsions>
[ 6907 6896 6895 6894 ] final  154.15 input  -60.11 | X-H torsion
[ 7974 7965 7964 7962 ] final -101.46 input  175.53 | X-H torsion
[ 8008 7997 7996 7995 ] final  -59.97 input   59.86 | X-H torsion
[ 10167 10162 10161 10158 ] final  -70.80 input  -65.29 | X-H torsion
[ 10718 10713 10712 10709 ] final   74.45 input   66.30 | X-H torsion
[ 10763 10752 10751 10750 ] final -172.50 input  -60.55 | X-H torsion
[ 11005 11000 10999 10996 ] final   93.96 input  -57.11 | X-H torsion

> <Gold.Protein.ActiveResidues>
 VAL166  LYS551  ARG553  GLY616  TRP617  ASP618  TYR619  PRO620  LYS621  CYS622 
 ASP623  PHE694  ASN695  SER759  ASP760  ASP761  ALA762  ILE779  LEU786  VAL792 
 PHE793  MET794  SER795  GLU796  ALA797  LYS798  CYS799  TRP800  GLU811  SER814 

> <Gold.Protein.RotatedAtoms>
  152.0626  133.4069  159.4424 H   0  0  0  0  0  0  0  0  0  0  0  0  # atno 6907 bound_to 6896
  150.6865  134.3183  159.4785 H   0  0  0  0  0  0  0  0  0  0  0  0  # atno 6908 bound_to 6896
  152.1005  134.9344  160.0620 H   0  0  0  0  0  0  0  0  0  0  0  0  # atno 6909 bound_to 6896
  145.2813  140.9327  143.2930 H   0  0  0  0  0  0  0  0  0  0  0  0  # atno 7974 bound_to 7965
  154.4377  140.1050  156.6200 H   0  0  0  0  0  0  0  0  0  0  0  0  # atno 8008 bound_to 7997
  155.5718  140.3489  155.4498 H   0  0  0  0  0  0  0  0  0  0  0  0  # atno 8009 bound_to 7997
  156.0384  140.1276  157.0172 H   0  0  0  0  0  0  0  0  0  0  0  0  # atno 8010 bound_to 7997
  140.5324  143.2320  151.7238 H   0  0  0  0  0  0  0  0  0  0  0  0  # atno 10167 bound_to 10162
  157.6592  130.9678  150.1212 H   0  0  0  0  0  0  0  0  0  0  0  0  # atno 10718 bound_to 10713
  154.6185  135.2872  155.0352 H   0  0  0  0  0  0  0  0  0  0  0  0  # atno 10763 bound_to 10752
  154.1556  135.6496  153.4977 H   0  0  0  0  0  0  0  0  0  0  0  0  # atno 10764 bound_to 10752
  153.0226  135.5366  154.6966 H   0  0  0  0  0  0  0  0  0  0  0  0  # atno 10765 bound_to 10752
  139.8804  134.8819  156.3794 H   0  0  0  0  0  0  0  0  0  0  0  0  # atno 11005 bound_to 11000
  144.9250  139.4365  143.6522 LP  0  0  0  0  0  0  0  0  0  0  0  0  # atno 17320 bound_to 7965
  146.3215  139.8131  142.8942 LP  0  0  0  0  0  0  0  0  0  0  0  0  # atno 17321 bound_to 7965
  139.4959  144.4094  152.0097 LP  0  0  0  0  0  0  0  0  0  0  0  0  # atno 17342 bound_to 10162
  140.3197  144.3442  150.6012 LP  0  0  0  0  0  0  0  0  0  0  0  0  # atno 17343 bound_to 10162
  156.2083  130.3665  149.8702 LP  0  0  0  0  0  0  0  0  0  0  0  0  # atno 17370 bound_to 10713
  156.6587  130.8773  151.3544 LP  0  0  0  0  0  0  0  0  0  0  0  0  # atno 17371 bound_to 10713
  140.9409  133.7515  156.0146 LP  0  0  0  0  0  0  0  0  0  0  0  0  # atno 17394 bound_to 11000
  140.8220  134.3278  157.5378 LP  0  0  0  0  0  0  0  0  0  0  0  0  # atno 17395 bound_to 11000

$$$$
