AV-unprocessed.smi:283|AV-procd|sdf|2150|dock4
  -GOLD-   2262021483D 1   1.00000     0.00000
 Structure written by MMmdl.
 48 51  0  0  0  0  0  0  0  0  1 V2000
  145.3092  138.4111  156.1827 C   0  0  0  0  0  0  0  0  0  0  0  0
  145.4856  138.6722  154.6806 C   0  0  1  0  0  0  0  0  0  0  0  0
  144.1821  138.6422  154.0211 N   0  0  0  0  0  0  0  0  0  0  0  0
  143.5939  137.4779  153.6664 C   0  0  0  0  0  0  0  0  0  0  0  0
  142.3254  137.3108  154.1097 N   0  0  0  0  0  0  0  0  0  0  0  0
  141.6468  136.2045  153.7979 C   0  0  0  0  0  0  0  0  0  0  0  0
  142.0445  135.1615  153.0691 N   0  0  0  0  0  0  0  0  0  0  0  0
  143.3282  135.3089  152.6292 C   0  0  0  0  0  0  0  0  0  0  0  0
  144.1697  136.4307  152.8864 C   0  0  0  0  0  0  0  0  0  0  0  0
  145.4073  136.2209  152.2900 N   0  0  0  0  0  0  0  0  0  0  0  0
  145.2937  135.0616  151.7041 C   0  0  0  0  0  0  0  0  0  0  0  0
  144.0760  134.4393  151.8561 N   0  0  0  0  0  0  0  0  0  0  0  0
  143.6720  133.1056  151.2980 C   0  0  2  0  0  0  0  0  0  0  0  0
  144.4608  132.1144  151.8838 O   0  0  0  0  0  0  0  0  0  0  0  0
  144.9498  131.2205  150.8883 C   0  0  2  0  0  0  0  0  0  0  0  0
  146.2496  130.5345  151.3462 C   0  0  0  0  0  0  0  0  0  0  0  0
  147.1411  131.4869  151.8858 O   0  0  0  0  0  0  0  0  0  0  0  0
  145.0672  132.0910  149.6286 C   0  0  2  0  0  0  0  0  0  0  0  0
  146.2970  132.7949  149.5910 O   0  0  0  0  0  0  0  0  0  0  0  0
  143.8642  133.0160  149.7700 C   0  0  2  0  0  0  0  0  0  0  0  0
  144.0145  134.2517  149.0908 O   0  0  0  0  0  0  0  0  0  0  0  0
  146.2919  139.9551  154.4553 C   0  0  0  0  0  0  0  0  0  0  0  0
  147.4956  139.9129  153.7133 C   0  0  0  0  0  0  0  0  0  0  0  0
  148.2525  141.0809  153.5043 C   0  0  0  0  0  0  0  0  0  0  0  0
  147.8088  142.3086  154.0271 C   0  0  0  0  0  0  0  0  0  0  0  0
  146.6049  142.3663  154.7528 C   0  0  0  0  0  0  0  0  0  0  0  0
  145.8429  141.1999  154.9651 C   0  0  0  0  0  0  0  0  0  0  0  0
  144.3644  141.3346  155.8515 Cl  0  0  0  0  0  0  0  0  0  0  0  0
  142.6298  132.9956  151.6005 H   0  0  0  0  0  0  0  0  0  0  0  0
  144.1778  130.4709  150.7031 H   0  0  0  0  0  0  0  0  0  0  0  0
  145.0031  131.4881  148.7222 H   0  0  0  0  0  0  0  0  0  0  0  0
  142.9858  132.5089  149.3688 H   0  0  0  0  0  0  0  0  0  0  0  0
  146.2743  138.3361  156.6849 H   0  0  0  0  0  0  0  0  0  0  0  0
  144.7747  137.4773  156.3592 H   0  0  0  0  0  0  0  0  0  0  0  0
  144.7465  139.2133  156.6616 H   0  0  0  0  0  0  0  0  0  0  0  0
  146.0429  137.8281  154.2776 H   0  0  0  0  0  0  0  0  0  0  0  0
  143.8866  139.5260  153.6326 H   0  0  0  0  0  0  0  0  0  0  0  0
  140.6403  136.1469  154.1850 H   0  0  0  0  0  0  0  0  0  0  0  0
  146.1059  134.6201  151.1455 H   0  0  0  0  0  0  0  0  0  0  0  0
  146.0356  129.8102  152.1327 H   0  0  0  0  0  0  0  0  0  0  0  0
  146.7254  129.9947  150.5268 H   0  0  0  0  0  0  0  0  0  0  0  0
  147.9110  131.5234  151.3393 H   0  0  0  0  0  0  0  0  0  0  0  0
  146.1540  133.6335  149.1804 H   0  0  0  0  0  0  0  0  0  0  0  0
  144.7000  134.1589  148.4472 H   0  0  0  0  0  0  0  0  0  0  0  0
  147.8507  138.9795  153.3018 H   0  0  0  0  0  0  0  0  0  0  0  0
  149.1742  141.0340  152.9434 H   0  0  0  0  0  0  0  0  0  0  0  0
  148.3887  143.2058  153.8685 H   0  0  0  0  0  0  0  0  0  0  0  0
  146.2641  143.3121  155.1474 H   0  0  0  0  0  0  0  0  0  0  0  0
  1  2  1  0  0  0  0
  1 33  1  0  0  0  0
  1 34  1  0  0  0  0
  1 35  1  0  0  0  0
  2  3  1  0  0  0  0
  2 22  1  0  0  0  0
  2 36  1  0  0  0  0
  3  4  1  0  0  0  0
  3 37  1  0  0  0  0
  4  9  1  0  0  0  0
  4  5  2  0  0  0  0
  5  6  1  0  0  0  0
  6  7  2  0  0  0  0
  6 38  1  0  0  0  0
  7  8  1  0  0  0  0
  8 12  1  0  0  0  0
  8  9  2  0  0  0  0
  9 10  1  0  0  0  0
 10 11  2  0  0  0  0
 11 12  1  0  0  0  0
 11 39  1  0  0  0  0
 12 13  1  0  0  0  0
 13 29  1  0  0  0  0
 13 20  1  0  0  0  0
 13 14  1  0  0  0  0
 14 15  1  0  0  0  0
 15 30  1  0  0  0  0
 15 16  1  0  0  0  0
 15 18  1  0  0  0  0
 16 17  1  0  0  0  0
 16 40  1  0  0  0  0
 16 41  1  0  0  0  0
 17 42  1  0  0  0  0
 18 31  1  0  0  0  0
 18 19  1  0  0  0  0
 18 20  1  0  0  0  0
 19 43  1  0  0  0  0
 20 32  1  0  0  0  0
 20 21  1  0  0  0  0
 21 44  1  0  0  0  0
 22 27  1  0  0  0  0
 22 23  2  0  0  0  0
 23 24  1  0  0  0  0
 23 45  1  0  0  0  0
 24 25  2  0  0  0  0
 24 46  1  0  0  0  0
 25 26  1  0  0  0  0
 25 47  1  0  0  0  0
 26 27  2  0  0  0  0
 26 48  1  0  0  0  0
 27 28  1  0  0  0  0
M  END
> <s_m_source_file>
AV-unprocessed.smi

> <i_m_source_file_index>
283

> <i_lp_mmshare_version>
43012

> <i_f3d_flags>
0

> <s_epik_input>
Q2xjMVtjSF1bY0hdW2NIXVtjSF1jMVtDQEhdKFtDSDNdKVtOSF1jKG5bY0hdbjIpYyhjMjMpbltjSF1uM1tDQEBIXTRPW0NASF0oW0NIMl1bT0hdKVtDQEBIXShbT0hdKVtDQEhdNFtPSF0=

> <s_epik_cmdline>
J2VwaWtfcHl0aG9uJywgJy1waCcsICc3LjAnLCAnLXRuJywgJzgnLCAnLW1hJywgJzIwMCcsICctbWV0YWxfYmluZGluZycsICctaW1hZScsICc8aW5maWxlLm1hZT4nLCAnLW9tYWUnLCAnPG91dGZpbGUubWFlPic=

> <r_lp_tautomer_probability>
1

> <r_epik_Ionization_Penalty>
0.000266407

> <r_epik_Ionization_Penalty_Charging>
0

> <r_epik_Ionization_Penalty_Neutral>
0.000266407

> <r_epik_State_Penalty>
-0

> <r_epik_Charging_Adjusted_Penalty>
0

> <i_epik_Tot_Q>
0

> <i_epik_Tot_abs_Q>
0

> <r_epik_Metal_State_Penalty>
-0

> <b_epik_Metal_Only>
0

> <s_epik_Chemistry_Notes>
This compound contains an acetal/aminal-like group ( X-CH(R)-Y where X, Y are N, S, or O) that may be acid/base labile, releasing an aldehyde.

> <s_lp_Force_Field>
OPLS_2005

> <r_lp_Energy>
56.8802

> <b_lp_Chiralities_Consistent>
1

> <s_lp_Variant>
AV-unprocessed.smi:283-26

> <Gold.Version>
5.8.1

> <Gold.Id.Protein>
6NUR|6NUR_protein|mol2

> <Gold.PLP.Fitness>
49.3503

> <Gold.PLP.PLP>
-41.0267

> <Gold.PLP.part.hbond>
-5.0786

> <Gold.PLP.part.metal>
0.0000

> <Gold.PLP.part.buried>
-3.1316

> <Gold.PLP.part.nonpolar>
-33.6013

> <Gold.PLP.part.repulsive>
0.6107

> <Gold.PLP.ligand.clash>
0.0000

> <Gold.PLP.ligand.torsion>
0.9723

> <Gold.PLP.Chemscore.Hbond>
3.3900

> <Gold.PLP.Chemscore.CHOScore>
0.0000

> <Gold.PLP.Chemscore.Metal>
0.0000

> <Gold.Chemscore.Hbonds>
donor molecule, donor type, donor heavy atom, donor atom, acceptor molecule, acceptor atom, score
      L1  H     3    37       P1 10175  0.91
      L1  H    17    42       P1 10747  1.00
      L1  H    19    43       P1  7921  0.40
      L1  H    21    44       P1  7921  1.00

> <Gold.PLP.Chemscore.Internal.Correction>
0.0982

> <Gold.Rescore>
     Score         DG    S(hbond)    S(metal)    S(lipo)     H(rot)  DE(clash)    DE(int)     intcor
     11.76     -13.62       2.86        0.00      77.50       4.10       0.08       1.78       ----

> <Gold.Chemscore.Fitness>
11.7631

> <Gold.Chemscore.DG>
-13.6198

> <Gold.Chemscore.ZeroCoef>
-5.4800

> <Gold.Chemscore.Hbond>
2.8623

> <Gold.Chemscore.Metal>
0.0000

> <Gold.Chemscore.Lipo>
77.5008

> <Gold.Chemscore.Internal_Hbond>
0.0000

> <Gold.Chemscore.DEClash>
0.0756

> <Gold.Chemscore.DEInternal>
1.7811

> <Gold.Chemscore.Rot>
4.0968

> <Gold.Chemscore.Internal.Correction>
   9.000000E+99

> <Gold.Chemscore.Hbonds>
donor molecule, donor type, donor heavy atom, donor atom, acceptor molecule, acceptor atom, score
      L1  H     3    37       P1 10175  0.84
      L1  H    17    42       P1 10747  0.97
      L1  H    19    43       P1  7921  0.01
      L1  H    21    44       P1  7921  0.94

> <Gold.Chemscore.Hbond.Weighted>
-9.5601

> <Gold.Chemscore.Metal.Weighted>
-0.0000

> <Gold.Chemscore.Lipo.Weighted>
-9.0676

> <Gold.Chemscore.Internal_Hbond.Weighted>
0.0000

> <Gold.Chemscore.DEClash.Weighted>
0.0756

> <Gold.Chemscore.DEInternal.Weighted>
1.7811

> <Gold.Chemscore.Rot.Weighted>
10.4879

> <Gold.Chemscore.Internal.Correction.Weighted>
   9.000000E+99

> <Gold.Protein.RotatedTorsions>
[ 6907 6896 6895 6894 ] final -115.28 input  -60.11 | X-H torsion
[ 7974 7965 7964 7962 ] final -108.02 input  175.53 | X-H torsion
[ 8008 7997 7996 7995 ] final  -76.66 input   59.86 | X-H torsion
[ 10167 10162 10161 10158 ] final    4.49 input  -65.29 | X-H torsion
[ 10718 10713 10712 10709 ] final  -51.44 input   66.30 | X-H torsion
[ 10763 10752 10751 10750 ] final  -13.24 input  -60.55 | X-H torsion
[ 11005 11000 10999 10996 ] final  100.98 input  -57.11 | X-H torsion

> <Gold.Protein.ActiveResidues>
 VAL166  LYS551  ARG553  GLY616  TRP617  ASP618  TYR619  PRO620  LYS621  CYS622 
 ASP623  PHE694  ASN695  SER759  ASP760  ASP761  ALA762  ILE779  LEU786  VAL792 
 PHE793  MET794  SER795  GLU796  ALA797  LYS798  CYS799  TRP800  GLU811  SER814 

> <Gold.Protein.RotatedAtoms>
  150.7965  133.8681  159.3250 H   0  0  0  0  0  0  0  0  0  0  0  0  # atno 6907 bound_to 6896
  151.6505  135.1000  160.0169 H   0  0  0  0  0  0  0  0  0  0  0  0  # atno 6908 bound_to 6896
  152.4048  133.6833  159.6382 H   0  0  0  0  0  0  0  0  0  0  0  0  # atno 6909 bound_to 6896
  145.1980  140.9044  143.3386 H   0  0  0  0  0  0  0  0  0  0  0  0  # atno 7974 bound_to 7965
  154.5525  140.0723  156.8691 H   0  0  0  0  0  0  0  0  0  0  0  0  # atno 8008 bound_to 7997
  155.2965  140.3381  155.4231 H   0  0  0  0  0  0  0  0  0  0  0  0  # atno 8009 bound_to 7997
  156.1974  140.1708  156.7956 H   0  0  0  0  0  0  0  0  0  0  0  0  # atno 8010 bound_to 7997
  140.6532  143.7493  150.7609 H   0  0  0  0  0  0  0  0  0  0  0  0  # atno 10167 bound_to 10162
  156.1709  130.4149  149.9648 H   0  0  0  0  0  0  0  0  0  0  0  0  # atno 10718 bound_to 10713
  153.5104  135.7016  153.5784 H   0  0  0  0  0  0  0  0  0  0  0  0  # atno 10763 bound_to 10752
  153.3877  135.3904  155.1901 H   0  0  0  0  0  0  0  0  0  0  0  0  # atno 10764 bound_to 10752
  154.8703  135.3850  154.4583 H   0  0  0  0  0  0  0  0  0  0  0  0  # atno 10765 bound_to 10752
  139.8772  134.9164  156.4838 H   0  0  0  0  0  0  0  0  0  0  0  0  # atno 11005 bound_to 11000
  144.9975  139.3629  143.6184 LP  0  0  0  0  0  0  0  0  0  0  0  0  # atno 17320 bound_to 7965
  146.3423  139.9185  142.8770 LP  0  0  0  0  0  0  0  0  0  0  0  0  # atno 17321 bound_to 7965
  140.1148  143.4666  152.2349 LP  0  0  0  0  0  0  0  0  0  0  0  0  # atno 17342 bound_to 10162
  139.5750  144.7483  151.3789 LP  0  0  0  0  0  0  0  0  0  0  0  0  # atno 17343 bound_to 10162
  156.7448  130.9093  151.3634 LP  0  0  0  0  0  0  0  0  0  0  0  0  # atno 17370 bound_to 10713
  157.6802  130.9133  150.0249 LP  0  0  0  0  0  0  0  0  0  0  0  0  # atno 17371 bound_to 10713
  140.8708  133.7990  155.9362 LP  0  0  0  0  0  0  0  0  0  0  0  0  # atno 17394 bound_to 11000
  140.8955  134.2443  157.5071 LP  0  0  0  0  0  0  0  0  0  0  0  0  # atno 17395 bound_to 11000

$$$$
