AV-unprocessed.smi:3287|AV-procd|sdf|12601|dock7
  -GOLD-   2272018523D 1   1.00000     0.00000
 Structure written by MMmdl.
 43 44  0  0  0  0  0  0  0  0  2 V2000
  153.2244  142.5899  161.3102 C   0  0  0  0  0  0  0  0  0  0  0  0
  152.6803  142.7412  159.8784 C   0  0  1  0  0  0  0  0  0  0  0  0
  152.2481  141.3642  159.3352 C   0  0  0  0  0  0  0  0  0  0  0  0
  151.7059  141.4501  157.9017 C   0  0  0  0  0  0  0  0  0  0  0  0
  150.5319  142.4423  157.8119 C   0  0  2  0  0  0  0  0  0  0  0  0
  150.0318  142.5686  156.4252 N   0  3  0  0  0  0  0  0  0  0  0  0
  149.2452  141.4181  155.9309 C   0  0  0  0  0  0  0  0  0  0  0  0
  149.0081  141.5084  154.4134 C   0  0  2  0  0  0  0  0  0  0  0  0
  148.3884  142.7457  154.1208 O   0  0  0  0  0  0  0  0  0  0  0  0
  148.1804  140.3326  153.9184 C   0  0  0  0  0  0  0  0  0  0  0  0
  147.0570  140.5453  153.0923 C   0  0  0  0  0  0  0  0  0  0  0  0
  146.3244  139.4256  152.6492 C   0  0  0  0  0  0  0  0  0  0  0  0
  146.6447  138.1547  152.9731 N   0  0  0  0  0  0  0  0  0  0  0  0
  147.7216  137.9560  153.7625 C   0  0  0  0  0  0  0  0  0  0  0  0
  148.5206  139.0053  154.2587 C   0  0  0  0  0  0  0  0  0  0  0  0
  150.9697  143.8212  158.3350 C   0  0  0  0  0  0  0  0  0  0  0  0
  151.5121  143.7575  159.7780 C   0  0  2  0  0  0  0  0  0  0  0  0
  151.9026  145.1691  160.2515 C   0  0  0  0  0  0  0  0  0  0  0  0
  152.4377  142.2931  162.0043 H   0  0  0  0  0  0  0  0  0  0  0  0
  153.6647  143.5166  161.6773 H   0  0  0  0  0  0  0  0  0  0  0  0
  154.0062  141.8311  161.3526 H   0  0  0  0  0  0  0  0  0  0  0  0
  153.4988  143.1017  159.2532 H   0  0  0  0  0  0  0  0  0  0  0  0
  153.0920  140.6734  159.3600 H   0  0  0  0  0  0  0  0  0  0  0  0
  151.4836  140.9360  159.9853 H   0  0  0  0  0  0  0  0  0  0  0  0
  152.5066  141.7578  157.2275 H   0  0  0  0  0  0  0  0  0  0  0  0
  151.3963  140.4555  157.5808 H   0  0  0  0  0  0  0  0  0  0  0  0
  149.7129  142.0884  158.4403 H   0  0  0  0  0  0  0  0  0  0  0  0
  149.4233  143.3744  156.3912 H   0  0  0  0  0  0  0  0  0  0  0  0
  149.7812  140.4963  156.1573 H   0  0  0  0  0  0  0  0  0  0  0  0
  148.2916  141.3722  156.4596 H   0  0  0  0  0  0  0  0  0  0  0  0
  149.9693  141.4955  153.8972 H   0  0  0  0  0  0  0  0  0  0  0  0
  148.5629  143.3441  154.8319 H   0  0  0  0  0  0  0  0  0  0  0  0
  146.7580  141.5414  152.8004 H   0  0  0  0  0  0  0  0  0  0  0  0
  145.4592  139.5549  152.0161 H   0  0  0  0  0  0  0  0  0  0  0  0
  147.9554  136.9298  154.0048 H   0  0  0  0  0  0  0  0  0  0  0  0
  149.3748  138.7902  154.8838 H   0  0  0  0  0  0  0  0  0  0  0  0
  151.7343  144.2381  157.6772 H   0  0  0  0  0  0  0  0  0  0  0  0
  150.1233  144.5084  158.2940 H   0  0  0  0  0  0  0  0  0  0  0  0
  150.7022  143.4092  160.4210 H   0  0  0  0  0  0  0  0  0  0  0  0
  152.7642  145.5484  159.7014 H   0  0  0  0  0  0  0  0  0  0  0  0
  152.1473  145.1868  161.3130 H   0  0  0  0  0  0  0  0  0  0  0  0
  151.0817  145.8721  160.1063 H   0  0  0  0  0  0  0  0  0  0  0  0
  150.8129  142.7328  155.8064 H   0  0  0  0  0  0  0  0  0  0  0  0
  1  2  1  0  0  0  0
  1 19  1  0  0  0  0
  1 20  1  0  0  0  0
  1 21  1  0  0  0  0
  2 17  1  0  0  0  0
  2  3  1  0  0  0  0
  2 22  1  0  0  0  0
  3  4  1  0  0  0  0
  3 23  1  0  0  0  0
  3 24  1  0  0  0  0
  4  5  1  0  0  0  0
  4 25  1  0  0  0  0
  4 26  1  0  0  0  0
  5  6  1  0  0  0  0
  5 16  1  0  0  0  0
  5 27  1  0  0  0  0
  6  7  1  0  0  0  0
  6 28  1  0  0  0  0
  6 43  1  0  0  0  0
  7  8  1  0  0  0  0
  7 29  1  0  0  0  0
  7 30  1  0  0  0  0
  8  9  1  0  0  0  0
  8 10  1  0  0  0  0
  8 31  1  0  0  0  0
  9 32  1  0  0  0  0
 10 15  1  0  0  0  0
 10 11  2  0  0  0  0
 11 12  1  0  0  0  0
 11 33  1  0  0  0  0
 12 13  2  0  0  0  0
 12 34  1  0  0  0  0
 13 14  1  0  0  0  0
 14 15  2  0  0  0  0
 14 35  1  0  0  0  0
 15 36  1  0  0  0  0
 16 17  1  0  0  0  0
 16 37  1  0  0  0  0
 16 38  1  0  0  0  0
 17 18  1  0  0  0  0
 17 39  1  0  0  0  0
 18 40  1  0  0  0  0
 18 41  1  0  0  0  0
 18 42  1  0  0  0  0
M  CHG  1   6   1
M  END
> <s_m_source_file>
AV-unprocessed.smi

> <i_m_source_file_index>
3287

> <i_lp_mmshare_version>
43012

> <i_f3d_flags>
0

> <s_epik_input>
W0NIM11bQ0BASF0xW0NIMl1bQ0gyXVtDQEhdKFtDSDJdW0NASF0xW0NIM10pW05IXVtDSDJdW0NASF0oW09IXSljMltjSF1bY0hdbltjSF1bY0hdMg==

> <s_epik_cmdline>
J2VwaWtfcHl0aG9uJywgJy1waCcsICc3LjAnLCAnLXRuJywgJzgnLCAnLW1hJywgJzIwMCcsICctbWV0YWxfYmluZGluZycsICctaW1hZScsICc8aW5maWxlLm1hZT4nLCAnLW9tYWUnLCAnPG91dGZpbGUubWFlPic=

> <r_lp_tautomer_probability>
1

> <r_epik_Ionization_Penalty>
0.00537262

> <r_epik_Ionization_Penalty_Charging>
0.00321624

> <r_epik_Ionization_Penalty_Neutral>
0.00215638

> <r_epik_State_Penalty>
-0

> <r_epik_Charging_Adjusted_Penalty>
0.00321624

> <i_epik_Tot_Q>
1

> <i_epik_Tot_abs_Q>
1

> <r_epik_Metal_State_Penalty>
-0

> <b_epik_Metal_Only>
0

> <s_lp_Force_Field>
OPLS_2005

> <r_lp_Energy>
15.7848

> <b_lp_Chiralities_Consistent>
1

> <s_lp_Variant>
AV-unprocessed.smi:3287-12

> <Gold.Version>
5.8.1

> <Gold.Id.Protein>
6NUR|6NUR_protein|mol2

> <Gold.PLP.Fitness>
49.6260

> <Gold.PLP.PLP>
-36.6794

> <Gold.PLP.part.hbond>
-3.9948

> <Gold.PLP.part.metal>
0.0000

> <Gold.PLP.part.buried>
2.9789

> <Gold.PLP.part.nonpolar>
-35.8399

> <Gold.PLP.part.repulsive>
0.4075

> <Gold.PLP.ligand.clash>
0.0000

> <Gold.PLP.ligand.torsion>
0.3219

> <Gold.PLP.Chemscore.Hbond>
3.0000

> <Gold.PLP.Chemscore.CHOScore>
1.5257

> <Gold.PLP.Chemscore.Metal>
0.0000

> <Gold.Chemscore.Hbonds>
donor molecule, donor type, donor heavy atom, donor atom, acceptor molecule, acceptor atom, score
      L1  H     6    28       P1  8028  2.00
      L1  H     9    32       P1  8028  1.00
      L1  C    12    34       P1 10171  0.18
      L1  C    12    34       P1 10175  0.98
      L1  C    14    35       P1  7948  0.39

> <Gold.PLP.Chemscore.Internal.Correction>
0.0133

> <Gold.Rescore>
     Score         DG    S(hbond)    S(metal)    S(lipo)     H(rot)  DE(clash)    DE(int)     intcor
     19.50     -21.69       1.99        0.00     123.37       1.90       1.80       0.39       ----

> <Gold.Chemscore.Fitness>
19.5030

> <Gold.Chemscore.DG>
-21.6875

> <Gold.Chemscore.ZeroCoef>
-5.4800

> <Gold.Chemscore.Hbond>
1.9900

> <Gold.Chemscore.Metal>
0.0000

> <Gold.Chemscore.Lipo>
123.3651

> <Gold.Chemscore.Internal_Hbond>
0.0000

> <Gold.Chemscore.DEClash>
1.7966

> <Gold.Chemscore.DEInternal>
0.3878

> <Gold.Chemscore.Rot>
1.9035

> <Gold.Chemscore.Internal.Correction>
   9.000000E+99

> <Gold.Chemscore.Hbonds>
donor molecule, donor type, donor heavy atom, donor atom, acceptor molecule, acceptor atom, score
      L1  H     6    28       P1  8028  0.95
      L1  H     9    32       P1  8028  0.98

> <Gold.Chemscore.Hbond.Weighted>
-6.6466

> <Gold.Chemscore.Metal.Weighted>
-0.0000

> <Gold.Chemscore.Lipo.Weighted>
-14.4337

> <Gold.Chemscore.Internal_Hbond.Weighted>
0.0000

> <Gold.Chemscore.DEClash.Weighted>
1.7966

> <Gold.Chemscore.DEInternal.Weighted>
0.3878

> <Gold.Chemscore.Rot.Weighted>
4.8729

> <Gold.Chemscore.Internal.Correction.Weighted>
   9.000000E+99

> <Gold.Protein.RotatedTorsions>
[ 6907 6896 6895 6894 ] final  -52.53 input  -60.11 | X-H torsion
[ 7974 7965 7964 7962 ] final  -55.82 input  175.53 | X-H torsion
[ 8008 7997 7996 7995 ] final  155.99 input   59.86 | X-H torsion
[ 10167 10162 10161 10158 ] final  -93.73 input  -65.29 | X-H torsion
[ 10718 10713 10712 10709 ] final   35.22 input   66.30 | X-H torsion
[ 10763 10752 10751 10750 ] final  -80.80 input  -60.55 | X-H torsion
[ 11005 11000 10999 10996 ] final  159.37 input  -57.11 | X-H torsion

> <Gold.Protein.ActiveResidues>
 VAL166  LYS551  ARG553  GLY616  TRP617  ASP618  TYR619  PRO620  LYS621  CYS622 
 ASP623  PHE694  ASN695  SER759  ASP760  ASP761  ALA762  ILE779  LEU786  VAL792 
 PHE793  MET794  SER795  GLU796  ALA797  LYS798  CYS799  TRP800  GLU811  SER814 

> <Gold.Protein.RotatedAtoms>
  150.8509  134.7833  159.7007 H   0  0  0  0  0  0  0  0  0  0  0  0  # atno 6907 bound_to 6896
  152.4574  134.5258  159.9806 H   0  0  0  0  0  0  0  0  0  0  0  0  # atno 6908 bound_to 6896
  151.5379  133.3400  159.2966 H   0  0  0  0  0  0  0  0  0  0  0  0  # atno 6909 bound_to 6896
  145.8698  140.8224  142.9894 H   0  0  0  0  0  0  0  0  0  0  0  0  # atno 7974 bound_to 7965
  156.2448  140.1924  156.6886 H   0  0  0  0  0  0  0  0  0  0  0  0  # atno 8008 bound_to 7997
  154.6268  140.0601  156.9710 H   0  0  0  0  0  0  0  0  0  0  0  0  # atno 8009 bound_to 7997
  155.1773  140.3273  155.4384 H   0  0  0  0  0  0  0  0  0  0  0  0  # atno 8010 bound_to 7997
  140.3217  143.3045  152.0039 H   0  0  0  0  0  0  0  0  0  0  0  0  # atno 10167 bound_to 10162
  157.3199  130.7443  149.6778 H   0  0  0  0  0  0  0  0  0  0  0  0  # atno 10718 bound_to 10713
  154.5557  135.5648  153.6962 H   0  0  0  0  0  0  0  0  0  0  0  0  # atno 10763 bound_to 10752
  153.0003  135.6261  154.2313 H   0  0  0  0  0  0  0  0  0  0  0  0  # atno 10764 bound_to 10752
  154.2249  135.2868  155.2891 H   0  0  0  0  0  0  0  0  0  0  0  0  # atno 10765 bound_to 10752
  140.1955  134.8376  157.2960 H   0  0  0  0  0  0  0  0  0  0  0  0  # atno 11005 bound_to 11000
  144.6726  140.1221  143.7449 LP  0  0  0  0  0  0  0  0  0  0  0  0  # atno 17320 bound_to 7965
  145.9150  139.2510  143.1415 LP  0  0  0  0  0  0  0  0  0  0  0  0  # atno 17321 bound_to 7965
  139.4873  144.6306  151.7078 LP  0  0  0  0  0  0  0  0  0  0  0  0  # atno 17342 bound_to 10162
  140.5477  144.0476  150.6114 LP  0  0  0  0  0  0  0  0  0  0  0  0  # atno 17343 bound_to 10162
  155.9685  130.4226  150.4524 LP  0  0  0  0  0  0  0  0  0  0  0  0  # atno 17370 bound_to 10713
  157.2537  131.0552  151.2363 LP  0  0  0  0  0  0  0  0  0  0  0  0  # atno 17371 bound_to 10713
  140.2112  134.4137  155.7612 LP  0  0  0  0  0  0  0  0  0  0  0  0  # atno 17394 bound_to 11000
  141.2227  133.7119  156.8340 LP  0  0  0  0  0  0  0  0  0  0  0  0  # atno 17395 bound_to 11000

$$$$
