AV-unprocessed.smi:266|AV-procd|sdf|2031|dock5
  -GOLD-   2262021233D 1   1.00000     0.00000
 Structure written by MMmdl.
 52 55  0  0  0  0  0  0  0  0  1 V2000
  153.8843  132.5102  157.4110 C   0  0  0  0  0  0  0  0  0  0  0  0
  154.9098  133.6325  157.6347 C   0  0  2  0  0  0  0  0  0  0  0  0
  155.5109  133.4227  158.9098 O   0  0  0  0  0  0  0  0  0  0  0  0
  155.8894  134.6770  159.4486 C   0  0  0  0  0  0  0  0  0  0  0  0
  154.7124  135.5625  159.0702 C   0  0  0  0  0  0  0  0  0  0  0  0
  154.3641  135.0889  157.6608 C   0  0  1  0  0  0  0  0  0  0  0  0
  155.1348  135.8519  156.7468 O   0  0  0  0  0  0  0  0  0  0  0  0
  152.8679  135.2758  157.2937 C   0  0  0  0  0  0  0  0  0  0  0  0
  152.4437  136.6677  157.3109 N   0  0  0  0  0  0  0  0  0  0  0  0
  152.3917  137.5017  158.4037 C   0  0  0  0  0  0  0  0  0  0  0  0
  151.9554  138.7066  158.1612 N   0  0  0  0  0  0  0  0  0  0  0  0
  151.6850  138.7096  156.7970 C   0  0  0  0  0  0  0  0  0  0  0  0
  151.1741  139.6764  155.8805 C   0  0  0  0  0  0  0  0  0  0  0  0
  150.7527  140.9198  156.2410 N   0  0  0  0  0  0  0  0  0  0  0  0
  149.8965  141.6510  155.3102 C   0  0  0  0  0  0  0  0  0  0  0  0
  150.5943  141.2121  157.6670 C   0  0  0  0  0  0  0  0  0  0  0  0
  151.3467  142.4794  158.1288 C   0  0  2  0  0  0  0  0  0  0  0  0
  152.5928  142.1261  158.9643 C   0  0  0  0  0  0  0  0  0  0  0  0
  153.1313  143.4051  159.6117 C   0  0  0  0  0  0  0  0  0  0  0  0
  151.6540  144.4103  160.0052 S   0  0  0  0  0  0  0  0  0  0  0  0
  151.2982  144.2261  161.4203 O   0  0  0  0  0  0  0  0  0  0  0  0
  151.8221  145.7553  159.4346 O   0  0  0  0  0  0  0  0  0  0  0  0
  150.4903  143.4440  158.9712 C   0  0  0  0  0  0  0  0  0  0  0  0
  151.0859  139.3037  154.5748 N   0  0  0  0  0  0  0  0  0  0  0  0
  151.4412  138.0750  154.1910 C   0  0  0  0  0  0  0  0  0  0  0  0
  151.9037  137.0712  154.9363 N   0  0  0  0  0  0  0  0  0  0  0  0
  152.0126  137.4376  156.2448 C   0  0  0  0  0  0  0  0  0  0  0  0
  153.3889  132.6097  156.4451 H   0  0  0  0  0  0  0  0  0  0  0  0
  153.1206  132.5040  158.1890 H   0  0  0  0  0  0  0  0  0  0  0  0
  154.3724  131.5355  157.4279 H   0  0  0  0  0  0  0  0  0  0  0  0
  155.6949  133.5339  156.8825 H   0  0  0  0  0  0  0  0  0  0  0  0
  156.0489  134.6222  160.5256 H   0  0  0  0  0  0  0  0  0  0  0  0
  156.8109  135.0215  158.9768 H   0  0  0  0  0  0  0  0  0  0  0  0
  153.8873  135.3521  159.7516 H   0  0  0  0  0  0  0  0  0  0  0  0
  154.9353  136.6287  159.1374 H   0  0  0  0  0  0  0  0  0  0  0  0
  156.0348  135.5697  156.8050 H   0  0  0  0  0  0  0  0  0  0  0  0
  152.6610  134.8670  156.3037 H   0  0  0  0  0  0  0  0  0  0  0  0
  152.2324  134.7308  157.9915 H   0  0  0  0  0  0  0  0  0  0  0  0
  152.6797  137.1833  159.3951 H   0  0  0  0  0  0  0  0  0  0  0  0
  150.3259  141.6553  154.3077 H   0  0  0  0  0  0  0  0  0  0  0  0
  149.7840  142.6886  155.6254 H   0  0  0  0  0  0  0  0  0  0  0  0
  148.9033  141.2033  155.2607 H   0  0  0  0  0  0  0  0  0  0  0  0
  149.5474  141.2702  157.9549 H   0  0  0  0  0  0  0  0  0  0  0  0
  150.9863  140.3548  158.2151 H   0  0  0  0  0  0  0  0  0  0  0  0
  151.6998  143.0237  157.2519 H   0  0  0  0  0  0  0  0  0  0  0  0
  152.3093  141.4261  159.7516 H   0  0  0  0  0  0  0  0  0  0  0  0
  153.3572  141.6351  158.3615 H   0  0  0  0  0  0  0  0  0  0  0  0
  153.7143  143.2182  160.5138 H   0  0  0  0  0  0  0  0  0  0  0  0
  153.7445  143.9669  158.9070 H   0  0  0  0  0  0  0  0  0  0  0  0
  149.8873  144.1191  158.3641 H   0  0  0  0  0  0  0  0  0  0  0  0
  149.8283  142.8986  159.6441 H   0  0  0  0  0  0  0  0  0  0  0  0
  151.3321  137.8640  153.1375 H   0  0  0  0  0  0  0  0  0  0  0  0
  1  2  1  0  0  0  0
  1 28  1  0  0  0  0
  1 29  1  0  0  0  0
  1 30  1  0  0  0  0
  2  6  1  0  0  0  0
  2  3  1  0  0  0  0
  2 31  1  0  0  0  0
  3  4  1  0  0  0  0
  4  5  1  0  0  0  0
  4 32  1  0  0  0  0
  4 33  1  0  0  0  0
  5  6  1  0  0  0  0
  5 34  1  0  0  0  0
  5 35  1  0  0  0  0
  6  7  1  0  0  0  0
  6  8  1  0  0  0  0
  7 36  1  0  0  0  0
  8  9  1  0  0  0  0
  8 37  1  0  0  0  0
  8 38  1  0  0  0  0
  9 27  1  0  0  0  0
  9 10  1  0  0  0  0
 10 11  2  0  0  0  0
 10 39  1  0  0  0  0
 11 12  1  0  0  0  0
 12 27  2  0  0  0  0
 12 13  1  0  0  0  0
 13 14  1  0  0  0  0
 13 24  2  0  0  0  0
 14 15  1  0  0  0  0
 14 16  1  0  0  0  0
 15 40  1  0  0  0  0
 15 41  1  0  0  0  0
 15 42  1  0  0  0  0
 16 17  1  0  0  0  0
 16 43  1  0  0  0  0
 16 44  1  0  0  0  0
 17 23  1  0  0  0  0
 17 18  1  0  0  0  0
 17 45  1  0  0  0  0
 18 19  1  0  0  0  0
 18 46  1  0  0  0  0
 18 47  1  0  0  0  0
 19 20  1  0  0  0  0
 19 48  1  0  0  0  0
 19 49  1  0  0  0  0
 20 21  2  0  0  0  0
 20 22  2  0  0  0  0
 20 23  1  0  0  0  0
 23 50  1  0  0  0  0
 23 51  1  0  0  0  0
 24 25  1  0  0  0  0
 25 26  2  0  0  0  0
 25 52  1  0  0  0  0
 26 27  1  0  0  0  0
M  END
> <s_m_source_file>
AV-unprocessed.smi

> <i_m_source_file_index>
266

> <i_lp_mmshare_version>
43012

> <i_f3d_flags>
0

> <s_epik_input>
W0NIMl0xW0NIMl1PW0NAQEhdKFtDSDNdKVtDQEBdMShbT0hdKVtDSDJdbihbY0hdbjIpYyhjMjMpbltjSF1uYzNOKFtDSDNdKVtDSDJdW0NAQEhdKFtDSDJdNClbQ0gyXVtDSDJdUzQoPU8pPU8=

> <s_epik_cmdline>
J2VwaWtfcHl0aG9uJywgJy1waCcsICc3LjAnLCAnLXRuJywgJzgnLCAnLW1hJywgJzIwMCcsICctbWV0YWxfYmluZGluZycsICctaW1hZScsICc8aW5maWxlLm1hZT4nLCAnLW9tYWUnLCAnPG91dGZpbGUubWFlPic=

> <r_lp_tautomer_probability>
1

> <r_epik_Ionization_Penalty>
0.00155497

> <r_epik_Ionization_Penalty_Charging>
0

> <r_epik_Ionization_Penalty_Neutral>
0.00155497

> <r_epik_State_Penalty>
-0

> <r_epik_Charging_Adjusted_Penalty>
0

> <i_epik_Tot_Q>
0

> <i_epik_Tot_abs_Q>
0

> <r_epik_Metal_State_Penalty>
-0

> <b_epik_Metal_Only>
0

> <s_lp_Force_Field>
OPLS_2005

> <r_lp_Energy>
29.5809

> <b_lp_Chiralities_Consistent>
1

> <s_lp_Variant>
AV-unprocessed.smi:266-1

> <Gold.Version>
5.8.1

> <Gold.Id.Protein>
6NUR|6NUR_protein|mol2

> <Gold.PLP.Fitness>
47.8193

> <Gold.PLP.PLP>
-37.1674

> <Gold.PLP.part.hbond>
-4.0000

> <Gold.PLP.part.metal>
0.0000

> <Gold.PLP.part.buried>
-5.4451

> <Gold.PLP.part.nonpolar>
-29.4445

> <Gold.PLP.part.repulsive>
1.1681

> <Gold.PLP.ligand.clash>
0.0000

> <Gold.PLP.ligand.torsion>
0.9772

> <Gold.PLP.Chemscore.Hbond>
3.0000

> <Gold.PLP.Chemscore.CHOScore>
1.0000

> <Gold.PLP.Chemscore.Metal>
0.0000

> <Gold.Chemscore.Hbonds>
donor molecule, donor type, donor heavy atom, donor atom, acceptor molecule, acceptor atom, score
      P1  H  7989  7998       L1    24  1.00
      P1  H 10752 10763       L1     7  1.00
      P1  H 10752 10765       L1    26  1.00
      L1  C    25    52       P1  7949  1.00

> <Gold.PLP.Chemscore.Internal.Correction>
0.6063

> <Gold.Rescore>
     Score         DG    S(hbond)    S(metal)    S(lipo)     H(rot)  DE(clash)    DE(int)     intcor
     11.74     -14.09       1.80        0.00      75.68       2.45       0.19       2.16       ----

> <Gold.Chemscore.Fitness>
11.7430

> <Gold.Chemscore.DG>
-14.0936

> <Gold.Chemscore.ZeroCoef>
-5.4800

> <Gold.Chemscore.Hbond>
1.8035

> <Gold.Chemscore.Metal>
0.0000

> <Gold.Chemscore.Lipo>
75.6797

> <Gold.Chemscore.Internal_Hbond>
0.0000

> <Gold.Chemscore.DEClash>
0.1908

> <Gold.Chemscore.DEInternal>
2.1597

> <Gold.Chemscore.Rot>
2.4471

> <Gold.Chemscore.Internal.Correction>
   9.000000E+99

> <Gold.Chemscore.Hbonds>
donor molecule, donor type, donor heavy atom, donor atom, acceptor molecule, acceptor atom, score
      P1  H  7989  7998       L1    24  0.57
      P1  H 10752 10763       L1     7  0.21
      P1  H 10752 10765       L1    26  0.75

> <Gold.Chemscore.Hbond.Weighted>
-6.0236

> <Gold.Chemscore.Metal.Weighted>
-0.0000

> <Gold.Chemscore.Lipo.Weighted>
-8.8545

> <Gold.Chemscore.Internal_Hbond.Weighted>
0.0000

> <Gold.Chemscore.DEClash.Weighted>
0.1908

> <Gold.Chemscore.DEInternal.Weighted>
2.1597

> <Gold.Chemscore.Rot.Weighted>
6.2645

> <Gold.Chemscore.Internal.Correction.Weighted>
   9.000000E+99

> <Gold.Protein.RotatedTorsions>
[ 6907 6896 6895 6894 ] final  -45.77 input  -60.11 | X-H torsion
[ 7974 7965 7964 7962 ] final  109.10 input  175.53 | X-H torsion
[ 8008 7997 7996 7995 ] final   12.70 input   59.86 | X-H torsion
[ 10167 10162 10161 10158 ] final   18.14 input  -65.29 | X-H torsion
[ 10718 10713 10712 10709 ] final  -24.30 input   66.30 | X-H torsion
[ 10763 10752 10751 10750 ] final  178.47 input  -60.55 | X-H torsion
[ 11005 11000 10999 10996 ] final -102.07 input  -57.11 | X-H torsion

> <Gold.Protein.ActiveResidues>
 VAL166  LYS551  ARG553  GLY616  TRP617  ASP618  TYR619  PRO620  LYS621  CYS622 
 ASP623  PHE694  ASN695  SER759  ASP760  ASP761  ALA762  ILE779  LEU786  VAL792 
 PHE793  MET794  SER795  GLU796  ALA797  LYS798  CYS799  TRP800  GLU811  SER814 

> <Gold.Protein.RotatedAtoms>
  150.9184  134.8601  159.7471 H   0  0  0  0  0  0  0  0  0  0  0  0  # atno 6907 bound_to 6896
  152.4980  134.4255  159.9505 H   0  0  0  0  0  0  0  0  0  0  0  0  # atno 6908 bound_to 6896
  151.4291  133.3636  159.2801 H   0  0  0  0  0  0  0  0  0  0  0  0  # atno 6909 bound_to 6896
  145.2722  139.2662  143.3960 H   0  0  0  0  0  0  0  0  0  0  0  0  # atno 7974 bound_to 7965
  154.8243  140.2889  155.5765 H   0  0  0  0  0  0  0  0  0  0  0  0  # atno 8008 bound_to 7997
  156.3000  140.2544  156.3087 H   0  0  0  0  0  0  0  0  0  0  0  0  # atno 8009 bound_to 7997
  154.9303  140.0383  157.2034 H   0  0  0  0  0  0  0  0  0  0  0  0  # atno 8010 bound_to 7997
  140.5675  143.9224  150.6687 H   0  0  0  0  0  0  0  0  0  0  0  0  # atno 10167 bound_to 10162
  156.4795  130.4542  149.6820 H   0  0  0  0  0  0  0  0  0  0  0  0  # atno 10718 bound_to 10713
  154.5081  135.2787  155.1365 H   0  0  0  0  0  0  0  0  0  0  0  0  # atno 10763 bound_to 10752
  154.2971  135.6255  153.5413 H   0  0  0  0  0  0  0  0  0  0  0  0  # atno 10764 bound_to 10752
  152.9914  135.5688  154.5540 H   0  0  0  0  0  0  0  0  0  0  0  0  # atno 10765 bound_to 10752
  141.1205  133.8528  157.1312 H   0  0  0  0  0  0  0  0  0  0  0  0  # atno 11005 bound_to 11000
  146.3243  140.3167  142.8630 LP  0  0  0  0  0  0  0  0  0  0  0  0  # atno 17320 bound_to 7965
  144.9325  140.7991  143.5680 LP  0  0  0  0  0  0  0  0  0  0  0  0  # atno 17321 bound_to 7965
  140.2691  143.3469  152.1254 LP  0  0  0  0  0  0  0  0  0  0  0  0  # atno 17342 bound_to 10162
  139.5100  144.6877  151.5844 LP  0  0  0  0  0  0  0  0  0  0  0  0  # atno 17343 bound_to 10162
  156.3536  130.7445  151.2407 LP  0  0  0  0  0  0  0  0  0  0  0  0  # atno 17370 bound_to 10713
  157.7484  131.0370  150.4436 LP  0  0  0  0  0  0  0  0  0  0  0  0  # atno 17371 bound_to 10713
  140.0158  134.9968  157.0490 LP  0  0  0  0  0  0  0  0  0  0  0  0  # atno 17394 bound_to 11000
  140.4522  134.1570  155.7182 LP  0  0  0  0  0  0  0  0  0  0  0  0  # atno 17395 bound_to 11000

$$$$
