AV-unprocessed.smi:1667|AV-procd|sdf|6674|dock9
  -GOLD-   22720 7383D 1   1.00000     0.00000
 Structure written by MMmdl.
 45 47  0  0  0  0  0  0  0  0  1 V2000
  153.4705  136.3116  158.0901 C   0  0  0  0  0  0  0  0  0  0  0  0
  153.2009  137.6053  157.3297 C   0  0  0  0  0  0  0  0  0  0  0  0
  154.1181  138.4004  157.1315 O   0  0  0  0  0  0  0  0  0  0  0  0
  151.9339  137.7898  156.9189 N   0  0  0  0  0  0  0  0  0  0  0  0
  151.3594  138.9155  156.1712 C   0  0  2  0  0  0  0  0  0  0  0  0
  151.8182  139.0017  154.7039 C   0  0  0  0  0  0  0  0  0  0  0  0
  151.5561  140.2107  156.9265 C   0  0  0  0  0  0  0  0  0  0  0  0
  152.2469  140.2795  158.0683 N   0  0  0  0  0  0  0  0  0  0  0  0
  152.1828  141.6180  158.3948 C   0  0  0  0  0  0  0  0  0  0  0  0
  152.7123  142.3207  159.5005 C   0  0  0  0  0  0  0  0  0  0  0  0
  152.5147  143.7118  159.6228 C   0  0  0  0  0  0  0  0  0  0  0  0
  151.7875  144.4179  158.6425 C   0  0  0  0  0  0  0  0  0  0  0  0
  151.2528  143.7358  157.5327 C   0  0  0  0  0  0  0  0  0  0  0  0
  151.4526  142.3468  157.4164 C   0  0  0  0  0  0  0  0  0  0  0  0
  151.0720  141.3986  156.4722 N   0  0  0  0  0  0  0  0  0  0  0  0
  150.3096  141.6789  155.2615 C   0  0  0  0  0  0  0  0  0  0  0  0
  149.0846  140.7552  155.1036 C   0  0  2  0  0  0  0  0  0  0  0  0
  149.1394  140.0658  153.8688 O   0  0  0  0  0  0  0  0  0  0  0  0
  147.7870  141.5295  155.2740 C   0  0  0  0  0  0  0  0  0  0  0  0
  147.0892  141.4747  156.4998 C   0  0  0  0  0  0  0  0  0  0  0  0
  145.8909  142.1961  156.6676 C   0  0  0  0  0  0  0  0  0  0  0  0
  145.3845  142.9775  155.6113 C   0  0  0  0  0  0  0  0  0  0  0  0
  146.0780  143.0395  154.3877 C   0  0  0  0  0  0  0  0  0  0  0  0
  145.5937  143.7931  153.3725 F   0  0  0  0  0  0  0  0  0  0  0  0
  147.2768  142.3196  154.2199 C   0  0  0  0  0  0  0  0  0  0  0  0
  150.2987  138.6757  156.1529 H   0  0  0  0  0  0  0  0  0  0  0  0
  153.3162  135.4500  157.4398 H   0  0  0  0  0  0  0  0  0  0  0  0
  152.8002  136.2250  158.9457 H   0  0  0  0  0  0  0  0  0  0  0  0
  154.4968  136.2836  158.4573 H   0  0  0  0  0  0  0  0  0  0  0  0
  151.2789  137.0596  157.1576 H   0  0  0  0  0  0  0  0  0  0  0  0
  151.2341  139.7469  154.1635 H   0  0  0  0  0  0  0  0  0  0  0  0
  151.6874  138.0476  154.1928 H   0  0  0  0  0  0  0  0  0  0  0  0
  152.8653  139.2917  154.6168 H   0  0  0  0  0  0  0  0  0  0  0  0
  153.2711  141.7880  160.2557 H   0  0  0  0  0  0  0  0  0  0  0  0
  152.9231  144.2392  160.4724 H   0  0  0  0  0  0  0  0  0  0  0  0
  151.6410  145.4833  158.7429 H   0  0  0  0  0  0  0  0  0  0  0  0
  150.6956  144.2739  156.7803 H   0  0  0  0  0  0  0  0  0  0  0  0
  149.9780  142.7170  155.3082 H   0  0  0  0  0  0  0  0  0  0  0  0
  150.9626  141.6253  154.3912 H   0  0  0  0  0  0  0  0  0  0  0  0
  149.1263  139.9904  155.8804 H   0  0  0  0  0  0  0  0  0  0  0  0
  149.7618  140.5048  153.3090 H   0  0  0  0  0  0  0  0  0  0  0  0
  147.4712  140.8804  157.3169 H   0  0  0  0  0  0  0  0  0  0  0  0
  145.3598  142.1507  157.6069 H   0  0  0  0  0  0  0  0  0  0  0  0
  144.4657  143.5305  155.7402 H   0  0  0  0  0  0  0  0  0  0  0  0
  147.8046  142.3779  153.2793 H   0  0  0  0  0  0  0  0  0  0  0  0
  1  2  1  0  0  0  0
  1 27  1  0  0  0  0
  1 28  1  0  0  0  0
  1 29  1  0  0  0  0
  2  3  2  0  0  0  0
  2  4  1  0  0  0  0
  4  5  1  0  0  0  0
  4 30  1  0  0  0  0
  5 26  1  0  0  0  0
  5  6  1  0  0  0  0
  5  7  1  0  0  0  0
  6 31  1  0  0  0  0
  6 32  1  0  0  0  0
  6 33  1  0  0  0  0
  7 15  1  0  0  0  0
  7  8  2  0  0  0  0
  8  9  1  0  0  0  0
  9 14  2  0  0  0  0
  9 10  1  0  0  0  0
 10 11  2  0  0  0  0
 10 34  1  0  0  0  0
 11 12  1  0  0  0  0
 11 35  1  0  0  0  0
 12 13  2  0  0  0  0
 12 36  1  0  0  0  0
 13 14  1  0  0  0  0
 13 37  1  0  0  0  0
 14 15  1  0  0  0  0
 15 16  1  0  0  0  0
 16 17  1  0  0  0  0
 16 38  1  0  0  0  0
 16 39  1  0  0  0  0
 17 18  1  0  0  0  0
 17 19  1  0  0  0  0
 17 40  1  0  0  0  0
 18 41  1  0  0  0  0
 19 25  1  0  0  0  0
 19 20  2  0  0  0  0
 20 21  1  0  0  0  0
 20 42  1  0  0  0  0
 21 22  2  0  0  0  0
 21 43  1  0  0  0  0
 22 23  1  0  0  0  0
 22 44  1  0  0  0  0
 23 24  1  0  0  0  0
 23 25  2  0  0  0  0
 25 45  1  0  0  0  0
M  END
> <s_m_source_file>
AV-unprocessed.smi

> <i_m_source_file_index>
1667

> <i_lp_mmshare_version>
43012

> <i_f3d_flags>
0

> <s_epik_input>
W0NIM11DKD1PKVtOSF1bQ0BASF0oW0NIM10pYyhuMSluKGMoYzEyKVtjSF1bY0hdW2NIXVtjSF0yKVtDSDJdW0NASF0oW09IXSljM1tjSF1bY0hdW2NIXWMoRilbY0hdMw==

> <s_epik_cmdline>
J2VwaWtfcHl0aG9uJywgJy1waCcsICc3LjAnLCAnLXRuJywgJzgnLCAnLW1hJywgJzIwMCcsICctbWV0YWxfYmluZGluZycsICctaW1hZScsICc8aW5maWxlLm1hZT4nLCAnLW9tYWUnLCAnPG91dGZpbGUubWFlPic=

> <r_epik_Ionization_Penalty>
0.133011

> <r_epik_Ionization_Penalty_Charging>
0

> <r_epik_Ionization_Penalty_Neutral>
0.133011

> <r_epik_State_Penalty>
0.122384

> <r_epik_Charging_Adjusted_Penalty>
0.122384

> <i_epik_Tot_Q>
0

> <i_epik_Tot_abs_Q>
0

> <r_epik_Metal_State_Penalty>
0.0997374

> <b_epik_Metal_Only>
0

> <s_lp_Force_Field>
OPLS_2005

> <r_lp_Energy>
10.1709

> <b_lp_Chiralities_Consistent>
1

> <s_lp_Variant>
AV-unprocessed.smi:1667-2

> <Gold.Version>
5.8.1

> <Gold.Id.Protein>
6NUR|6NUR_protein|mol2

> <Gold.PLP.Fitness>
49.0007

> <Gold.PLP.PLP>
-48.8688

> <Gold.PLP.part.hbond>
-1.8286

> <Gold.PLP.part.metal>
0.0000

> <Gold.PLP.part.buried>
-3.7096

> <Gold.PLP.part.nonpolar>
-42.7334

> <Gold.PLP.part.repulsive>
0.0907

> <Gold.PLP.ligand.clash>
0.0000

> <Gold.PLP.ligand.torsion>
1.3522

> <Gold.PLP.Chemscore.Hbond>
0.8791

> <Gold.PLP.Chemscore.CHOScore>
0.0000

> <Gold.PLP.Chemscore.Metal>
0.0000

> <Gold.Chemscore.Hbonds>
donor molecule, donor type, donor heavy atom, donor atom, acceptor molecule, acceptor atom, score
      L1  H    18    41       P1  7957  0.18
      P1  H  7997  8010       L1     3  0.69

> <Gold.PLP.Chemscore.Internal.Correction>
0.1990

> <Gold.Rescore>
     Score         DG    S(hbond)    S(metal)    S(lipo)     H(rot)  DE(clash)    DE(int)     intcor
     14.23     -15.80       0.76        0.00     120.64       2.48       0.35       1.22       ----

> <Gold.Chemscore.Fitness>
14.2324

> <Gold.Chemscore.DG>
-15.8038

> <Gold.Chemscore.ZeroCoef>
-5.4800

> <Gold.Chemscore.Hbond>
0.7629

> <Gold.Chemscore.Metal>
0.0000

> <Gold.Chemscore.Lipo>
120.6356

> <Gold.Chemscore.Internal_Hbond>
0.0000

> <Gold.Chemscore.DEClash>
0.3520

> <Gold.Chemscore.DEInternal>
1.2194

> <Gold.Chemscore.Rot>
2.4760

> <Gold.Chemscore.Internal.Correction>
   9.000000E+99

> <Gold.Chemscore.Hbonds>
donor molecule, donor type, donor heavy atom, donor atom, acceptor molecule, acceptor atom, score
      L1  H    18    41       P1  7957  0.19
      P1  H  7997  8010       L1     3  0.68

> <Gold.Chemscore.Hbond.Weighted>
-2.5479

> <Gold.Chemscore.Metal.Weighted>
-0.0000

> <Gold.Chemscore.Lipo.Weighted>
-14.1144

> <Gold.Chemscore.Internal_Hbond.Weighted>
0.0000

> <Gold.Chemscore.DEClash.Weighted>
0.3520

> <Gold.Chemscore.DEInternal.Weighted>
1.2194

> <Gold.Chemscore.Rot.Weighted>
6.3385

> <Gold.Chemscore.Internal.Correction.Weighted>
   9.000000E+99

> <Gold.Protein.RotatedTorsions>
[ 6907 6896 6895 6894 ] final   14.85 input  -60.11 | X-H torsion
[ 7974 7965 7964 7962 ] final  112.68 input  175.53 | X-H torsion
[ 8008 7997 7996 7995 ] final   35.59 input   59.86 | X-H torsion
[ 10167 10162 10161 10158 ] final  101.90 input  -65.29 | X-H torsion
[ 10718 10713 10712 10709 ] final  -30.10 input   66.30 | X-H torsion
[ 10763 10752 10751 10750 ] final -118.14 input  -60.55 | X-H torsion
[ 11005 11000 10999 10996 ] final  -96.37 input  -57.11 | X-H torsion

> <Gold.Protein.ActiveResidues>
 VAL166  LYS551  ARG553  GLY616  TRP617  ASP618  TYR619  PRO620  LYS621  CYS622 
 ASP623  PHE694  ASN695  SER759  ASP760  ASP761  ALA762  ILE779  LEU786  VAL792 
 PHE793  MET794  SER795  GLU796  ALA797  LYS798  CYS799  TRP800  GLU811  SER814 

> <Gold.Protein.RotatedAtoms>
  151.8087  135.0687  160.0409 H   0  0  0  0  0  0  0  0  0  0  0  0  # atno 6907 bound_to 6896
  152.3036  133.5676  159.5643 H   0  0  0  0  0  0  0  0  0  0  0  0  # atno 6908 bound_to 6896
  150.7285  134.0171  159.3731 H   0  0  0  0  0  0  0  0  0  0  0  0  # atno 6909 bound_to 6896
  145.2265  139.2838  143.4190 H   0  0  0  0  0  0  0  0  0  0  0  0  # atno 7974 bound_to 7965
  155.1736  140.3294  155.4388 H   0  0  0  0  0  0  0  0  0  0  0  0  # atno 8008 bound_to 7997
  156.2501  140.1939  156.6788 H   0  0  0  0  0  0  0  0  0  0  0  0  # atno 8009 bound_to 7997
  154.6320  140.0581  156.9730 H   0  0  0  0  0  0  0  0  0  0  0  0  # atno 8010 bound_to 7997
  139.7397  144.7014  151.0594 H   0  0  0  0  0  0  0  0  0  0  0  0  # atno 10167 bound_to 10162
  156.4040  130.4395  149.7301 H   0  0  0  0  0  0  0  0  0  0  0  0  # atno 10718 bound_to 10713
  154.8578  135.4284  154.2091 H   0  0  0  0  0  0  0  0  0  0  0  0  # atno 10763 bound_to 10752
  153.3121  135.6976  153.7112 H   0  0  0  0  0  0  0  0  0  0  0  0  # atno 10764 bound_to 10752
  153.6201  135.3503  155.2982 H   0  0  0  0  0  0  0  0  0  0  0  0  # atno 10765 bound_to 10752
  141.1413  133.8093  157.0562 H   0  0  0  0  0  0  0  0  0  0  0  0  # atno 11005 bound_to 11000
  146.3363  140.2587  142.8601 LP  0  0  0  0  0  0  0  0  0  0  0  0  # atno 17320 bound_to 7965
  144.9716  140.8374  143.5451 LP  0  0  0  0  0  0  0  0  0  0  0  0  # atno 17321 bound_to 7965
  140.7784  143.4939  150.9857 LP  0  0  0  0  0  0  0  0  0  0  0  0  # atno 17342 bound_to 10162
  139.8628  143.7293  152.3172 LP  0  0  0  0  0  0  0  0  0  0  0  0  # atno 17343 bound_to 10162
  156.4306  130.7813  151.2833 LP  0  0  0  0  0  0  0  0  0  0  0  0  # atno 17370 bound_to 10713
  157.7505  131.0155  150.3507 LP  0  0  0  0  0  0  0  0  0  0  0  0  # atno 17371 bound_to 10713
  140.0600  134.9760  157.1288 LP  0  0  0  0  0  0  0  0  0  0  0  0  # atno 17394 bound_to 11000
  140.3862  134.2233  155.7168 LP  0  0  0  0  0  0  0  0  0  0  0  0  # atno 17395 bound_to 11000

$$$$
