AV-unprocessed.smi:2027|AV-procd|sdf|8216|dock3
  -GOLD-   2272010483D 1   1.00000     0.00000
 Structure written by MMmdl.
 50 52  0  0  0  0  0  0  0  0  2 V2000
  152.1299  144.0449  160.8881 C   0  0  0  0  0  0  0  0  0  0  0  0
  151.9664  143.1086  159.7029 C   0  0  0  0  0  0  0  0  0  0  0  0
  150.9204  143.3583  158.7858 C   0  0  0  0  0  0  0  0  0  0  0  0
  150.7955  142.4842  157.7125 C   0  0  0  0  0  0  0  0  0  0  0  0
  149.8856  142.4607  156.6532 N   0  3  0  0  0  0  0  0  0  0  0  0
  150.1619  141.4043  155.8396 C   0  0  0  0  0  0  0  0  0  0  0  0
  151.2339  140.7515  156.3644 N   0  0  0  0  0  0  0  0  0  0  0  0
  151.9343  139.5536  155.8794 C   0  0  0  0  0  0  0  0  0  0  0  0
  151.0089  138.6071  155.0878 C   0  0  1  0  0  0  0  0  0  0  0  0
  150.6653  139.1673  153.8355 O   0  0  0  0  0  0  0  0  0  0  0  0
  151.5395  137.1739  154.8573 C   0  0  0  0  0  0  0  0  0  0  0  0
  150.5243  136.1159  154.8927 N   0  0  0  0  0  0  0  0  0  0  0  0
  149.5190  136.3970  155.9141 C   0  0  0  0  0  0  0  0  0  0  0  0
  151.1054  134.7876  155.1084 C   0  0  0  0  0  0  0  0  0  0  0  0
  150.2742  133.6920  154.4956 C   0  0  0  0  0  0  0  0  0  0  0  0
  150.4800  132.2851  154.5780 C   0  0  0  0  0  0  0  0  0  0  0  0
  149.5644  131.5918  153.9205 N   0  0  0  0  0  0  0  0  0  0  0  0
  148.7491  132.5275  153.3921 N   0  0  0  0  0  0  0  0  0  0  0  0
  147.6122  132.1192  152.5953 C   0  0  0  0  0  0  0  0  0  0  0  0
  149.1537  133.8027  153.7204 C   0  0  0  0  0  0  0  0  0  0  0  0
  151.6655  141.3912  157.5330 C   0  0  0  0  0  0  0  0  0  0  0  0
  152.7034  141.1336  158.4265 C   0  0  0  0  0  0  0  0  0  0  0  0
  152.8464  142.0100  159.5253 C   0  0  0  0  0  0  0  0  0  0  0  0
  153.9689  141.7500  160.5155 C   0  0  0  0  0  0  0  0  0  0  0  0
  151.4146  144.8669  160.8489 H   0  0  0  0  0  0  0  0  0  0  0  0
  153.1309  144.4767  160.9021 H   0  0  0  0  0  0  0  0  0  0  0  0
  151.9703  143.5077  161.8233 H   0  0  0  0  0  0  0  0  0  0  0  0
  150.2476  144.1938  158.9141 H   0  0  0  0  0  0  0  0  0  0  0  0
  149.6286  141.1348  154.9393 H   0  0  0  0  0  0  0  0  0  0  0  0
  152.7885  139.8701  155.2836 H   0  0  0  0  0  0  0  0  0  0  0  0
  152.3358  139.0387  156.7528 H   0  0  0  0  0  0  0  0  0  0  0  0
  150.0762  138.5188  155.6460 H   0  0  0  0  0  0  0  0  0  0  0  0
  149.8372  138.8012  153.5644 H   0  0  0  0  0  0  0  0  0  0  0  0
  152.0949  137.1255  153.9193 H   0  0  0  0  0  0  0  0  0  0  0  0
  152.2828  136.9908  155.6352 H   0  0  0  0  0  0  0  0  0  0  0  0
  148.7338  135.6404  155.9158 H   0  0  0  0  0  0  0  0  0  0  0  0
  149.0394  137.3590  155.7300 H   0  0  0  0  0  0  0  0  0  0  0  0
  149.9654  136.4256  156.9091 H   0  0  0  0  0  0  0  0  0  0  0  0
  152.1121  134.7400  154.7011 H   0  0  0  0  0  0  0  0  0  0  0  0
  151.2383  134.6201  156.1781 H   0  0  0  0  0  0  0  0  0  0  0  0
  151.2620  131.7504  155.0965 H   0  0  0  0  0  0  0  0  0  0  0  0
  147.2217  132.9718  152.0389 H   0  0  0  0  0  0  0  0  0  0  0  0
  146.8287  131.7306  153.2464 H   0  0  0  0  0  0  0  0  0  0  0  0
  147.9101  131.3434  151.8890 H   0  0  0  0  0  0  0  0  0  0  0  0
  148.6161  134.6765  153.3824 H   0  0  0  0  0  0  0  0  0  0  0  0
  153.3792  140.3024  158.2915 H   0  0  0  0  0  0  0  0  0  0  0  0
  154.5180  140.8415  160.2660 H   0  0  0  0  0  0  0  0  0  0  0  0
  153.5725  141.6314  161.5241 H   0  0  0  0  0  0  0  0  0  0  0  0
  154.6774  142.5787  160.5155 H   0  0  0  0  0  0  0  0  0  0  0  0
  149.1324  143.1174  156.4930 H   0  0  0  0  0  0  0  0  0  0  0  0
  1  2  1  0  0  0  0
  1 25  1  0  0  0  0
  1 26  1  0  0  0  0
  1 27  1  0  0  0  0
  2 23  1  0  0  0  0
  2  3  2  0  0  0  0
  3  4  1  0  0  0  0
  3 28  1  0  0  0  0
  4 21  2  0  0  0  0
  4  5  1  0  0  0  0
  5  6  2  0  0  0  0
  5 50  1  0  0  0  0
  6  7  1  0  0  0  0
  6 29  1  0  0  0  0
  7  8  1  0  0  0  0
  7 21  1  0  0  0  0
  8  9  1  0  0  0  0
  8 30  1  0  0  0  0
  8 31  1  0  0  0  0
  9 10  1  0  0  0  0
  9 11  1  0  0  0  0
  9 32  1  0  0  0  0
 10 33  1  0  0  0  0
 11 12  1  0  0  0  0
 11 34  1  0  0  0  0
 11 35  1  0  0  0  0
 12 13  1  0  0  0  0
 12 14  1  0  0  0  0
 13 36  1  0  0  0  0
 13 37  1  0  0  0  0
 13 38  1  0  0  0  0
 14 15  1  0  0  0  0
 14 39  1  0  0  0  0
 14 40  1  0  0  0  0
 15 20  2  0  0  0  0
 15 16  1  0  0  0  0
 16 17  2  0  0  0  0
 16 41  1  0  0  0  0
 17 18  1  0  0  0  0
 18 19  1  0  0  0  0
 18 20  1  0  0  0  0
 19 42  1  0  0  0  0
 19 43  1  0  0  0  0
 19 44  1  0  0  0  0
 20 45  1  0  0  0  0
 21 22  1  0  0  0  0
 22 23  2  0  0  0  0
 22 46  1  0  0  0  0
 23 24  1  0  0  0  0
 24 47  1  0  0  0  0
 24 48  1  0  0  0  0
 24 49  1  0  0  0  0
M  CHG  1   5   1
M  END
> <s_m_source_file>
AV-unprocessed.smi

> <i_m_source_file_index>
2027

> <i_lp_mmshare_version>
43012

> <i_f3d_flags>
0

> <s_epik_input>
W0NIM11jKFtjSF0xKWMoW0NIM10pW2NIXWMoYzEyKW4oW2NIXW4yKVtDSDJdW0NASF0oW09IXSlbQ0gyXU4oW0NIM10pW0NIMl1jM1tjSF1ubihbQ0gzXSlbY0hdMw==

> <s_epik_cmdline>
J2VwaWtfcHl0aG9uJywgJy1waCcsICc3LjAnLCAnLXRuJywgJzgnLCAnLW1hJywgJzIwMCcsICctbWV0YWxfYmluZGluZycsICctaW1hZScsICc8aW5maWxlLm1hZT4nLCAnLW9tYWUnLCAnPG91dGZpbGUubWFlPic=

> <r_epik_Ionization_Penalty>
1.48134

> <r_epik_Ionization_Penalty_Charging>
1.21121

> <r_epik_Ionization_Penalty_Neutral>
0.270133

> <r_epik_State_Penalty>
1.53013

> <r_epik_Charging_Adjusted_Penalty>
2.74134

> <i_epik_Tot_Q>
1

> <i_epik_Tot_abs_Q>
1

> <r_epik_Metal_State_Penalty>
1.60443

> <b_epik_Metal_Only>
0

> <s_lp_Force_Field>
OPLS_2005

> <r_lp_Energy>
28.2554

> <b_lp_Chiralities_Consistent>
1

> <s_lp_Variant>
AV-unprocessed.smi:2027-8

> <Gold.Version>
5.8.1

> <Gold.Id.Protein>
6NUR|6NUR_protein|mol2

> <Gold.PLP.Fitness>
59.2238

> <Gold.PLP.PLP>
-49.9337

> <Gold.PLP.part.hbond>
-2.8056

> <Gold.PLP.part.metal>
0.0000

> <Gold.PLP.part.buried>
-3.2021

> <Gold.PLP.part.nonpolar>
-44.0673

> <Gold.PLP.part.repulsive>
0.2957

> <Gold.PLP.ligand.clash>
0.0000

> <Gold.PLP.ligand.torsion>
1.4193

> <Gold.PLP.Chemscore.Hbond>
3.0000

> <Gold.PLP.Chemscore.CHOScore>
1.0000

> <Gold.PLP.Chemscore.Metal>
0.0000

> <Gold.Chemscore.Hbonds>
donor molecule, donor type, donor heavy atom, donor atom, acceptor molecule, acceptor atom, score
      L1  H     5    50       P1  8028  1.54
      P1  H  7989  7998       L1    10  1.00
      L1  C    20    45       P1  7948  1.00

> <Gold.PLP.Chemscore.Internal.Correction>
0.1288

> <Gold.Rescore>
     Score         DG    S(hbond)    S(metal)    S(lipo)     H(rot)  DE(clash)    DE(int)     intcor
     18.75     -20.31       1.91        0.00     127.05       2.50       0.05       1.51       ----

> <Gold.Chemscore.Fitness>
18.7486

> <Gold.Chemscore.DG>
-20.3115

> <Gold.Chemscore.ZeroCoef>
-5.4800

> <Gold.Chemscore.Hbond>
1.9063

> <Gold.Chemscore.Metal>
0.0000

> <Gold.Chemscore.Lipo>
127.0469

> <Gold.Chemscore.Internal_Hbond>
0.0000

> <Gold.Chemscore.DEClash>
0.0545

> <Gold.Chemscore.DEInternal>
1.5084

> <Gold.Chemscore.Rot>
2.5000

> <Gold.Chemscore.Internal.Correction>
   9.000000E+99

> <Gold.Chemscore.Hbonds>
donor molecule, donor type, donor heavy atom, donor atom, acceptor molecule, acceptor atom, score
      L1  H     5    50       P1  8028  0.77
      P1  H  7989  7998       L1    10  0.81

> <Gold.Chemscore.Hbond.Weighted>
-6.3670

> <Gold.Chemscore.Metal.Weighted>
-0.0000

> <Gold.Chemscore.Lipo.Weighted>
-14.8645

> <Gold.Chemscore.Internal_Hbond.Weighted>
0.0000

> <Gold.Chemscore.DEClash.Weighted>
0.0545

> <Gold.Chemscore.DEInternal.Weighted>
1.5084

> <Gold.Chemscore.Rot.Weighted>
6.3999

> <Gold.Chemscore.Internal.Correction.Weighted>
   9.000000E+99

> <Gold.Protein.RotatedTorsions>
[ 6907 6896 6895 6894 ] final -131.24 input  -60.11 | X-H torsion
[ 7974 7965 7964 7962 ] final   12.32 input  175.53 | X-H torsion
[ 8008 7997 7996 7995 ] final  -56.55 input   59.86 | X-H torsion
[ 10167 10162 10161 10158 ] final   60.57 input  -65.29 | X-H torsion
[ 10718 10713 10712 10709 ] final  -10.84 input   66.30 | X-H torsion
[ 10763 10752 10751 10750 ] final  -58.51 input  -60.55 | X-H torsion
[ 11005 11000 10999 10996 ] final -100.30 input  -57.11 | X-H torsion

> <Gold.Protein.ActiveResidues>
 VAL166  LYS551  ARG553  GLY616  TRP617  ASP618  TYR619  PRO620  LYS621  CYS622 
 ASP623  PHE694  ASN695  SER759  ASP760  ASP761  ALA762  ILE779  LEU786  VAL792 
 PHE793  MET794  SER795  GLU796  ALA797  LYS798  CYS799  TRP800  GLU811  SER814 

> <Gold.Protein.RotatedAtoms>
  150.9487  133.6574  159.2775 H   0  0  0  0  0  0  0  0  0  0  0  0  # atno 6907 bound_to 6896
  151.3937  135.0959  159.9544 H   0  0  0  0  0  0  0  0  0  0  0  0  # atno 6908 bound_to 6896
  152.5101  133.8996  159.7489 H   0  0  0  0  0  0  0  0  0  0  0  0  # atno 6909 bound_to 6896
  146.2353  139.9353  142.8490 H   0  0  0  0  0  0  0  0  0  0  0  0  # atno 7974 bound_to 7965
  154.4234  140.1127  156.5656 H   0  0  0  0  0  0  0  0  0  0  0  0  # atno 8008 bound_to 7997
  155.6266  140.3495  155.4650 H   0  0  0  0  0  0  0  0  0  0  0  0  # atno 8009 bound_to 7997
  155.9982  140.1193  157.0563 H   0  0  0  0  0  0  0  0  0  0  0  0  # atno 8010 bound_to 7997
  140.1641  144.4341  150.6694 H   0  0  0  0  0  0  0  0  0  0  0  0  # atno 10167 bound_to 10162
  156.6676  130.5000  149.6010 H   0  0  0  0  0  0  0  0  0  0  0  0  # atno 10718 bound_to 10713
  154.2393  135.6346  153.5201 H   0  0  0  0  0  0  0  0  0  0  0  0  # atno 10763 bound_to 10752
  152.9933  135.5538  154.5928 H   0  0  0  0  0  0  0  0  0  0  0  0  # atno 10764 bound_to 10752
  154.5430  135.2896  155.1053 H   0  0  0  0  0  0  0  0  0  0  0  0  # atno 10765 bound_to 10752
  141.1276  133.8388  157.1084 H   0  0  0  0  0  0  0  0  0  0  0  0  # atno 11005 bound_to 11000
  145.2004  140.9852  143.4159 LP  0  0  0  0  0  0  0  0  0  0  0  0  # atno 17320 bound_to 7965
  144.9778  139.3814  143.6277 LP  0  0  0  0  0  0  0  0  0  0  0  0  # atno 17321 bound_to 7965
  140.6624  143.2256  151.5824 LP  0  0  0  0  0  0  0  0  0  0  0  0  # atno 17342 bound_to 10162
  139.5367  144.2760  152.1267 LP  0  0  0  0  0  0  0  0  0  0  0  0  # atno 17343 bound_to 10162
  156.1963  130.6591  151.1118 LP  0  0  0  0  0  0  0  0  0  0  0  0  # atno 17370 bound_to 10713
  157.7088  131.0744  150.6574 LP  0  0  0  0  0  0  0  0  0  0  0  0  # atno 17371 bound_to 10713
  140.0290  134.9910  157.0743 LP  0  0  0  0  0  0  0  0  0  0  0  0  # atno 17394 bound_to 11000
  140.4316  134.1775  155.7168 LP  0  0  0  0  0  0  0  0  0  0  0  0  # atno 17395 bound_to 11000

$$$$
