AV-unprocessed.smi:229|AV-procd|sdf|1753|dock2
  -GOLD-   2262020273D 1   1.00000     0.00000
 Structure written by MMmdl.
 58 62  0  0  0  0  0  0  0  0  1 V2000
  149.0465  141.7553  156.3694 C   0  0  0  0  0  0  0  0  0  0  0  0
  150.5306  141.7034  155.9863 C   0  0  0  0  0  0  0  0  0  0  0  0
  151.4608  142.1293  157.1318 C   0  0  2  0  0  0  0  0  0  0  0  0
  152.0078  140.9161  157.9038 C   0  0  0  0  0  0  0  0  0  0  0  0
  152.7945  141.3659  159.0474 N   0  0  0  0  0  0  0  0  0  0  0  0
  153.6024  140.4690  159.6686 C   0  0  0  0  0  0  0  0  0  0  0  0
  154.2502  139.5207  158.9399 N   0  0  0  0  0  0  0  0  0  0  0  0
  155.0506  138.6357  159.5406 C   0  0  0  0  0  0  0  0  0  0  0  0
  155.3421  138.5209  160.8371 N   0  0  0  0  0  0  0  0  0  0  0  0
  154.6974  139.4684  161.5765 C   0  0  0  0  0  0  0  0  0  0  0  0
  153.8217  140.4735  161.0760 C   0  0  0  0  0  0  0  0  0  0  0  0
  153.3788  141.2743  162.1216 N   0  0  0  0  0  0  0  0  0  0  0  0
  153.9510  140.7667  163.1784 C   0  0  0  0  0  0  0  0  0  0  0  0
  154.7484  139.6672  162.9466 N   0  0  0  0  0  0  0  0  0  0  0  0
  155.5180  138.9126  163.9283 C   0  0  0  0  0  0  0  0  0  0  0  0
  154.7630  138.6089  165.2454 C   0  0  1  0  0  0  0  0  0  0  0  0
  155.1754  137.3367  165.7047 O   0  0  0  0  0  0  0  0  0  0  0  0
  154.9994  139.6234  166.3855 C   0  0  1  0  0  0  0  0  0  0  0  0
  154.3386  140.9929  166.1786 C   0  0  0  0  0  0  0  0  0  0  0  0
  153.9497  141.4512  167.5774 C   0  0  0  0  0  0  0  0  0  0  0  0
  154.2956  140.2592  168.4661 C   0  0  0  0  0  0  0  0  0  0  0  0
  154.3492  139.1677  167.5637 O   0  0  0  0  0  0  0  0  0  0  0  0
  152.0471  142.2510  159.9332 C   0  0  0  0  0  0  0  0  0  0  0  0
  151.4665  143.4494  159.1481 C   0  0  1  0  0  0  0  0  0  0  0  0
  150.5176  144.2658  160.0195 C   0  0  0  0  0  0  0  0  0  0  0  0
  151.4064  145.3783  160.5546 C   0  0  0  0  0  0  0  0  0  0  0  0
  152.1915  145.7059  159.4240 O   0  0  0  0  0  0  0  0  0  0  0  0
  152.5365  144.4966  158.7581 C   0  0  0  0  0  0  0  0  0  0  0  0
  150.7228  142.9653  158.0260 O   0  0  0  0  0  0  0  0  0  0  0  0
  148.4187  141.4636  155.5273 H   0  0  0  0  0  0  0  0  0  0  0  0
  148.7524  142.7610  156.6707 H   0  0  0  0  0  0  0  0  0  0  0  0
  148.8271  141.0797  157.1964 H   0  0  0  0  0  0  0  0  0  0  0  0
  150.7876  140.6954  155.6585 H   0  0  0  0  0  0  0  0  0  0  0  0
  150.6927  142.3561  155.1278 H   0  0  0  0  0  0  0  0  0  0  0  0
  152.2986  142.6831  156.7073 H   0  0  0  0  0  0  0  0  0  0  0  0
  151.1865  140.2889  158.2537 H   0  0  0  0  0  0  0  0  0  0  0  0
  152.6233  140.3085  157.2391 H   0  0  0  0  0  0  0  0  0  0  0  0
  155.5259  137.9173  158.8891 H   0  0  0  0  0  0  0  0  0  0  0  0
  153.8038  141.1893  164.1611 H   0  0  0  0  0  0  0  0  0  0  0  0
  155.8321  137.9747  163.4702 H   0  0  0  0  0  0  0  0  0  0  0  0
  156.4373  139.4617  164.1360 H   0  0  0  0  0  0  0  0  0  0  0  0
  153.6959  138.5542  165.0265 H   0  0  0  0  0  0  0  0  0  0  0  0
  156.0949  137.3788  165.9179 H   0  0  0  0  0  0  0  0  0  0  0  0
  156.0651  139.7550  166.5848 H   0  0  0  0  0  0  0  0  0  0  0  0
  155.0085  141.7002  165.6917 H   0  0  0  0  0  0  0  0  0  0  0  0
  153.4425  140.9024  165.5634 H   0  0  0  0  0  0  0  0  0  0  0  0
  154.4880  142.3476  167.8866 H   0  0  0  0  0  0  0  0  0  0  0  0
  152.8819  141.6690  167.6182 H   0  0  0  0  0  0  0  0  0  0  0  0
  155.2738  140.3919  168.9309 H   0  0  0  0  0  0  0  0  0  0  0  0
  153.5604  140.0923  169.2536 H   0  0  0  0  0  0  0  0  0  0  0  0
  151.2359  141.6724  160.3775 H   0  0  0  0  0  0  0  0  0  0  0  0
  152.6573  142.6099  160.7610 H   0  0  0  0  0  0  0  0  0  0  0  0
  149.7293  144.7060  159.4070 H   0  0  0  0  0  0  0  0  0  0  0  0
  150.0379  143.6873  160.8095 H   0  0  0  0  0  0  0  0  0  0  0  0
  150.8402  146.2367  160.9158 H   0  0  0  0  0  0  0  0  0  0  0  0
  152.0485  145.0188  161.3605 H   0  0  0  0  0  0  0  0  0  0  0  0
  153.5333  144.1850  159.0727 H   0  0  0  0  0  0  0  0  0  0  0  0
  152.5729  144.6892  157.6864 H   0  0  0  0  0  0  0  0  0  0  0  0
  1  2  1  0  0  0  0
  1 30  1  0  0  0  0
  1 31  1  0  0  0  0
  1 32  1  0  0  0  0
  2  3  1  0  0  0  0
  2 33  1  0  0  0  0
  2 34  1  0  0  0  0
  3 29  1  0  0  0  0
  3  4  1  0  0  0  0
  3 35  1  0  0  0  0
  4  5  1  0  0  0  0
  4 36  1  0  0  0  0
  4 37  1  0  0  0  0
  5  6  1  0  0  0  0
  5 23  1  0  0  0  0
  6 11  1  0  0  0  0
  6  7  2  0  0  0  0
  7  8  1  0  0  0  0
  8  9  2  0  0  0  0
  8 38  1  0  0  0  0
  9 10  1  0  0  0  0
 10 14  1  0  0  0  0
 10 11  2  0  0  0  0
 11 12  1  0  0  0  0
 12 13  2  0  0  0  0
 13 14  1  0  0  0  0
 13 39  1  0  0  0  0
 14 15  1  0  0  0  0
 15 16  1  0  0  0  0
 15 40  1  0  0  0  0
 15 41  1  0  0  0  0
 16 17  1  0  0  0  0
 16 18  1  0  0  0  0
 16 42  1  0  0  0  0
 17 43  1  0  0  0  0
 18 22  1  0  0  0  0
 18 19  1  0  0  0  0
 18 44  1  0  0  0  0
 19 20  1  0  0  0  0
 19 45  1  0  0  0  0
 19 46  1  0  0  0  0
 20 21  1  0  0  0  0
 20 47  1  0  0  0  0
 20 48  1  0  0  0  0
 21 22  1  0  0  0  0
 21 49  1  0  0  0  0
 21 50  1  0  0  0  0
 23 24  1  0  0  0  0
 23 51  1  0  0  0  0
 23 52  1  0  0  0  0
 24 28  1  0  0  0  0
 24 25  1  0  0  0  0
 24 29  1  0  0  0  0
 25 26  1  0  0  0  0
 25 53  1  0  0  0  0
 25 54  1  0  0  0  0
 26 27  1  0  0  0  0
 26 55  1  0  0  0  0
 26 56  1  0  0  0  0
 27 28  1  0  0  0  0
 28 57  1  0  0  0  0
 28 58  1  0  0  0  0
M  END
> <s_m_source_file>
AV-unprocessed.smi

> <i_m_source_file_index>
229

> <i_lp_mmshare_version>
43012

> <i_f3d_flags>
0

> <s_epik_input>
W0NIMl0xT1tDSDJdW0NIMl1bQ0BdMTJbQ0gyXU4oW0NIMl1bQ0BIXShPMilbQ0gyXVtDSDNdKWMobltjSF1uMyljKGMzNCluW2NIXW40W0NIMl1bQ0BIXShbT0hdKVtDQEBIXTVbQ0gyXVtDSDJdW0NIMl1PNQ==

> <s_epik_cmdline>
J2VwaWtfcHl0aG9uJywgJy1waCcsICc3LjAnLCAnLXRuJywgJzgnLCAnLW1hJywgJzIwMCcsICctbWV0YWxfYmluZGluZycsICctaW1hZScsICc8aW5maWxlLm1hZT4nLCAnLW9tYWUnLCAnPG91dGZpbGUubWFlPic=

> <r_lp_tautomer_probability>
1

> <r_epik_Ionization_Penalty>
0.00318402

> <r_epik_Ionization_Penalty_Charging>
0

> <r_epik_Ionization_Penalty_Neutral>
0.00318402

> <r_epik_State_Penalty>
0.00215642

> <r_epik_Charging_Adjusted_Penalty>
0.00215642

> <i_epik_Tot_Q>
0

> <i_epik_Tot_abs_Q>
0

> <r_epik_Metal_State_Penalty>
-0

> <b_epik_Metal_Only>
0

> <s_lp_Force_Field>
OPLS_2005

> <r_lp_Energy>
56.4777

> <b_lp_Chiralities_Consistent>
1

> <s_lp_Variant>
AV-unprocessed.smi:229-7

> <Gold.Version>
5.8.1

> <Gold.Id.Protein>
6NUR|6NUR_protein|mol2

> <Gold.PLP.Fitness>
51.1443

> <Gold.PLP.PLP>
-51.3790

> <Gold.PLP.part.hbond>
-2.3362

> <Gold.PLP.part.metal>
0.0000

> <Gold.PLP.part.buried>
-4.1214

> <Gold.PLP.part.nonpolar>
-45.5623

> <Gold.PLP.part.repulsive>
0.2994

> <Gold.PLP.ligand.clash>
0.3062

> <Gold.PLP.ligand.torsion>
1.6615

> <Gold.PLP.Chemscore.Hbond>
1.0000

> <Gold.PLP.Chemscore.CHOScore>
0.0000

> <Gold.PLP.Chemscore.Metal>
0.0000

> <Gold.Chemscore.Hbonds>
donor molecule, donor type, donor heavy atom, donor atom, acceptor molecule, acceptor atom, score
      P1  H  7997  8010       L1     7  1.00

> <Gold.PLP.Chemscore.Internal.Correction>
0.3944

> <Gold.Rescore>
     Score         DG    S(hbond)    S(metal)    S(lipo)     H(rot)  DE(clash)    DE(int)     intcor
     12.03     -15.86       0.71        0.00     122.29       2.46       0.43       3.40       ----

> <Gold.Chemscore.Fitness>
12.0283

> <Gold.Chemscore.DG>
-15.8601

> <Gold.Chemscore.ZeroCoef>
-5.4800

> <Gold.Chemscore.Hbond>
0.7087

> <Gold.Chemscore.Metal>
0.0000

> <Gold.Chemscore.Lipo>
122.2942

> <Gold.Chemscore.Internal_Hbond>
0.0000

> <Gold.Chemscore.DEClash>
0.4276

> <Gold.Chemscore.DEInternal>
3.4042

> <Gold.Chemscore.Rot>
2.4591

> <Gold.Chemscore.Internal.Correction>
   9.000000E+99

> <Gold.Chemscore.Hbonds>
donor molecule, donor type, donor heavy atom, donor atom, acceptor molecule, acceptor atom, score
      P1  H  7997  8010       L1     7  0.63

> <Gold.Chemscore.Hbond.Weighted>
-2.3670

> <Gold.Chemscore.Metal.Weighted>
-0.0000

> <Gold.Chemscore.Lipo.Weighted>
-14.3084

> <Gold.Chemscore.Internal_Hbond.Weighted>
0.0000

> <Gold.Chemscore.DEClash.Weighted>
0.4276

> <Gold.Chemscore.DEInternal.Weighted>
3.4042

> <Gold.Chemscore.Rot.Weighted>
6.2953

> <Gold.Chemscore.Internal.Correction.Weighted>
   9.000000E+99

> <Gold.Protein.RotatedTorsions>
[ 6907 6896 6895 6894 ] final   25.83 input  -60.11 | X-H torsion
[ 7974 7965 7964 7962 ] final   34.19 input  175.53 | X-H torsion
[ 8008 7997 7996 7995 ] final    3.17 input   59.86 | X-H torsion
[ 10167 10162 10161 10158 ] final   28.88 input  -65.29 | X-H torsion
[ 10718 10713 10712 10709 ] final    4.01 input   66.30 | X-H torsion
[ 10763 10752 10751 10750 ] final  -91.58 input  -60.55 | X-H torsion
[ 11005 11000 10999 10996 ] final   53.54 input  -57.11 | X-H torsion

> <Gold.Protein.ActiveResidues>
 VAL166  LYS551  ARG553  GLY616  TRP617  ASP618  TYR619  PRO620  LYS621  CYS622 
 ASP623  PHE694  ASN695  SER759  ASP760  ASP761  ALA762  ILE779  LEU786  VAL792 
 PHE793  MET794  SER795  GLU796  ALA797  LYS798  CYS799  TRP800  GLU811  SER814 

> <Gold.Protein.RotatedAtoms>
  151.9784  135.0041  160.0555 H   0  0  0  0  0  0  0  0  0  0  0  0  # atno 6907 bound_to 6896
  152.1719  133.4644  159.4922 H   0  0  0  0  0  0  0  0  0  0  0  0  # atno 6908 bound_to 6896
  150.6903  134.1860  159.4310 H   0  0  0  0  0  0  0  0  0  0  0  0  # atno 6909 bound_to 6896
  146.1370  139.6301  142.9189 H   0  0  0  0  0  0  0  0  0  0  0  0  # atno 7974 bound_to 7965
  154.7004  140.2672  155.6725 H   0  0  0  0  0  0  0  0  0  0  0  0  # atno 8008 bound_to 7997
  156.2763  140.2773  156.1536 H   0  0  0  0  0  0  0  0  0  0  0  0  # atno 8009 bound_to 7997
  155.0773  140.0372  157.2618 H   0  0  0  0  0  0  0  0  0  0  0  0  # atno 8010 bound_to 7997
  140.4814  144.0610  150.6266 H   0  0  0  0  0  0  0  0  0  0  0  0  # atno 10167 bound_to 10162
  156.8862  130.5671  149.5651 H   0  0  0  0  0  0  0  0  0  0  0  0  # atno 10718 bound_to 10713
  154.6774  135.5263  153.8218 H   0  0  0  0  0  0  0  0  0  0  0  0  # atno 10763 bound_to 10752
  153.0542  135.6544  154.0629 H   0  0  0  0  0  0  0  0  0  0  0  0  # atno 10764 bound_to 10752
  154.0520  135.2968  155.3318 H   0  0  0  0  0  0  0  0  0  0  0  0  # atno 10765 bound_to 10752
  140.0759  134.5405  155.8997 H   0  0  0  0  0  0  0  0  0  0  0  0  # atno 11005 bound_to 11000
  145.5134  141.0434  143.2475 LP  0  0  0  0  0  0  0  0  0  0  0  0  # atno 17320 bound_to 7965
  144.7750  139.6650  143.7178 LP  0  0  0  0  0  0  0  0  0  0  0  0  # atno 17321 bound_to 7965
  140.3853  143.2781  152.0123 LP  0  0  0  0  0  0  0  0  0  0  0  0  # atno 17342 bound_to 10162
  139.4834  144.6122  151.7413 LP  0  0  0  0  0  0  0  0  0  0  0  0  # atno 17343 bound_to 10162
  156.0652  130.5696  150.9273 LP  0  0  0  0  0  0  0  0  0  0  0  0  # atno 17370 bound_to 10713
  157.6111  131.0936  150.8794 LP  0  0  0  0  0  0  0  0  0  0  0  0  # atno 17371 bound_to 10713
  141.2029  133.6628  156.6033 LP  0  0  0  0  0  0  0  0  0  0  0  0  # atno 17394 bound_to 11000
  140.3559  134.7729  157.4500 LP  0  0  0  0  0  0  0  0  0  0  0  0  # atno 17395 bound_to 11000

$$$$
