AV-unprocessed.smi:923|AV-procd|sdf|4177|dock2
  -GOLD-   22720 2 83D 1   1.00000     0.00000
 Structure written by MMmdl.
 35 36  0  0  0  0  0  0  0  0  1 V2000
  150.0849  134.9579  154.7152 C   0  0  0  0  0  0  0  0  0  0  0  0
  150.5917  136.3116  155.0788 C   0  0  0  0  0  0  0  0  0  0  0  0
  151.8624  136.6868  154.8883 N   0  0  0  0  0  0  0  0  0  0  0  0
  152.0944  137.9900  155.3053 N   0  0  0  0  0  0  0  0  0  0  0  0
  150.9876  138.5610  155.8001 C   0  0  0  0  0  0  0  0  0  0  0  0
  150.9403  139.8893  156.2999 N   0  0  0  0  0  0  0  0  0  0  0  0
  151.7733  140.4811  157.1740 C   0  0  0  0  0  0  0  0  0  0  0  0
  152.7499  139.9470  157.7004 O   0  0  0  0  0  0  0  0  0  0  0  0
  151.4056  141.7494  157.4104 N   0  0  0  0  0  0  0  0  0  0  0  0
  152.0928  142.6811  158.3023 C   0  0  0  0  0  0  0  0  0  0  0  0
  152.1882  142.0605  159.7116 C   0  0  0  0  0  0  0  0  0  0  0  0
  152.8545  142.9487  160.7765 C   0  0  0  0  0  0  0  0  0  0  0  0
  151.9477  144.0975  161.2467 C   0  0  0  0  0  0  0  0  0  0  0  0
  152.0092  145.3778  160.3957 C   0  0  0  0  0  0  0  0  0  0  0  0
  152.1748  145.1877  158.8778 C   0  0  0  0  0  0  0  0  0  0  0  0
  151.3608  144.0388  158.2586 C   0  0  0  0  0  0  0  0  0  0  0  0
  149.5583  137.5416  155.7961 S   0  0  0  0  0  0  0  0  0  0  0  0
  150.8693  134.3670  154.2409 H   0  0  0  0  0  0  0  0  0  0  0  0
  149.2480  135.0471  154.0224 H   0  0  0  0  0  0  0  0  0  0  0  0
  149.7462  134.4348  155.6095 H   0  0  0  0  0  0  0  0  0  0  0  0
  150.1814  140.4556  155.9504 H   0  0  0  0  0  0  0  0  0  0  0  0
  150.5886  142.1018  156.9337 H   0  0  0  0  0  0  0  0  0  0  0  0
  153.1041  142.8346  157.9208 H   0  0  0  0  0  0  0  0  0  0  0  0
  151.1960  141.7637  160.0552 H   0  0  0  0  0  0  0  0  0  0  0  0
  152.7613  141.1347  159.6423 H   0  0  0  0  0  0  0  0  0  0  0  0
  153.0698  142.3189  161.6404 H   0  0  0  0  0  0  0  0  0  0  0  0
  153.8203  143.3216  160.4332 H   0  0  0  0  0  0  0  0  0  0  0  0
  150.9171  143.7449  161.3013 H   0  0  0  0  0  0  0  0  0  0  0  0
  152.2128  144.3629  162.2708 H   0  0  0  0  0  0  0  0  0  0  0  0
  151.1053  145.9569  160.5877 H   0  0  0  0  0  0  0  0  0  0  0  0
  152.8329  145.9997  160.7481 H   0  0  0  0  0  0  0  0  0  0  0  0
  151.8895  146.1222  158.3934 H   0  0  0  0  0  0  0  0  0  0  0  0
  153.2306  145.0557  158.6380 H   0  0  0  0  0  0  0  0  0  0  0  0
  151.1844  144.2939  157.2125 H   0  0  0  0  0  0  0  0  0  0  0  0
  150.3738  143.9702  158.7179 H   0  0  0  0  0  0  0  0  0  0  0  0
  1  2  1  0  0  0  0
  1 18  1  0  0  0  0
  1 19  1  0  0  0  0
  1 20  1  0  0  0  0
  2 17  1  0  0  0  0
  2  3  2  0  0  0  0
  3  4  1  0  0  0  0
  4  5  2  0  0  0  0
  5  6  1  0  0  0  0
  5 17  1  0  0  0  0
  6  7  1  0  0  0  0
  6 21  1  0  0  0  0
  7  8  2  0  0  0  0
  7  9  1  0  0  0  0
  9 10  1  0  0  0  0
  9 22  1  0  0  0  0
 10 16  1  0  0  0  0
 10 11  1  0  0  0  0
 10 23  1  0  0  0  0
 11 12  1  0  0  0  0
 11 24  1  0  0  0  0
 11 25  1  0  0  0  0
 12 13  1  0  0  0  0
 12 26  1  0  0  0  0
 12 27  1  0  0  0  0
 13 14  1  0  0  0  0
 13 28  1  0  0  0  0
 13 29  1  0  0  0  0
 14 15  1  0  0  0  0
 14 30  1  0  0  0  0
 14 31  1  0  0  0  0
 15 16  1  0  0  0  0
 15 32  1  0  0  0  0
 15 33  1  0  0  0  0
 16 34  1  0  0  0  0
 16 35  1  0  0  0  0
M  END
> <s_m_source_file>
AV-unprocessed.smi

> <i_m_source_file_index>
923

> <i_lp_mmshare_version>
43012

> <i_f3d_flags>
0

> <s_epik_input>
W0NIM11jMW5uYyhzMSlbTkhdQyg9TylbTkhdW0NIXTJbQ0gyXVtDSDJdW0NIMl1bQ0gyXVtDSDJdW0NIMl0y

> <s_epik_cmdline>
J2VwaWtfcHl0aG9uJywgJy1waCcsICc3LjAnLCAnLXRuJywgJzgnLCAnLW1hJywgJzIwMCcsICctbWV0YWxfYmluZGluZycsICctaW1hZScsICc8aW5maWxlLm1hZT4nLCAnLW9tYWUnLCAnPG91dGZpbGUubWFlPic=

> <r_lp_tautomer_probability>
1

> <r_epik_Ionization_Penalty>
0.000365925

> <r_epik_Ionization_Penalty_Charging>
0

> <r_epik_Ionization_Penalty_Neutral>
0.000365925

> <r_epik_State_Penalty>
-0

> <r_epik_Charging_Adjusted_Penalty>
0

> <i_epik_Tot_Q>
0

> <i_epik_Tot_abs_Q>
0

> <r_epik_Metal_State_Penalty>
0.183951

> <b_epik_Metal_Only>
0

> <s_lp_Force_Field>
OPLS_2005

> <r_lp_Energy>
13.7889

> <b_lp_Chiralities_Consistent>
1

> <s_lp_Variant>
AV-unprocessed.smi:923-1

> <Gold.Version>
5.8.1

> <Gold.Id.Protein>
6NUR|6NUR_protein|mol2

> <Gold.PLP.Fitness>
40.4392

> <Gold.PLP.PLP>
-35.2935

> <Gold.PLP.part.hbond>
-1.8910

> <Gold.PLP.part.metal>
0.0000

> <Gold.PLP.part.buried>
-5.5225

> <Gold.PLP.part.nonpolar>
-27.8767

> <Gold.PLP.part.repulsive>
0.3003

> <Gold.PLP.ligand.clash>
0.0000

> <Gold.PLP.ligand.torsion>
0.4340

> <Gold.PLP.Chemscore.Hbond>
2.0000

> <Gold.PLP.Chemscore.CHOScore>
0.0000

> <Gold.PLP.Chemscore.Metal>
0.0000

> <Gold.Chemscore.Hbonds>
donor molecule, donor type, donor heavy atom, donor atom, acceptor molecule, acceptor atom, score
      P1  H  7997  8008       L1     8  1.00
      P1  H 10752 10764       L1     3  1.00

> <Gold.PLP.Chemscore.Internal.Correction>
0.0137

> <Gold.Rescore>
     Score         DG    S(hbond)    S(metal)    S(lipo)     H(rot)  DE(clash)    DE(int)     intcor
     18.83     -20.34       1.93        0.00      93.63       1.00       0.01       1.50       ----

> <Gold.Chemscore.Fitness>
18.8317

> <Gold.Chemscore.DG>
-20.3371

> <Gold.Chemscore.ZeroCoef>
-5.4800

> <Gold.Chemscore.Hbond>
1.9348

> <Gold.Chemscore.Metal>
0.0000

> <Gold.Chemscore.Lipo>
93.6314

> <Gold.Chemscore.Internal_Hbond>
0.0000

> <Gold.Chemscore.DEClash>
0.0075

> <Gold.Chemscore.DEInternal>
1.4980

> <Gold.Chemscore.Rot>
1.0000

> <Gold.Chemscore.Internal.Correction>
   9.000000E+99

> <Gold.Chemscore.Hbonds>
donor molecule, donor type, donor heavy atom, donor atom, acceptor molecule, acceptor atom, score
      P1  H  7997  8008       L1     8  0.93
      P1  H 10752 10764       L1     3  0.92

> <Gold.Chemscore.Hbond.Weighted>
-6.4623

> <Gold.Chemscore.Metal.Weighted>
-0.0000

> <Gold.Chemscore.Lipo.Weighted>
-10.9549

> <Gold.Chemscore.Internal_Hbond.Weighted>
0.0000

> <Gold.Chemscore.DEClash.Weighted>
0.0075

> <Gold.Chemscore.DEInternal.Weighted>
1.4980

> <Gold.Chemscore.Rot.Weighted>
2.5600

> <Gold.Chemscore.Internal.Correction.Weighted>
   9.000000E+99

> <Gold.Protein.RotatedTorsions>
[ 6907 6896 6895 6894 ] final  -86.94 input  -60.11 | X-H torsion
[ 7974 7965 7964 7962 ] final -175.89 input  175.53 | X-H torsion
[ 8008 7997 7996 7995 ] final  -67.40 input   59.86 | X-H torsion
[ 10167 10162 10161 10158 ] final  -96.93 input  -65.29 | X-H torsion
[ 10718 10713 10712 10709 ] final   27.66 input   66.30 | X-H torsion
[ 10763 10752 10751 10750 ] final  -50.93 input  -60.55 | X-H torsion
[ 11005 11000 10999 10996 ] final  -95.53 input  -57.11 | X-H torsion

> <Gold.Protein.ActiveResidues>
 VAL166  LYS551  ARG553  GLY616  TRP617  ASP618  TYR619  PRO620  LYS621  CYS622 
 ASP623  PHE694  ASN695  SER759  ASP760  ASP761  ALA762  ILE779  LEU786  VAL792 
 PHE793  MET794  SER795  GLU796  ALA797  LYS798  CYS799  TRP800  GLU811  SER814 

> <Gold.Protein.RotatedAtoms>
  150.6866  134.2973  159.4691 H   0  0  0  0  0  0  0  0  0  0  0  0  # atno 6907 bound_to 6896
  152.0873  134.9428  160.0582 H   0  0  0  0  0  0  0  0  0  0  0  0  # atno 6908 bound_to 6896
  152.0758  133.4094  159.4516 H   0  0  0  0  0  0  0  0  0  0  0  0  # atno 6909 bound_to 6896
  144.7127  140.1253  143.6402 H   0  0  0  0  0  0  0  0  0  0  0  0  # atno 7974 bound_to 7965
  154.4798  140.0893  156.7349 H   0  0  0  0  0  0  0  0  0  0  0  0  # atno 8008 bound_to 7997
  155.4501  140.3457  155.4281 H   0  0  0  0  0  0  0  0  0  0  0  0  # atno 8009 bound_to 7997
  156.1173  140.1464  156.9243 H   0  0  0  0  0  0  0  0  0  0  0  0  # atno 8010 bound_to 7997
  140.2887  143.3235  152.0368 H   0  0  0  0  0  0  0  0  0  0  0  0  # atno 10167 bound_to 10162
  157.2231  130.6988  149.6279 H   0  0  0  0  0  0  0  0  0  0  0  0  # atno 10718 bound_to 10713
  154.1184  135.6538  153.4898 H   0  0  0  0  0  0  0  0  0  0  0  0  # atno 10763 bound_to 10752
  153.0233  135.5264  154.7122 H   0  0  0  0  0  0  0  0  0  0  0  0  # atno 10764 bound_to 10752
  154.6322  135.2977  155.0173 H   0  0  0  0  0  0  0  0  0  0  0  0  # atno 10765 bound_to 10752
  141.1439  133.8033  157.0447 H   0  0  0  0  0  0  0  0  0  0  0  0  # atno 11005 bound_to 11000
  145.9335  139.2621  143.1311 LP  0  0  0  0  0  0  0  0  0  0  0  0  # atno 17320 bound_to 7965
  145.9498  140.8917  143.0265 LP  0  0  0  0  0  0  0  0  0  0  0  0  # atno 17321 bound_to 7965
  139.4943  144.6540  151.6612 LP  0  0  0  0  0  0  0  0  0  0  0  0  # atno 17342 bound_to 10162
  140.5751  144.0043  150.6237 LP  0  0  0  0  0  0  0  0  0  0  0  0  # atno 17343 bound_to 10162
  155.9681  130.4513  150.5731 LP  0  0  0  0  0  0  0  0  0  0  0  0  # atno 17370 bound_to 10713
  157.3555  131.0741  151.1678 LP  0  0  0  0  0  0  0  0  0  0  0  0  # atno 17371 bound_to 10713
  140.0670  134.9723  157.1402 LP  0  0  0  0  0  0  0  0  0  0  0  0  # atno 17394 bound_to 11000
  140.3766  134.2333  155.7174 LP  0  0  0  0  0  0  0  0  0  0  0  0  # atno 17395 bound_to 11000

$$$$
