AV-unprocessed.smi:2487|AV-procd|sdf|9791|dock2
  -GOLD-   2272013433D 1   1.00000     0.00000
 Structure written by MMmdl.
 30 31  0  0  0  0  0  0  0  0  1 V2000
  147.1065  140.4786  152.2859 C   0  0  0  0  0  0  0  0  0  0  0  0
  148.1528  139.9248  153.1313 N   0  0  0  0  0  0  0  0  0  0  0  0
  148.7950  140.6109  154.0884 C   0  0  0  0  0  0  0  0  0  0  0  0
  148.5510  141.7911  154.3427 O   0  0  0  0  0  0  0  0  0  0  0  0
  149.8534  139.8378  154.8875 C   0  0  2  0  0  0  0  0  0  0  0  0
  150.5201  140.6976  155.9852 C   0  0  0  0  0  0  0  0  0  0  0  0
  151.5756  139.9455  156.6516 N   0  0  0  0  0  0  0  0  0  0  0  0
  152.0717  140.4790  157.8260 C   0  0  0  0  0  0  0  0  0  0  0  0
  153.1054  139.8529  158.4021 N   0  0  0  0  0  0  0  0  0  0  0  0
  153.5826  140.3873  159.5475 C   0  0  0  0  0  0  0  0  0  0  0  0
  153.0183  141.5496  160.1104 C   0  0  0  0  0  0  0  0  0  0  0  0
  153.6246  142.2364  161.5722 Cl  0  0  0  0  0  0  0  0  0  0  0  0
  151.9328  142.1214  159.4167 C   0  0  0  0  0  0  0  0  0  0  0  0
  151.4610  141.5808  158.2719 N   0  0  0  0  0  0  0  0  0  0  0  0
  152.5506  139.4037  155.7151 C   0  0  0  0  0  0  0  0  0  0  0  0
  151.8416  138.5740  154.6327 C   0  0  0  0  0  0  0  0  0  0  0  0
  150.8591  139.3756  153.9851 O   0  0  0  0  0  0  0  0  0  0  0  0
  146.6881  139.6966  151.6521 H   0  0  0  0  0  0  0  0  0  0  0  0
  147.5059  141.2633  151.6424 H   0  0  0  0  0  0  0  0  0  0  0  0
  146.2985  140.8979  152.8870 H   0  0  0  0  0  0  0  0  0  0  0  0
  148.4101  138.9600  152.9799 H   0  0  0  0  0  0  0  0  0  0  0  0
  149.3578  138.9783  155.3423 H   0  0  0  0  0  0  0  0  0  0  0  0
  150.9443  141.6052  155.5525 H   0  0  0  0  0  0  0  0  0  0  0  0
  149.7793  141.0081  156.7236 H   0  0  0  0  0  0  0  0  0  0  0  0
  154.4170  139.8850  160.0143 H   0  0  0  0  0  0  0  0  0  0  0  0
  151.4419  143.0126  159.7788 H   0  0  0  0  0  0  0  0  0  0  0  0
  153.1059  140.2228  155.2564 H   0  0  0  0  0  0  0  0  0  0  0  0
  153.2718  138.7842  156.2493 H   0  0  0  0  0  0  0  0  0  0  0  0
  152.5623  138.2279  153.8918 H   0  0  0  0  0  0  0  0  0  0  0  0
  151.3755  137.6869  155.0646 H   0  0  0  0  0  0  0  0  0  0  0  0
  1  2  1  0  0  0  0
  1 18  1  0  0  0  0
  1 19  1  0  0  0  0
  1 20  1  0  0  0  0
  2  3  1  0  0  0  0
  2 21  1  0  0  0  0
  3  4  2  0  0  0  0
  3  5  1  0  0  0  0
  5 17  1  0  0  0  0
  5  6  1  0  0  0  0
  5 22  1  0  0  0  0
  6  7  1  0  0  0  0
  6 23  1  0  0  0  0
  6 24  1  0  0  0  0
  7  8  1  0  0  0  0
  7 15  1  0  0  0  0
  8 14  1  0  0  0  0
  8  9  2  0  0  0  0
  9 10  1  0  0  0  0
 10 11  2  0  0  0  0
 10 25  1  0  0  0  0
 11 12  1  0  0  0  0
 11 13  1  0  0  0  0
 13 14  2  0  0  0  0
 13 26  1  0  0  0  0
 15 16  1  0  0  0  0
 15 27  1  0  0  0  0
 15 28  1  0  0  0  0
 16 17  1  0  0  0  0
 16 29  1  0  0  0  0
 16 30  1  0  0  0  0
M  END
> <s_m_source_file>
AV-unprocessed.smi

> <i_m_source_file_index>
2487

> <i_lp_mmshare_version>
43012

> <i_f3d_flags>
0

> <s_epik_input>
W0NIM11bTkhdQyg9TylbQ0BASF0xW0NIMl1OKFtDSDJdW0NIMl1PMSljMm5bY0hdYyhDbClbY0hdbjI=

> <s_epik_cmdline>
J2VwaWtfcHl0aG9uJywgJy1waCcsICc3LjAnLCAnLXRuJywgJzgnLCAnLW1hJywgJzIwMCcsICctbWV0YWxfYmluZGluZycsICctaW1hZScsICc8aW5maWxlLm1hZT4nLCAnLW9tYWUnLCAnPG91dGZpbGUubWFlPic=

> <r_lp_tautomer_probability>
1

> <r_epik_Ionization_Penalty>
1.03229e-07

> <r_epik_Ionization_Penalty_Charging>
0

> <r_epik_Ionization_Penalty_Neutral>
1.03229e-07

> <r_epik_State_Penalty>
-0

> <r_epik_Charging_Adjusted_Penalty>
0

> <i_epik_Tot_Q>
0

> <i_epik_Tot_abs_Q>
0

> <r_epik_Metal_State_Penalty>
-0

> <b_epik_Metal_Only>
0

> <s_lp_Force_Field>
OPLS_2005

> <r_lp_Energy>
13.8042

> <b_lp_Chiralities_Consistent>
1

> <s_lp_Variant>
AV-unprocessed.smi:2487-1

> <Gold.Version>
5.8.1

> <Gold.Id.Protein>
6NUR|6NUR_protein|mol2

> <Gold.PLP.Fitness>
35.7570

> <Gold.PLP.PLP>
-30.1329

> <Gold.PLP.part.hbond>
-3.0000

> <Gold.PLP.part.metal>
0.0000

> <Gold.PLP.part.buried>
-0.5159

> <Gold.PLP.part.nonpolar>
-25.7308

> <Gold.PLP.part.repulsive>
0.4328

> <Gold.PLP.ligand.clash>
0.0000

> <Gold.PLP.ligand.torsion>
0.3300

> <Gold.PLP.Chemscore.Hbond>
2.0000

> <Gold.PLP.Chemscore.CHOScore>
0.0000

> <Gold.PLP.Chemscore.Metal>
0.0000

> <Gold.Chemscore.Hbonds>
donor molecule, donor type, donor heavy atom, donor atom, acceptor molecule, acceptor atom, score
      P1  H  7989  7998       L1    17  1.00
      P1  H  7997  8009       L1     9  0.98

> <Gold.PLP.Chemscore.Internal.Correction>
0.2841

> <Gold.Rescore>
     Score         DG    S(hbond)    S(metal)    S(lipo)     H(rot)  DE(clash)    DE(int)     intcor
     12.75     -13.51       0.80        0.00      74.95       1.34       0.24       0.52       ----

> <Gold.Chemscore.Fitness>
12.7537

> <Gold.Chemscore.DG>
-13.5088

> <Gold.Chemscore.ZeroCoef>
-5.4800

> <Gold.Chemscore.Hbond>
0.8029

> <Gold.Chemscore.Metal>
0.0000

> <Gold.Chemscore.Lipo>
74.9478

> <Gold.Chemscore.Internal_Hbond>
0.0000

> <Gold.Chemscore.DEClash>
0.2386

> <Gold.Chemscore.DEInternal>
0.5164

> <Gold.Chemscore.Rot>
1.3366

> <Gold.Chemscore.Internal.Correction>
   9.000000E+99

> <Gold.Chemscore.Hbonds>
donor molecule, donor type, donor heavy atom, donor atom, acceptor molecule, acceptor atom, score
      P1  H  7989  7998       L1    17  0.26
      P1  H  7997  8009       L1     9  0.18

> <Gold.Chemscore.Hbond.Weighted>
-2.6815

> <Gold.Chemscore.Metal.Weighted>
-0.0000

> <Gold.Chemscore.Lipo.Weighted>
-8.7689

> <Gold.Chemscore.Internal_Hbond.Weighted>
0.0000

> <Gold.Chemscore.DEClash.Weighted>
0.2386

> <Gold.Chemscore.DEInternal.Weighted>
0.5164

> <Gold.Chemscore.Rot.Weighted>
3.4216

> <Gold.Chemscore.Internal.Correction.Weighted>
   9.000000E+99

> <Gold.Protein.RotatedTorsions>
[ 6907 6896 6895 6894 ] final   35.47 input  -60.11 | X-H torsion
[ 7974 7965 7964 7962 ] final -140.63 input  175.53 | X-H torsion
[ 8008 7997 7996 7995 ] final  160.80 input   59.86 | X-H torsion
[ 10167 10162 10161 10158 ] final -116.92 input  -65.29 | X-H torsion
[ 10718 10713 10712 10709 ] final  147.94 input   66.30 | X-H torsion
[ 10763 10752 10751 10750 ] final  -99.50 input  -60.55 | X-H torsion
[ 11005 11000 10999 10996 ] final  -91.05 input  -57.11 | X-H torsion

> <Gold.Protein.ActiveResidues>
 VAL166  LYS551  ARG553  GLY616  TRP617  ASP618  TYR619  PRO620  LYS621  CYS622 
 ASP623  PHE694  ASN695  SER759  ASP760  ASP761  ALA762  ILE779  LEU786  VAL792 
 PHE793  MET794  SER795  GLU796  ALA797  LYS798  CYS799  TRP800  GLU811  SER814 

> <Gold.Protein.RotatedAtoms>
  152.1166  134.9236  160.0564 H   0  0  0  0  0  0  0  0  0  0  0  0  # atno 6907 bound_to 6896
  152.0393  133.3966  159.4338 H   0  0  0  0  0  0  0  0  0  0  0  0  # atno 6908 bound_to 6896
  150.6846  134.3353  159.4888 H   0  0  0  0  0  0  0  0  0  0  0  0  # atno 6909 bound_to 6896
  144.8582  140.6176  143.5346 H   0  0  0  0  0  0  0  0  0  0  0  0  # atno 7974 bound_to 7965
  156.2148  140.1794  156.7614 H   0  0  0  0  0  0  0  0  0  0  0  0  # atno 8008 bound_to 7997
  154.5775  140.0672  156.9084 H   0  0  0  0  0  0  0  0  0  0  0  0  # atno 8009 bound_to 7997
  155.2562  140.3332  155.4280 H   0  0  0  0  0  0  0  0  0  0  0  0  # atno 8010 bound_to 7997
  140.0740  143.4850  152.1964 H   0  0  0  0  0  0  0  0  0  0  0  0  # atno 10167 bound_to 10162
  157.3147  131.0894  151.1288 H   0  0  0  0  0  0  0  0  0  0  0  0  # atno 10718 bound_to 10713
  154.7503  135.4970  153.9277 H   0  0  0  0  0  0  0  0  0  0  0  0  # atno 10763 bound_to 10752
  153.1136  135.6715  153.9465 H   0  0  0  0  0  0  0  0  0  0  0  0  # atno 10764 bound_to 10752
  153.9217  135.3087  155.3426 H   0  0  0  0  0  0  0  0  0  0  0  0  # atno 10765 bound_to 10752
  141.1553  133.7730  156.9824 H   0  0  0  0  0  0  0  0  0  0  0  0  # atno 11005 bound_to 11000
  145.4365  139.1541  143.3994 LP  0  0  0  0  0  0  0  0  0  0  0  0  # atno 17320 bound_to 7965
  146.2839  140.4484  142.8765 LP  0  0  0  0  0  0  0  0  0  0  0  0  # atno 17321 bound_to 7965
  139.5819  144.7514  151.3618 LP  0  0  0  0  0  0  0  0  0  0  0  0  # atno 17342 bound_to 10162
  140.7111  143.7387  150.7569 LP  0  0  0  0  0  0  0  0  0  0  0  0  # atno 17343 bound_to 10162
  157.2596  130.6653  149.5968 LP  0  0  0  0  0  0  0  0  0  0  0  0  # atno 17370 bound_to 10713
  155.9680  130.4513  150.5729 LP  0  0  0  0  0  0  0  0  0  0  0  0  # atno 17371 bound_to 10713
  140.1057  134.9508  157.1990 LP  0  0  0  0  0  0  0  0  0  0  0  0  # atno 17394 bound_to 11000
  140.3259  134.2864  155.7237 LP  0  0  0  0  0  0  0  0  0  0  0  0  # atno 17395 bound_to 11000

$$$$
