AV-unprocessed.smi:3157|AV-procd|sdf|12038|dock2
  -GOLD-   2272017453D 1   1.00000     0.00000
 Structure written by MMmdl.
 40 41  0  0  0  0  0  0  0  0  2 V2000
  150.3683  140.5562  155.3071 C   0  0  0  0  0  0  0  0  0  0  0  0
  149.0598  141.1052  155.9145 C   0  0  1  0  0  0  0  0  0  0  0  0
  149.3641  142.1852  156.8809 N   0  3  0  0  0  0  0  0  0  0  0  0
  150.5725  141.9732  157.7051 C   0  0  0  0  0  0  0  0  0  0  0  0
  150.8502  143.1877  158.6050 C   0  0  0  0  0  0  0  0  0  0  0  0
  151.4522  144.3903  157.8676 C   0  0  0  0  0  0  0  0  0  0  0  0
  152.1856  145.2105  158.9379 C   0  0  0  0  0  0  0  0  0  0  0  0
  152.3375  144.2935  160.1603 C   0  0  0  0  0  0  0  0  0  0  0  0
  151.8760  142.9077  159.7047 C   0  0  0  0  0  0  0  0  0  0  0  0
  148.0682  141.6277  154.8420 C   0  0  2  0  0  0  0  0  0  0  0  0
  146.8163  142.2782  155.4596 C   0  0  0  0  0  0  0  0  0  0  0  0
  147.6712  140.5810  153.9078 N   0  0  0  0  0  0  0  0  0  0  0  0
  146.9530  140.6958  152.7337 C   0  0  0  0  0  0  0  0  0  0  0  0
  146.8189  139.4411  152.2123 C   0  0  0  0  0  0  0  0  0  0  0  0
  147.4952  138.6118  153.1496 C   0  0  0  0  0  0  0  0  0  0  0  0
  148.0022  139.2960  154.1623 N   0  0  0  0  0  0  0  0  0  0  0  0
  150.1857  139.7012  154.6560 H   0  0  0  0  0  0  0  0  0  0  0  0
  151.0624  140.2162  156.0750 H   0  0  0  0  0  0  0  0  0  0  0  0
  150.8774  141.3182  154.7157 H   0  0  0  0  0  0  0  0  0  0  0  0
  148.5686  140.2931  156.4533 H   0  0  0  0  0  0  0  0  0  0  0  0
  149.4493  143.0571  156.3781 H   0  0  0  0  0  0  0  0  0  0  0  0
  150.4198  141.0879  158.3239 H   0  0  0  0  0  0  0  0  0  0  0  0
  151.4365  141.7727  157.0719 H   0  0  0  0  0  0  0  0  0  0  0  0
  149.9216  143.5014  159.0854 H   0  0  0  0  0  0  0  0  0  0  0  0
  152.1725  144.0487  157.1226 H   0  0  0  0  0  0  0  0  0  0  0  0
  150.6961  144.9770  157.3450 H   0  0  0  0  0  0  0  0  0  0  0  0
  153.1556  145.5460  158.5691 H   0  0  0  0  0  0  0  0  0  0  0  0
  151.6145  146.1004  159.2047 H   0  0  0  0  0  0  0  0  0  0  0  0
  153.3583  144.2782  160.5432 H   0  0  0  0  0  0  0  0  0  0  0  0
  151.6923  144.6492  160.9648 H   0  0  0  0  0  0  0  0  0  0  0  0
  151.4634  142.3168  160.5232 H   0  0  0  0  0  0  0  0  0  0  0  0
  152.7242  142.3582  159.2942 H   0  0  0  0  0  0  0  0  0  0  0  0
  148.5815  142.3987  154.2630 H   0  0  0  0  0  0  0  0  0  0  0  0
  147.0745  143.1368  156.0796 H   0  0  0  0  0  0  0  0  0  0  0  0
  146.2648  141.5738  156.0834 H   0  0  0  0  0  0  0  0  0  0  0  0
  146.1384  142.6340  154.6829 H   0  0  0  0  0  0  0  0  0  0  0  0
  146.5988  141.6495  152.3713 H   0  0  0  0  0  0  0  0  0  0  0  0
  146.3140  139.1580  151.3006 H   0  0  0  0  0  0  0  0  0  0  0  0
  147.6306  137.5405  153.1252 H   0  0  0  0  0  0  0  0  0  0  0  0
  148.5817  142.2588  157.5156 H   0  0  0  0  0  0  0  0  0  0  0  0
  1  2  1  0  0  0  0
  1 17  1  0  0  0  0
  1 18  1  0  0  0  0
  1 19  1  0  0  0  0
  2  3  1  0  0  0  0
  2 10  1  0  0  0  0
  2 20  1  0  0  0  0
  3  4  1  0  0  0  0
  3 21  1  0  0  0  0
  3 40  1  0  0  0  0
  4  5  1  0  0  0  0
  4 22  1  0  0  0  0
  4 23  1  0  0  0  0
  5  9  1  0  0  0  0
  5  6  1  0  0  0  0
  5 24  1  0  0  0  0
  6  7  1  0  0  0  0
  6 25  1  0  0  0  0
  6 26  1  0  0  0  0
  7  8  1  0  0  0  0
  7 27  1  0  0  0  0
  7 28  1  0  0  0  0
  8  9  1  0  0  0  0
  8 29  1  0  0  0  0
  8 30  1  0  0  0  0
  9 31  1  0  0  0  0
  9 32  1  0  0  0  0
 10 11  1  0  0  0  0
 10 12  1  0  0  0  0
 10 33  1  0  0  0  0
 11 34  1  0  0  0  0
 11 35  1  0  0  0  0
 11 36  1  0  0  0  0
 12 16  1  0  0  0  0
 12 13  1  0  0  0  0
 13 14  2  0  0  0  0
 13 37  1  0  0  0  0
 14 15  1  0  0  0  0
 14 38  1  0  0  0  0
 15 16  2  0  0  0  0
 15 39  1  0  0  0  0
M  CHG  1   3   1
M  END
> <s_m_source_file>
AV-unprocessed.smi

> <i_m_source_file_index>
3157

> <i_lp_mmshare_version>
43012

> <i_f3d_flags>
0

> <s_epik_input>
bjFbY0hdW2NIXVtjSF1uMVtDQEBIXShbQ0gzXSlbQ0BIXShbQ0gzXSlbTkhdW0NIMl1bQ0hdMltDSDJdW0NIMl1bQ0gyXVtDSDJdMg==

> <s_epik_cmdline>
J2VwaWtfcHl0aG9uJywgJy1waCcsICc3LjAnLCAnLXRuJywgJzgnLCAnLW1hJywgJzIwMCcsICctbWV0YWxfYmluZGluZycsICctaW1hZScsICc8aW5maWxlLm1hZT4nLCAnLW9tYWUnLCAnPG91dGZpbGUubWFlPic=

> <r_lp_tautomer_probability>
1

> <r_epik_Ionization_Penalty>
0.00132192

> <r_epik_Ionization_Penalty_Charging>
0.0013111

> <r_epik_Ionization_Penalty_Neutral>
1.08112e-05

> <r_epik_State_Penalty>
-0

> <r_epik_Charging_Adjusted_Penalty>
0.0013111

> <i_epik_Tot_Q>
1

> <i_epik_Tot_abs_Q>
1

> <r_epik_Metal_State_Penalty>
-0

> <b_epik_Metal_Only>
0

> <s_lp_Force_Field>
OPLS_2005

> <r_lp_Energy>
32.0676

> <b_lp_Chiralities_Consistent>
1

> <s_lp_Variant>
AV-unprocessed.smi:3157-2

> <Gold.Version>
5.8.1

> <Gold.Id.Protein>
6NUR|6NUR_protein|mol2

> <Gold.PLP.Fitness>
42.7281

> <Gold.PLP.PLP>
-34.4158

> <Gold.PLP.part.hbond>
-1.0000

> <Gold.PLP.part.metal>
0.0000

> <Gold.PLP.part.buried>
2.0337

> <Gold.PLP.part.nonpolar>
-34.8041

> <Gold.PLP.part.repulsive>
0.1494

> <Gold.PLP.ligand.clash>
0.0000

> <Gold.PLP.ligand.torsion>
0.4168

> <Gold.PLP.Chemscore.Hbond>
2.0000

> <Gold.PLP.Chemscore.CHOScore>
1.0000

> <Gold.PLP.Chemscore.Metal>
0.0000

> <Gold.Chemscore.Hbonds>
donor molecule, donor type, donor heavy atom, donor atom, acceptor molecule, acceptor atom, score
      L1  H     3    21       P1  8028  2.00
      L1  C    15    39       P1  7948  1.00

> <Gold.PLP.Chemscore.Internal.Correction>
0.1459

> <Gold.Rescore>
     Score         DG    S(hbond)    S(metal)    S(lipo)     H(rot)  DE(clash)    DE(int)     intcor
     16.19     -18.20       0.99        0.00     113.45       1.50       0.38       1.64       ----

> <Gold.Chemscore.Fitness>
16.1882

> <Gold.Chemscore.DG>
-18.2023

> <Gold.Chemscore.ZeroCoef>
-5.4800

> <Gold.Chemscore.Hbond>
0.9881

> <Gold.Chemscore.Metal>
0.0000

> <Gold.Chemscore.Lipo>
113.4545

> <Gold.Chemscore.Internal_Hbond>
0.0000

> <Gold.Chemscore.DEClash>
0.3768

> <Gold.Chemscore.DEInternal>
1.6373

> <Gold.Chemscore.Rot>
1.5047

> <Gold.Chemscore.Internal.Correction>
   9.000000E+99

> <Gold.Chemscore.Hbonds>
donor molecule, donor type, donor heavy atom, donor atom, acceptor molecule, acceptor atom, score
      L1  H     3    21       P1  8028  0.99

> <Gold.Chemscore.Hbond.Weighted>
-3.3001

> <Gold.Chemscore.Metal.Weighted>
-0.0000

> <Gold.Chemscore.Lipo.Weighted>
-13.2742

> <Gold.Chemscore.Internal_Hbond.Weighted>
0.0000

> <Gold.Chemscore.DEClash.Weighted>
0.3768

> <Gold.Chemscore.DEInternal.Weighted>
1.6373

> <Gold.Chemscore.Rot.Weighted>
3.8520

> <Gold.Chemscore.Internal.Correction.Weighted>
   9.000000E+99

> <Gold.Protein.RotatedTorsions>
[ 6907 6896 6895 6894 ] final  -34.64 input  -60.11 | X-H torsion
[ 7974 7965 7964 7962 ] final  -73.89 input  175.53 | X-H torsion
[ 8008 7997 7996 7995 ] final  119.58 input   59.86 | X-H torsion
[ 10167 10162 10161 10158 ] final  171.88 input  -65.29 | X-H torsion
[ 10718 10713 10712 10709 ] final   -3.36 input   66.30 | X-H torsion
[ 10763 10752 10751 10750 ] final   85.34 input  -60.55 | X-H torsion
[ 11005 11000 10999 10996 ] final    1.46 input  -57.11 | X-H torsion

> <Gold.Protein.ActiveResidues>
 VAL166  LYS551  ARG553  GLY616  TRP617  ASP618  TYR619  PRO620  LYS621  CYS622 
 ASP623  PHE694  ASN695  SER759  ASP760  ASP761  ALA762  ILE779  LEU786  VAL792 
 PHE793  MET794  SER795  GLU796  ALA797  LYS798  CYS799  TRP800  GLU811  SER814 

> <Gold.Protein.RotatedAtoms>
  151.0500  134.9666  159.8206 H   0  0  0  0  0  0  0  0  0  0  0  0  # atno 6907 bound_to 6896
  152.5379  134.2549  159.8923 H   0  0  0  0  0  0  0  0  0  0  0  0  # atno 6908 bound_to 6896
  151.2564  133.4281  159.2648 H   0  0  0  0  0  0  0  0  0  0  0  0  # atno 6909 bound_to 6896
  145.6462  140.9296  143.1009 H   0  0  0  0  0  0  0  0  0  0  0  0  # atno 7974 bound_to 7965
  156.2603  140.2850  156.1014 H   0  0  0  0  0  0  0  0  0  0  0  0  # atno 8008 bound_to 7997
  155.1355  140.0394  157.2803 H   0  0  0  0  0  0  0  0  0  0  0  0  # atno 8009 bound_to 7997
  154.6568  140.2557  155.7159 H   0  0  0  0  0  0  0  0  0  0  0  0  # atno 8010 bound_to 7997
  139.5060  144.3436  151.9993 H   0  0  0  0  0  0  0  0  0  0  0  0  # atno 10167 bound_to 10162
  156.7771  130.5319  149.5757 H   0  0  0  0  0  0  0  0  0  0  0  0  # atno 10718 bound_to 10713
  153.1466  135.4620  154.9575 H   0  0  0  0  0  0  0  0  0  0  0  0  # atno 10763 bound_to 10752
  154.7791  135.3182  154.8031 H   0  0  0  0  0  0  0  0  0  0  0  0  # atno 10764 bound_to 10752
  153.8543  135.6918  153.4843 H   0  0  0  0  0  0  0  0  0  0  0  0  # atno 10765 bound_to 10752
  140.6152  133.9712  155.8197 H   0  0  0  0  0  0  0  0  0  0  0  0  # atno 11005 bound_to 11000
  144.7139  139.8268  143.7405 LP  0  0  0  0  0  0  0  0  0  0  0  0  # atno 17320 bound_to 7965
  146.1241  139.4264  143.0210 LP  0  0  0  0  0  0  0  0  0  0  0  0  # atno 17321 bound_to 7965
  140.2874  144.3792  150.6099 LP  0  0  0  0  0  0  0  0  0  0  0  0  # atno 17342 bound_to 10162
  140.5972  143.2167  151.7141 LP  0  0  0  0  0  0  0  0  0  0  0  0  # atno 17343 bound_to 10162
  156.1241  130.6131  151.0237 LP  0  0  0  0  0  0  0  0  0  0  0  0  # atno 17370 bound_to 10713
  157.6664  131.0871  150.7719 LP  0  0  0  0  0  0  0  0  0  0  0  0  # atno 17371 bound_to 10713
  141.0781  134.0104  157.3427 LP  0  0  0  0  0  0  0  0  0  0  0  0  # atno 17394 bound_to 11000
  139.9176  135.0198  156.7941 LP  0  0  0  0  0  0  0  0  0  0  0  0  # atno 17395 bound_to 11000

$$$$
