AV-unprocessed.smi:1366|AV-procd|sdf|5570|dock1
  -GOLD-   22720 5163D 1   1.00000     0.00000
 Structure written by MMmdl.
 31 32  0  0  0  0  0  0  0  0  1 V2000
  145.5352  142.0174  154.9574 N   0  0  0  0  0  0  0  0  0  0  0  0
  146.6160  141.6973  155.2187 C   0  0  0  0  0  0  0  0  0  0  0  0
  147.9765  141.2947  155.5475 C   0  0  0  0  0  0  0  0  0  0  0  0
  148.8302  140.7769  154.5486 C   0  0  0  0  0  0  0  0  0  0  0  0
  150.0966  140.3923  154.8190 N   0  0  0  0  0  0  0  0  0  0  0  0
  150.4967  140.5320  156.0838 C   0  0  0  0  0  0  0  0  0  0  0  0
  152.1552  140.0194  156.4436 S   0  0  0  0  0  0  0  0  0  0  0  0
  152.1648  140.3095  158.2336 C   0  0  0  0  0  0  0  0  0  0  0  0
  152.5407  141.7574  158.5754 C   0  0  2  0  0  0  0  0  0  0  0  0
  152.7329  141.9603  160.0909 C   0  0  0  0  0  0  0  0  0  0  0  0
  153.0253  143.4321  160.4048 C   0  0  0  0  0  0  0  0  0  0  0  0
  151.9405  144.3182  159.7834 C   0  0  0  0  0  0  0  0  0  0  0  0
  151.7818  143.9983  158.2887 C   0  0  0  0  0  0  0  0  0  0  0  0
  151.4955  142.6138  158.1181 O   0  0  0  0  0  0  0  0  0  0  0  0
  149.7917  141.0045  157.1134 N   0  0  0  0  0  0  0  0  0  0  0  0
  148.5235  141.3900  156.8530 C   0  0  0  0  0  0  0  0  0  0  0  0
  147.7948  141.8797  157.9386 N   0  0  0  0  0  0  0  0  0  0  0  0
  148.4999  140.6676  153.5256 H   0  0  0  0  0  0  0  0  0  0  0  0
  151.1807  140.0677  158.6370 H   0  0  0  0  0  0  0  0  0  0  0  0
  152.8760  139.6193  158.6883 H   0  0  0  0  0  0  0  0  0  0  0  0
  153.4667  142.0115  158.0560 H   0  0  0  0  0  0  0  0  0  0  0  0
  151.8325  141.6474  160.6214 H   0  0  0  0  0  0  0  0  0  0  0  0
  153.5458  141.3333  160.4579 H   0  0  0  0  0  0  0  0  0  0  0  0
  153.0746  143.5891  161.4826 H   0  0  0  0  0  0  0  0  0  0  0  0
  154.0006  143.7078  160.0016 H   0  0  0  0  0  0  0  0  0  0  0  0
  150.9915  144.1492  160.2940 H   0  0  0  0  0  0  0  0  0  0  0  0
  152.1875  145.3710  159.9210 H   0  0  0  0  0  0  0  0  0  0  0  0
  150.9639  144.5815  157.8654 H   0  0  0  0  0  0  0  0  0  0  0  0
  152.6828  144.2655  157.7345 H   0  0  0  0  0  0  0  0  0  0  0  0
  146.8388  142.1894  157.8388 H   0  0  0  0  0  0  0  0  0  0  0  0
  148.2014  141.9343  158.8615 H   0  0  0  0  0  0  0  0  0  0  0  0
  1  2  3  0  0  0  0
  2  3  1  0  0  0  0
  3 16  1  0  0  0  0
  3  4  2  0  0  0  0
  4  5  1  0  0  0  0
  4 18  1  0  0  0  0
  5  6  2  0  0  0  0
  6  7  1  0  0  0  0
  6 15  1  0  0  0  0
  7  8  1  0  0  0  0
  8  9  1  0  0  0  0
  8 19  1  0  0  0  0
  8 20  1  0  0  0  0
  9 14  1  0  0  0  0
  9 10  1  0  0  0  0
  9 21  1  0  0  0  0
 10 11  1  0  0  0  0
 10 22  1  0  0  0  0
 10 23  1  0  0  0  0
 11 12  1  0  0  0  0
 11 24  1  0  0  0  0
 11 25  1  0  0  0  0
 12 13  1  0  0  0  0
 12 26  1  0  0  0  0
 12 27  1  0  0  0  0
 13 14  1  0  0  0  0
 13 28  1  0  0  0  0
 13 29  1  0  0  0  0
 15 16  2  0  0  0  0
 16 17  1  0  0  0  0
 17 30  1  0  0  0  0
 17 31  1  0  0  0  0
M  END
> <s_m_source_file>
AV-unprocessed.smi

> <i_m_source_file_index>
1366

> <i_lp_mmshare_version>
43012

> <i_f3d_flags>
0

> <s_epik_input>
TiNDYzFbY0hdbmMobmMxW05IMl0pU1tDSDJdW0NAQEhdMltDSDJdW0NIMl1bQ0gyXVtDSDJdTzI=

> <s_epik_cmdline>
J2VwaWtfcHl0aG9uJywgJy1waCcsICc3LjAnLCAnLXRuJywgJzgnLCAnLW1hJywgJzIwMCcsICctbWV0YWxfYmluZGluZycsICctaW1hZScsICc8aW5maWxlLm1hZT4nLCAnLW9tYWUnLCAnPG91dGZpbGUubWFlPic=

> <r_lp_tautomer_probability>
1

> <r_epik_Ionization_Penalty>
5.69531e-05

> <r_epik_Ionization_Penalty_Charging>
0

> <r_epik_Ionization_Penalty_Neutral>
5.69531e-05

> <r_epik_State_Penalty>
-0

> <r_epik_Charging_Adjusted_Penalty>
0

> <i_epik_Tot_Q>
0

> <i_epik_Tot_abs_Q>
0

> <r_epik_Metal_State_Penalty>
-0

> <b_epik_Metal_Only>
0

> <s_lp_Force_Field>
OPLS_2005

> <r_lp_Energy>
5.78872

> <b_lp_Chiralities_Consistent>
1

> <s_lp_Variant>
AV-unprocessed.smi:1366-1

> <Gold.Version>
5.8.1

> <Gold.Id.Protein>
6NUR|6NUR_protein|mol2

> <Gold.PLP.Fitness>
41.3668

> <Gold.PLP.PLP>
-35.7430

> <Gold.PLP.part.hbond>
-2.0000

> <Gold.PLP.part.metal>
0.0000

> <Gold.PLP.part.buried>
-1.2749

> <Gold.PLP.part.nonpolar>
-32.2263

> <Gold.PLP.part.repulsive>
0.4505

> <Gold.PLP.ligand.clash>
0.0000

> <Gold.PLP.ligand.torsion>
0.1887

> <Gold.PLP.Chemscore.Hbond>
1.0000

> <Gold.PLP.Chemscore.CHOScore>
1.0000

> <Gold.PLP.Chemscore.Metal>
0.0000

> <Gold.Chemscore.Hbonds>
donor molecule, donor type, donor heavy atom, donor atom, acceptor molecule, acceptor atom, score
      P1  H  7989  7998       L1     5  0.89
      L1  C     4    18       P1  7957  0.62

> <Gold.PLP.Chemscore.Internal.Correction>
0.0012

> <Gold.Rescore>
     Score         DG    S(hbond)    S(metal)    S(lipo)     H(rot)  DE(clash)    DE(int)     intcor
     11.07     -13.25       0.77        0.00      82.25       1.73       0.22       1.96       ----

> <Gold.Chemscore.Fitness>
11.0675

> <Gold.Chemscore.DG>
-13.2478

> <Gold.Chemscore.ZeroCoef>
-5.4800

> <Gold.Chemscore.Hbond>
0.7680

> <Gold.Chemscore.Metal>
0.0000

> <Gold.Chemscore.Lipo>
82.2464

> <Gold.Chemscore.Internal_Hbond>
0.0000

> <Gold.Chemscore.DEClash>
0.2195

> <Gold.Chemscore.DEInternal>
1.9609

> <Gold.Chemscore.Rot>
1.7266

> <Gold.Chemscore.Internal.Correction>
   9.000000E+99

> <Gold.Chemscore.Hbonds>
donor molecule, donor type, donor heavy atom, donor atom, acceptor molecule, acceptor atom, score
      P1  H  7989  7998       L1     5  0.61

> <Gold.Chemscore.Hbond.Weighted>
-2.5650

> <Gold.Chemscore.Metal.Weighted>
-0.0000

> <Gold.Chemscore.Lipo.Weighted>
-9.6228

> <Gold.Chemscore.Internal_Hbond.Weighted>
0.0000

> <Gold.Chemscore.DEClash.Weighted>
0.2195

> <Gold.Chemscore.DEInternal.Weighted>
1.9609

> <Gold.Chemscore.Rot.Weighted>
4.4200

> <Gold.Chemscore.Internal.Correction.Weighted>
   9.000000E+99

> <Gold.Protein.RotatedTorsions>
[ 6907 6896 6895 6894 ] final  -97.25 input  -60.11 | X-H torsion
[ 7974 7965 7964 7962 ] final  113.52 input  175.53 | X-H torsion
[ 8008 7997 7996 7995 ] final  -74.88 input   59.86 | X-H torsion
[ 10167 10162 10161 10158 ] final -171.55 input  -65.29 | X-H torsion
[ 10718 10713 10712 10709 ] final  141.63 input   66.30 | X-H torsion
[ 10763 10752 10751 10750 ] final  -99.80 input  -60.55 | X-H torsion
[ 11005 11000 10999 10996 ] final  110.09 input  -57.11 | X-H torsion

> <Gold.Protein.ActiveResidues>
 VAL166  LYS551  ARG553  GLY616  TRP617  ASP618  TYR619  PRO620  LYS621  CYS622 
 ASP623  PHE694  ASN695  SER759  ASP760  ASP761  ALA762  ILE779  LEU786  VAL792 
 PHE793  MET794  SER795  GLU796  ALA797  LYS798  CYS799  TRP800  GLU811  SER814 

> <Gold.Protein.RotatedAtoms>
  150.7011  134.1377  159.4092 H   0  0  0  0  0  0  0  0  0  0  0  0  # atno 6907 bound_to 6896
  151.9362  135.0232  160.0542 H   0  0  0  0  0  0  0  0  0  0  0  0  # atno 6908 bound_to 6896
  152.2133  133.4892  159.5159 H   0  0  0  0  0  0  0  0  0  0  0  0  # atno 6909 bound_to 6896
  145.2159  139.2884  143.4244 H   0  0  0  0  0  0  0  0  0  0  0  0  # atno 7974 bound_to 7965
  154.5368  140.0754  156.8442 H   0  0  0  0  0  0  0  0  0  0  0  0  # atno 8008 bound_to 7997
  155.3261  140.3399  155.4222 H   0  0  0  0  0  0  0  0  0  0  0  0  # atno 8009 bound_to 7997
  156.1836  140.1661  156.8214 H   0  0  0  0  0  0  0  0  0  0  0  0  # atno 8010 bound_to 7997
  139.5796  144.1454  152.1497 H   0  0  0  0  0  0  0  0  0  0  0  0  # atno 10167 bound_to 10162
  157.3898  131.1003  151.0657 H   0  0  0  0  0  0  0  0  0  0  0  0  # atno 10718 bound_to 10713
  154.7527  135.4959  153.9318 H   0  0  0  0  0  0  0  0  0  0  0  0  # atno 10763 bound_to 10752
  153.1161  135.6721  153.9423 H   0  0  0  0  0  0  0  0  0  0  0  0  # atno 10764 bound_to 10752
  153.9168  135.3093  155.3427 H   0  0  0  0  0  0  0  0  0  0  0  0  # atno 10765 bound_to 10752
  139.8875  134.9475  156.6225 H   0  0  0  0  0  0  0  0  0  0  0  0  # atno 11005 bound_to 11000
  146.3387  140.2449  142.8597 LP  0  0  0  0  0  0  0  0  0  0  0  0  # atno 17320 bound_to 7965
  144.9811  140.8460  143.5396 LP  0  0  0  0  0  0  0  0  0  0  0  0  # atno 17321 bound_to 7965
  140.1004  144.5544  150.6993 LP  0  0  0  0  0  0  0  0  0  0  0  0  # atno 17342 bound_to 10162
  140.7075  143.2479  151.4681 LP  0  0  0  0  0  0  0  0  0  0  0  0  # atno 17343 bound_to 10162
  157.1695  130.6261  149.5636 LP  0  0  0  0  0  0  0  0  0  0  0  0  # atno 17370 bound_to 10713
  155.9795  130.4790  150.6721 LP  0  0  0  0  0  0  0  0  0  0  0  0  # atno 17371 bound_to 10713
  140.7728  133.8724  155.8505 LP  0  0  0  0  0  0  0  0  0  0  0  0  # atno 17394 bound_to 11000
  140.9827  134.1384  157.4480 LP  0  0  0  0  0  0  0  0  0  0  0  0  # atno 17395 bound_to 11000

$$$$
