AV-unprocessed.smi:2252|AV-procd|sdf|9107|dock3
  -GOLD-   2272012313D 1   1.00000     0.00000
 Structure written by MMmdl.
 45 47  0  0  0  0  0  0  0  0  2 V2000
  152.9619  142.6221  160.2115 C   0  0  0  0  0  0  0  0  0  0  0  0
  152.1390  143.5258  159.4043 N   0  0  0  0  0  0  0  0  0  0  0  0
  151.9140  144.8580  159.6406 C   0  0  0  0  0  0  0  0  0  0  0  0
  151.0939  145.3022  158.6363 C   0  0  0  0  0  0  0  0  0  0  0  0
  150.8515  144.2235  157.8295 N   0  3  0  0  0  0  0  0  0  0  0  0
  151.4831  143.1403  158.2972 C   0  0  0  0  0  0  0  0  0  0  0  0
  151.4617  141.7817  157.6706 C   0  0  0  0  0  0  0  0  0  0  0  0
  150.9869  141.8091  156.2087 C   0  0  0  0  0  0  0  0  0  0  0  0
  149.5712  141.4809  156.1022 N   0  0  0  0  0  0  0  0  0  0  0  0
  148.9171  141.2750  154.9482 C   0  0  0  0  0  0  0  0  0  0  0  0
  149.4585  141.3573  153.8448 O   0  0  0  0  0  0  0  0  0  0  0  0
  147.4192  140.9365  155.0541 C   0  0  2  0  0  0  0  0  0  0  0  0
  147.0074  140.0339  153.8704 C   0  0  0  0  0  0  0  0  0  0  0  0
  146.1505  138.8046  154.0895 C   0  0  0  0  0  0  0  0  0  0  0  0
  147.5985  138.6465  153.7124 C   0  0  0  0  0  0  0  0  0  0  0  0
  146.5589  142.1438  155.1199 N   0  0  0  0  0  0  0  0  0  0  0  0
  145.2124  141.9236  155.6455 C   0  0  0  0  0  0  0  0  0  0  0  0
  144.4548  143.1978  155.2684 C   0  0  0  0  0  0  0  0  0  0  0  0
  145.2171  143.7665  154.0756 C   0  0  0  0  0  0  0  0  0  0  0  0
  146.3344  142.7572  153.8143 C   0  0  0  0  0  0  0  0  0  0  0  0
  153.4335  143.1819  161.0198 H   0  0  0  0  0  0  0  0  0  0  0  0
  153.7346  142.1752  159.5852 H   0  0  0  0  0  0  0  0  0  0  0  0
  152.3310  141.8398  160.6349 H   0  0  0  0  0  0  0  0  0  0  0  0
  152.3444  145.3794  160.4834 H   0  0  0  0  0  0  0  0  0  0  0  0
  150.6767  146.2792  158.4397 H   0  0  0  0  0  0  0  0  0  0  0  0
  152.4667  141.3679  157.7580 H   0  0  0  0  0  0  0  0  0  0  0  0
  150.8047  141.1590  158.2792 H   0  0  0  0  0  0  0  0  0  0  0  0
  151.1407  142.8020  155.7855 H   0  0  0  0  0  0  0  0  0  0  0  0
  151.5711  141.1186  155.5984 H   0  0  0  0  0  0  0  0  0  0  0  0
  149.0501  141.4040  156.9640 H   0  0  0  0  0  0  0  0  0  0  0  0
  147.2847  140.3716  155.9790 H   0  0  0  0  0  0  0  0  0  0  0  0
  146.8473  140.5744  152.9387 H   0  0  0  0  0  0  0  0  0  0  0  0
  145.8677  138.5577  155.1107 H   0  0  0  0  0  0  0  0  0  0  0  0
  145.4044  138.5740  153.3317 H   0  0  0  0  0  0  0  0  0  0  0  0
  147.8221  138.3099  152.7022 H   0  0  0  0  0  0  0  0  0  0  0  0
  148.2781  138.2891  154.4835 H   0  0  0  0  0  0  0  0  0  0  0  0
  144.7566  141.0600  155.1574 H   0  0  0  0  0  0  0  0  0  0  0  0
  145.2045  141.7517  156.7225 H   0  0  0  0  0  0  0  0  0  0  0  0
  143.4127  142.9846  155.0280 H   0  0  0  0  0  0  0  0  0  0  0  0
  144.4660  143.9104  156.0943 H   0  0  0  0  0  0  0  0  0  0  0  0
  144.5801  143.8991  153.2005 H   0  0  0  0  0  0  0  0  0  0  0  0
  145.6379  144.7400  154.3316 H   0  0  0  0  0  0  0  0  0  0  0  0
  147.2316  143.2335  153.4177 H   0  0  0  0  0  0  0  0  0  0  0  0
  145.9991  142.0075  153.0949 H   0  0  0  0  0  0  0  0  0  0  0  0
  150.2756  144.2388  156.9971 H   0  0  0  0  0  0  0  0  0  0  0  0
  1  2  1  0  0  0  0
  1 21  1  0  0  0  0
  1 22  1  0  0  0  0
  1 23  1  0  0  0  0
  2  6  1  0  0  0  0
  2  3  1  0  0  0  0
  3  4  2  0  0  0  0
  3 24  1  0  0  0  0
  4  5  1  0  0  0  0
  4 25  1  0  0  0  0
  5  6  2  0  0  0  0
  5 45  1  0  0  0  0
  6  7  1  0  0  0  0
  7  8  1  0  0  0  0
  7 26  1  0  0  0  0
  7 27  1  0  0  0  0
  8  9  1  0  0  0  0
  8 28  1  0  0  0  0
  8 29  1  0  0  0  0
  9 10  1  0  0  0  0
  9 30  1  0  0  0  0
 10 11  2  0  0  0  0
 10 12  1  0  0  0  0
 12 13  1  0  0  0  0
 12 16  1  0  0  0  0
 12 31  1  0  0  0  0
 13 15  1  0  0  0  0
 13 14  1  0  0  0  0
 13 32  1  0  0  0  0
 14 15  1  0  0  0  0
 14 33  1  0  0  0  0
 14 34  1  0  0  0  0
 15 35  1  0  0  0  0
 15 36  1  0  0  0  0
 16 20  1  0  0  0  0
 16 17  1  0  0  0  0
 17 18  1  0  0  0  0
 17 37  1  0  0  0  0
 17 38  1  0  0  0  0
 18 19  1  0  0  0  0
 18 39  1  0  0  0  0
 18 40  1  0  0  0  0
 19 20  1  0  0  0  0
 19 41  1  0  0  0  0
 19 42  1  0  0  0  0
 20 43  1  0  0  0  0
 20 44  1  0  0  0  0
M  CHG  1   5   1
M  END
> <s_m_source_file>
AV-unprocessed.smi

> <i_m_source_file_index>
2252

> <i_lp_mmshare_version>
43012

> <i_f3d_flags>
0

> <s_epik_input>
W0NIM11uMVtjSF1bY0hdbmMxW0NIMl1bQ0gyXVtOSF1DKD1PKVtDQEhdKFtDSF0yW0NIMl1bQ0gyXTIpTjNbQ0gyXVtDSDJdW0NIMl1bQ0gyXTM=

> <s_epik_cmdline>
J2VwaWtfcHl0aG9uJywgJy1waCcsICc3LjAnLCAnLXRuJywgJzgnLCAnLW1hJywgJzIwMCcsICctbWV0YWxfYmluZGluZycsICctaW1hZScsICc8aW5maWxlLm1hZT4nLCAnLW9tYWUnLCAnPG91dGZpbGUubWFlPic=

> <r_epik_Ionization_Penalty>
2.52117

> <r_epik_Ionization_Penalty_Charging>
0

> <r_epik_Ionization_Penalty_Neutral>
2.52117

> <r_epik_State_Penalty>
2.63608

> <r_epik_Charging_Adjusted_Penalty>
2.63608

> <i_epik_Tot_Q>
1

> <i_epik_Tot_abs_Q>
1

> <r_epik_Metal_State_Penalty>
2.94973

> <b_epik_Metal_Only>
0

> <s_lp_Force_Field>
OPLS_2005

> <r_lp_Energy>
33.8127

> <b_lp_Chiralities_Consistent>
1

> <s_lp_Variant>
AV-unprocessed.smi:2252-5

> <Gold.Version>
5.8.1

> <Gold.Id.Protein>
6NUR|6NUR_protein|mol2

> <Gold.PLP.Fitness>
48.5086

> <Gold.PLP.PLP>
-42.7016

> <Gold.PLP.part.hbond>
-3.0000

> <Gold.PLP.part.metal>
0.0000

> <Gold.PLP.part.buried>
-7.2798

> <Gold.PLP.part.nonpolar>
-32.5251

> <Gold.PLP.part.repulsive>
1.3707

> <Gold.PLP.ligand.clash>
0.0000

> <Gold.PLP.ligand.torsion>
2.1879

> <Gold.PLP.Chemscore.Hbond>
2.9840

> <Gold.PLP.Chemscore.CHOScore>
0.0000

> <Gold.PLP.Chemscore.Metal>
0.0000

> <Gold.Chemscore.Hbonds>
donor molecule, donor type, donor heavy atom, donor atom, acceptor molecule, acceptor atom, score
      L1  H     5    45       P1  8028  2.00
      P1  H  7989  7998       L1    11  0.13
      P1  H  8011  8017       L1    11  0.80

> <Gold.PLP.Chemscore.Internal.Correction>
1.2310

> <Gold.Rescore>
     Score         DG    S(hbond)    S(metal)    S(lipo)     H(rot)  DE(clash)    DE(int)     intcor
     14.86     -17.51       1.99        0.00      88.90       1.96       0.68       1.96       ----

> <Gold.Chemscore.Fitness>
14.8648

> <Gold.Chemscore.DG>
-17.5122

> <Gold.Chemscore.ZeroCoef>
-5.4800

> <Gold.Chemscore.Hbond>
1.9903

> <Gold.Chemscore.Metal>
0.0000

> <Gold.Chemscore.Lipo>
88.8981

> <Gold.Chemscore.Internal_Hbond>
0.0000

> <Gold.Chemscore.DEClash>
0.6826

> <Gold.Chemscore.DEInternal>
1.9648

> <Gold.Chemscore.Rot>
1.9595

> <Gold.Chemscore.Internal.Correction>
   9.000000E+99

> <Gold.Chemscore.Hbonds>
donor molecule, donor type, donor heavy atom, donor atom, acceptor molecule, acceptor atom, score
      L1  H     5    45       P1  8028  0.89
      P1  H  7989  7998       L1    11  0.13
      P1  H  8011  8017       L1    11  0.80

> <Gold.Chemscore.Hbond.Weighted>
-6.6476

> <Gold.Chemscore.Metal.Weighted>
-0.0000

> <Gold.Chemscore.Lipo.Weighted>
-10.4011

> <Gold.Chemscore.Internal_Hbond.Weighted>
0.0000

> <Gold.Chemscore.DEClash.Weighted>
0.6826

> <Gold.Chemscore.DEInternal.Weighted>
1.9648

> <Gold.Chemscore.Rot.Weighted>
5.0164

> <Gold.Chemscore.Internal.Correction.Weighted>
   9.000000E+99

> <Gold.Protein.RotatedTorsions>
[ 6907 6896 6895 6894 ] final -138.12 input  -60.11 | X-H torsion
[ 7974 7965 7964 7962 ] final   99.90 input  175.53 | X-H torsion
[ 8008 7997 7996 7995 ] final  -85.37 input   59.86 | X-H torsion
[ 10167 10162 10161 10158 ] final -153.85 input  -65.29 | X-H torsion
[ 10718 10713 10712 10709 ] final -108.25 input   66.30 | X-H torsion
[ 10763 10752 10751 10750 ] final   84.17 input  -60.55 | X-H torsion
[ 11005 11000 10999 10996 ] final  125.42 input  -57.11 | X-H torsion

> <Gold.Protein.ActiveResidues>
 VAL166  LYS551  ARG553  GLY616  TRP617  ASP618  TYR619  PRO620  LYS621  CYS622 
 ASP623  PHE694  ASN695  SER759  ASP760  ASP761  ALA762  ILE779  LEU786  VAL792 
 PHE793  MET794  SER795  GLU796  ALA797  LYS798  CYS799  TRP800  GLU811  SER814 

> <Gold.Protein.RotatedAtoms>
  151.0310  133.5790  159.2660 H   0  0  0  0  0  0  0  0  0  0  0  0  # atno 6907 bound_to 6896
  151.2872  135.0730  159.9200 H   0  0  0  0  0  0  0  0  0  0  0  0  # atno 6908 bound_to 6896
  152.5344  134.0015  159.7951 H   0  0  0  0  0  0  0  0  0  0  0  0  # atno 6909 bound_to 6896
  145.3927  139.2360  143.3343 H   0  0  0  0  0  0  0  0  0  0  0  0  # atno 7974 bound_to 7965
  154.6400  140.0592  156.9834 H   0  0  0  0  0  0  0  0  0  0  0  0  # atno 8008 bound_to 7997
  155.1532  140.3276  155.4408 H   0  0  0  0  0  0  0  0  0  0  0  0  # atno 8009 bound_to 7997
  156.2526  140.1944  156.6642 H   0  0  0  0  0  0  0  0  0  0  0  0  # atno 8010 bound_to 7997
  139.7062  143.9183  152.2449 H   0  0  0  0  0  0  0  0  0  0  0  0  # atno 10167 bound_to 10162
  156.0476  130.5703  150.7935 H   0  0  0  0  0  0  0  0  0  0  0  0  # atno 10718 bound_to 10713
  153.1357  135.4664  154.9418 H   0  0  0  0  0  0  0  0  0  0  0  0  # atno 10763 bound_to 10752
  154.7703  135.3157  154.8204 H   0  0  0  0  0  0  0  0  0  0  0  0  # atno 10764 bound_to 10752
  153.8737  135.6901  153.4826 H   0  0  0  0  0  0  0  0  0  0  0  0  # atno 10765 bound_to 10752
  139.9406  134.9636  156.8556 H   0  0  0  0  0  0  0  0  0  0  0  0  # atno 11005 bound_to 11000
  146.2790  140.4612  142.8784 LP  0  0  0  0  0  0  0  0  0  0  0  0  # atno 17320 bound_to 7965
  144.8429  140.6885  143.6218 LP  0  0  0  0  0  0  0  0  0  0  0  0  # atno 17321 bound_to 7965
  139.9039  144.6896  150.8635 LP  0  0  0  0  0  0  0  0  0  0  0  0  # atno 17342 bound_to 10162
  140.7722  143.3493  151.2046 LP  0  0  0  0  0  0  0  0  0  0  0  0  # atno 17343 bound_to 10162
  157.5369  131.0939  150.9880 LP  0  0  0  0  0  0  0  0  0  0  0  0  # atno 17370 bound_to 10713
  157.0172  130.5660  149.5327 LP  0  0  0  0  0  0  0  0  0  0  0  0  # atno 17371 bound_to 10713
  140.5962  134.0215  155.7519 LP  0  0  0  0  0  0  0  0  0  0  0  0  # atno 17394 bound_to 11000
  141.1038  133.9725  157.3032 LP  0  0  0  0  0  0  0  0  0  0  0  0  # atno 17395 bound_to 11000

$$$$
