AV-unprocessed.smi:2345|AV-procd|sdf|9364|dock7
  -GOLD-   2272012583D 1   1.00000     0.00000
 Structure written by MMmdl.
 37 38  0  0  0  0  0  0  0  0  1 V2000
  155.1436  140.9904  160.4557 C   0  0  0  0  0  0  0  0  0  0  0  0
  154.0150  142.0116  160.2958 C   0  0  0  0  0  0  0  0  0  0  0  0
  152.6102  141.3114  159.3861 S   0  0  0  0  0  0  0  0  0  0  0  0
  151.5636  142.7858  159.2005 C   0  0  1  0  0  0  0  0  0  0  0  0
  151.7974  143.8024  160.3212 C   0  0  0  0  0  0  0  0  0  0  0  0
  151.3767  145.1353  159.7118 C   0  0  0  0  0  0  0  0  0  0  0  0
  151.8527  145.0502  158.2614 C   0  0  0  0  0  0  0  0  0  0  0  0
  151.8186  143.5548  157.8861 C   0  0  2  0  0  0  0  0  0  0  0  0
  150.7650  143.2770  156.9127 N   0  0  0  0  0  0  0  0  0  0  0  0
  150.4751  142.0660  156.4174 C   0  0  0  0  0  0  0  0  0  0  0  0
  151.0870  141.0438  156.7263 O   0  0  0  0  0  0  0  0  0  0  0  0
  149.4330  142.1261  155.5711 N   0  0  0  0  0  0  0  0  0  0  0  0
  148.8170  141.0731  154.8408 C   0  0  0  0  0  0  0  0  0  0  0  0
  149.4262  139.8207  154.5840 C   0  0  0  0  0  0  0  0  0  0  0  0
  148.7141  138.8658  153.8307 C   0  0  0  0  0  0  0  0  0  0  0  0
  147.4795  139.0828  153.3299 N   0  0  0  0  0  0  0  0  0  0  0  0
  146.9077  140.2826  153.5645 C   0  0  0  0  0  0  0  0  0  0  0  0
  147.5322  141.3059  154.3055 C   0  0  0  0  0  0  0  0  0  0  0  0
  146.9026  142.4902  154.5006 F   0  0  0  0  0  0  0  0  0  0  0  0
  155.9808  141.4200  161.0059 H   0  0  0  0  0  0  0  0  0  0  0  0
  155.5166  140.6622  159.4851 H   0  0  0  0  0  0  0  0  0  0  0  0
  154.8029  140.1099  161.0010 H   0  0  0  0  0  0  0  0  0  0  0  0
  153.6757  142.3447  161.2766 H   0  0  0  0  0  0  0  0  0  0  0  0
  154.3807  142.8904  159.7644 H   0  0  0  0  0  0  0  0  0  0  0  0
  150.5200  142.4702  159.2526 H   0  0  0  0  0  0  0  0  0  0  0  0
  151.2417  143.5617  161.2279 H   0  0  0  0  0  0  0  0  0  0  0  0
  152.8565  143.8426  160.5803 H   0  0  0  0  0  0  0  0  0  0  0  0
  150.2900  145.2251  159.7387 H   0  0  0  0  0  0  0  0  0  0  0  0
  151.7963  145.9911  160.2412 H   0  0  0  0  0  0  0  0  0  0  0  0
  151.2527  145.6784  157.6013 H   0  0  0  0  0  0  0  0  0  0  0  0
  152.8798  145.4117  158.1970 H   0  0  0  0  0  0  0  0  0  0  0  0
  152.7887  143.2730  157.4718 H   0  0  0  0  0  0  0  0  0  0  0  0
  150.2099  144.0630  156.6071 H   0  0  0  0  0  0  0  0  0  0  0  0
  148.9859  143.0269  155.4824 H   0  0  0  0  0  0  0  0  0  0  0  0
  150.4176  139.5780  154.9335 H   0  0  0  0  0  0  0  0  0  0  0  0
  149.1526  137.9016  153.6193 H   0  0  0  0  0  0  0  0  0  0  0  0
  145.9227  140.4328  153.1476 H   0  0  0  0  0  0  0  0  0  0  0  0
  1  2  1  0  0  0  0
  1 20  1  0  0  0  0
  1 21  1  0  0  0  0
  1 22  1  0  0  0  0
  2  3  1  0  0  0  0
  2 23  1  0  0  0  0
  2 24  1  0  0  0  0
  3  4  1  0  0  0  0
  4  8  1  0  0  0  0
  4  5  1  0  0  0  0
  4 25  1  0  0  0  0
  5  6  1  0  0  0  0
  5 26  1  0  0  0  0
  5 27  1  0  0  0  0
  6  7  1  0  0  0  0
  6 28  1  0  0  0  0
  6 29  1  0  0  0  0
  7  8  1  0  0  0  0
  7 30  1  0  0  0  0
  7 31  1  0  0  0  0
  8  9  1  0  0  0  0
  8 32  1  0  0  0  0
  9 10  1  0  0  0  0
  9 33  1  0  0  0  0
 10 11  2  0  0  0  0
 10 12  1  0  0  0  0
 12 13  1  0  0  0  0
 12 34  1  0  0  0  0
 13 18  1  0  0  0  0
 13 14  2  0  0  0  0
 14 15  1  0  0  0  0
 14 35  1  0  0  0  0
 15 16  2  0  0  0  0
 15 36  1  0  0  0  0
 16 17  1  0  0  0  0
 17 18  2  0  0  0  0
 17 37  1  0  0  0  0
 18 19  1  0  0  0  0
M  END
> <s_m_source_file>
AV-unprocessed.smi

> <i_m_source_file_index>
2345

> <i_lp_mmshare_version>
43012

> <i_f3d_flags>
0

> <s_epik_input>
W0NIM11bQ0gyXVNbQ0BASF0xW0NIMl1bQ0gyXVtDSDJdW0NASF0xW05IXUMoPU8pW05IXWMyW2NIXVtjSF1uW2NIXWMyRg==

> <s_epik_cmdline>
J2VwaWtfcHl0aG9uJywgJy1waCcsICc3LjAnLCAnLXRuJywgJzgnLCAnLW1hJywgJzIwMCcsICctbWV0YWxfYmluZGluZycsICctaW1hZScsICc8aW5maWxlLm1hZT4nLCAnLW9tYWUnLCAnPG91dGZpbGUubWFlPic=

> <r_epik_Ionization_Penalty>
0.00333745

> <r_epik_Ionization_Penalty_Charging>
0

> <r_epik_Ionization_Penalty_Neutral>
0.00333745

> <r_epik_State_Penalty>
0.00233401

> <r_epik_Charging_Adjusted_Penalty>
0.00233401

> <i_epik_Tot_Q>
0

> <i_epik_Tot_abs_Q>
0

> <r_epik_Metal_State_Penalty>
-0

> <b_epik_Metal_Only>
0

> <s_lp_Force_Field>
OPLS_2005

> <r_lp_Energy>
20.2483

> <b_lp_Chiralities_Consistent>
1

> <s_lp_Variant>
AV-unprocessed.smi:2345-4

> <Gold.Version>
5.8.1

> <Gold.Id.Protein>
6NUR|6NUR_protein|mol2

> <Gold.PLP.Fitness>
55.8962

> <Gold.PLP.PLP>
-45.0192

> <Gold.PLP.part.hbond>
-2.0000

> <Gold.PLP.part.metal>
0.0000

> <Gold.PLP.part.buried>
-3.7391

> <Gold.PLP.part.nonpolar>
-39.6276

> <Gold.PLP.part.repulsive>
1.1858

> <Gold.PLP.ligand.clash>
0.0000

> <Gold.PLP.ligand.torsion>
0.5066

> <Gold.PLP.Chemscore.Hbond>
1.9600

> <Gold.PLP.Chemscore.CHOScore>
2.0000

> <Gold.PLP.Chemscore.Metal>
0.0000

> <Gold.Chemscore.Hbonds>
donor molecule, donor type, donor heavy atom, donor atom, acceptor molecule, acceptor atom, score
      L1  H     9    33       P1  8028  1.00
      L1  H    12    34       P1  8028  1.00
      L1  C    15    36       P1  7948  1.00
      L1  C    17    37       P1 10175  1.00

> <Gold.PLP.Chemscore.Internal.Correction>
0.0102

> <Gold.Rescore>
     Score         DG    S(hbond)    S(metal)    S(lipo)     H(rot)  DE(clash)    DE(int)     intcor
     20.57     -22.20       1.93        0.00     117.39       1.35       0.03       1.60       ----

> <Gold.Chemscore.Fitness>
20.5699

> <Gold.Chemscore.DG>
-22.2001

> <Gold.Chemscore.ZeroCoef>
-5.4800

> <Gold.Chemscore.Hbond>
1.9266

> <Gold.Chemscore.Metal>
0.0000

> <Gold.Chemscore.Lipo>
117.3934

> <Gold.Chemscore.Internal_Hbond>
0.0000

> <Gold.Chemscore.DEClash>
0.0321

> <Gold.Chemscore.DEInternal>
1.5980

> <Gold.Chemscore.Rot>
1.3475

> <Gold.Chemscore.Internal.Correction>
   9.000000E+99

> <Gold.Chemscore.Hbonds>
donor molecule, donor type, donor heavy atom, donor atom, acceptor molecule, acceptor atom, score
      L1  H     9    33       P1  8028  0.96
      L1  H    12    34       P1  8028  0.98

> <Gold.Chemscore.Hbond.Weighted>
-6.4347

> <Gold.Chemscore.Metal.Weighted>
-0.0000

> <Gold.Chemscore.Lipo.Weighted>
-13.7350

> <Gold.Chemscore.Internal_Hbond.Weighted>
0.0000

> <Gold.Chemscore.DEClash.Weighted>
0.0321

> <Gold.Chemscore.DEInternal.Weighted>
1.5980

> <Gold.Chemscore.Rot.Weighted>
3.4496

> <Gold.Chemscore.Internal.Correction.Weighted>
   9.000000E+99

> <Gold.Protein.RotatedTorsions>
[ 6907 6896 6895 6894 ] final  -58.48 input  -60.11 | X-H torsion
[ 7974 7965 7964 7962 ] final -100.38 input  175.53 | X-H torsion
[ 8008 7997 7996 7995 ] final   95.83 input   59.86 | X-H torsion
[ 10167 10162 10161 10158 ] final -171.18 input  -65.29 | X-H torsion
[ 10718 10713 10712 10709 ] final  -20.85 input   66.30 | X-H torsion
[ 10763 10752 10751 10750 ] final  -71.55 input  -60.55 | X-H torsion
[ 11005 11000 10999 10996 ] final -137.60 input  -57.11 | X-H torsion

> <Gold.Protein.ActiveResidues>
 VAL166  LYS551  ARG553  GLY616  TRP617  ASP618  TYR619  PRO620  LYS621  CYS622 
 ASP623  PHE694  ASN695  SER759  ASP760  ASP761  ALA762  ILE779  LEU786  VAL792 
 PHE793  MET794  SER795  GLU796  ALA797  LYS798  CYS799  TRP800  GLU811  SER814 

> <Gold.Protein.RotatedAtoms>
  150.8004  134.7093  159.6594 H   0  0  0  0  0  0  0  0  0  0  0  0  # atno 6907 bound_to 6896
  152.4120  134.6104  160.0034 H   0  0  0  0  0  0  0  0  0  0  0  0  # atno 6908 bound_to 6896
  151.6344  133.3293  159.3152 H   0  0  0  0  0  0  0  0  0  0  0  0  # atno 6909 bound_to 6896
  145.2953  140.9363  143.2854 H   0  0  0  0  0  0  0  0  0  0  0  0  # atno 7974 bound_to 7965
  156.0731  140.3281  155.7600 H   0  0  0  0  0  0  0  0  0  0  0  0  # atno 8008 bound_to 7997
  155.5274  140.0590  157.2913 H   0  0  0  0  0  0  0  0  0  0  0  0  # atno 8009 bound_to 7997
  154.4541  140.1933  156.0450 H   0  0  0  0  0  0  0  0  0  0  0  0  # atno 8010 bound_to 7997
  139.5817  144.1408  152.1524 H   0  0  0  0  0  0  0  0  0  0  0  0  # atno 10167 bound_to 10162
  156.5261  130.4644  149.6571 H   0  0  0  0  0  0  0  0  0  0  0  0  # atno 10718 bound_to 10713
  154.4333  135.5958  153.6082 H   0  0  0  0  0  0  0  0  0  0  0  0  # atno 10763 bound_to 10752
  152.9800  135.5980  154.3813 H   0  0  0  0  0  0  0  0  0  0  0  0  # atno 10764 bound_to 10752
  154.3653  135.2841  155.2275 H   0  0  0  0  0  0  0  0  0  0  0  0  # atno 10765 bound_to 10752
  140.8695  134.2068  157.4659 H   0  0  0  0  0  0  0  0  0  0  0  0  # atno 11005 bound_to 11000
  144.9139  139.4495  143.6574 LP  0  0  0  0  0  0  0  0  0  0  0  0  # atno 17320 bound_to 7965
  146.3171  139.7962  142.8975 LP  0  0  0  0  0  0  0  0  0  0  0  0  # atno 17321 bound_to 7965
  140.0963  144.5578  150.7020 LP  0  0  0  0  0  0  0  0  0  0  0  0  # atno 17342 bound_to 10162
  140.7095  143.2493  151.4626 LP  0  0  0  0  0  0  0  0  0  0  0  0  # atno 17343 bound_to 10162
  156.3103  130.7225  151.2116 LP  0  0  0  0  0  0  0  0  0  0  0  0  # atno 17370 bound_to 10713
  157.7429  131.0483  150.4987 LP  0  0  0  0  0  0  0  0  0  0  0  0  # atno 17371 bound_to 10713
  139.8711  134.9768  156.4933 LP  0  0  0  0  0  0  0  0  0  0  0  0  # atno 17394 bound_to 11000
  140.8589  133.8074  155.9245 LP  0  0  0  0  0  0  0  0  0  0  0  0  # atno 17395 bound_to 11000

$$$$
