AV-unprocessed.smi:1438|AV-procd|sdf|5868|dock1
  -GOLD-   22720 5543D 1   1.00000     0.00000
 Structure written by MMmdl.
 43 44  0  0  0  0  0  0  0  0  1 V2000
  151.4561  137.8912  154.5405 C   0  0  0  0  0  0  0  0  0  0  0  0
  151.7659  138.7540  155.7743 C   0  0  1  0  0  0  0  0  0  0  0  0
  151.1700  140.1618  155.6482 C   0  0  0  0  0  0  0  0  0  0  0  0
  150.4548  140.4538  154.6895 O   0  0  0  0  0  0  0  0  0  0  0  0
  151.4612  141.0232  156.6355 N   0  0  0  0  0  0  0  0  0  0  0  0
  150.9072  142.3651  156.7601 C   0  0  0  0  0  0  0  0  0  0  0  0
  151.3625  143.0474  158.0364 C   0  0  0  0  0  0  0  0  0  0  0  0
  151.0067  144.3827  158.3055 C   0  0  0  0  0  0  0  0  0  0  0  0
  151.4293  144.9532  159.5198 C   0  0  0  0  0  0  0  0  0  0  0  0
  152.1620  144.2852  160.4353 N   0  0  0  0  0  0  0  0  0  0  0  0
  152.5159  142.9999  160.1842 C   0  0  0  0  0  0  0  0  0  0  0  0
  153.2906  142.3174  161.1478 N   0  0  0  0  0  0  0  0  0  0  0  0
  152.9323  142.5781  162.5403 C   0  0  0  0  0  0  0  0  0  0  0  0
  154.0100  142.0217  163.4870 C   0  0  0  0  0  0  0  0  0  0  0  0
  154.2208  140.6394  163.2200 O   0  0  0  0  0  0  0  0  0  0  0  0
  154.6808  140.4220  161.8904 C   0  0  0  0  0  0  0  0  0  0  0  0
  153.6229  140.9171  160.8898 C   0  0  0  0  0  0  0  0  0  0  0  0
  152.1232  142.3437  158.9927 C   0  0  0  0  0  0  0  0  0  0  0  0
  151.1137  137.9302  157.3029 S   0  0  0  0  0  0  0  0  0  0  0  0
  151.9013  136.2643  157.2509 C   0  0  0  0  0  0  0  0  0  0  0  0
  151.6265  138.6394  158.4854 O   0  0  0  0  0  0  0  0  0  0  0  0
  149.6620  137.7574  157.1408 O   0  0  0  0  0  0  0  0  0  0  0  0
  151.8147  138.3643  153.6255 H   0  0  0  0  0  0  0  0  0  0  0  0
  150.3850  137.7169  154.4308 H   0  0  0  0  0  0  0  0  0  0  0  0
  151.9406  136.9176  154.6172 H   0  0  0  0  0  0  0  0  0  0  0  0
  152.8482  138.8271  155.8865 H   0  0  0  0  0  0  0  0  0  0  0  0
  152.0641  140.7091  157.3817 H   0  0  0  0  0  0  0  0  0  0  0  0
  151.2362  142.9548  155.9043 H   0  0  0  0  0  0  0  0  0  0  0  0
  149.8170  142.3410  156.7137 H   0  0  0  0  0  0  0  0  0  0  0  0
  150.4146  144.9542  157.6057 H   0  0  0  0  0  0  0  0  0  0  0  0
  151.1713  145.9731  159.7635 H   0  0  0  0  0  0  0  0  0  0  0  0
  152.8093  143.6427  162.7336 H   0  0  0  0  0  0  0  0  0  0  0  0
  151.9721  142.1049  162.7506 H   0  0  0  0  0  0  0  0  0  0  0  0
  154.9456  142.5722  163.3766 H   0  0  0  0  0  0  0  0  0  0  0  0
  153.6936  142.1380  164.5237 H   0  0  0  0  0  0  0  0  0  0  0  0
  155.6329  140.9318  161.7348 H   0  0  0  0  0  0  0  0  0  0  0  0
  154.8629  139.3568  161.7475 H   0  0  0  0  0  0  0  0  0  0  0  0
  152.7198  140.3103  160.9722 H   0  0  0  0  0  0  0  0  0  0  0  0
  154.0041  140.8003  159.8743 H   0  0  0  0  0  0  0  0  0  0  0  0
  152.3844  141.3116  158.8112 H   0  0  0  0  0  0  0  0  0  0  0  0
  151.5050  135.6547  158.0627 H   0  0  0  0  0  0  0  0  0  0  0  0
  152.9800  136.3578  157.3743 H   0  0  0  0  0  0  0  0  0  0  0  0
  151.6814  135.7829  156.2985 H   0  0  0  0  0  0  0  0  0  0  0  0
  1  2  1  0  0  0  0
  1 23  1  0  0  0  0
  1 24  1  0  0  0  0
  1 25  1  0  0  0  0
  2  3  1  0  0  0  0
  2 19  1  0  0  0  0
  2 26  1  0  0  0  0
  3  4  2  0  0  0  0
  3  5  1  0  0  0  0
  5  6  1  0  0  0  0
  5 27  1  0  0  0  0
  6  7  1  0  0  0  0
  6 28  1  0  0  0  0
  6 29  1  0  0  0  0
  7 18  1  0  0  0  0
  7  8  2  0  0  0  0
  8  9  1  0  0  0  0
  8 30  1  0  0  0  0
  9 10  2  0  0  0  0
  9 31  1  0  0  0  0
 10 11  1  0  0  0  0
 11 12  1  0  0  0  0
 11 18  2  0  0  0  0
 12 17  1  0  0  0  0
 12 13  1  0  0  0  0
 13 14  1  0  0  0  0
 13 32  1  0  0  0  0
 13 33  1  0  0  0  0
 14 15  1  0  0  0  0
 14 34  1  0  0  0  0
 14 35  1  0  0  0  0
 15 16  1  0  0  0  0
 16 17  1  0  0  0  0
 16 36  1  0  0  0  0
 16 37  1  0  0  0  0
 17 38  1  0  0  0  0
 17 39  1  0  0  0  0
 18 40  1  0  0  0  0
 19 20  1  0  0  0  0
 19 21  2  0  0  0  0
 19 22  2  0  0  0  0
 20 41  1  0  0  0  0
 20 42  1  0  0  0  0
 20 43  1  0  0  0  0
M  END
> <s_m_source_file>
AV-unprocessed.smi

> <i_m_source_file_index>
1438

> <i_lp_mmshare_version>
43012

> <i_f3d_flags>
0

> <s_epik_input>
W0NIM11TKD1PKSg9TylbQ0BIXShbQ0gzXSlDKD1PKVtOSF1bQ0gyXWMxW2NIXVtjSF1uYyhbY0hdMSlOMltDSDJdW0NIMl1PW0NIMl1bQ0gyXTI=

> <s_epik_cmdline>
J2VwaWtfcHl0aG9uJywgJy1waCcsICc3LjAnLCAnLXRuJywgJzgnLCAnLW1hJywgJzIwMCcsICctbWV0YWxfYmluZGluZycsICctaW1hZScsICc8aW5maWxlLm1hZT4nLCAnLW9tYWUnLCAnPG91dGZpbGUubWFlPic=

> <r_lp_tautomer_probability>
1

> <r_epik_Ionization_Penalty>
0.00387635

> <r_epik_Ionization_Penalty_Charging>
0

> <r_epik_Ionization_Penalty_Neutral>
0.00387635

> <r_epik_State_Penalty>
0.0027681

> <r_epik_Charging_Adjusted_Penalty>
0.0027681

> <i_epik_Tot_Q>
0

> <i_epik_Tot_abs_Q>
0

> <r_epik_Metal_State_Penalty>
-0

> <b_epik_Metal_Only>
0

> <s_lp_Force_Field>
OPLS_2005

> <r_lp_Energy>
13.2689

> <b_lp_Chiralities_Consistent>
1

> <s_lp_Variant>
AV-unprocessed.smi:1438-2

> <Gold.Version>
5.8.1

> <Gold.Id.Protein>
6NUR|6NUR_protein|mol2

> <Gold.PLP.Fitness>
43.6994

> <Gold.PLP.PLP>
-41.0844

> <Gold.PLP.part.hbond>
-1.0000

> <Gold.PLP.part.metal>
0.0000

> <Gold.PLP.part.buried>
-0.1312

> <Gold.PLP.part.nonpolar>
-39.8866

> <Gold.PLP.part.repulsive>
0.3074

> <Gold.PLP.ligand.clash>
0.0000

> <Gold.PLP.ligand.torsion>
0.4459

> <Gold.PLP.Chemscore.Hbond>
1.0000

> <Gold.PLP.Chemscore.CHOScore>
0.0000

> <Gold.PLP.Chemscore.Metal>
0.0000

> <Gold.Chemscore.Hbonds>
donor molecule, donor type, donor heavy atom, donor atom, acceptor molecule, acceptor atom, score
      P1  H  7989  7998       L1     4  1.00

> <Gold.PLP.Chemscore.Internal.Correction>
0.5066

> <Gold.Rescore>
     Score         DG    S(hbond)    S(metal)    S(lipo)     H(rot)  DE(clash)    DE(int)     intcor
     14.55     -15.78       0.89        0.00     108.01       2.08       0.50       0.74       ----

> <Gold.Chemscore.Fitness>
14.5461

> <Gold.Chemscore.DG>
-15.7847

> <Gold.Chemscore.ZeroCoef>
-5.4800

> <Gold.Chemscore.Hbond>
0.8932

> <Gold.Chemscore.Metal>
0.0000

> <Gold.Chemscore.Lipo>
108.0085

> <Gold.Chemscore.Internal_Hbond>
0.0000

> <Gold.Chemscore.DEClash>
0.5018

> <Gold.Chemscore.DEInternal>
0.7368

> <Gold.Chemscore.Rot>
2.0764

> <Gold.Chemscore.Internal.Correction>
   9.000000E+99

> <Gold.Chemscore.Hbonds>
donor molecule, donor type, donor heavy atom, donor atom, acceptor molecule, acceptor atom, score
      P1  H  7989  7998       L1     4  0.33

> <Gold.Chemscore.Hbond.Weighted>
-2.9833

> <Gold.Chemscore.Metal.Weighted>
-0.0000

> <Gold.Chemscore.Lipo.Weighted>
-12.6370

> <Gold.Chemscore.Internal_Hbond.Weighted>
0.0000

> <Gold.Chemscore.DEClash.Weighted>
0.5018

> <Gold.Chemscore.DEInternal.Weighted>
0.7368

> <Gold.Chemscore.Rot.Weighted>
5.3155

> <Gold.Chemscore.Internal.Correction.Weighted>
   9.000000E+99

> <Gold.Protein.RotatedTorsions>
[ 6907 6896 6895 6894 ] final  101.89 input  -60.11 | X-H torsion
[ 7974 7965 7964 7962 ] final  -84.66 input  175.53 | X-H torsion
[ 8008 7997 7996 7995 ] final  123.36 input   59.86 | X-H torsion
[ 10167 10162 10161 10158 ] final  -82.71 input  -65.29 | X-H torsion
[ 10718 10713 10712 10709 ] final -123.35 input   66.30 | X-H torsion
[ 10763 10752 10751 10750 ] final -101.75 input  -60.55 | X-H torsion
[ 11005 11000 10999 10996 ] final -122.49 input  -57.11 | X-H torsion

> <Gold.Protein.ActiveResidues>
 VAL166  LYS551  ARG553  GLY616  TRP617  ASP618  TYR619  PRO620  LYS621  CYS622 
 ASP623  PHE694  ASN695  SER759  ASP760  ASP761  ALA762  ILE779  LEU786  VAL792 
 PHE793  MET794  SER795  GLU796  ALA797  LYS798  CYS799  TRP800  GLU811  SER814 

> <Gold.Protein.RotatedAtoms>
  152.5338  134.0058  159.7915 H   0  0  0  0  0  0  0  0  0  0  0  0  # atno 6907 bound_to 6896
  151.0268  133.5818  159.2672 H   0  0  0  0  0  0  0  0  0  0  0  0  # atno 6908 bound_to 6896
  151.2837  135.0728  159.9232 H   0  0  0  0  0  0  0  0  0  0  0  0  # atno 6909 bound_to 6896
  145.5036  140.9545  143.1746 H   0  0  0  0  0  0  0  0  0  0  0  0  # atno 7974 bound_to 7965
  156.2763  140.2764  156.1615 H   0  0  0  0  0  0  0  0  0  0  0  0  # atno 8008 bound_to 7997
  155.0748  140.0387  157.2638 H   0  0  0  0  0  0  0  0  0  0  0  0  # atno 8009 bound_to 7997
  154.7011  140.2649  155.6724 H   0  0  0  0  0  0  0  0  0  0  0  0  # atno 8010 bound_to 7997
  140.4294  143.2554  151.8780 H   0  0  0  0  0  0  0  0  0  0  0  0  # atno 10167 bound_to 10162
  156.1495  130.6524  150.9892 H   0  0  0  0  0  0  0  0  0  0  0  0  # atno 10718 bound_to 10713
  154.7682  135.4886  153.9595 H   0  0  0  0  0  0  0  0  0  0  0  0  # atno 10763 bound_to 10752
  153.1334  135.6757  153.9149 H   0  0  0  0  0  0  0  0  0  0  0  0  # atno 10764 bound_to 10752
  153.8846  135.3128  155.3424 H   0  0  0  0  0  0  0  0  0  0  0  0  # atno 10765 bound_to 10752
  140.9991  134.0428  157.3560 H   0  0  0  0  0  0  0  0  0  0  0  0  # atno 11005 bound_to 11000
  144.7766  139.6616  143.7172 LP  0  0  0  0  0  0  0  0  0  0  0  0  # atno 17320 bound_to 7965
  146.2210  139.5636  142.9618 LP  0  0  0  0  0  0  0  0  0  0  0  0  # atno 17321 bound_to 7965
  139.4784  144.5351  151.8610 LP  0  0  0  0  0  0  0  0  0  0  0  0  # atno 17342 bound_to 10162
  140.4444  144.1942  150.5893 LP  0  0  0  0  0  0  0  0  0  0  0  0  # atno 17343 bound_to 10162
  157.6645  131.0874  150.7762 LP  0  0  0  0  0  0  0  0  0  0  0  0  # atno 17370 bound_to 10713
  156.7831  130.4866  149.5397 LP  0  0  0  0  0  0  0  0  0  0  0  0  # atno 17371 bound_to 10713
  139.9030  135.0171  156.7356 LP  0  0  0  0  0  0  0  0  0  0  0  0  # atno 17394 bound_to 11000
  140.6917  133.9384  155.7970 LP  0  0  0  0  0  0  0  0  0  0  0  0  # atno 17395 bound_to 11000

$$$$
