AV-unprocessed.smi:1425|AV-procd|sdf|5804|dock2
  -GOLD-   22720 5453D 1   1.00000     0.00000
 Structure written by MMmdl.
 36 37  0  0  0  0  0  0  0  0  1 V2000
  147.7391  132.9814  152.3759 C   0  0  0  0  0  0  0  0  0  0  0  0
  146.4462  133.0158  151.5772 C   0  0  0  0  0  0  0  0  0  0  0  0
  145.8807  131.8039  151.1268 C   0  0  0  0  0  0  0  0  0  0  0  0
  144.6858  131.8374  150.3880 C   0  0  0  0  0  0  0  0  0  0  0  0
  144.1032  133.0898  150.1290 C   0  0  0  0  0  0  0  0  0  0  0  0
  144.6366  134.2527  150.5556 N   0  0  0  0  0  0  0  0  0  0  0  0
  145.7901  134.2380  151.2702 C   0  0  0  0  0  0  0  0  0  0  0  0
  146.4146  135.4247  151.7476 N   0  0  0  0  0  0  0  0  0  0  0  0
  145.8389  136.5319  152.2485 C   0  0  0  0  0  0  0  0  0  0  0  0
  144.6299  136.6954  152.4142 O   0  0  0  0  0  0  0  0  0  0  0  0
  146.7605  137.4559  152.5576 N   0  0  0  0  0  0  0  0  0  0  0  0
  146.4856  138.7769  153.1153 C   0  0  0  0  0  0  0  0  0  0  0  0
  147.7808  139.5296  153.4740 C   0  0  1  0  0  0  0  0  0  0  0  0
  147.5055  140.9642  153.9652 C   0  0  0  0  0  0  0  0  0  0  0  0
  148.8021  141.5436  154.5392 C   0  0  0  0  0  0  0  0  0  0  0  0
  149.6736  140.1296  155.3096 S   0  0  0  0  0  0  0  0  0  0  0  0
  151.0382  140.0555  154.7660 O   0  0  0  0  0  0  0  0  0  0  0  0
  149.4361  140.1390  156.7610 O   0  0  0  0  0  0  0  0  0  0  0  0
  148.6345  138.8271  154.5447 C   0  0  0  0  0  0  0  0  0  0  0  0
  148.0918  131.9594  152.5173 H   0  0  0  0  0  0  0  0  0  0  0  0
  147.5913  133.4240  153.3615 H   0  0  0  0  0  0  0  0  0  0  0  0
  148.5221  133.5373  151.8592 H   0  0  0  0  0  0  0  0  0  0  0  0
  146.3552  130.8578  151.3427 H   0  0  0  0  0  0  0  0  0  0  0  0
  144.2284  130.9274  150.0291 H   0  0  0  0  0  0  0  0  0  0  0  0
  143.1855  133.1605  149.5643 H   0  0  0  0  0  0  0  0  0  0  0  0
  147.4217  135.4347  151.6864 H   0  0  0  0  0  0  0  0  0  0  0  0
  147.7300  137.2309  152.3888 H   0  0  0  0  0  0  0  0  0  0  0  0
  145.9326  139.3409  152.3636 H   0  0  0  0  0  0  0  0  0  0  0  0
  145.8286  138.7083  153.9842 H   0  0  0  0  0  0  0  0  0  0  0  0
  148.3904  139.6125  152.5729 H   0  0  0  0  0  0  0  0  0  0  0  0
  147.1070  141.5947  153.1699 H   0  0  0  0  0  0  0  0  0  0  0  0
  146.7536  140.9347  154.7549 H   0  0  0  0  0  0  0  0  0  0  0  0
  149.4356  141.9380  153.7443 H   0  0  0  0  0  0  0  0  0  0  0  0
  148.6319  142.3301  155.2744 H   0  0  0  0  0  0  0  0  0  0  0  0
  148.0072  138.4015  155.3287 H   0  0  0  0  0  0  0  0  0  0  0  0
  149.2634  138.0349  154.1382 H   0  0  0  0  0  0  0  0  0  0  0  0
  1  2  1  0  0  0  0
  1 20  1  0  0  0  0
  1 21  1  0  0  0  0
  1 22  1  0  0  0  0
  2  7  1  0  0  0  0
  2  3  2  0  0  0  0
  3  4  1  0  0  0  0
  3 23  1  0  0  0  0
  4  5  2  0  0  0  0
  4 24  1  0  0  0  0
  5  6  1  0  0  0  0
  5 25  1  0  0  0  0
  6  7  2  0  0  0  0
  7  8  1  0  0  0  0
  8  9  1  0  0  0  0
  8 26  1  0  0  0  0
  9 10  2  0  0  0  0
  9 11  1  0  0  0  0
 11 12  1  0  0  0  0
 11 27  1  0  0  0  0
 12 13  1  0  0  0  0
 12 28  1  0  0  0  0
 12 29  1  0  0  0  0
 13 19  1  0  0  0  0
 13 14  1  0  0  0  0
 13 30  1  0  0  0  0
 14 15  1  0  0  0  0
 14 31  1  0  0  0  0
 14 32  1  0  0  0  0
 15 16  1  0  0  0  0
 15 33  1  0  0  0  0
 15 34  1  0  0  0  0
 16 17  2  0  0  0  0
 16 18  2  0  0  0  0
 16 19  1  0  0  0  0
 19 35  1  0  0  0  0
 19 36  1  0  0  0  0
M  END
> <s_m_source_file>
AV-unprocessed.smi

> <i_m_source_file_index>
1425

> <i_lp_mmshare_version>
43012

> <i_f3d_flags>
0

> <s_epik_input>
W0NIM11jMVtjSF1bY0hdW2NIXW5jMVtOSF1DKD1PKVtOSF1bQ0gyXVtDQEBIXShbQ0gyXTIpW0NIMl1bQ0gyXVMyKD1PKT1P

> <s_epik_cmdline>
J2VwaWtfcHl0aG9uJywgJy1waCcsICc3LjAnLCAnLXRuJywgJzgnLCAnLW1hJywgJzIwMCcsICctbWV0YWxfYmluZGluZycsICctaW1hZScsICc8aW5maWxlLm1hZT4nLCAnLW9tYWUnLCAnPG91dGZpbGUubWFlPic=

> <r_lp_tautomer_probability>
1

> <r_epik_Ionization_Penalty>
5.46275e-05

> <r_epik_Ionization_Penalty_Charging>
0

> <r_epik_Ionization_Penalty_Neutral>
5.46275e-05

> <r_epik_State_Penalty>
-0

> <r_epik_Charging_Adjusted_Penalty>
0

> <i_epik_Tot_Q>
0

> <i_epik_Tot_abs_Q>
0

> <r_epik_Metal_State_Penalty>
-0

> <b_epik_Metal_Only>
0

> <s_lp_Force_Field>
OPLS_2005

> <r_lp_Energy>
7.35863

> <b_lp_Chiralities_Consistent>
1

> <s_lp_Variant>
AV-unprocessed.smi:1425-2

> <Gold.Version>
5.8.1

> <Gold.Id.Protein>
6NUR|6NUR_protein|mol2

> <Gold.PLP.Fitness>
44.6226

> <Gold.PLP.PLP>
-33.2361

> <Gold.PLP.part.hbond>
-3.0000

> <Gold.PLP.part.metal>
0.0000

> <Gold.PLP.part.buried>
-3.0379

> <Gold.PLP.part.nonpolar>
-28.4288

> <Gold.PLP.part.repulsive>
0.5915

> <Gold.PLP.ligand.clash>
0.0000

> <Gold.PLP.ligand.torsion>
0.3119

> <Gold.PLP.Chemscore.Hbond>
3.0000

> <Gold.PLP.Chemscore.CHOScore>
1.0000

> <Gold.PLP.Chemscore.Metal>
0.0000

> <Gold.Chemscore.Hbonds>
donor molecule, donor type, donor heavy atom, donor atom, acceptor molecule, acceptor atom, score
      L1  H     8    26       P1  7948  1.00
      L1  H    11    27       P1  7948  1.00
      P1  H  7989  7998       L1    17  1.00
      L1  C     5    25       P1 10186  1.00

> <Gold.PLP.Chemscore.Internal.Correction>
0.0103

> <Gold.Rescore>
     Score         DG    S(hbond)    S(metal)    S(lipo)     H(rot)  DE(clash)    DE(int)     intcor
     19.99     -20.48       2.90        0.00      73.73       1.29       0.11       0.38       ----

> <Gold.Chemscore.Fitness>
19.9894

> <Gold.Chemscore.DG>
-20.4757

> <Gold.Chemscore.ZeroCoef>
-5.4800

> <Gold.Chemscore.Hbond>
2.8986

> <Gold.Chemscore.Metal>
0.0000

> <Gold.Chemscore.Lipo>
73.7330

> <Gold.Chemscore.Internal_Hbond>
0.0000

> <Gold.Chemscore.DEClash>
0.1075

> <Gold.Chemscore.DEInternal>
0.3787

> <Gold.Chemscore.Rot>
1.2939

> <Gold.Chemscore.Internal.Correction>
   9.000000E+99

> <Gold.Chemscore.Hbonds>
donor molecule, donor type, donor heavy atom, donor atom, acceptor molecule, acceptor atom, score
      L1  H     8    26       P1  7948  0.95
      L1  H    11    27       P1  7948  0.97
      P1  H  7989  7998       L1    17  0.99

> <Gold.Chemscore.Hbond.Weighted>
-9.6812

> <Gold.Chemscore.Metal.Weighted>
-0.0000

> <Gold.Chemscore.Lipo.Weighted>
-8.6268

> <Gold.Chemscore.Internal_Hbond.Weighted>
0.0000

> <Gold.Chemscore.DEClash.Weighted>
0.1075

> <Gold.Chemscore.DEInternal.Weighted>
0.3787

> <Gold.Chemscore.Rot.Weighted>
3.3123

> <Gold.Chemscore.Internal.Correction.Weighted>
   9.000000E+99

> <Gold.Protein.RotatedTorsions>
[ 6907 6896 6895 6894 ] final  151.00 input  -60.11 | X-H torsion
[ 7974 7965 7964 7962 ] final  -12.85 input  175.53 | X-H torsion
[ 8008 7997 7996 7995 ] final -156.87 input   59.86 | X-H torsion
[ 10167 10162 10161 10158 ] final  -95.51 input  -65.29 | X-H torsion
[ 10718 10713 10712 10709 ] final  -64.28 input   66.30 | X-H torsion
[ 10763 10752 10751 10750 ] final   74.49 input  -60.55 | X-H torsion
[ 11005 11000 10999 10996 ] final -116.63 input  -57.11 | X-H torsion

> <Gold.Protein.ActiveResidues>
 VAL166  LYS551  ARG553  GLY616  TRP617  ASP618  TYR619  PRO620  LYS621  CYS622 
 ASP623  PHE694  ASN695  SER759  ASP760  ASP761  ALA762  ILE779  LEU786  VAL792 
 PHE793  MET794  SER795  GLU796  ALA797  LYS798  CYS799  TRP800  GLU811  SER814 

> <Gold.Protein.RotatedAtoms>
  152.1067  133.4278  159.4611 H   0  0  0  0  0  0  0  0  0  0  0  0  # atno 6907 bound_to 6896
  150.6866  134.2696  159.4592 H   0  0  0  0  0  0  0  0  0  0  0  0  # atno 6908 bound_to 6896
  152.0561  134.9623  160.0625 H   0  0  0  0  0  0  0  0  0  0  0  0  # atno 6909 bound_to 6896
  146.2136  140.3117  142.8383 H   0  0  0  0  0  0  0  0  0  0  0  0  # atno 7974 bound_to 7965
  155.7238  140.0793  157.2319 H   0  0  0  0  0  0  0  0  0  0  0  0  # atno 8008 bound_to 7997
  154.4041  140.1608  156.2486 H   0  0  0  0  0  0  0  0  0  0  0  0  # atno 8009 bound_to 7997
  155.9172  140.3400  155.6147 H   0  0  0  0  0  0  0  0  0  0  0  0  # atno 8010 bound_to 7997
  140.3034  143.3148  152.0224 H   0  0  0  0  0  0  0  0  0  0  0  0  # atno 10167 bound_to 10162
  156.0739  130.4231  150.1397 H   0  0  0  0  0  0  0  0  0  0  0  0  # atno 10718 bound_to 10713
  153.0590  135.5024  154.8049 H   0  0  0  0  0  0  0  0  0  0  0  0  # atno 10763 bound_to 10752
  154.6853  135.2975  154.9558 H   0  0  0  0  0  0  0  0  0  0  0  0  # atno 10764 bound_to 10752
  154.0331  135.6727  153.4835 H   0  0  0  0  0  0  0  0  0  0  0  0  # atno 10765 bound_to 10752
  141.0409  133.9837  157.2996 H   0  0  0  0  0  0  0  0  0  0  0  0  # atno 11005 bound_to 11000
  144.8983  140.7611  143.5883 LP  0  0  0  0  0  0  0  0  0  0  0  0  # atno 17320 bound_to 7965
  145.3042  139.1840  143.4673 LP  0  0  0  0  0  0  0  0  0  0  0  0  # atno 17321 bound_to 7965
  139.4910  144.6439  151.6820 LP  0  0  0  0  0  0  0  0  0  0  0  0  # atno 17342 bound_to 10162
  140.5631  144.0235  150.6179 LP  0  0  0  0  0  0  0  0  0  0  0  0  # atno 17343 bound_to 10162
  156.9442  130.9754  151.3510 LP  0  0  0  0  0  0  0  0  0  0  0  0  # atno 17370 bound_to 10713
  157.5824  130.8386  149.8542 LP  0  0  0  0  0  0  0  0  0  0  0  0  # atno 17371 bound_to 10713
  139.9275  135.0201  156.8285 LP  0  0  0  0  0  0  0  0  0  0  0  0  # atno 17394 bound_to 11000
  140.6236  133.9971  155.7629 LP  0  0  0  0  0  0  0  0  0  0  0  0  # atno 17395 bound_to 11000

$$$$
