AV-unprocessed.smi:2439|AV-procd|sdf|9603|dock6
  -GOLD-   2272013233D 1   1.00000     0.00000
 Structure written by MMmdl.
 41 43  0  0  0  0  0  0  0  0  2 V2000
  152.3050  133.1598  157.4652 N   0  0  0  0  0  0  0  0  0  0  0  0
  152.5001  132.2268  156.8095 C   0  0  0  0  0  0  0  0  0  0  0  0
  152.7473  131.0513  155.9831 C   0  0  0  0  0  0  0  0  0  0  0  0
  154.0726  130.5954  155.8231 C   0  0  0  0  0  0  0  0  0  0  0  0
  154.3158  129.4593  155.0302 C   0  0  0  0  0  0  0  0  0  0  0  0
  153.2178  128.8224  154.4245 C   0  0  0  0  0  0  0  0  0  0  0  0
  151.9453  129.2476  154.5693 N   0  0  0  0  0  0  0  0  0  0  0  0
  151.7021  130.3419  155.3322 C   0  0  0  0  0  0  0  0  0  0  0  0
  150.3659  130.7648  155.4626 N   0  0  0  0  0  0  0  0  0  0  0  0
  149.8366  131.9023  154.7195 C   0  0  0  0  0  0  0  0  0  0  0  0
  148.8762  131.4756  153.5966 C   0  0  2  0  0  0  0  0  0  0  0  0
  148.1454  132.6852  152.9873 C   0  0  0  0  0  0  0  0  0  0  0  0
  147.1770  132.2428  151.9578 N   0  3  2  0  0  0  0  0  0  0  0  0
  146.4797  133.3824  151.3099 C   0  0  0  0  0  0  0  0  0  0  0  0
  145.5542  132.8955  150.1834 C   0  0  0  0  0  0  0  0  0  0  0  0
  144.5508  131.8617  150.7103 C   0  0  0  0  0  0  0  0  0  0  0  0
  145.2953  130.7097  151.3987 C   0  0  0  0  0  0  0  0  0  0  0  0
  146.2324  131.2317  152.5060 C   0  0  1  0  0  0  0  0  0  0  0  0
  147.0190  130.0806  153.1636 C   0  0  0  0  0  0  0  0  0  0  0  0
  147.9008  130.5992  154.1511 O   0  0  0  0  0  0  0  0  0  0  0  0
  154.8967  131.1063  156.3004 H   0  0  0  0  0  0  0  0  0  0  0  0
  155.3193  129.0859  154.8892 H   0  0  0  0  0  0  0  0  0  0  0  0
  153.3639  127.9476  153.8086 H   0  0  0  0  0  0  0  0  0  0  0  0
  149.7219  130.2051  156.0036 H   0  0  0  0  0  0  0  0  0  0  0  0
  149.3199  132.5609  155.4180 H   0  0  0  0  0  0  0  0  0  0  0  0
  150.6643  132.4844  154.3125 H   0  0  0  0  0  0  0  0  0  0  0  0
  149.4314  130.9595  152.8116 H   0  0  0  0  0  0  0  0  0  0  0  0
  147.6224  133.2418  153.7670 H   0  0  0  0  0  0  0  0  0  0  0  0
  148.8688  133.3661  152.5367 H   0  0  0  0  0  0  0  0  0  0  0  0
  145.9045  133.9322  152.0568 H   0  0  0  0  0  0  0  0  0  0  0  0
  147.2161  134.0762  150.9024 H   0  0  0  0  0  0  0  0  0  0  0  0
  145.0232  133.7410  149.7454 H   0  0  0  0  0  0  0  0  0  0  0  0
  146.1503  132.4550  149.3831 H   0  0  0  0  0  0  0  0  0  0  0  0
  143.8687  132.3355  151.4173 H   0  0  0  0  0  0  0  0  0  0  0  0
  143.9388  131.4797  149.8926 H   0  0  0  0  0  0  0  0  0  0  0  0
  144.5755  130.0058  151.8179 H   0  0  0  0  0  0  0  0  0  0  0  0
  145.8719  130.1559  150.6563 H   0  0  0  0  0  0  0  0  0  0  0  0
  145.6278  131.7161  153.2751 H   0  0  0  0  0  0  0  0  0  0  0  0
  146.3334  129.3812  153.6425 H   0  0  0  0  0  0  0  0  0  0  0  0
  147.5829  129.5132  152.4212 H   0  0  0  0  0  0  0  0  0  0  0  0
  147.7111  131.7800  151.2362 H   0  0  0  0  0  0  0  0  0  0  0  0
  1  2  3  0  0  0  0
  2  3  1  0  0  0  0
  3  8  1  0  0  0  0
  3  4  2  0  0  0  0
  4  5  1  0  0  0  0
  4 21  1  0  0  0  0
  5  6  2  0  0  0  0
  5 22  1  0  0  0  0
  6  7  1  0  0  0  0
  6 23  1  0  0  0  0
  7  8  2  0  0  0  0
  8  9  1  0  0  0  0
  9 10  1  0  0  0  0
  9 24  1  0  0  0  0
 10 11  1  0  0  0  0
 10 25  1  0  0  0  0
 10 26  1  0  0  0  0
 11 20  1  0  0  0  0
 11 12  1  0  0  0  0
 11 27  1  0  0  0  0
 12 13  1  0  0  0  0
 12 28  1  0  0  0  0
 12 29  1  0  0  0  0
 13 18  1  0  0  0  0
 13 14  1  0  0  0  0
 13 41  1  0  0  0  0
 14 15  1  0  0  0  0
 14 30  1  0  0  0  0
 14 31  1  0  0  0  0
 15 16  1  0  0  0  0
 15 32  1  0  0  0  0
 15 33  1  0  0  0  0
 16 17  1  0  0  0  0
 16 34  1  0  0  0  0
 16 35  1  0  0  0  0
 17 18  1  0  0  0  0
 17 36  1  0  0  0  0
 17 37  1  0  0  0  0
 18 19  1  0  0  0  0
 18 38  1  0  0  0  0
 19 20  1  0  0  0  0
 19 39  1  0  0  0  0
 19 40  1  0  0  0  0
M  CHG  1  13   1
M  END
> <s_m_source_file>
AV-unprocessed.smi

> <i_m_source_file_index>
2439

> <i_lp_mmshare_version>
43012

> <i_f3d_flags>
0

> <s_epik_input>
TiNDYzFbY0hdW2NIXVtjSF1uYzFbTkhdW0NIMl1bQ0BIXShbQ0gyXTIpT1tDSDJdW0NAQEhdKE4yMylbQ0gyXVtDSDJdW0NIMl1bQ0gyXTM=

> <s_epik_cmdline>
J2VwaWtfcHl0aG9uJywgJy1waCcsICc3LjAnLCAnLXRuJywgJzgnLCAnLW1hJywgJzIwMCcsICctbWV0YWxfYmluZGluZycsICctaW1hZScsICc8aW5maWxlLm1hZT4nLCAnLW9tYWUnLCAnPG91dGZpbGUubWFlPic=

> <r_epik_Ionization_Penalty>
0.0803594

> <r_epik_Ionization_Penalty_Charging>
0.0803403

> <r_epik_Ionization_Penalty_Neutral>
1.90988e-05

> <r_epik_State_Penalty>
0.0711481

> <r_epik_Charging_Adjusted_Penalty>
0.151488

> <i_epik_Tot_Q>
1

> <i_epik_Tot_abs_Q>
1

> <r_epik_Metal_State_Penalty>
0.0711482

> <b_epik_Metal_Only>
0

> <s_lp_Force_Field>
OPLS_2005

> <r_lp_Energy>
27.3027

> <b_lp_Chiralities_Consistent>
1

> <s_lp_Variant>
AV-unprocessed.smi:2439-1

> <Gold.Version>
5.8.1

> <Gold.Id.Protein>
6NUR|6NUR_protein|mol2

> <Gold.PLP.Fitness>
42.3753

> <Gold.PLP.PLP>
-36.4934

> <Gold.PLP.part.hbond>
-2.0000

> <Gold.PLP.part.metal>
0.0000

> <Gold.PLP.part.buried>
-4.4920

> <Gold.PLP.part.nonpolar>
-29.7740

> <Gold.PLP.part.repulsive>
0.1643

> <Gold.PLP.ligand.clash>
0.0000

> <Gold.PLP.ligand.torsion>
0.8254

> <Gold.PLP.Chemscore.Hbond>
1.7200

> <Gold.PLP.Chemscore.CHOScore>
0.7902

> <Gold.PLP.Chemscore.Metal>
0.0000

> <Gold.Chemscore.Hbonds>
donor molecule, donor type, donor heavy atom, donor atom, acceptor molecule, acceptor atom, score
      L1  H    13    41       P1 10747  1.00
      P1  H  6896  6908       L1     1  0.72
      L1  C     6    23       P1 10737  0.79

> <Gold.PLP.Chemscore.Internal.Correction>
0.0020

> <Gold.Rescore>
     Score         DG    S(hbond)    S(metal)    S(lipo)     H(rot)  DE(clash)    DE(int)     intcor
     18.22     -19.04       1.93        0.00      88.52       1.27       0.01       0.81       ----

> <Gold.Chemscore.Fitness>
18.2237

> <Gold.Chemscore.DG>
-19.0380

> <Gold.Chemscore.ZeroCoef>
-5.4800

> <Gold.Chemscore.Hbond>
1.9288

> <Gold.Chemscore.Metal>
0.0000

> <Gold.Chemscore.Lipo>
88.5177

> <Gold.Chemscore.Internal_Hbond>
0.0000

> <Gold.Chemscore.DEClash>
0.0054

> <Gold.Chemscore.DEInternal>
0.8088

> <Gold.Chemscore.Rot>
1.2659

> <Gold.Chemscore.Internal.Correction>
   9.000000E+99

> <Gold.Chemscore.Hbonds>
donor molecule, donor type, donor heavy atom, donor atom, acceptor molecule, acceptor atom, score
      L1  H    13    41       P1 10747  1.00
      P1  H  6896  6908       L1     1  0.72

> <Gold.Chemscore.Hbond.Weighted>
-6.4422

> <Gold.Chemscore.Metal.Weighted>
-0.0000

> <Gold.Chemscore.Lipo.Weighted>
-10.3566

> <Gold.Chemscore.Internal_Hbond.Weighted>
0.0000

> <Gold.Chemscore.DEClash.Weighted>
0.0054

> <Gold.Chemscore.DEInternal.Weighted>
0.8088

> <Gold.Chemscore.Rot.Weighted>
3.2408

> <Gold.Chemscore.Internal.Correction.Weighted>
   9.000000E+99

> <Gold.Protein.RotatedTorsions>
[ 6907 6896 6895 6894 ] final   48.61 input  -60.11 | X-H torsion
[ 7974 7965 7964 7962 ] final  154.45 input  175.53 | X-H torsion
[ 8008 7997 7996 7995 ] final   -4.68 input   59.86 | X-H torsion
[ 10167 10162 10161 10158 ] final    4.86 input  -65.29 | X-H torsion
[ 10718 10713 10712 10709 ] final -174.58 input   66.30 | X-H torsion
[ 10763 10752 10751 10750 ] final  102.81 input  -60.55 | X-H torsion
[ 11005 11000 10999 10996 ] final  -92.16 input  -57.11 | X-H torsion

> <Gold.Protein.ActiveResidues>
 VAL166  LYS551  ARG553  GLY616  TRP617  ASP618  TYR619  PRO620  LYS621  CYS622 
 ASP623  PHE694  ASN695  SER759  ASP760  ASP761  ALA762  ILE779  LEU786  VAL792 
 PHE793  MET794  SER795  GLU796  ALA797  LYS798  CYS799  TRP800  GLU811  SER814 

> <Gold.Protein.RotatedAtoms>
  152.2814  134.7824  160.0395 H   0  0  0  0  0  0  0  0  0  0  0  0  # atno 6907 bound_to 6896
  151.8401  133.3417  159.3648 H   0  0  0  0  0  0  0  0  0  0  0  0  # atno 6908 bound_to 6896
  150.7191  134.5327  159.5753 H   0  0  0  0  0  0  0  0  0  0  0  0  # atno 6909 bound_to 6896
  144.8088  139.6936  143.6150 H   0  0  0  0  0  0  0  0  0  0  0  0  # atno 7974 bound_to 7965
  154.6118  140.2478  155.7659 H   0  0  0  0  0  0  0  0  0  0  0  0  # atno 8008 bound_to 7997
  156.2375  140.2945  156.0302 H   0  0  0  0  0  0  0  0  0  0  0  0  # atno 8009 bound_to 7997
  155.2040  140.0395  157.2912 H   0  0  0  0  0  0  0  0  0  0  0  0  # atno 8010 bound_to 7997
  140.6512  143.7539  150.7579 H   0  0  0  0  0  0  0  0  0  0  0  0  # atno 10167 bound_to 10162
  156.7871  130.9504  151.3120 H   0  0  0  0  0  0  0  0  0  0  0  0  # atno 10718 bound_to 10713
  153.3444  135.3998  155.1597 H   0  0  0  0  0  0  0  0  0  0  0  0  # atno 10763 bound_to 10752
  154.8650  135.3641  154.5304 H   0  0  0  0  0  0  0  0  0  0  0  0  # atno 10764 bound_to 10752
  153.5751  135.7078  153.5547 H   0  0  0  0  0  0  0  0  0  0  0  0  # atno 10765 bound_to 10752
  141.1528  133.7803  156.9981 H   0  0  0  0  0  0  0  0  0  0  0  0  # atno 11005 bound_to 11000
  146.2383  139.5950  142.9509 LP  0  0  0  0  0  0  0  0  0  0  0  0  # atno 17320 bound_to 7965
  145.5375  141.0423  143.2349 LP  0  0  0  0  0  0  0  0  0  0  0  0  # atno 17321 bound_to 7965
  140.1190  143.4629  152.2324 LP  0  0  0  0  0  0  0  0  0  0  0  0  # atno 17342 bound_to 10162
  139.5728  144.7472  151.3845 LP  0  0  0  0  0  0  0  0  0  0  0  0  # atno 17343 bound_to 10162
  157.6618  130.8973  149.9847 LP  0  0  0  0  0  0  0  0  0  0  0  0  # atno 17370 bound_to 10713
  156.1182  130.3647  149.9932 LP  0  0  0  0  0  0  0  0  0  0  0  0  # atno 17371 bound_to 10713
  140.0958  134.9565  157.1847 LP  0  0  0  0  0  0  0  0  0  0  0  0  # atno 17394 bound_to 11000
  140.3384  134.2731  155.7216 LP  0  0  0  0  0  0  0  0  0  0  0  0  # atno 17395 bound_to 11000

$$$$
