AV-unprocessed.smi:1473|AV-procd|sdf|5969|dock3
  -GOLD-   22720 6 53D 1   1.00000     0.00000
 Structure written by MMmdl.
 35 36  0  0  0  0  0  0  0  0  2 V2000
  152.6047  136.7677  157.9115 N   0  0  0  0  0  0  0  0  0  0  0  0
  154.0165  137.4218  157.1823 S   0  0  0  0  0  0  0  0  0  0  0  0
  154.5713  138.4612  158.0623 O   0  0  0  0  0  0  0  0  0  0  0  0
  154.8487  136.3195  156.6783 O   0  0  0  0  0  0  0  0  0  0  0  0
  153.2772  138.1980  155.8331 N   0  0  0  0  0  0  0  0  0  0  0  0
  151.8213  138.2490  155.7164 C   0  0  0  0  0  0  0  0  0  0  0  0
  151.2770  139.6587  155.8384 C   0  0  0  0  0  0  0  0  0  0  0  0
  150.2956  140.1248  154.9402 C   0  0  0  0  0  0  0  0  0  0  0  0
  149.7972  141.4313  155.0955 C   0  0  0  0  0  0  0  0  0  0  0  0
  150.2580  142.2118  156.0966 N   0  3  0  0  0  0  0  0  0  0  0  0
  151.1950  141.8192  156.9955 C   0  0  0  0  0  0  0  0  0  0  0  0
  151.5878  142.7373  157.9969 N   0  0  0  0  0  0  0  0  0  0  0  0
  150.5477  143.6194  158.5270 C   0  0  0  0  0  0  0  0  0  0  0  0
  151.1684  144.7611  159.3493 C   0  0  0  0  0  0  0  0  0  0  0  0
  152.0134  144.2222  160.3587 O   0  0  0  0  0  0  0  0  0  0  0  0
  153.0980  143.4920  159.7987 C   0  0  0  0  0  0  0  0  0  0  0  0
  152.5617  142.2964  158.9931 C   0  0  0  0  0  0  0  0  0  0  0  0
  151.7288  140.5107  156.8699 C   0  0  0  0  0  0  0  0  0  0  0  0
  152.7888  135.8886  158.3948 H   0  0  0  0  0  0  0  0  0  0  0  0
  151.8194  136.7187  157.2627 H   0  0  0  0  0  0  0  0  0  0  0  0
  153.7776  139.0126  155.4776 H   0  0  0  0  0  0  0  0  0  0  0  0
  151.5164  137.8024  154.7693 H   0  0  0  0  0  0  0  0  0  0  0  0
  151.3871  137.6333  156.5046 H   0  0  0  0  0  0  0  0  0  0  0  0
  149.9269  139.4907  154.1470 H   0  0  0  0  0  0  0  0  0  0  0  0
  149.0467  141.8726  154.4559 H   0  0  0  0  0  0  0  0  0  0  0  0
  149.9469  144.0567  157.7299 H   0  0  0  0  0  0  0  0  0  0  0  0
  149.8734  143.0323  159.1518 H   0  0  0  0  0  0  0  0  0  0  0  0
  151.7338  145.4400  158.7086 H   0  0  0  0  0  0  0  0  0  0  0  0
  150.3834  145.3515  159.8220 H   0  0  0  0  0  0  0  0  0  0  0  0
  153.7035  144.1455  159.1684 H   0  0  0  0  0  0  0  0  0  0  0  0
  153.7436  143.1411  160.6040 H   0  0  0  0  0  0  0  0  0  0  0  0
  152.0918  141.5719  159.6599 H   0  0  0  0  0  0  0  0  0  0  0  0
  153.4058  141.8035  158.5105 H   0  0  0  0  0  0  0  0  0  0  0  0
  152.4672  140.1322  157.5605 H   0  0  0  0  0  0  0  0  0  0  0  0
  149.8760  143.1540  156.1817 H   0  0  0  0  0  0  0  0  0  0  0  0
  1  2  1  0  0  0  0
  1 19  1  0  0  0  0
  1 20  1  0  0  0  0
  2  3  2  0  0  0  0
  2  4  2  0  0  0  0
  2  5  1  0  0  0  0
  5  6  1  0  0  0  0
  5 21  1  0  0  0  0
  6  7  1  0  0  0  0
  6 22  1  0  0  0  0
  6 23  1  0  0  0  0
  7 18  1  0  0  0  0
  7  8  2  0  0  0  0
  8  9  1  0  0  0  0
  8 24  1  0  0  0  0
  9 10  2  0  0  0  0
  9 25  1  0  0  0  0
 10 11  1  0  0  0  0
 10 35  1  0  0  0  0
 11 12  1  0  0  0  0
 11 18  2  0  0  0  0
 12 17  1  0  0  0  0
 12 13  1  0  0  0  0
 13 14  1  0  0  0  0
 13 26  1  0  0  0  0
 13 27  1  0  0  0  0
 14 15  1  0  0  0  0
 14 28  1  0  0  0  0
 14 29  1  0  0  0  0
 15 16  1  0  0  0  0
 16 17  1  0  0  0  0
 16 30  1  0  0  0  0
 16 31  1  0  0  0  0
 17 32  1  0  0  0  0
 17 33  1  0  0  0  0
 18 34  1  0  0  0  0
M  CHG  1  10   1
M  END
> <s_m_source_file>
AV-unprocessed.smi

> <i_m_source_file_index>
1473

> <i_lp_mmshare_version>
43012

> <i_f3d_flags>
0

> <s_epik_input>
W05IMl1TKD1PKSg9TylbTkhdW0NIMl1jMVtjSF1bY0hdbmMoW2NIXTEpTjJbQ0gyXVtDSDJdT1tDSDJdW0NIMl0y

> <s_epik_cmdline>
J2VwaWtfcHl0aG9uJywgJy1waCcsICc3LjAnLCAnLXRuJywgJzgnLCAnLW1hJywgJzIwMCcsICctbWV0YWxfYmluZGluZycsICctaW1hZScsICc8aW5maWxlLm1hZT4nLCAnLW9tYWUnLCAnPG91dGZpbGUubWFlPic=

> <r_lp_tautomer_probability>
0.999994

> <r_epik_Ionization_Penalty>
2.36475

> <r_epik_Ionization_Penalty_Charging>
1.69468

> <r_epik_Ionization_Penalty_Neutral>
0.670067

> <r_epik_State_Penalty>
1.95548

> <r_epik_Charging_Adjusted_Penalty>
3.65016

> <i_epik_Tot_Q>
1

> <i_epik_Tot_abs_Q>
1

> <r_epik_Metal_State_Penalty>
4.27053

> <b_epik_Metal_Only>
0

> <s_lp_Force_Field>
OPLS_2005

> <r_lp_Energy>
21.3801

> <b_lp_Chiralities_Consistent>
1

> <s_lp_Variant>
AV-unprocessed.smi:1473-4

> <Gold.Version>
5.8.1

> <Gold.Id.Protein>
6NUR|6NUR_protein|mol2

> <Gold.PLP.Fitness>
42.2726

> <Gold.PLP.PLP>
-31.2003

> <Gold.PLP.part.hbond>
-3.0000

> <Gold.PLP.part.metal>
0.0000

> <Gold.PLP.part.buried>
-4.8252

> <Gold.PLP.part.nonpolar>
-23.8837

> <Gold.PLP.part.repulsive>
0.4293

> <Gold.PLP.ligand.clash>
0.0000

> <Gold.PLP.ligand.torsion>
1.1770

> <Gold.PLP.Chemscore.Hbond>
3.9920

> <Gold.PLP.Chemscore.CHOScore>
0.0000

> <Gold.PLP.Chemscore.Metal>
0.0000

> <Gold.Chemscore.Hbonds>
donor molecule, donor type, donor heavy atom, donor atom, acceptor molecule, acceptor atom, score
      L1  H    10    35       P1  8028  2.00
      P1  H  7997  8010       L1     3  0.98
      P1  H 10752 10764       L1     4  1.00

> <Gold.PLP.Chemscore.Internal.Correction>
1.4502

> <Gold.Rescore>
     Score         DG    S(hbond)    S(metal)    S(lipo)     H(rot)  DE(clash)    DE(int)     intcor
     18.10     -19.23       2.88        0.00      77.44       1.93       0.03       1.10       ----

> <Gold.Chemscore.Fitness>
18.1048

> <Gold.Chemscore.DG>
-19.2286

> <Gold.Chemscore.ZeroCoef>
-5.4800

> <Gold.Chemscore.Hbond>
2.8823

> <Gold.Chemscore.Metal>
0.0000

> <Gold.Chemscore.Lipo>
77.4394

> <Gold.Chemscore.Internal_Hbond>
0.0000

> <Gold.Chemscore.DEClash>
0.0284

> <Gold.Chemscore.DEInternal>
1.0954

> <Gold.Chemscore.Rot>
1.9292

> <Gold.Chemscore.Internal.Correction>
   9.000000E+99

> <Gold.Chemscore.Hbonds>
donor molecule, donor type, donor heavy atom, donor atom, acceptor molecule, acceptor atom, score
      L1  H    10    35       P1  8028  0.98
      P1  H  7997  8010       L1     3  0.85
      P1  H 10752 10764       L1     4  0.91

> <Gold.Chemscore.Hbond.Weighted>
-9.6268

> <Gold.Chemscore.Metal.Weighted>
-0.0000

> <Gold.Chemscore.Lipo.Weighted>
-9.0604

> <Gold.Chemscore.Internal_Hbond.Weighted>
0.0000

> <Gold.Chemscore.DEClash.Weighted>
0.0284

> <Gold.Chemscore.DEInternal.Weighted>
1.0954

> <Gold.Chemscore.Rot.Weighted>
4.9386

> <Gold.Chemscore.Internal.Correction.Weighted>
   9.000000E+99

> <Gold.Protein.RotatedTorsions>
[ 6907 6896 6895 6894 ] final  -28.55 input  -60.11 | X-H torsion
[ 7974 7965 7964 7962 ] final   60.61 input  175.53 | X-H torsion
[ 8008 7997 7996 7995 ] final    4.08 input   59.86 | X-H torsion
[ 10167 10162 10161 10158 ] final   -0.72 input  -65.29 | X-H torsion
[ 10718 10713 10712 10709 ] final   20.26 input   66.30 | X-H torsion
[ 10763 10752 10751 10750 ] final   36.39 input  -60.55 | X-H torsion
[ 11005 11000 10999 10996 ] final  154.13 input  -57.11 | X-H torsion

> <Gold.Protein.ActiveResidues>
 VAL166  LYS551  ARG553  GLY616  TRP617  ASP618  TYR619  PRO620  LYS621  CYS622 
 ASP623  PHE694  ASN695  SER759  ASP760  ASP761  ALA762  ILE779  LEU786  VAL792 
 PHE793  MET794  SER795  GLU796  ALA797  LYS798  CYS799  TRP800  GLU811  SER814 

> <Gold.Protein.RotatedAtoms>
  151.1314  135.0132  159.8583 H   0  0  0  0  0  0  0  0  0  0  0  0  # atno 6907 bound_to 6896
  152.5451  134.1606  159.8566 H   0  0  0  0  0  0  0  0  0  0  0  0  # atno 6908 bound_to 6896
  151.1673  133.4761  159.2627 H   0  0  0  0  0  0  0  0  0  0  0  0  # atno 6909 bound_to 6896
  145.8941  139.3533  143.0631 H   0  0  0  0  0  0  0  0  0  0  0  0  # atno 7974 bound_to 7965
  154.7116  140.2693  155.6624 H   0  0  0  0  0  0  0  0  0  0  0  0  # atno 8008 bound_to 7997
  156.2797  140.2752  156.1683 H   0  0  0  0  0  0  0  0  0  0  0  0  # atno 8009 bound_to 7997
  155.0628  140.0371  157.2572 H   0  0  0  0  0  0  0  0  0  0  0  0  # atno 8010 bound_to 7997
  140.6780  143.6860  150.8066 H   0  0  0  0  0  0  0  0  0  0  0  0  # atno 10167 bound_to 10162
  157.1220  130.6554  149.5926 H   0  0  0  0  0  0  0  0  0  0  0  0  # atno 10718 bound_to 10713
  153.0079  135.6307  154.1978 H   0  0  0  0  0  0  0  0  0  0  0  0  # atno 10763 bound_to 10752
  154.1721  135.2818  155.3079 H   0  0  0  0  0  0  0  0  0  0  0  0  # atno 10764 bound_to 10752
  154.5901  135.5620  153.7330 H   0  0  0  0  0  0  0  0  0  0  0  0  # atno 10765 bound_to 10752
  140.1461  134.8706  157.2395 H   0  0  0  0  0  0  0  0  0  0  0  0  # atno 11005 bound_to 11000
  145.8872  140.9326  143.0571 LP  0  0  0  0  0  0  0  0  0  0  0  0  # atno 17320 bound_to 7965
  144.6732  140.0857  143.7467 LP  0  0  0  0  0  0  0  0  0  0  0  0  # atno 17321 bound_to 7965
  140.0556  143.5206  152.2652 LP  0  0  0  0  0  0  0  0  0  0  0  0  # atno 17342 bound_to 10162
  139.6084  144.7602  151.3009 LP  0  0  0  0  0  0  0  0  0  0  0  0  # atno 17343 bound_to 10162
  155.9826  130.4841  150.6891 LP  0  0  0  0  0  0  0  0  0  0  0  0  # atno 17370 bound_to 10713
  157.4468  131.0868  151.0887 LP  0  0  0  0  0  0  0  0  0  0  0  0  # atno 17371 bound_to 10713
  140.2662  134.3514  155.7389 LP  0  0  0  0  0  0  0  0  0  0  0  0  # atno 17394 bound_to 11000
  141.2193  133.7397  156.9154 LP  0  0  0  0  0  0  0  0  0  0  0  0  # atno 17395 bound_to 11000

$$$$
