AV-unprocessed.smi:1782|AV-procd|sdf|7189|dock7
  -GOLD-   22720 8433D 1   1.00000     0.00000
 Structure written by MMmdl.
 42 44  0  0  0  0  0  0  0  0  2 V2000
  149.5643  140.2448  157.6813 O   0  0  0  0  0  0  0  0  0  0  0  0
  149.8928  140.6159  156.5538 C   0  0  0  0  0  0  0  0  0  0  0  0
  150.7419  141.8801  156.3593 C   0  0  0  0  0  0  0  0  0  0  0  0
  151.4192  142.3166  157.5925 N   0  0  0  0  0  0  0  0  0  0  0  0
  151.1308  143.6133  158.0541 C   0  0  0  0  0  0  0  0  0  0  0  0
  151.6949  144.1083  159.1639 C   0  0  0  0  0  0  0  0  0  0  0  0
  152.6196  143.2729  159.8906 C   0  0  0  0  0  0  0  0  0  0  0  0
  152.9197  142.0225  159.4693 C   0  0  0  0  0  0  0  0  0  0  0  0
  153.8975  141.1258  160.2253 C   0  0  0  0  0  0  0  0  0  0  0  0
  153.4579  139.8668  160.2465 F   0  0  0  0  0  0  0  0  0  0  0  0
  155.0949  141.1390  159.6386 F   0  0  0  0  0  0  0  0  0  0  0  0
  154.0580  141.5228  161.4885 F   0  0  0  0  0  0  0  0  0  0  0  0
  152.2938  141.4873  158.2427 C   0  0  0  0  0  0  0  0  0  0  0  0
  152.5378  140.3571  157.8161 O   0  0  0  0  0  0  0  0  0  0  0  0
  149.5571  139.9520  155.4380 N   0  0  0  0  0  0  0  0  0  0  0  0
  148.7474  138.7394  155.4064 C   0  0  1  0  0  0  0  0  0  0  0  0
  147.4575  138.8574  154.5997 C   0  0  0  0  0  0  0  0  0  0  0  0
  147.1165  137.3934  154.3006 C   0  0  0  0  0  0  0  0  0  0  0  0
  148.4012  136.6497  154.2847 N   0  3  2  0  0  0  0  0  0  0  0  0
  148.3728  135.4036  155.0813 C   0  0  0  0  0  0  0  0  0  0  0  0
  149.7026  134.6899  155.1331 C   0  0  0  0  0  0  0  0  0  0  0  0
  148.5886  134.1559  154.2587 C   0  0  0  0  0  0  0  0  0  0  0  0
  149.4652  137.5915  154.6974 C   0  0  0  0  0  0  0  0  0  0  0  0
  151.4683  141.6806  155.5700 H   0  0  0  0  0  0  0  0  0  0  0  0
  150.1167  142.6875  155.9729 H   0  0  0  0  0  0  0  0  0  0  0  0
  150.4342  144.1760  157.4498 H   0  0  0  0  0  0  0  0  0  0  0  0
  151.4666  145.1080  159.5036 H   0  0  0  0  0  0  0  0  0  0  0  0
  153.0733  143.6700  160.7864 H   0  0  0  0  0  0  0  0  0  0  0  0
  149.8731  140.3208  154.5523 H   0  0  0  0  0  0  0  0  0  0  0  0
  148.5106  138.4306  156.4267 H   0  0  0  0  0  0  0  0  0  0  0  0
  146.6623  139.3743  155.1380 H   0  0  0  0  0  0  0  0  0  0  0  0
  147.6403  139.3956  153.6681 H   0  0  0  0  0  0  0  0  0  0  0  0
  146.4660  137.0052  155.0865 H   0  0  0  0  0  0  0  0  0  0  0  0
  146.5883  137.2816  153.3534 H   0  0  0  0  0  0  0  0  0  0  0  0
  147.7049  135.3912  155.9412 H   0  0  0  0  0  0  0  0  0  0  0  0
  150.5545  135.1509  154.6365 H   0  0  0  0  0  0  0  0  0  0  0  0
  149.9380  134.1309  156.0367 H   0  0  0  0  0  0  0  0  0  0  0  0
  148.0910  133.2455  154.5868 H   0  0  0  0  0  0  0  0  0  0  0  0
  148.7020  134.2611  153.1812 H   0  0  0  0  0  0  0  0  0  0  0  0
  149.9600  137.9517  153.7941 H   0  0  0  0  0  0  0  0  0  0  0  0
  150.2264  137.1245  155.3244 H   0  0  0  0  0  0  0  0  0  0  0  0
  148.5945  136.3866  153.3288 H   0  0  0  0  0  0  0  0  0  0  0  0
  1  2  2  0  0  0  0
  2  3  1  0  0  0  0
  2 15  1  0  0  0  0
  3  4  1  0  0  0  0
  3 24  1  0  0  0  0
  3 25  1  0  0  0  0
  4 13  1  0  0  0  0
  4  5  1  0  0  0  0
  5  6  2  0  0  0  0
  5 26  1  0  0  0  0
  6  7  1  0  0  0  0
  6 27  1  0  0  0  0
  7  8  2  0  0  0  0
  7 28  1  0  0  0  0
  8  9  1  0  0  0  0
  8 13  1  0  0  0  0
  9 10  1  0  0  0  0
  9 11  1  0  0  0  0
  9 12  1  0  0  0  0
 13 14  2  0  0  0  0
 15 16  1  0  0  0  0
 15 29  1  0  0  0  0
 16 23  1  0  0  0  0
 16 17  1  0  0  0  0
 16 30  1  0  0  0  0
 17 18  1  0  0  0  0
 17 31  1  0  0  0  0
 17 32  1  0  0  0  0
 18 19  1  0  0  0  0
 18 33  1  0  0  0  0
 18 34  1  0  0  0  0
 19 20  1  0  0  0  0
 19 23  1  0  0  0  0
 19 42  1  0  0  0  0
 20 22  1  0  0  0  0
 20 21  1  0  0  0  0
 20 35  1  0  0  0  0
 21 22  1  0  0  0  0
 21 36  1  0  0  0  0
 21 37  1  0  0  0  0
 22 38  1  0  0  0  0
 22 39  1  0  0  0  0
 23 40  1  0  0  0  0
 23 41  1  0  0  0  0
M  CHG  1  19   1
M  END
> <s_m_source_file>
AV-unprocessed.smi

> <i_m_source_file_index>
1782

> <i_lp_mmshare_version>
43012

> <i_f3d_flags>
0

> <s_epik_input>
W0NIMl0xW0NIMl1bQ0hdMU4oW0NIMl0yKVtDSDJdW0NIMl1bQ0BIXTJbTkhdQyg9TylbQ0gyXW4zW2NIXVtjSF1bY0hdYyhDKEYpKEYpRiljMz1P

> <s_epik_cmdline>
J2VwaWtfcHl0aG9uJywgJy1waCcsICc3LjAnLCAnLXRuJywgJzgnLCAnLW1hJywgJzIwMCcsICctbWV0YWxfYmluZGluZycsICctaW1hZScsICc8aW5maWxlLm1hZT4nLCAnLW9tYWUnLCAnPG91dGZpbGUubWFlPic=

> <r_lp_tautomer_probability>
1

> <r_epik_Ionization_Penalty>
0.00106789

> <r_epik_Ionization_Penalty_Charging>
0.00106781

> <r_epik_Ionization_Penalty_Neutral>
8.2288e-08

> <r_epik_State_Penalty>
0.000699156

> <r_epik_Charging_Adjusted_Penalty>
0.00176697

> <i_epik_Tot_Q>
1

> <i_epik_Tot_abs_Q>
1

> <r_epik_Metal_State_Penalty>
-0

> <b_epik_Metal_Only>
0

> <s_lp_Force_Field>
OPLS_2005

> <r_lp_Energy>
46.9995

> <b_lp_Chiralities_Consistent>
1

> <s_lp_Variant>
AV-unprocessed.smi:1782-2

> <Gold.Version>
5.8.1

> <Gold.Id.Protein>
6NUR|6NUR_protein|mol2

> <Gold.PLP.Fitness>
47.8848

> <Gold.PLP.PLP>
-39.0338

> <Gold.PLP.part.hbond>
-1.9197

> <Gold.PLP.part.metal>
0.0000

> <Gold.PLP.part.buried>
-3.4597

> <Gold.PLP.part.nonpolar>
-33.8681

> <Gold.PLP.part.repulsive>
0.0591

> <Gold.PLP.ligand.clash>
0.0000

> <Gold.PLP.ligand.torsion>
1.8434

> <Gold.PLP.Chemscore.Hbond>
2.6443

> <Gold.PLP.Chemscore.CHOScore>
1.0000

> <Gold.PLP.Chemscore.Metal>
0.0000

> <Gold.Chemscore.Hbonds>
donor molecule, donor type, donor heavy atom, donor atom, acceptor molecule, acceptor atom, score
      L1  H    19    42       P1  7948  1.92
      P1  H  7997  8010       L1    14  0.60
      L1  C     5    26       P1  8028  1.00

> <Gold.PLP.Chemscore.Internal.Correction>
1.6049

> <Gold.Rescore>
     Score         DG    S(hbond)    S(metal)    S(lipo)     H(rot)  DE(clash)    DE(int)     intcor
     14.03     -17.07       1.86        0.00      85.51       1.81       0.12       2.93       ----

> <Gold.Chemscore.Fitness>
14.0264

> <Gold.Chemscore.DG>
-17.0746

> <Gold.Chemscore.ZeroCoef>
-5.4800

> <Gold.Chemscore.Hbond>
1.8633

> <Gold.Chemscore.Metal>
0.0000

> <Gold.Chemscore.Lipo>
85.5114

> <Gold.Chemscore.Internal_Hbond>
0.0000

> <Gold.Chemscore.DEClash>
0.1214

> <Gold.Chemscore.DEInternal>
2.9267

> <Gold.Chemscore.Rot>
1.8101

> <Gold.Chemscore.Internal.Correction>
   9.000000E+99

> <Gold.Chemscore.Hbonds>
donor molecule, donor type, donor heavy atom, donor atom, acceptor molecule, acceptor atom, score
      L1  H    19    42       P1  7948  0.90
      P1  H  7997  8010       L1    14  0.54

> <Gold.Chemscore.Hbond.Weighted>
-6.2235

> <Gold.Chemscore.Metal.Weighted>
-0.0000

> <Gold.Chemscore.Lipo.Weighted>
-10.0048

> <Gold.Chemscore.Internal_Hbond.Weighted>
0.0000

> <Gold.Chemscore.DEClash.Weighted>
0.1214

> <Gold.Chemscore.DEInternal.Weighted>
2.9267

> <Gold.Chemscore.Rot.Weighted>
4.6338

> <Gold.Chemscore.Internal.Correction.Weighted>
   9.000000E+99

> <Gold.Protein.RotatedTorsions>
[ 6907 6896 6895 6894 ] final   -2.80 input  -60.11 | X-H torsion
[ 7974 7965 7964 7962 ] final  -48.92 input  175.53 | X-H torsion
[ 8008 7997 7996 7995 ] final   48.50 input   59.86 | X-H torsion
[ 10167 10162 10161 10158 ] final  129.70 input  -65.29 | X-H torsion
[ 10718 10713 10712 10709 ] final   -0.49 input   66.30 | X-H torsion
[ 10763 10752 10751 10750 ] final   -1.39 input  -60.55 | X-H torsion
[ 11005 11000 10999 10996 ] final   -5.49 input  -57.11 | X-H torsion

> <Gold.Protein.ActiveResidues>
 VAL166  LYS551  ARG553  GLY616  TRP617  ASP618  TYR619  PRO620  LYS621  CYS622 
 ASP623  PHE694  ASN695  SER759  ASP760  ASP761  ALA762  ILE779  LEU786  VAL792 
 PHE793  MET794  SER795  GLU796  ALA797  LYS798  CYS799  TRP800  GLU811  SER814 

> <Gold.Protein.RotatedAtoms>
  151.5241  135.1067  159.9885 H   0  0  0  0  0  0  0  0  0  0  0  0  # atno 6907 bound_to 6896
  152.4607  133.7813  159.6862 H   0  0  0  0  0  0  0  0  0  0  0  0  # atno 6908 bound_to 6896
  150.8569  133.7638  159.3031 H   0  0  0  0  0  0  0  0  0  0  0  0  # atno 6909 bound_to 6896
  145.9461  140.7617  142.9528 H   0  0  0  0  0  0  0  0  0  0  0  0  # atno 7974 bound_to 7965
  155.3867  140.3431  155.4249 H   0  0  0  0  0  0  0  0  0  0  0  0  # atno 8008 bound_to 7997
  156.1580  140.1592  156.8693 H   0  0  0  0  0  0  0  0  0  0  0  0  # atno 8009 bound_to 7997
  154.5113  140.0789  156.7977 H   0  0  0  0  0  0  0  0  0  0  0  0  # atno 8010 bound_to 7997
  139.5465  144.6778  151.4456 H   0  0  0  0  0  0  0  0  0  0  0  0  # atno 10167 bound_to 10162
  156.8196  130.5452  149.5699 H   0  0  0  0  0  0  0  0  0  0  0  0  # atno 10718 bound_to 10713
  153.3442  135.6982  153.6841 H   0  0  0  0  0  0  0  0  0  0  0  0  # atno 10763 bound_to 10752
  153.5594  135.3538  155.2793 H   0  0  0  0  0  0  0  0  0  0  0  0  # atno 10764 bound_to 10752
  154.8642  135.4245  154.2662 H   0  0  0  0  0  0  0  0  0  0  0  0  # atno 10765 bound_to 10752
  140.6917  133.9065  155.8623 H   0  0  0  0  0  0  0  0  0  0  0  0  # atno 11005 bound_to 11000
  144.6787  140.2358  143.7350 LP  0  0  0  0  0  0  0  0  0  0  0  0  # atno 17320 bound_to 7965
  145.8235  139.2054  143.1924 LP  0  0  0  0  0  0  0  0  0  0  0  0  # atno 17321 bound_to 7965
  140.6715  143.8284  150.7005 LP  0  0  0  0  0  0  0  0  0  0  0  0  # atno 17342 bound_to 10162
  140.1709  143.4195  152.2001 LP  0  0  0  0  0  0  0  0  0  0  0  0  # atno 17343 bound_to 10162
  156.0996  130.5959  150.9872 LP  0  0  0  0  0  0  0  0  0  0  0  0  # atno 17370 bound_to 10713
  157.6464  131.0903  150.8145 LP  0  0  0  0  0  0  0  0  0  0  0  0  # atno 17371 bound_to 10713
  141.0236  134.0855  157.4094 LP  0  0  0  0  0  0  0  0  0  0  0  0  # atno 17394 bound_to 11000
  139.8921  135.0123  156.6830 LP  0  0  0  0  0  0  0  0  0  0  0  0  # atno 17395 bound_to 11000

$$$$
