AV-unprocessed.smi:917|AV-procd|sdf|4162|dock10
  -GOLD-   22720 2 73D 1   1.00000     0.00000
 Structure written by MMmdl.
 43 44  0  0  0  0  0  0  0  0  1 V2000
  153.4535  141.8065  159.5499 C   0  0  0  0  0  0  0  0  0  0  0  0
  152.3714  142.7549  159.9797 C   0  0  0  0  0  0  0  0  0  0  0  0
  152.1010  142.8997  161.2661 N   0  0  0  0  0  0  0  0  0  0  0  0
  151.0664  143.8374  161.3364 O   0  0  0  0  0  0  0  0  0  0  0  0
  150.7495  144.2240  160.0747 C   0  0  0  0  0  0  0  0  0  0  0  0
  149.6602  145.2341  159.9436 C   0  0  0  0  0  0  0  0  0  0  0  0
  151.5366  143.5723  159.1648 C   0  0  0  0  0  0  0  0  0  0  0  0
  151.5380  143.6853  157.6619 C   0  0  0  0  0  0  0  0  0  0  0  0
  151.0026  142.3900  157.0511 C   0  0  0  0  0  0  0  0  0  0  0  0
  151.5484  141.3168  157.3077 O   0  0  0  0  0  0  0  0  0  0  0  0
  149.9470  142.5067  156.2309 N   0  0  0  0  0  0  0  0  0  0  0  0
  149.3307  141.4079  155.4981 C   0  0  0  0  0  0  0  0  0  0  0  0
  147.8065  141.5844  155.4114 C   0  0  0  0  0  0  0  0  0  0  0  0
  147.3607  142.1913  154.0721 C   0  0  0  0  0  0  0  0  0  0  0  0
  145.8957  142.6625  154.0768 C   0  0  0  0  0  0  0  0  0  0  0  0
  145.6280  143.8308  153.1260 C   0  0  0  0  0  0  0  0  0  0  0  0
  144.2999  144.4240  153.6035 C   0  0  0  0  0  0  0  0  0  0  0  0
  144.1969  144.0865  155.0987 C   0  0  0  0  0  0  0  0  0  0  0  0
  145.4024  143.1958  155.4263 C   0  0  0  0  0  0  0  0  0  0  0  0
  154.1134  142.2737  158.8187 H   0  0  0  0  0  0  0  0  0  0  0  0
  153.0279  140.9145  159.0903 H   0  0  0  0  0  0  0  0  0  0  0  0
  154.0689  141.4862  160.3919 H   0  0  0  0  0  0  0  0  0  0  0  0
  149.6802  145.7076  158.9624 H   0  0  0  0  0  0  0  0  0  0  0  0
  149.7653  146.0170  160.6951 H   0  0  0  0  0  0  0  0  0  0  0  0
  148.6839  144.7674  160.0743 H   0  0  0  0  0  0  0  0  0  0  0  0
  150.9129  144.5120  157.3232 H   0  0  0  0  0  0  0  0  0  0  0  0
  152.5395  143.8902  157.2815 H   0  0  0  0  0  0  0  0  0  0  0  0
  149.5619  143.4280  156.0809 H   0  0  0  0  0  0  0  0  0  0  0  0
  149.7658  141.3265  154.5005 H   0  0  0  0  0  0  0  0  0  0  0  0
  149.5690  140.4790  156.0169 H   0  0  0  0  0  0  0  0  0  0  0  0
  147.3212  140.6177  155.5526 H   0  0  0  0  0  0  0  0  0  0  0  0
  147.4684  142.2215  156.2295 H   0  0  0  0  0  0  0  0  0  0  0  0
  148.0163  143.0232  153.8112 H   0  0  0  0  0  0  0  0  0  0  0  0
  147.4879  141.4461  153.2860 H   0  0  0  0  0  0  0  0  0  0  0  0
  145.2534  141.8324  153.7781 H   0  0  0  0  0  0  0  0  0  0  0  0
  146.4161  144.5791  153.2241 H   0  0  0  0  0  0  0  0  0  0  0  0
  145.5940  143.5220  152.0808 H   0  0  0  0  0  0  0  0  0  0  0  0
  144.2464  145.4972  153.4178 H   0  0  0  0  0  0  0  0  0  0  0  0
  143.4731  143.9578  153.0661 H   0  0  0  0  0  0  0  0  0  0  0  0
  144.1976  144.9853  155.7164 H   0  0  0  0  0  0  0  0  0  0  0  0
  143.2640  143.5569  155.2969 H   0  0  0  0  0  0  0  0  0  0  0  0
  145.1467  142.3962  156.1221 H   0  0  0  0  0  0  0  0  0  0  0  0
  146.1811  143.8003  155.8939 H   0  0  0  0  0  0  0  0  0  0  0  0
  1  2  1  0  0  0  0
  1 20  1  0  0  0  0
  1 21  1  0  0  0  0
  1 22  1  0  0  0  0
  2  7  1  0  0  0  0
  2  3  2  0  0  0  0
  3  4  1  0  0  0  0
  4  5  1  0  0  0  0
  5  6  1  0  0  0  0
  5  7  2  0  0  0  0
  6 23  1  0  0  0  0
  6 24  1  0  0  0  0
  6 25  1  0  0  0  0
  7  8  1  0  0  0  0
  8  9  1  0  0  0  0
  8 26  1  0  0  0  0
  8 27  1  0  0  0  0
  9 10  2  0  0  0  0
  9 11  1  0  0  0  0
 11 12  1  0  0  0  0
 11 28  1  0  0  0  0
 12 13  1  0  0  0  0
 12 29  1  0  0  0  0
 12 30  1  0  0  0  0
 13 14  1  0  0  0  0
 13 31  1  0  0  0  0
 13 32  1  0  0  0  0
 14 15  1  0  0  0  0
 14 33  1  0  0  0  0
 14 34  1  0  0  0  0
 15 19  1  0  0  0  0
 15 16  1  0  0  0  0
 15 35  1  0  0  0  0
 16 17  1  0  0  0  0
 16 36  1  0  0  0  0
 16 37  1  0  0  0  0
 17 18  1  0  0  0  0
 17 38  1  0  0  0  0
 17 39  1  0  0  0  0
 18 19  1  0  0  0  0
 18 40  1  0  0  0  0
 18 41  1  0  0  0  0
 19 42  1  0  0  0  0
 19 43  1  0  0  0  0
M  END
> <s_m_source_file>
AV-unprocessed.smi

> <i_m_source_file_index>
917

> <i_lp_mmshare_version>
43012

> <i_f3d_flags>
0

> <s_epik_input>
W0NIM11jMW5vYyhbQ0gzXSljMVtDSDJdQyg9TylbTkhdW0NIMl1bQ0gyXVtDSDJdW0NIXTJbQ0gyXVtDSDJdW0NIMl1bQ0gyXTI=

> <s_epik_cmdline>
J2VwaWtfcHl0aG9uJywgJy1waCcsICc3LjAnLCAnLXRuJywgJzgnLCAnLW1hJywgJzIwMCcsICctbWV0YWxfYmluZGluZycsICctaW1hZScsICc8aW5maWxlLm1hZT4nLCAnLW9tYWUnLCAnPG91dGZpbGUubWFlPic=

> <r_lp_tautomer_probability>
1

> <r_epik_Ionization_Penalty>
1.90047e-08

> <r_epik_Ionization_Penalty_Charging>
0

> <r_epik_Ionization_Penalty_Neutral>
1.90047e-08

> <r_epik_State_Penalty>
-0

> <r_epik_Charging_Adjusted_Penalty>
0

> <i_epik_Tot_Q>
0

> <i_epik_Tot_abs_Q>
0

> <r_epik_Metal_State_Penalty>
-0

> <b_epik_Metal_Only>
0

> <s_lp_Force_Field>
OPLS_2005

> <r_lp_Energy>
14.8475

> <b_lp_Chiralities_Consistent>
1

> <s_lp_Variant>
AV-unprocessed.smi:917-1

> <Gold.Version>
5.8.1

> <Gold.Id.Protein>
6NUR|6NUR_protein|mol2

> <Gold.PLP.Fitness>
44.6880

> <Gold.PLP.PLP>
-43.4470

> <Gold.PLP.part.hbond>
-1.6957

> <Gold.PLP.part.metal>
0.0000

> <Gold.PLP.part.buried>
-5.8784

> <Gold.PLP.part.nonpolar>
-35.3155

> <Gold.PLP.part.repulsive>
0.3615

> <Gold.PLP.ligand.clash>
0.0000

> <Gold.PLP.ligand.torsion>
0.9108

> <Gold.PLP.Chemscore.Hbond>
1.0000

> <Gold.PLP.Chemscore.CHOScore>
0.0000

> <Gold.PLP.Chemscore.Metal>
0.0000

> <Gold.Chemscore.Hbonds>
donor molecule, donor type, donor heavy atom, donor atom, acceptor molecule, acceptor atom, score
      L1  H    11    28       P1  8028  0.98

> <Gold.PLP.Chemscore.Internal.Correction>
0.0626

> <Gold.Rescore>
     Score         DG    S(hbond)    S(metal)    S(lipo)     H(rot)  DE(clash)    DE(int)     intcor
     16.24     -17.63       0.99        0.00     111.58       1.65       0.38       1.01       ----

> <Gold.Chemscore.Fitness>
16.2385

> <Gold.Chemscore.DG>
-17.6303

> <Gold.Chemscore.ZeroCoef>
-5.4800

> <Gold.Chemscore.Hbond>
0.9936

> <Gold.Chemscore.Metal>
0.0000

> <Gold.Chemscore.Lipo>
111.5763

> <Gold.Chemscore.Internal_Hbond>
0.0000

> <Gold.Chemscore.DEClash>
0.3818

> <Gold.Chemscore.DEInternal>
1.0100

> <Gold.Chemscore.Rot>
1.6495

> <Gold.Chemscore.Internal.Correction>
   9.000000E+99

> <Gold.Chemscore.Hbonds>
donor molecule, donor type, donor heavy atom, donor atom, acceptor molecule, acceptor atom, score
      L1  H    11    28       P1  8028  0.91

> <Gold.Chemscore.Hbond.Weighted>
-3.3186

> <Gold.Chemscore.Metal.Weighted>
-0.0000

> <Gold.Chemscore.Lipo.Weighted>
-13.0544

> <Gold.Chemscore.Internal_Hbond.Weighted>
0.0000

> <Gold.Chemscore.DEClash.Weighted>
0.3818

> <Gold.Chemscore.DEInternal.Weighted>
1.0100

> <Gold.Chemscore.Rot.Weighted>
4.2228

> <Gold.Chemscore.Internal.Correction.Weighted>
   9.000000E+99

> <Gold.Protein.RotatedTorsions>
[ 6907 6896 6895 6894 ] final   64.43 input  -60.11 | X-H torsion
[ 7974 7965 7964 7962 ] final   14.21 input  175.53 | X-H torsion
[ 8008 7997 7996 7995 ] final   45.76 input   59.86 | X-H torsion
[ 10167 10162 10161 10158 ] final   43.08 input  -65.29 | X-H torsion
[ 10718 10713 10712 10709 ] final  -74.86 input   66.30 | X-H torsion
[ 10763 10752 10751 10750 ] final   27.72 input  -60.55 | X-H torsion
[ 11005 11000 10999 10996 ] final -172.70 input  -57.11 | X-H torsion

> <Gold.Protein.ActiveResidues>
 VAL166  LYS551  ARG553  GLY616  TRP617  ASP618  TYR619  PRO620  LYS621  CYS622 
 ASP623  PHE694  ASN695  SER759  ASP760  ASP761  ALA762  ILE779  LEU786  VAL792 
 PHE793  MET794  SER795  GLU796  ALA797  LYS798  CYS799  TRP800  GLU811  SER814 

> <Gold.Protein.RotatedAtoms>
  152.4331  134.5739  159.9928 H   0  0  0  0  0  0  0  0  0  0  0  0  # atno 6907 bound_to 6896
  151.5856  133.3367  159.3025 H   0  0  0  0  0  0  0  0  0  0  0  0  # atno 6908 bound_to 6896
  150.8226  134.7477  159.6850 H   0  0  0  0  0  0  0  0  0  0  0  0  # atno 6909 bound_to 6896
  146.2310  139.9074  142.8530 H   0  0  0  0  0  0  0  0  0  0  0  0  # atno 7974 bound_to 7965
  155.3413  140.3408  155.4239 H   0  0  0  0  0  0  0  0  0  0  0  0  # atno 8008 bound_to 7997
  156.1812  140.1664  156.8307 H   0  0  0  0  0  0  0  0  0  0  0  0  # atno 8009 bound_to 7997
  154.5335  140.0740  156.8370 H   0  0  0  0  0  0  0  0  0  0  0  0  # atno 8010 bound_to 7997
  140.3480  144.2386  150.6148 H   0  0  0  0  0  0  0  0  0  0  0  0  # atno 10167 bound_to 10162
  156.0228  130.4427  150.2956 H   0  0  0  0  0  0  0  0  0  0  0  0  # atno 10718 bound_to 10713
  153.0538  135.6530  154.0629 H   0  0  0  0  0  0  0  0  0  0  0  0  # atno 10763 bound_to 10752
  154.0311  135.2911  155.3370 H   0  0  0  0  0  0  0  0  0  0  0  0  # atno 10764 bound_to 10752
  154.6841  135.5308  153.8370 H   0  0  0  0  0  0  0  0  0  0  0  0  # atno 10765 bound_to 10752
  140.4941  134.5957  157.4965 H   0  0  0  0  0  0  0  0  0  0  0  0  # atno 11005 bound_to 11000
  145.2263  140.9955  143.4016 LP  0  0  0  0  0  0  0  0  0  0  0  0  # atno 17320 bound_to 7965
  144.9567  139.4023  143.6376 LP  0  0  0  0  0  0  0  0  0  0  0  0  # atno 17321 bound_to 7965
  140.5246  143.2257  151.8335 LP  0  0  0  0  0  0  0  0  0  0  0  0  # atno 17342 bound_to 10162
  139.4830  144.4795  151.9324 LP  0  0  0  0  0  0  0  0  0  0  0  0  # atno 17343 bound_to 10162
  157.1059  131.0208  151.3067 LP  0  0  0  0  0  0  0  0  0  0  0  0  # atno 17370 bound_to 10713
  157.4743  130.7727  149.7353 LP  0  0  0  0  0  0  0  0  0  0  0  0  # atno 17371 bound_to 10713
  139.9752  134.7227  155.9964 LP  0  0  0  0  0  0  0  0  0  0  0  0  # atno 17394 bound_to 11000
  141.1469  133.6554  156.3895 LP  0  0  0  0  0  0  0  0  0  0  0  0  # atno 17395 bound_to 11000

$$$$
