AV-unprocessed.smi:287|AV-procd|sdf|2183|dock8
  -GOLD-   2262021563D 1   1.00000     0.00000
 Structure written by MMmdl.
 55 58  0  0  0  0  0  0  0  0  1 V2000
  151.7394  145.6319  159.2267 C   0  0  0  0  0  0  0  0  0  0  0  0
  151.8212  144.1545  159.0502 C   0  0  0  0  0  0  0  0  0  0  0  0
  151.0854  143.2454  158.3479 C   0  0  0  0  0  0  0  0  0  0  0  0
  151.6559  141.9590  158.5859 C   0  0  0  0  0  0  0  0  0  0  0  0
  151.1669  140.6375  158.0084 C   0  0  1  0  0  0  0  0  0  0  0  0
  149.6802  140.4419  158.3473 C   0  0  0  0  0  0  0  0  0  0  0  0
  151.2397  140.5977  156.5961 O   0  0  0  0  0  0  0  0  0  0  0  0
  151.9906  139.4286  158.5095 C   0  0  0  0  0  0  0  0  0  0  0  0
  151.2525  138.1737  158.4429 N   0  0  0  0  0  0  0  0  0  0  0  0
  151.1886  137.4656  157.2963 C   0  0  0  0  0  0  0  0  0  0  0  0
  151.5256  138.1436  156.1732 N   0  0  0  0  0  0  0  0  0  0  0  0
  151.4969  137.5337  154.9851 C   0  0  0  0  0  0  0  0  0  0  0  0
  151.1649  136.2729  154.7026 N   0  0  0  0  0  0  0  0  0  0  0  0
  150.8219  135.5841  155.8293 C   0  0  0  0  0  0  0  0  0  0  0  0
  150.8047  136.0985  157.1572 C   0  0  0  0  0  0  0  0  0  0  0  0
  150.3949  135.0951  158.0295 N   0  0  0  0  0  0  0  0  0  0  0  0
  150.1856  134.0609  157.2611 C   0  0  0  0  0  0  0  0  0  0  0  0
  150.4165  134.2710  155.9194 N   0  0  0  0  0  0  0  0  0  0  0  0
  150.2777  133.3167  154.7735 C   0  0  1  0  0  0  0  0  0  0  0  0
  150.5078  132.0304  155.2672 O   0  0  0  0  0  0  0  0  0  0  0  0
  149.3788  131.1859  155.0429 C   0  0  1  0  0  0  0  0  0  0  0  0
  149.2374  130.1409  156.1637 C   0  0  0  0  0  0  0  0  0  0  0  0
  149.1024  130.7861  157.4119 O   0  0  0  0  0  0  0  0  0  0  0  0
  148.1942  132.1486  154.8788 C   0  0  1  0  0  0  0  0  0  0  0  0
  147.6337  132.4992  156.1332 O   0  0  0  0  0  0  0  0  0  0  0  0
  148.8553  133.3300  154.1829 C   0  0  1  0  0  0  0  0  0  0  0  0
  148.1328  134.5406  154.3346 O   0  0  0  0  0  0  0  0  0  0  0  0
  152.7265  142.1991  159.4134 C   0  0  0  0  0  0  0  0  0  0  0  0
  153.7709  141.3323  160.0355 C   0  0  0  0  0  0  0  0  0  0  0  0
  152.8293  143.5259  159.7048 O   0  0  0  0  0  0  0  0  0  0  0  0
  151.0519  133.6168  154.0667 H   0  0  0  0  0  0  0  0  0  0  0  0
  149.5276  130.6846  154.0847 H   0  0  0  0  0  0  0  0  0  0  0  0
  147.4036  131.7138  154.2664 H   0  0  0  0  0  0  0  0  0  0  0  0
  148.9482  133.1088  153.1190 H   0  0  0  0  0  0  0  0  0  0  0  0
  150.8134  146.0233  158.8049 H   0  0  0  0  0  0  0  0  0  0  0  0
  152.5737  146.1267  158.7297 H   0  0  0  0  0  0  0  0  0  0  0  0
  151.7674  145.8983  160.2835 H   0  0  0  0  0  0  0  0  0  0  0  0
  150.2258  143.4755  157.7358 H   0  0  0  0  0  0  0  0  0  0  0  0
  149.5201  140.4211  159.4259 H   0  0  0  0  0  0  0  0  0  0  0  0
  149.2969  139.5047  157.9418 H   0  0  0  0  0  0  0  0  0  0  0  0
  149.0717  141.2513  157.9414 H   0  0  0  0  0  0  0  0  0  0  0  0
  150.6380  141.2376  156.2475 H   0  0  0  0  0  0  0  0  0  0  0  0
  152.8693  139.3211  157.8721 H   0  0  0  0  0  0  0  0  0  0  0  0
  152.3537  139.6015  159.5235 H   0  0  0  0  0  0  0  0  0  0  0  0
  150.7299  137.9316  159.2726 H   0  0  0  0  0  0  0  0  0  0  0  0
  151.7797  138.1441  154.1402 H   0  0  0  0  0  0  0  0  0  0  0  0
  149.8531  133.1125  157.6571 H   0  0  0  0  0  0  0  0  0  0  0  0
  148.3892  129.4788  155.9869 H   0  0  0  0  0  0  0  0  0  0  0  0
  150.1319  129.5190  156.2138 H   0  0  0  0  0  0  0  0  0  0  0  0
  148.5275  130.2699  157.9558 H   0  0  0  0  0  0  0  0  0  0  0  0
  147.8509  133.4018  156.3123 H   0  0  0  0  0  0  0  0  0  0  0  0
  148.4668  135.1679  153.7110 H   0  0  0  0  0  0  0  0  0  0  0  0
  154.2259  140.6797  159.2904 H   0  0  0  0  0  0  0  0  0  0  0  0
  153.3384  140.7065  160.8162 H   0  0  0  0  0  0  0  0  0  0  0  0
  154.5642  141.9304  160.4845 H   0  0  0  0  0  0  0  0  0  0  0  0
  1  2  1  0  0  0  0
  1 35  1  0  0  0  0
  1 36  1  0  0  0  0
  1 37  1  0  0  0  0
  2 30  1  0  0  0  0
  2  3  2  0  0  0  0
  3  4  1  0  0  0  0
  3 38  1  0  0  0  0
  4  5  1  0  0  0  0
  4 28  2  0  0  0  0
  5  6  1  0  0  0  0
  5  7  1  0  0  0  0
  5  8  1  0  0  0  0
  6 39  1  0  0  0  0
  6 40  1  0  0  0  0
  6 41  1  0  0  0  0
  7 42  1  0  0  0  0
  8  9  1  0  0  0  0
  8 43  1  0  0  0  0
  8 44  1  0  0  0  0
  9 10  1  0  0  0  0
  9 45  1  0  0  0  0
 10 15  1  0  0  0  0
 10 11  2  0  0  0  0
 11 12  1  0  0  0  0
 12 13  2  0  0  0  0
 12 46  1  0  0  0  0
 13 14  1  0  0  0  0
 14 18  1  0  0  0  0
 14 15  2  0  0  0  0
 15 16  1  0  0  0  0
 16 17  2  0  0  0  0
 17 18  1  0  0  0  0
 17 47  1  0  0  0  0
 18 19  1  0  0  0  0
 19 31  1  0  0  0  0
 19 26  1  0  0  0  0
 19 20  1  0  0  0  0
 20 21  1  0  0  0  0
 21 32  1  0  0  0  0
 21 22  1  0  0  0  0
 21 24  1  0  0  0  0
 22 23  1  0  0  0  0
 22 48  1  0  0  0  0
 22 49  1  0  0  0  0
 23 50  1  0  0  0  0
 24 33  1  0  0  0  0
 24 25  1  0  0  0  0
 24 26  1  0  0  0  0
 25 51  1  0  0  0  0
 26 34  1  0  0  0  0
 26 27  1  0  0  0  0
 27 52  1  0  0  0  0
 28 29  1  0  0  0  0
 28 30  1  0  0  0  0
 29 53  1  0  0  0  0
 29 54  1  0  0  0  0
 29 55  1  0  0  0  0
M  END
> <s_m_source_file>
AV-unprocessed.smi

> <i_m_source_file_index>
287

> <i_lp_mmshare_version>
43012

> <i_f3d_flags>
0

> <s_epik_input>
W0NIM11jMVtjSF1jKGMobzEpW0NIM10pW0NAQF0oW0NIM10pKFtPSF0pW0NIMl1bTkhdYyhuW2NIXW4yKWMoYzIzKW5bY0hdbjNbQ0BASF00T1tDQEhdKFtDSDJdW09IXSlbQ0BASF0oW09IXSlbQ0BIXTRbT0hd

> <s_epik_cmdline>
J2VwaWtfcHl0aG9uJywgJy1waCcsICc3LjAnLCAnLXRuJywgJzgnLCAnLW1hJywgJzIwMCcsICctbWV0YWxfYmluZGluZycsICctaW1hZScsICc8aW5maWxlLm1hZT4nLCAnLW9tYWUnLCAnPG91dGZpbGUubWFlPic=

> <r_lp_tautomer_probability>
1

> <r_epik_Ionization_Penalty>
0.000992612

> <r_epik_Ionization_Penalty_Charging>
0

> <r_epik_Ionization_Penalty_Neutral>
0.000992612

> <r_epik_State_Penalty>
-0

> <r_epik_Charging_Adjusted_Penalty>
0

> <i_epik_Tot_Q>
0

> <i_epik_Tot_abs_Q>
0

> <r_epik_Metal_State_Penalty>
-0

> <b_epik_Metal_Only>
0

> <s_epik_Chemistry_Notes>
This compound contains an acetal/aminal-like group ( X-CH(R)-Y where X, Y are N, S, or O) that may be acid/base labile, releasing an aldehyde.

> <s_lp_Force_Field>
OPLS_2005

> <r_lp_Energy>
47.3874

> <b_lp_Chiralities_Consistent>
1

> <s_lp_Variant>
AV-unprocessed.smi:287-7

> <Gold.Version>
5.8.1

> <Gold.Id.Protein>
6NUR|6NUR_protein|mol2

> <Gold.PLP.Fitness>
49.4471

> <Gold.PLP.PLP>
-43.1221

> <Gold.PLP.part.hbond>
-2.7868

> <Gold.PLP.part.metal>
0.0000

> <Gold.PLP.part.buried>
-6.0296

> <Gold.PLP.part.nonpolar>
-34.0361

> <Gold.PLP.part.repulsive>
0.2693

> <Gold.PLP.ligand.clash>
0.0000

> <Gold.PLP.ligand.torsion>
1.3984

> <Gold.PLP.Chemscore.Hbond>
2.7940

> <Gold.PLP.Chemscore.CHOScore>
0.0000

> <Gold.PLP.Chemscore.Metal>
0.0000

> <Gold.Chemscore.Hbonds>
donor molecule, donor type, donor heavy atom, donor atom, acceptor molecule, acceptor atom, score
      L1  H    27    52       P1  7948  0.67
      P1  H  6896  6908       L1    16  0.66
      P1  H 10752 10763       L1    13  0.68

> <Gold.PLP.Chemscore.Internal.Correction>
0.7398

> <Gold.Rescore>
     Score         DG    S(hbond)    S(metal)    S(lipo)     H(rot)  DE(clash)    DE(int)     intcor
      3.91      -8.07       1.44        0.00      96.35       5.27       0.08       4.08       ----

> <Gold.Chemscore.Fitness>
3.9097

> <Gold.Chemscore.DG>
-8.0700

> <Gold.Chemscore.ZeroCoef>
-5.4800

> <Gold.Chemscore.Hbond>
1.4375

> <Gold.Chemscore.Metal>
0.0000

> <Gold.Chemscore.Lipo>
96.3482

> <Gold.Chemscore.Internal_Hbond>
0.0000

> <Gold.Chemscore.DEClash>
0.0806

> <Gold.Chemscore.DEInternal>
4.0798

> <Gold.Chemscore.Rot>
5.2672

> <Gold.Chemscore.Internal.Correction>
   9.000000E+99

> <Gold.Chemscore.Hbonds>
donor molecule, donor type, donor heavy atom, donor atom, acceptor molecule, acceptor atom, score
      L1  H    27    52       P1  7948  0.63
      P1  H  6896  6908       L1    16  0.26
      P1  H 10752 10763       L1    13  0.02

> <Gold.Chemscore.Hbond.Weighted>
-4.8012

> <Gold.Chemscore.Metal.Weighted>
-0.0000

> <Gold.Chemscore.Lipo.Weighted>
-11.2727

> <Gold.Chemscore.Internal_Hbond.Weighted>
0.0000

> <Gold.Chemscore.DEClash.Weighted>
0.0806

> <Gold.Chemscore.DEInternal.Weighted>
4.0798

> <Gold.Chemscore.Rot.Weighted>
13.4839

> <Gold.Chemscore.Internal.Correction.Weighted>
   9.000000E+99

> <Gold.Protein.RotatedTorsions>
[ 6907 6896 6895 6894 ] final  160.18 input  -60.11 | X-H torsion
[ 7974 7965 7964 7962 ] final  138.73 input  175.53 | X-H torsion
[ 8008 7997 7996 7995 ] final -126.45 input   59.86 | X-H torsion
[ 10167 10162 10161 10158 ] final   20.82 input  -65.29 | X-H torsion
[ 10718 10713 10712 10709 ] final -179.46 input   66.30 | X-H torsion
[ 10763 10752 10751 10750 ] final   58.86 input  -60.55 | X-H torsion
[ 11005 11000 10999 10996 ] final -119.20 input  -57.11 | X-H torsion

> <Gold.Protein.ActiveResidues>
 VAL166  LYS551  ARG553  GLY616  TRP617  ASP618  TYR619  PRO620  LYS621  CYS622 
 ASP623  PHE694  ASN695  SER759  ASP760  ASP761  ALA762  ILE779  LEU786  VAL792 
 PHE793  MET794  SER795  GLU796  ALA797  LYS798  CYS799  TRP800  GLU811  SER814 

> <Gold.Protein.RotatedAtoms>
  151.9745  133.3737  159.4083 H   0  0  0  0  0  0  0  0  0  0  0  0  # atno 6907 bound_to 6896
  150.6944  134.4105  159.5169 H   0  0  0  0  0  0  0  0  0  0  0  0  # atno 6908 bound_to 6896
  152.1814  134.8750  160.0576 H   0  0  0  0  0  0  0  0  0  0  0  0  # atno 6909 bound_to 6896
  144.9345  139.5006  143.5602 H   0  0  0  0  0  0  0  0  0  0  0  0  # atno 7974 bound_to 7965
  155.2298  140.0425  157.2960 H   0  0  0  0  0  0  0  0  0  0  0  0  # atno 8008 bound_to 7997
  154.5895  140.2423  155.7910 H   0  0  0  0  0  0  0  0  0  0  0  0  # atno 8009 bound_to 7997
  156.2249  140.2957  156.0052 H   0  0  0  0  0  0  0  0  0  0  0  0  # atno 8010 bound_to 7997
  140.5474  143.9570  150.6556 H   0  0  0  0  0  0  0  0  0  0  0  0  # atno 10167 bound_to 10162
  156.8595  130.9746  151.3085 H   0  0  0  0  0  0  0  0  0  0  0  0  # atno 10718 bound_to 10713
  152.9880  135.5592  154.5620 H   0  0  0  0  0  0  0  0  0  0  0  0  # atno 10763 bound_to 10752
  154.5037  135.2798  155.1401 H   0  0  0  0  0  0  0  0  0  0  0  0  # atno 10764 bound_to 10752
  154.2821  135.6342  153.5404 H   0  0  0  0  0  0  0  0  0  0  0  0  # atno 10765 bound_to 10752
  141.0232  134.0092  157.3252 H   0  0  0  0  0  0  0  0  0  0  0  0  # atno 11005 bound_to 11000
  146.3261  139.8319  142.8906 LP  0  0  0  0  0  0  0  0  0  0  0  0  # atno 17320 bound_to 7965
  145.3089  141.0214  143.3566 LP  0  0  0  0  0  0  0  0  0  0  0  0  # atno 17321 bound_to 7965
  140.2987  143.3275  152.0993 LP  0  0  0  0  0  0  0  0  0  0  0  0  # atno 17342 bound_to 10162
  139.5013  144.6710  151.6242 LP  0  0  0  0  0  0  0  0  0  0  0  0  # atno 17343 bound_to 10162
  157.6258  130.8690  149.9187 LP  0  0  0  0  0  0  0  0  0  0  0  0  # atno 17370 bound_to 10713
  156.0784  130.3676  150.0629 LP  0  0  0  0  0  0  0  0  0  0  0  0  # atno 17371 bound_to 10713
  139.9159  135.0196  156.7880 LP  0  0  0  0  0  0  0  0  0  0  0  0  # atno 17394 bound_to 11000
  140.6536  133.9709  155.7768 LP  0  0  0  0  0  0  0  0  0  0  0  0  # atno 17395 bound_to 11000

$$$$
