AV-unprocessed.smi:2086|AV-procd|sdf|8519|dock2
  -GOLD-   2272011233D 1   1.00000     0.00000
 Structure written by MMmdl.
 33 34  0  0  0  0  0  0  0  0  2 V2000
  151.2335  139.9062  158.4216 O   0  0  0  0  0  0  0  0  0  0  0  0
  151.1193  140.8489  157.6305 C   0  0  0  0  0  0  0  0  0  0  0  0
  151.5575  142.1340  157.7372 N   0  5  0  0  0  0  0  0  0  0  0  0
  151.0227  143.1016  158.6946 C   0  0  0  0  0  0  0  0  0  0  0  0
  152.1271  144.0648  159.1681 C   0  0  0  0  0  0  0  0  0  0  0  0
  152.6973  144.6323  158.1050 F   0  0  0  0  0  0  0  0  0  0  0  0
  151.6181  145.0275  159.9387 F   0  0  0  0  0  0  0  0  0  0  0  0
  153.0663  143.4074  159.8501 F   0  0  0  0  0  0  0  0  0  0  0  0
  150.4567  140.5735  156.3042 C   0  0  0  0  0  0  0  0  0  0  0  0
  149.8439  141.6513  155.6269 C   0  0  0  0  0  0  0  0  0  0  0  0
  149.2085  141.4287  154.3927 C   0  0  0  0  0  0  0  0  0  0  0  0
  149.2141  140.1246  153.8702 C   0  0  0  0  0  0  0  0  0  0  0  0
  149.8112  139.0855  154.4867 N   0  0  0  0  0  0  0  0  0  0  0  0
  150.4329  139.2894  155.6758 C   0  0  0  0  0  0  0  0  0  0  0  0
  151.0934  138.1740  156.2316 N   0  0  0  0  0  0  0  0  0  0  0  0
  150.7675  136.8544  155.7025 C   0  0  0  0  0  0  0  0  0  0  0  0
  151.3578  135.7682  156.6176 C   0  0  0  0  0  0  0  0  0  0  0  0
  152.7611  135.9724  156.7618 O   0  0  0  0  0  0  0  0  0  0  0  0
  153.0606  137.2354  157.3512 C   0  0  0  0  0  0  0  0  0  0  0  0
  152.5199  138.3654  156.4589 C   0  0  0  0  0  0  0  0  0  0  0  0
  150.2106  143.6890  158.2629 H   0  0  0  0  0  0  0  0  0  0  0  0
  150.5936  142.6007  159.5636 H   0  0  0  0  0  0  0  0  0  0  0  0
  149.8472  142.6437  156.0544 H   0  0  0  0  0  0  0  0  0  0  0  0
  148.7255  142.2366  153.8638 H   0  0  0  0  0  0  0  0  0  0  0  0
  148.7338  139.9112  152.9268 H   0  0  0  0  0  0  0  0  0  0  0  0
  149.6852  136.7386  155.6335 H   0  0  0  0  0  0  0  0  0  0  0  0
  151.1739  136.7517  154.6955 H   0  0  0  0  0  0  0  0  0  0  0  0
  150.8757  135.7813  157.5964 H   0  0  0  0  0  0  0  0  0  0  0  0
  151.1837  134.7810  156.1897 H   0  0  0  0  0  0  0  0  0  0  0  0
  152.6307  137.2934  158.3526 H   0  0  0  0  0  0  0  0  0  0  0  0
  154.1407  137.3290  157.4625 H   0  0  0  0  0  0  0  0  0  0  0  0
  153.0365  138.3649  155.4983 H   0  0  0  0  0  0  0  0  0  0  0  0
  152.7149  139.3312  156.9247 H   0  0  0  0  0  0  0  0  0  0  0  0
  1  2  2  0  0  0  0
  2  3  1  0  0  0  0
  2  9  1  0  0  0  0
  3  4  1  0  0  0  0
  4  5  1  0  0  0  0
  4 21  1  0  0  0  0
  4 22  1  0  0  0  0
  5  6  1  0  0  0  0
  5  7  1  0  0  0  0
  5  8  1  0  0  0  0
  9 14  1  0  0  0  0
  9 10  2  0  0  0  0
 10 11  1  0  0  0  0
 10 23  1  0  0  0  0
 11 12  2  0  0  0  0
 11 24  1  0  0  0  0
 12 13  1  0  0  0  0
 12 25  1  0  0  0  0
 13 14  2  0  0  0  0
 14 15  1  0  0  0  0
 15 20  1  0  0  0  0
 15 16  1  0  0  0  0
 16 17  1  0  0  0  0
 16 26  1  0  0  0  0
 16 27  1  0  0  0  0
 17 18  1  0  0  0  0
 17 28  1  0  0  0  0
 17 29  1  0  0  0  0
 18 19  1  0  0  0  0
 19 20  1  0  0  0  0
 19 30  1  0  0  0  0
 19 31  1  0  0  0  0
 20 32  1  0  0  0  0
 20 33  1  0  0  0  0
M  CHG  1   3  -1
M  END
> <s_m_source_file>
AV-unprocessed.smi

> <i_m_source_file_index>
2086

> <i_lp_mmshare_version>
43012

> <i_f3d_flags>
0

> <s_epik_input>
RkMoRikoRilbQ0gyXVtOSF1DKD1PKWMxW2NIXVtjSF1bY0hdbmMxTjJbQ0gyXVtDSDJdT1tDSDJdW0NIMl0y

> <s_epik_cmdline>
J2VwaWtfcHl0aG9uJywgJy1waCcsICc3LjAnLCAnLXRuJywgJzgnLCAnLW1hJywgJzIwMCcsICctbWV0YWxfYmluZGluZycsICctaW1hZScsICc8aW5maWxlLm1hZT4nLCAnLW9tYWUnLCAnPG91dGZpbGUubWFlPic=

> <r_lp_tautomer_probability>
1

> <r_epik_Ionization_Penalty>
6.70774

> <r_epik_Ionization_Penalty_Charging>
6.70732

> <r_epik_Ionization_Penalty_Neutral>
0.000422769

> <r_epik_State_Penalty>
6.70731

> <r_epik_Charging_Adjusted_Penalty>
13.4146

> <i_epik_Tot_Q>
-1

> <i_epik_Tot_abs_Q>
1

> <r_epik_Metal_State_Penalty>
2.62875

> <b_epik_Metal_Only>
1

> <s_lp_Force_Field>
OPLS_2005

> <r_lp_Energy>
34.3175

> <b_lp_Chiralities_Consistent>
1

> <s_lp_Variant>
AV-unprocessed.smi:2086-2

> <Gold.Version>
5.8.1

> <Gold.Id.Protein>
6NUR|6NUR_protein|mol2

> <Gold.PLP.Fitness>
40.9267

> <Gold.PLP.PLP>
-37.0548

> <Gold.PLP.part.hbond>
-1.0000

> <Gold.PLP.part.metal>
0.0000

> <Gold.PLP.part.buried>
-0.3772

> <Gold.PLP.part.nonpolar>
-34.3492

> <Gold.PLP.part.repulsive>
0.1935

> <Gold.PLP.ligand.clash>
0.0000

> <Gold.PLP.ligand.torsion>
1.3310

> <Gold.PLP.Chemscore.Hbond>
1.0000

> <Gold.PLP.Chemscore.CHOScore>
0.8831

> <Gold.PLP.Chemscore.Metal>
0.0000

> <Gold.Chemscore.Hbonds>
donor molecule, donor type, donor heavy atom, donor atom, acceptor molecule, acceptor atom, score
      P1  H 10752 10764       L1    18  1.00
      L1  C    12    25       P1  7957  0.78

> <Gold.PLP.Chemscore.Internal.Correction>
0.8846

> <Gold.Rescore>
     Score         DG    S(hbond)    S(metal)    S(lipo)     H(rot)  DE(clash)    DE(int)     intcor
      9.01     -13.16       0.95        0.00      67.26       1.32       0.56       3.59       ----

> <Gold.Chemscore.Fitness>
9.0086

> <Gold.Chemscore.DG>
-13.1600

> <Gold.Chemscore.ZeroCoef>
-5.4800

> <Gold.Chemscore.Hbond>
0.9516

> <Gold.Chemscore.Metal>
0.0000

> <Gold.Chemscore.Lipo>
67.2589

> <Gold.Chemscore.Internal_Hbond>
0.0000

> <Gold.Chemscore.DEClash>
0.5631

> <Gold.Chemscore.DEInternal>
3.5883

> <Gold.Chemscore.Rot>
1.3154

> <Gold.Chemscore.Internal.Correction>
   9.000000E+99

> <Gold.Chemscore.Hbonds>
donor molecule, donor type, donor heavy atom, donor atom, acceptor molecule, acceptor atom, score
      P1  H 10752 10764       L1    18  0.30

> <Gold.Chemscore.Hbond.Weighted>
-3.1782

> <Gold.Chemscore.Metal.Weighted>
-0.0000

> <Gold.Chemscore.Lipo.Weighted>
-7.8693

> <Gold.Chemscore.Internal_Hbond.Weighted>
0.0000

> <Gold.Chemscore.DEClash.Weighted>
0.5631

> <Gold.Chemscore.DEInternal.Weighted>
3.5883

> <Gold.Chemscore.Rot.Weighted>
3.3675

> <Gold.Chemscore.Internal.Correction.Weighted>
   9.000000E+99

> <Gold.Protein.RotatedTorsions>
[ 6907 6896 6895 6894 ] final  169.19 input  -60.11 | X-H torsion
[ 7974 7965 7964 7962 ] final   12.43 input  175.53 | X-H torsion
[ 8008 7997 7996 7995 ] final   64.58 input   59.86 | X-H torsion
[ 10167 10162 10161 10158 ] final -102.53 input  -65.29 | X-H torsion
[ 10718 10713 10712 10709 ] final  -58.59 input   66.30 | X-H torsion
[ 10763 10752 10751 10750 ] final  -14.95 input  -60.55 | X-H torsion
[ 11005 11000 10999 10996 ] final  175.89 input  -57.11 | X-H torsion

> <Gold.Protein.ActiveResidues>
 VAL166  LYS551  ARG553  GLY616  TRP617  ASP618  TYR619  PRO620  LYS621  CYS622 
 ASP623  PHE694  ASN695  SER759  ASP760  ASP761  ALA762  ILE779  LEU786  VAL792 
 PHE793  MET794  SER795  GLU796  ALA797  LYS798  CYS799  TRP800  GLU811  SER814 

> <Gold.Protein.RotatedAtoms>
  151.8357  133.3415  159.3627 H   0  0  0  0  0  0  0  0  0  0  0  0  # atno 6907 bound_to 6896
  150.7250  134.5440  159.5770 H   0  0  0  0  0  0  0  0  0  0  0  0  # atno 6908 bound_to 6896
  152.2902  134.7730  160.0430 H   0  0  0  0  0  0  0  0  0  0  0  0  # atno 6909 bound_to 6896
  146.2351  139.9338  142.8492 H   0  0  0  0  0  0  0  0  0  0  0  0  # atno 7974 bound_to 7965
  155.6482  140.3497  155.4739 H   0  0  0  0  0  0  0  0  0  0  0  0  # atno 8008 bound_to 7997
  155.9869  140.1186  157.0698 H   0  0  0  0  0  0  0  0  0  0  0  0  # atno 8009 bound_to 7997
  154.4207  140.1127  156.5498 H   0  0  0  0  0  0  0  0  0  0  0  0  # atno 8010 bound_to 7997
  140.2296  143.3616  152.0898 H   0  0  0  0  0  0  0  0  0  0  0  0  # atno 10167 bound_to 10162
  156.1124  130.4173  150.0597 H   0  0  0  0  0  0  0  0  0  0  0  0  # atno 10718 bound_to 10713
  153.5359  135.7014  153.5660 H   0  0  0  0  0  0  0  0  0  0  0  0  # atno 10763 bound_to 10752
  153.3647  135.3960  155.1744 H   0  0  0  0  0  0  0  0  0  0  0  0  # atno 10764 bound_to 10752
  154.8679  135.3797  154.4860 H   0  0  0  0  0  0  0  0  0  0  0  0  # atno 10765 bound_to 10752
  140.3672  134.7062  157.4369 H   0  0  0  0  0  0  0  0  0  0  0  0  # atno 11005 bound_to 11000
  145.2019  140.9858  143.4151 LP  0  0  0  0  0  0  0  0  0  0  0  0  # atno 17320 bound_to 7965
  144.9766  139.3825  143.6282 LP  0  0  0  0  0  0  0  0  0  0  0  0  # atno 17321 bound_to 7965
  139.5114  144.6901  151.5783 LP  0  0  0  0  0  0  0  0  0  0  0  0  # atno 17342 bound_to 10162
  140.6195  143.9286  150.6514 LP  0  0  0  0  0  0  0  0  0  0  0  0  # atno 17343 bound_to 10162
  156.8557  130.9474  151.3622 LP  0  0  0  0  0  0  0  0  0  0  0  0  # atno 17370 bound_to 10713
  157.6306  130.8726  149.9267 LP  0  0  0  0  0  0  0  0  0  0  0  0  # atno 17371 bound_to 10713
  140.0580  134.6036  155.8782 LP  0  0  0  0  0  0  0  0  0  0  0  0  # atno 17394 bound_to 11000
  141.1966  133.6592  156.5699 LP  0  0  0  0  0  0  0  0  0  0  0  0  # atno 17395 bound_to 11000

$$$$
