AV-unprocessed.smi:2664|AV-procd|sdf|10329|dock2
  -GOLD-   2272014343D 1   1.00000     0.00000
 Structure written by MMmdl.
 44 45  0  0  0  0  0  0  0  0  2 V2000
  145.3434  137.7452  154.3062 O   0  0  0  0  0  0  0  0  0  0  0  0
  146.2693  137.3533  153.5970 C   0  0  0  0  0  0  0  0  0  0  0  0
  147.4061  138.0316  153.3627 N   0  0  0  0  0  0  0  0  0  0  0  0
  147.7743  139.3287  153.8132 C   0  0  0  0  0  0  0  0  0  0  0  0
  146.7620  140.3125  153.8676 C   0  0  0  0  0  0  0  0  0  0  0  0
  147.0749  141.6089  154.3247 C   0  0  0  0  0  0  0  0  0  0  0  0
  148.3347  141.8985  154.7149 N   0  3  0  0  0  0  0  0  0  0  0  0
  149.3324  140.9890  154.6938 C   0  0  0  0  0  0  0  0  0  0  0  0
  149.0794  139.6758  154.2475 C   0  0  0  0  0  0  0  0  0  0  0  0
  146.2763  136.1683  152.9674 N   0  0  0  0  0  0  0  0  0  0  0  0
  145.2011  135.1721  152.9913 C   0  0  1  0  0  0  0  0  0  0  0  0
  143.8501  135.8852  152.7287 C   0  0  0  0  0  0  0  0  0  0  0  0
  142.6718  135.3956  153.5922 C   0  0  0  0  0  0  0  0  0  0  0  0
  142.3525  134.0556  153.2830 O   0  0  0  0  0  0  0  0  0  0  0  0
  145.5083  134.0305  151.9787 C   0  0  0  0  0  0  0  0  0  0  0  0
  144.3174  133.7427  151.0308 C   0  0  0  0  0  0  0  0  0  0  0  0
  144.6175  132.6070  150.0392 C   0  0  0  0  0  0  0  0  0  0  0  0
  145.0287  131.3213  150.7663 C   0  0  0  0  0  0  0  0  0  0  0  0
  146.2255  131.5829  151.6884 C   0  0  0  0  0  0  0  0  0  0  0  0
  145.9258  132.7141  152.6849 C   0  0  0  0  0  0  0  0  0  0  0  0
  148.1111  137.5409  152.8323 H   0  0  0  0  0  0  0  0  0  0  0  0
  145.7533  140.0810  153.5569 H   0  0  0  0  0  0  0  0  0  0  0  0
  146.3600  142.4161  154.3911 H   0  0  0  0  0  0  0  0  0  0  0  0
  150.2964  141.3340  155.0386 H   0  0  0  0  0  0  0  0  0  0  0  0
  149.8877  138.9610  154.2595 H   0  0  0  0  0  0  0  0  0  0  0  0
  147.0881  135.9335  152.4152 H   0  0  0  0  0  0  0  0  0  0  0  0
  145.1445  134.7175  153.9818 H   0  0  0  0  0  0  0  0  0  0  0  0
  143.9771  136.9566  152.8883 H   0  0  0  0  0  0  0  0  0  0  0  0
  143.5578  135.7709  151.6859 H   0  0  0  0  0  0  0  0  0  0  0  0
  142.8863  135.4841  154.6571 H   0  0  0  0  0  0  0  0  0  0  0  0
  141.7919  136.0094  153.3980 H   0  0  0  0  0  0  0  0  0  0  0  0
  142.6288  133.5059  154.0005 H   0  0  0  0  0  0  0  0  0  0  0  0
  146.3500  134.3518  151.3629 H   0  0  0  0  0  0  0  0  0  0  0  0
  143.4334  133.4890  151.6175 H   0  0  0  0  0  0  0  0  0  0  0  0
  144.0600  134.6269  150.4503 H   0  0  0  0  0  0  0  0  0  0  0  0
  143.7421  132.4170  149.4173 H   0  0  0  0  0  0  0  0  0  0  0  0
  145.4154  132.9152  149.3626 H   0  0  0  0  0  0  0  0  0  0  0  0
  144.1887  130.9426  151.3501 H   0  0  0  0  0  0  0  0  0  0  0  0
  145.2786  130.5463  150.0412 H   0  0  0  0  0  0  0  0  0  0  0  0
  146.4835  130.6712  152.2282 H   0  0  0  0  0  0  0  0  0  0  0  0
  147.0986  131.8452  151.0896 H   0  0  0  0  0  0  0  0  0  0  0  0
  146.8134  132.8666  153.2984 H   0  0  0  0  0  0  0  0  0  0  0  0
  145.1343  132.3975  153.3658 H   0  0  0  0  0  0  0  0  0  0  0  0
  148.5403  142.8423  155.0439 H   0  0  0  0  0  0  0  0  0  0  0  0
  1  2  2  0  0  0  0
  2  3  1  0  0  0  0
  2 10  1  0  0  0  0
  3  4  1  0  0  0  0
  3 21  1  0  0  0  0
  4  9  1  0  0  0  0
  4  5  2  0  0  0  0
  5  6  1  0  0  0  0
  5 22  1  0  0  0  0
  6  7  2  0  0  0  0
  6 23  1  0  0  0  0
  7  8  1  0  0  0  0
  7 44  1  0  0  0  0
  8  9  2  0  0  0  0
  8 24  1  0  0  0  0
  9 25  1  0  0  0  0
 10 11  1  0  0  0  0
 10 26  1  0  0  0  0
 11 12  1  0  0  0  0
 11 15  1  0  0  0  0
 11 27  1  0  0  0  0
 12 13  1  0  0  0  0
 12 28  1  0  0  0  0
 12 29  1  0  0  0  0
 13 14  1  0  0  0  0
 13 30  1  0  0  0  0
 13 31  1  0  0  0  0
 14 32  1  0  0  0  0
 15 20  1  0  0  0  0
 15 16  1  0  0  0  0
 15 33  1  0  0  0  0
 16 17  1  0  0  0  0
 16 34  1  0  0  0  0
 16 35  1  0  0  0  0
 17 18  1  0  0  0  0
 17 36  1  0  0  0  0
 17 37  1  0  0  0  0
 18 19  1  0  0  0  0
 18 38  1  0  0  0  0
 18 39  1  0  0  0  0
 19 20  1  0  0  0  0
 19 40  1  0  0  0  0
 19 41  1  0  0  0  0
 20 42  1  0  0  0  0
 20 43  1  0  0  0  0
M  CHG  1   7   1
M  END
> <s_m_source_file>
AV-unprocessed.smi

> <i_m_source_file_index>
2664

> <i_lp_mmshare_version>
43012

> <i_f3d_flags>
0

> <s_epik_input>
W2NIXTFbY0hdbltjSF1bY0hdYzFbTkhdQyg9TylbTkhdW0NASF0oW0NIMl1bQ0gyXVtPSF0pW0NIXTJbQ0gyXVtDSDJdW0NIMl1bQ0gyXVtDSDJdMg==

> <s_epik_cmdline>
J2VwaWtfcHl0aG9uJywgJy1waCcsICc3LjAnLCAnLXRuJywgJzgnLCAnLW1hJywgJzIwMCcsICctbWV0YWxfYmluZGluZycsICctaW1hZScsICc8aW5maWxlLm1hZT4nLCAnLW9tYWUnLCAnPG91dGZpbGUubWFlPic=

> <r_epik_Ionization_Penalty>
1.0085

> <r_epik_Ionization_Penalty_Charging>
1.00848

> <r_epik_Ionization_Penalty_Neutral>
2.14516e-05

> <r_epik_State_Penalty>
1.05769

> <r_epik_Charging_Adjusted_Penalty>
2.06617

> <i_epik_Tot_Q>
1

> <i_epik_Tot_abs_Q>
1

> <r_epik_Metal_State_Penalty>
1.15842

> <b_epik_Metal_Only>
0

> <s_lp_Force_Field>
OPLS_2005

> <r_lp_Energy>
27.8621

> <b_lp_Chiralities_Consistent>
1

> <s_lp_Variant>
AV-unprocessed.smi:2664-4

> <Gold.Version>
5.8.1

> <Gold.Id.Protein>
6NUR|6NUR_protein|mol2

> <Gold.PLP.Fitness>
44.0483

> <Gold.PLP.PLP>
-33.9376

> <Gold.PLP.part.hbond>
-4.0000

> <Gold.PLP.part.metal>
0.0000

> <Gold.PLP.part.buried>
-5.3313

> <Gold.PLP.part.nonpolar>
-26.0465

> <Gold.PLP.part.repulsive>
0.3392

> <Gold.PLP.ligand.clash>
0.0000

> <Gold.PLP.ligand.torsion>
2.3497

> <Gold.PLP.Chemscore.Hbond>
4.9188

> <Gold.PLP.Chemscore.CHOScore>
0.0000

> <Gold.PLP.Chemscore.Metal>
0.0000

> <Gold.Chemscore.Hbonds>
donor molecule, donor type, donor heavy atom, donor atom, acceptor molecule, acceptor atom, score
      L1  H     3    21       P1  7948  1.00
      L1  H     7    44       P1  8028  2.00
      L1  H    10    26       P1  7948  1.00
      L1  H    14    32       P1 10957  0.94

> <Gold.PLP.Chemscore.Internal.Correction>
0.0536

> <Gold.Rescore>
     Score         DG    S(hbond)    S(metal)    S(lipo)     H(rot)  DE(clash)    DE(int)     intcor
     17.70     -22.63       3.86        0.00      86.02       2.27       0.06       4.86       ----

> <Gold.Chemscore.Fitness>
17.7043

> <Gold.Chemscore.DG>
-22.6264

> <Gold.Chemscore.ZeroCoef>
-5.4800

> <Gold.Chemscore.Hbond>
3.8628

> <Gold.Chemscore.Metal>
0.0000

> <Gold.Chemscore.Lipo>
86.0160

> <Gold.Chemscore.Internal_Hbond>
0.0000

> <Gold.Chemscore.DEClash>
0.0636

> <Gold.Chemscore.DEInternal>
4.8584

> <Gold.Chemscore.Rot>
2.2731

> <Gold.Chemscore.Internal.Correction>
   9.000000E+99

> <Gold.Chemscore.Hbonds>
donor molecule, donor type, donor heavy atom, donor atom, acceptor molecule, acceptor atom, score
      L1  H     3    21       P1  7948  1.00
      L1  H     7    44       P1  8028  0.97
      L1  H    10    26       P1  7948  0.96
      L1  H    14    32       P1 10957  0.91

> <Gold.Chemscore.Hbond.Weighted>
-12.9017

> <Gold.Chemscore.Metal.Weighted>
-0.0000

> <Gold.Chemscore.Lipo.Weighted>
-10.0639

> <Gold.Chemscore.Internal_Hbond.Weighted>
0.0000

> <Gold.Chemscore.DEClash.Weighted>
0.0636

> <Gold.Chemscore.DEInternal.Weighted>
4.8584

> <Gold.Chemscore.Rot.Weighted>
5.8192

> <Gold.Chemscore.Internal.Correction.Weighted>
   9.000000E+99

> <Gold.Protein.RotatedTorsions>
[ 6907 6896 6895 6894 ] final  -58.39 input  -60.11 | X-H torsion
[ 7974 7965 7964 7962 ] final  135.85 input  175.53 | X-H torsion
[ 8008 7997 7996 7995 ] final -123.84 input   59.86 | X-H torsion
[ 10167 10162 10161 10158 ] final   72.41 input  -65.29 | X-H torsion
[ 10718 10713 10712 10709 ] final  -26.91 input   66.30 | X-H torsion
[ 10763 10752 10751 10750 ] final  -37.94 input  -60.55 | X-H torsion
[ 11005 11000 10999 10996 ] final  102.40 input  -57.11 | X-H torsion

> <Gold.Protein.ActiveResidues>
 VAL166  LYS551  ARG553  GLY616  TRP617  ASP618  TYR619  PRO620  LYS621  CYS622 
 ASP623  PHE694  ASN695  SER759  ASP760  ASP761  ALA762  ILE779  LEU786  VAL792 
 PHE793  MET794  SER795  GLU796  ALA797  LYS798  CYS799  TRP800  GLU811  SER814 

> <Gold.Protein.RotatedAtoms>
  150.8010  134.7104  159.6600 H   0  0  0  0  0  0  0  0  0  0  0  0  # atno 6907 bound_to 6896
  152.4127  134.6093  160.0031 H   0  0  0  0  0  0  0  0  0  0  0  0  # atno 6908 bound_to 6896
  151.6331  133.3294  159.3149 H   0  0  0  0  0  0  0  0  0  0  0  0  # atno 6909 bound_to 6896
  144.9623  139.4697  143.5473 H   0  0  0  0  0  0  0  0  0  0  0  0  # atno 7974 bound_to 7965
  155.1871  140.0412  157.2893 H   0  0  0  0  0  0  0  0  0  0  0  0  # atno 8008 bound_to 7997
  154.6163  140.2489  155.7577 H   0  0  0  0  0  0  0  0  0  0  0  0  # atno 8009 bound_to 7997
  156.2408  140.2904  156.0450 H   0  0  0  0  0  0  0  0  0  0  0  0  # atno 8010 bound_to 7997
  140.0356  144.5431  150.7473 H   0  0  0  0  0  0  0  0  0  0  0  0  # atno 10167 bound_to 10162
  156.4450  130.4472  149.7027 H   0  0  0  0  0  0  0  0  0  0  0  0  # atno 10718 bound_to 10713
  153.9045  135.6799  153.4753 H   0  0  0  0  0  0  0  0  0  0  0  0  # atno 10763 bound_to 10752
  153.1111  135.4782  154.9034 H   0  0  0  0  0  0  0  0  0  0  0  0  # atno 10764 bound_to 10752
  154.7558  135.3197  154.8427 H   0  0  0  0  0  0  0  0  0  0  0  0  # atno 10765 bound_to 10752
  139.8777  134.9222  156.5052 H   0  0  0  0  0  0  0  0  0  0  0  0  # atno 11005 bound_to 11000
  146.3357  139.8780  142.8829 LP  0  0  0  0  0  0  0  0  0  0  0  0  # atno 17320 bound_to 7965
  145.2682  141.0100  143.3787 LP  0  0  0  0  0  0  0  0  0  0  0  0  # atno 17321 bound_to 7965
  140.7283  143.2660  151.4043 LP  0  0  0  0  0  0  0  0  0  0  0  0  # atno 17342 bound_to 10162
  139.6047  144.1221  152.2236 LP  0  0  0  0  0  0  0  0  0  0  0  0  # atno 17343 bound_to 10162
  156.3876  130.7611  151.2609 LP  0  0  0  0  0  0  0  0  0  0  0  0  # atno 17370 bound_to 10713
  157.7505  131.0277  150.4017 LP  0  0  0  0  0  0  0  0  0  0  0  0  # atno 17371 bound_to 10713
  140.8560  133.8096  155.9216 LP  0  0  0  0  0  0  0  0  0  0  0  0  # atno 17394 bound_to 11000
  140.9097  134.2276  157.4993 LP  0  0  0  0  0  0  0  0  0  0  0  0  # atno 17395 bound_to 11000

$$$$
