AV-unprocessed.smi:1197|AV-procd|sdf|5008|dock3
  -GOLD-   22720 4 23D 1   1.00000     0.00000
 Structure written by MMmdl.
 40 41  0  0  0  0  0  0  0  0  1 V2000
  150.8399  141.7408  158.0069 C   0  0  0  0  0  0  0  0  0  0  0  0
  151.3414  141.1607  156.8078 O   0  0  0  0  0  0  0  0  0  0  0  0
  150.4978  140.3609  156.0644 C   0  0  0  0  0  0  0  0  0  0  0  0
  149.3160  139.8854  156.6661 C   0  0  0  0  0  0  0  0  0  0  0  0
  148.4501  139.0664  155.9161 C   0  0  0  0  0  0  0  0  0  0  0  0
  148.7917  138.7526  154.5782 C   0  0  0  0  0  0  0  0  0  0  0  0
  148.0194  137.9273  153.7147 N   0  0  0  0  0  0  0  0  0  0  0  0
  146.6846  137.8647  153.5672 C   0  0  0  0  0  0  0  0  0  0  0  0
  145.8648  138.5682  154.1560 O   0  0  0  0  0  0  0  0  0  0  0  0
  146.3424  136.9312  152.6679 N   0  0  0  0  0  0  0  0  0  0  0  0
  144.9756  136.6061  152.2781 C   0  0  0  0  0  0  0  0  0  0  0  0
  144.9443  135.7055  151.0285 C   0  0  0  0  0  0  0  0  0  0  0  0
  145.0283  134.2721  151.3015 N   0  0  0  0  0  0  0  0  0  0  0  0
  146.3985  133.8227  151.5391 C   0  0  0  0  0  0  0  0  0  0  0  0
  146.4686  132.3075  151.7980 C   0  0  0  0  0  0  0  0  0  0  0  0
  145.8857  131.6063  150.7046 O   0  0  0  0  0  0  0  0  0  0  0  0
  144.5328  131.9831  150.4707 C   0  0  0  0  0  0  0  0  0  0  0  0
  144.4595  133.4966  150.2041 C   0  0  0  0  0  0  0  0  0  0  0  0
  150.0008  139.2745  154.0731 C   0  0  0  0  0  0  0  0  0  0  0  0
  150.8359  140.0586  154.7867 N   0  0  0  0  0  0  0  0  0  0  0  0
  151.6251  142.3331  158.4766 H   0  0  0  0  0  0  0  0  0  0  0  0
  150.5299  140.9771  158.7216 H   0  0  0  0  0  0  0  0  0  0  0  0
  149.9990  142.4062  157.8060 H   0  0  0  0  0  0  0  0  0  0  0  0
  149.0790  140.1403  157.6885 H   0  0  0  0  0  0  0  0  0  0  0  0
  147.5566  138.6937  156.3905 H   0  0  0  0  0  0  0  0  0  0  0  0
  148.5558  137.3193  153.1136 H   0  0  0  0  0  0  0  0  0  0  0  0
  147.0792  136.4005  152.2269 H   0  0  0  0  0  0  0  0  0  0  0  0
  144.5085  136.1071  153.1263 H   0  0  0  0  0  0  0  0  0  0  0  0
  144.4096  137.5229  152.1035 H   0  0  0  0  0  0  0  0  0  0  0  0
  144.0117  135.9017  150.4978 H   0  0  0  0  0  0  0  0  0  0  0  0
  145.7435  135.9983  150.3456 H   0  0  0  0  0  0  0  0  0  0  0  0
  147.0239  134.0712  150.6804 H   0  0  0  0  0  0  0  0  0  0  0  0
  146.8248  134.3404  152.3978 H   0  0  0  0  0  0  0  0  0  0  0  0
  147.5051  131.9905  151.9133 H   0  0  0  0  0  0  0  0  0  0  0  0
  145.9491  132.0500  152.7225 H   0  0  0  0  0  0  0  0  0  0  0  0
  144.1508  131.4278  149.6141 H   0  0  0  0  0  0  0  0  0  0  0  0
  143.9177  131.7115  151.3302 H   0  0  0  0  0  0  0  0  0  0  0  0
  143.4188  133.7835  150.0483 H   0  0  0  0  0  0  0  0  0  0  0  0
  144.9878  133.7249  149.2769 H   0  0  0  0  0  0  0  0  0  0  0  0
  150.3108  139.0570  153.0613 H   0  0  0  0  0  0  0  0  0  0  0  0
  1  2  1  0  0  0  0
  1 21  1  0  0  0  0
  1 22  1  0  0  0  0
  1 23  1  0  0  0  0
  2  3  1  0  0  0  0
  3 20  1  0  0  0  0
  3  4  2  0  0  0  0
  4  5  1  0  0  0  0
  4 24  1  0  0  0  0
  5  6  2  0  0  0  0
  5 25  1  0  0  0  0
  6  7  1  0  0  0  0
  6 19  1  0  0  0  0
  7  8  1  0  0  0  0
  7 26  1  0  0  0  0
  8  9  2  0  0  0  0
  8 10  1  0  0  0  0
 10 11  1  0  0  0  0
 10 27  1  0  0  0  0
 11 12  1  0  0  0  0
 11 28  1  0  0  0  0
 11 29  1  0  0  0  0
 12 13  1  0  0  0  0
 12 30  1  0  0  0  0
 12 31  1  0  0  0  0
 13 18  1  0  0  0  0
 13 14  1  0  0  0  0
 14 15  1  0  0  0  0
 14 32  1  0  0  0  0
 14 33  1  0  0  0  0
 15 16  1  0  0  0  0
 15 34  1  0  0  0  0
 15 35  1  0  0  0  0
 16 17  1  0  0  0  0
 17 18  1  0  0  0  0
 17 36  1  0  0  0  0
 17 37  1  0  0  0  0
 18 38  1  0  0  0  0
 18 39  1  0  0  0  0
 19 20  2  0  0  0  0
 19 40  1  0  0  0  0
M  END
> <s_m_source_file>
AV-unprocessed.smi

> <i_m_source_file_index>
1197

> <i_lp_mmshare_version>
43012

> <i_f3d_flags>
0

> <s_epik_input>
W0NIM11PYzFbY0hdW2NIXWMoW2NIXW4xKVtOSF1DKD1PKVtOSF1bQ0gyXVtDSDJdTjJbQ0gyXVtDSDJdT1tDSDJdW0NIMl0y

> <s_epik_cmdline>
J2VwaWtfcHl0aG9uJywgJy1waCcsICc3LjAnLCAnLXRuJywgJzgnLCAnLW1hJywgJzIwMCcsICctbWV0YWxfYmluZGluZycsICctaW1hZScsICc8aW5maWxlLm1hZT4nLCAnLW9tYWUnLCAnPG91dGZpbGUubWFlPic=

> <r_lp_tautomer_probability>
1

> <r_epik_Ionization_Penalty>
0.266083

> <r_epik_Ionization_Penalty_Charging>
0

> <r_epik_Ionization_Penalty_Neutral>
0.266083

> <r_epik_State_Penalty>
0.257924

> <r_epik_Charging_Adjusted_Penalty>
0.257924

> <i_epik_Tot_Q>
0

> <i_epik_Tot_abs_Q>
0

> <r_epik_Metal_State_Penalty>
0.257922

> <b_epik_Metal_Only>
0

> <s_lp_Force_Field>
OPLS_2005

> <r_lp_Energy>
24.2104

> <b_lp_Chiralities_Consistent>
1

> <s_lp_Variant>
AV-unprocessed.smi:1197-1

> <Gold.Version>
5.8.1

> <Gold.Id.Protein>
6NUR|6NUR_protein|mol2

> <Gold.PLP.Fitness>
38.2572

> <Gold.PLP.PLP>
-28.1736

> <Gold.PLP.part.hbond>
-3.0000

> <Gold.PLP.part.metal>
0.0000

> <Gold.PLP.part.buried>
-5.0042

> <Gold.PLP.part.nonpolar>
-21.1922

> <Gold.PLP.part.repulsive>
0.5085

> <Gold.PLP.ligand.clash>
0.0013

> <Gold.PLP.ligand.torsion>
0.9456

> <Gold.PLP.Chemscore.Hbond>
2.9760

> <Gold.PLP.Chemscore.CHOScore>
0.9890

> <Gold.PLP.Chemscore.Metal>
0.0000

> <Gold.Chemscore.Hbonds>
donor molecule, donor type, donor heavy atom, donor atom, acceptor molecule, acceptor atom, score
      L1  H     7    26       P1  7948  1.00
      L1  H    10    27       P1  7948  0.98
      P1  H  7989  7998       L1    20  1.00
      L1  C    19    40       P1  7957  0.98

> <Gold.PLP.Chemscore.Internal.Correction>
0.0810

> <Gold.Rescore>
     Score         DG    S(hbond)    S(metal)    S(lipo)     H(rot)  DE(clash)    DE(int)     intcor
     15.44     -16.43       2.38        0.00      64.29       1.76       0.27       0.71       ----

> <Gold.Chemscore.Fitness>
15.4413

> <Gold.Chemscore.DG>
-16.4265

> <Gold.Chemscore.ZeroCoef>
-5.4800

> <Gold.Chemscore.Hbond>
2.3764

> <Gold.Chemscore.Metal>
0.0000

> <Gold.Chemscore.Lipo>
64.2892

> <Gold.Chemscore.Internal_Hbond>
0.0000

> <Gold.Chemscore.DEClash>
0.2724

> <Gold.Chemscore.DEInternal>
0.7129

> <Gold.Chemscore.Rot>
1.7626

> <Gold.Chemscore.Internal.Correction>
   9.000000E+99

> <Gold.Chemscore.Hbonds>
donor molecule, donor type, donor heavy atom, donor atom, acceptor molecule, acceptor atom, score
      L1  H     7    26       P1  7948  1.00
      L1  H    10    27       P1  7948  0.92
      P1  H  7989  7998       L1    20  0.26

> <Gold.Chemscore.Hbond.Weighted>
-7.9370

> <Gold.Chemscore.Metal.Weighted>
-0.0000

> <Gold.Chemscore.Lipo.Weighted>
-7.5218

> <Gold.Chemscore.Internal_Hbond.Weighted>
0.0000

> <Gold.Chemscore.DEClash.Weighted>
0.2724

> <Gold.Chemscore.DEInternal.Weighted>
0.7129

> <Gold.Chemscore.Rot.Weighted>
4.5123

> <Gold.Chemscore.Internal.Correction.Weighted>
   9.000000E+99

> <Gold.Protein.RotatedTorsions>
[ 6907 6896 6895 6894 ] final -114.92 input  -60.11 | X-H torsion
[ 7974 7965 7964 7962 ] final -173.74 input  175.53 | X-H torsion
[ 8008 7997 7996 7995 ] final   44.16 input   59.86 | X-H torsion
[ 10167 10162 10161 10158 ] final   64.73 input  -65.29 | X-H torsion
[ 10718 10713 10712 10709 ] final  -85.94 input   66.30 | X-H torsion
[ 10763 10752 10751 10750 ] final  109.79 input  -60.55 | X-H torsion
[ 11005 11000 10999 10996 ] final  -82.43 input  -57.11 | X-H torsion

> <Gold.Protein.ActiveResidues>
 VAL166  LYS551  ARG553  GLY616  TRP617  ASP618  TYR619  PRO620  LYS621  CYS622 
 ASP623  PHE694  ASN695  SER759  ASP760  ASP761  ALA762  ILE779  LEU786  VAL792 
 PHE793  MET794  SER795  GLU796  ALA797  LYS798  CYS799  TRP800  GLU811  SER814 

> <Gold.Protein.RotatedAtoms>
  150.7939  133.8732  159.3264 H   0  0  0  0  0  0  0  0  0  0  0  0  # atno 6907 bound_to 6896
  151.6562  135.0993  160.0180 H   0  0  0  0  0  0  0  0  0  0  0  0  # atno 6908 bound_to 6896
  152.4017  133.6789  159.6357 H   0  0  0  0  0  0  0  0  0  0  0  0  # atno 6909 bound_to 6896
  144.7136  140.1576  143.6379 H   0  0  0  0  0  0  0  0  0  0  0  0  # atno 7974 bound_to 7965
  155.3146  140.3393  155.4243 H   0  0  0  0  0  0  0  0  0  0  0  0  # atno 8008 bound_to 7997
  156.1939  140.1707  156.8076 H   0  0  0  0  0  0  0  0  0  0  0  0  # atno 8009 bound_to 7997
  154.5475  140.0712  156.8596 H   0  0  0  0  0  0  0  0  0  0  0  0  # atno 8010 bound_to 7997
  140.1190  144.4749  150.6932 H   0  0  0  0  0  0  0  0  0  0  0  0  # atno 10167 bound_to 10162
  155.9993  130.4748  150.4639 H   0  0  0  0  0  0  0  0  0  0  0  0  # atno 10718 bound_to 10713
  153.4397  135.3769  155.2220 H   0  0  0  0  0  0  0  0  0  0  0  0  # atno 10763 bound_to 10752
  154.8753  135.3860  154.4167 H   0  0  0  0  0  0  0  0  0  0  0  0  # atno 10764 bound_to 10752
  153.4711  135.7087  153.6056 H   0  0  0  0  0  0  0  0  0  0  0  0  # atno 10765 bound_to 10752
  141.1663  133.7244  156.8570 H   0  0  0  0  0  0  0  0  0  0  0  0  # atno 11005 bound_to 11000
  145.9059  139.2458  143.1466 LP  0  0  0  0  0  0  0  0  0  0  0  0  # atno 17320 bound_to 7965
  145.9764  140.8718  143.0136 LP  0  0  0  0  0  0  0  0  0  0  0  0  # atno 17321 bound_to 7965
  140.6883  143.2362  151.5201 LP  0  0  0  0  0  0  0  0  0  0  0  0  # atno 17342 bound_to 10162
  139.5579  144.2230  152.1643 LP  0  0  0  0  0  0  0  0  0  0  0  0  # atno 17343 bound_to 10162
  157.2660  131.0577  151.2290 LP  0  0  0  0  0  0  0  0  0  0  0  0  # atno 17370 bound_to 10713
  157.3387  130.7022  149.6368 LP  0  0  0  0  0  0  0  0  0  0  0  0  # atno 17371 bound_to 10713
  140.1875  134.8989  157.3022 LP  0  0  0  0  0  0  0  0  0  0  0  0  # atno 17394 bound_to 11000
  140.2326  134.3890  155.7515 LP  0  0  0  0  0  0  0  0  0  0  0  0  # atno 17395 bound_to 11000

$$$$
