AV-unprocessed.smi:652|AV-procd|sdf|3199|dock1
  -GOLD-   22720 0133D 1   1.00000     0.00000
 Structure written by MMmdl.
 49 50  0  0  0  0  0  0  0  0  3 V2000
  152.2136  145.2966  158.8682 C   0  0  0  0  0  0  0  0  0  0  0  0
  151.9003  143.8079  159.0696 C   0  0  0  0  0  0  0  0  0  0  0  0
  153.1286  143.0351  159.5764 C   0  0  0  0  0  0  0  0  0  0  0  0
  151.4207  143.2388  157.8130 N   0  0  0  0  0  0  0  0  0  0  0  0
  150.9639  141.9872  157.6497 C   0  0  0  0  0  0  0  0  0  0  0  0
  150.8956  141.1689  158.5670 O   0  0  0  0  0  0  0  0  0  0  0  0
  150.5198  141.6106  156.2319 C   0  0  0  0  0  0  0  0  0  0  0  0
  150.1358  140.1224  156.0946 C   0  0  0  0  0  0  0  0  0  0  0  0
  149.6518  139.7838  154.7293 N   0  3  2  0  0  0  0  0  0  0  0  0
  148.7643  140.8181  154.1429 C   0  0  0  0  0  0  0  0  0  0  0  0
  147.3488  140.7420  154.7432 C   0  0  0  0  0  0  0  0  0  0  0  0
  146.8117  139.4419  154.5301 O   0  0  0  0  0  0  0  0  0  0  0  0
  147.5859  138.4201  155.1507 C   0  0  1  0  0  0  0  0  0  0  0  0
  146.8686  137.0724  154.9580 C   0  0  0  0  0  0  0  0  0  0  0  0
  147.0322  136.5385  153.6126 N   0  0  0  0  0  0  0  0  0  0  0  0
  145.9165  136.1291  152.8702 C   0  0  0  0  0  0  0  0  0  0  0  0
  144.5835  136.1957  153.3383 C   0  0  0  0  0  0  0  0  0  0  0  0
  143.5560  135.7538  152.4875 C   0  0  0  0  0  0  0  0  0  0  0  0
  143.9229  135.2708  151.2188 C   0  0  0  0  0  0  0  0  0  0  0  0
  145.2036  135.2147  150.7901 N   0  0  0  0  0  0  0  0  0  0  0  0
  146.1640  135.6450  151.6271 N   0  3  0  0  0  0  0  0  0  0  0  0
  149.0322  138.4391  154.5993 C   0  0  0  0  0  0  0  0  0  0  0  0
  152.5467  145.7554  159.7996 H   0  0  0  0  0  0  0  0  0  0  0  0
  151.3319  145.8427  158.5303 H   0  0  0  0  0  0  0  0  0  0  0  0
  153.0007  145.4411  158.1269 H   0  0  0  0  0  0  0  0  0  0  0  0
  151.1091  143.7337  159.8181 H   0  0  0  0  0  0  0  0  0  0  0  0
  153.4917  143.4517  160.5164 H   0  0  0  0  0  0  0  0  0  0  0  0
  153.9475  143.0756  158.8574 H   0  0  0  0  0  0  0  0  0  0  0  0
  152.8924  141.9857  159.7548 H   0  0  0  0  0  0  0  0  0  0  0  0
  151.4390  143.8463  157.0065 H   0  0  0  0  0  0  0  0  0  0  0  0
  149.6692  142.2394  155.9654 H   0  0  0  0  0  0  0  0  0  0  0  0
  151.3249  141.8629  155.5418 H   0  0  0  0  0  0  0  0  0  0  0  0
  150.9700  139.4812  156.3803 H   0  0  0  0  0  0  0  0  0  0  0  0
  149.3334  139.9104  156.8032 H   0  0  0  0  0  0  0  0  0  0  0  0
  149.1893  141.8137  154.2766 H   0  0  0  0  0  0  0  0  0  0  0  0
  148.7081  140.6539  153.0660 H   0  0  0  0  0  0  0  0  0  0  0  0
  147.3553  140.9799  155.8080 H   0  0  0  0  0  0  0  0  0  0  0  0
  146.6990  141.4723  154.2609 H   0  0  0  0  0  0  0  0  0  0  0  0
  147.6086  138.6152  156.2236 H   0  0  0  0  0  0  0  0  0  0  0  0
  147.2536  136.3485  155.6773 H   0  0  0  0  0  0  0  0  0  0  0  0
  145.8047  137.1957  155.1651 H   0  0  0  0  0  0  0  0  0  0  0  0
  147.9185  136.6682  153.1458 H   0  0  0  0  0  0  0  0  0  0  0  0
  144.3402  136.5719  154.3208 H   0  0  0  0  0  0  0  0  0  0  0  0
  142.5212  135.7828  152.7958 H   0  0  0  0  0  0  0  0  0  0  0  0
  143.1703  134.9190  150.5283 H   0  0  0  0  0  0  0  0  0  0  0  0
  149.0258  138.1859  153.5385 H   0  0  0  0  0  0  0  0  0  0  0  0
  149.6391  137.6766  155.0858 H   0  0  0  0  0  0  0  0  0  0  0  0
  150.4817  139.7779  154.1530 H   0  0  0  0  0  0  0  0  0  0  0  0
  147.1326  135.6065  151.3087 H   0  0  0  0  0  0  0  0  0  0  0  0
  1  2  1  0  0  0  0
  1 23  1  0  0  0  0
  1 24  1  0  0  0  0
  1 25  1  0  0  0  0
  2  3  1  0  0  0  0
  2  4  1  0  0  0  0
  2 26  1  0  0  0  0
  3 27  1  0  0  0  0
  3 28  1  0  0  0  0
  3 29  1  0  0  0  0
  4  5  1  0  0  0  0
  4 30  1  0  0  0  0
  5  6  2  0  0  0  0
  5  7  1  0  0  0  0
  7  8  1  0  0  0  0
  7 31  1  0  0  0  0
  7 32  1  0  0  0  0
  8  9  1  0  0  0  0
  8 33  1  0  0  0  0
  8 34  1  0  0  0  0
  9 22  1  0  0  0  0
  9 10  1  0  0  0  0
  9 48  1  0  0  0  0
 10 11  1  0  0  0  0
 10 35  1  0  0  0  0
 10 36  1  0  0  0  0
 11 12  1  0  0  0  0
 11 37  1  0  0  0  0
 11 38  1  0  0  0  0
 12 13  1  0  0  0  0
 13 14  1  0  0  0  0
 13 22  1  0  0  0  0
 13 39  1  0  0  0  0
 14 15  1  0  0  0  0
 14 40  1  0  0  0  0
 14 41  1  0  0  0  0
 15 16  1  0  0  0  0
 15 42  1  0  0  0  0
 16 21  1  0  0  0  0
 16 17  2  0  0  0  0
 17 18  1  0  0  0  0
 17 43  1  0  0  0  0
 18 19  2  0  0  0  0
 18 44  1  0  0  0  0
 19 20  1  0  0  0  0
 19 45  1  0  0  0  0
 20 21  2  0  0  0  0
 21 49  1  0  0  0  0
 22 46  1  0  0  0  0
 22 47  1  0  0  0  0
M  CHG  1   9   1
M  CHG  1  21   1
M  END
> <s_m_source_file>
AV-unprocessed.smi

> <i_m_source_file_index>
652

> <i_lp_mmshare_version>
43012

> <i_f3d_flags>
0

> <s_epik_input>
W0NIM11bQ0hdKFtDSDNdKVtOSF1DKD1PKVtDSDJdW0NIMl1OMVtDSDJdW0NIMl1PW0NASF0oW0NIMl0xKVtDSDJdW05IXWMyW2NIXVtjSF1bY0hdbm4y

> <s_epik_cmdline>
J2VwaWtfcHl0aG9uJywgJy1waCcsICc3LjAnLCAnLXRuJywgJzgnLCAnLW1hJywgJzIwMCcsICctbWV0YWxfYmluZGluZycsICctaW1hZScsICc8aW5maWxlLm1hZT4nLCAnLW9tYWUnLCAnPG91dGZpbGUubWFlPic=

> <r_lp_tautomer_probability>
0.966961

> <r_epik_Ionization_Penalty>
2.79885

> <r_epik_Ionization_Penalty_Charging>
2.79884

> <r_epik_Ionization_Penalty_Neutral>
3.2567e-06

> <r_epik_State_Penalty>
2.43203

> <r_epik_Charging_Adjusted_Penalty>
5.23087

> <i_epik_Tot_Q>
2

> <i_epik_Tot_abs_Q>
2

> <r_epik_Metal_State_Penalty>
2.43963

> <b_epik_Metal_Only>
0

> <s_lp_Force_Field>
OPLS_2005

> <r_lp_Energy>
35.8493

> <b_lp_Chiralities_Consistent>
1

> <s_lp_Variant>
AV-unprocessed.smi:652-8

> <Gold.Version>
5.8.1

> <Gold.Id.Protein>
6NUR|6NUR_protein|mol2

> <Gold.PLP.Fitness>
46.6105

> <Gold.PLP.PLP>
-33.3880

> <Gold.PLP.part.hbond>
-2.0000

> <Gold.PLP.part.metal>
0.0000

> <Gold.PLP.part.buried>
-6.3737

> <Gold.PLP.part.nonpolar>
-26.6325

> <Gold.PLP.part.repulsive>
0.5111

> <Gold.PLP.ligand.clash>
0.0000

> <Gold.PLP.ligand.torsion>
0.3120

> <Gold.PLP.Chemscore.Hbond>
3.5840

> <Gold.PLP.Chemscore.CHOScore>
1.0000

> <Gold.PLP.Chemscore.Metal>
0.0000

> <Gold.Chemscore.Hbonds>
donor molecule, donor type, donor heavy atom, donor atom, acceptor molecule, acceptor atom, score
      L1  H    15    42       P1  7948  1.92
      L1  H    21    49       P1  7948  1.66
      L1  C    19    45       P1 10186  0.96

> <Gold.PLP.Chemscore.Internal.Correction>
0.0945

> <Gold.Rescore>
     Score         DG    S(hbond)    S(metal)    S(lipo)     H(rot)  DE(clash)    DE(int)     intcor
     14.73     -15.00       1.76        0.00      82.09       2.33       0.01       0.26       ----

> <Gold.Chemscore.Fitness>
14.7307

> <Gold.Chemscore.DG>
-14.9990

> <Gold.Chemscore.ZeroCoef>
-5.4800

> <Gold.Chemscore.Hbond>
1.7623

> <Gold.Chemscore.Metal>
0.0000

> <Gold.Chemscore.Lipo>
82.0869

> <Gold.Chemscore.Internal_Hbond>
0.0000

> <Gold.Chemscore.DEClash>
0.0073

> <Gold.Chemscore.DEInternal>
0.2610

> <Gold.Chemscore.Rot>
2.3326

> <Gold.Chemscore.Internal.Correction>
   9.000000E+99

> <Gold.Chemscore.Hbonds>
donor molecule, donor type, donor heavy atom, donor atom, acceptor molecule, acceptor atom, score
      L1  H    15    42       P1  7948  0.92
      L1  H    21    49       P1  7948  0.79

> <Gold.Chemscore.Hbond.Weighted>
-5.8862

> <Gold.Chemscore.Metal.Weighted>
-0.0000

> <Gold.Chemscore.Lipo.Weighted>
-9.6042

> <Gold.Chemscore.Internal_Hbond.Weighted>
0.0000

> <Gold.Chemscore.DEClash.Weighted>
0.0073

> <Gold.Chemscore.DEInternal.Weighted>
0.2610

> <Gold.Chemscore.Rot.Weighted>
5.9714

> <Gold.Chemscore.Internal.Correction.Weighted>
   9.000000E+99

> <Gold.Protein.RotatedTorsions>
[ 6907 6896 6895 6894 ] final   42.19 input  -60.11 | X-H torsion
[ 7974 7965 7964 7962 ] final  157.99 input  175.53 | X-H torsion
[ 8008 7997 7996 7995 ] final  -64.56 input   59.86 | X-H torsion
[ 10167 10162 10161 10158 ] final  163.99 input  -65.29 | X-H torsion
[ 10718 10713 10712 10709 ] final -140.82 input   66.30 | X-H torsion
[ 10763 10752 10751 10750 ] final  -41.43 input  -60.55 | X-H torsion
[ 11005 11000 10999 10996 ] final   42.88 input  -57.11 | X-H torsion

> <Gold.Protein.ActiveResidues>
 VAL166  LYS551  ARG553  GLY616  TRP617  ASP618  TYR619  PRO620  LYS621  CYS622 
 ASP623  PHE694  ASN695  SER759  ASP760  ASP761  ALA762  ILE779  LEU786  VAL792 
 PHE793  MET794  SER795  GLU796  ALA797  LYS798  CYS799  TRP800  GLU811  SER814 

> <Gold.Protein.RotatedAtoms>
  152.2048  134.8556  160.0503 H   0  0  0  0  0  0  0  0  0  0  0  0  # atno 6907 bound_to 6896
  151.9396  133.3629  159.3968 H   0  0  0  0  0  0  0  0  0  0  0  0  # atno 6908 bound_to 6896
  150.6962  134.4377  159.5322 H   0  0  0  0  0  0  0  0  0  0  0  0  # atno 6909 bound_to 6896
  144.7871  139.7416  143.6236 H   0  0  0  0  0  0  0  0  0  0  0  0  # atno 7974 bound_to 7965
  154.4619  140.0951  156.6916 H   0  0  0  0  0  0  0  0  0  0  0  0  # atno 8008 bound_to 7997
  155.4970  140.3472  155.4346 H   0  0  0  0  0  0  0  0  0  0  0  0  # atno 8009 bound_to 7997
  156.0886  140.1391  156.9610 H   0  0  0  0  0  0  0  0  0  0  0  0  # atno 8010 bound_to 7997
  139.4882  144.4281  151.9105 H   0  0  0  0  0  0  0  0  0  0  0  0  # atno 10167 bound_to 10162
  156.3268  130.7564  151.1674 H   0  0  0  0  0  0  0  0  0  0  0  0  # atno 10718 bound_to 10713
  153.9624  135.6738  153.4745 H   0  0  0  0  0  0  0  0  0  0  0  0  # atno 10763 bound_to 10752
  153.0831  135.4913  154.8540 H   0  0  0  0  0  0  0  0  0  0  0  0  # atno 10764 bound_to 10752
  154.7265  135.3128  154.8923 H   0  0  0  0  0  0  0  0  0  0  0  0  # atno 10765 bound_to 10752
  140.1698  134.4237  155.8264 H   0  0  0  0  0  0  0  0  0  0  0  0  # atno 11005 bound_to 11000
  146.2108  139.5463  142.9682 LP  0  0  0  0  0  0  0  0  0  0  0  0  # atno 17320 bound_to 7965
  145.5891  141.0372  143.2080 LP  0  0  0  0  0  0  0  0  0  0  0  0  # atno 17321 bound_to 7965
  140.3727  144.2835  150.5918 LP  0  0  0  0  0  0  0  0  0  0  0  0  # atno 17342 bound_to 10162
  140.5304  143.2244  151.8248 LP  0  0  0  0  0  0  0  0  0  0  0  0  # atno 17343 bound_to 10162
  157.7423  131.0492  150.5036 LP  0  0  0  0  0  0  0  0  0  0  0  0  # atno 17370 bound_to 10713
  156.5197  130.4159  149.6257 LP  0  0  0  0  0  0  0  0  0  0  0  0  # atno 17371 bound_to 10713
  141.2216  133.6951  156.7742 LP  0  0  0  0  0  0  0  0  0  0  0  0  # atno 17394 bound_to 11000
  140.2391  134.8627  157.3555 LP  0  0  0  0  0  0  0  0  0  0  0  0  # atno 17395 bound_to 11000

$$$$
