AV-unprocessed.smi:55|AV-procd|sdf|570|dock8
  -GOLD-   2262016473D 1   1.00000     0.00000
 Structure written by MMmdl.
 30 31  0  0  0  0  0  0  0  0  2 V2000
  149.2767  141.5763  154.6793 C   0  0  0  0  0  0  0  0  0  0  0  0
  150.3102  141.2342  155.7380 C   0  0  0  0  0  0  0  0  0  0  0  0
  150.4208  141.9316  156.8903 C   0  0  0  0  0  0  0  0  0  0  0  0
  151.3655  141.6185  157.8512 N   0  0  0  0  0  0  0  0  0  0  0  0
  151.4588  142.4304  159.1234 C   0  0  1  0  0  0  0  0  0  0  0  0
  152.4594  143.5773  158.9637 C   0  0  0  0  0  0  0  0  0  0  0  0
  151.7673  144.6916  159.7208 C   0  0  1  0  0  0  0  0  0  0  0  0
  152.1900  145.9560  159.2528 O   0  0  0  0  0  0  0  0  0  0  0  0
  150.2929  144.4137  159.4123 C   0  0  2  0  0  0  0  0  0  0  0  0
  149.3015  144.9697  160.4461 C   0  0  0  0  0  0  0  0  0  0  0  0
  149.5238  144.3878  161.7133 O   0  0  0  0  0  0  0  0  0  0  0  0
  150.2073  142.9906  159.3996 O   0  0  0  0  0  0  0  0  0  0  0  0
  152.2707  140.5487  157.6231 C   0  0  0  0  0  0  0  0  0  0  0  0
  153.1262  140.3154  158.4770 O   0  0  0  0  0  0  0  0  0  0  0  0
  152.1607  139.8334  156.4673 N   0  5  0  0  0  0  0  0  0  0  0  0
  151.2286  140.1119  155.5111 C   0  0  0  0  0  0  0  0  0  0  0  0
  151.1391  139.4556  154.4740 O   0  0  0  0  0  0  0  0  0  0  0  0
  151.7009  141.7500  159.9403 H   0  0  0  0  0  0  0  0  0  0  0  0
  151.9646  144.5967  160.7895 H   0  0  0  0  0  0  0  0  0  0  0  0
  150.0414  144.7695  158.4116 H   0  0  0  0  0  0  0  0  0  0  0  0
  148.6651  142.4264  154.9828 H   0  0  0  0  0  0  0  0  0  0  0  0
  148.6138  140.7282  154.5059 H   0  0  0  0  0  0  0  0  0  0  0  0
  149.7650  141.8301  153.7379 H   0  0  0  0  0  0  0  0  0  0  0  0
  149.7527  142.7620  157.0602 H   0  0  0  0  0  0  0  0  0  0  0  0
  153.4379  143.3088  159.3630 H   0  0  0  0  0  0  0  0  0  0  0  0
  152.5632  143.8318  157.9073 H   0  0  0  0  0  0  0  0  0  0  0  0
  153.1349  145.9785  159.2701 H   0  0  0  0  0  0  0  0  0  0  0  0
  149.4281  146.0484  160.5399 H   0  0  0  0  0  0  0  0  0  0  0  0
  148.2715  144.7925  160.1355 H   0  0  0  0  0  0  0  0  0  0  0  0
  150.4440  144.4570  161.9177 H   0  0  0  0  0  0  0  0  0  0  0  0
  1  2  1  0  0  0  0
  1 21  1  0  0  0  0
  1 22  1  0  0  0  0
  1 23  1  0  0  0  0
  2 16  1  0  0  0  0
  2  3  2  0  0  0  0
  3  4  1  0  0  0  0
  3 24  1  0  0  0  0
  4  5  1  0  0  0  0
  4 13  1  0  0  0  0
  5 18  1  0  0  0  0
  5 12  1  0  0  0  0
  5  6  1  0  0  0  0
  6  7  1  0  0  0  0
  6 25  1  0  0  0  0
  6 26  1  0  0  0  0
  7 19  1  0  0  0  0
  7  8  1  0  0  0  0
  7  9  1  0  0  0  0
  8 27  1  0  0  0  0
  9 20  1  0  0  0  0
  9 10  1  0  0  0  0
  9 12  1  0  0  0  0
 10 11  1  0  0  0  0
 10 28  1  0  0  0  0
 10 29  1  0  0  0  0
 11 30  1  0  0  0  0
 13 14  2  0  0  0  0
 13 15  1  0  0  0  0
 15 16  1  0  0  0  0
 16 17  2  0  0  0  0
M  CHG  1  15  -1
M  END
> <s_m_source_file>
AV-unprocessed.smi

> <i_m_source_file_index>
55

> <i_lp_mmshare_version>
43012

> <i_f3d_flags>
0

> <s_epik_input>
Tz1jMVtuSF1jKD1PKW4oW2NIXWMxW0NIM10pW0NAQEhdMltDSDJdW0NAQEhdKFtPSF0pW0NAQEhdKE8yKVtDSDJdW09IXQ==

> <s_epik_cmdline>
J2VwaWtfcHl0aG9uJywgJy1waCcsICc3LjAnLCAnLXRuJywgJzgnLCAnLW1hJywgJzIwMCcsICctbWV0YWxfYmluZGluZycsICctaW1hZScsICc8aW5maWxlLm1hZT4nLCAnLW9tYWUnLCAnPG91dGZpbGUubWFlPic=

> <r_lp_tautomer_probability>
0.999537

> <r_epik_Ionization_Penalty>
3.66603

> <r_epik_Ionization_Penalty_Charging>
1.09773e-07

> <r_epik_Ionization_Penalty_Neutral>
3.66603

> <r_epik_State_Penalty>
3.66562

> <r_epik_Charging_Adjusted_Penalty>
3.66562

> <i_epik_Tot_Q>
-1

> <i_epik_Tot_abs_Q>
1

> <r_epik_Metal_State_Penalty>
0.234536

> <b_epik_Metal_Only>
1

> <s_epik_Chemistry_Notes>
This compound contains an acetal/aminal-like group ( X-CH(R)-Y where X, Y are N, S, or O) that may be acid/base labile, releasing an aldehyde.

> <s_lp_Force_Field>
OPLS_2005

> <r_lp_Energy>
34.2111

> <b_lp_Chiralities_Consistent>
1

> <s_lp_Variant>
AV-unprocessed.smi:55-10

> <Gold.Version>
5.8.1

> <Gold.Id.Protein>
6NUR|6NUR_protein|mol2

> <Gold.PLP.Fitness>
43.4113

> <Gold.PLP.PLP>
-37.1805

> <Gold.PLP.part.hbond>
-7.2126

> <Gold.PLP.part.metal>
0.0000

> <Gold.PLP.part.buried>
-0.4422

> <Gold.PLP.part.nonpolar>
-26.4894

> <Gold.PLP.part.repulsive>
0.2018

> <Gold.PLP.ligand.clash>
0.0000

> <Gold.PLP.ligand.torsion>
0.7336

> <Gold.PLP.Chemscore.Hbond>
1.5631

> <Gold.PLP.Chemscore.CHOScore>
1.0000

> <Gold.PLP.Chemscore.Metal>
0.0000

> <Gold.Chemscore.Hbonds>
donor molecule, donor type, donor heavy atom, donor atom, acceptor molecule, acceptor atom, score
      P1  H  6933  6944       L1    11  0.14
      P1  H  7989  7998       L1    17  0.60
      P1  H  7997  8008       L1    14  0.56
      L1  C     3    24       P1  8028  0.94

> <Gold.PLP.Chemscore.Internal.Correction>
0.0085

> <Gold.Rescore>
     Score         DG    S(hbond)    S(metal)    S(lipo)     H(rot)  DE(clash)    DE(int)     intcor
      6.91      -8.28       0.90        0.00      57.05       2.69       0.67       0.70       ----

> <Gold.Chemscore.Fitness>
6.9072

> <Gold.Chemscore.DG>
-8.2794

> <Gold.Chemscore.ZeroCoef>
-5.4800

> <Gold.Chemscore.Hbond>
0.8992

> <Gold.Chemscore.Metal>
0.0000

> <Gold.Chemscore.Lipo>
57.0532

> <Gold.Chemscore.Internal_Hbond>
0.0000

> <Gold.Chemscore.DEClash>
0.6747

> <Gold.Chemscore.DEInternal>
0.6975

> <Gold.Chemscore.Rot>
2.6871

> <Gold.Chemscore.Internal.Correction>
   9.000000E+99

> <Gold.Chemscore.Hbonds>
donor molecule, donor type, donor heavy atom, donor atom, acceptor molecule, acceptor atom, score
      P1  H  6933  6944       L1    11  0.05
      P1  H  7989  7998       L1    17  0.04
      P1  H  7997  8008       L1    14  0.06

> <Gold.Chemscore.Hbond.Weighted>
-3.0032

> <Gold.Chemscore.Metal.Weighted>
-0.0000

> <Gold.Chemscore.Lipo.Weighted>
-6.6752

> <Gold.Chemscore.Internal_Hbond.Weighted>
0.0000

> <Gold.Chemscore.DEClash.Weighted>
0.6747

> <Gold.Chemscore.DEInternal.Weighted>
0.6975

> <Gold.Chemscore.Rot.Weighted>
6.8791

> <Gold.Chemscore.Internal.Correction.Weighted>
   9.000000E+99

> <Gold.Protein.RotatedTorsions>
[ 6907 6896 6895 6894 ] final   -2.03 input  -60.11 | X-H torsion
[ 7974 7965 7964 7962 ] final   91.77 input  175.53 | X-H torsion
[ 8008 7997 7996 7995 ] final  -91.32 input   59.86 | X-H torsion
[ 10167 10162 10161 10158 ] final   47.14 input  -65.29 | X-H torsion
[ 10718 10713 10712 10709 ] final  114.73 input   66.30 | X-H torsion
[ 10763 10752 10751 10750 ] final  -64.45 input  -60.55 | X-H torsion
[ 11005 11000 10999 10996 ] final  -10.40 input  -57.11 | X-H torsion

> <Gold.Protein.ActiveResidues>
 VAL166  LYS551  ARG553  GLY616  TRP617  ASP618  TYR619  PRO620  LYS621  CYS622 
 ASP623  PHE694  ASN695  SER759  ASP760  ASP761  ALA762  ILE779  LEU786  VAL792 
 PHE793  MET794  SER795  GLU796  ALA797  LYS798  CYS799  TRP800  GLU811  SER814 

> <Gold.Protein.RotatedAtoms>
  151.5365  135.1068  159.9915 H   0  0  0  0  0  0  0  0  0  0  0  0  # atno 6907 bound_to 6896
  152.4555  133.7710  159.6809 H   0  0  0  0  0  0  0  0  0  0  0  0  # atno 6908 bound_to 6896
  150.8497  133.7740  159.3054 H   0  0  0  0  0  0  0  0  0  0  0  0  # atno 6909 bound_to 6896
  145.5012  139.2276  143.2776 H   0  0  0  0  0  0  0  0  0  0  0  0  # atno 7974 bound_to 7965
  154.7093  140.0521  157.0535 H   0  0  0  0  0  0  0  0  0  0  0  0  # atno 8008 bound_to 7997
  155.0576  140.3186  155.4652 H   0  0  0  0  0  0  0  0  0  0  0  0  # atno 8009 bound_to 7997
  156.2784  140.2104  156.5703 H   0  0  0  0  0  0  0  0  0  0  0  0  # atno 8010 bound_to 7997
  140.3067  144.2869  150.6208 H   0  0  0  0  0  0  0  0  0  0  0  0  # atno 10167 bound_to 10162
  157.6264  131.1002  150.7227 H   0  0  0  0  0  0  0  0  0  0  0  0  # atno 10718 bound_to 10713
  154.3302  135.6178  153.5548 H   0  0  0  0  0  0  0  0  0  0  0  0  # atno 10763 bound_to 10752
  152.9812  135.5745  154.4970 H   0  0  0  0  0  0  0  0  0  0  0  0  # atno 10764 bound_to 10752
  154.4655  135.2857  155.1658 H   0  0  0  0  0  0  0  0  0  0  0  0  # atno 10765 bound_to 10752
  140.7444  133.8644  155.8993 H   0  0  0  0  0  0  0  0  0  0  0  0  # atno 11005 bound_to 11000
  146.2225  140.5813  142.9011 LP  0  0  0  0  0  0  0  0  0  0  0  0  # atno 17320 bound_to 7965
  144.7779  140.5778  143.6625 LP  0  0  0  0  0  0  0  0  0  0  0  0  # atno 17321 bound_to 7965
  140.5604  143.2193  151.7775 LP  0  0  0  0  0  0  0  0  0  0  0  0  # atno 17342 bound_to 10162
  139.4903  144.4357  151.9822 LP  0  0  0  0  0  0  0  0  0  0  0  0  # atno 17343 bound_to 10162
  156.7575  130.4788  149.5444 LP  0  0  0  0  0  0  0  0  0  0  0  0  # atno 17370 bound_to 10713
  156.1439  130.6263  151.0505 LP  0  0  0  0  0  0  0  0  0  0  0  0  # atno 17371 bound_to 10713
  140.9808  134.1408  157.4496 LP  0  0  0  0  0  0  0  0  0  0  0  0  # atno 17394 bound_to 11000
  139.8799  135.0009  156.6040 LP  0  0  0  0  0  0  0  0  0  0  0  0  # atno 17395 bound_to 11000

$$$$
