AV-unprocessed.smi:266|AV-procd|sdf|2037|dock10
  -GOLD-   2262021253D 1   1.00000     0.00000
 Structure written by MMmdl.
 52 55  0  0  0  0  0  0  0  0  1 V2000
  145.6558  131.8915  149.1309 C   0  0  0  0  0  0  0  0  0  0  0  0
  145.1607  131.8578  150.5872 C   0  0  2  0  0  0  0  0  0  0  0  0
  143.8098  132.3237  150.5714 O   0  0  0  0  0  0  0  0  0  0  0  0
  143.6317  133.3713  151.5139 C   0  0  0  0  0  0  0  0  0  0  0  0
  145.0132  133.9962  151.6302 C   0  0  0  0  0  0  0  0  0  0  0  0
  145.9227  132.7736  151.5790 C   0  0  2  0  0  0  0  0  0  0  0  0
  147.1947  133.1682  151.0955 O   0  0  0  0  0  0  0  0  0  0  0  0
  146.1171  132.0690  152.9489 C   0  0  0  0  0  0  0  0  0  0  0  0
  146.4687  132.9646  154.0409 N   0  0  0  0  0  0  0  0  0  0  0  0
  145.6157  133.4682  154.9962 C   0  0  0  0  0  0  0  0  0  0  0  0
  146.1699  134.2545  155.8772 N   0  0  0  0  0  0  0  0  0  0  0  0
  147.5129  134.2808  155.5184 C   0  0  0  0  0  0  0  0  0  0  0  0
  148.6770  134.9205  156.0382 C   0  0  0  0  0  0  0  0  0  0  0  0
  148.7143  135.7264  157.1275 N   0  0  0  0  0  0  0  0  0  0  0  0
  147.6890  135.3931  158.1067 C   0  0  0  0  0  0  0  0  0  0  0  0
  150.0092  136.1644  157.6479 C   0  0  0  0  0  0  0  0  0  0  0  0
  150.4294  137.5742  157.1796 C   0  0  1  0  0  0  0  0  0  0  0  0
  151.5237  138.2059  158.0644 C   0  0  0  0  0  0  0  0  0  0  0  0
  152.0708  139.4481  157.3540 C   0  0  0  0  0  0  0  0  0  0  0  0
  151.9854  139.0724  155.5634 S   0  0  0  0  0  0  0  0  0  0  0  0
  151.2110  140.1266  154.8908 O   0  0  0  0  0  0  0  0  0  0  0  0
  153.3176  138.6836  155.0766 O   0  0  0  0  0  0  0  0  0  0  0  0
  150.9511  137.5692  155.7354 C   0  0  0  0  0  0  0  0  0  0  0  0
  149.8499  134.7187  155.3859 N   0  0  0  0  0  0  0  0  0  0  0  0
  149.8952  133.9290  154.3094 C   0  0  0  0  0  0  0  0  0  0  0  0
  148.9006  133.2615  153.7225 N   0  0  0  0  0  0  0  0  0  0  0  0
  147.7154  133.4729  154.3627 C   0  0  0  0  0  0  0  0  0  0  0  0
  146.6723  131.5060  149.0477 H   0  0  0  0  0  0  0  0  0  0  0  0
  145.6442  132.9054  148.7295 H   0  0  0  0  0  0  0  0  0  0  0  0
  145.0214  131.2757  148.4929 H   0  0  0  0  0  0  0  0  0  0  0  0
  145.1723  130.8233  150.9333 H   0  0  0  0  0  0  0  0  0  0  0  0
  142.8740  134.0818  151.1828 H   0  0  0  0  0  0  0  0  0  0  0  0
  143.3121  132.9517  152.4685 H   0  0  0  0  0  0  0  0  0  0  0  0
  145.1850  134.6340  150.7615 H   0  0  0  0  0  0  0  0  0  0  0  0
  145.1306  134.6187  152.5161 H   0  0  0  0  0  0  0  0  0  0  0  0
  147.6989  132.3912  150.9077 H   0  0  0  0  0  0  0  0  0  0  0  0
  145.2075  131.5388  153.2338 H   0  0  0  0  0  0  0  0  0  0  0  0
  146.8930  131.3061  152.8704 H   0  0  0  0  0  0  0  0  0  0  0  0
  144.5598  133.2400  155.0130 H   0  0  0  0  0  0  0  0  0  0  0  0
  146.6918  135.4522  157.6692 H   0  0  0  0  0  0  0  0  0  0  0  0
  147.7209  136.0847  158.9491 H   0  0  0  0  0  0  0  0  0  0  0  0
  147.8389  134.3832  158.4904 H   0  0  0  0  0  0  0  0  0  0  0  0
  149.9609  136.1559  158.7373 H   0  0  0  0  0  0  0  0  0  0  0  0
  150.7722  135.4328  157.3827 H   0  0  0  0  0  0  0  0  0  0  0  0
  149.5690  138.2436  157.1979 H   0  0  0  0  0  0  0  0  0  0  0  0
  151.1493  138.4528  159.0584 H   0  0  0  0  0  0  0  0  0  0  0  0
  152.3350  137.4891  158.1990 H   0  0  0  0  0  0  0  0  0  0  0  0
  151.4378  140.3144  157.5474 H   0  0  0  0  0  0  0  0  0  0  0  0
  153.0938  139.6902  157.6425 H   0  0  0  0  0  0  0  0  0  0  0  0
  151.5896  136.7046  155.5511 H   0  0  0  0  0  0  0  0  0  0  0  0
  150.1518  137.5744  154.9941 H   0  0  0  0  0  0  0  0  0  0  0  0
  150.8675  133.8155  153.8530 H   0  0  0  0  0  0  0  0  0  0  0  0
  1  2  1  0  0  0  0
  1 28  1  0  0  0  0
  1 29  1  0  0  0  0
  1 30  1  0  0  0  0
  2  6  1  0  0  0  0
  2  3  1  0  0  0  0
  2 31  1  0  0  0  0
  3  4  1  0  0  0  0
  4  5  1  0  0  0  0
  4 32  1  0  0  0  0
  4 33  1  0  0  0  0
  5  6  1  0  0  0  0
  5 34  1  0  0  0  0
  5 35  1  0  0  0  0
  6  7  1  0  0  0  0
  6  8  1  0  0  0  0
  7 36  1  0  0  0  0
  8  9  1  0  0  0  0
  8 37  1  0  0  0  0
  8 38  1  0  0  0  0
  9 27  1  0  0  0  0
  9 10  1  0  0  0  0
 10 11  2  0  0  0  0
 10 39  1  0  0  0  0
 11 12  1  0  0  0  0
 12 27  2  0  0  0  0
 12 13  1  0  0  0  0
 13 14  1  0  0  0  0
 13 24  2  0  0  0  0
 14 15  1  0  0  0  0
 14 16  1  0  0  0  0
 15 40  1  0  0  0  0
 15 41  1  0  0  0  0
 15 42  1  0  0  0  0
 16 17  1  0  0  0  0
 16 43  1  0  0  0  0
 16 44  1  0  0  0  0
 17 23  1  0  0  0  0
 17 18  1  0  0  0  0
 17 45  1  0  0  0  0
 18 19  1  0  0  0  0
 18 46  1  0  0  0  0
 18 47  1  0  0  0  0
 19 20  1  0  0  0  0
 19 48  1  0  0  0  0
 19 49  1  0  0  0  0
 20 21  2  0  0  0  0
 20 22  2  0  0  0  0
 20 23  1  0  0  0  0
 23 50  1  0  0  0  0
 23 51  1  0  0  0  0
 24 25  1  0  0  0  0
 25 26  2  0  0  0  0
 25 52  1  0  0  0  0
 26 27  1  0  0  0  0
M  END
> <s_m_source_file>
AV-unprocessed.smi

> <i_m_source_file_index>
266

> <i_lp_mmshare_version>
43012

> <i_f3d_flags>
0

> <s_epik_input>
W0NIMl0xW0NIMl1PW0NAQEhdKFtDSDNdKVtDQEBdMShbT0hdKVtDSDJdbihbY0hdbjIpYyhjMjMpbltjSF1uYzNOKFtDSDNdKVtDSDJdW0NAQEhdKFtDSDJdNClbQ0gyXVtDSDJdUzQoPU8pPU8=

> <s_epik_cmdline>
J2VwaWtfcHl0aG9uJywgJy1waCcsICc3LjAnLCAnLXRuJywgJzgnLCAnLW1hJywgJzIwMCcsICctbWV0YWxfYmluZGluZycsICctaW1hZScsICc8aW5maWxlLm1hZT4nLCAnLW9tYWUnLCAnPG91dGZpbGUubWFlPic=

> <r_lp_tautomer_probability>
1

> <r_epik_Ionization_Penalty>
0.00155497

> <r_epik_Ionization_Penalty_Charging>
0

> <r_epik_Ionization_Penalty_Neutral>
0.00155497

> <r_epik_State_Penalty>
-0

> <r_epik_Charging_Adjusted_Penalty>
0

> <i_epik_Tot_Q>
0

> <i_epik_Tot_abs_Q>
0

> <r_epik_Metal_State_Penalty>
-0

> <b_epik_Metal_Only>
0

> <s_lp_Force_Field>
OPLS_2005

> <r_lp_Energy>
32.6677

> <b_lp_Chiralities_Consistent>
1

> <s_lp_Variant>
AV-unprocessed.smi:266-7

> <Gold.Version>
5.8.1

> <Gold.Id.Protein>
6NUR|6NUR_protein|mol2

> <Gold.PLP.Fitness>
41.0746

> <Gold.PLP.PLP>
-31.7871

> <Gold.PLP.part.hbond>
-3.0000

> <Gold.PLP.part.metal>
0.0000

> <Gold.PLP.part.buried>
-7.3279

> <Gold.PLP.part.nonpolar>
-21.6895

> <Gold.PLP.part.repulsive>
0.5289

> <Gold.PLP.ligand.clash>
0.0000

> <Gold.PLP.ligand.torsion>
1.6684

> <Gold.PLP.Chemscore.Hbond>
3.0000

> <Gold.PLP.Chemscore.CHOScore>
1.0000

> <Gold.PLP.Chemscore.Metal>
0.0000

> <Gold.Chemscore.Hbonds>
donor molecule, donor type, donor heavy atom, donor atom, acceptor molecule, acceptor atom, score
      L1  H     7    36       P1 10747  0.86
      P1  H  7989  7998       L1    21  1.00
      P1  H  7997  8009       L1    22  0.84
      L1  C    10    39       P1 10957  1.00

> <Gold.PLP.Chemscore.Internal.Correction>
0.6244

> <Gold.Rescore>
     Score         DG    S(hbond)    S(metal)    S(lipo)     H(rot)  DE(clash)    DE(int)     intcor
     12.89     -16.29       2.94        0.00      68.93       2.76       0.37       3.03       ----

> <Gold.Chemscore.Fitness>
12.8917

> <Gold.Chemscore.DG>
-16.2901

> <Gold.Chemscore.ZeroCoef>
-5.4800

> <Gold.Chemscore.Hbond>
2.9403

> <Gold.Chemscore.Metal>
0.0000

> <Gold.Chemscore.Lipo>
68.9284

> <Gold.Chemscore.Internal_Hbond>
0.0000

> <Gold.Chemscore.DEClash>
0.3722

> <Gold.Chemscore.DEInternal>
3.0262

> <Gold.Chemscore.Rot>
2.7637

> <Gold.Chemscore.Internal.Correction>
   9.000000E+99

> <Gold.Chemscore.Hbonds>
donor molecule, donor type, donor heavy atom, donor atom, acceptor molecule, acceptor atom, score
      L1  H     7    36       P1 10747  0.84
      P1  H  7989  7998       L1    21  0.99
      P1  H  7997  8009       L1    22  0.15

> <Gold.Chemscore.Hbond.Weighted>
-9.8205

> <Gold.Chemscore.Metal.Weighted>
-0.0000

> <Gold.Chemscore.Lipo.Weighted>
-8.0646

> <Gold.Chemscore.Internal_Hbond.Weighted>
0.0000

> <Gold.Chemscore.DEClash.Weighted>
0.3722

> <Gold.Chemscore.DEInternal.Weighted>
3.0262

> <Gold.Chemscore.Rot.Weighted>
7.0750

> <Gold.Chemscore.Internal.Correction.Weighted>
   9.000000E+99

> <Gold.Protein.RotatedTorsions>
[ 6907 6896 6895 6894 ] final  -16.15 input  -60.11 | X-H torsion
[ 7974 7965 7964 7962 ] final  133.51 input  175.53 | X-H torsion
[ 8008 7997 7996 7995 ] final -145.21 input   59.86 | X-H torsion
[ 10167 10162 10161 10158 ] final   33.19 input  -65.29 | X-H torsion
[ 10718 10713 10712 10709 ] final   52.18 input   66.30 | X-H torsion
[ 10763 10752 10751 10750 ] final  -11.01 input  -60.55 | X-H torsion
[ 11005 11000 10999 10996 ] final -169.36 input  -57.11 | X-H torsion

> <Gold.Protein.ActiveResidues>
 VAL166  LYS551  ARG553  GLY616  TRP617  ASP618  TYR619  PRO620  LYS621  CYS622 
 ASP623  PHE694  ASN695  SER759  ASP760  ASP761  ALA762  ILE779  LEU786  VAL792 
 PHE793  MET794  SER795  GLU796  ALA797  LYS798  CYS799  TRP800  GLU811  SER814 

> <Gold.Protein.RotatedAtoms>
  151.3130  135.0799  159.9278 H   0  0  0  0  0  0  0  0  0  0  0  0  # atno 6907 bound_to 6896
  152.5273  133.9717  159.7775 H   0  0  0  0  0  0  0  0  0  0  0  0  # atno 6908 bound_to 6896
  151.0024  133.5992  159.2723 H   0  0  0  0  0  0  0  0  0  0  0  0  # atno 6909 bound_to 6896
  144.9858  139.4457  143.5363 H   0  0  0  0  0  0  0  0  0  0  0  0  # atno 7974 bound_to 7965
  155.5395  140.0607  157.2873 H   0  0  0  0  0  0  0  0  0  0  0  0  # atno 8008 bound_to 7997
  154.4457  140.1922  156.0620 H   0  0  0  0  0  0  0  0  0  0  0  0  # atno 8009 bound_to 7997
  156.0595  140.3274  155.7448 H   0  0  0  0  0  0  0  0  0  0  0  0  # atno 8010 bound_to 7997
  140.4430  144.1160  150.6177 H   0  0  0  0  0  0  0  0  0  0  0  0  # atno 10167 bound_to 10162
  157.5050  130.8463  149.8364 H   0  0  0  0  0  0  0  0  0  0  0  0  # atno 10718 bound_to 10713
  153.4775  135.7017  153.5957 H   0  0  0  0  0  0  0  0  0  0  0  0  # atno 10763 bound_to 10752
  153.4185  135.3831  155.2096 H   0  0  0  0  0  0  0  0  0  0  0  0  # atno 10764 bound_to 10752
  154.8723  135.3922  154.4220 H   0  0  0  0  0  0  0  0  0  0  0  0  # atno 10765 bound_to 10752
  140.5316  134.5611  157.5076 H   0  0  0  0  0  0  0  0  0  0  0  0  # atno 11005 bound_to 11000
  146.3419  139.9159  142.8773 LP  0  0  0  0  0  0  0  0  0  0  0  0  # atno 17320 bound_to 7965
  145.2355  140.9989  143.3966 LP  0  0  0  0  0  0  0  0  0  0  0  0  # atno 17321 bound_to 7965
  140.4297  143.2574  151.9611 LP  0  0  0  0  0  0  0  0  0  0  0  0  # atno 17342 bound_to 10162
  139.4791  144.5755  151.8018 LP  0  0  0  0  0  0  0  0  0  0  0  0  # atno 17343 bound_to 10162
  156.0253  130.3781  150.1842 LP  0  0  0  0  0  0  0  0  0  0  0  0  # atno 17370 bound_to 10713
  157.0032  130.9928  151.3385 LP  0  0  0  0  0  0  0  0  0  0  0  0  # atno 17371 bound_to 10713
  139.9551  134.7549  156.0360 LP  0  0  0  0  0  0  0  0  0  0  0  0  # atno 17394 bound_to 11000
  141.1278  133.6594  156.3383 LP  0  0  0  0  0  0  0  0  0  0  0  0  # atno 17395 bound_to 11000

$$$$
