AV-unprocessed.smi:3149|AV-procd|sdf|11999|dock2
  -GOLD-   2272017403D 1   1.00000     0.00000
 Structure written by MMmdl.
 38 39  0  0  0  0  0  0  0  0  2 V2000
  148.0413  141.2973  157.0426 C   0  0  0  0  0  0  0  0  0  0  0  0
  149.5646  141.4775  156.9384 C   0  0  2  0  0  0  0  0  0  0  0  0
  149.9090  142.8486  157.3808 N   0  3  0  0  0  0  0  0  0  0  0  0
  151.3298  143.2180  157.2220 C   0  0  0  0  0  0  0  0  0  0  0  0
  152.0983  143.0147  158.5296 C   0  0  0  0  0  0  0  0  0  0  0  0
  152.3079  141.8791  158.9558 O   0  0  0  0  0  0  0  0  0  0  0  0
  152.6121  144.1482  159.1633 N   0  0  0  0  0  0  0  0  0  0  0  0
  152.6144  144.2741  160.6134 C   0  0  0  0  0  0  0  0  0  0  0  0
  152.4878  145.7821  160.3747 C   0  0  0  0  0  0  0  0  0  0  0  0
  152.0194  145.4606  158.9520 C   0  0  0  0  0  0  0  0  0  0  0  0
  150.1039  141.2202  155.5049 C   0  0  2  0  0  0  0  0  0  0  0  0
  149.1118  141.6311  154.3999 C   0  0  0  0  0  0  0  0  0  0  0  0
  150.4992  139.8274  155.3246 N   0  0  0  0  0  0  0  0  0  0  0  0
  150.2694  138.7601  156.1687 C   0  0  0  0  0  0  0  0  0  0  0  0
  150.7993  137.6496  155.5771 C   0  0  0  0  0  0  0  0  0  0  0  0
  151.3445  138.1421  154.3591 C   0  0  0  0  0  0  0  0  0  0  0  0
  151.1629  139.4442  154.2103 N   0  0  0  0  0  0  0  0  0  0  0  0
  147.7402  140.2710  156.8341 H   0  0  0  0  0  0  0  0  0  0  0  0
  147.5142  141.9496  156.3454 H   0  0  0  0  0  0  0  0  0  0  0  0
  147.6889  141.5328  158.0475 H   0  0  0  0  0  0  0  0  0  0  0  0
  150.0247  140.7576  157.6178 H   0  0  0  0  0  0  0  0  0  0  0  0
  149.3541  143.5013  156.8459 H   0  0  0  0  0  0  0  0  0  0  0  0
  151.7840  142.6091  156.4396 H   0  0  0  0  0  0  0  0  0  0  0  0
  151.3923  144.2593  156.9060 H   0  0  0  0  0  0  0  0  0  0  0  0
  151.7348  143.8384  161.0917 H   0  0  0  0  0  0  0  0  0  0  0  0
  153.5483  143.9672  161.0855 H   0  0  0  0  0  0  0  0  0  0  0  0
  151.7353  146.2720  160.9934 H   0  0  0  0  0  0  0  0  0  0  0  0
  153.4441  146.3073  160.4070 H   0  0  0  0  0  0  0  0  0  0  0  0
  152.5044  146.0454  158.1698 H   0  0  0  0  0  0  0  0  0  0  0  0
  150.9321  145.4419  158.8527 H   0  0  0  0  0  0  0  0  0  0  0  0
  151.0050  141.8209  155.3711 H   0  0  0  0  0  0  0  0  0  0  0  0
  148.9336  142.7060  154.3967 H   0  0  0  0  0  0  0  0  0  0  0  0
  148.1488  141.1337  154.5208 H   0  0  0  0  0  0  0  0  0  0  0  0
  149.4971  141.3708  153.4135 H   0  0  0  0  0  0  0  0  0  0  0  0
  149.7502  138.8763  157.1087 H   0  0  0  0  0  0  0  0  0  0  0  0
  150.7993  136.6388  155.9576 H   0  0  0  0  0  0  0  0  0  0  0  0
  151.8615  137.5961  153.5838 H   0  0  0  0  0  0  0  0  0  0  0  0
  149.6645  142.9477  158.3558 H   0  0  0  0  0  0  0  0  0  0  0  0
  1  2  1  0  0  0  0
  1 18  1  0  0  0  0
  1 19  1  0  0  0  0
  1 20  1  0  0  0  0
  2  3  1  0  0  0  0
  2 11  1  0  0  0  0
  2 21  1  0  0  0  0
  3  4  1  0  0  0  0
  3 22  1  0  0  0  0
  3 38  1  0  0  0  0
  4  5  1  0  0  0  0
  4 23  1  0  0  0  0
  4 24  1  0  0  0  0
  5  6  2  0  0  0  0
  5  7  1  0  0  0  0
  7 10  1  0  0  0  0
  7  8  1  0  0  0  0
  8  9  1  0  0  0  0
  8 25  1  0  0  0  0
  8 26  1  0  0  0  0
  9 10  1  0  0  0  0
  9 27  1  0  0  0  0
  9 28  1  0  0  0  0
 10 29  1  0  0  0  0
 10 30  1  0  0  0  0
 11 12  1  0  0  0  0
 11 13  1  0  0  0  0
 11 31  1  0  0  0  0
 12 32  1  0  0  0  0
 12 33  1  0  0  0  0
 12 34  1  0  0  0  0
 13 17  1  0  0  0  0
 13 14  1  0  0  0  0
 14 15  2  0  0  0  0
 14 35  1  0  0  0  0
 15 16  1  0  0  0  0
 15 36  1  0  0  0  0
 16 17  2  0  0  0  0
 16 37  1  0  0  0  0
M  CHG  1   3   1
M  END
> <s_m_source_file>
AV-unprocessed.smi

> <i_m_source_file_index>
3149

> <i_lp_mmshare_version>
43012

> <i_f3d_flags>
0

> <s_epik_input>
bjFbY0hdW2NIXVtjSF1uMVtDQEBIXShbQ0gzXSlbQ0BIXShbQ0gzXSlbTkhdW0NIMl1DKD1PKU4yW0NIMl1bQ0gyXVtDSDJdMg==

> <s_epik_cmdline>
J2VwaWtfcHl0aG9uJywgJy1waCcsICc3LjAnLCAnLXRuJywgJzgnLCAnLW1hJywgJzIwMCcsICctbWV0YWxfYmluZGluZycsICctaW1hZScsICc8aW5maWxlLm1hZT4nLCAnLW9tYWUnLCAnPG91dGZpbGUubWFlPic=

> <r_lp_tautomer_probability>
1

> <r_epik_Ionization_Penalty>
0.141739

> <r_epik_Ionization_Penalty_Charging>
0.141731

> <r_epik_Ionization_Penalty_Neutral>
8.82171e-06

> <r_epik_State_Penalty>
0.131043

> <r_epik_Charging_Adjusted_Penalty>
0.272773

> <i_epik_Tot_Q>
1

> <i_epik_Tot_abs_Q>
1

> <r_epik_Metal_State_Penalty>
0.131384

> <b_epik_Metal_Only>
0

> <s_lp_Force_Field>
OPLS_2005

> <r_lp_Energy>
21.2317

> <b_lp_Chiralities_Consistent>
1

> <s_lp_Variant>
AV-unprocessed.smi:3149-1

> <Gold.Version>
5.8.1

> <Gold.Id.Protein>
6NUR|6NUR_protein|mol2

> <Gold.PLP.Fitness>
45.2411

> <Gold.PLP.PLP>
-35.5353

> <Gold.PLP.part.hbond>
-2.0000

> <Gold.PLP.part.metal>
0.0000

> <Gold.PLP.part.buried>
-2.2307

> <Gold.PLP.part.nonpolar>
-31.8460

> <Gold.PLP.part.repulsive>
0.2030

> <Gold.PLP.ligand.clash>
0.0000

> <Gold.PLP.ligand.torsion>
1.6083

> <Gold.PLP.Chemscore.Hbond>
3.0000

> <Gold.PLP.Chemscore.CHOScore>
1.0000

> <Gold.PLP.Chemscore.Metal>
0.0000

> <Gold.Chemscore.Hbonds>
donor molecule, donor type, donor heavy atom, donor atom, acceptor molecule, acceptor atom, score
      L1  H     3    22       P1  8028  2.00
      P1  H  7989  7998       L1    17  1.00
      L1  C    16    37       P1  7949  0.51

> <Gold.PLP.Chemscore.Internal.Correction>
0.9223

> <Gold.Rescore>
     Score         DG    S(hbond)    S(metal)    S(lipo)     H(rot)  DE(clash)    DE(int)     intcor
     13.74     -15.47       1.54        0.00      81.92       1.85       0.09       1.65       ----

> <Gold.Chemscore.Fitness>
13.7411

> <Gold.Chemscore.DG>
-15.4739

> <Gold.Chemscore.ZeroCoef>
-5.4800

> <Gold.Chemscore.Hbond>
1.5437

> <Gold.Chemscore.Metal>
0.0000

> <Gold.Chemscore.Lipo>
81.9238

> <Gold.Chemscore.Internal_Hbond>
0.0000

> <Gold.Chemscore.DEClash>
0.0868

> <Gold.Chemscore.DEInternal>
1.6461

> <Gold.Chemscore.Rot>
1.8544

> <Gold.Chemscore.Internal.Correction>
   9.000000E+99

> <Gold.Chemscore.Hbonds>
donor molecule, donor type, donor heavy atom, donor atom, acceptor molecule, acceptor atom, score
      L1  H     3    22       P1  8028  0.94
      P1  H  7989  7998       L1    17  0.55

> <Gold.Chemscore.Hbond.Weighted>
-5.1560

> <Gold.Chemscore.Metal.Weighted>
-0.0000

> <Gold.Chemscore.Lipo.Weighted>
-9.5851

> <Gold.Chemscore.Internal_Hbond.Weighted>
0.0000

> <Gold.Chemscore.DEClash.Weighted>
0.0868

> <Gold.Chemscore.DEInternal.Weighted>
1.6461

> <Gold.Chemscore.Rot.Weighted>
4.7472

> <Gold.Chemscore.Internal.Correction.Weighted>
   9.000000E+99

> <Gold.Protein.RotatedTorsions>
[ 6907 6896 6895 6894 ] final -162.78 input  -60.11 | X-H torsion
[ 7974 7965 7964 7962 ] final   91.30 input  175.53 | X-H torsion
[ 8008 7997 7996 7995 ] final   10.65 input   59.86 | X-H torsion
[ 10167 10162 10161 10158 ] final   20.73 input  -65.29 | X-H torsion
[ 10718 10713 10712 10709 ] final  -98.12 input   66.30 | X-H torsion
[ 10763 10752 10751 10750 ] final  109.65 input  -60.55 | X-H torsion
[ 11005 11000 10999 10996 ] final   74.71 input  -57.11 | X-H torsion

> <Gold.Protein.ActiveResidues>
 VAL166  LYS551  ARG553  GLY616  TRP617  ASP618  TYR619  PRO620  LYS621  CYS622 
 ASP623  PHE694  ASN695  SER759  ASP760  ASP761  ALA762  ILE779  LEU786  VAL792 
 PHE793  MET794  SER795  GLU796  ALA797  LYS798  CYS799  TRP800  GLU811  SER814 

> <Gold.Protein.RotatedAtoms>
  151.3857  133.3806  159.2714 H   0  0  0  0  0  0  0  0  0  0  0  0  # atno 6907 bound_to 6896
  150.9543  134.8940  159.7702 H   0  0  0  0  0  0  0  0  0  0  0  0  # atno 6908 bound_to 6896
  152.5124  134.3814  159.9404 H   0  0  0  0  0  0  0  0  0  0  0  0  # atno 6909 bound_to 6896
  145.5075  139.2276  143.2743 H   0  0  0  0  0  0  0  0  0  0  0  0  # atno 7974 bound_to 7965
  154.7962  140.2844  155.5955 H   0  0  0  0  0  0  0  0  0  0  0  0  # atno 8008 bound_to 7997
  156.2971  140.2595  156.2749 H   0  0  0  0  0  0  0  0  0  0  0  0  # atno 8009 bound_to 7997
  154.9612  140.0377  157.2180 H   0  0  0  0  0  0  0  0  0  0  0  0  # atno 8010 bound_to 7997
  140.5481  143.9559  150.6560 H   0  0  0  0  0  0  0  0  0  0  0  0  # atno 10167 bound_to 10162
  156.0100  130.5224  150.6476 H   0  0  0  0  0  0  0  0  0  0  0  0  # atno 10718 bound_to 10713
  153.4378  135.3773  155.2209 H   0  0  0  0  0  0  0  0  0  0  0  0  # atno 10763 bound_to 10752
  154.8753  135.3855  154.4190 H   0  0  0  0  0  0  0  0  0  0  0  0  # atno 10764 bound_to 10752
  153.4731  135.7087  153.6045 H   0  0  0  0  0  0  0  0  0  0  0  0  # atno 10765 bound_to 10752
  139.9378  134.7456  156.1181 H   0  0  0  0  0  0  0  0  0  0  0  0  # atno 11005 bound_to 11000
  146.2187  140.5880  142.9027 LP  0  0  0  0  0  0  0  0  0  0  0  0  # atno 17320 bound_to 7965
  144.7745  140.5710  143.6647 LP  0  0  0  0  0  0  0  0  0  0  0  0  # atno 17321 bound_to 7965
  140.2977  143.3281  152.1002 LP  0  0  0  0  0  0  0  0  0  0  0  0  # atno 17342 bound_to 10162
  139.5015  144.6716  151.6229 LP  0  0  0  0  0  0  0  0  0  0  0  0  # atno 17343 bound_to 10162
  157.4244  131.0841  151.1100 LP  0  0  0  0  0  0  0  0  0  0  0  0  # atno 17370 bound_to 10713
  157.1692  130.6260  149.5635 LP  0  0  0  0  0  0  0  0  0  0  0  0  # atno 17371 bound_to 10713
  141.0999  133.6681  156.2731 LP  0  0  0  0  0  0  0  0  0  0  0  0  # atno 17394 bound_to 11000
  140.6030  134.5535  157.5521 LP  0  0  0  0  0  0  0  0  0  0  0  0  # atno 17395 bound_to 11000

$$$$
