AV-unprocessed.smi:234|AV-procd|sdf|1787|dock8
  -GOLD-   2262020343D 1   1.00000     0.00000
 Structure written by MMmdl.
 59 62  0  0  0  0  0  0  0  0  1 V2000
  152.7942  144.8118  158.4954 C   0  0  0  0  0  0  0  0  0  0  0  0
  151.6868  144.2761  159.4126 C   0  0  0  0  0  0  0  0  0  0  0  0
  150.8457  143.3446  158.7480 O   0  0  0  0  0  0  0  0  0  0  0  0
  151.5087  142.1834  158.2650 C   0  0  2  0  0  0  0  0  0  0  0  0
  151.8488  142.2941  156.7802 C   0  0  0  0  0  0  0  0  0  0  0  0
  151.4917  140.8037  156.6956 C   0  0  2  0  0  0  0  0  0  0  0  0
  150.8123  140.4188  155.4551 N   0  0  0  0  0  0  0  0  0  0  0  0
  150.0419  141.4316  154.7426 C   0  0  0  0  0  0  0  0  0  0  0  0
  150.2161  139.2035  155.4116 C   0  0  0  0  0  0  0  0  0  0  0  0
  150.9237  138.1521  155.8968 N   0  0  0  0  0  0  0  0  0  0  0  0
  150.3931  136.9257  155.8902 C   0  0  0  0  0  0  0  0  0  0  0  0
  149.1965  136.5360  155.4463 N   0  0  0  0  0  0  0  0  0  0  0  0
  148.4881  137.5867  154.9421 C   0  0  0  0  0  0  0  0  0  0  0  0
  148.9204  138.9421  154.8785 C   0  0  0  0  0  0  0  0  0  0  0  0
  147.9386  139.7208  154.2760 N   0  0  0  0  0  0  0  0  0  0  0  0
  146.9769  138.8790  154.0151 C   0  0  0  0  0  0  0  0  0  0  0  0
  147.2172  137.5776  154.3932 N   0  0  0  0  0  0  0  0  0  0  0  0
  146.3184  136.4441  154.2341 C   0  0  0  0  0  0  0  0  0  0  0  0
  145.8551  136.2299  152.7686 C   0  0  1  0  0  0  0  0  0  0  0  0
  144.9840  137.2941  152.4246 O   0  0  0  0  0  0  0  0  0  0  0  0
  147.0033  136.2250  151.7620 C   0  0  0  0  0  0  0  0  0  0  0  0
  146.4842  135.3259  150.6510 C   0  0  0  0  0  0  0  0  0  0  0  0
  145.8169  134.3064  151.3726 O   0  0  0  0  0  0  0  0  0  0  0  0
  145.1140  134.8972  152.4628 C   0  0  1  0  0  0  0  0  0  0  0  0
  145.0520  133.8603  153.5950 C   0  0  0  0  0  0  0  0  0  0  0  0
  150.5542  141.0105  157.9191 C   0  0  0  0  0  0  0  0  0  0  0  0
  150.5186  139.8735  158.9414 C   0  0  0  0  0  0  0  0  0  0  0  0
  149.0946  141.4054  157.6335 C   0  0  0  0  0  0  0  0  0  0  0  0
  153.4865  145.4419  159.0540 H   0  0  0  0  0  0  0  0  0  0  0  0
  152.3869  145.4154  157.6849 H   0  0  0  0  0  0  0  0  0  0  0  0
  153.3668  143.9953  158.0552 H   0  0  0  0  0  0  0  0  0  0  0  0
  152.1445  143.7605  160.2570 H   0  0  0  0  0  0  0  0  0  0  0  0
  151.0960  145.0923  159.8313 H   0  0  0  0  0  0  0  0  0  0  0  0
  152.3805  141.8742  158.8474 H   0  0  0  0  0  0  0  0  0  0  0  0
  151.1701  142.9473  156.2284 H   0  0  0  0  0  0  0  0  0  0  0  0
  152.8930  142.5291  156.5725 H   0  0  0  0  0  0  0  0  0  0  0  0
  152.3429  140.1675  156.9455 H   0  0  0  0  0  0  0  0  0  0  0  0
  148.9696  141.2375  154.8028 H   0  0  0  0  0  0  0  0  0  0  0  0
  150.3270  141.4451  153.6904 H   0  0  0  0  0  0  0  0  0  0  0  0
  150.2177  142.4253  155.1513 H   0  0  0  0  0  0  0  0  0  0  0  0
  151.0169  136.1447  156.3000 H   0  0  0  0  0  0  0  0  0  0  0  0
  146.0570  139.1887  153.5410 H   0  0  0  0  0  0  0  0  0  0  0  0
  146.8387  135.5599  154.6033 H   0  0  0  0  0  0  0  0  0  0  0  0
  145.4593  136.5938  154.8893 H   0  0  0  0  0  0  0  0  0  0  0  0
  145.0614  137.4579  151.4973 H   0  0  0  0  0  0  0  0  0  0  0  0
  147.2907  137.2181  151.4134 H   0  0  0  0  0  0  0  0  0  0  0  0
  147.8860  135.7597  152.2023 H   0  0  0  0  0  0  0  0  0  0  0  0
  145.7747  135.8548  150.0127 H   0  0  0  0  0  0  0  0  0  0  0  0
  147.2816  134.9225  150.0267 H   0  0  0  0  0  0  0  0  0  0  0  0
  144.0950  135.0978  152.1262 H   0  0  0  0  0  0  0  0  0  0  0  0
  144.5128  134.2468  154.4599 H   0  0  0  0  0  0  0  0  0  0  0  0
  146.0486  133.5587  153.9180 H   0  0  0  0  0  0  0  0  0  0  0  0
  144.5319  132.9616  153.2633 H   0  0  0  0  0  0  0  0  0  0  0  0
  149.9742  139.0075  158.5658 H   0  0  0  0  0  0  0  0  0  0  0  0
  150.0322  140.1829  159.8664 H   0  0  0  0  0  0  0  0  0  0  0  0
  151.5227  139.5371  159.2001 H   0  0  0  0  0  0  0  0  0  0  0  0
  148.5109  140.5585  157.2722 H   0  0  0  0  0  0  0  0  0  0  0  0
  149.0199  142.1906  156.8810 H   0  0  0  0  0  0  0  0  0  0  0  0
  148.6012  141.7774  158.5320 H   0  0  0  0  0  0  0  0  0  0  0  0
  1  2  1  0  0  0  0
  1 29  1  0  0  0  0
  1 30  1  0  0  0  0
  1 31  1  0  0  0  0
  2  3  1  0  0  0  0
  2 32  1  0  0  0  0
  2 33  1  0  0  0  0
  3  4  1  0  0  0  0
  4 26  1  0  0  0  0
  4  5  1  0  0  0  0
  4 34  1  0  0  0  0
  5  6  1  0  0  0  0
  5 35  1  0  0  0  0
  5 36  1  0  0  0  0
  6  7  1  0  0  0  0
  6 26  1  0  0  0  0
  6 37  1  0  0  0  0
  7  8  1  0  0  0  0
  7  9  1  0  0  0  0
  8 38  1  0  0  0  0
  8 39  1  0  0  0  0
  8 40  1  0  0  0  0
  9 14  1  0  0  0  0
  9 10  2  0  0  0  0
 10 11  1  0  0  0  0
 11 12  2  0  0  0  0
 11 41  1  0  0  0  0
 12 13  1  0  0  0  0
 13 17  1  0  0  0  0
 13 14  2  0  0  0  0
 14 15  1  0  0  0  0
 15 16  2  0  0  0  0
 16 17  1  0  0  0  0
 16 42  1  0  0  0  0
 17 18  1  0  0  0  0
 18 19  1  0  0  0  0
 18 43  1  0  0  0  0
 18 44  1  0  0  0  0
 19 24  1  0  0  0  0
 19 20  1  0  0  0  0
 19 21  1  0  0  0  0
 20 45  1  0  0  0  0
 21 22  1  0  0  0  0
 21 46  1  0  0  0  0
 21 47  1  0  0  0  0
 22 23  1  0  0  0  0
 22 48  1  0  0  0  0
 22 49  1  0  0  0  0
 23 24  1  0  0  0  0
 24 25  1  0  0  0  0
 24 50  1  0  0  0  0
 25 51  1  0  0  0  0
 25 52  1  0  0  0  0
 25 53  1  0  0  0  0
 26 27  1  0  0  0  0
 26 28  1  0  0  0  0
 27 54  1  0  0  0  0
 27 55  1  0  0  0  0
 27 56  1  0  0  0  0
 28 57  1  0  0  0  0
 28 58  1  0  0  0  0
 28 59  1  0  0  0  0
M  END
> <s_m_source_file>
AV-unprocessed.smi

> <i_m_source_file_index>
234

> <i_lp_mmshare_version>
43012

> <i_f3d_flags>
0

> <s_epik_input>
W0NIM11bQ0gyXU9bQ0BASF0oQzEoW0NIM10pW0NIM10pW0NIMl1bQ0BIXTFOKFtDSDNdKWMobltjSF1uMiljKGMyMyluW2NIXW4zW0NIMl1bQ0BAXTQoW09IXSlbQ0gyXVtDSDJdT1tDQEhdNFtDSDNd

> <s_epik_cmdline>
J2VwaWtfcHl0aG9uJywgJy1waCcsICc3LjAnLCAnLXRuJywgJzgnLCAnLW1hJywgJzIwMCcsICctbWV0YWxfYmluZGluZycsICctaW1hZScsICc8aW5maWxlLm1hZT4nLCAnLW9tYWUnLCAnPG91dGZpbGUubWFlPic=

> <r_lp_tautomer_probability>
1

> <r_epik_Ionization_Penalty>
0.00349132

> <r_epik_Ionization_Penalty_Charging>
0

> <r_epik_Ionization_Penalty_Neutral>
0.00349132

> <r_epik_State_Penalty>
0.00242418

> <r_epik_Charging_Adjusted_Penalty>
0.00242418

> <i_epik_Tot_Q>
0

> <i_epik_Tot_abs_Q>
0

> <r_epik_Metal_State_Penalty>
-0

> <b_epik_Metal_Only>
0

> <s_lp_Force_Field>
OPLS_2005

> <r_lp_Energy>
50.018

> <b_lp_Chiralities_Consistent>
1

> <s_lp_Variant>
AV-unprocessed.smi:234-3

> <Gold.Version>
5.8.1

> <Gold.Id.Protein>
6NUR|6NUR_protein|mol2

> <Gold.PLP.Fitness>
39.3441

> <Gold.PLP.PLP>
-33.2500

> <Gold.PLP.part.hbond>
-3.0000

> <Gold.PLP.part.metal>
0.0000

> <Gold.PLP.part.buried>
-0.3765

> <Gold.PLP.part.nonpolar>
-31.4921

> <Gold.PLP.part.repulsive>
1.9036

> <Gold.PLP.ligand.clash>
0.5854

> <Gold.PLP.ligand.torsion>
1.0047

> <Gold.PLP.Chemscore.Hbond>
1.5335

> <Gold.PLP.Chemscore.CHOScore>
1.0000

> <Gold.PLP.Chemscore.Metal>
0.0000

> <Gold.Chemscore.Hbonds>
donor molecule, donor type, donor heavy atom, donor atom, acceptor molecule, acceptor atom, score
      L1  H    20    45       P1 10171  0.15
      L1  C    16    42       P1 10175  0.07

> <Gold.PLP.Chemscore.Internal.Correction>
1.0884

> <Gold.Rescore>
     Score         DG    S(hbond)    S(metal)    S(lipo)     H(rot)  DE(clash)    DE(int)     intcor
      7.08     -13.26       1.00        0.00      95.24       2.62       1.58       4.60       ----

> <Gold.Chemscore.Fitness>
7.0816

> <Gold.Chemscore.DG>
-13.2586

> <Gold.Chemscore.ZeroCoef>
-5.4800

> <Gold.Chemscore.Hbond>
1.0022

> <Gold.Chemscore.Metal>
0.0000

> <Gold.Chemscore.Lipo>
95.2416

> <Gold.Chemscore.Internal_Hbond>
0.0000

> <Gold.Chemscore.DEClash>
1.5799

> <Gold.Chemscore.DEInternal>
4.5971

> <Gold.Chemscore.Rot>
2.6219

> <Gold.Chemscore.Internal.Correction>
   9.000000E+99

> <Gold.Chemscore.Hbonds>
donor molecule, donor type, donor heavy atom, donor atom, acceptor molecule, acceptor atom, score
      L1  H    20    45       P1 10171  0.16

> <Gold.Chemscore.Hbond.Weighted>
-3.3475

> <Gold.Chemscore.Metal.Weighted>
-0.0000

> <Gold.Chemscore.Lipo.Weighted>
-11.1433

> <Gold.Chemscore.Internal_Hbond.Weighted>
0.0000

> <Gold.Chemscore.DEClash.Weighted>
1.5799

> <Gold.Chemscore.DEInternal.Weighted>
4.5971

> <Gold.Chemscore.Rot.Weighted>
6.7121

> <Gold.Chemscore.Internal.Correction.Weighted>
   9.000000E+99

> <Gold.Protein.RotatedTorsions>
[ 6907 6896 6895 6894 ] final -152.59 input  -60.11 | X-H torsion
[ 7974 7965 7964 7962 ] final -160.45 input  175.53 | X-H torsion
[ 8008 7997 7996 7995 ] final   -3.38 input   59.86 | X-H torsion
[ 10167 10162 10161 10158 ] final  -24.67 input  -65.29 | X-H torsion
[ 10718 10713 10712 10709 ] final   19.02 input   66.30 | X-H torsion
[ 10763 10752 10751 10750 ] final  -90.60 input  -60.55 | X-H torsion
[ 11005 11000 10999 10996 ] final  138.38 input  -57.11 | X-H torsion

> <Gold.Protein.ActiveResidues>
 VAL166  LYS551  ARG553  GLY616  TRP617  ASP618  TYR619  PRO620  LYS621  CYS622 
 ASP623  PHE694  ASN695  SER759  ASP760  ASP761  ALA762  ILE779  LEU786  VAL792 
 PHE793  MET794  SER795  GLU796  ALA797  LYS798  CYS799  TRP800  GLU811  SER814 

> <Gold.Protein.RotatedAtoms>
  151.2300  133.4455  159.2603 H   0  0  0  0  0  0  0  0  0  0  0  0  # atno 6907 bound_to 6896
  151.0803  134.9854  159.8363 H   0  0  0  0  0  0  0  0  0  0  0  0  # atno 6908 bound_to 6896
  152.5423  134.2240  159.8852 H   0  0  0  0  0  0  0  0  0  0  0  0  # atno 6909 bound_to 6896
  144.7427  140.3540  143.6110 H   0  0  0  0  0  0  0  0  0  0  0  0  # atno 7974 bound_to 7965
  154.6256  140.2511  155.7496 H   0  0  0  0  0  0  0  0  0  0  0  0  # atno 8008 bound_to 7997
  156.2451  140.2917  156.0504 H   0  0  0  0  0  0  0  0  0  0  0  0  # atno 8009 bound_to 7997
  155.1827  140.0389  157.2875 H   0  0  0  0  0  0  0  0  0  0  0  0  # atno 8010 bound_to 7997
  140.7288  143.4333  151.0768 H   0  0  0  0  0  0  0  0  0  0  0  0  # atno 10167 bound_to 10162
  157.1046  130.6482  149.5881 H   0  0  0  0  0  0  0  0  0  0  0  0  # atno 10718 bound_to 10713
  154.6675  135.5298  153.8095 H   0  0  0  0  0  0  0  0  0  0  0  0  # atno 10763 bound_to 10752
  153.0480  135.6521  154.0777 H   0  0  0  0  0  0  0  0  0  0  0  0  # atno 10764 bound_to 10752
  154.0679  135.2956  155.3293 H   0  0  0  0  0  0  0  0  0  0  0  0  # atno 10765 bound_to 10752
  140.0179  134.9410  157.0415 H   0  0  0  0  0  0  0  0  0  0  0  0  # atno 11005 bound_to 11000
  145.7246  139.1719  143.2465 LP  0  0  0  0  0  0  0  0  0  0  0  0  # atno 17320 bound_to 7965
  146.1251  140.7258  142.9439 LP  0  0  0  0  0  0  0  0  0  0  0  0  # atno 17321 bound_to 7965
  139.7992  143.8108  152.3161 LP  0  0  0  0  0  0  0  0  0  0  0  0  # atno 17342 bound_to 10162
  139.8118  144.7332  150.9687 LP  0  0  0  0  0  0  0  0  0  0  0  0  # atno 17343 bound_to 10162
  155.9865  130.4900  150.7082 LP  0  0  0  0  0  0  0  0  0  0  0  0  # atno 17370 bound_to 10713
  157.4612  131.0883  151.0744 LP  0  0  0  0  0  0  0  0  0  0  0  0  # atno 17371 bound_to 10713
  140.4438  134.1653  155.7176 LP  0  0  0  0  0  0  0  0  0  0  0  0  # atno 17394 bound_to 11000
  141.1755  133.8523  157.1435 LP  0  0  0  0  0  0  0  0  0  0  0  0  # atno 17395 bound_to 11000

$$$$
