AV-unprocessed.smi:76|AV-procd|sdf|767|dock1
  -GOLD-   2262017113D 1   1.00000     0.00000
 Structure written by MMmdl.
 55 58  0  0  0  0  0  0  0  0  1 V2000
  150.7731  139.9799  157.4515 C   0  0  0  0  0  0  0  0  0  0  0  0
  150.6332  141.3844  156.8309 C   0  0  2  0  0  0  0  0  0  0  0  0
  151.6196  142.4007  157.4444 C   0  0  0  0  0  0  0  0  0  0  0  0
  151.2140  142.8396  158.8686 C   0  0  1  0  0  0  0  0  0  0  0  0
  152.1928  143.8735  159.4609 C   0  0  0  0  0  0  0  0  0  0  0  0
  153.4291  143.3783  159.5233 F   0  0  0  0  0  0  0  0  0  0  0  0
  152.2066  144.9719  158.7058 F   0  0  0  0  0  0  0  0  0  0  0  0
  151.8036  144.2172  160.6886 F   0  0  0  0  0  0  0  0  0  0  0  0
  149.7636  143.3612  158.8433 C   0  0  0  0  0  0  0  0  0  0  0  0
  148.8034  142.3249  158.2393 C   0  0  0  0  0  0  0  0  0  0  0  0
  149.2610  141.8986  156.9148 N   0  0  0  0  0  0  0  0  0  0  0  0
  148.3523  141.3025  156.0994 C   0  0  0  0  0  0  0  0  0  0  0  0
  148.6067  141.2039  154.7669 N   0  0  0  0  0  0  0  0  0  0  0  0
  147.7205  140.6285  153.9499 C   0  0  0  0  0  0  0  0  0  0  0  0
  146.5367  140.0926  154.2497 N   0  0  0  0  0  0  0  0  0  0  0  0
  146.2736  140.1859  155.5842 C   0  0  0  0  0  0  0  0  0  0  0  0
  147.1203  140.7661  156.5709 C   0  0  0  0  0  0  0  0  0  0  0  0
  146.5287  140.6525  157.8234 N   0  0  0  0  0  0  0  0  0  0  0  0
  145.3972  140.0465  157.5892 C   0  0  0  0  0  0  0  0  0  0  0  0
  145.1531  139.7450  156.2680 N   0  0  0  0  0  0  0  0  0  0  0  0
  143.9836  139.0657  155.7280 C   0  0  0  0  0  0  0  0  0  0  0  0
  144.2361  137.6088  155.2244 C   0  0  0  0  0  0  0  0  0  0  0  0
  145.5473  137.5263  154.3985 C   0  0  0  0  0  0  0  0  0  0  0  0
  145.4254  138.1452  153.1337 O   0  0  0  0  0  0  0  0  0  0  0  0
  144.3253  136.6387  156.4290 C   0  0  0  0  0  0  0  0  0  0  0  0
  142.9650  136.4102  157.1145 C   0  0  0  0  0  0  0  0  0  0  0  0
  142.0127  135.9401  156.1686 O   0  0  0  0  0  0  0  0  0  0  0  0
  141.7788  136.8613  155.1108 C   0  0  0  0  0  0  0  0  0  0  0  0
  143.0822  137.0946  154.3266 C   0  0  0  0  0  0  0  0  0  0  0  0
  151.7979  139.6182  157.3662 H   0  0  0  0  0  0  0  0  0  0  0  0
  150.1329  139.2587  156.9426 H   0  0  0  0  0  0  0  0  0  0  0  0
  150.5070  139.9664  158.5081 H   0  0  0  0  0  0  0  0  0  0  0  0
  150.9092  141.2893  155.7819 H   0  0  0  0  0  0  0  0  0  0  0  0
  152.6268  141.9832  157.4478 H   0  0  0  0  0  0  0  0  0  0  0  0
  151.6611  143.2791  156.7992 H   0  0  0  0  0  0  0  0  0  0  0  0
  151.2425  141.9625  159.5161 H   0  0  0  0  0  0  0  0  0  0  0  0
  149.4352  143.6165  159.8509 H   0  0  0  0  0  0  0  0  0  0  0  0
  149.7127  144.2814  158.2601 H   0  0  0  0  0  0  0  0  0  0  0  0
  148.7226  141.4587  158.8970 H   0  0  0  0  0  0  0  0  0  0  0  0
  147.8074  142.7646  158.1668 H   0  0  0  0  0  0  0  0  0  0  0  0
  148.0003  140.5924  152.9073 H   0  0  0  0  0  0  0  0  0  0  0  0
  144.7041  139.8024  158.3809 H   0  0  0  0  0  0  0  0  0  0  0  0
  143.2124  139.0637  156.4991 H   0  0  0  0  0  0  0  0  0  0  0  0
  143.5851  139.6940  154.9330 H   0  0  0  0  0  0  0  0  0  0  0  0
  146.3640  138.0177  154.9283 H   0  0  0  0  0  0  0  0  0  0  0  0
  145.8579  136.4913  154.2538 H   0  0  0  0  0  0  0  0  0  0  0  0
  144.8111  138.8603  153.2090 H   0  0  0  0  0  0  0  0  0  0  0  0
  144.7016  135.6718  156.0914 H   0  0  0  0  0  0  0  0  0  0  0  0
  145.0468  137.0019  157.1617 H   0  0  0  0  0  0  0  0  0  0  0  0
  143.0697  135.6629  157.9011 H   0  0  0  0  0  0  0  0  0  0  0  0
  142.6001  137.3168  157.5977 H   0  0  0  0  0  0  0  0  0  0  0  0
  141.0195  136.4428  154.4501 H   0  0  0  0  0  0  0  0  0  0  0  0
  141.3708  137.7933  155.5024 H   0  0  0  0  0  0  0  0  0  0  0  0
  142.9036  137.7655  153.4873 H   0  0  0  0  0  0  0  0  0  0  0  0
  143.3712  136.1432  153.8776 H   0  0  0  0  0  0  0  0  0  0  0  0
  1  2  1  0  0  0  0
  1 30  1  0  0  0  0
  1 31  1  0  0  0  0
  1 32  1  0  0  0  0
  2 11  1  0  0  0  0
  2  3  1  0  0  0  0
  2 33  1  0  0  0  0
  3  4  1  0  0  0  0
  3 34  1  0  0  0  0
  3 35  1  0  0  0  0
  4  5  1  0  0  0  0
  4  9  1  0  0  0  0
  4 36  1  0  0  0  0
  5  6  1  0  0  0  0
  5  7  1  0  0  0  0
  5  8  1  0  0  0  0
  9 10  1  0  0  0  0
  9 37  1  0  0  0  0
  9 38  1  0  0  0  0
 10 11  1  0  0  0  0
 10 39  1  0  0  0  0
 10 40  1  0  0  0  0
 11 12  1  0  0  0  0
 12 17  1  0  0  0  0
 12 13  2  0  0  0  0
 13 14  1  0  0  0  0
 14 15  2  0  0  0  0
 14 41  1  0  0  0  0
 15 16  1  0  0  0  0
 16 20  1  0  0  0  0
 16 17  2  0  0  0  0
 17 18  1  0  0  0  0
 18 19  2  0  0  0  0
 19 20  1  0  0  0  0
 19 42  1  0  0  0  0
 20 21  1  0  0  0  0
 21 22  1  0  0  0  0
 21 43  1  0  0  0  0
 21 44  1  0  0  0  0
 22 29  1  0  0  0  0
 22 23  1  0  0  0  0
 22 25  1  0  0  0  0
 23 24  1  0  0  0  0
 23 45  1  0  0  0  0
 23 46  1  0  0  0  0
 24 47  1  0  0  0  0
 25 26  1  0  0  0  0
 25 48  1  0  0  0  0
 25 49  1  0  0  0  0
 26 27  1  0  0  0  0
 26 50  1  0  0  0  0
 26 51  1  0  0  0  0
 27 28  1  0  0  0  0
 28 29  1  0  0  0  0
 28 52  1  0  0  0  0
 28 53  1  0  0  0  0
 29 54  1  0  0  0  0
 29 55  1  0  0  0  0
M  END
> <s_m_source_file>
AV-unprocessed.smi

> <i_m_source_file_index>
76

> <i_lp_mmshare_version>
43012

> <i_f3d_flags>
0

> <s_epik_input>
W0NIM11bQ0BASF0xW0NIMl1bQ0BASF0oQyhGKShGKUYpW0NIMl1bQ0gyXU4xYyhuW2NIXW4yKWMoYzIzKW5bY0hdbjNbQ0gyXUM0KFtDSDJdW09IXSlbQ0gyXVtDSDJdT1tDSDJdW0NIMl00

> <s_epik_cmdline>
J2VwaWtfcHl0aG9uJywgJy1waCcsICc3LjAnLCAnLXRuJywgJzgnLCAnLW1hJywgJzIwMCcsICctbWV0YWxfYmluZGluZycsICctaW1hZScsICc8aW5maWxlLm1hZT4nLCAnLW9tYWUnLCAnPG91dGZpbGUubWFlPic=

> <r_lp_tautomer_probability>
1

> <r_epik_Ionization_Penalty>
0.00244097

> <r_epik_Ionization_Penalty_Charging>
0

> <r_epik_Ionization_Penalty_Neutral>
0.00244097

> <r_epik_State_Penalty>
0.00151846

> <r_epik_Charging_Adjusted_Penalty>
0.00151846

> <i_epik_Tot_Q>
0

> <i_epik_Tot_abs_Q>
0

> <r_epik_Metal_State_Penalty>
-0

> <b_epik_Metal_Only>
0

> <s_lp_Force_Field>
OPLS_2005

> <r_lp_Energy>
36.8654

> <b_lp_Chiralities_Consistent>
1

> <s_lp_Variant>
AV-unprocessed.smi:76-1

> <Gold.Version>
5.8.1

> <Gold.Id.Protein>
6NUR|6NUR_protein|mol2

> <Gold.PLP.Fitness>
41.0446

> <Gold.PLP.PLP>
-35.6383

> <Gold.PLP.part.hbond>
-2.0000

> <Gold.PLP.part.metal>
0.0000

> <Gold.PLP.part.buried>
-6.8681

> <Gold.PLP.part.nonpolar>
-27.5895

> <Gold.PLP.part.repulsive>
0.9548

> <Gold.PLP.ligand.clash>
0.0000

> <Gold.PLP.ligand.torsion>
0.6732

> <Gold.PLP.Chemscore.Hbond>
1.0486

> <Gold.PLP.Chemscore.CHOScore>
1.0000

> <Gold.PLP.Chemscore.Metal>
0.0000

> <Gold.Chemscore.Hbonds>
donor molecule, donor type, donor heavy atom, donor atom, acceptor molecule, acceptor atom, score
      L1  H    24    47       P1 10175  0.84
      L1  C    14    41       P1  7957  1.00

> <Gold.PLP.Chemscore.Internal.Correction>
0.6068

> <Gold.Rescore>
     Score         DG    S(hbond)    S(metal)    S(lipo)     H(rot)  DE(clash)    DE(int)     intcor
      6.57      -9.03       0.98        0.00      56.42       2.47       0.39       2.07       ----

> <Gold.Chemscore.Fitness>
6.5729

> <Gold.Chemscore.DG>
-9.0320

> <Gold.Chemscore.ZeroCoef>
-5.4800

> <Gold.Chemscore.Hbond>
0.9775

> <Gold.Chemscore.Metal>
0.0000

> <Gold.Chemscore.Lipo>
56.4217

> <Gold.Chemscore.Internal_Hbond>
0.0000

> <Gold.Chemscore.DEClash>
0.3922

> <Gold.Chemscore.DEInternal>
2.0669

> <Gold.Chemscore.Rot>
2.4665

> <Gold.Chemscore.Internal.Correction>
   9.000000E+99

> <Gold.Chemscore.Hbonds>
donor molecule, donor type, donor heavy atom, donor atom, acceptor molecule, acceptor atom, score
      L1  H    24    47       P1 10175  0.80

> <Gold.Chemscore.Hbond.Weighted>
-3.2648

> <Gold.Chemscore.Metal.Weighted>
-0.0000

> <Gold.Chemscore.Lipo.Weighted>
-6.6013

> <Gold.Chemscore.Internal_Hbond.Weighted>
0.0000

> <Gold.Chemscore.DEClash.Weighted>
0.3922

> <Gold.Chemscore.DEInternal.Weighted>
2.0669

> <Gold.Chemscore.Rot.Weighted>
6.3142

> <Gold.Chemscore.Internal.Correction.Weighted>
   9.000000E+99

> <Gold.Protein.RotatedTorsions>
[ 6907 6896 6895 6894 ] final   56.40 input  -60.11 | X-H torsion
[ 7974 7965 7964 7962 ] final -103.00 input  175.53 | X-H torsion
[ 8008 7997 7996 7995 ] final  -76.03 input   59.86 | X-H torsion
[ 10167 10162 10161 10158 ] final -117.11 input  -65.29 | X-H torsion
[ 10718 10713 10712 10709 ] final -106.51 input   66.30 | X-H torsion
[ 10763 10752 10751 10750 ] final   61.33 input  -60.55 | X-H torsion
[ 11005 11000 10999 10996 ] final  108.44 input  -57.11 | X-H torsion

> <Gold.Protein.ActiveResidues>
 VAL166  LYS551  ARG553  GLY616  TRP617  ASP618  TYR619  PRO620  LYS621  CYS622 
 ASP623  PHE694  ASN695  SER759  ASP760  ASP761  ALA762  ILE779  LEU786  VAL792 
 PHE793  MET794  SER795  GLU796  ALA797  LYS798  CYS799  TRP800  GLU811  SER814 

> <Gold.Protein.RotatedAtoms>
  152.3633  134.6841  160.0199 H   0  0  0  0  0  0  0  0  0  0  0  0  # atno 6907 bound_to 6896
  151.7157  133.3308  159.3310 H   0  0  0  0  0  0  0  0  0  0  0  0  # atno 6908 bound_to 6896
  150.7620  134.6427  159.6290 H   0  0  0  0  0  0  0  0  0  0  0  0  # atno 6909 bound_to 6896
  145.2615  140.9270  143.3038 H   0  0  0  0  0  0  0  0  0  0  0  0  # atno 7974 bound_to 7965
  154.5469  140.0734  156.8603 H   0  0  0  0  0  0  0  0  0  0  0  0  # atno 8008 bound_to 7997
  155.3070  140.3388  155.4227 H   0  0  0  0  0  0  0  0  0  0  0  0  # atno 8009 bound_to 7997
  156.1926  140.1692  156.8048 H   0  0  0  0  0  0  0  0  0  0  0  0  # atno 8010 bound_to 7997
  140.0719  143.4869  152.1975 H   0  0  0  0  0  0  0  0  0  0  0  0  # atno 10167 bound_to 10162
  156.0393  130.5616  150.7691 H   0  0  0  0  0  0  0  0  0  0  0  0  # atno 10718 bound_to 10713
  152.9947  135.5504  154.6016 H   0  0  0  0  0  0  0  0  0  0  0  0  # atno 10763 bound_to 10752
  154.5356  135.2816  155.1143 H   0  0  0  0  0  0  0  0  0  0  0  0  # atno 10764 bound_to 10752
  154.2441  135.6411  153.5270 H   0  0  0  0  0  0  0  0  0  0  0  0  # atno 10765 bound_to 10752
  139.8844  134.9430  156.5973 H   0  0  0  0  0  0  0  0  0  0  0  0  # atno 11005 bound_to 11000
  144.9414  139.4185  143.6447 LP  0  0  0  0  0  0  0  0  0  0  0  0  # atno 17320 bound_to 7965
  146.3274  139.8376  142.8896 LP  0  0  0  0  0  0  0  0  0  0  0  0  # atno 17321 bound_to 7965
  139.5831  144.7519  151.3589 LP  0  0  0  0  0  0  0  0  0  0  0  0  # atno 17342 bound_to 10162
  140.7121  143.7362  150.7587 LP  0  0  0  0  0  0  0  0  0  0  0  0  # atno 17343 bound_to 10162
  157.5190  131.0930  151.0103 LP  0  0  0  0  0  0  0  0  0  0  0  0  # atno 17370 bound_to 10713
  157.0438  130.5760  149.5360 LP  0  0  0  0  0  0  0  0  0  0  0  0  # atno 17371 bound_to 10713
  140.7910  133.8582  155.8646 LP  0  0  0  0  0  0  0  0  0  0  0  0  # atno 17394 bound_to 11000
  140.9677  134.1573  157.4602 LP  0  0  0  0  0  0  0  0  0  0  0  0  # atno 17395 bound_to 11000

$$$$
