AV-unprocessed.smi:716|AV-procd|sdf|3488|dock8
  -GOLD-   22720 0483D 1   1.00000     0.00000
 Structure written by MMmdl.
 48 50  0  0  0  0  0  0  0  0  1 V2000
  151.1504  140.8087  157.5409 C   0  0  0  0  0  0  0  0  0  0  0  0
  150.5854  141.2959  156.2051 C   0  0  0  0  0  0  0  0  0  0  0  0
  150.5332  140.2023  155.3053 O   0  0  0  0  0  0  0  0  0  0  0  0
  149.5823  139.2197  155.6843 C   0  0  2  0  0  0  0  0  0  0  0  0
  149.6151  137.9416  154.8405 C   0  0  0  0  0  0  0  0  0  0  0  0
  148.0909  137.9481  154.9652 C   0  0  2  0  0  0  0  0  0  0  0  0
  147.4315  137.4890  153.7483 N   0  0  0  0  0  0  0  0  0  0  0  0
  146.1059  137.5027  153.5496 C   0  0  0  0  0  0  0  0  0  0  0  0
  145.3028  137.9239  154.3832 O   0  0  0  0  0  0  0  0  0  0  0  0
  145.6233  136.9821  152.1884 C   0  0  0  0  0  0  0  0  0  0  0  0
  144.5081  136.0305  152.2944 N   0  0  0  0  0  0  0  0  0  0  0  0
  143.4349  136.4924  153.0386 N   0  0  0  0  0  0  0  0  0  0  0  0
  142.3859  135.7591  153.2209 C   0  0  0  0  0  0  0  0  0  0  0  0
  141.2695  136.3339  154.0410 C   0  0  0  0  0  0  0  0  0  0  0  0
  142.3299  134.4330  152.6360 C   0  0  0  0  0  0  0  0  0  0  0  0
  143.3750  133.9873  151.9065 C   0  0  0  0  0  0  0  0  0  0  0  0
  144.5651  134.8066  151.6892 C   0  0  0  0  0  0  0  0  0  0  0  0
  145.5299  134.4327  151.0226 O   0  0  0  0  0  0  0  0  0  0  0  0
  148.1599  139.4881  155.1317 C   0  0  0  0  0  0  0  0  0  0  0  0
  148.0463  140.3882  153.8940 C   0  0  0  0  0  0  0  0  0  0  0  0
  147.8367  141.8150  154.4067 C   0  0  0  0  0  0  0  0  0  0  0  0
  147.2375  141.6648  155.8093 C   0  0  0  0  0  0  0  0  0  0  0  0
  147.1695  140.1577  156.0778 C   0  0  0  0  0  0  0  0  0  0  0  0
  151.2086  141.6255  158.2604 H   0  0  0  0  0  0  0  0  0  0  0  0
  152.1534  140.4003  157.4159 H   0  0  0  0  0  0  0  0  0  0  0  0
  150.5213  140.0283  157.9701 H   0  0  0  0  0  0  0  0  0  0  0  0
  149.5890  141.7137  156.3549 H   0  0  0  0  0  0  0  0  0  0  0  0
  151.2181  142.0861  155.7986 H   0  0  0  0  0  0  0  0  0  0  0  0
  149.5786  139.0162  156.7577 H   0  0  0  0  0  0  0  0  0  0  0  0
  149.9766  138.1076  153.8239 H   0  0  0  0  0  0  0  0  0  0  0  0
  150.1096  137.0937  155.3150 H   0  0  0  0  0  0  0  0  0  0  0  0
  147.7586  137.4419  155.8751 H   0  0  0  0  0  0  0  0  0  0  0  0
  148.0222  137.1335  153.0107 H   0  0  0  0  0  0  0  0  0  0  0  0
  145.3318  137.8436  151.5848 H   0  0  0  0  0  0  0  0  0  0  0  0
  146.4543  136.5180  151.6535 H   0  0  0  0  0  0  0  0  0  0  0  0
  140.4125  135.6603  154.0678 H   0  0  0  0  0  0  0  0  0  0  0  0
  140.9328  137.2850  153.6280 H   0  0  0  0  0  0  0  0  0  0  0  0
  141.5922  136.5054  155.0682 H   0  0  0  0  0  0  0  0  0  0  0  0
  141.4572  133.8150  152.7872 H   0  0  0  0  0  0  0  0  0  0  0  0
  143.3325  132.9997  151.4716 H   0  0  0  0  0  0  0  0  0  0  0  0
  148.9148  140.3233  153.2378 H   0  0  0  0  0  0  0  0  0  0  0  0
  147.1797  140.1064  153.2953 H   0  0  0  0  0  0  0  0  0  0  0  0
  148.7932  142.3355  154.4683 H   0  0  0  0  0  0  0  0  0  0  0  0
  147.1918  142.3909  153.7424 H   0  0  0  0  0  0  0  0  0  0  0  0
  147.8837  142.1512  156.5411 H   0  0  0  0  0  0  0  0  0  0  0  0
  146.2522  142.1255  155.8842 H   0  0  0  0  0  0  0  0  0  0  0  0
  146.1605  139.7986  155.8707 H   0  0  0  0  0  0  0  0  0  0  0  0
  147.3732  139.9314  157.1247 H   0  0  0  0  0  0  0  0  0  0  0  0
  1  2  1  0  0  0  0
  1 24  1  0  0  0  0
  1 25  1  0  0  0  0
  1 26  1  0  0  0  0
  2  3  1  0  0  0  0
  2 27  1  0  0  0  0
  2 28  1  0  0  0  0
  3  4  1  0  0  0  0
  4 19  1  0  0  0  0
  4  5  1  0  0  0  0
  4 29  1  0  0  0  0
  5  6  1  0  0  0  0
  5 30  1  0  0  0  0
  5 31  1  0  0  0  0
  6  7  1  0  0  0  0
  6 19  1  0  0  0  0
  6 32  1  0  0  0  0
  7  8  1  0  0  0  0
  7 33  1  0  0  0  0
  8  9  2  0  0  0  0
  8 10  1  0  0  0  0
 10 11  1  0  0  0  0
 10 34  1  0  0  0  0
 10 35  1  0  0  0  0
 11 17  1  0  0  0  0
 11 12  1  0  0  0  0
 12 13  2  0  0  0  0
 13 14  1  0  0  0  0
 13 15  1  0  0  0  0
 14 36  1  0  0  0  0
 14 37  1  0  0  0  0
 14 38  1  0  0  0  0
 15 16  2  0  0  0  0
 15 39  1  0  0  0  0
 16 17  1  0  0  0  0
 16 40  1  0  0  0  0
 17 18  2  0  0  0  0
 19 23  1  0  0  0  0
 19 20  1  0  0  0  0
 20 21  1  0  0  0  0
 20 41  1  0  0  0  0
 20 42  1  0  0  0  0
 21 22  1  0  0  0  0
 21 43  1  0  0  0  0
 21 44  1  0  0  0  0
 22 23  1  0  0  0  0
 22 45  1  0  0  0  0
 22 46  1  0  0  0  0
 23 47  1  0  0  0  0
 23 48  1  0  0  0  0
M  END
> <s_m_source_file>
AV-unprocessed.smi

> <i_m_source_file_index>
716

> <i_lp_mmshare_version>
43012

> <i_f3d_flags>
0

> <s_epik_input>
W0NIMl0xW0NIMl1bQ0gyXVtDSDJdQzEyW0NASF0oT1tDSDJdW0NIM10pW0NIMl1bQ0BIXTJbTkhdQyg9TylbQ0gyXW4zbmMoW0NIM10pW2NIXVtjSF1jMz1P

> <s_epik_cmdline>
J2VwaWtfcHl0aG9uJywgJy1waCcsICc3LjAnLCAnLXRuJywgJzgnLCAnLW1hJywgJzIwMCcsICctbWV0YWxfYmluZGluZycsICctaW1hZScsICc8aW5maWxlLm1hZT4nLCAnLW9tYWUnLCAnPG91dGZpbGUubWFlPic=

> <r_lp_tautomer_probability>
1

> <r_epik_Ionization_Penalty>
4.75561e-08

> <r_epik_Ionization_Penalty_Charging>
2.86617e-08

> <r_epik_Ionization_Penalty_Neutral>
1.88944e-08

> <r_epik_State_Penalty>
-0

> <r_epik_Charging_Adjusted_Penalty>
2.86617e-08

> <i_epik_Tot_Q>
0

> <i_epik_Tot_abs_Q>
0

> <r_epik_Metal_State_Penalty>
-0

> <b_epik_Metal_Only>
0

> <s_lp_Force_Field>
OPLS_2005

> <r_lp_Energy>
50.3273

> <b_lp_Chiralities_Consistent>
1

> <s_lp_Variant>
AV-unprocessed.smi:716-3

> <Gold.Version>
5.8.1

> <Gold.Id.Protein>
6NUR|6NUR_protein|mol2

> <Gold.PLP.Fitness>
38.2778

> <Gold.PLP.PLP>
-32.9494

> <Gold.PLP.part.hbond>
-2.0000

> <Gold.PLP.part.metal>
0.0000

> <Gold.PLP.part.buried>
-4.8588

> <Gold.PLP.part.nonpolar>
-25.8029

> <Gold.PLP.part.repulsive>
0.5182

> <Gold.PLP.ligand.clash>
0.0000

> <Gold.PLP.ligand.torsion>
0.4956

> <Gold.PLP.Chemscore.Hbond>
1.9920

> <Gold.PLP.Chemscore.CHOScore>
0.0000

> <Gold.PLP.Chemscore.Metal>
0.0000

> <Gold.Chemscore.Hbonds>
donor molecule, donor type, donor heavy atom, donor atom, acceptor molecule, acceptor atom, score
      L1  H     7    33       P1  7948  1.00
      P1  H  7989  7998       L1     3  0.54

> <Gold.PLP.Chemscore.Internal.Correction>
0.3436

> <Gold.Rescore>
     Score         DG    S(hbond)    S(metal)    S(lipo)     H(rot)  DE(clash)    DE(int)     intcor
     12.82     -15.18       1.50        0.00      77.93       1.73       0.22       2.13       ----

> <Gold.Chemscore.Fitness>
12.8223

> <Gold.Chemscore.DG>
-15.1764

> <Gold.Chemscore.ZeroCoef>
-5.4800

> <Gold.Chemscore.Hbond>
1.5028

> <Gold.Chemscore.Metal>
0.0000

> <Gold.Chemscore.Lipo>
77.9341

> <Gold.Chemscore.Internal_Hbond>
0.0000

> <Gold.Chemscore.DEClash>
0.2242

> <Gold.Chemscore.DEInternal>
2.1299

> <Gold.Chemscore.Rot>
1.7348

> <Gold.Chemscore.Internal.Correction>
   9.000000E+99

> <Gold.Chemscore.Hbonds>
donor molecule, donor type, donor heavy atom, donor atom, acceptor molecule, acceptor atom, score
      L1  H     7    33       P1  7948  1.00
      P1  H  7989  7998       L1     3  0.27

> <Gold.Chemscore.Hbond.Weighted>
-5.0192

> <Gold.Chemscore.Metal.Weighted>
-0.0000

> <Gold.Chemscore.Lipo.Weighted>
-9.1183

> <Gold.Chemscore.Internal_Hbond.Weighted>
0.0000

> <Gold.Chemscore.DEClash.Weighted>
0.2242

> <Gold.Chemscore.DEInternal.Weighted>
2.1299

> <Gold.Chemscore.Rot.Weighted>
4.4411

> <Gold.Chemscore.Internal.Correction.Weighted>
   9.000000E+99

> <Gold.Protein.RotatedTorsions>
[ 6907 6896 6895 6894 ] final  -86.92 input  -60.11 | X-H torsion
[ 7974 7965 7964 7962 ] final   18.22 input  175.53 | X-H torsion
[ 8008 7997 7996 7995 ] final -179.26 input   59.86 | X-H torsion
[ 10167 10162 10161 10158 ] final   -5.45 input  -65.29 | X-H torsion
[ 10718 10713 10712 10709 ] final  -55.14 input   66.30 | X-H torsion
[ 10763 10752 10751 10750 ] final   60.96 input  -60.55 | X-H torsion
[ 11005 11000 10999 10996 ] final   27.68 input  -57.11 | X-H torsion

> <Gold.Protein.ActiveResidues>
 VAL166  LYS551  ARG553  GLY616  TRP617  ASP618  TYR619  PRO620  LYS621  CYS622 
 ASP623  PHE694  ASN695  SER759  ASP760  ASP761  ALA762  ILE779  LEU786  VAL792 
 PHE793  MET794  SER795  GLU796  ALA797  LYS798  CYS799  TRP800  GLU811  SER814 

> <Gold.Protein.RotatedAtoms>
  150.6866  134.2976  159.4692 H   0  0  0  0  0  0  0  0  0  0  0  0  # atno 6907 bound_to 6896
  152.0875  134.9427  160.0581 H   0  0  0  0  0  0  0  0  0  0  0  0  # atno 6908 bound_to 6896
  152.0756  133.4093  159.4515 H   0  0  0  0  0  0  0  0  0  0  0  0  # atno 6909 bound_to 6896
  146.2192  139.8489  142.8626 H   0  0  0  0  0  0  0  0  0  0  0  0  # atno 7974 bound_to 7965
  156.0285  140.1276  157.0283 H   0  0  0  0  0  0  0  0  0  0  0  0  # atno 8008 bound_to 7997
  154.4340  140.1054  156.6135 H   0  0  0  0  0  0  0  0  0  0  0  0  # atno 8009 bound_to 7997
  155.5842  140.3468  155.4551 H   0  0  0  0  0  0  0  0  0  0  0  0  # atno 8010 bound_to 7997
  140.6963  143.6306  150.8526 H   0  0  0  0  0  0  0  0  0  0  0  0  # atno 10167 bound_to 10162
  156.1393  130.4155  150.0132 H   0  0  0  0  0  0  0  0  0  0  0  0  # atno 10718 bound_to 10713
  152.9936  135.5518  154.5957 H   0  0  0  0  0  0  0  0  0  0  0  0  # atno 10763 bound_to 10752
  154.5309  135.2813  155.1183 H   0  0  0  0  0  0  0  0  0  0  0  0  # atno 10764 bound_to 10752
  154.2498  135.6401  153.5289 H   0  0  0  0  0  0  0  0  0  0  0  0  # atno 10765 bound_to 10752
  140.3236  134.2515  155.7713 H   0  0  0  0  0  0  0  0  0  0  0  0  # atno 11005 bound_to 11000
  145.2822  141.0142  143.3711 LP  0  0  0  0  0  0  0  0  0  0  0  0  # atno 17320 bound_to 7965
  144.9141  139.4492  143.6573 LP  0  0  0  0  0  0  0  0  0  0  0  0  # atno 17321 bound_to 7965
  140.0025  143.5729  152.2870 LP  0  0  0  0  0  0  0  0  0  0  0  0  # atno 17342 bound_to 10162
  139.6424  144.7655  151.2313 LP  0  0  0  0  0  0  0  0  0  0  0  0  # atno 17343 bound_to 10162
  156.8022  130.9294  151.3646 LP  0  0  0  0  0  0  0  0  0  0  0  0  # atno 17370 bound_to 10713
  157.6561  130.8925  149.9731 LP  0  0  0  0  0  0  0  0  0  0  0  0  # atno 17371 bound_to 10713
  141.2080  133.7788  157.0082 LP  0  0  0  0  0  0  0  0  0  0  0  0  # atno 17394 bound_to 11000
  140.0920  134.9586  157.1791 LP  0  0  0  0  0  0  0  0  0  0  0  0  # atno 17395 bound_to 11000

$$$$
