AV-unprocessed.smi:279|AV-procd|sdf|2095|dock4
  -GOLD-   2262021373D 1   1.00000     0.00000
 Structure written by MMmdl.
 50 54  0  0  0  0  0  0  0  0  1 V2000
  146.3391  136.9394  160.7868 O   0  0  0  0  0  0  0  0  0  0  0  0
  147.3121  136.2030  161.6084 S   0  0  0  0  0  0  0  0  0  0  0  0
  148.3933  136.9111  162.3107 O   0  0  0  0  0  0  0  0  0  0  0  0
  146.4132  135.1489  162.8042 C   0  0  0  0  0  0  0  0  0  0  0  0
  146.2307  133.8042  162.0952 C   0  0  0  0  0  0  0  0  0  0  0  0
  147.5027  133.5037  161.2746 C   0  0  1  0  0  0  0  0  0  0  0  0
  147.2670  132.5433  160.0964 C   0  0  0  0  0  0  0  0  0  0  0  0
  147.5040  133.3122  158.8814 N   0  0  0  0  0  0  0  0  0  0  0  0
  147.0213  132.8735  157.6879 C   0  0  0  0  0  0  0  0  0  0  0  0
  146.0989  131.8740  157.6854 N   0  0  0  0  0  0  0  0  0  0  0  0
  145.6002  131.4091  156.5369 C   0  0  0  0  0  0  0  0  0  0  0  0
  145.8729  131.8000  155.2920 N   0  0  0  0  0  0  0  0  0  0  0  0
  146.7845  132.8137  155.2812 C   0  0  0  0  0  0  0  0  0  0  0  0
  147.4076  133.4029  156.4199 C   0  0  0  0  0  0  0  0  0  0  0  0
  148.2836  134.4006  156.0041 N   0  0  0  0  0  0  0  0  0  0  0  0
  148.1941  134.3907  154.7025 C   0  0  0  0  0  0  0  0  0  0  0  0
  147.2949  133.4873  154.1854 N   0  0  0  0  0  0  0  0  0  0  0  0
  147.0272  133.2386  152.7992 C   0  0  0  0  0  0  0  0  0  0  0  0
  146.1162  134.1613  151.9859 C   0  0  0  0  0  0  0  0  0  0  0  0
  145.6568  132.9494  151.1433 C   0  0  0  0  0  0  0  0  0  0  0  0
  144.1552  132.9019  150.8148 C   0  0  0  0  0  0  0  0  0  0  0  0
  143.8213  133.8284  149.8010 O   0  0  0  0  0  0  0  0  0  0  0  0
  146.4655  132.6985  149.8542 C   0  0  0  0  0  0  0  0  0  0  0  0
  146.5003  131.3245  149.5262 O   0  0  0  0  0  0  0  0  0  0  0  0
  146.0912  132.1087  152.3640 C   0  0  0  0  0  0  0  0  0  0  0  0
  147.5073  134.7321  159.1991 C   0  0  0  0  0  0  0  0  0  0  0  0
  148.0139  134.8032  160.6400 C   0  0  1  0  0  0  0  0  0  0  0  0
  148.2656  133.1066  161.9457 H   0  0  0  0  0  0  0  0  0  0  0  0
  149.1033  134.8463  160.6662 H   0  0  0  0  0  0  0  0  0  0  0  0
  147.0358  135.0358  163.6920 H   0  0  0  0  0  0  0  0  0  0  0  0
  145.4720  135.6181  163.0905 H   0  0  0  0  0  0  0  0  0  0  0  0
  146.0045  133.0032  162.7995 H   0  0  0  0  0  0  0  0  0  0  0  0
  145.3764  133.8862  161.4216 H   0  0  0  0  0  0  0  0  0  0  0  0
  147.9729  131.7135  160.1422 H   0  0  0  0  0  0  0  0  0  0  0  0
  146.2580  132.1289  160.1096 H   0  0  0  0  0  0  0  0  0  0  0  0
  144.8789  130.6107  156.6295 H   0  0  0  0  0  0  0  0  0  0  0  0
  148.7815  135.0519  154.0822 H   0  0  0  0  0  0  0  0  0  0  0  0
  148.0023  133.1388  152.3194 H   0  0  0  0  0  0  0  0  0  0  0  0
  145.3121  134.5901  152.5871 H   0  0  0  0  0  0  0  0  0  0  0  0
  146.6429  134.9389  151.4318 H   0  0  0  0  0  0  0  0  0  0  0  0
  143.8668  131.9102  150.4652 H   0  0  0  0  0  0  0  0  0  0  0  0
  143.5447  133.1040  151.6951 H   0  0  0  0  0  0  0  0  0  0  0  0
  142.8796  133.8707  149.7316 H   0  0  0  0  0  0  0  0  0  0  0  0
  146.0328  133.2304  149.0069 H   0  0  0  0  0  0  0  0  0  0  0  0
  147.4885  133.0635  149.9469 H   0  0  0  0  0  0  0  0  0  0  0  0
  147.3676  130.9954  149.7071 H   0  0  0  0  0  0  0  0  0  0  0  0
  146.5953  131.1728  152.1207 H   0  0  0  0  0  0  0  0  0  0  0  0
  145.2814  131.9411  153.0770 H   0  0  0  0  0  0  0  0  0  0  0  0
  148.1457  135.3012  158.5226 H   0  0  0  0  0  0  0  0  0  0  0  0
  146.4877  135.1089  159.1135 H   0  0  0  0  0  0  0  0  0  0  0  0
  1  2  2  0  0  0  0
  2 27  1  0  0  0  0
  2  3  2  0  0  0  0
  2  4  1  0  0  0  0
  4  5  1  0  0  0  0
  4 30  1  0  0  0  0
  4 31  1  0  0  0  0
  5  6  1  0  0  0  0
  5 32  1  0  0  0  0
  5 33  1  0  0  0  0
  6 28  1  0  0  0  0
  6 27  1  0  0  0  0
  6  7  1  0  0  0  0
  7  8  1  0  0  0  0
  7 34  1  0  0  0  0
  7 35  1  0  0  0  0
  8  9  1  0  0  0  0
  8 26  1  0  0  0  0
  9 14  1  0  0  0  0
  9 10  2  0  0  0  0
 10 11  1  0  0  0  0
 11 12  2  0  0  0  0
 11 36  1  0  0  0  0
 12 13  1  0  0  0  0
 13 17  1  0  0  0  0
 13 14  2  0  0  0  0
 14 15  1  0  0  0  0
 15 16  2  0  0  0  0
 16 17  1  0  0  0  0
 16 37  1  0  0  0  0
 17 18  1  0  0  0  0
 18 25  1  0  0  0  0
 18 19  1  0  0  0  0
 18 38  1  0  0  0  0
 19 20  1  0  0  0  0
 19 39  1  0  0  0  0
 19 40  1  0  0  0  0
 20 21  1  0  0  0  0
 20 23  1  0  0  0  0
 20 25  1  0  0  0  0
 21 22  1  0  0  0  0
 21 41  1  0  0  0  0
 21 42  1  0  0  0  0
 22 43  1  0  0  0  0
 23 24  1  0  0  0  0
 23 44  1  0  0  0  0
 23 45  1  0  0  0  0
 24 46  1  0  0  0  0
 25 47  1  0  0  0  0
 25 48  1  0  0  0  0
 26 27  1  0  0  0  0
 26 49  1  0  0  0  0
 26 50  1  0  0  0  0
 27 29  1  0  0  0  0
M  END
> <s_m_source_file>
AV-unprocessed.smi

> <i_m_source_file_index>
279

> <i_lp_mmshare_version>
43012

> <i_f3d_flags>
0

> <s_epik_input>
W0NIMl0xW0NIMl1TKD1PKSg9TylbQ0BASF0oW0NAQEhdMTIpW0NIMl1OKFtDSDJdMiljKG5bY0hdbjMpYyhjMzQpbltjSF1uNFtDSF0oW0NIMl01KVtDSDJdQzUoW0NIMl1bT0hdKVtDSDJdW09IXQ==

> <s_epik_cmdline>
J2VwaWtfcHl0aG9uJywgJy1waCcsICc3LjAnLCAnLXRuJywgJzgnLCAnLW1hJywgJzIwMCcsICctbWV0YWxfYmluZGluZycsICctaW1hZScsICc8aW5maWxlLm1hZT4nLCAnLW9tYWUnLCAnPG91dGZpbGUubWFlPic=

> <r_lp_tautomer_probability>
1

> <r_epik_Ionization_Penalty>
0.000990948

> <r_epik_Ionization_Penalty_Charging>
0

> <r_epik_Ionization_Penalty_Neutral>
0.000990948

> <r_epik_State_Penalty>
0.000515994

> <r_epik_Charging_Adjusted_Penalty>
0.000515994

> <i_epik_Tot_Q>
0

> <i_epik_Tot_abs_Q>
0

> <r_epik_Metal_State_Penalty>
-0

> <b_epik_Metal_Only>
0

> <s_lp_Force_Field>
OPLS_2005

> <r_lp_Energy>
54.435

> <b_lp_Chiralities_Consistent>
1

> <s_lp_Variant>
AV-unprocessed.smi:279-1

> <Gold.Version>
5.8.1

> <Gold.Id.Protein>
6NUR|6NUR_protein|mol2

> <Gold.PLP.Fitness>
47.3812

> <Gold.PLP.PLP>
-33.1394

> <Gold.PLP.part.hbond>
-3.1999

> <Gold.PLP.part.metal>
0.0000

> <Gold.PLP.part.buried>
-3.8186

> <Gold.PLP.part.nonpolar>
-26.1837

> <Gold.PLP.part.repulsive>
0.2428

> <Gold.PLP.ligand.clash>
0.0000

> <Gold.PLP.ligand.torsion>
1.1001

> <Gold.PLP.Chemscore.Hbond>
3.4550

> <Gold.PLP.Chemscore.CHOScore>
1.7581

> <Gold.PLP.Chemscore.Metal>
0.0000

> <Gold.Chemscore.Hbonds>
donor molecule, donor type, donor heavy atom, donor atom, acceptor molecule, acceptor atom, score
      L1  H    22    43       P1 10186  1.00
      L1  H    24    46       P1 10747  1.00
      P1  H  6931  6943       L1     3  0.99
      P1  H  6934  6947       L1     1  0.46
      L1  C    11    36       P1 10956  0.76
      L1  C    16    37       P1  7948  1.00

> <Gold.PLP.Chemscore.Internal.Correction>
0.8027

> <Gold.Rescore>
     Score         DG    S(hbond)    S(metal)    S(lipo)     H(rot)  DE(clash)    DE(int)     intcor
     15.34     -17.63       3.16        0.00      77.88       2.94       0.04       2.25       ----

> <Gold.Chemscore.Fitness>
15.3401

> <Gold.Chemscore.DG>
-17.6302

> <Gold.Chemscore.ZeroCoef>
-5.4800

> <Gold.Chemscore.Hbond>
3.1601

> <Gold.Chemscore.Metal>
0.0000

> <Gold.Chemscore.Lipo>
77.8770

> <Gold.Chemscore.Internal_Hbond>
0.0000

> <Gold.Chemscore.DEClash>
0.0411

> <Gold.Chemscore.DEInternal>
2.2490

> <Gold.Chemscore.Rot>
2.9360

> <Gold.Chemscore.Internal.Correction>
   9.000000E+99

> <Gold.Chemscore.Hbonds>
donor molecule, donor type, donor heavy atom, donor atom, acceptor molecule, acceptor atom, score
      L1  H    22    43       P1 10186  0.99
      L1  H    24    46       P1 10747  1.00
      P1  H  6931  6943       L1     3  0.92
      P1  H  6934  6947       L1     1  0.14

> <Gold.Chemscore.Hbond.Weighted>
-10.5547

> <Gold.Chemscore.Metal.Weighted>
-0.0000

> <Gold.Chemscore.Lipo.Weighted>
-9.1116

> <Gold.Chemscore.Internal_Hbond.Weighted>
0.0000

> <Gold.Chemscore.DEClash.Weighted>
0.0411

> <Gold.Chemscore.DEInternal.Weighted>
2.2490

> <Gold.Chemscore.Rot.Weighted>
7.5161

> <Gold.Chemscore.Internal.Correction.Weighted>
   9.000000E+99

> <Gold.Protein.RotatedTorsions>
[ 6907 6896 6895 6894 ] final -148.69 input  -60.11 | X-H torsion
[ 7974 7965 7964 7962 ] final  -83.39 input  175.53 | X-H torsion
[ 8008 7997 7996 7995 ] final -129.82 input   59.86 | X-H torsion
[ 10167 10162 10161 10158 ] final  -11.93 input  -65.29 | X-H torsion
[ 10718 10713 10712 10709 ] final  -29.67 input   66.30 | X-H torsion
[ 10763 10752 10751 10750 ] final  -93.26 input  -60.55 | X-H torsion
[ 11005 11000 10999 10996 ] final   32.60 input  -57.11 | X-H torsion

> <Gold.Protein.ActiveResidues>
 VAL166  LYS551  ARG553  GLY616  TRP617  ASP618  TYR619  PRO620  LYS621  CYS622 
 ASP623  PHE694  ASN695  SER759  ASP760  ASP761  ALA762  ILE779  LEU786  VAL792 
 PHE793  MET794  SER795  GLU796  ALA797  LYS798  CYS799  TRP800  GLU811  SER814 

> <Gold.Protein.RotatedAtoms>
  151.1734  133.4770  159.2593 H   0  0  0  0  0  0  0  0  0  0  0  0  # atno 6907 bound_to 6896
  151.1332  135.0141  159.8602 H   0  0  0  0  0  0  0  0  0  0  0  0  # atno 6908 bound_to 6896
  152.5460  134.1635  159.8620 H   0  0  0  0  0  0  0  0  0  0  0  0  # atno 6909 bound_to 6896
  145.5207  140.9531  143.1657 H   0  0  0  0  0  0  0  0  0  0  0  0  # atno 7974 bound_to 7965
  155.2856  140.0446  157.3019 H   0  0  0  0  0  0  0  0  0  0  0  0  # atno 8008 bound_to 7997
  154.5571  140.2335  155.8361 H   0  0  0  0  0  0  0  0  0  0  0  0  # atno 8009 bound_to 7997
  156.2016  140.3024  155.9547 H   0  0  0  0  0  0  0  0  0  0  0  0  # atno 8010 bound_to 7997
  140.7150  143.5587  150.9220 H   0  0  0  0  0  0  0  0  0  0  0  0  # atno 10167 bound_to 10162
  156.4095  130.4405  149.7262 H   0  0  0  0  0  0  0  0  0  0  0  0  # atno 10718 bound_to 10713
  154.6942  135.5201  153.8435 H   0  0  0  0  0  0  0  0  0  0  0  0  # atno 10763 bound_to 10752
  153.0654  135.6583  154.0375 H   0  0  0  0  0  0  0  0  0  0  0  0  # atno 10764 bound_to 10752
  154.0244  135.2991  155.3356 H   0  0  0  0  0  0  0  0  0  0  0  0  # atno 10765 bound_to 10752
  140.2718  134.3074  155.7826 H   0  0  0  0  0  0  0  0  0  0  0  0  # atno 11005 bound_to 11000
  144.7678  139.6805  143.7207 LP  0  0  0  0  0  0  0  0  0  0  0  0  # atno 17320 bound_to 7965
  146.2108  139.5463  142.9682 LP  0  0  0  0  0  0  0  0  0  0  0  0  # atno 17321 bound_to 7965
  139.9312  143.6491  152.3076 LP  0  0  0  0  0  0  0  0  0  0  0  0  # atno 17342 bound_to 10162
  139.6942  144.7643  151.1385 LP  0  0  0  0  0  0  0  0  0  0  0  0  # atno 17343 bound_to 10162
  156.4246  130.7785  151.2804 LP  0  0  0  0  0  0  0  0  0  0  0  0  # atno 17370 bound_to 10713
  157.7506  131.0172  150.3577 LP  0  0  0  0  0  0  0  0  0  0  0  0  # atno 17371 bound_to 10713
  141.2176  133.7471  156.9345 LP  0  0  0  0  0  0  0  0  0  0  0  0  # atno 17394 bound_to 11000
  140.1366  134.9321  157.2410 LP  0  0  0  0  0  0  0  0  0  0  0  0  # atno 17395 bound_to 11000

$$$$
