AV-unprocessed.smi:2383|AV-procd|sdf|9460|dock1
  -GOLD-   2272013 83D 1   1.00000     0.00000
 Structure written by MMmdl.
 37 38  0  0  0  0  0  0  0  0  1 V2000
  153.5502  141.1481  160.2917 C   0  0  0  0  0  0  0  0  0  0  0  0
  152.7810  142.3304  159.7407 C   0  0  0  0  0  0  0  0  0  0  0  0
  152.9298  143.6157  160.2977 C   0  0  0  0  0  0  0  0  0  0  0  0
  152.1889  144.6710  159.7363 C   0  0  0  0  0  0  0  0  0  0  0  0
  151.3364  144.3998  158.6488 C   0  0  0  0  0  0  0  0  0  0  0  0
  151.2450  143.0811  158.1489 C   0  0  0  0  0  0  0  0  0  0  0  0
  150.3594  142.9126  157.0514 N   0  0  0  0  0  0  0  0  0  0  0  0
  150.2466  141.8543  156.2292 C   0  0  0  0  0  0  0  0  0  0  0  0
  150.9151  140.8225  156.2992 O   0  0  0  0  0  0  0  0  0  0  0  0
  149.3000  142.0598  155.3016 N   0  0  0  0  0  0  0  0  0  0  0  0
  148.9231  141.1108  154.2580 C   0  0  2  0  0  0  0  0  0  0  0  0
  147.5687  141.5013  153.6297 C   0  0  0  0  0  0  0  0  0  0  0  0
  147.1180  140.4713  152.5816 C   0  0  0  0  0  0  0  0  0  0  0  0
  147.0576  139.0576  153.1843 C   0  0  1  0  0  0  0  0  0  0  0  0
  146.7059  138.1307  152.1791 O   0  0  0  0  0  0  0  0  0  0  0  0
  148.4103  138.6611  153.8001 C   0  0  0  0  0  0  0  0  0  0  0  0
  148.8629  139.6895  154.8494 C   0  0  0  0  0  0  0  0  0  0  0  0
  151.9638  142.0701  158.6976 N   0  0  0  0  0  0  0  0  0  0  0  0
  154.0684  141.4096  161.2146 H   0  0  0  0  0  0  0  0  0  0  0  0
  154.2916  140.8097  159.5676 H   0  0  0  0  0  0  0  0  0  0  0  0
  152.8745  140.3193  160.5053 H   0  0  0  0  0  0  0  0  0  0  0  0
  153.5931  143.7915  161.1320 H   0  0  0  0  0  0  0  0  0  0  0  0
  152.2730  145.6722  160.1320 H   0  0  0  0  0  0  0  0  0  0  0  0
  150.7608  145.1997  158.2059 H   0  0  0  0  0  0  0  0  0  0  0  0
  149.7407  143.6890  156.8704 H   0  0  0  0  0  0  0  0  0  0  0  0
  148.8013  142.9373  155.3177 H   0  0  0  0  0  0  0  0  0  0  0  0
  149.6881  141.1194  153.4791 H   0  0  0  0  0  0  0  0  0  0  0  0
  146.8086  141.5804  154.4083 H   0  0  0  0  0  0  0  0  0  0  0  0
  147.6372  142.4856  153.1650 H   0  0  0  0  0  0  0  0  0  0  0  0
  146.1423  140.7531  152.1844 H   0  0  0  0  0  0  0  0  0  0  0  0
  147.8119  140.4872  151.7398 H   0  0  0  0  0  0  0  0  0  0  0  0
  146.2862  139.0251  153.9549 H   0  0  0  0  0  0  0  0  0  0  0  0
  147.4832  137.6600  151.9188 H   0  0  0  0  0  0  0  0  0  0  0  0
  148.3394  137.6738  154.2582 H   0  0  0  0  0  0  0  0  0  0  0  0
  149.1673  138.5862  153.0180 H   0  0  0  0  0  0  0  0  0  0  0  0
  149.8402  139.4058  155.2417 H   0  0  0  0  0  0  0  0  0  0  0  0
  148.1728  139.6686  155.6943 H   0  0  0  0  0  0  0  0  0  0  0  0
  1  2  1  0  0  0  0
  1 19  1  0  0  0  0
  1 20  1  0  0  0  0
  1 21  1  0  0  0  0
  2 18  1  0  0  0  0
  2  3  2  0  0  0  0
  3  4  1  0  0  0  0
  3 22  1  0  0  0  0
  4  5  2  0  0  0  0
  4 23  1  0  0  0  0
  5  6  1  0  0  0  0
  5 24  1  0  0  0  0
  6  7  1  0  0  0  0
  6 18  2  0  0  0  0
  7  8  1  0  0  0  0
  7 25  1  0  0  0  0
  8  9  2  0  0  0  0
  8 10  1  0  0  0  0
 10 11  1  0  0  0  0
 10 26  1  0  0  0  0
 11 17  1  0  0  0  0
 11 12  1  0  0  0  0
 11 27  1  0  0  0  0
 12 13  1  0  0  0  0
 12 28  1  0  0  0  0
 12 29  1  0  0  0  0
 13 14  1  0  0  0  0
 13 30  1  0  0  0  0
 13 31  1  0  0  0  0
 14 15  1  0  0  0  0
 14 16  1  0  0  0  0
 14 32  1  0  0  0  0
 15 33  1  0  0  0  0
 16 17  1  0  0  0  0
 16 34  1  0  0  0  0
 16 35  1  0  0  0  0
 17 36  1  0  0  0  0
 17 37  1  0  0  0  0
M  END
> <s_m_source_file>
AV-unprocessed.smi

> <i_m_source_file_index>
2383

> <i_lp_mmshare_version>
43012

> <i_f3d_flags>
0

> <s_epik_input>
W0NIM11jMVtjSF1bY0hdW2NIXWMobjEpW05IXUMoPU8pW05IXVtDQEBIXTJbQ0gyXVtDSDJdW0NAQEhdKFtPSF0pW0NIMl1bQ0gyXTI=

> <s_epik_cmdline>
J2VwaWtfcHl0aG9uJywgJy1waCcsICc3LjAnLCAnLXRuJywgJzgnLCAnLW1hJywgJzIwMCcsICctbWV0YWxfYmluZGluZycsICctaW1hZScsICc8aW5maWxlLm1hZT4nLCAnLW9tYWUnLCAnPG91dGZpbGUubWFlPic=

> <r_lp_tautomer_probability>
1

> <r_epik_Ionization_Penalty>
9.15533e-05

> <r_epik_Ionization_Penalty_Charging>
0

> <r_epik_Ionization_Penalty_Neutral>
9.15533e-05

> <r_epik_State_Penalty>
-0

> <r_epik_Charging_Adjusted_Penalty>
0

> <i_epik_Tot_Q>
0

> <i_epik_Tot_abs_Q>
0

> <r_epik_Metal_State_Penalty>
-0

> <b_epik_Metal_Only>
0

> <s_lp_Force_Field>
OPLS_2005

> <r_lp_Energy>
9.20264

> <b_lp_Chiralities_Consistent>
1

> <s_lp_Variant>
AV-unprocessed.smi:2383-1

> <Gold.Version>
5.8.1

> <Gold.Id.Protein>
6NUR|6NUR_protein|mol2

> <Gold.PLP.Fitness>
47.6362

> <Gold.PLP.PLP>
-39.2270

> <Gold.PLP.part.hbond>
-3.0000

> <Gold.PLP.part.metal>
0.0000

> <Gold.PLP.part.buried>
-3.3197

> <Gold.PLP.part.nonpolar>
-33.0277

> <Gold.PLP.part.repulsive>
0.2231

> <Gold.PLP.ligand.clash>
0.0000

> <Gold.PLP.ligand.torsion>
0.2610

> <Gold.PLP.Chemscore.Hbond>
2.9760

> <Gold.PLP.Chemscore.CHOScore>
0.0000

> <Gold.PLP.Chemscore.Metal>
0.0000

> <Gold.Chemscore.Hbonds>
donor molecule, donor type, donor heavy atom, donor atom, acceptor molecule, acceptor atom, score
      L1  H     7    25       P1  8028  0.98
      L1  H    10    26       P1  8028  0.94
      L1  H    15    33       P1  7948  1.00

> <Gold.PLP.Chemscore.Internal.Correction>
0.0033

> <Gold.Rescore>
     Score         DG    S(hbond)    S(metal)    S(lipo)     H(rot)  DE(clash)    DE(int)     intcor
     19.58     -23.04       2.88        0.00      99.33       1.44       0.41       3.05       ----

> <Gold.Chemscore.Fitness>
19.5806

> <Gold.Chemscore.DG>
-23.0397

> <Gold.Chemscore.ZeroCoef>
-5.4800

> <Gold.Chemscore.Hbond>
2.8819

> <Gold.Chemscore.Metal>
0.0000

> <Gold.Chemscore.Lipo>
99.3262

> <Gold.Chemscore.Internal_Hbond>
0.0000

> <Gold.Chemscore.DEClash>
0.4119

> <Gold.Chemscore.DEInternal>
3.0472

> <Gold.Chemscore.Rot>
1.4402

> <Gold.Chemscore.Internal.Correction>
   9.000000E+99

> <Gold.Chemscore.Hbonds>
donor molecule, donor type, donor heavy atom, donor atom, acceptor molecule, acceptor atom, score
      L1  H     7    25       P1  8028  0.92
      L1  H    10    26       P1  8028  0.91
      L1  H    15    33       P1  7948  0.93

> <Gold.Chemscore.Hbond.Weighted>
-9.6254

> <Gold.Chemscore.Metal.Weighted>
-0.0000

> <Gold.Chemscore.Lipo.Weighted>
-11.6212

> <Gold.Chemscore.Internal_Hbond.Weighted>
0.0000

> <Gold.Chemscore.DEClash.Weighted>
0.4119

> <Gold.Chemscore.DEInternal.Weighted>
3.0472

> <Gold.Chemscore.Rot.Weighted>
3.6869

> <Gold.Chemscore.Internal.Correction.Weighted>
   9.000000E+99

> <Gold.Protein.RotatedTorsions>
[ 6907 6896 6895 6894 ] final   12.11 input  -60.11 | X-H torsion
[ 7974 7965 7964 7962 ] final  -41.96 input  175.53 | X-H torsion
[ 8008 7997 7996 7995 ] final  118.15 input   59.86 | X-H torsion
[ 10167 10162 10161 10158 ] final  -68.52 input  -65.29 | X-H torsion
[ 10718 10713 10712 10709 ] final  -69.48 input   66.30 | X-H torsion
[ 10763 10752 10751 10750 ] final   62.02 input  -60.55 | X-H torsion
[ 11005 11000 10999 10996 ] final   77.55 input  -57.11 | X-H torsion

> <Gold.Protein.ActiveResidues>
 VAL166  LYS551  ARG553  GLY616  TRP617  ASP618  TYR619  PRO620  LYS621  CYS622 
 ASP623  PHE694  ASN695  SER759  ASP760  ASP761  ALA762  ILE779  LEU786  VAL792 
 PHE793  MET794  SER795  GLU796  ALA797  LYS798  CYS799  TRP800  GLU811  SER814 

> <Gold.Protein.RotatedAtoms>
  151.7651  135.0800  160.0351 H   0  0  0  0  0  0  0  0  0  0  0  0  # atno 6907 bound_to 6896
  152.3326  133.5971  159.5829 H   0  0  0  0  0  0  0  0  0  0  0  0  # atno 6908 bound_to 6896
  150.7432  133.9760  159.3603 H   0  0  0  0  0  0  0  0  0  0  0  0  # atno 6909 bound_to 6896
  146.0161  140.6906  142.9200 H   0  0  0  0  0  0  0  0  0  0  0  0  # atno 7974 bound_to 7965
  156.2531  140.2881  156.0790 H   0  0  0  0  0  0  0  0  0  0  0  0  # atno 8008 bound_to 7997
  155.1588  140.0399  157.2855 H   0  0  0  0  0  0  0  0  0  0  0  0  # atno 8009 bound_to 7997
  154.6408  140.2522  155.7331 H   0  0  0  0  0  0  0  0  0  0  0  0  # atno 8010 bound_to 7997
  140.5501  143.2312  151.6928 H   0  0  0  0  0  0  0  0  0  0  0  0  # atno 10167 bound_to 10162
  156.0453  130.4313  150.2153 H   0  0  0  0  0  0  0  0  0  0  0  0  # atno 10718 bound_to 10713
  152.9969  135.5480  154.6126 H   0  0  0  0  0  0  0  0  0  0  0  0  # atno 10763 bound_to 10752
  154.5443  135.2822  155.1069 H   0  0  0  0  0  0  0  0  0  0  0  0  # atno 10764 bound_to 10752
  154.2334  135.6429  153.5235 H   0  0  0  0  0  0  0  0  0  0  0  0  # atno 10765 bound_to 10752
  139.9250  134.7691  156.1536 H   0  0  0  0  0  0  0  0  0  0  0  0  # atno 11005 bound_to 11000
  144.6971  140.3484  143.7186 LP  0  0  0  0  0  0  0  0  0  0  0  0  # atno 17320 bound_to 7965
  145.7266  139.1724  143.2454 LP  0  0  0  0  0  0  0  0  0  0  0  0  # atno 17321 bound_to 7965
  139.5023  144.3832  152.0355 LP  0  0  0  0  0  0  0  0  0  0  0  0  # atno 17342 bound_to 10162
  140.2948  144.3713  150.6077 LP  0  0  0  0  0  0  0  0  0  0  0  0  # atno 17343 bound_to 10162
  157.0244  130.9989  151.3330 LP  0  0  0  0  0  0  0  0  0  0  0  0  # atno 17370 bound_to 10713
  157.5322  130.8065  149.7930 LP  0  0  0  0  0  0  0  0  0  0  0  0  # atno 17371 bound_to 10713
  141.0800  133.6758  156.2317 LP  0  0  0  0  0  0  0  0  0  0  0  0  # atno 17394 bound_to 11000
  140.6363  134.5212  157.5565 LP  0  0  0  0  0  0  0  0  0  0  0  0  # atno 17395 bound_to 11000

$$$$
