AV-unprocessed.smi:1383|AV-procd|sdf|5623|dock1
  -GOLD-   22720 5233D 1   1.00000     0.00000
 Structure written by MMmdl.
 31 31  0  0  0  0  0  0  0  0  1 V2000
  151.0674  145.2426  160.4568 C   0  0  0  0  0  0  0  0  0  0  0  0
  150.5673  144.0740  159.5928 C   0  0  0  0  0  0  0  0  0  0  0  0
  151.1715  144.0308  158.1718 C   0  0  1  0  0  0  0  0  0  0  0  0
  152.6167  144.5587  158.1733 C   0  0  0  0  0  0  0  0  0  0  0  0
  151.1233  142.6159  157.5738 C   0  0  0  0  0  0  0  0  0  0  0  0
  151.7091  141.6939  158.1426 O   0  0  0  0  0  0  0  0  0  0  0  0
  150.4156  142.4840  156.4359 N   0  0  0  0  0  0  0  0  0  0  0  0
  150.1799  141.3082  155.6770 C   0  0  0  0  0  0  0  0  0  0  0  0
  151.0015  140.2532  155.6450 N   0  0  0  0  0  0  0  0  0  0  0  0
  150.5181  139.2284  154.8240 C   0  0  0  0  0  0  0  0  0  0  0  0
  151.3046  137.9586  154.6647 C   0  0  0  0  0  0  0  0  0  0  0  0
  150.5450  136.7691  155.2590 C   0  0  0  0  0  0  0  0  0  0  0  0
  149.3828  136.4357  154.6899 N   0  0  0  0  0  0  0  0  0  0  0  0
  151.0073  136.1497  156.2147 O   0  0  0  0  0  0  0  0  0  0  0  0
  149.3197  139.5356  154.2253 C   0  0  0  0  0  0  0  0  0  0  0  0
  148.7476  141.1188  154.6784 S   0  0  0  0  0  0  0  0  0  0  0  0
  150.6539  145.1816  161.4635 H   0  0  0  0  0  0  0  0  0  0  0  0
  150.7732  146.2068  160.0416 H   0  0  0  0  0  0  0  0  0  0  0  0
  152.1543  145.2311  160.5434 H   0  0  0  0  0  0  0  0  0  0  0  0
  150.8080  143.1429  160.1071 H   0  0  0  0  0  0  0  0  0  0  0  0
  149.4783  144.1085  159.5359 H   0  0  0  0  0  0  0  0  0  0  0  0
  150.5840  144.6952  157.5358 H   0  0  0  0  0  0  0  0  0  0  0  0
  153.0517  144.5298  157.1735 H   0  0  0  0  0  0  0  0  0  0  0  0
  153.2581  143.9728  158.8330 H   0  0  0  0  0  0  0  0  0  0  0  0
  152.6531  145.5938  158.5137 H   0  0  0  0  0  0  0  0  0  0  0  0
  149.9826  143.3237  156.0806 H   0  0  0  0  0  0  0  0  0  0  0  0
  151.5087  137.7592  153.6121 H   0  0  0  0  0  0  0  0  0  0  0  0
  152.2759  138.0476  155.1536 H   0  0  0  0  0  0  0  0  0  0  0  0
  148.8541  135.6509  155.0419 H   0  0  0  0  0  0  0  0  0  0  0  0
  149.0433  136.9653  153.9001 H   0  0  0  0  0  0  0  0  0  0  0  0
  148.7395  138.9271  153.5479 H   0  0  0  0  0  0  0  0  0  0  0  0
  1  2  1  0  0  0  0
  1 17  1  0  0  0  0
  1 18  1  0  0  0  0
  1 19  1  0  0  0  0
  2  3  1  0  0  0  0
  2 20  1  0  0  0  0
  2 21  1  0  0  0  0
  3  4  1  0  0  0  0
  3  5  1  0  0  0  0
  3 22  1  0  0  0  0
  4 23  1  0  0  0  0
  4 24  1  0  0  0  0
  4 25  1  0  0  0  0
  5  6  2  0  0  0  0
  5  7  1  0  0  0  0
  7  8  1  0  0  0  0
  7 26  1  0  0  0  0
  8 16  1  0  0  0  0
  8  9  2  0  0  0  0
  9 10  1  0  0  0  0
 10 11  1  0  0  0  0
 10 15  2  0  0  0  0
 11 12  1  0  0  0  0
 11 27  1  0  0  0  0
 11 28  1  0  0  0  0
 12 13  1  0  0  0  0
 12 14  2  0  0  0  0
 13 29  1  0  0  0  0
 13 30  1  0  0  0  0
 15 16  1  0  0  0  0
 15 31  1  0  0  0  0
M  END
> <s_m_source_file>
AV-unprocessed.smi

> <i_m_source_file_index>
1383

> <i_lp_mmshare_version>
43012

> <i_f3d_flags>
0

> <s_epik_input>
W0NIM11bQ0gyXVtDQEhdKFtDSDNdKUMoPU8pW05IXWMxbmMoW2NIXXMxKVtDSDJdQyg9TylbTkgyXQ==

> <s_epik_cmdline>
J2VwaWtfcHl0aG9uJywgJy1waCcsICc3LjAnLCAnLXRuJywgJzgnLCAnLW1hJywgJzIwMCcsICctbWV0YWxfYmluZGluZycsICctaW1hZScsICc8aW5maWxlLm1hZT4nLCAnLW9tYWUnLCAnPG91dGZpbGUubWFlPic=

> <r_lp_tautomer_probability>
1

> <r_epik_Ionization_Penalty>
0.00017492

> <r_epik_Ionization_Penalty_Charging>
0

> <r_epik_Ionization_Penalty_Neutral>
0.00017492

> <r_epik_State_Penalty>
-0

> <r_epik_Charging_Adjusted_Penalty>
0

> <i_epik_Tot_Q>
0

> <i_epik_Tot_abs_Q>
0

> <r_epik_Metal_State_Penalty>
0.109333

> <b_epik_Metal_Only>
0

> <s_lp_Force_Field>
OPLS_2005

> <r_lp_Energy>
2.80551

> <b_lp_Chiralities_Consistent>
1

> <s_lp_Variant>
AV-unprocessed.smi:1383-2

> <Gold.Version>
5.8.1

> <Gold.Id.Protein>
6NUR|6NUR_protein|mol2

> <Gold.PLP.Fitness>
44.3694

> <Gold.PLP.PLP>
-36.9818

> <Gold.PLP.part.hbond>
-4.0000

> <Gold.PLP.part.metal>
0.0000

> <Gold.PLP.part.buried>
-1.8716

> <Gold.PLP.part.nonpolar>
-30.9783

> <Gold.PLP.part.repulsive>
0.1915

> <Gold.PLP.ligand.clash>
0.0000

> <Gold.PLP.ligand.torsion>
0.5011

> <Gold.PLP.Chemscore.Hbond>
2.4758

> <Gold.PLP.Chemscore.CHOScore>
0.2906

> <Gold.PLP.Chemscore.Metal>
0.0000

> <Gold.Chemscore.Hbonds>
donor molecule, donor type, donor heavy atom, donor atom, acceptor molecule, acceptor atom, score
      L1  H     7    26       P1  8028  1.00
      L1  H    13    30       P1  7948  0.35
      L1  C    15    31       P1  7957  0.15

> <Gold.PLP.Chemscore.Internal.Correction>
0.0906

> <Gold.Rescore>
     Score         DG    S(hbond)    S(metal)    S(lipo)     H(rot)  DE(clash)    DE(int)     intcor
     14.24     -16.72       2.33        0.00      77.60       2.19       0.70       1.78       ----

> <Gold.Chemscore.Fitness>
14.2369

> <Gold.Chemscore.DG>
-16.7200

> <Gold.Chemscore.ZeroCoef>
-5.4800

> <Gold.Chemscore.Hbond>
2.3292

> <Gold.Chemscore.Metal>
0.0000

> <Gold.Chemscore.Lipo>
77.5993

> <Gold.Chemscore.Internal_Hbond>
0.0000

> <Gold.Chemscore.DEClash>
0.7012

> <Gold.Chemscore.DEInternal>
1.7819

> <Gold.Chemscore.Rot>
2.1948

> <Gold.Chemscore.Internal.Correction>
   9.000000E+99

> <Gold.Chemscore.Hbonds>
donor molecule, donor type, donor heavy atom, donor atom, acceptor molecule, acceptor atom, score
      L1  H     7    26       P1  8028  1.00
      L1  H    13    30       P1  7948  0.34

> <Gold.Chemscore.Hbond.Weighted>
-7.7796

> <Gold.Chemscore.Metal.Weighted>
-0.0000

> <Gold.Chemscore.Lipo.Weighted>
-9.0791

> <Gold.Chemscore.Internal_Hbond.Weighted>
0.0000

> <Gold.Chemscore.DEClash.Weighted>
0.7012

> <Gold.Chemscore.DEInternal.Weighted>
1.7819

> <Gold.Chemscore.Rot.Weighted>
5.6186

> <Gold.Chemscore.Internal.Correction.Weighted>
   9.000000E+99

> <Gold.Protein.RotatedTorsions>
[ 6907 6896 6895 6894 ] final -156.02 input  -60.11 | X-H torsion
[ 7974 7965 7964 7962 ] final   94.96 input  175.53 | X-H torsion
[ 8008 7997 7996 7995 ] final   73.30 input   59.86 | X-H torsion
[ 10167 10162 10161 10158 ] final  145.74 input  -65.29 | X-H torsion
[ 10718 10713 10712 10709 ] final   12.87 input   66.30 | X-H torsion
[ 10763 10752 10751 10750 ] final  -35.08 input  -60.55 | X-H torsion
[ 11005 11000 10999 10996 ] final   94.66 input  -57.11 | X-H torsion

> <Gold.Protein.ActiveResidues>
 VAL166  LYS551  ARG553  GLY616  TRP617  ASP618  TYR619  PRO620  LYS621  CYS622 
 ASP623  PHE694  ASN695  SER759  ASP760  ASP761  ALA762  ILE779  LEU786  VAL792 
 PHE793  MET794  SER795  GLU796  ALA797  LYS798  CYS799  TRP800  GLU811  SER814 

> <Gold.Protein.RotatedAtoms>
  151.2813  133.4208  159.2626 H   0  0  0  0  0  0  0  0  0  0  0  0  # atno 6907 bound_to 6896
  151.0358  134.9572  159.8145 H   0  0  0  0  0  0  0  0  0  0  0  0  # atno 6908 bound_to 6896
  152.5355  134.2773  159.9047 H   0  0  0  0  0  0  0  0  0  0  0  0  # atno 6909 bound_to 6896
  145.4586  139.2288  143.3000 H   0  0  0  0  0  0  0  0  0  0  0  0  # atno 7974 bound_to 7965
  155.7817  140.3481  155.5301 H   0  0  0  0  0  0  0  0  0  0  0  0  # atno 8008 bound_to 7997
  155.8722  140.0988  157.1563 H   0  0  0  0  0  0  0  0  0  0  0  0  # atno 8009 bound_to 7997
  154.4018  140.1338  156.4080 H   0  0  0  0  0  0  0  0  0  0  0  0  # atno 8010 bound_to 7997
  139.4920  144.5880  151.6739 H   0  0  0  0  0  0  0  0  0  0  0  0  # atno 10167 bound_to 10162
  157.0164  130.6137  149.5715 H   0  0  0  0  0  0  0  0  0  0  0  0  # atno 10718 bound_to 10713
  153.8574  135.6843  153.4786 H   0  0  0  0  0  0  0  0  0  0  0  0  # atno 10763 bound_to 10752
  153.1362  135.4677  154.9423 H   0  0  0  0  0  0  0  0  0  0  0  0  # atno 10764 bound_to 10752
  154.7774  135.3258  154.8011 H   0  0  0  0  0  0  0  0  0  0  0  0  # atno 10765 bound_to 10752
  139.8796  134.8857  156.3897 H   0  0  0  0  0  0  0  0  0  0  0  0  # atno 11005 bound_to 11000
  146.2464  140.5353  142.8912 LP  0  0  0  0  0  0  0  0  0  0  0  0  # atno 17320 bound_to 7965
  144.8017  140.6225  143.6474 LP  0  0  0  0  0  0  0  0  0  0  0  0  # atno 17321 bound_to 7965
  140.5500  144.0440  150.6123 LP  0  0  0  0  0  0  0  0  0  0  0  0  # atno 17342 bound_to 10162
  140.3491  143.2973  152.0506 LP  0  0  0  0  0  0  0  0  0  0  0  0  # atno 17343 bound_to 10162
  156.0117  130.5209  150.8010 LP  0  0  0  0  0  0  0  0  0  0  0  0  # atno 17370 bound_to 10713
  157.5282  131.0935  150.9990 LP  0  0  0  0  0  0  0  0  0  0  0  0  # atno 17371 bound_to 10713
  140.9341  133.7559  156.0062 LP  0  0  0  0  0  0  0  0  0  0  0  0  # atno 17394 bound_to 11000
  140.8296  134.3194  157.5353 LP  0  0  0  0  0  0  0  0  0  0  0  0  # atno 17395 bound_to 11000

$$$$
