AV-unprocessed.smi:193|AV-procd|sdf|1502|dock8
  -GOLD-   2262019333D 1   1.00000     0.00000
 Structure written by MMmdl.
 62 66  0  0  0  0  0  0  0  0  2 V2000
  147.2025  134.9192  161.8087 C   0  0  0  0  0  0  0  0  0  0  0  0
  147.9241  133.7919  161.0544 C   0  0  2  0  0  0  0  0  0  0  0  0
  147.7815  133.9764  159.5312 C   0  0  0  0  0  0  0  0  0  0  0  0
  148.9237  133.4206  158.8081 N   0  0  0  0  0  0  0  0  0  0  0  0
  149.1170  134.0107  157.6102 C   0  0  0  0  0  0  0  0  0  0  0  0
  149.5056  133.2218  156.5793 N   0  0  0  0  0  0  0  0  0  0  0  0
  149.7145  133.7591  155.3729 C   0  0  0  0  0  0  0  0  0  0  0  0
  149.5917  135.0335  154.9933 N   0  0  0  0  0  0  0  0  0  0  0  0
  149.1987  135.8267  156.0315 C   0  0  0  0  0  0  0  0  0  0  0  0
  148.9422  135.4008  157.3641 C   0  0  0  0  0  0  0  0  0  0  0  0
  148.5643  136.4843  158.1476 N   0  0  0  0  0  0  0  0  0  0  0  0
  148.5927  137.4953  157.3218 C   0  0  0  0  0  0  0  0  0  0  0  0
  148.9576  137.1894  156.0297 N   0  0  0  0  0  0  0  0  0  0  0  0
  149.0674  138.1159  154.9129 C   0  0  0  0  0  0  0  0  0  0  0  0
  150.2990  139.0518  154.9932 C   0  0  0  0  0  0  0  0  0  0  0  0
  150.1419  140.0543  154.0036 O   0  0  0  0  0  0  0  0  0  0  0  0
  150.3676  139.7374  156.3730 C   0  0  0  0  0  0  0  0  0  0  0  0
  151.6661  140.5434  156.5571 C   0  0  0  0  0  0  0  0  0  0  0  0
  152.7944  139.7054  156.3393 O   0  0  0  0  0  0  0  0  0  0  0  0
  152.8533  139.1964  155.0127 C   0  0  0  0  0  0  0  0  0  0  0  0
  151.6276  138.3096  154.7300 C   0  0  0  0  0  0  0  0  0  0  0  0
  149.1015  131.9731  158.7442 C   0  0  0  0  0  0  0  0  0  0  0  0
  149.1295  131.2942  160.1220 C   0  0  0  0  0  0  0  0  0  0  0  0
  147.7678  131.2538  160.7072 N   0  3  1  0  0  0  0  0  0  0  0  0
  147.4845  129.9687  161.3887 C   0  0  1  0  0  0  0  0  0  0  0  0
  146.0529  129.8212  161.8532 C   0  0  0  0  0  0  0  0  0  0  0  0
  146.5357  129.0428  160.6485 C   0  0  1  0  0  0  0  0  0  0  0  0
  145.9787  129.3467  159.2695 C   0  0  0  0  0  0  0  0  0  0  0  0
  147.4236  132.4194  161.5636 C   0  0  0  0  0  0  0  0  0  0  0  0
  146.1329  134.9189  161.5967 H   0  0  0  0  0  0  0  0  0  0  0  0
  147.5964  135.8964  161.5272 H   0  0  0  0  0  0  0  0  0  0  0  0
  147.3292  134.8155  162.8869 H   0  0  0  0  0  0  0  0  0  0  0  0
  148.9813  133.8907  161.3062 H   0  0  0  0  0  0  0  0  0  0  0  0
  146.8509  133.5330  159.1741 H   0  0  0  0  0  0  0  0  0  0  0  0
  147.7199  135.0430  159.3066 H   0  0  0  0  0  0  0  0  0  0  0  0
  150.0253  133.0701  154.6012 H   0  0  0  0  0  0  0  0  0  0  0  0
  148.3411  138.4993  157.6319 H   0  0  0  0  0  0  0  0  0  0  0  0
  149.0908  137.5355  153.9893 H   0  0  0  0  0  0  0  0  0  0  0  0
  148.1516  138.7073  154.8737 H   0  0  0  0  0  0  0  0  0  0  0  0
  149.9044  139.6367  153.1898 H   0  0  0  0  0  0  0  0  0  0  0  0
  149.5017  140.3834  156.5242 H   0  0  0  0  0  0  0  0  0  0  0  0
  150.3212  138.9785  157.1552 H   0  0  0  0  0  0  0  0  0  0  0  0
  151.6983  141.3998  155.8819 H   0  0  0  0  0  0  0  0  0  0  0  0
  151.7165  140.9409  157.5709 H   0  0  0  0  0  0  0  0  0  0  0  0
  152.9167  140.0186  154.2983 H   0  0  0  0  0  0  0  0  0  0  0  0
  153.7671  138.6127  154.9016 H   0  0  0  0  0  0  0  0  0  0  0  0
  151.6811  137.4309  155.3739 H   0  0  0  0  0  0  0  0  0  0  0  0
  151.6723  137.9413  153.7044 H   0  0  0  0  0  0  0  0  0  0  0  0
  148.3204  131.5285  158.1267 H   0  0  0  0  0  0  0  0  0  0  0  0
  150.0469  131.7681  158.2390 H   0  0  0  0  0  0  0  0  0  0  0  0
  149.4797  130.2723  159.9690 H   0  0  0  0  0  0  0  0  0  0  0  0
  149.8494  131.7558  160.7989 H   0  0  0  0  0  0  0  0  0  0  0  0
  148.2948  129.5627  161.9919 H   0  0  0  0  0  0  0  0  0  0  0  0
  145.8764  129.2593  162.7683 H   0  0  0  0  0  0  0  0  0  0  0  0
  145.3640  130.6458  161.6778 H   0  0  0  0  0  0  0  0  0  0  0  0
  146.7107  127.9808  160.8103 H   0  0  0  0  0  0  0  0  0  0  0  0
  145.6947  130.3954  159.1769 H   0  0  0  0  0  0  0  0  0  0  0  0
  145.0932  128.7382  159.0852 H   0  0  0  0  0  0  0  0  0  0  0  0
  146.7209  129.1154  158.5052 H   0  0  0  0  0  0  0  0  0  0  0  0
  147.8184  132.2553  162.5675 H   0  0  0  0  0  0  0  0  0  0  0  0
  146.3376  132.4408  161.6623 H   0  0  0  0  0  0  0  0  0  0  0  0
  147.1390  131.2884  159.9175 H   0  0  0  0  0  0  0  0  0  0  0  0
  1  2  1  0  0  0  0
  1 30  1  0  0  0  0
  1 31  1  0  0  0  0
  1 32  1  0  0  0  0
  2 29  1  0  0  0  0
  2  3  1  0  0  0  0
  2 33  1  0  0  0  0
  3  4  1  0  0  0  0
  3 34  1  0  0  0  0
  3 35  1  0  0  0  0
  4  5  1  0  0  0  0
  4 22  1  0  0  0  0
  5 10  1  0  0  0  0
  5  6  2  0  0  0  0
  6  7  1  0  0  0  0
  7  8  2  0  0  0  0
  7 36  1  0  0  0  0
  8  9  1  0  0  0  0
  9 13  1  0  0  0  0
  9 10  2  0  0  0  0
 10 11  1  0  0  0  0
 11 12  2  0  0  0  0
 12 13  1  0  0  0  0
 12 37  1  0  0  0  0
 13 14  1  0  0  0  0
 14 15  1  0  0  0  0
 14 38  1  0  0  0  0
 14 39  1  0  0  0  0
 15 21  1  0  0  0  0
 15 16  1  0  0  0  0
 15 17  1  0  0  0  0
 16 40  1  0  0  0  0
 17 18  1  0  0  0  0
 17 41  1  0  0  0  0
 17 42  1  0  0  0  0
 18 19  1  0  0  0  0
 18 43  1  0  0  0  0
 18 44  1  0  0  0  0
 19 20  1  0  0  0  0
 20 21  1  0  0  0  0
 20 45  1  0  0  0  0
 20 46  1  0  0  0  0
 21 47  1  0  0  0  0
 21 48  1  0  0  0  0
 22 23  1  0  0  0  0
 22 49  1  0  0  0  0
 22 50  1  0  0  0  0
 23 24  1  0  0  0  0
 23 51  1  0  0  0  0
 23 52  1  0  0  0  0
 24 25  1  0  0  0  0
 24 29  1  0  0  0  0
 24 62  1  0  0  0  0
 25 27  1  0  0  0  0
 25 26  1  0  0  0  0
 25 53  1  0  0  0  0
 26 27  1  0  0  0  0
 26 54  1  0  0  0  0
 26 55  1  0  0  0  0
 27 28  1  0  0  0  0
 27 56  1  0  0  0  0
 28 57  1  0  0  0  0
 28 58  1  0  0  0  0
 28 59  1  0  0  0  0
 29 60  1  0  0  0  0
 29 61  1  0  0  0  0
M  CHG  1  24   1
M  END
> <s_m_source_file>
AV-unprocessed.smi

> <i_m_source_file_index>
193

> <i_lp_mmshare_version>
43012

> <i_f3d_flags>
0

> <s_epik_input>
W0NIM11bQ0BASF0xW0NIMl1bQ0BIXTFOKFtDSDJdMilbQ0gyXVtDSDJdTihbQ0gyXVtDQEhdMltDSDNdKWMobltjSF1uMyljKGMzNCluW2NIXW40W0NIMl1DNShbT0hdKVtDSDJdW0NIMl1PW0NIMl1bQ0gyXTU=

> <s_epik_cmdline>
J2VwaWtfcHl0aG9uJywgJy1waCcsICc3LjAnLCAnLXRuJywgJzgnLCAnLW1hJywgJzIwMCcsICctbWV0YWxfYmluZGluZycsICctaW1hZScsICc8aW5maWxlLm1hZT4nLCAnLW9tYWUnLCAnPG91dGZpbGUubWFlPic=

> <r_lp_tautomer_probability>
1

> <r_epik_Ionization_Penalty>
0.0540825

> <r_epik_Ionization_Penalty_Charging>
0.0538476

> <r_epik_Ionization_Penalty_Neutral>
0.000234891

> <r_epik_State_Penalty>
0.0200719

> <r_epik_Charging_Adjusted_Penalty>
0.0739194

> <i_epik_Tot_Q>
1

> <i_epik_Tot_abs_Q>
1

> <r_epik_Metal_State_Penalty>
0.0199414

> <b_epik_Metal_Only>
0

> <s_lp_Force_Field>
OPLS_2005

> <r_lp_Energy>
58.7768

> <b_lp_Chiralities_Consistent>
1

> <s_lp_Variant>
AV-unprocessed.smi:193-7

> <Gold.Version>
5.8.1

> <Gold.Id.Protein>
6NUR|6NUR_protein|mol2

> <Gold.PLP.Fitness>
44.0571

> <Gold.PLP.PLP>
-34.9325

> <Gold.PLP.part.hbond>
-4.0000

> <Gold.PLP.part.metal>
0.0000

> <Gold.PLP.part.buried>
-5.0306

> <Gold.PLP.part.nonpolar>
-24.5222

> <Gold.PLP.part.repulsive>
0.1642

> <Gold.PLP.ligand.clash>
0.0000

> <Gold.PLP.ligand.torsion>
1.2732

> <Gold.PLP.Chemscore.Hbond>
3.3640

> <Gold.PLP.Chemscore.CHOScore>
0.0000

> <Gold.PLP.Chemscore.Metal>
0.0000

> <Gold.Chemscore.Hbonds>
donor molecule, donor type, donor heavy atom, donor atom, acceptor molecule, acceptor atom, score
      L1  H    16    40       P1  7957  0.73
      P1  H  6896  6907       L1     4  0.45
      P1  H  7989  7998       L1    16  0.90
      P1  H  7997  8009       L1    19  0.50

> <Gold.PLP.Chemscore.Internal.Correction>
1.5791

> <Gold.Rescore>
     Score         DG    S(hbond)    S(metal)    S(lipo)     H(rot)  DE(clash)    DE(int)     intcor
     14.41     -15.93       2.01        0.00      80.11       2.20       0.41       1.11       ----

> <Gold.Chemscore.Fitness>
14.4084

> <Gold.Chemscore.DG>
-15.9299

> <Gold.Chemscore.ZeroCoef>
-5.4800

> <Gold.Chemscore.Hbond>
2.0101

> <Gold.Chemscore.Metal>
0.0000

> <Gold.Chemscore.Lipo>
80.1103

> <Gold.Chemscore.Internal_Hbond>
0.0000

> <Gold.Chemscore.DEClash>
0.4086

> <Gold.Chemscore.DEInternal>
1.1129

> <Gold.Chemscore.Rot>
2.2018

> <Gold.Chemscore.Internal.Correction>
   9.000000E+99

> <Gold.Chemscore.Hbonds>
donor molecule, donor type, donor heavy atom, donor atom, acceptor molecule, acceptor atom, score
      L1  H    16    40       P1  7957  0.70
      P1  H  7989  7998       L1    16  0.18
      P1  H  7997  8009       L1    19  0.02

> <Gold.Chemscore.Hbond.Weighted>
-6.7136

> <Gold.Chemscore.Metal.Weighted>
-0.0000

> <Gold.Chemscore.Lipo.Weighted>
-9.3729

> <Gold.Chemscore.Internal_Hbond.Weighted>
0.0000

> <Gold.Chemscore.DEClash.Weighted>
0.4086

> <Gold.Chemscore.DEInternal.Weighted>
1.1129

> <Gold.Chemscore.Rot.Weighted>
5.6366

> <Gold.Chemscore.Internal.Correction.Weighted>
   9.000000E+99

> <Gold.Protein.RotatedTorsions>
[ 6907 6896 6895 6894 ] final -107.83 input  -60.11 | X-H torsion
[ 7974 7965 7964 7962 ] final   40.97 input  175.53 | X-H torsion
[ 8008 7997 7996 7995 ] final -156.22 input   59.86 | X-H torsion
[ 10167 10162 10161 10158 ] final  -25.21 input  -65.29 | X-H torsion
[ 10718 10713 10712 10709 ] final   97.70 input   66.30 | X-H torsion
[ 10763 10752 10751 10750 ] final  133.60 input  -60.55 | X-H torsion
[ 11005 11000 10999 10996 ] final   64.31 input  -57.11 | X-H torsion

> <Gold.Protein.ActiveResidues>
 VAL166  LYS551  ARG553  GLY616  TRP617  ASP618  TYR619  PRO620  LYS621  CYS622 
 ASP623  PHE694  ASN695  SER759  ASP760  ASP761  ALA762  ILE779  LEU786  VAL792 
 PHE793  MET794  SER795  GLU796  ALA797  LYS798  CYS799  TRP800  GLU811  SER814 

> <Gold.Protein.RotatedAtoms>
  150.7466  133.9768  159.3563 H   0  0  0  0  0  0  0  0  0  0  0  0  # atno 6907 bound_to 6896
  151.7706  135.0785  160.0368 H   0  0  0  0  0  0  0  0  0  0  0  0  # atno 6908 bound_to 6896
  152.3342  133.5955  159.5867 H   0  0  0  0  0  0  0  0  0  0  0  0  # atno 6909 bound_to 6896
  146.0862  139.5470  142.9505 H   0  0  0  0  0  0  0  0  0  0  0  0  # atno 7974 bound_to 7965
  155.7139  140.0781  157.2359 H   0  0  0  0  0  0  0  0  0  0  0  0  # atno 8008 bound_to 7997
  154.4054  140.1625  156.2380 H   0  0  0  0  0  0  0  0  0  0  0  0  # atno 8009 bound_to 7997
  155.9258  140.3394  155.6212 H   0  0  0  0  0  0  0  0  0  0  0  0  # atno 8010 bound_to 7997
  140.7287  143.4285  151.0839 H   0  0  0  0  0  0  0  0  0  0  0  0  # atno 10167 bound_to 10162
  157.6908  131.0617  150.4684 H   0  0  0  0  0  0  0  0  0  0  0  0  # atno 10718 bound_to 10713
  153.8098  135.3130  155.3399 H   0  0  0  0  0  0  0  0  0  0  0  0  # atno 10763 bound_to 10752
  154.8056  135.4700  154.0386 H   0  0  0  0  0  0  0  0  0  0  0  0  # atno 10764 bound_to 10752
  153.1761  135.6886  153.8630 H   0  0  0  0  0  0  0  0  0  0  0  0  # atno 10765 bound_to 10752
  139.9967  134.6506  155.9999 H   0  0  0  0  0  0  0  0  0  0  0  0  # atno 11005 bound_to 11000
  145.6126  141.0337  143.1958 LP  0  0  0  0  0  0  0  0  0  0  0  0  # atno 17320 bound_to 7965
  144.7327  139.7677  143.7341 LP  0  0  0  0  0  0  0  0  0  0  0  0  # atno 17321 bound_to 7965
  139.7939  143.8179  152.3155 LP  0  0  0  0  0  0  0  0  0  0  0  0  # atno 17342 bound_to 10162
  139.8172  144.7311  150.9619 LP  0  0  0  0  0  0  0  0  0  0  0  0  # atno 17343 bound_to 10162
  156.5024  130.4120  149.6346 LP  0  0  0  0  0  0  0  0  0  0  0  0  # atno 17370 bound_to 10713
  156.3316  130.7334  151.2265 LP  0  0  0  0  0  0  0  0  0  0  0  0  # atno 17371 bound_to 10713
  141.1610  133.6539  156.4318 LP  0  0  0  0  0  0  0  0  0  0  0  0  # atno 17394 bound_to 11000
  140.4805  134.6669  157.5169 LP  0  0  0  0  0  0  0  0  0  0  0  0  # atno 17395 bound_to 11000

$$$$
