AV-unprocessed.smi:2888|AV-procd|sdf|11101|dock2
  -GOLD-   2272015573D 1   1.00000     0.00000
 Structure written by MMmdl.
 33 35  0  0  0  0  0  0  0  0  1 V2000
  154.2225  141.1728  161.4673 C   0  0  0  0  0  0  0  0  0  0  0  0
  153.3710  141.5763  160.2827 C   0  0  0  0  0  0  0  0  0  0  0  0
  152.9633  142.9122  160.0857 C   0  0  0  0  0  0  0  0  0  0  0  0
  152.1728  143.1568  158.9433 C   0  0  0  0  0  0  0  0  0  0  0  0
  151.6693  144.5456  158.6117 C   0  0  0  0  0  0  0  0  0  0  0  0
  151.8303  142.1675  158.0883 N   0  0  0  0  0  0  0  0  0  0  0  0
  152.2745  140.9402  158.3706 C   0  0  0  0  0  0  0  0  0  0  0  0
  151.9134  139.9563  157.4687 N   0  0  0  0  0  0  0  0  0  0  0  0
  151.7969  140.1654  156.0301 C   0  0  1  0  0  0  0  0  0  0  0  0
  152.5119  139.0946  155.2032 C   0  0  0  0  0  0  0  0  0  0  0  0
  151.3927  138.6255  154.2623 C   0  0  1  0  0  0  0  0  0  0  0  0
  150.3784  137.7373  154.9938 C   0  0  0  0  0  0  0  0  0  0  0  0
  149.6417  138.7569  155.8600 C   0  0  0  0  0  0  0  0  0  0  0  0
  150.3571  140.0674  155.4882 C   0  0  2  0  0  0  0  0  0  0  0  0
  150.6367  139.8170  154.1210 O   0  0  0  0  0  0  0  0  0  0  0  0
  153.0250  140.5932  159.4231 N   0  0  0  0  0  0  0  0  0  0  0  0
  154.3619  142.0072  162.1549 H   0  0  0  0  0  0  0  0  0  0  0  0
  155.2043  140.8395  161.1305 H   0  0  0  0  0  0  0  0  0  0  0  0
  153.7505  140.3565  162.0150 H   0  0  0  0  0  0  0  0  0  0  0  0
  153.2405  143.7015  160.7692 H   0  0  0  0  0  0  0  0  0  0  0  0
  151.8763  145.2433  159.4238 H   0  0  0  0  0  0  0  0  0  0  0  0
  150.5924  144.5307  158.4427 H   0  0  0  0  0  0  0  0  0  0  0  0
  152.1546  144.9176  157.7092 H   0  0  0  0  0  0  0  0  0  0  0  0
  151.5229  139.1091  157.8539 H   0  0  0  0  0  0  0  0  0  0  0  0
  152.2148  141.1407  155.7761 H   0  0  0  0  0  0  0  0  0  0  0  0
  153.3344  139.5381  154.6409 H   0  0  0  0  0  0  0  0  0  0  0  0
  152.9139  138.2734  155.7983 H   0  0  0  0  0  0  0  0  0  0  0  0
  151.7509  138.2052  153.3222 H   0  0  0  0  0  0  0  0  0  0  0  0
  149.6917  137.2687  154.2882 H   0  0  0  0  0  0  0  0  0  0  0  0
  150.8581  136.9514  155.5782 H   0  0  0  0  0  0  0  0  0  0  0  0
  148.5891  138.8026  155.5785 H   0  0  0  0  0  0  0  0  0  0  0  0
  149.6937  138.5276  156.9245 H   0  0  0  0  0  0  0  0  0  0  0  0
  149.7573  140.9609  155.6625 H   0  0  0  0  0  0  0  0  0  0  0  0
  1  2  1  0  0  0  0
  1 17  1  0  0  0  0
  1 18  1  0  0  0  0
  1 19  1  0  0  0  0
  2 16  1  0  0  0  0
  2  3  2  0  0  0  0
  3  4  1  0  0  0  0
  3 20  1  0  0  0  0
  4  5  1  0  0  0  0
  4  6  2  0  0  0  0
  5 21  1  0  0  0  0
  5 22  1  0  0  0  0
  5 23  1  0  0  0  0
  6  7  1  0  0  0  0
  7  8  1  0  0  0  0
  7 16  2  0  0  0  0
  8  9  1  0  0  0  0
  8 24  1  0  0  0  0
  9 14  1  0  0  0  0
  9 10  1  0  0  0  0
  9 25  1  0  0  0  0
 10 11  1  0  0  0  0
 10 26  1  0  0  0  0
 10 27  1  0  0  0  0
 11 15  1  0  0  0  0
 11 12  1  0  0  0  0
 11 28  1  0  0  0  0
 12 13  1  0  0  0  0
 12 29  1  0  0  0  0
 12 30  1  0  0  0  0
 13 14  1  0  0  0  0
 13 31  1  0  0  0  0
 13 32  1  0  0  0  0
 14 15  1  0  0  0  0
 14 33  1  0  0  0  0
M  END
> <s_m_source_file>
AV-unprocessed.smi

> <i_m_source_file_index>
2888

> <i_lp_mmshare_version>
43012

> <i_f3d_flags>
0

> <s_epik_input>
W0NIM11jMVtjSF1jKFtDSDNdKW5jKG4xKVtOSF1bQ0BIXShbQ0gyXVtDQEBIXTIzKVtDQEBIXShPMylbQ0gyXVtDSDJdMg==

> <s_epik_cmdline>
J2VwaWtfcHl0aG9uJywgJy1waCcsICc3LjAnLCAnLXRuJywgJzgnLCAnLW1hJywgJzIwMCcsICctbWV0YWxfYmluZGluZycsICctaW1hZScsICc8aW5maWxlLm1hZT4nLCAnLW9tYWUnLCAnPG91dGZpbGUubWFlPic=

> <r_lp_tautomer_probability>
1

> <r_epik_Ionization_Penalty>
0.00890508

> <r_epik_Ionization_Penalty_Charging>
0

> <r_epik_Ionization_Penalty_Neutral>
0.00890508

> <r_epik_State_Penalty>
0.0067342

> <r_epik_Charging_Adjusted_Penalty>
0.0067342

> <i_epik_Tot_Q>
0

> <i_epik_Tot_abs_Q>
0

> <r_epik_Metal_State_Penalty>
0.00663442

> <b_epik_Metal_Only>
0

> <s_lp_Force_Field>
OPLS_2005

> <r_lp_Energy>
31.8734

> <b_lp_Chiralities_Consistent>
1

> <s_lp_Variant>
AV-unprocessed.smi:2888-2

> <Gold.Version>
5.8.1

> <Gold.Id.Protein>
6NUR|6NUR_protein|mol2

> <Gold.PLP.Fitness>
39.0267

> <Gold.PLP.PLP>
-36.7083

> <Gold.PLP.part.hbond>
-0.8614

> <Gold.PLP.part.metal>
0.0000

> <Gold.PLP.part.buried>
-4.4835

> <Gold.PLP.part.nonpolar>
-31.7851

> <Gold.PLP.part.repulsive>
0.3583

> <Gold.PLP.ligand.clash>
0.0000

> <Gold.PLP.ligand.torsion>
0.3455

> <Gold.PLP.Chemscore.Hbond>
1.0000

> <Gold.PLP.Chemscore.CHOScore>
0.0000

> <Gold.PLP.Chemscore.Metal>
0.0000

> <Gold.Chemscore.Hbonds>
donor molecule, donor type, donor heavy atom, donor atom, acceptor molecule, acceptor atom, score
      P1  H  7989  7998       L1    15  1.00

> <Gold.PLP.Chemscore.Internal.Correction>
0.0095

> <Gold.Rescore>
     Score         DG    S(hbond)    S(metal)    S(lipo)     H(rot)  DE(clash)    DE(int)     intcor
     16.34     -16.68       0.81        0.00      94.60       1.00       0.10       0.24       ----

> <Gold.Chemscore.Fitness>
16.3439

> <Gold.Chemscore.DG>
-16.6789

> <Gold.Chemscore.ZeroCoef>
-5.4800

> <Gold.Chemscore.Hbond>
0.8055

> <Gold.Chemscore.Metal>
0.0000

> <Gold.Chemscore.Lipo>
94.6040

> <Gold.Chemscore.Internal_Hbond>
0.0000

> <Gold.Chemscore.DEClash>
0.0997

> <Gold.Chemscore.DEInternal>
0.2352

> <Gold.Chemscore.Rot>
1.0000

> <Gold.Chemscore.Internal.Correction>
   9.000000E+99

> <Gold.Chemscore.Hbonds>
donor molecule, donor type, donor heavy atom, donor atom, acceptor molecule, acceptor atom, score
      P1  H  7989  7998       L1    15  0.43

> <Gold.Chemscore.Hbond.Weighted>
-2.6902

> <Gold.Chemscore.Metal.Weighted>
-0.0000

> <Gold.Chemscore.Lipo.Weighted>
-11.0687

> <Gold.Chemscore.Internal_Hbond.Weighted>
0.0000

> <Gold.Chemscore.DEClash.Weighted>
0.0997

> <Gold.Chemscore.DEInternal.Weighted>
0.2352

> <Gold.Chemscore.Rot.Weighted>
2.5600

> <Gold.Chemscore.Internal.Correction.Weighted>
   9.000000E+99

> <Gold.Protein.RotatedTorsions>
[ 6907 6896 6895 6894 ] final  -88.32 input  -60.11 | X-H torsion
[ 7974 7965 7964 7962 ] final  -52.50 input  175.53 | X-H torsion
[ 8008 7997 7996 7995 ] final  149.43 input   59.86 | X-H torsion
[ 10167 10162 10161 10158 ] final  110.69 input  -65.29 | X-H torsion
[ 10718 10713 10712 10709 ] final  -11.88 input   66.30 | X-H torsion
[ 10763 10752 10751 10750 ] final  -63.20 input  -60.55 | X-H torsion
[ 11005 11000 10999 10996 ] final   47.82 input  -57.11 | X-H torsion

> <Gold.Protein.ActiveResidues>
 VAL166  LYS551  ARG553  GLY616  TRP617  ASP618  TYR619  PRO620  LYS621  CYS622 
 ASP623  PHE694  ASN695  SER759  ASP760  ASP761  ALA762  ILE779  LEU786  VAL792 
 PHE793  MET794  SER795  GLU796  ALA797  LYS798  CYS799  TRP800  GLU811  SER814 

> <Gold.Protein.RotatedAtoms>
  150.6868  134.2759  159.4607 H   0  0  0  0  0  0  0  0  0  0  0  0  # atno 6907 bound_to 6896
  152.0678  134.9551  160.0584 H   0  0  0  0  0  0  0  0  0  0  0  0  # atno 6908 bound_to 6896
  152.0952  133.4186  159.4599 H   0  0  0  0  0  0  0  0  0  0  0  0  # atno 6909 bound_to 6896
  145.9073  140.7945  142.9713 H   0  0  0  0  0  0  0  0  0  0  0  0  # atno 7974 bound_to 7965
  156.2755  140.2102  156.5856 H   0  0  0  0  0  0  0  0  0  0  0  0  # atno 8008 bound_to 7997
  154.7023  140.0520  157.0494 H   0  0  0  0  0  0  0  0  0  0  0  0  # atno 8009 bound_to 7997
  155.0717  140.3177  155.4631 H   0  0  0  0  0  0  0  0  0  0  0  0  # atno 8010 bound_to 7997
  139.6668  144.7127  151.1761 H   0  0  0  0  0  0  0  0  0  0  0  0  # atno 10167 bound_to 10162
  156.6526  130.4959  149.6057 H   0  0  0  0  0  0  0  0  0  0  0  0  # atno 10718 bound_to 10713
  154.3114  135.6215  153.5467 H   0  0  0  0  0  0  0  0  0  0  0  0  # atno 10763 bound_to 10752
  152.9829  135.5702  154.5173 H   0  0  0  0  0  0  0  0  0  0  0  0  # atno 10764 bound_to 10752
  154.4823  135.2863  155.1537 H   0  0  0  0  0  0  0  0  0  0  0  0  # atno 10765 bound_to 10752
  140.1245  134.4786  155.8570 H   0  0  0  0  0  0  0  0  0  0  0  0  # atno 11005 bound_to 11000
  144.6740  140.1770  143.7409 LP  0  0  0  0  0  0  0  0  0  0  0  0  # atno 17320 bound_to 7965
  145.8716  139.2275  143.1658 LP  0  0  0  0  0  0  0  0  0  0  0  0  # atno 17321 bound_to 7965
  140.7602  143.5906  150.8800 LP  0  0  0  0  0  0  0  0  0  0  0  0  # atno 17342 bound_to 10162
  139.9568  143.6209  152.3013 LP  0  0  0  0  0  0  0  0  0  0  0  0  # atno 17343 bound_to 10162
  156.2072  130.6657  151.1231 LP  0  0  0  0  0  0  0  0  0  0  0  0  # atno 17370 bound_to 10713
  157.7136  131.0721  150.6411 LP  0  0  0  0  0  0  0  0  0  0  0  0  # atno 17371 bound_to 10713
  141.2158  133.6773  156.6952 LP  0  0  0  0  0  0  0  0  0  0  0  0  # atno 17394 bound_to 11000
  140.2922  134.8231  157.4026 LP  0  0  0  0  0  0  0  0  0  0  0  0  # atno 17395 bound_to 11000

$$$$
