AV-unprocessed.smi:2293|AV-procd|sdf|9215|dock8
  -GOLD-   2272012433D 1   1.00000     0.00000
 Structure written by MMmdl.
 34 35  0  0  0  0  0  0  0  0  1 V2000
  152.4974  143.6972  161.0762 C   0  0  0  0  0  0  0  0  0  0  0  0
  152.1407  142.6429  160.0434 C   0  0  0  0  0  0  0  0  0  0  0  0
  150.9453  142.8561  159.3514 N   0  0  0  0  0  0  0  0  0  0  0  0
  150.5617  142.0104  158.4520 C   0  0  0  0  0  0  0  0  0  0  0  0
  151.3163  140.8657  158.1441 N   0  0  0  0  0  0  0  0  0  0  0  0
  150.7708  139.9864  157.0952 C   0  0  0  0  0  0  0  0  0  0  0  0
  150.8699  140.6178  155.6878 C   0  0  1  0  0  0  0  0  0  0  0  0
  151.9350  140.0103  154.9843 O   0  0  0  0  0  0  0  0  0  0  0  0
  149.5594  140.4687  154.9301 C   0  0  0  0  0  0  0  0  0  0  0  0
  149.1193  139.1976  154.4984 C   0  0  0  0  0  0  0  0  0  0  0  0
  147.9021  139.0660  153.8019 C   0  0  0  0  0  0  0  0  0  0  0  0
  147.1166  140.2037  153.5351 C   0  0  0  0  0  0  0  0  0  0  0  0
  147.5476  141.4726  153.9671 C   0  0  0  0  0  0  0  0  0  0  0  0
  146.7912  142.5667  153.7137 F   0  0  0  0  0  0  0  0  0  0  0  0
  148.7649  141.6047  154.6634 C   0  0  0  0  0  0  0  0  0  0  0  0
  152.4944  140.5824  158.7714 C   0  0  0  0  0  0  0  0  0  0  0  0
  153.1512  139.5769  158.4954 O   0  0  0  0  0  0  0  0  0  0  0  0
  152.9195  141.5554  159.7910 C   0  0  0  0  0  0  0  0  0  0  0  0
  154.2314  141.2725  160.5124 C   0  0  0  0  0  0  0  0  0  0  0  0
  153.4476  144.1697  160.8270 H   0  0  0  0  0  0  0  0  0  0  0  0
  152.5787  143.2494  162.0669 H   0  0  0  0  0  0  0  0  0  0  0  0
  151.7383  144.4789  161.1246 H   0  0  0  0  0  0  0  0  0  0  0  0
  149.6409  142.1330  157.8791 H   0  0  0  0  0  0  0  0  0  0  0  0
  151.2315  138.9967  157.1073 H   0  0  0  0  0  0  0  0  0  0  0  0
  149.7205  139.7926  157.3238 H   0  0  0  0  0  0  0  0  0  0  0  0
  151.0970  141.6815  155.7717 H   0  0  0  0  0  0  0  0  0  0  0  0
  152.7366  140.1653  155.4603 H   0  0  0  0  0  0  0  0  0  0  0  0
  149.7140  138.3190  154.7022 H   0  0  0  0  0  0  0  0  0  0  0  0
  147.5708  138.0919  153.4734 H   0  0  0  0  0  0  0  0  0  0  0  0
  146.1834  140.1029  153.0006 H   0  0  0  0  0  0  0  0  0  0  0  0
  149.0852  142.5827  154.9918 H   0  0  0  0  0  0  0  0  0  0  0  0
  154.1708  140.3218  161.0429 H   0  0  0  0  0  0  0  0  0  0  0  0
  154.4955  142.0377  161.2401 H   0  0  0  0  0  0  0  0  0  0  0  0
  155.0494  141.2084  159.7942 H   0  0  0  0  0  0  0  0  0  0  0  0
  1  2  1  0  0  0  0
  1 20  1  0  0  0  0
  1 21  1  0  0  0  0
  1 22  1  0  0  0  0
  2 18  2  0  0  0  0
  2  3  1  0  0  0  0
  3  4  2  0  0  0  0
  4  5  1  0  0  0  0
  4 23  1  0  0  0  0
  5  6  1  0  0  0  0
  5 16  1  0  0  0  0
  6  7  1  0  0  0  0
  6 24  1  0  0  0  0
  6 25  1  0  0  0  0
  7  8  1  0  0  0  0
  7  9  1  0  0  0  0
  7 26  1  0  0  0  0
  8 27  1  0  0  0  0
  9 15  1  0  0  0  0
  9 10  2  0  0  0  0
 10 11  1  0  0  0  0
 10 28  1  0  0  0  0
 11 12  2  0  0  0  0
 11 29  1  0  0  0  0
 12 13  1  0  0  0  0
 12 30  1  0  0  0  0
 13 14  1  0  0  0  0
 13 15  2  0  0  0  0
 15 31  1  0  0  0  0
 16 17  2  0  0  0  0
 16 18  1  0  0  0  0
 18 19  1  0  0  0  0
 19 32  1  0  0  0  0
 19 33  1  0  0  0  0
 19 34  1  0  0  0  0
M  END
> <s_m_source_file>
AV-unprocessed.smi

> <i_m_source_file_index>
2293

> <i_lp_mmshare_version>
43012

> <i_f3d_flags>
0

> <s_epik_input>
W0NIM11jMW5bY0hdbihjKD1PKWMxW0NIM10pW0NIMl1bQ0BIXShbT0hdKWMyW2NIXVtjSF1bY0hdYyhGKVtjSF0y

> <s_epik_cmdline>
J2VwaWtfcHl0aG9uJywgJy1waCcsICc3LjAnLCAnLXRuJywgJzgnLCAnLW1hJywgJzIwMCcsICctbWV0YWxfYmluZGluZycsICctaW1hZScsICc8aW5maWxlLm1hZT4nLCAnLW9tYWUnLCAnPG91dGZpbGUubWFlPic=

> <r_lp_tautomer_probability>
1

> <r_epik_Ionization_Penalty>
5.08222e-05

> <r_epik_Ionization_Penalty_Charging>
7.56727e-08

> <r_epik_Ionization_Penalty_Neutral>
5.07465e-05

> <r_epik_State_Penalty>
-0

> <r_epik_Charging_Adjusted_Penalty>
7.56727e-08

> <i_epik_Tot_Q>
0

> <i_epik_Tot_abs_Q>
0

> <r_epik_Metal_State_Penalty>
-0

> <b_epik_Metal_Only>
0

> <s_lp_Force_Field>
OPLS_2005

> <r_lp_Energy>
19.6901

> <b_lp_Chiralities_Consistent>
1

> <s_lp_Variant>
AV-unprocessed.smi:2293-2

> <Gold.Version>
5.8.1

> <Gold.Id.Protein>
6NUR|6NUR_protein|mol2

> <Gold.PLP.Fitness>
47.1083

> <Gold.PLP.PLP>
-43.4359

> <Gold.PLP.part.hbond>
-2.0763

> <Gold.PLP.part.metal>
0.0000

> <Gold.PLP.part.buried>
-3.7060

> <Gold.PLP.part.nonpolar>
-36.9016

> <Gold.PLP.part.repulsive>
0.0223

> <Gold.PLP.ligand.clash>
0.0000

> <Gold.PLP.ligand.torsion>
0.8932

> <Gold.PLP.Chemscore.Hbond>
1.8160

> <Gold.PLP.Chemscore.CHOScore>
0.0000

> <Gold.PLP.Chemscore.Metal>
0.0000

> <Gold.Chemscore.Hbonds>
donor molecule, donor type, donor heavy atom, donor atom, acceptor molecule, acceptor atom, score
      P1  H  7989  7998       L1     8  0.70
      P1  H  7997  8008       L1    17  0.78

> <Gold.PLP.Chemscore.Internal.Correction>
0.0110

> <Gold.Rescore>
     Score         DG    S(hbond)    S(metal)    S(lipo)     H(rot)  DE(clash)    DE(int)     intcor
     14.26     -15.30       1.25        0.00      92.30       2.02       0.20       0.83       ----

> <Gold.Chemscore.Fitness>
14.2643

> <Gold.Chemscore.DG>
-15.2985

> <Gold.Chemscore.ZeroCoef>
-5.4800

> <Gold.Chemscore.Hbond>
1.2533

> <Gold.Chemscore.Metal>
0.0000

> <Gold.Chemscore.Lipo>
92.2970

> <Gold.Chemscore.Internal_Hbond>
0.0000

> <Gold.Chemscore.DEClash>
0.2003

> <Gold.Chemscore.DEInternal>
0.8339

> <Gold.Chemscore.Rot>
2.0181

> <Gold.Chemscore.Internal.Correction>
   9.000000E+99

> <Gold.Chemscore.Hbonds>
donor molecule, donor type, donor heavy atom, donor atom, acceptor molecule, acceptor atom, score
      P1  H  7989  7998       L1     8  0.10
      P1  H  7997  8008       L1    17  0.54

> <Gold.Chemscore.Hbond.Weighted>
-4.1861

> <Gold.Chemscore.Metal.Weighted>
-0.0000

> <Gold.Chemscore.Lipo.Weighted>
-10.7987

> <Gold.Chemscore.Internal_Hbond.Weighted>
0.0000

> <Gold.Chemscore.DEClash.Weighted>
0.2003

> <Gold.Chemscore.DEInternal.Weighted>
0.8339

> <Gold.Chemscore.Rot.Weighted>
5.1663

> <Gold.Chemscore.Internal.Correction.Weighted>
   9.000000E+99

> <Gold.Protein.RotatedTorsions>
[ 6907 6896 6895 6894 ] final  -24.56 input  -60.11 | X-H torsion
[ 7974 7965 7964 7962 ] final   59.94 input  175.53 | X-H torsion
[ 8008 7997 7996 7995 ] final  -80.38 input   59.86 | X-H torsion
[ 10167 10162 10161 10158 ] final -151.71 input  -65.29 | X-H torsion
[ 10718 10713 10712 10709 ] final   50.78 input   66.30 | X-H torsion
[ 10763 10752 10751 10750 ] final  -45.73 input  -60.55 | X-H torsion
[ 11005 11000 10999 10996 ] final  -11.86 input  -57.11 | X-H torsion

> <Gold.Protein.ActiveResidues>
 VAL166  LYS551  ARG553  GLY616  TRP617  ASP618  TYR619  PRO620  LYS621  CYS622 
 ASP623  PHE694  ASN695  SER759  ASP760  ASP761  ALA762  ILE779  LEU786  VAL792 
 PHE793  MET794  SER795  GLU796  ALA797  LYS798  CYS799  TRP800  GLU811  SER814 

> <Gold.Protein.RotatedAtoms>
  151.1877  135.0389  159.8819 H   0  0  0  0  0  0  0  0  0  0  0  0  # atno 6907 bound_to 6896
  152.5441  134.0991  159.8320 H   0  0  0  0  0  0  0  0  0  0  0  0  # atno 6908 bound_to 6896
  151.1116  133.5122  159.2637 H   0  0  0  0  0  0  0  0  0  0  0  0  # atno 6909 bound_to 6896
  145.9015  139.3585  143.0589 H   0  0  0  0  0  0  0  0  0  0  0  0  # atno 7974 bound_to 7965
  154.5877  140.0664  156.9195 H   0  0  0  0  0  0  0  0  0  0  0  0  # atno 8008 bound_to 7997
  155.2350  140.3340  155.4280 H   0  0  0  0  0  0  0  0  0  0  0  0  # atno 8009 bound_to 7997
  156.2234  140.1808  156.7406 H   0  0  0  0  0  0  0  0  0  0  0  0  # atno 8010 bound_to 7997
  139.7244  143.8906  152.2514 H   0  0  0  0  0  0  0  0  0  0  0  0  # atno 10167 bound_to 10162
  157.4918  130.8380  149.8211 H   0  0  0  0  0  0  0  0  0  0  0  0  # atno 10718 bound_to 10713
  154.0333  135.6654  153.4783 H   0  0  0  0  0  0  0  0  0  0  0  0  # atno 10763 bound_to 10752
  153.0531  135.5072  154.7912 H   0  0  0  0  0  0  0  0  0  0  0  0  # atno 10764 bound_to 10752
  154.6864  135.3054  154.9506 H   0  0  0  0  0  0  0  0  0  0  0  0  # atno 10765 bound_to 10752
  140.7597  133.8525  155.9114 H   0  0  0  0  0  0  0  0  0  0  0  0  # atno 11005 bound_to 11000
  145.8785  140.9377  143.0614 LP  0  0  0  0  0  0  0  0  0  0  0  0  # atno 17320 bound_to 7965
  144.6736  140.0748  143.7471 LP  0  0  0  0  0  0  0  0  0  0  0  0  # atno 17321 bound_to 7965
  139.8811  144.7017  150.8876 LP  0  0  0  0  0  0  0  0  0  0  0  0  # atno 17342 bound_to 10162
  140.7760  143.3660  151.1738 LP  0  0  0  0  0  0  0  0  0  0  0  0  # atno 17343 bound_to 10162
  156.0177  130.3807  150.2057 LP  0  0  0  0  0  0  0  0  0  0  0  0  # atno 17370 bound_to 10713
  157.0246  130.9989  151.3330 LP  0  0  0  0  0  0  0  0  0  0  0  0  # atno 17371 bound_to 10713
  140.9674  134.1576  157.4604 LP  0  0  0  0  0  0  0  0  0  0  0  0  # atno 17394 bound_to 11000
  139.8773  134.9966  156.5806 LP  0  0  0  0  0  0  0  0  0  0  0  0  # atno 17395 bound_to 11000

$$$$
