AV-unprocessed.smi:36|AV-procd|sdf|283|dock6
  -GOLD-   2262016 63D 1   1.00000     0.00000
 Structure written by MMmdl.
 64 67  0  0  0  0  0  0  0  0  1 V2000
  152.2060  127.5522  166.8377 C   0  0  0  0  0  0  0  0  0  0  0  0
  150.8287  127.8698  166.2322 C   0  0  0  0  0  0  0  0  0  0  0  0
  149.9841  126.5872  166.1529 C   0  0  0  0  0  0  0  0  0  0  0  0
  150.1046  128.9143  167.0980 C   0  0  0  0  0  0  0  0  0  0  0  0
  151.0567  128.5761  164.4721 Si  0  0  0  0  0  0  0  0  0  0  0  0
  152.1298  127.4212  163.4107 C   0  0  0  0  0  0  0  0  0  0  0  0
  149.3836  128.8626  163.6193 C   0  0  0  0  0  0  0  0  0  0  0  0
  151.8445  130.0676  164.6093 O   0  0  0  0  0  0  0  0  0  0  0  0
  152.4405  130.7458  163.5225 C   0  0  0  0  0  0  0  0  0  0  0  0
  153.0169  132.0815  164.0164 C   0  0  2  0  0  0  0  0  0  0  0  0
  153.8927  132.6607  163.0567 O   0  0  0  0  0  0  0  0  0  0  0  0
  154.7861  133.5296  163.6901 C   0  0  1  0  0  0  0  0  0  0  0  0
  154.4307  134.9309  163.3153 N   0  0  0  0  0  0  0  0  0  0  0  0
  153.9299  135.9446  164.1044 C   0  0  0  0  0  0  0  0  0  0  0  0
  153.7153  137.0764  163.4884 N   0  0  0  0  0  0  0  0  0  0  0  0
  154.0999  136.8248  162.1774 C   0  0  0  0  0  0  0  0  0  0  0  0
  154.1258  137.6046  160.9919 C   0  0  0  0  0  0  0  0  0  0  0  0
  153.7016  138.8899  161.0149 N   0  0  0  0  0  0  0  0  0  0  0  0
  154.2484  140.0288  160.2985 C   0  0  0  0  0  0  0  0  0  0  0  0
  155.2746  139.9468  159.6226 O   0  0  0  0  0  0  0  0  0  0  0  0
  153.5364  141.3357  160.4964 C   0  0  0  0  0  0  0  0  0  0  0  0
  153.3350  141.8407  161.8008 C   0  0  0  0  0  0  0  0  0  0  0  0
  152.6861  143.0759  161.9952 C   0  0  0  0  0  0  0  0  0  0  0  0
  152.2396  143.8198  160.8870 C   0  0  0  0  0  0  0  0  0  0  0  0
  152.4455  143.3297  159.5837 C   0  0  0  0  0  0  0  0  0  0  0  0
  153.0946  142.0950  159.3878 C   0  0  0  0  0  0  0  0  0  0  0  0
  154.5832  137.0064  159.8601 N   0  0  0  0  0  0  0  0  0  0  0  0
  154.9860  135.7323  159.8873 C   0  0  0  0  0  0  0  0  0  0  0  0
  155.0127  134.8875  160.9206 N   0  0  0  0  0  0  0  0  0  0  0  0
  154.5538  135.4823  162.0593 C   0  0  0  0  0  0  0  0  0  0  0  0
  154.6302  133.3385  165.2055 C   0  0  0  0  0  0  0  0  0  0  0  0
  153.8532  132.0397  165.3002 C   0  0  2  0  0  0  0  0  0  0  0  0
  154.7333  130.9323  165.3311 O   0  0  0  0  0  0  0  0  0  0  0  0
  152.1114  127.1435  167.8443 H   0  0  0  0  0  0  0  0  0  0  0  0
  152.8268  128.4459  166.9041 H   0  0  0  0  0  0  0  0  0  0  0  0
  152.7456  126.8207  166.2357 H   0  0  0  0  0  0  0  0  0  0  0  0
  150.4775  125.8222  165.5529 H   0  0  0  0  0  0  0  0  0  0  0  0
  149.0104  126.7815  165.7020 H   0  0  0  0  0  0  0  0  0  0  0  0
  149.8103  126.1647  167.1432 H   0  0  0  0  0  0  0  0  0  0  0  0
  149.9359  128.5430  168.1093 H   0  0  0  0  0  0  0  0  0  0  0  0
  149.1327  129.1731  166.6760 H   0  0  0  0  0  0  0  0  0  0  0  0
  150.6829  129.8350  167.1786 H   0  0  0  0  0  0  0  0  0  0  0  0
  151.6780  126.4345  163.3123 H   0  0  0  0  0  0  0  0  0  0  0  0
  153.1200  127.2827  163.8439 H   0  0  0  0  0  0  0  0  0  0  0  0
  152.2670  127.8132  162.4035 H   0  0  0  0  0  0  0  0  0  0  0  0
  148.8225  127.9344  163.5152 H   0  0  0  0  0  0  0  0  0  0  0  0
  149.5119  129.2777  162.6200 H   0  0  0  0  0  0  0  0  0  0  0  0
  148.7606  129.5585  164.1805 H   0  0  0  0  0  0  0  0  0  0  0  0
  153.2047  130.1319  163.0452 H   0  0  0  0  0  0  0  0  0  0  0  0
  151.6707  130.9287  162.7726 H   0  0  0  0  0  0  0  0  0  0  0  0
  152.1948  132.7840  164.1634 H   0  0  0  0  0  0  0  0  0  0  0  0
  155.8005  133.3761  163.3204 H   0  0  0  0  0  0  0  0  0  0  0  0
  153.7229  135.8212  165.1573 H   0  0  0  0  0  0  0  0  0  0  0  0
  152.8836  139.0743  161.5771 H   0  0  0  0  0  0  0  0  0  0  0  0
  153.6736  141.2828  162.6622 H   0  0  0  0  0  0  0  0  0  0  0  0
  152.5328  143.4528  162.9957 H   0  0  0  0  0  0  0  0  0  0  0  0
  151.7432  144.7674  161.0362 H   0  0  0  0  0  0  0  0  0  0  0  0
  152.1089  143.9029  158.7324 H   0  0  0  0  0  0  0  0  0  0  0  0
  153.2515  141.7438  158.3782 H   0  0  0  0  0  0  0  0  0  0  0  0
  155.3357  135.3328  158.9468 H   0  0  0  0  0  0  0  0  0  0  0  0
  155.6000  133.3180  165.7040 H   0  0  0  0  0  0  0  0  0  0  0  0
  154.0410  134.1564  165.6239 H   0  0  0  0  0  0  0  0  0  0  0  0
  153.2246  132.0052  166.1906 H   0  0  0  0  0  0  0  0  0  0  0  0
  154.2598  130.1823  165.6577 H   0  0  0  0  0  0  0  0  0  0  0  0
  1  2  1  0  0  0  0
  1 34  1  0  0  0  0
  1 35  1  0  0  0  0
  1 36  1  0  0  0  0
  2  3  1  0  0  0  0
  2  4  1  0  0  0  0
  2  5  1  0  0  0  0
  3 37  1  0  0  0  0
  3 38  1  0  0  0  0
  3 39  1  0  0  0  0
  4 40  1  0  0  0  0
  4 41  1  0  0  0  0
  4 42  1  0  0  0  0
  5  6  1  0  0  0  0
  5  7  1  0  0  0  0
  5  8  1  0  0  0  0
  6 43  1  0  0  0  0
  6 44  1  0  0  0  0
  6 45  1  0  0  0  0
  7 46  1  0  0  0  0
  7 47  1  0  0  0  0
  7 48  1  0  0  0  0
  8  9  1  0  0  0  0
  9 10  1  0  0  0  0
  9 49  1  0  0  0  0
  9 50  1  0  0  0  0
 10 32  1  0  0  0  0
 10 11  1  0  0  0  0
 10 51  1  0  0  0  0
 11 12  1  0  0  0  0
 12 13  1  0  0  0  0
 12 31  1  0  0  0  0
 12 52  1  0  0  0  0
 13 30  1  0  0  0  0
 13 14  1  0  0  0  0
 14 15  2  0  0  0  0
 14 53  1  0  0  0  0
 15 16  1  0  0  0  0
 16 30  2  0  0  0  0
 16 17  1  0  0  0  0
 17 18  1  0  0  0  0
 17 27  2  0  0  0  0
 18 19  1  0  0  0  0
 18 54  1  0  0  0  0
 19 20  2  0  0  0  0
 19 21  1  0  0  0  0
 21 26  1  0  0  0  0
 21 22  2  0  0  0  0
 22 23  1  0  0  0  0
 22 55  1  0  0  0  0
 23 24  2  0  0  0  0
 23 56  1  0  0  0  0
 24 25  1  0  0  0  0
 24 57  1  0  0  0  0
 25 26  2  0  0  0  0
 25 58  1  0  0  0  0
 26 59  1  0  0  0  0
 27 28  1  0  0  0  0
 28 29  2  0  0  0  0
 28 60  1  0  0  0  0
 29 30  1  0  0  0  0
 31 32  1  0  0  0  0
 31 61  1  0  0  0  0
 31 62  1  0  0  0  0
 32 33  1  0  0  0  0
 32 63  1  0  0  0  0
 33 64  1  0  0  0  0
M  END
> <s_m_source_file>
AV-unprocessed.smi

> <i_m_source_file_index>
36

> <i_lp_mmshare_version>
43012

> <i_f3d_flags>
0

> <s_epik_input>
W0NIM11DKFtDSDNdKShbQ0gzXSlbU2ldKFtDSDNdKShbQ0gzXSlPW0NIMl1bQ0BASF0xT1tDQEhdKFtDSDJdW0NASF0xW09IXSluKFtjSF1uMiljKGMyMyluW2NIXW5jM1tOSF1DKD1PKWM0W2NIXVtjSF1bY0hdW2NIXVtjSF00

> <s_epik_cmdline>
J2VwaWtfcHl0aG9uJywgJy1waCcsICc3LjAnLCAnLXRuJywgJzgnLCAnLW1hJywgJzIwMCcsICctbWV0YWxfYmluZGluZycsICctaW1hZScsICc8aW5maWxlLm1hZT4nLCAnLW9tYWUnLCAnPG91dGZpbGUubWFlPic=

> <r_lp_tautomer_probability>
1

> <r_epik_Ionization_Penalty>
0.00150433

> <r_epik_Ionization_Penalty_Charging>
0

> <r_epik_Ionization_Penalty_Neutral>
0.00150433

> <r_epik_State_Penalty>
0.00724046

> <r_epik_Charging_Adjusted_Penalty>
0.00724046

> <i_epik_Tot_Q>
0

> <i_epik_Tot_abs_Q>
0

> <r_epik_Metal_State_Penalty>
0.323355

> <b_epik_Metal_Only>
0

> <s_epik_Chemistry_Notes>
This compound contains an acetal/aminal-like group ( X-CH(R)-Y where X, Y are N, S, or O) that may be acid/base labile, releasing an aldehyde.

> <s_lp_Force_Field>
OPLS_2005

> <r_lp_Energy>
37.4738

> <b_lp_Chiralities_Consistent>
1

> <s_lp_Variant>
AV-unprocessed.smi:36-5

> <Gold.Version>
5.8.1

> <Gold.Id.Protein>
6NUR|6NUR_protein|mol2

> <Gold.PLP.Fitness>
59.5234

> <Gold.PLP.PLP>
-59.8538

> <Gold.PLP.part.hbond>
-1.0000

> <Gold.PLP.part.metal>
0.0000

> <Gold.PLP.part.buried>
-6.7034

> <Gold.PLP.part.nonpolar>
-52.9125

> <Gold.PLP.part.repulsive>
0.1375

> <Gold.PLP.ligand.clash>
0.0000

> <Gold.PLP.ligand.torsion>
1.6944

> <Gold.PLP.Chemscore.Hbond>
0.9913

> <Gold.PLP.Chemscore.CHOScore>
0.0000

> <Gold.PLP.Chemscore.Metal>
0.0000

> <Gold.Chemscore.Hbonds>
donor molecule, donor type, donor heavy atom, donor atom, acceptor molecule, acceptor atom, score
      P1  H  7997  8008       L1    20  0.39

> <Gold.PLP.Chemscore.Internal.Correction>
0.0847

> <Gold.Rescore>
     Score         DG    S(hbond)    S(metal)    S(lipo)     H(rot)  DE(clash)    DE(int)     intcor
     16.89     -18.62       0.99        0.00     143.34       2.70       0.04       1.69       ----

> <Gold.Chemscore.Fitness>
16.8876

> <Gold.Chemscore.DG>
-18.6198

> <Gold.Chemscore.ZeroCoef>
-5.4800

> <Gold.Chemscore.Hbond>
0.9855

> <Gold.Chemscore.Metal>
0.0000

> <Gold.Chemscore.Lipo>
143.3384

> <Gold.Chemscore.Internal_Hbond>
0.0000

> <Gold.Chemscore.DEClash>
0.0448

> <Gold.Chemscore.DEInternal>
1.6875

> <Gold.Chemscore.Rot>
2.7041

> <Gold.Chemscore.Internal.Correction>
   9.000000E+99

> <Gold.Chemscore.Hbonds>
donor molecule, donor type, donor heavy atom, donor atom, acceptor molecule, acceptor atom, score
      P1  H  7997  8008       L1    20  0.36

> <Gold.Chemscore.Hbond.Weighted>
-3.2917

> <Gold.Chemscore.Metal.Weighted>
-0.0000

> <Gold.Chemscore.Lipo.Weighted>
-16.7706

> <Gold.Chemscore.Internal_Hbond.Weighted>
0.0000

> <Gold.Chemscore.DEClash.Weighted>
0.0448

> <Gold.Chemscore.DEInternal.Weighted>
1.6875

> <Gold.Chemscore.Rot.Weighted>
6.9225

> <Gold.Chemscore.Internal.Correction.Weighted>
   9.000000E+99

> <Gold.Protein.RotatedTorsions>
[ 6907 6896 6895 6894 ] final  -65.10 input  -60.11 | X-H torsion
[ 7974 7965 7964 7962 ] final    8.89 input  175.53 | X-H torsion
[ 8008 7997 7996 7995 ] final -122.01 input   59.86 | X-H torsion
[ 10167 10162 10161 10158 ] final -103.25 input  -65.29 | X-H torsion
[ 10718 10713 10712 10709 ] final   97.81 input   66.30 | X-H torsion
[ 10763 10752 10751 10750 ] final  -31.47 input  -60.55 | X-H torsion
[ 11005 11000 10999 10996 ] final  -39.76 input  -57.11 | X-H torsion

> <Gold.Protein.ActiveResidues>
 VAL166  LYS551  ARG553  GLY616  TRP617  ASP618  TYR619  PRO620  LYS621  CYS622 
 ASP623  PHE694  ASN695  SER759  ASP760  ASP761  ALA762  ILE779  LEU786  VAL792 
 PHE793  MET794  SER795  GLU796  ALA797  LYS798  CYS799  TRP800  GLU811  SER814 

> <Gold.Protein.RotatedAtoms>
  150.7544  134.6207  159.6134 H   0  0  0  0  0  0  0  0  0  0  0  0  # atno 6907 bound_to 6896
  152.3514  134.6997  160.0244 H   0  0  0  0  0  0  0  0  0  0  0  0  # atno 6908 bound_to 6896
  151.7417  133.3286  159.3404 H   0  0  0  0  0  0  0  0  0  0  0  0  # atno 6909 bound_to 6896
  146.2411  139.9866  142.8430 H   0  0  0  0  0  0  0  0  0  0  0  0  # atno 7974 bound_to 7965
  155.1574  140.0405  157.2835 H   0  0  0  0  0  0  0  0  0  0  0  0  # atno 8008 bound_to 7997
  154.6361  140.2536  155.7350 H   0  0  0  0  0  0  0  0  0  0  0  0  # atno 8009 bound_to 7997
  156.2509  140.2865  156.0734 H   0  0  0  0  0  0  0  0  0  0  0  0  # atno 8010 bound_to 7997
  140.2220  143.3669  152.0961 H   0  0  0  0  0  0  0  0  0  0  0  0  # atno 10167 bound_to 10162
  157.6906  131.0621  150.4701 H   0  0  0  0  0  0  0  0  0  0  0  0  # atno 10718 bound_to 10713
  153.7979  135.6892  153.4860 H   0  0  0  0  0  0  0  0  0  0  0  0  # atno 10763 bound_to 10752
  153.1707  135.4543  154.9897 H   0  0  0  0  0  0  0  0  0  0  0  0  # atno 10764 bound_to 10752
  154.8018  135.3341  154.7470 H   0  0  0  0  0  0  0  0  0  0  0  0  # atno 10765 bound_to 10752
  141.0126  133.6901  156.2231 H   0  0  0  0  0  0  0  0  0  0  0  0  # atno 11005 bound_to 11000
  145.1542  140.9639  143.4415 LP  0  0  0  0  0  0  0  0  0  0  0  0  # atno 17320 bound_to 7965
  145.0177  139.3453  143.6088 LP  0  0  0  0  0  0  0  0  0  0  0  0  # atno 17321 bound_to 7965
  139.5140  144.6942  151.5677 LP  0  0  0  0  0  0  0  0  0  0  0  0  # atno 17342 bound_to 10162
  140.6248  143.9190  150.6555 LP  0  0  0  0  0  0  0  0  0  0  0  0  # atno 17343 bound_to 10162
  156.5039  130.4123  149.6338 LP  0  0  0  0  0  0  0  0  0  0  0  0  # atno 17370 bound_to 10713
  156.3303  130.7328  151.2256 LP  0  0  0  0  0  0  0  0  0  0  0  0  # atno 17371 bound_to 10713
  140.6709  134.4869  157.5587 LP  0  0  0  0  0  0  0  0  0  0  0  0  # atno 17394 bound_to 11000
  139.9098  134.8369  156.1569 LP  0  0  0  0  0  0  0  0  0  0  0  0  # atno 17395 bound_to 11000

$$$$
