AV-unprocessed.smi:930|AV-procd|sdf|4197|dock5
  -GOLD-   22720 2103D 1   1.00000     0.00000
 Structure written by MMmdl.
 31 32  0  0  0  0  0  0  0  0  2 V2000
  144.7522  142.8276  155.0027 C   0  0  0  0  0  0  0  0  0  0  0  0
  146.1564  142.3796  155.2222 C   0  0  0  0  0  0  0  0  0  0  0  0
  146.6857  142.2331  156.4390 N   0  0  0  0  0  0  0  0  0  0  0  0
  148.0040  141.8034  156.3872 N   0  0  0  0  0  0  0  0  0  0  0  0
  148.4495  141.6222  155.1360 C   0  0  0  0  0  0  0  0  0  0  0  0
  149.7004  141.2112  154.8700 N   0  5  0  0  0  0  0  0  0  0  0  0
  150.6538  141.2837  155.8268 C   0  0  0  0  0  0  0  0  0  0  0  0
  151.4243  140.3801  156.1594 O   0  0  0  0  0  0  0  0  0  0  0  0
  150.7184  142.4774  156.4348 N   0  0  0  0  0  0  0  0  0  0  0  0
  151.6483  142.8543  157.4965 C   0  0  0  0  0  0  0  0  0  0  0  0
  151.3400  142.0763  158.7930 C   0  0  0  0  0  0  0  0  0  0  0  0
  152.2593  142.5161  159.9440 C   0  0  0  0  0  0  0  0  0  0  0  0
  152.1753  144.0325  160.1785 C   0  0  0  0  0  0  0  0  0  0  0  0
  152.4870  144.8101  158.8904 C   0  0  0  0  0  0  0  0  0  0  0  0
  151.5663  144.3732  157.7392 C   0  0  0  0  0  0  0  0  0  0  0  0
  147.2478  141.9988  153.9012 S   0  0  0  0  0  0  0  0  0  0  0  0
  144.0680  141.9915  155.1482 H   0  0  0  0  0  0  0  0  0  0  0  0
  144.6307  143.2080  153.9886 H   0  0  0  0  0  0  0  0  0  0  0  0
  144.4940  143.6205  155.7051 H   0  0  0  0  0  0  0  0  0  0  0  0
  150.0645  143.1842  156.1318 H   0  0  0  0  0  0  0  0  0  0  0  0
  152.6656  142.6195  157.1777 H   0  0  0  0  0  0  0  0  0  0  0  0
  150.2995  142.2351  159.0798 H   0  0  0  0  0  0  0  0  0  0  0  0
  151.4530  141.0045  158.6261 H   0  0  0  0  0  0  0  0  0  0  0  0
  151.9921  141.9831  160.8569 H   0  0  0  0  0  0  0  0  0  0  0  0
  153.2885  142.2383  159.7135 H   0  0  0  0  0  0  0  0  0  0  0  0
  151.1763  144.2929  160.5304 H   0  0  0  0  0  0  0  0  0  0  0  0
  152.8679  144.3260  160.9676 H   0  0  0  0  0  0  0  0  0  0  0  0
  152.3790  145.8806  159.0667 H   0  0  0  0  0  0  0  0  0  0  0  0
  153.5275  144.6464  158.6076 H   0  0  0  0  0  0  0  0  0  0  0  0
  151.8358  144.9116  156.8299 H   0  0  0  0  0  0  0  0  0  0  0  0
  150.5386  144.6556  157.9723 H   0  0  0  0  0  0  0  0  0  0  0  0
  1  2  1  0  0  0  0
  1 17  1  0  0  0  0
  1 18  1  0  0  0  0
  1 19  1  0  0  0  0
  2 16  1  0  0  0  0
  2  3  2  0  0  0  0
  3  4  1  0  0  0  0
  4  5  2  0  0  0  0
  5  6  1  0  0  0  0
  5 16  1  0  0  0  0
  6  7  1  0  0  0  0
  7  8  2  0  0  0  0
  7  9  1  0  0  0  0
  9 10  1  0  0  0  0
  9 20  1  0  0  0  0
 10 15  1  0  0  0  0
 10 11  1  0  0  0  0
 10 21  1  0  0  0  0
 11 12  1  0  0  0  0
 11 22  1  0  0  0  0
 11 23  1  0  0  0  0
 12 13  1  0  0  0  0
 12 24  1  0  0  0  0
 12 25  1  0  0  0  0
 13 14  1  0  0  0  0
 13 26  1  0  0  0  0
 13 27  1  0  0  0  0
 14 15  1  0  0  0  0
 14 28  1  0  0  0  0
 14 29  1  0  0  0  0
 15 30  1  0  0  0  0
 15 31  1  0  0  0  0
M  CHG  1   6  -1
M  END
> <s_m_source_file>
AV-unprocessed.smi

> <i_m_source_file_index>
930

> <i_lp_mmshare_version>
43012

> <i_f3d_flags>
0

> <s_epik_input>
W0NIM11jMW5uYyhzMSlbTkhdQyg9TylbTkhdW0NIXTJbQ0gyXVtDSDJdW0NIMl1bQ0gyXVtDSDJdMg==

> <s_epik_cmdline>
J2VwaWtfcHl0aG9uJywgJy1waCcsICc3LjAnLCAnLXRuJywgJzgnLCAnLW1hJywgJzIwMCcsICctbWV0YWxfYmluZGluZycsICctaW1hZScsICc8aW5maWxlLm1hZT4nLCAnLW9tYWUnLCAnPG91dGZpbGUubWFlPic=

> <r_lp_tautomer_probability>
1

> <r_epik_Ionization_Penalty>
4.57239

> <r_epik_Ionization_Penalty_Charging>
4.41779

> <r_epik_Ionization_Penalty_Neutral>
0.154599

> <r_epik_State_Penalty>
4.41745

> <r_epik_Charging_Adjusted_Penalty>
8.83524

> <i_epik_Tot_Q>
-1

> <i_epik_Tot_abs_Q>
1

> <r_epik_Metal_State_Penalty>
0.779681

> <b_epik_Metal_Only>
1

> <s_lp_Force_Field>
OPLS_2005

> <r_lp_Energy>
6.76033

> <b_lp_Chiralities_Consistent>
1

> <s_lp_Variant>
AV-unprocessed.smi:930-2

> <Gold.Version>
5.8.1

> <Gold.Id.Protein>
6NUR|6NUR_protein|mol2

> <Gold.PLP.Fitness>
36.5974

> <Gold.PLP.PLP>
-34.7188

> <Gold.PLP.part.hbond>
-1.7097

> <Gold.PLP.part.metal>
0.0000

> <Gold.PLP.part.buried>
-5.7118

> <Gold.PLP.part.nonpolar>
-28.2223

> <Gold.PLP.part.repulsive>
0.7705

> <Gold.PLP.ligand.clash>
0.0000

> <Gold.PLP.ligand.torsion>
0.5719

> <Gold.PLP.Chemscore.Hbond>
1.0055

> <Gold.PLP.Chemscore.CHOScore>
0.0000

> <Gold.PLP.Chemscore.Metal>
0.0000

> <Gold.Chemscore.Hbonds>
donor molecule, donor type, donor heavy atom, donor atom, acceptor molecule, acceptor atom, score
      L1  H     9    20       P1  8028  1.00
      P1  H  7989  7998       L1     6  0.01

> <Gold.PLP.Chemscore.Internal.Correction>
0.0061

> <Gold.Rescore>
     Score         DG    S(hbond)    S(metal)    S(lipo)     H(rot)  DE(clash)    DE(int)     intcor
     15.28     -16.07       1.00        0.00      83.87       1.00       0.22       0.57       ----

> <Gold.Chemscore.Fitness>
15.2765

> <Gold.Chemscore.DG>
-16.0725

> <Gold.Chemscore.ZeroCoef>
-5.4800

> <Gold.Chemscore.Hbond>
0.9999

> <Gold.Chemscore.Metal>
0.0000

> <Gold.Chemscore.Lipo>
83.8700

> <Gold.Chemscore.Internal_Hbond>
0.0000

> <Gold.Chemscore.DEClash>
0.2215

> <Gold.Chemscore.DEInternal>
0.5745

> <Gold.Chemscore.Rot>
1.0000

> <Gold.Chemscore.Internal.Correction>
   9.000000E+99

> <Gold.Chemscore.Hbonds>
donor molecule, donor type, donor heavy atom, donor atom, acceptor molecule, acceptor atom, score
      L1  H     9    20       P1  8028  0.97

> <Gold.Chemscore.Hbond.Weighted>
-3.3397

> <Gold.Chemscore.Metal.Weighted>
-0.0000

> <Gold.Chemscore.Lipo.Weighted>
-9.8128

> <Gold.Chemscore.Internal_Hbond.Weighted>
0.0000

> <Gold.Chemscore.DEClash.Weighted>
0.2215

> <Gold.Chemscore.DEInternal.Weighted>
0.5745

> <Gold.Chemscore.Rot.Weighted>
2.5600

> <Gold.Chemscore.Internal.Correction.Weighted>
   9.000000E+99

> <Gold.Protein.RotatedTorsions>
[ 6907 6896 6895 6894 ] final   16.64 input  -60.11 | X-H torsion
[ 7974 7965 7964 7962 ] final  145.51 input  175.53 | X-H torsion
[ 8008 7997 7996 7995 ] final  -43.70 input   59.86 | X-H torsion
[ 10167 10162 10161 10158 ] final  -64.37 input  -65.29 | X-H torsion
[ 10718 10713 10712 10709 ] final  107.85 input   66.30 | X-H torsion
[ 10763 10752 10751 10750 ] final -147.87 input  -60.55 | X-H torsion
[ 11005 11000 10999 10996 ] final   36.57 input  -57.11 | X-H torsion

> <Gold.Protein.ActiveResidues>
 VAL166  LYS551  ARG553  GLY616  TRP617  ASP618  TYR619  PRO620  LYS621  CYS622 
 ASP623  PHE694  ASN695  SER759  ASP760  ASP761  ALA762  ILE779  LEU786  VAL792 
 PHE793  MET794  SER795  GLU796  ALA797  LYS798  CYS799  TRP800  GLU811  SER814 

> <Gold.Protein.RotatedAtoms>
  151.8370  135.0603  160.0443 H   0  0  0  0  0  0  0  0  0  0  0  0  # atno 6907 bound_to 6896
  152.2837  133.5490  159.5522 H   0  0  0  0  0  0  0  0  0  0  0  0  # atno 6908 bound_to 6896
  150.7200  134.0443  159.3818 H   0  0  0  0  0  0  0  0  0  0  0  0  # atno 6909 bound_to 6896
  144.8747  139.5792  143.5871 H   0  0  0  0  0  0  0  0  0  0  0  0  # atno 7974 bound_to 7965
  154.3997  140.1441  156.3562 H   0  0  0  0  0  0  0  0  0  0  0  0  # atno 8008 bound_to 7997
  155.8223  140.3469  155.5501 H   0  0  0  0  0  0  0  0  0  0  0  0  # atno 8009 bound_to 7997
  155.8275  140.0907  157.1803 H   0  0  0  0  0  0  0  0  0  0  0  0  # atno 8010 bound_to 7997
  140.5805  143.2327  151.6351 H   0  0  0  0  0  0  0  0  0  0  0  0  # atno 10167 bound_to 10162
  157.6611  131.0881  150.6218 H   0  0  0  0  0  0  0  0  0  0  0  0  # atno 10718 bound_to 10713
  154.8263  135.3349  154.6886 H   0  0  0  0  0  0  0  0  0  0  0  0  # atno 10763 bound_to 10752
  153.7511  135.6939  153.4950 H   0  0  0  0  0  0  0  0  0  0  0  0  # atno 10764 bound_to 10752
  153.2176  135.4460  155.0402 H   0  0  0  0  0  0  0  0  0  0  0  0  # atno 10765 bound_to 10752
  140.2312  134.3525  155.7963 H   0  0  0  0  0  0  0  0  0  0  0  0  # atno 11005 bound_to 11000
  146.2954  139.7263  142.9130 LP  0  0  0  0  0  0  0  0  0  0  0  0  # atno 17320 bound_to 7965
  145.4065  141.0391  143.3041 LP  0  0  0  0  0  0  0  0  0  0  0  0  # atno 17321 bound_to 7965
  139.5167  144.3338  152.0803 LP  0  0  0  0  0  0  0  0  0  0  0  0  # atno 17342 bound_to 10162
  140.2487  144.4192  150.6230 LP  0  0  0  0  0  0  0  0  0  0  0  0  # atno 17343 bound_to 10162
  156.6521  130.4488  149.5716 LP  0  0  0  0  0  0  0  0  0  0  0  0  # atno 17370 bound_to 10713
  156.2130  130.6690  151.1289 LP  0  0  0  0  0  0  0  0  0  0  0  0  # atno 17371 bound_to 10713
  141.2217  133.7247  156.8735 LP  0  0  0  0  0  0  0  0  0  0  0  0  # atno 17394 bound_to 11000
  140.1748  134.9074  157.2877 LP  0  0  0  0  0  0  0  0  0  0  0  0  # atno 17395 bound_to 11000

$$$$
