AV-unprocessed.smi:2473|AV-procd|sdf|9743|dock3
  -GOLD-   2272013383D 1   1.00000     0.00000
 Structure written by MMmdl.
 48 49  0  0  0  0  0  0  0  0  2 V2000
  152.4787  137.8169  155.2428 C   0  0  0  0  0  0  0  0  0  0  0  0
  151.2373  138.6779  155.5182 C   0  0  2  0  0  0  0  0  0  0  0  0
  150.5148  139.0454  154.2056 C   0  0  0  0  0  0  0  0  0  0  0  0
  149.2693  139.9354  154.4220 C   0  0  1  0  0  0  0  0  0  0  0  0
  148.0253  139.1716  154.9163 C   0  0  0  0  0  0  0  0  0  0  0  0
  147.4147  139.5301  155.9237 O   0  0  0  0  0  0  0  0  0  0  0  0
  147.6691  138.0936  154.2020 N   0  0  0  0  0  0  0  0  0  0  0  0
  146.5020  137.2701  154.4822 C   0  0  0  0  0  0  0  0  0  0  0  0
  145.3330  137.6649  153.5709 C   0  0  0  0  0  0  0  0  0  0  0  0
  145.0194  136.6182  152.5476 C   0  0  0  0  0  0  0  0  0  0  0  0
  145.9190  135.9632  151.8040 N   0  3  0  0  0  0  0  0  0  0  0  0
  145.2948  135.0640  150.9826 C   0  0  0  0  0  0  0  0  0  0  0  0
  143.9532  135.1700  151.2409 C   0  0  0  0  0  0  0  0  0  0  0  0
  143.8137  136.1313  152.2092 N   0  0  0  0  0  0  0  0  0  0  0  0
  142.5589  136.5884  152.8107 C   0  0  0  0  0  0  0  0  0  0  0  0
  149.6269  141.1692  155.2907 C   0  0  0  0  0  0  0  0  0  0  0  0
  150.4000  140.8753  156.6059 C   0  0  0  0  0  0  0  0  0  0  0  0
  150.9309  142.2124  157.1617 C   0  0  0  0  0  0  0  0  0  0  0  0
  149.4906  140.2618  157.6944 C   0  0  0  0  0  0  0  0  0  0  0  0
  151.6064  139.9524  156.3044 C   0  0  0  0  0  0  0  0  0  0  0  0
  153.2065  138.3519  154.6323 H   0  0  0  0  0  0  0  0  0  0  0  0
  152.2111  136.9006  154.7159 H   0  0  0  0  0  0  0  0  0  0  0  0
  152.9710  137.5290  156.1722 H   0  0  0  0  0  0  0  0  0  0  0  0
  150.5704  138.0735  156.1314 H   0  0  0  0  0  0  0  0  0  0  0  0
  151.2105  139.5752  153.5537 H   0  0  0  0  0  0  0  0  0  0  0  0
  150.2414  138.1387  153.6637 H   0  0  0  0  0  0  0  0  0  0  0  0
  148.9822  140.3104  153.4385 H   0  0  0  0  0  0  0  0  0  0  0  0
  148.2275  137.8495  153.3969 H   0  0  0  0  0  0  0  0  0  0  0  0
  146.7594  136.2200  154.3365 H   0  0  0  0  0  0  0  0  0  0  0  0
  146.2142  137.3896  155.5279 H   0  0  0  0  0  0  0  0  0  0  0  0
  144.4249  137.8435  154.1477 H   0  0  0  0  0  0  0  0  0  0  0  0
  145.5572  138.5847  153.0291 H   0  0  0  0  0  0  0  0  0  0  0  0
  145.8380  134.4312  150.2957 H   0  0  0  0  0  0  0  0  0  0  0  0
  143.1090  134.6442  150.8186 H   0  0  0  0  0  0  0  0  0  0  0  0
  141.7237  136.0389  152.3758 H   0  0  0  0  0  0  0  0  0  0  0  0
  142.4294  137.6530  152.6145 H   0  0  0  0  0  0  0  0  0  0  0  0
  142.5843  136.4101  153.8858 H   0  0  0  0  0  0  0  0  0  0  0  0
  150.2418  141.8231  154.6702 H   0  0  0  0  0  0  0  0  0  0  0  0
  148.7342  141.7561  155.5111 H   0  0  0  0  0  0  0  0  0  0  0  0
  151.4975  142.0651  158.0820 H   0  0  0  0  0  0  0  0  0  0  0  0
  150.1154  142.9012  157.3856 H   0  0  0  0  0  0  0  0  0  0  0  0
  151.5918  142.7099  156.4510 H   0  0  0  0  0  0  0  0  0  0  0  0
  150.0222  140.1671  158.6417 H   0  0  0  0  0  0  0  0  0  0  0  0
  149.1340  139.2665  157.4398 H   0  0  0  0  0  0  0  0  0  0  0  0
  148.6140  140.8851  157.8746 H   0  0  0  0  0  0  0  0  0  0  0  0
  152.1020  139.6780  157.2369 H   0  0  0  0  0  0  0  0  0  0  0  0
  152.3471  140.5086  155.7277 H   0  0  0  0  0  0  0  0  0  0  0  0
  146.9193  136.1132  151.8455 H   0  0  0  0  0  0  0  0  0  0  0  0
  1  2  1  0  0  0  0
  1 21  1  0  0  0  0
  1 22  1  0  0  0  0
  1 23  1  0  0  0  0
  2 20  1  0  0  0  0
  2  3  1  0  0  0  0
  2 24  1  0  0  0  0
  3  4  1  0  0  0  0
  3 25  1  0  0  0  0
  3 26  1  0  0  0  0
  4  5  1  0  0  0  0
  4 16  1  0  0  0  0
  4 27  1  0  0  0  0
  5  6  2  0  0  0  0
  5  7  1  0  0  0  0
  7  8  1  0  0  0  0
  7 28  1  0  0  0  0
  8  9  1  0  0  0  0
  8 29  1  0  0  0  0
  8 30  1  0  0  0  0
  9 10  1  0  0  0  0
  9 31  1  0  0  0  0
  9 32  1  0  0  0  0
 10 14  1  0  0  0  0
 10 11  2  0  0  0  0
 11 12  1  0  0  0  0
 11 48  1  0  0  0  0
 12 13  2  0  0  0  0
 12 33  1  0  0  0  0
 13 14  1  0  0  0  0
 13 34  1  0  0  0  0
 14 15  1  0  0  0  0
 15 35  1  0  0  0  0
 15 36  1  0  0  0  0
 15 37  1  0  0  0  0
 16 17  1  0  0  0  0
 16 38  1  0  0  0  0
 16 39  1  0  0  0  0
 17 18  1  0  0  0  0
 17 19  1  0  0  0  0
 17 20  1  0  0  0  0
 18 40  1  0  0  0  0
 18 41  1  0  0  0  0
 18 42  1  0  0  0  0
 19 43  1  0  0  0  0
 19 44  1  0  0  0  0
 19 45  1  0  0  0  0
 20 46  1  0  0  0  0
 20 47  1  0  0  0  0
M  CHG  1  11   1
M  END
> <s_m_source_file>
AV-unprocessed.smi

> <i_m_source_file_index>
2473

> <i_lp_mmshare_version>
43012

> <i_f3d_flags>
0

> <s_epik_input>
W0NIM11bQ0BASF0oW0NIMl0xKVtDSDJdW0NASF0oW0NIMl1DMShbQ0gzXSlbQ0gzXSlDKD1PKVtOSF1bQ0gyXVtDSDJdYzJuW2NIXVtjSF1uMltDSDNd

> <s_epik_cmdline>
J2VwaWtfcHl0aG9uJywgJy1waCcsICc3LjAnLCAnLXRuJywgJzgnLCAnLW1hJywgJzIwMCcsICctbWV0YWxfYmluZGluZycsICctaW1hZScsICc8aW5maWxlLm1hZT4nLCAnLW9tYWUnLCAnPG91dGZpbGUubWFlPic=

> <r_lp_tautomer_probability>
1

> <r_epik_Ionization_Penalty>
0.0796112

> <r_epik_Ionization_Penalty_Charging>
0

> <r_epik_Ionization_Penalty_Neutral>
0.0796112

> <r_epik_State_Penalty>
0.0704541

> <r_epik_Charging_Adjusted_Penalty>
0.0704541

> <i_epik_Tot_Q>
1

> <i_epik_Tot_abs_Q>
1

> <r_epik_Metal_State_Penalty>
0.409899

> <b_epik_Metal_Only>
0

> <s_lp_Force_Field>
OPLS_2005

> <r_lp_Energy>
17.1237

> <b_lp_Chiralities_Consistent>
1

> <s_lp_Variant>
AV-unprocessed.smi:2473-1

> <Gold.Version>
5.8.1

> <Gold.Id.Protein>
6NUR|6NUR_protein|mol2

> <Gold.PLP.Fitness>
40.1051

> <Gold.PLP.PLP>
-32.1410

> <Gold.PLP.part.hbond>
-1.4699

> <Gold.PLP.part.metal>
0.0000

> <Gold.PLP.part.buried>
-1.7346

> <Gold.PLP.part.nonpolar>
-29.5853

> <Gold.PLP.part.repulsive>
0.0585

> <Gold.PLP.ligand.clash>
0.0000

> <Gold.PLP.ligand.torsion>
0.7343

> <Gold.PLP.Chemscore.Hbond>
2.1529

> <Gold.PLP.Chemscore.CHOScore>
0.9679

> <Gold.PLP.Chemscore.Metal>
0.0000

> <Gold.Chemscore.Hbonds>
donor molecule, donor type, donor heavy atom, donor atom, acceptor molecule, acceptor atom, score
      L1  H     7    28       P1  7948  0.24
      L1  H    11    48       P1  7948  2.00
      L1  C    13    34       P1 10186  1.00

> <Gold.PLP.Chemscore.Internal.Correction>
0.0704

> <Gold.Rescore>
     Score         DG    S(hbond)    S(metal)    S(lipo)     H(rot)  DE(clash)    DE(int)     intcor
     13.62     -16.19       1.79        0.00      74.95       1.58       0.31       2.26       ----

> <Gold.Chemscore.Fitness>
13.6241

> <Gold.Chemscore.DG>
-16.1932

> <Gold.Chemscore.ZeroCoef>
-5.4800

> <Gold.Chemscore.Hbond>
1.7946

> <Gold.Chemscore.Metal>
0.0000

> <Gold.Chemscore.Lipo>
74.9470

> <Gold.Chemscore.Internal_Hbond>
0.0000

> <Gold.Chemscore.DEClash>
0.3086

> <Gold.Chemscore.DEInternal>
2.2605

> <Gold.Chemscore.Rot>
1.5818

> <Gold.Chemscore.Internal.Correction>
   9.000000E+99

> <Gold.Chemscore.Hbonds>
donor molecule, donor type, donor heavy atom, donor atom, acceptor molecule, acceptor atom, score
      L1  H     7    28       P1  7948  0.24
      L1  H    11    48       P1  7948  0.95

> <Gold.Chemscore.Hbond.Weighted>
-5.9939

> <Gold.Chemscore.Metal.Weighted>
-0.0000

> <Gold.Chemscore.Lipo.Weighted>
-8.7688

> <Gold.Chemscore.Internal_Hbond.Weighted>
0.0000

> <Gold.Chemscore.DEClash.Weighted>
0.3086

> <Gold.Chemscore.DEInternal.Weighted>
2.2605

> <Gold.Chemscore.Rot.Weighted>
4.0495

> <Gold.Chemscore.Internal.Correction.Weighted>
   9.000000E+99

> <Gold.Protein.RotatedTorsions>
[ 6907 6896 6895 6894 ] final -130.96 input  -60.11 | X-H torsion
[ 7974 7965 7964 7962 ] final  -27.90 input  175.53 | X-H torsion
[ 8008 7997 7996 7995 ] final  -77.62 input   59.86 | X-H torsion
[ 10167 10162 10161 10158 ] final  135.67 input  -65.29 | X-H torsion
[ 10718 10713 10712 10709 ] final  156.89 input   66.30 | X-H torsion
[ 10763 10752 10751 10750 ] final   97.04 input  -60.55 | X-H torsion
[ 11005 11000 10999 10996 ] final  -65.50 input  -57.11 | X-H torsion

> <Gold.Protein.ActiveResidues>
 VAL166  LYS551  ARG553  GLY616  TRP617  ASP618  TYR619  PRO620  LYS621  CYS622 
 ASP623  PHE694  ASN695  SER759  ASP760  ASP761  ALA762  ILE779  LEU786  VAL792 
 PHE793  MET794  SER795  GLU796  ALA797  LYS798  CYS799  TRP800  GLU811  SER814 

> <Gold.Protein.RotatedAtoms>
  150.9455  133.6608  159.2781 H   0  0  0  0  0  0  0  0  0  0  0  0  # atno 6907 bound_to 6896
  151.3982  135.0965  159.9557 H   0  0  0  0  0  0  0  0  0  0  0  0  # atno 6908 bound_to 6896
  152.5088  133.8955  159.7470 H   0  0  0  0  0  0  0  0  0  0  0  0  # atno 6909 bound_to 6896
  146.1326  140.5212  142.8687 H   0  0  0  0  0  0  0  0  0  0  0  0  # atno 7974 bound_to 7965
  154.5613  140.0707  156.8823 H   0  0  0  0  0  0  0  0  0  0  0  0  # atno 8008 bound_to 7997
  155.2807  140.3371  155.4240 H   0  0  0  0  0  0  0  0  0  0  0  0  # atno 8009 bound_to 7997
  156.2044  140.1734  156.7816 H   0  0  0  0  0  0  0  0  0  0  0  0  # atno 8010 bound_to 7997
  139.5208  144.6505  151.5316 H   0  0  0  0  0  0  0  0  0  0  0  0  # atno 10167 bound_to 10162
  157.1989  131.0671  151.2037 H   0  0  0  0  0  0  0  0  0  0  0  0  # atno 10718 bound_to 10713
  153.2721  135.4197  155.0998 H   0  0  0  0  0  0  0  0  0  0  0  0  # atno 10763 bound_to 10752
  154.8460  135.3474  154.6229 H   0  0  0  0  0  0  0  0  0  0  0  0  # atno 10764 bound_to 10752
  153.6649  135.7046  153.5223 H   0  0  0  0  0  0  0  0  0  0  0  0  # atno 10765 bound_to 10752
  141.1456  133.6682  156.5996 H   0  0  0  0  0  0  0  0  0  0  0  0  # atno 11005 bound_to 11000
  144.7706  140.5629  143.6673 LP  0  0  0  0  0  0  0  0  0  0  0  0  # atno 17320 bound_to 7965
  145.5227  139.1476  143.3543 LP  0  0  0  0  0  0  0  0  0  0  0  0  # atno 17321 bound_to 7965
  140.6308  143.9080  150.6604 LP  0  0  0  0  0  0  0  0  0  0  0  0  # atno 17342 bound_to 10162
  140.2384  143.3683  152.1508 LP  0  0  0  0  0  0  0  0  0  0  0  0  # atno 17343 bound_to 10162
  157.3787  130.7219  149.6615 LP  0  0  0  0  0  0  0  0  0  0  0  0  # atno 17370 bound_to 10713
  155.9703  130.4178  150.4299 LP  0  0  0  0  0  0  0  0  0  0  0  0  # atno 17371 bound_to 10713
  140.3699  134.7614  157.4591 LP  0  0  0  0  0  0  0  0  0  0  0  0  # atno 17394 bound_to 11000
  140.0718  134.5851  155.8633 LP  0  0  0  0  0  0  0  0  0  0  0  0  # atno 17395 bound_to 11000

$$$$
