AV-unprocessed.smi:1983|AV-procd|sdf|8039|dock3
  -GOLD-   2272010233D 1   1.00000     0.00000
 Structure written by MMmdl.
 50 51  0  0  0  0  0  0  0  0  2 V2000
  145.9273  136.0889  155.6821 C   0  0  0  0  0  0  0  0  0  0  0  0
  147.3066  135.6499  155.1674 C   0  0  1  0  0  0  0  0  0  0  0  0
  147.2744  134.2443  154.5360 C   0  0  0  0  0  0  0  0  0  0  0  0
  148.4366  134.0213  153.7660 O   0  0  0  0  0  0  0  0  0  0  0  0
  147.7874  136.6291  154.1962 N   0  0  0  0  0  0  0  0  0  0  0  0
  147.8986  137.9471  154.4135 C   0  0  0  0  0  0  0  0  0  0  0  0
  147.6118  138.5006  155.4750 O   0  0  0  0  0  0  0  0  0  0  0  0
  148.3708  138.5916  153.3372 N   0  0  0  0  0  0  0  0  0  0  0  0
  148.5817  140.0342  153.2560 C   0  0  0  0  0  0  0  0  0  0  0  0
  149.3614  140.6327  154.4199 C   0  0  0  0  0  0  0  0  0  0  0  0
  150.3565  139.9027  155.1074 C   0  0  0  0  0  0  0  0  0  0  0  0
  151.0472  140.5038  156.1796 C   0  0  0  0  0  0  0  0  0  0  0  0
  150.7461  141.8377  156.5548 C   0  0  0  0  0  0  0  0  0  0  0  0
  151.3748  142.5177  157.6204 N   0  0  0  0  0  0  0  0  0  0  0  0
  152.2222  141.7511  158.5267 C   0  0  0  0  0  0  0  0  0  0  0  0
  152.4991  142.5506  159.8121 C   0  0  1  0  0  0  0  0  0  0  0  0
  153.5028  141.8369  160.7234 C   0  0  0  0  0  0  0  0  0  0  0  0
  153.0369  143.8278  159.4748 O   0  0  0  0  0  0  0  0  0  0  0  0
  152.2022  144.6237  158.6312 C   0  0  2  0  0  0  0  0  0  0  0  0
  150.9547  145.1455  159.3668 C   0  0  0  0  0  0  0  0  0  0  0  0
  151.8759  143.8604  157.3330 C   0  0  0  0  0  0  0  0  0  0  0  0
  149.7900  142.4968  155.8557 N   0  3  0  0  0  0  0  0  0  0  0  0
  149.1035  141.9574  154.8256 C   0  0  0  0  0  0  0  0  0  0  0  0
  145.5525  135.4018  156.4412 H   0  0  0  0  0  0  0  0  0  0  0  0
  145.1940  136.1242  154.8758 H   0  0  0  0  0  0  0  0  0  0  0  0
  145.9739  137.0801  156.1344 H   0  0  0  0  0  0  0  0  0  0  0  0
  147.9947  135.6413  156.0153 H   0  0  0  0  0  0  0  0  0  0  0  0
  147.1871  133.4720  155.3009 H   0  0  0  0  0  0  0  0  0  0  0  0
  146.4149  134.1386  153.8729 H   0  0  0  0  0  0  0  0  0  0  0  0
  148.4549  134.6492  153.0599 H   0  0  0  0  0  0  0  0  0  0  0  0
  148.0501  136.2730  153.2890 H   0  0  0  0  0  0  0  0  0  0  0  0
  148.5758  138.0514  152.5092 H   0  0  0  0  0  0  0  0  0  0  0  0
  149.1258  140.2461  152.3354 H   0  0  0  0  0  0  0  0  0  0  0  0
  147.6155  140.5337  153.1653 H   0  0  0  0  0  0  0  0  0  0  0  0
  150.5938  138.8883  154.8225 H   0  0  0  0  0  0  0  0  0  0  0  0
  151.8052  139.9281  156.6890 H   0  0  0  0  0  0  0  0  0  0  0  0
  151.7373  140.8127  158.7973 H   0  0  0  0  0  0  0  0  0  0  0  0
  153.1575  141.5064  158.0211 H   0  0  0  0  0  0  0  0  0  0  0  0
  151.5716  142.6781  160.3704 H   0  0  0  0  0  0  0  0  0  0  0  0
  153.1316  140.8574  161.0256 H   0  0  0  0  0  0  0  0  0  0  0  0
  153.6870  142.4157  161.6290 H   0  0  0  0  0  0  0  0  0  0  0  0
  154.4597  141.6921  160.2211 H   0  0  0  0  0  0  0  0  0  0  0  0
  152.7935  145.4986  158.3598 H   0  0  0  0  0  0  0  0  0  0  0  0
  150.4140  145.8619  158.7479 H   0  0  0  0  0  0  0  0  0  0  0  0
  151.2326  145.6534  160.2905 H   0  0  0  0  0  0  0  0  0  0  0  0
  150.2569  144.3476  159.6196 H   0  0  0  0  0  0  0  0  0  0  0  0
  152.7796  143.7621  156.7299 H   0  0  0  0  0  0  0  0  0  0  0  0
  151.1683  144.4437  156.7438 H   0  0  0  0  0  0  0  0  0  0  0  0
  148.3667  142.5994  154.3644 H   0  0  0  0  0  0  0  0  0  0  0  0
  149.5703  143.4553  156.1274 H   0  0  0  0  0  0  0  0  0  0  0  0
  1  2  1  0  0  0  0
  1 24  1  0  0  0  0
  1 25  1  0  0  0  0
  1 26  1  0  0  0  0
  2  3  1  0  0  0  0
  2  5  1  0  0  0  0
  2 27  1  0  0  0  0
  3  4  1  0  0  0  0
  3 28  1  0  0  0  0
  3 29  1  0  0  0  0
  4 30  1  0  0  0  0
  5  6  1  0  0  0  0
  5 31  1  0  0  0  0
  6  7  2  0  0  0  0
  6  8  1  0  0  0  0
  8  9  1  0  0  0  0
  8 32  1  0  0  0  0
  9 10  1  0  0  0  0
  9 33  1  0  0  0  0
  9 34  1  0  0  0  0
 10 23  1  0  0  0  0
 10 11  2  0  0  0  0
 11 12  1  0  0  0  0
 11 35  1  0  0  0  0
 12 13  2  0  0  0  0
 12 36  1  0  0  0  0
 13 14  1  0  0  0  0
 13 22  1  0  0  0  0
 14 21  1  0  0  0  0
 14 15  1  0  0  0  0
 15 16  1  0  0  0  0
 15 37  1  0  0  0  0
 15 38  1  0  0  0  0
 16 17  1  0  0  0  0
 16 18  1  0  0  0  0
 16 39  1  0  0  0  0
 17 40  1  0  0  0  0
 17 41  1  0  0  0  0
 17 42  1  0  0  0  0
 18 19  1  0  0  0  0
 19 20  1  0  0  0  0
 19 21  1  0  0  0  0
 19 43  1  0  0  0  0
 20 44  1  0  0  0  0
 20 45  1  0  0  0  0
 20 46  1  0  0  0  0
 21 47  1  0  0  0  0
 21 48  1  0  0  0  0
 22 23  2  0  0  0  0
 22 50  1  0  0  0  0
 23 49  1  0  0  0  0
M  CHG  1  22   1
M  END
> <s_m_source_file>
AV-unprocessed.smi

> <i_m_source_file_index>
1983

> <i_lp_mmshare_version>
43012

> <i_f3d_flags>
0

> <s_epik_input>
W09IXVtDSDJdW0NAQEhdKFtDSDNdKVtOSF1DKD1PKVtOSF1bQ0gyXWMxW2NIXVtjSF1jKG5bY0hdMSlOMltDSDJdW0NAQEhdKFtDSDNdKU9bQ0BASF0oW0NIM10pW0NIMl0y

> <s_epik_cmdline>
J2VwaWtfcHl0aG9uJywgJy1waCcsICc3LjAnLCAnLXRuJywgJzgnLCAnLW1hJywgJzIwMCcsICctbWV0YWxfYmluZGluZycsICctaW1hZScsICc8aW5maWxlLm1hZT4nLCAnLW9tYWUnLCAnPG91dGZpbGUubWFlPic=

> <r_lp_tautomer_probability>
0.999994

> <r_epik_Ionization_Penalty>
2.55677

> <r_epik_Ionization_Penalty_Charging>
2.55673

> <r_epik_Ionization_Penalty_Neutral>
3.71772e-05

> <r_epik_State_Penalty>
2.72571

> <r_epik_Charging_Adjusted_Penalty>
5.28244

> <i_epik_Tot_Q>
1

> <i_epik_Tot_abs_Q>
1

> <r_epik_Metal_State_Penalty>
2.73364

> <b_epik_Metal_Only>
0

> <s_lp_Force_Field>
OPLS_2005

> <r_lp_Energy>
21.4539

> <b_lp_Chiralities_Consistent>
1

> <s_lp_Variant>
AV-unprocessed.smi:1983-12

> <Gold.Version>
5.8.1

> <Gold.Id.Protein>
6NUR|6NUR_protein|mol2

> <Gold.PLP.Fitness>
53.0046

> <Gold.PLP.PLP>
-40.2730

> <Gold.PLP.part.hbond>
-4.6555

> <Gold.PLP.part.metal>
0.0000

> <Gold.PLP.part.buried>
2.6264

> <Gold.PLP.part.nonpolar>
-38.6522

> <Gold.PLP.part.repulsive>
0.2813

> <Gold.PLP.ligand.clash>
0.0000

> <Gold.PLP.ligand.torsion>
0.7939

> <Gold.PLP.Chemscore.Hbond>
4.6240

> <Gold.PLP.Chemscore.CHOScore>
0.0000

> <Gold.PLP.Chemscore.Metal>
0.0000

> <Gold.Chemscore.Hbonds>
donor molecule, donor type, donor heavy atom, donor atom, acceptor molecule, acceptor atom, score
      L1  H     4    30       P1  7948  1.00
      L1  H     5    31       P1  7948  1.00
      L1  H     8    32       P1  7948  0.90
      L1  H    22    50       P1  8028  1.66

> <Gold.PLP.Chemscore.Internal.Correction>
0.4474

> <Gold.Rescore>
     Score         DG    S(hbond)    S(metal)    S(lipo)     H(rot)  DE(clash)    DE(int)     intcor
     16.10     -21.48       2.91        0.00     111.91       2.66       2.19       3.19       ----

> <Gold.Chemscore.Fitness>
16.0976

> <Gold.Chemscore.DG>
-21.4816

> <Gold.Chemscore.ZeroCoef>
-5.4800

> <Gold.Chemscore.Hbond>
2.9125

> <Gold.Chemscore.Metal>
0.0000

> <Gold.Chemscore.Lipo>
111.9064

> <Gold.Chemscore.Internal_Hbond>
0.0000

> <Gold.Chemscore.DEClash>
2.1896

> <Gold.Chemscore.DEInternal>
3.1945

> <Gold.Chemscore.Rot>
2.6637

> <Gold.Chemscore.Internal.Correction>
   9.000000E+99

> <Gold.Chemscore.Hbonds>
donor molecule, donor type, donor heavy atom, donor atom, acceptor molecule, acceptor atom, score
      L1  H     4    30       P1  7948  0.43
      L1  H     5    31       P1  7948  0.98
      L1  H     8    32       P1  7948  0.87
      L1  H    22    50       P1  8028  0.78

> <Gold.Chemscore.Hbond.Weighted>
-9.7277

> <Gold.Chemscore.Metal.Weighted>
-0.0000

> <Gold.Chemscore.Lipo.Weighted>
-13.0931

> <Gold.Chemscore.Internal_Hbond.Weighted>
0.0000

> <Gold.Chemscore.DEClash.Weighted>
2.1896

> <Gold.Chemscore.DEInternal.Weighted>
3.1945

> <Gold.Chemscore.Rot.Weighted>
6.8191

> <Gold.Chemscore.Internal.Correction.Weighted>
   9.000000E+99

> <Gold.Protein.RotatedTorsions>
[ 6907 6896 6895 6894 ] final  -84.90 input  -60.11 | X-H torsion
[ 7974 7965 7964 7962 ] final  -41.14 input  175.53 | X-H torsion
[ 8008 7997 7996 7995 ] final   71.04 input   59.86 | X-H torsion
[ 10167 10162 10161 10158 ] final   57.16 input  -65.29 | X-H torsion
[ 10718 10713 10712 10709 ] final  -83.19 input   66.30 | X-H torsion
[ 10763 10752 10751 10750 ] final -124.31 input  -60.55 | X-H torsion
[ 11005 11000 10999 10996 ] final  -63.70 input  -57.11 | X-H torsion

> <Gold.Protein.ActiveResidues>
 VAL166  LYS551  ARG553  GLY616  TRP617  ASP618  TYR619  PRO620  LYS621  CYS622 
 ASP623  PHE694  ASN695  SER759  ASP760  ASP761  ALA762  ILE779  LEU786  VAL792 
 PHE793  MET794  SER795  GLU796  ALA797  LYS798  CYS799  TRP800  GLU811  SER814 

> <Gold.Protein.RotatedAtoms>
  150.6873  134.3287  159.4817 H   0  0  0  0  0  0  0  0  0  0  0  0  # atno 6907 bound_to 6896
  152.1154  134.9241  160.0574 H   0  0  0  0  0  0  0  0  0  0  0  0  # atno 6908 bound_to 6896
  152.0467  133.3966  159.4397 H   0  0  0  0  0  0  0  0  0  0  0  0  # atno 6909 bound_to 6896
  146.0239  140.6816  142.9165 H   0  0  0  0  0  0  0  0  0  0  0  0  # atno 7974 bound_to 7965
  155.7478  140.3489  155.5135 H   0  0  0  0  0  0  0  0  0  0  0  0  # atno 8008 bound_to 7997
  155.9033  140.1038  157.1355 H   0  0  0  0  0  0  0  0  0  0  0  0  # atno 8009 bound_to 7997
  154.4046  140.1282  156.4451 H   0  0  0  0  0  0  0  0  0  0  0  0  # atno 8010 bound_to 7997
  140.2010  144.3988  150.6529 H   0  0  0  0  0  0  0  0  0  0  0  0  # atno 10167 bound_to 10162
  156.0022  130.4658  150.4219 H   0  0  0  0  0  0  0  0  0  0  0  0  # atno 10718 bound_to 10713
  154.8721  135.4068  154.3084 H   0  0  0  0  0  0  0  0  0  0  0  0  # atno 10763 bound_to 10752
  153.3932  135.7015  153.6485 H   0  0  0  0  0  0  0  0  0  0  0  0  # atno 10764 bound_to 10752
  153.5259  135.3677  155.2624 H   0  0  0  0  0  0  0  0  0  0  0  0  # atno 10765 bound_to 10752
  141.1401  133.6655  156.5720 H   0  0  0  0  0  0  0  0  0  0  0  0  # atno 11005 bound_to 11000
  144.7001  140.3615  143.7163 LP  0  0  0  0  0  0  0  0  0  0  0  0  # atno 17320 bound_to 7965
  145.7149  139.1694  143.2517 LP  0  0  0  0  0  0  0  0  0  0  0  0  # atno 17321 bound_to 7965
  140.6390  143.2200  151.6331 LP  0  0  0  0  0  0  0  0  0  0  0  0  # atno 17342 bound_to 10162
  139.5217  144.3184  152.0932 LP  0  0  0  0  0  0  0  0  0  0  0  0  # atno 17343 bound_to 10162
  157.2274  131.0496  151.2512 LP  0  0  0  0  0  0  0  0  0  0  0  0  # atno 17370 bound_to 10713
  157.3743  130.7197  149.6586 LP  0  0  0  0  0  0  0  0  0  0  0  0  # atno 17371 bound_to 10713
  140.3906  134.7444  157.4719 LP  0  0  0  0  0  0  0  0  0  0  0  0  # atno 17394 bound_to 11000
  140.0569  134.6050  155.8794 LP  0  0  0  0  0  0  0  0  0  0  0  0  # atno 17395 bound_to 11000

$$$$
