AV-unprocessed.smi:16|AV-procd|sdf|91|dock5
  -GOLD-   2262015233D 1   1.00000     0.00000
 Structure written by MMmdl.
 60 64  0  0  0  0  0  0  0  0  2 V2000
  148.1365  141.8272  157.5330 C   0  0  0  0  0  0  0  0  0  0  0  0
  148.8981  142.7775  158.4692 C   0  0  0  0  0  0  0  0  0  0  0  0
  150.1556  143.2959  157.8661 N   0  3  1  0  0  0  0  0  0  0  0  0
  150.8166  144.3413  158.6928 C   0  0  0  0  0  0  0  0  0  0  0  0
  151.5513  143.7415  159.9068 C   0  0  0  0  0  0  0  0  0  0  0  0
  152.5599  142.6788  159.4522 C   0  0  1  0  0  0  0  0  0  0  0  0
  153.1844  142.0865  160.5851 O   0  0  0  0  0  0  0  0  0  0  0  0
  154.1830  141.1461  160.2014 C   0  0  0  0  0  0  0  0  0  0  0  0
  153.5383  140.0160  159.3810 C   0  0  0  0  0  0  0  0  0  0  0  0
  152.8097  140.5618  158.2396 N   0  0  0  0  0  0  0  0  0  0  0  0
  152.3190  139.5818  157.4474 C   0  0  0  0  0  0  0  0  0  0  0  0
  152.6766  139.5193  156.1372 N   0  0  0  0  0  0  0  0  0  0  0  0
  152.2140  138.5289  155.3681 C   0  0  0  0  0  0  0  0  0  0  0  0
  151.4064  137.5199  155.7026 N   0  0  0  0  0  0  0  0  0  0  0  0
  151.0436  137.5857  157.0164 C   0  0  0  0  0  0  0  0  0  0  0  0
  151.4535  138.5770  157.9508 C   0  0  0  0  0  0  0  0  0  0  0  0
  150.9089  138.3137  159.2001 N   0  0  0  0  0  0  0  0  0  0  0  0
  150.2181  137.2211  159.0168 C   0  0  0  0  0  0  0  0  0  0  0  0
  150.2238  136.7286  157.7303 N   0  0  0  0  0  0  0  0  0  0  0  0
  149.5991  135.5202  157.2763 C   0  0  0  0  0  0  0  0  0  0  0  0
  149.7836  135.0159  155.8422 C   0  0  0  0  0  0  0  0  0  0  0  0
  148.3239  134.5103  155.8196 C   0  0  0  0  0  0  0  0  0  0  0  0
  147.5288  134.8717  154.5558 C   0  0  0  0  0  0  0  0  0  0  0  0
  148.0142  134.1774  153.4248 O   0  0  0  0  0  0  0  0  0  0  0  0
  148.0918  133.0059  156.0870 C   0  0  0  0  0  0  0  0  0  0  0  0
  148.6233  132.1677  155.0807 O   0  0  0  0  0  0  0  0  0  0  0  0
  148.0905  135.4613  157.0148 C   0  0  0  0  0  0  0  0  0  0  0  0
  151.8401  141.5864  158.6340 C   0  0  2  0  0  0  0  0  0  0  0  0
  151.1189  142.2469  157.4310 C   0  0  0  0  0  0  0  0  0  0  0  0
  153.3232  143.1628  158.8391 H   0  0  0  0  0  0  0  0  0  0  0  0
  151.1004  141.1067  159.2762 H   0  0  0  0  0  0  0  0  0  0  0  0
  147.1633  141.5748  157.9547 H   0  0  0  0  0  0  0  0  0  0  0  0
  148.6687  140.8892  157.3775 H   0  0  0  0  0  0  0  0  0  0  0  0
  147.9646  142.2854  156.5585 H   0  0  0  0  0  0  0  0  0  0  0  0
  148.2416  143.6210  158.6858 H   0  0  0  0  0  0  0  0  0  0  0  0
  149.0927  142.2914  159.4249 H   0  0  0  0  0  0  0  0  0  0  0  0
  151.5339  144.8699  158.0635 H   0  0  0  0  0  0  0  0  0  0  0  0
  150.0902  145.0882  159.0148 H   0  0  0  0  0  0  0  0  0  0  0  0
  152.0671  144.5312  160.4541 H   0  0  0  0  0  0  0  0  0  0  0  0
  150.8345  143.3028  160.6018 H   0  0  0  0  0  0  0  0  0  0  0  0
  154.9678  141.6434  159.6291 H   0  0  0  0  0  0  0  0  0  0  0  0
  154.6516  140.7400  161.0978 H   0  0  0  0  0  0  0  0  0  0  0  0
  154.3077  139.3244  159.0347 H   0  0  0  0  0  0  0  0  0  0  0  0
  152.8567  139.4469  160.0150 H   0  0  0  0  0  0  0  0  0  0  0  0
  152.5391  138.5450  154.3382 H   0  0  0  0  0  0  0  0  0  0  0  0
  149.6813  136.7409  159.8222 H   0  0  0  0  0  0  0  0  0  0  0  0
  149.8960  134.7520  157.9912 H   0  0  0  0  0  0  0  0  0  0  0  0
  149.9606  135.8303  155.1375 H   0  0  0  0  0  0  0  0  0  0  0  0
  150.5393  134.2372  155.7348 H   0  0  0  0  0  0  0  0  0  0  0  0
  146.4681  134.6497  154.6793 H   0  0  0  0  0  0  0  0  0  0  0  0
  147.5970  135.9393  154.3444 H   0  0  0  0  0  0  0  0  0  0  0  0
  148.0953  134.7896  152.7094 H   0  0  0  0  0  0  0  0  0  0  0  0
  148.5427  132.7087  157.0344 H   0  0  0  0  0  0  0  0  0  0  0  0
  147.0275  132.7826  156.1659 H   0  0  0  0  0  0  0  0  0  0  0  0
  148.3920  132.5271  154.2376 H   0  0  0  0  0  0  0  0  0  0  0  0
  147.5090  135.0366  157.8336 H   0  0  0  0  0  0  0  0  0  0  0  0
  147.6850  136.4288  156.7139 H   0  0  0  0  0  0  0  0  0  0  0  0
  150.6079  141.5095  156.8142 H   0  0  0  0  0  0  0  0  0  0  0  0
  151.8584  142.7127  156.7780 H   0  0  0  0  0  0  0  0  0  0  0  0
  149.8604  143.7684  157.0235 H   0  0  0  0  0  0  0  0  0  0  0  0
  1  2  1  0  0  0  0
  1 32  1  0  0  0  0
  1 33  1  0  0  0  0
  1 34  1  0  0  0  0
  2  3  1  0  0  0  0
  2 35  1  0  0  0  0
  2 36  1  0  0  0  0
  3 29  1  0  0  0  0
  3  4  1  0  0  0  0
  3 60  1  0  0  0  0
  4  5  1  0  0  0  0
  4 37  1  0  0  0  0
  4 38  1  0  0  0  0
  5  6  1  0  0  0  0
  5 39  1  0  0  0  0
  5 40  1  0  0  0  0
  6 30  1  0  0  0  0
  6 28  1  0  0  0  0
  6  7  1  0  0  0  0
  7  8  1  0  0  0  0
  8  9  1  0  0  0  0
  8 41  1  0  0  0  0
  8 42  1  0  0  0  0
  9 10  1  0  0  0  0
  9 43  1  0  0  0  0
  9 44  1  0  0  0  0
 10 11  1  0  0  0  0
 10 28  1  0  0  0  0
 11 16  1  0  0  0  0
 11 12  2  0  0  0  0
 12 13  1  0  0  0  0
 13 14  2  0  0  0  0
 13 45  1  0  0  0  0
 14 15  1  0  0  0  0
 15 19  1  0  0  0  0
 15 16  2  0  0  0  0
 16 17  1  0  0  0  0
 17 18  2  0  0  0  0
 18 19  1  0  0  0  0
 18 46  1  0  0  0  0
 19 20  1  0  0  0  0
 20 27  1  0  0  0  0
 20 21  1  0  0  0  0
 20 47  1  0  0  0  0
 21 22  1  0  0  0  0
 21 48  1  0  0  0  0
 21 49  1  0  0  0  0
 22 23  1  0  0  0  0
 22 25  1  0  0  0  0
 22 27  1  0  0  0  0
 23 24  1  0  0  0  0
 23 50  1  0  0  0  0
 23 51  1  0  0  0  0
 24 52  1  0  0  0  0
 25 26  1  0  0  0  0
 25 53  1  0  0  0  0
 25 54  1  0  0  0  0
 26 55  1  0  0  0  0
 27 56  1  0  0  0  0
 27 57  1  0  0  0  0
 28 31  1  0  0  0  0
 28 29  1  0  0  0  0
 29 58  1  0  0  0  0
 29 59  1  0  0  0  0
M  CHG  1   3   1
M  END
> <s_m_source_file>
AV-unprocessed.smi

> <i_m_source_file_index>
16

> <i_lp_mmshare_version>
43012

> <i_f3d_flags>
0

> <s_epik_input>
W0NIM11bQ0gyXU4oW0NIMl1bQ0gyXTEpW0NIMl1bQ0BASF0oW0NAQEhdMTIpTihbQ0gyXVtDSDJdTzIpYyhuW2NIXW4zKWMoYzM0KW5bY0hdbjRbQ0hdKFtDSDJdNSlbQ0gyXUM1KFtDSDJdW09IXSlbQ0gyXVtPSF0=

> <s_epik_cmdline>
J2VwaWtfcHl0aG9uJywgJy1waCcsICc3LjAnLCAnLXRuJywgJzgnLCAnLW1hJywgJzIwMCcsICctbWV0YWxfYmluZGluZycsICctaW1hZScsICc8aW5maWxlLm1hZT4nLCAnLW9tYWUnLCAnPG91dGZpbGUubWFlPic=

> <r_lp_tautomer_probability>
1

> <r_epik_Ionization_Penalty>
0.0135603

> <r_epik_Ionization_Penalty_Charging>
0.0131385

> <r_epik_Ionization_Penalty_Neutral>
0.000421734

> <r_epik_State_Penalty>
0.0102091

> <r_epik_Charging_Adjusted_Penalty>
0.0233476

> <i_epik_Tot_Q>
1

> <i_epik_Tot_abs_Q>
1

> <r_epik_Metal_State_Penalty>
0.0103746

> <b_epik_Metal_Only>
0

> <s_lp_Force_Field>
OPLS_2005

> <r_lp_Energy>
58.6505

> <b_lp_Chiralities_Consistent>
1

> <s_lp_Variant>
AV-unprocessed.smi:16-5

> <Gold.Version>
5.8.1

> <Gold.Id.Protein>
6NUR|6NUR_protein|mol2

> <Gold.PLP.Fitness>
49.7875

> <Gold.PLP.PLP>
-38.2272

> <Gold.PLP.part.hbond>
-4.4388

> <Gold.PLP.part.metal>
0.0000

> <Gold.PLP.part.buried>
-6.3434

> <Gold.PLP.part.nonpolar>
-27.5643

> <Gold.PLP.part.repulsive>
0.0589

> <Gold.PLP.ligand.clash>
0.0000

> <Gold.PLP.ligand.torsion>
0.4998

> <Gold.PLP.Chemscore.Hbond>
4.0000

> <Gold.PLP.Chemscore.CHOScore>
0.0000

> <Gold.PLP.Chemscore.Metal>
0.0000

> <Gold.Chemscore.Hbonds>
donor molecule, donor type, donor heavy atom, donor atom, acceptor molecule, acceptor atom, score
      L1  H     3    60       P1  8028  2.00
      L1  H    24    52       P1  7948  1.00
      P1  H  7997  8008       L1    12  0.90

> <Gold.PLP.Chemscore.Internal.Correction>
0.5599

> <Gold.Rescore>
     Score         DG    S(hbond)    S(metal)    S(lipo)     H(rot)  DE(clash)    DE(int)     intcor
     15.49     -16.90       2.79        0.00      90.85       3.33       0.02       1.39       ----

> <Gold.Chemscore.Fitness>
15.4896

> <Gold.Chemscore.DG>
-16.9032

> <Gold.Chemscore.ZeroCoef>
-5.4800

> <Gold.Chemscore.Hbond>
2.7861

> <Gold.Chemscore.Metal>
0.0000

> <Gold.Chemscore.Lipo>
90.8528

> <Gold.Chemscore.Internal_Hbond>
0.0000

> <Gold.Chemscore.DEClash>
0.0214

> <Gold.Chemscore.DEInternal>
1.3922

> <Gold.Chemscore.Rot>
3.3251

> <Gold.Chemscore.Internal.Correction>
   9.000000E+99

> <Gold.Chemscore.Hbonds>
donor molecule, donor type, donor heavy atom, donor atom, acceptor molecule, acceptor atom, score
      L1  H     3    60       P1  8028  0.95
      L1  H    24    52       P1  7948  0.72
      P1  H  7997  8008       L1    12  0.18

> <Gold.Chemscore.Hbond.Weighted>
-9.3056

> <Gold.Chemscore.Metal.Weighted>
-0.0000

> <Gold.Chemscore.Lipo.Weighted>
-10.6298

> <Gold.Chemscore.Internal_Hbond.Weighted>
0.0000

> <Gold.Chemscore.DEClash.Weighted>
0.0214

> <Gold.Chemscore.DEInternal.Weighted>
1.3922

> <Gold.Chemscore.Rot.Weighted>
8.5122

> <Gold.Chemscore.Internal.Correction.Weighted>
   9.000000E+99

> <Gold.Protein.RotatedTorsions>
[ 6907 6896 6895 6894 ] final  -98.71 input  -60.11 | X-H torsion
[ 7974 7965 7964 7962 ] final -143.71 input  175.53 | X-H torsion
[ 8008 7997 7996 7995 ] final  -40.21 input   59.86 | X-H torsion
[ 10167 10162 10161 10158 ] final   -5.18 input  -65.29 | X-H torsion
[ 10718 10713 10712 10709 ] final  -33.92 input   66.30 | X-H torsion
[ 10763 10752 10751 10750 ] final  -26.88 input  -60.55 | X-H torsion
[ 11005 11000 10999 10996 ] final    3.89 input  -57.11 | X-H torsion

> <Gold.Protein.ActiveResidues>
 VAL166  LYS551  ARG553  GLY616  TRP617  ASP618  TYR619  PRO620  LYS621  CYS622 
 ASP623  PHE694  ASN695  SER759  ASP760  ASP761  ALA762  ILE779  LEU786  VAL792 
 PHE793  MET794  SER795  GLU796  ALA797  LYS798  CYS799  TRP800  GLU811  SER814 

> <Gold.Protein.RotatedAtoms>
  150.7055  134.1152  159.4014 H   0  0  0  0  0  0  0  0  0  0  0  0  # atno 6907 bound_to 6896
  151.9139  135.0325  160.0526 H   0  0  0  0  0  0  0  0  0  0  0  0  # atno 6908 bound_to 6896
  152.2313  133.5025  159.5254 H   0  0  0  0  0  0  0  0  0  0  0  0  # atno 6909 bound_to 6896
  144.8350  140.5801  143.5490 H   0  0  0  0  0  0  0  0  0  0  0  0  # atno 7974 bound_to 7965
  154.4014  140.1531  156.2990 H   0  0  0  0  0  0  0  0  0  0  0  0  # atno 8008 bound_to 7997
  155.8717  140.3448  155.5804 H   0  0  0  0  0  0  0  0  0  0  0  0  # atno 8009 bound_to 7997
  155.7766  140.0837  157.2071 H   0  0  0  0  0  0  0  0  0  0  0  0  # atno 8010 bound_to 7997
  140.6954  143.6338  150.8498 H   0  0  0  0  0  0  0  0  0  0  0  0  # atno 10167 bound_to 10162
  156.3569  130.4317  149.7657 H   0  0  0  0  0  0  0  0  0  0  0  0  # atno 10718 bound_to 10713
  153.7231  135.6943  153.5008 H   0  0  0  0  0  0  0  0  0  0  0  0  # atno 10763 bound_to 10752
  153.2189  135.4376  155.0465 H   0  0  0  0  0  0  0  0  0  0  0  0  # atno 10764 bound_to 10752
  154.8278  135.3455  154.6764 H   0  0  0  0  0  0  0  0  0  0  0  0  # atno 10765 bound_to 10752
  140.5881  133.9950  155.8076 H   0  0  0  0  0  0  0  0  0  0  0  0  # atno 11005 bound_to 11000
  145.4814  139.1495  143.3760 LP  0  0  0  0  0  0  0  0  0  0  0  0  # atno 17320 bound_to 7965
  146.2649  140.4950  142.8838 LP  0  0  0  0  0  0  0  0  0  0  0  0  # atno 17321 bound_to 7965
  140.0055  143.5698  152.2859 LP  0  0  0  0  0  0  0  0  0  0  0  0  # atno 17342 bound_to 10162
  139.6403  144.7654  151.2353 LP  0  0  0  0  0  0  0  0  0  0  0  0  # atno 17343 bound_to 10162
  156.4836  130.8052  151.3065 LP  0  0  0  0  0  0  0  0  0  0  0  0  # atno 17370 bound_to 10713
  157.7468  130.9998  150.2902 LP  0  0  0  0  0  0  0  0  0  0  0  0  # atno 17371 bound_to 10713
  141.0953  133.9853  157.3170 LP  0  0  0  0  0  0  0  0  0  0  0  0  # atno 17394 bound_to 11000
  139.9286  135.0201  156.8323 LP  0  0  0  0  0  0  0  0  0  0  0  0  # atno 17395 bound_to 11000

$$$$
