AV-unprocessed.smi:2556|AV-procd|sdf|10023|dock6
  -GOLD-   2272014 63D 1   1.00000     0.00000
 Structure written by MMmdl.
 35 37  0  0  0  0  0  0  0  0  1 V2000
  149.7346  133.7928  157.1075 C   0  0  0  0  0  0  0  0  0  0  0  0
  149.8684  135.1067  156.4751 N   0  0  0  0  0  0  0  0  0  0  0  0
  149.8688  135.2598  155.1103 C   0  0  0  0  0  0  0  0  0  0  0  0
  149.7520  134.3111  154.3352 O   0  0  0  0  0  0  0  0  0  0  0  0
  150.0063  136.5274  154.6123 N   0  0  0  0  0  0  0  0  0  0  0  0
  150.1467  137.6791  155.3133 C   0  0  0  0  0  0  0  0  0  0  0  0
  150.2661  138.7841  154.7887 O   0  0  0  0  0  0  0  0  0  0  0  0
  150.1402  137.4683  156.7652 C   0  0  0  0  0  0  0  0  0  0  0  0
  150.0056  136.2381  157.3264 C   0  0  0  0  0  0  0  0  0  0  0  0
  150.0258  136.3132  158.7145 N   0  0  0  0  0  0  0  0  0  0  0  0
  150.1747  137.6231  158.9202 C   0  0  0  0  0  0  0  0  0  0  0  0
  150.2519  138.3842  157.8090 N   0  0  0  0  0  0  0  0  0  0  0  0
  150.4147  139.8292  157.7666 C   0  0  0  0  0  0  0  0  0  0  0  0
  151.8889  140.2664  157.8828 C   0  0  2  0  0  0  0  0  0  0  0  0
  152.5722  139.4487  158.8129 O   0  0  0  0  0  0  0  0  0  0  0  0
  151.9993  141.7421  158.2311 C   0  0  0  0  0  0  0  0  0  0  0  0
  151.4060  142.7123  157.3950 C   0  0  0  0  0  0  0  0  0  0  0  0
  151.4980  144.0801  157.7190 C   0  0  0  0  0  0  0  0  0  0  0  0
  152.1811  144.4851  158.8818 C   0  0  0  0  0  0  0  0  0  0  0  0
  152.7716  143.5215  159.7215 C   0  0  0  0  0  0  0  0  0  0  0  0
  152.6810  142.1538  159.3975 C   0  0  0  0  0  0  0  0  0  0  0  0
  150.0023  136.6144  153.6066 H   0  0  0  0  0  0  0  0  0  0  0  0
  149.5719  132.9754  156.4043 H   0  0  0  0  0  0  0  0  0  0  0  0
  148.8921  133.7963  157.7999 H   0  0  0  0  0  0  0  0  0  0  0  0
  150.6352  133.5620  157.6769 H   0  0  0  0  0  0  0  0  0  0  0  0
  150.2294  138.0444  159.9135 H   0  0  0  0  0  0  0  0  0  0  0  0
  150.0021  140.1831  156.8209 H   0  0  0  0  0  0  0  0  0  0  0  0
  149.8060  140.2858  158.5465 H   0  0  0  0  0  0  0  0  0  0  0  0
  152.3747  140.1064  156.9193 H   0  0  0  0  0  0  0  0  0  0  0  0
  152.0438  139.3770  159.5930 H   0  0  0  0  0  0  0  0  0  0  0  0
  150.8772  142.4125  156.5019 H   0  0  0  0  0  0  0  0  0  0  0  0
  151.0430  144.8190  157.0760 H   0  0  0  0  0  0  0  0  0  0  0  0
  152.2504  145.5338  159.1302 H   0  0  0  0  0  0  0  0  0  0  0  0
  153.2929  143.8311  160.6153 H   0  0  0  0  0  0  0  0  0  0  0  0
  153.1338  141.4205  160.0491 H   0  0  0  0  0  0  0  0  0  0  0  0
  1  2  1  0  0  0  0
  1 23  1  0  0  0  0
  1 24  1  0  0  0  0
  1 25  1  0  0  0  0
  2  9  1  0  0  0  0
  2  3  1  0  0  0  0
  3  4  2  0  0  0  0
  3  5  1  0  0  0  0
  5 22  1  0  0  0  0
  5  6  1  0  0  0  0
  6  7  2  0  0  0  0
  6  8  1  0  0  0  0
  8 12  1  0  0  0  0
  8  9  2  0  0  0  0
  9 10  1  0  0  0  0
 10 11  2  0  0  0  0
 11 12  1  0  0  0  0
 11 26  1  0  0  0  0
 12 13  1  0  0  0  0
 13 14  1  0  0  0  0
 13 27  1  0  0  0  0
 13 28  1  0  0  0  0
 14 15  1  0  0  0  0
 14 16  1  0  0  0  0
 14 29  1  0  0  0  0
 15 30  1  0  0  0  0
 16 21  1  0  0  0  0
 16 17  2  0  0  0  0
 17 18  1  0  0  0  0
 17 31  1  0  0  0  0
 18 19  2  0  0  0  0
 18 32  1  0  0  0  0
 19 20  1  0  0  0  0
 19 33  1  0  0  0  0
 20 21  2  0  0  0  0
 20 34  1  0  0  0  0
 21 35  1  0  0  0  0
M  END
> <s_m_source_file>
AV-unprocessed.smi

> <i_m_source_file_index>
2556

> <i_lp_mmshare_version>
43012

> <i_f3d_flags>
0

> <s_epik_input>
Tz1jMVtuSF1jKD1PKW4oW0NIM10pYyhjMTIpbltjSF1uMltDSDJdW0NASF0oW09IXSljM1tjSF1bY0hdW2NIXVtjSF1bY0hdMw==

> <s_epik_cmdline>
J2VwaWtfcHl0aG9uJywgJy1waCcsICc3LjAnLCAnLXRuJywgJzgnLCAnLW1hJywgJzIwMCcsICctbWV0YWxfYmluZGluZycsICctaW1hZScsICc8aW5maWxlLm1hZT4nLCAnLW9tYWUnLCAnPG91dGZpbGUubWFlPic=

> <r_lp_tautomer_probability>
1

> <r_epik_Ionization_Penalty>
0.000177505

> <r_epik_Ionization_Penalty_Charging>
0.000176585

> <r_epik_Ionization_Penalty_Neutral>
9.19728e-07

> <r_epik_State_Penalty>
-0

> <r_epik_Charging_Adjusted_Penalty>
0.000176585

> <i_epik_Tot_Q>
0

> <i_epik_Tot_abs_Q>
0

> <r_epik_Metal_State_Penalty>
0.122509

> <b_epik_Metal_Only>
0

> <s_lp_Force_Field>
OPLS_2005

> <r_lp_Energy>
28.9299

> <b_lp_Chiralities_Consistent>
1

> <s_lp_Variant>
AV-unprocessed.smi:2556-1

> <Gold.Version>
5.8.1

> <Gold.Id.Protein>
6NUR|6NUR_protein|mol2

> <Gold.PLP.Fitness>
38.5974

> <Gold.PLP.PLP>
-33.6263

> <Gold.PLP.part.hbond>
-2.0000

> <Gold.PLP.part.metal>
0.0000

> <Gold.PLP.part.buried>
-6.3213

> <Gold.PLP.part.nonpolar>
-27.0895

> <Gold.PLP.part.repulsive>
0.3958

> <Gold.PLP.ligand.clash>
0.0000

> <Gold.PLP.ligand.torsion>
0.5145

> <Gold.PLP.Chemscore.Hbond>
1.9920

> <Gold.PLP.Chemscore.CHOScore>
0.0000

> <Gold.PLP.Chemscore.Metal>
0.0000

> <Gold.Chemscore.Hbonds>
donor molecule, donor type, donor heavy atom, donor atom, acceptor molecule, acceptor atom, score
      L1  H     5    22       P1  7948  0.85
      P1  H  6896  6909       L1    10  1.00

> <Gold.PLP.Chemscore.Internal.Correction>
0.0241

> <Gold.Rescore>
     Score         DG    S(hbond)    S(metal)    S(lipo)     H(rot)  DE(clash)    DE(int)     intcor
     16.69     -17.72       2.52        0.00      83.31       2.31       0.48       0.55       ----

> <Gold.Chemscore.Fitness>
16.6903

> <Gold.Chemscore.DG>
-17.7175

> <Gold.Chemscore.ZeroCoef>
-5.4800

> <Gold.Chemscore.Hbond>
2.5172

> <Gold.Chemscore.Metal>
0.0000

> <Gold.Chemscore.Lipo>
83.3127

> <Gold.Chemscore.Internal_Hbond>
0.0000

> <Gold.Chemscore.DEClash>
0.4804

> <Gold.Chemscore.DEInternal>
0.5468

> <Gold.Chemscore.Rot>
2.3115

> <Gold.Chemscore.Internal.Correction>
   9.000000E+99

> <Gold.Chemscore.Hbonds>
donor molecule, donor type, donor heavy atom, donor atom, acceptor molecule, acceptor atom, score
      L1  H     5    22       P1  7948  0.15
      P1  H  6896  6909       L1    10  0.93

> <Gold.Chemscore.Hbond.Weighted>
-8.4073

> <Gold.Chemscore.Metal.Weighted>
-0.0000

> <Gold.Chemscore.Lipo.Weighted>
-9.7476

> <Gold.Chemscore.Internal_Hbond.Weighted>
0.0000

> <Gold.Chemscore.DEClash.Weighted>
0.4804

> <Gold.Chemscore.DEInternal.Weighted>
0.5468

> <Gold.Chemscore.Rot.Weighted>
5.9174

> <Gold.Chemscore.Internal.Correction.Weighted>
   9.000000E+99

> <Gold.Protein.RotatedTorsions>
[ 6907 6896 6895 6894 ] final   65.29 input  -60.11 | X-H torsion
[ 7974 7965 7964 7962 ] final -113.46 input  175.53 | X-H torsion
[ 8008 7997 7996 7995 ] final   22.32 input   59.86 | X-H torsion
[ 10167 10162 10161 10158 ] final  -87.10 input  -65.29 | X-H torsion
[ 10718 10713 10712 10709 ] final  -63.06 input   66.30 | X-H torsion
[ 10763 10752 10751 10750 ] final   -0.71 input  -60.55 | X-H torsion
[ 11005 11000 10999 10996 ] final   78.24 input  -57.11 | X-H torsion

> <Gold.Protein.ActiveResidues>
 VAL166  LYS551  ARG553  GLY616  TRP617  ASP618  TYR619  PRO620  LYS621  CYS622 
 ASP623  PHE694  ASN695  SER759  ASP760  ASP761  ALA762  ILE779  LEU786  VAL792 
 PHE793  MET794  SER795  GLU796  ALA797  LYS798  CYS799  TRP800  GLU811  SER814 

> <Gold.Protein.RotatedAtoms>
  152.4396  134.5617  159.9895 H   0  0  0  0  0  0  0  0  0  0  0  0  # atno 6907 bound_to 6896
  151.5718  133.3383  159.2999 H   0  0  0  0  0  0  0  0  0  0  0  0  # atno 6908 bound_to 6896
  150.8300  134.7583  159.6910 H   0  0  0  0  0  0  0  0  0  0  0  0  # atno 6909 bound_to 6896
  145.1317  140.8728  143.3754 H   0  0  0  0  0  0  0  0  0  0  0  0  # atno 7974 bound_to 7965
  154.9640  140.3081  155.5018 H   0  0  0  0  0  0  0  0  0  0  0  0  # atno 8008 bound_to 7997
  156.2974  140.2296  156.4666 H   0  0  0  0  0  0  0  0  0  0  0  0  # atno 8009 bound_to 7997
  154.7938  140.0438  157.1210 H   0  0  0  0  0  0  0  0  0  0  0  0  # atno 8010 bound_to 7997
  140.3877  143.2719  151.9304 H   0  0  0  0  0  0  0  0  0  0  0  0  # atno 10167 bound_to 10162
  156.0815  130.4216  150.1224 H   0  0  0  0  0  0  0  0  0  0  0  0  # atno 10718 bound_to 10713
  153.3354  135.6977  153.6912 H   0  0  0  0  0  0  0  0  0  0  0  0  # atno 10763 bound_to 10752
  153.5698  135.3518  155.2834 H   0  0  0  0  0  0  0  0  0  0  0  0  # atno 10764 bound_to 10752
  154.8626  135.4269  154.2553 H   0  0  0  0  0  0  0  0  0  0  0  0  # atno 10765 bound_to 10752
  139.9221  134.7748  156.1624 H   0  0  0  0  0  0  0  0  0  0  0  0  # atno 11005 bound_to 11000
  145.0628  139.3092  143.5871 LP  0  0  0  0  0  0  0  0  0  0  0  0  # atno 17320 bound_to 7965
  146.3513  140.0076  142.8670 LP  0  0  0  0  0  0  0  0  0  0  0  0  # atno 17321 bound_to 7965
  139.4791  144.5758  151.8014 LP  0  0  0  0  0  0  0  0  0  0  0  0  # atno 17342 bound_to 10162
  140.4872  144.1363  150.5943 LP  0  0  0  0  0  0  0  0  0  0  0  0  # atno 17343 bound_to 10162
  156.9254  130.9696  151.3542 LP  0  0  0  0  0  0  0  0  0  0  0  0  # atno 17370 bound_to 10713
  157.5933  130.8459  149.8692 LP  0  0  0  0  0  0  0  0  0  0  0  0  # atno 17371 bound_to 10713
  141.0750  133.6780  156.2217 LP  0  0  0  0  0  0  0  0  0  0  0  0  # atno 17394 bound_to 11000
  140.6444  134.5132  157.5572 LP  0  0  0  0  0  0  0  0  0  0  0  0  # atno 17395 bound_to 11000

$$$$
