AV-unprocessed.smi:1836|AV-procd|sdf|7479|dock5
  -GOLD-   22720 9173D 1   1.00000     0.00000
 Structure written by MMmdl.
 32 33  0  0  0  0  0  0  0  0  2 V2000
  152.1374  143.7367  160.1765 C   0  0  0  0  0  0  0  0  0  0  0  0
  152.5418  142.2920  159.8524 C   0  0  2  0  0  0  0  0  0  0  0  0
  154.0430  142.2021  159.4928 C   0  0  0  0  0  0  0  0  0  0  0  0
  154.7610  141.2301  160.3163 N   0  0  0  0  0  0  0  0  0  0  0  0
  154.8149  141.3767  161.7620 C   0  0  0  0  0  0  0  0  0  0  0  0
  155.9021  140.3933  162.2144 C   0  0  0  0  0  0  0  0  0  0  0  0
  156.0969  139.4293  161.0393 C   0  0  0  0  0  0  0  0  0  0  0  0
  155.4233  140.1503  159.8836 C   0  0  0  0  0  0  0  0  0  0  0  0
  155.5068  139.7674  158.7174 O   0  0  0  0  0  0  0  0  0  0  0  0
  151.7206  141.8198  158.7374 N   0  0  0  0  0  0  0  0  0  0  0  0
  151.8328  140.6392  158.1100 C   0  0  0  0  0  0  0  0  0  0  0  0
  152.6616  139.8108  158.4943 O   0  0  0  0  0  0  0  0  0  0  0  0
  150.9933  140.4993  157.0595 N   0  5  0  0  0  0  0  0  0  0  0  0
  151.1671  139.4838  156.1978 C   0  0  0  0  0  0  0  0  0  0  0  0
  152.3618  138.9039  156.0008 N   0  0  0  0  0  0  0  0  0  0  0  0
  152.3216  137.8746  155.0698 N   0  0  0  0  0  0  0  0  0  0  0  0
  151.0898  137.6990  154.5924 C   0  0  0  0  0  0  0  0  0  0  0  0
  149.8662  138.7719  155.2382 S   0  0  0  0  0  0  0  0  0  0  0  0
  152.7062  144.1221  161.0230 H   0  0  0  0  0  0  0  0  0  0  0  0
  151.0801  143.7995  160.4360 H   0  0  0  0  0  0  0  0  0  0  0  0
  152.3129  144.3991  159.3281 H   0  0  0  0  0  0  0  0  0  0  0  0
  152.3411  141.6980  160.7456 H   0  0  0  0  0  0  0  0  0  0  0  0
  154.1662  141.9553  158.4370 H   0  0  0  0  0  0  0  0  0  0  0  0
  154.5152  143.1761  159.6307 H   0  0  0  0  0  0  0  0  0  0  0  0
  155.0469  142.4004  162.0590 H   0  0  0  0  0  0  0  0  0  0  0  0
  153.8455  141.1101  162.1844 H   0  0  0  0  0  0  0  0  0  0  0  0
  156.8315  140.9321  162.4053 H   0  0  0  0  0  0  0  0  0  0  0  0
  155.6255  139.8755  163.1332 H   0  0  0  0  0  0  0  0  0  0  0  0
  157.1504  139.2385  160.8325 H   0  0  0  0  0  0  0  0  0  0  0  0
  155.5936  138.4784  161.2156 H   0  0  0  0  0  0  0  0  0  0  0  0
  151.0234  142.4602  158.3865 H   0  0  0  0  0  0  0  0  0  0  0  0
  150.8998  136.9310  153.8575 H   0  0  0  0  0  0  0  0  0  0  0  0
  1  2  1  0  0  0  0
  1 19  1  0  0  0  0
  1 20  1  0  0  0  0
  1 21  1  0  0  0  0
  2  3  1  0  0  0  0
  2 10  1  0  0  0  0
  2 22  1  0  0  0  0
  3  4  1  0  0  0  0
  3 23  1  0  0  0  0
  3 24  1  0  0  0  0
  4  8  1  0  0  0  0
  4  5  1  0  0  0  0
  5  6  1  0  0  0  0
  5 25  1  0  0  0  0
  5 26  1  0  0  0  0
  6  7  1  0  0  0  0
  6 27  1  0  0  0  0
  6 28  1  0  0  0  0
  7  8  1  0  0  0  0
  7 29  1  0  0  0  0
  7 30  1  0  0  0  0
  8  9  2  0  0  0  0
 10 11  1  0  0  0  0
 10 31  1  0  0  0  0
 11 12  2  0  0  0  0
 11 13  1  0  0  0  0
 13 14  1  0  0  0  0
 14 18  1  0  0  0  0
 14 15  2  0  0  0  0
 15 16  1  0  0  0  0
 16 17  2  0  0  0  0
 17 18  1  0  0  0  0
 17 32  1  0  0  0  0
M  CHG  1  13  -1
M  END
> <s_m_source_file>
AV-unprocessed.smi

> <i_m_source_file_index>
1836

> <i_lp_mmshare_version>
43012

> <i_f3d_flags>
0

> <s_epik_input>
Tz1DMVtDSDJdW0NIMl1bQ0gyXU4xW0NIMl1bQ0BASF0oW0NIM10pW05IXUMoPU8pW05IXWMybm5bY0hdczI=

> <s_epik_cmdline>
J2VwaWtfcHl0aG9uJywgJy1waCcsICc3LjAnLCAnLXRuJywgJzgnLCAnLW1hJywgJzIwMCcsICctbWV0YWxfYmluZGluZycsICctaW1hZScsICc8aW5maWxlLm1hZT4nLCAnLW9tYWUnLCAnPG91dGZpbGUubWFlPic=

> <r_lp_tautomer_probability>
1

> <r_epik_Ionization_Penalty>
3.44722

> <r_epik_Ionization_Penalty_Charging>
3.40341

> <r_epik_Ionization_Penalty_Neutral>
0.0438099

> <r_epik_State_Penalty>
3.40151

> <r_epik_Charging_Adjusted_Penalty>
6.80491

> <i_epik_Tot_Q>
-1

> <i_epik_Tot_abs_Q>
1

> <r_epik_Metal_State_Penalty>
0.49534

> <b_epik_Metal_Only>
1

> <s_lp_Force_Field>
OPLS_2005

> <r_lp_Energy>
15.5322

> <b_lp_Chiralities_Consistent>
1

> <s_lp_Variant>
AV-unprocessed.smi:1836-3

> <Gold.Version>
5.8.1

> <Gold.Id.Protein>
6NUR|6NUR_protein|mol2

> <Gold.PLP.Fitness>
43.9028

> <Gold.PLP.PLP>
-36.6459

> <Gold.PLP.part.hbond>
-2.9268

> <Gold.PLP.part.metal>
0.0000

> <Gold.PLP.part.buried>
-4.5643

> <Gold.PLP.part.nonpolar>
-29.1924

> <Gold.PLP.part.repulsive>
0.1156

> <Gold.PLP.ligand.clash>
0.0000

> <Gold.PLP.ligand.torsion>
0.9442

> <Gold.PLP.Chemscore.Hbond>
2.0000

> <Gold.PLP.Chemscore.CHOScore>
1.0000

> <Gold.PLP.Chemscore.Metal>
0.0000

> <Gold.Chemscore.Hbonds>
donor molecule, donor type, donor heavy atom, donor atom, acceptor molecule, acceptor atom, score
      P1  H  7997  8010       L1     9  0.62
      L1  C    17    32       P1  7948  0.10
      L1  C    17    32       P1  7949  0.88

> <Gold.PLP.Chemscore.Internal.Correction>
0.1453

> <Gold.Rescore>
     Score         DG    S(hbond)    S(metal)    S(lipo)     H(rot)  DE(clash)    DE(int)     intcor
     14.69     -16.07       1.98        0.00      71.80       1.73       0.02       1.37       ----

> <Gold.Chemscore.Fitness>
14.6866

> <Gold.Chemscore.DG>
-16.0692

> <Gold.Chemscore.ZeroCoef>
-5.4800

> <Gold.Chemscore.Hbond>
1.9813

> <Gold.Chemscore.Metal>
0.0000

> <Gold.Chemscore.Lipo>
71.8028

> <Gold.Chemscore.Internal_Hbond>
0.0000

> <Gold.Chemscore.DEClash>
0.0158

> <Gold.Chemscore.DEInternal>
1.3668

> <Gold.Chemscore.Rot>
1.7302

> <Gold.Chemscore.Internal.Correction>
   9.000000E+99

> <Gold.Chemscore.Hbonds>
donor molecule, donor type, donor heavy atom, donor atom, acceptor molecule, acceptor atom, score
      P1  H  7997  8008       L1    15  0.04
      P1  H  7997  8010       L1     9  0.60

> <Gold.Chemscore.Hbond.Weighted>
-6.6177

> <Gold.Chemscore.Metal.Weighted>
-0.0000

> <Gold.Chemscore.Lipo.Weighted>
-8.4009

> <Gold.Chemscore.Internal_Hbond.Weighted>
0.0000

> <Gold.Chemscore.DEClash.Weighted>
0.0158

> <Gold.Chemscore.DEInternal.Weighted>
1.3668

> <Gold.Chemscore.Rot.Weighted>
4.4294

> <Gold.Chemscore.Internal.Correction.Weighted>
   9.000000E+99

> <Gold.Protein.RotatedTorsions>
[ 6907 6896 6895 6894 ] final   60.79 input  -60.11 | X-H torsion
[ 7974 7965 7964 7962 ] final   32.86 input  175.53 | X-H torsion
[ 8008 7997 7996 7995 ] final  -16.95 input   59.86 | X-H torsion
[ 10167 10162 10161 10158 ] final  178.97 input  -65.29 | X-H torsion
[ 10718 10713 10712 10709 ] final  -88.28 input   66.30 | X-H torsion
[ 10763 10752 10751 10750 ] final    5.75 input  -60.55 | X-H torsion
[ 11005 11000 10999 10996 ] final -147.86 input  -57.11 | X-H torsion

> <Gold.Protein.ActiveResidues>
 VAL166  LYS551  ARG553  GLY616  TRP617  ASP618  TYR619  PRO620  LYS621  CYS622 
 ASP623  PHE694  ASN695  SER759  ASP760  ASP761  ALA762  ILE779  LEU786  VAL792 
 PHE793  MET794  SER795  GLU796  ALA797  LYS798  CYS799  TRP800  GLU811  SER814 

> <Gold.Protein.RotatedAtoms>
  152.4033  134.6249  160.0060 H   0  0  0  0  0  0  0  0  0  0  0  0  # atno 6907 bound_to 6896
  151.6448  133.3318  159.3146 H   0  0  0  0  0  0  0  0  0  0  0  0  # atno 6908 bound_to 6896
  150.7931  134.7012  159.6596 H   0  0  0  0  0  0  0  0  0  0  0  0  # atno 6909 bound_to 6896
  146.1459  139.6471  142.9132 H   0  0  0  0  0  0  0  0  0  0  0  0  # atno 7974 bound_to 7965
  154.5014  140.2156  155.9338 H   0  0  0  0  0  0  0  0  0  0  0  0  # atno 8008 bound_to 7997
  156.1439  140.3174  155.8506 H   0  0  0  0  0  0  0  0  0  0  0  0  # atno 8009 bound_to 7997
  155.4068  140.0488  157.3024 H   0  0  0  0  0  0  0  0  0  0  0  0  # atno 8010 bound_to 7997
  139.5316  144.2617  152.0702 H   0  0  0  0  0  0  0  0  0  0  0  0  # atno 10167 bound_to 10162
  155.9984  130.4830  150.4996 H   0  0  0  0  0  0  0  0  0  0  0  0  # atno 10718 bound_to 10713
  153.2557  135.6918  153.7631 H   0  0  0  0  0  0  0  0  0  0  0  0  # atno 10763 bound_to 10752
  153.6709  135.3344  155.3154 H   0  0  0  0  0  0  0  0  0  0  0  0  # atno 10764 bound_to 10752
  154.8411  135.4499  154.1530 H   0  0  0  0  0  0  0  0  0  0  0  0  # atno 10765 bound_to 10752
  140.7672  134.3230  157.5085 H   0  0  0  0  0  0  0  0  0  0  0  0  # atno 11005 bound_to 11000
  145.4939  141.0438  143.2578 LP  0  0  0  0  0  0  0  0  0  0  0  0  # atno 17320 bound_to 7965
  144.7845  139.6455  143.7140 LP  0  0  0  0  0  0  0  0  0  0  0  0  # atno 17321 bound_to 7965
  140.2081  144.4590  150.6399 LP  0  0  0  0  0  0  0  0  0  0  0  0  # atno 17342 bound_to 10162
  140.6498  143.2222  151.6103 LP  0  0  0  0  0  0  0  0  0  0  0  0  # atno 17343 bound_to 10162
  157.2981  131.0640  151.2087 LP  0  0  0  0  0  0  0  0  0  0  0  0  # atno 17370 bound_to 10713
  157.3076  130.6873  149.6198 LP  0  0  0  0  0  0  0  0  0  0  0  0  # atno 17371 bound_to 10713
  139.8761  134.9239  156.3336 LP  0  0  0  0  0  0  0  0  0  0  0  0  # atno 17394 bound_to 11000
  140.9607  133.7390  156.0398 LP  0  0  0  0  0  0  0  0  0  0  0  0  # atno 17395 bound_to 11000

$$$$
