AV-unprocessed.smi:2519|AV-procd|sdf|9904|dock8
  -GOLD-   2272013543D 1   1.00000     0.00000
 Structure written by MMmdl.
 43 44  0  0  0  0  0  0  0  0  1 V2000
  151.8509  137.2796  155.0944 C   0  0  0  0  0  0  0  0  0  0  0  0
  150.6484  138.0650  154.8657 N   0  0  0  0  0  0  0  0  0  0  0  0
  150.6198  139.4049  154.7766 C   0  0  0  0  0  0  0  0  0  0  0  0
  151.6268  140.1060  154.8871 O   0  0  0  0  0  0  0  0  0  0  0  0
  149.2640  140.0228  154.5526 C   0  0  0  0  0  0  0  0  0  0  0  0
  149.0775  141.4099  154.7453 C   0  0  0  0  0  0  0  0  0  0  0  0
  147.8021  141.9582  154.5221 C   0  0  0  0  0  0  0  0  0  0  0  0
  146.7574  141.1078  154.1156 C   0  0  0  0  0  0  0  0  0  0  0  0
  147.0151  139.7311  153.9430 C   0  0  0  0  0  0  0  0  0  0  0  0
  145.8984  138.9539  153.5384 N   0  0  0  0  0  0  0  0  0  0  0  0
  145.7330  137.6186  153.6245 C   0  0  0  0  0  0  0  0  0  0  0  0
  146.5799  136.8335  154.0479 O   0  0  0  0  0  0  0  0  0  0  0  0
  144.5315  137.1821  153.2026 N   0  0  0  0  0  0  0  0  0  0  0  0
  144.0237  135.8089  153.1587 C   0  0  1  0  0  0  0  0  0  0  0  0
  142.4880  135.8309  153.2596 C   0  0  0  0  0  0  0  0  0  0  0  0
  141.9009  134.4149  153.1641 C   0  0  0  0  0  0  0  0  0  0  0  0
  142.3548  133.7096  151.8764 C   0  0  0  0  0  0  0  0  0  0  0  0
  143.8933  133.6680  151.7632 C   0  0  1  0  0  0  0  0  0  0  0  0
  144.3622  132.9456  150.4835 C   0  0  0  0  0  0  0  0  0  0  0  0
  143.7479  133.4388  149.4079 F   0  0  0  0  0  0  0  0  0  0  0  0
  145.6787  133.0924  150.3335 F   0  0  0  0  0  0  0  0  0  0  0  0
  144.0974  131.6423  150.5720 F   0  0  0  0  0  0  0  0  0  0  0  0
  144.4699  135.0964  151.8634 C   0  0  0  0  0  0  0  0  0  0  0  0
  148.2494  139.2153  154.1587 N   0  0  0  0  0  0  0  0  0  0  0  0
  151.6061  136.2173  155.0956 H   0  0  0  0  0  0  0  0  0  0  0  0
  152.2989  137.5280  156.0573 H   0  0  0  0  0  0  0  0  0  0  0  0
  152.5871  137.4590  154.3097 H   0  0  0  0  0  0  0  0  0  0  0  0
  149.7757  137.5654  154.7661 H   0  0  0  0  0  0  0  0  0  0  0  0
  149.8907  142.0485  155.0586 H   0  0  0  0  0  0  0  0  0  0  0  0
  147.6271  143.0148  154.6608 H   0  0  0  0  0  0  0  0  0  0  0  0
  145.7706  141.5121  153.9417 H   0  0  0  0  0  0  0  0  0  0  0  0
  145.1203  139.4756  153.1633 H   0  0  0  0  0  0  0  0  0  0  0  0
  143.8907  137.8918  152.8775 H   0  0  0  0  0  0  0  0  0  0  0  0
  144.4040  135.2571  154.0204 H   0  0  0  0  0  0  0  0  0  0  0  0
  142.1806  136.2926  154.1989 H   0  0  0  0  0  0  0  0  0  0  0  0
  142.0722  136.4479  152.4615 H   0  0  0  0  0  0  0  0  0  0  0  0
  142.2109  133.8307  154.0313 H   0  0  0  0  0  0  0  0  0  0  0  0
  140.8121  134.4623  153.1974 H   0  0  0  0  0  0  0  0  0  0  0  0
  141.9487  132.6980  151.8563 H   0  0  0  0  0  0  0  0  0  0  0  0
  141.9346  134.2264  151.0127 H   0  0  0  0  0  0  0  0  0  0  0  0
  144.2719  133.0988  152.6139 H   0  0  0  0  0  0  0  0  0  0  0  0
  144.1529  135.6795  150.9977 H   0  0  0  0  0  0  0  0  0  0  0  0
  145.5584  135.0529  151.8186 H   0  0  0  0  0  0  0  0  0  0  0  0
  1  2  1  0  0  0  0
  1 25  1  0  0  0  0
  1 26  1  0  0  0  0
  1 27  1  0  0  0  0
  2  3  1  0  0  0  0
  2 28  1  0  0  0  0
  3  4  2  0  0  0  0
  3  5  1  0  0  0  0
  5 24  1  0  0  0  0
  5  6  2  0  0  0  0
  6  7  1  0  0  0  0
  6 29  1  0  0  0  0
  7  8  2  0  0  0  0
  7 30  1  0  0  0  0
  8  9  1  0  0  0  0
  8 31  1  0  0  0  0
  9 10  1  0  0  0  0
  9 24  2  0  0  0  0
 10 11  1  0  0  0  0
 10 32  1  0  0  0  0
 11 12  2  0  0  0  0
 11 13  1  0  0  0  0
 13 14  1  0  0  0  0
 13 33  1  0  0  0  0
 14 23  1  0  0  0  0
 14 15  1  0  0  0  0
 14 34  1  0  0  0  0
 15 16  1  0  0  0  0
 15 35  1  0  0  0  0
 15 36  1  0  0  0  0
 16 17  1  0  0  0  0
 16 37  1  0  0  0  0
 16 38  1  0  0  0  0
 17 18  1  0  0  0  0
 17 39  1  0  0  0  0
 17 40  1  0  0  0  0
 18 19  1  0  0  0  0
 18 23  1  0  0  0  0
 18 41  1  0  0  0  0
 19 20  1  0  0  0  0
 19 21  1  0  0  0  0
 19 22  1  0  0  0  0
 23 42  1  0  0  0  0
 23 43  1  0  0  0  0
M  END
> <s_m_source_file>
AV-unprocessed.smi

> <i_m_source_file_index>
2519

> <i_lp_mmshare_version>
43012

> <i_f3d_flags>
0

> <s_epik_input>
W0NIM11bTkhdQyg9TyljMVtjSF1bY0hdW2NIXWMobjEpW05IXUMoPU8pW05IXVtDQEBIXTJbQ0gyXVtDSDJdW0NIMl1bQ0BASF0oQyhGKShGKUYpW0NIMl0y

> <s_epik_cmdline>
J2VwaWtfcHl0aG9uJywgJy1waCcsICc3LjAnLCAnLXRuJywgJzgnLCAnLW1hJywgJzIwMCcsICctbWV0YWxfYmluZGluZycsICctaW1hZScsICc8aW5maWxlLm1hZT4nLCAnLW9tYWUnLCAnPG91dGZpbGUubWFlPic=

> <r_lp_tautomer_probability>
1

> <r_epik_Ionization_Penalty>
3.74915e-05

> <r_epik_Ionization_Penalty_Charging>
0

> <r_epik_Ionization_Penalty_Neutral>
3.74915e-05

> <r_epik_State_Penalty>
-0

> <r_epik_Charging_Adjusted_Penalty>
0

> <i_epik_Tot_Q>
0

> <i_epik_Tot_abs_Q>
0

> <r_epik_Metal_State_Penalty>
-0

> <b_epik_Metal_Only>
0

> <s_lp_Force_Field>
OPLS_2005

> <r_lp_Energy>
27.1439

> <b_lp_Chiralities_Consistent>
1

> <s_lp_Variant>
AV-unprocessed.smi:2519-2

> <Gold.Version>
5.8.1

> <Gold.Id.Protein>
6NUR|6NUR_protein|mol2

> <Gold.PLP.Fitness>
47.0928

> <Gold.PLP.PLP>
-42.4931

> <Gold.PLP.part.hbond>
-2.0000

> <Gold.PLP.part.metal>
0.0000

> <Gold.PLP.part.buried>
-2.8503

> <Gold.PLP.part.nonpolar>
-37.6228

> <Gold.PLP.part.repulsive>
0.3646

> <Gold.PLP.ligand.clash>
0.0000

> <Gold.PLP.ligand.torsion>
0.7124

> <Gold.PLP.Chemscore.Hbond>
2.0000

> <Gold.PLP.Chemscore.CHOScore>
0.0000

> <Gold.PLP.Chemscore.Metal>
0.0000

> <Gold.Chemscore.Hbonds>
donor molecule, donor type, donor heavy atom, donor atom, acceptor molecule, acceptor atom, score
      L1  H    10    32       P1 10175  1.00
      P1  H  7989  7998       L1     4  1.00

> <Gold.PLP.Chemscore.Internal.Correction>
0.0244

> <Gold.Rescore>
     Score         DG    S(hbond)    S(metal)    S(lipo)     H(rot)  DE(clash)    DE(int)     intcor
     13.68     -17.54       1.76        0.00      74.58       1.00       1.55       2.31       ----

> <Gold.Chemscore.Fitness>
13.6802

> <Gold.Chemscore.DG>
-17.5400

> <Gold.Chemscore.ZeroCoef>
-5.4800

> <Gold.Chemscore.Hbond>
1.7646

> <Gold.Chemscore.Metal>
0.0000

> <Gold.Chemscore.Lipo>
74.5825

> <Gold.Chemscore.Internal_Hbond>
0.0000

> <Gold.Chemscore.DEClash>
1.5466

> <Gold.Chemscore.DEInternal>
2.3132

> <Gold.Chemscore.Rot>
1.0000

> <Gold.Chemscore.Internal.Correction>
   9.000000E+99

> <Gold.Chemscore.Hbonds>
donor molecule, donor type, donor heavy atom, donor atom, acceptor molecule, acceptor atom, score
      L1  H    10    32       P1 10175  1.00
      P1  H  7989  7998       L1     4  0.32

> <Gold.Chemscore.Hbond.Weighted>
-5.8938

> <Gold.Chemscore.Metal.Weighted>
-0.0000

> <Gold.Chemscore.Lipo.Weighted>
-8.7261

> <Gold.Chemscore.Internal_Hbond.Weighted>
0.0000

> <Gold.Chemscore.DEClash.Weighted>
1.5466

> <Gold.Chemscore.DEInternal.Weighted>
2.3132

> <Gold.Chemscore.Rot.Weighted>
2.5600

> <Gold.Chemscore.Internal.Correction.Weighted>
   9.000000E+99

> <Gold.Protein.RotatedTorsions>
[ 6907 6896 6895 6894 ] final  -65.61 input  -60.11 | X-H torsion
[ 7974 7965 7964 7962 ] final  179.73 input  175.53 | X-H torsion
[ 8008 7997 7996 7995 ] final  -23.07 input   59.86 | X-H torsion
[ 10167 10162 10161 10158 ] final  -83.34 input  -65.29 | X-H torsion
[ 10718 10713 10712 10709 ] final    4.27 input   66.30 | X-H torsion
[ 10763 10752 10751 10750 ] final  116.40 input  -60.55 | X-H torsion
[ 11005 11000 10999 10996 ] final -175.75 input  -57.11 | X-H torsion

> <Gold.Protein.ActiveResidues>
 VAL166  LYS551  ARG553  GLY616  TRP617  ASP618  TYR619  PRO620  LYS621  CYS622 
 ASP623  PHE694  ASN695  SER759  ASP760  ASP761  ALA762  ILE779  LEU786  VAL792 
 PHE793  MET794  SER795  GLU796  ALA797  LYS798  CYS799  TRP800  GLU811  SER814 

> <Gold.Protein.RotatedAtoms>
  150.7513  134.6136  159.6098 H   0  0  0  0  0  0  0  0  0  0  0  0  # atno 6907 bound_to 6896
  152.3463  134.7064  160.0258 H   0  0  0  0  0  0  0  0  0  0  0  0  # atno 6908 bound_to 6896
  151.7500  133.3291  159.3425 H   0  0  0  0  0  0  0  0  0  0  0  0  # atno 6909 bound_to 6896
  144.7143  140.0593  143.6433 H   0  0  0  0  0  0  0  0  0  0  0  0  # atno 7974 bound_to 7965
  154.4607  140.1991  156.0253 H   0  0  0  0  0  0  0  0  0  0  0  0  # atno 8008 bound_to 7997
  156.0834  140.3268  155.7694 H   0  0  0  0  0  0  0  0  0  0  0  0  # atno 8009 bound_to 7997
  155.5075  140.0559  157.2920 H   0  0  0  0  0  0  0  0  0  0  0  0  # atno 8010 bound_to 7997
  140.4236  143.2575  151.8857 H   0  0  0  0  0  0  0  0  0  0  0  0  # atno 10167 bound_to 10162
  156.8901  130.5684  149.5650 H   0  0  0  0  0  0  0  0  0  0  0  0  # atno 10718 bound_to 10713
  153.5367  135.3567  155.2700 H   0  0  0  0  0  0  0  0  0  0  0  0  # atno 10763 bound_to 10752
  154.8721  135.4081  154.3090 H   0  0  0  0  0  0  0  0  0  0  0  0  # atno 10764 bound_to 10752
  153.3789  135.7067  153.6648 H   0  0  0  0  0  0  0  0  0  0  0  0  # atno 10765 bound_to 10752
  140.4598  134.6265  157.4837 H   0  0  0  0  0  0  0  0  0  0  0  0  # atno 11005 bound_to 11000
  145.9878  139.2991  143.1003 LP  0  0  0  0  0  0  0  0  0  0  0  0  # atno 17320 bound_to 7965
  145.8938  140.9287  143.0538 LP  0  0  0  0  0  0  0  0  0  0  0  0  # atno 17321 bound_to 7965
  139.4783  144.5411  151.8527 LP  0  0  0  0  0  0  0  0  0  0  0  0  # atno 17342 bound_to 10162
  140.4506  144.1860  150.5897 LP  0  0  0  0  0  0  0  0  0  0  0  0  # atno 17343 bound_to 10162
  156.0633  130.5681  150.9238 LP  0  0  0  0  0  0  0  0  0  0  0  0  # atno 17370 bound_to 10713
  157.6089  131.0937  150.8831 LP  0  0  0  0  0  0  0  0  0  0  0  0  # atno 17371 bound_to 10713
  139.9953  134.6921  155.9620 LP  0  0  0  0  0  0  0  0  0  0  0  0  # atno 17394 bound_to 11000
  141.1626  133.6538  156.4372 LP  0  0  0  0  0  0  0  0  0  0  0  0  # atno 17395 bound_to 11000

$$$$
