AV-unprocessed.smi:1056|AV-procd|sdf|4643|dock7
  -GOLD-   22720 3153D 1   1.00000     0.00000
 Structure written by MMmdl.
 44 46  0  0  0  0  0  0  0  0  3 V2000
  153.0018  140.9806  160.6867 C   0  0  0  0  0  0  0  0  0  0  0  0
  152.2340  140.9392  159.3772 C   0  0  0  0  0  0  0  0  0  0  0  0
  152.4090  139.8350  158.5130 C   0  0  0  0  0  0  0  0  0  0  0  0
  151.7138  139.7578  157.2865 C   0  0  0  0  0  0  0  0  0  0  0  0
  151.7334  138.7862  156.3007 N   0  0  0  0  0  0  0  0  0  0  0  0
  150.8774  139.2853  155.4140 C   0  0  0  0  0  0  0  0  0  0  0  0
  150.3097  140.4713  155.7062 N   0  0  0  0  0  0  0  0  0  0  0  0
  149.3565  141.2118  154.8997 C   0  0  0  0  0  0  0  0  0  0  0  0
  147.8979  140.8630  155.2502 C   0  0  1  0  0  0  0  0  0  0  0  0
  147.5743  141.4212  156.5091 O   0  0  0  0  0  0  0  0  0  0  0  0
  146.9104  141.4065  154.1996 C   0  0  0  0  0  0  0  0  0  0  0  0
  146.4760  140.3593  153.2420 N   0  3  2  0  0  0  0  0  0  0  0  0
  146.4009  139.0000  153.8389 C   0  0  0  0  0  0  0  0  0  0  0  0
  145.6513  138.0445  152.8915 C   0  0  0  0  0  0  0  0  0  0  0  0
  146.1734  138.1706  151.5253 N   0  5  0  0  0  0  0  0  0  0  0  0
  146.8331  139.2517  151.0032 C   0  0  0  0  0  0  0  0  0  0  0  0
  147.1423  139.3958  149.8227 O   0  0  0  0  0  0  0  0  0  0  0  0
  147.2773  140.3683  151.9868 C   0  0  0  0  0  0  0  0  0  0  0  0
  150.8320  140.8246  156.9455 C   0  0  0  0  0  0  0  0  0  0  0  0
  150.6485  141.9283  157.7970 C   0  0  0  0  0  0  0  0  0  0  0  0
  151.3514  141.9895  159.0185 C   0  0  0  0  0  0  0  0  0  0  0  0
  151.1486  143.1861  159.9310 C   0  0  0  0  0  0  0  0  0  0  0  0
  153.6256  140.0949  160.8111 H   0  0  0  0  0  0  0  0  0  0  0  0
  152.3146  141.0264  161.5318 H   0  0  0  0  0  0  0  0  0  0  0  0
  153.6523  141.8548  160.7205 H   0  0  0  0  0  0  0  0  0  0  0  0
  153.0811  139.0347  158.7862 H   0  0  0  0  0  0  0  0  0  0  0  0
  150.6542  138.7611  154.4961 H   0  0  0  0  0  0  0  0  0  0  0  0
  149.5380  142.2797  155.0315 H   0  0  0  0  0  0  0  0  0  0  0  0
  149.5560  140.9879  153.8511 H   0  0  0  0  0  0  0  0  0  0  0  0
  147.8092  139.7801  155.3295 H   0  0  0  0  0  0  0  0  0  0  0  0
  148.0751  142.2148  156.6238 H   0  0  0  0  0  0  0  0  0  0  0  0
  146.0431  141.8193  154.7177 H   0  0  0  0  0  0  0  0  0  0  0  0
  147.3539  142.2341  153.6439 H   0  0  0  0  0  0  0  0  0  0  0  0
  147.4102  138.6318  154.0308 H   0  0  0  0  0  0  0  0  0  0  0  0
  145.8888  139.0190  154.8000 H   0  0  0  0  0  0  0  0  0  0  0  0
  145.7344  137.0253  153.2678 H   0  0  0  0  0  0  0  0  0  0  0  0
  144.5888  138.2873  152.9226 H   0  0  0  0  0  0  0  0  0  0  0  0
  147.1746  141.3368  151.4956 H   0  0  0  0  0  0  0  0  0  0  0  0
  148.3344  140.2303  152.2193 H   0  0  0  0  0  0  0  0  0  0  0  0
  149.9731  142.7212  157.5118 H   0  0  0  0  0  0  0  0  0  0  0  0
  150.4441  143.8991  159.5020 H   0  0  0  0  0  0  0  0  0  0  0  0
  152.0928  143.7059  160.0947 H   0  0  0  0  0  0  0  0  0  0  0  0
  150.7562  142.8676  160.8969 H   0  0  0  0  0  0  0  0  0  0  0  0
  145.5347  140.5980  152.9640 H   0  0  0  0  0  0  0  0  0  0  0  0
  1  2  1  0  0  0  0
  1 23  1  0  0  0  0
  1 24  1  0  0  0  0
  1 25  1  0  0  0  0
  2 21  1  0  0  0  0
  2  3  2  0  0  0  0
  3  4  1  0  0  0  0
  3 26  1  0  0  0  0
  4 19  2  0  0  0  0
  4  5  1  0  0  0  0
  5  6  2  0  0  0  0
  6  7  1  0  0  0  0
  6 27  1  0  0  0  0
  7  8  1  0  0  0  0
  7 19  1  0  0  0  0
  8  9  1  0  0  0  0
  8 28  1  0  0  0  0
  8 29  1  0  0  0  0
  9 10  1  0  0  0  0
  9 11  1  0  0  0  0
  9 30  1  0  0  0  0
 10 31  1  0  0  0  0
 11 12  1  0  0  0  0
 11 32  1  0  0  0  0
 11 33  1  0  0  0  0
 12 18  1  0  0  0  0
 12 13  1  0  0  0  0
 12 44  1  0  0  0  0
 13 14  1  0  0  0  0
 13 34  1  0  0  0  0
 13 35  1  0  0  0  0
 14 15  1  0  0  0  0
 14 36  1  0  0  0  0
 14 37  1  0  0  0  0
 15 16  1  0  0  0  0
 16 17  2  0  0  0  0
 16 18  1  0  0  0  0
 18 38  1  0  0  0  0
 18 39  1  0  0  0  0
 19 20  1  0  0  0  0
 20 21  2  0  0  0  0
 20 40  1  0  0  0  0
 21 22  1  0  0  0  0
 22 41  1  0  0  0  0
 22 42  1  0  0  0  0
 22 43  1  0  0  0  0
M  CHG  1  12   1
M  CHG  1  15  -1
M  END
> <s_m_source_file>
AV-unprocessed.smi

> <i_m_source_file_index>
1056

> <i_lp_mmshare_version>
43012

> <i_f3d_flags>
0

> <s_epik_input>
W0NIM11jKFtjSF0xKWMoW0NIM10pW2NIXWMoYzEyKW4oW2NIXW4yKVtDSDJdW0NASF0oW09IXSlbQ0gyXU4zW0NIMl1bQ0gyXVtOSF1DKD1PKVtDSDJdMw==

> <s_epik_cmdline>
J2VwaWtfcHl0aG9uJywgJy1waCcsICc3LjAnLCAnLXRuJywgJzgnLCAnLW1hJywgJzIwMCcsICctbWV0YWxfYmluZGluZycsICctaW1hZScsICc8aW5maWxlLm1hZT4nLCAnLW9tYWUnLCAnPG91dGZpbGUubWFlPic=

> <r_epik_Ionization_Penalty>
5.13411

> <r_epik_Ionization_Penalty_Charging>
5.04792

> <r_epik_Ionization_Penalty_Neutral>
0.0861879

> <r_epik_State_Penalty>
5.18224

> <r_epik_Charging_Adjusted_Penalty>
10.2302

> <i_epik_Tot_Q>
0

> <i_epik_Tot_abs_Q>
2

> <r_epik_Metal_State_Penalty>
1.33873

> <b_epik_Metal_Only>
1

> <s_lp_Force_Field>
OPLS_2005

> <r_lp_Energy>
15.7703

> <b_lp_Chiralities_Consistent>
1

> <s_lp_Variant>
AV-unprocessed.smi:1056-14

> <Gold.Version>
5.8.1

> <Gold.Id.Protein>
6NUR|6NUR_protein|mol2

> <Gold.PLP.Fitness>
52.7091

> <Gold.PLP.PLP>
-43.4985

> <Gold.PLP.part.hbond>
-2.9527

> <Gold.PLP.part.metal>
0.0000

> <Gold.PLP.part.buried>
-0.4362

> <Gold.PLP.part.nonpolar>
-42.4520

> <Gold.PLP.part.repulsive>
1.2496

> <Gold.PLP.ligand.clash>
0.0000

> <Gold.PLP.ligand.torsion>
1.4246

> <Gold.PLP.Chemscore.Hbond>
4.0000

> <Gold.PLP.Chemscore.CHOScore>
0.0000

> <Gold.PLP.Chemscore.Metal>
0.0000

> <Gold.Chemscore.Hbonds>
donor molecule, donor type, donor heavy atom, donor atom, acceptor molecule, acceptor atom, score
      L1  H    12    44       P1 10175  2.00
      P1  H  7954  7966       L1    17  0.06

> <Gold.PLP.Chemscore.Internal.Correction>
0.0599

> <Gold.Rescore>
     Score         DG    S(hbond)    S(metal)    S(lipo)     H(rot)  DE(clash)    DE(int)     intcor
     17.91     -20.97       2.74        0.00     104.86       2.31       1.71       1.35       ----

> <Gold.Chemscore.Fitness>
17.9118

> <Gold.Chemscore.DG>
-20.9665

> <Gold.Chemscore.ZeroCoef>
-5.4800

> <Gold.Chemscore.Hbond>
2.7375

> <Gold.Chemscore.Metal>
0.0000

> <Gold.Chemscore.Lipo>
104.8610

> <Gold.Chemscore.Internal_Hbond>
0.0000

> <Gold.Chemscore.DEClash>
1.7083

> <Gold.Chemscore.DEInternal>
1.3464

> <Gold.Chemscore.Rot>
2.3147

> <Gold.Chemscore.Internal.Correction>
   9.000000E+99

> <Gold.Chemscore.Hbonds>
donor molecule, donor type, donor heavy atom, donor atom, acceptor molecule, acceptor atom, score
      L1  H    12    44       P1 10175  0.74
      P1  H  7954  7966       L1    17  0.01

> <Gold.Chemscore.Hbond.Weighted>
-9.1433

> <Gold.Chemscore.Metal.Weighted>
-0.0000

> <Gold.Chemscore.Lipo.Weighted>
-12.2687

> <Gold.Chemscore.Internal_Hbond.Weighted>
0.0000

> <Gold.Chemscore.DEClash.Weighted>
1.7083

> <Gold.Chemscore.DEInternal.Weighted>
1.3464

> <Gold.Chemscore.Rot.Weighted>
5.9256

> <Gold.Chemscore.Internal.Correction.Weighted>
   9.000000E+99

> <Gold.Protein.RotatedTorsions>
[ 6907 6896 6895 6894 ] final  -79.45 input  -60.11 | X-H torsion
[ 7974 7965 7964 7962 ] final   34.45 input  175.53 | X-H torsion
[ 8008 7997 7996 7995 ] final   38.42 input   59.86 | X-H torsion
[ 10167 10162 10161 10158 ] final  148.93 input  -65.29 | X-H torsion
[ 10718 10713 10712 10709 ] final -160.44 input   66.30 | X-H torsion
[ 10763 10752 10751 10750 ] final  -67.77 input  -60.55 | X-H torsion
[ 11005 11000 10999 10996 ] final  103.68 input  -57.11 | X-H torsion

> <Gold.Protein.ActiveResidues>
 VAL166  LYS551  ARG553  GLY616  TRP617  ASP618  TYR619  PRO620  LYS621  CYS622 
 ASP623  PHE694  ASN695  SER759  ASP760  ASP761  ALA762  ILE779  LEU786  VAL792 
 PHE793  MET794  SER795  GLU796  ALA797  LYS798  CYS799  TRP800  GLU811  SER814 

> <Gold.Protein.RotatedAtoms>
  150.6950  134.4120  159.5165 H   0  0  0  0  0  0  0  0  0  0  0  0  # atno 6907 bound_to 6896
  152.1877  134.8697  160.0529 H   0  0  0  0  0  0  0  0  0  0  0  0  # atno 6908 bound_to 6896
  151.9664  133.3676  159.4091 H   0  0  0  0  0  0  0  0  0  0  0  0  # atno 6909 bound_to 6896
  146.1352  139.6268  142.9200 H   0  0  0  0  0  0  0  0  0  0  0  0  # atno 7974 bound_to 7965
  155.2200  140.3330  155.4317 H   0  0  0  0  0  0  0  0  0  0  0  0  # atno 8008 bound_to 7997
  156.2337  140.1862  156.7223 H   0  0  0  0  0  0  0  0  0  0  0  0  # atno 8009 bound_to 7997
  154.6022  140.0621  156.9369 H   0  0  0  0  0  0  0  0  0  0  0  0  # atno 8010 bound_to 7997
  139.4868  144.5641  151.7177 H   0  0  0  0  0  0  0  0  0  0  0  0  # atno 10167 bound_to 10162
  156.5822  130.8734  151.2867 H   0  0  0  0  0  0  0  0  0  0  0  0  # atno 10718 bound_to 10713
  154.3793  135.6078  153.5782 H   0  0  0  0  0  0  0  0  0  0  0  0  # atno 10763 bound_to 10752
  152.9788  135.5857  154.4429 H   0  0  0  0  0  0  0  0  0  0  0  0  # atno 10764 bound_to 10752
  154.4196  135.2845  155.1962 H   0  0  0  0  0  0  0  0  0  0  0  0  # atno 10765 bound_to 10752
  139.8785  134.9272  156.5247 H   0  0  0  0  0  0  0  0  0  0  0  0  # atno 11005 bound_to 11000
  145.5172  141.0433  143.2455 LP  0  0  0  0  0  0  0  0  0  0  0  0  # atno 17320 bound_to 7965
  144.7732  139.6688  143.7186 LP  0  0  0  0  0  0  0  0  0  0  0  0  # atno 17321 bound_to 7965
  140.5216  144.0870  150.6024 LP  0  0  0  0  0  0  0  0  0  0  0  0  # atno 17342 bound_to 10162
  140.3830  143.2792  152.0149 LP  0  0  0  0  0  0  0  0  0  0  0  0  # atno 17343 bound_to 10162
  157.7324  130.9714  150.1925 LP  0  0  0  0  0  0  0  0  0  0  0  0  # atno 17370 bound_to 10713
  156.2622  130.3712  149.8119 LP  0  0  0  0  0  0  0  0  0  0  0  0  # atno 17371 bound_to 10713
  140.8425  133.8194  155.9088 LP  0  0  0  0  0  0  0  0  0  0  0  0  # atno 17394 bound_to 11000
  140.9224  134.2125  157.4918 LP  0  0  0  0  0  0  0  0  0  0  0  0  # atno 17395 bound_to 11000

$$$$
