AV-unprocessed.smi:3334|AV-procd|sdf|12835|dock2
  -GOLD-   2272019213D 1   1.00000     0.00000
 Structure written by MMmdl.
 41 42  0  0  0  0  0  0  0  0  1 V2000
  150.4855  145.1042  159.8575 C   0  0  0  0  0  0  0  0  0  0  0  0
  151.7500  144.5222  159.2100 C   0  0  0  0  0  0  0  0  0  0  0  0
  151.4664  143.7676  157.9031 C   0  0  0  0  0  0  0  0  0  0  0  0
  152.5451  143.7007  160.1751 C   0  0  0  0  0  0  0  0  0  0  0  0
  153.0954  142.5228  159.8671 N   0  0  0  0  0  0  0  0  0  0  0  0
  153.7661  141.9375  160.9462 C   0  0  0  0  0  0  0  0  0  0  0  0
  154.4341  140.6012  160.7868 C   0  0  0  0  0  0  0  0  0  0  0  0
  153.6027  139.5921  159.9753 C   0  0  0  0  0  0  0  0  0  0  0  0
  152.1763  139.7405  160.2363 N   0  0  0  0  0  0  0  0  0  0  0  0
  151.2026  139.5110  159.3453 C   0  0  0  0  0  0  0  0  0  0  0  0
  151.4168  139.1779  158.1798 O   0  0  0  0  0  0  0  0  0  0  0  0
  149.7672  139.6834  159.8518 C   0  0  0  0  0  0  0  0  0  0  0  0
  148.9430  140.6787  159.0101 C   0  0  2  0  0  0  0  0  0  0  0  0
  147.5065  140.7515  159.4590 C   0  0  0  0  0  0  0  0  0  0  0  0
  146.6447  140.6016  158.4555 C   0  0  0  0  0  0  0  0  0  0  0  0
  147.3316  140.3991  157.1338 C   0  0  0  0  0  0  0  0  0  0  0  0
  148.8281  140.3091  157.5067 C   0  0  0  0  0  0  0  0  0  0  0  0
  153.7224  142.7019  162.0853 C   0  0  0  0  0  0  0  0  0  0  0  0
  152.8327  144.1802  161.8440 S   0  0  0  0  0  0  0  0  0  0  0  0
  150.7402  145.7150  160.7240 H   0  0  0  0  0  0  0  0  0  0  0  0
  149.8091  144.3166  160.1911 H   0  0  0  0  0  0  0  0  0  0  0  0
  149.9397  145.7370  159.1571 H   0  0  0  0  0  0  0  0  0  0  0  0
  152.3777  145.3729  158.9418 H   0  0  0  0  0  0  0  0  0  0  0  0
  152.3924  143.4380  157.4313 H   0  0  0  0  0  0  0  0  0  0  0  0
  150.9397  144.4020  157.1900 H   0  0  0  0  0  0  0  0  0  0  0  0
  150.8500  142.8857  158.0807 H   0  0  0  0  0  0  0  0  0  0  0  0
  155.4073  140.7286  160.3109 H   0  0  0  0  0  0  0  0  0  0  0  0
  154.6435  140.1748  161.7683 H   0  0  0  0  0  0  0  0  0  0  0  0
  153.7833  139.7326  158.9089 H   0  0  0  0  0  0  0  0  0  0  0  0
  153.9205  138.5775  160.2216 H   0  0  0  0  0  0  0  0  0  0  0  0
  151.9098  140.0038  161.1745 H   0  0  0  0  0  0  0  0  0  0  0  0
  149.2646  138.7146  159.8744 H   0  0  0  0  0  0  0  0  0  0  0  0
  149.8170  140.0279  160.8852 H   0  0  0  0  0  0  0  0  0  0  0  0
  149.3573  141.6829  159.1118 H   0  0  0  0  0  0  0  0  0  0  0  0
  147.2347  140.9249  160.4898 H   0  0  0  0  0  0  0  0  0  0  0  0
  145.5690  140.6346  158.5475 H   0  0  0  0  0  0  0  0  0  0  0  0
  146.9758  139.4914  156.6459 H   0  0  0  0  0  0  0  0  0  0  0  0
  147.1300  141.2488  156.4809 H   0  0  0  0  0  0  0  0  0  0  0  0
  149.4370  140.9675  156.8861 H   0  0  0  0  0  0  0  0  0  0  0  0
  149.1816  139.2921  157.3321 H   0  0  0  0  0  0  0  0  0  0  0  0
  154.1555  142.4841  163.0502 H   0  0  0  0  0  0  0  0  0  0  0  0
  1  2  1  0  0  0  0
  1 20  1  0  0  0  0
  1 21  1  0  0  0  0
  1 22  1  0  0  0  0
  2  3  1  0  0  0  0
  2  4  1  0  0  0  0
  2 23  1  0  0  0  0
  3 24  1  0  0  0  0
  3 25  1  0  0  0  0
  3 26  1  0  0  0  0
  4 19  1  0  0  0  0
  4  5  2  0  0  0  0
  5  6  1  0  0  0  0
  6  7  1  0  0  0  0
  6 18  2  0  0  0  0
  7  8  1  0  0  0  0
  7 27  1  0  0  0  0
  7 28  1  0  0  0  0
  8  9  1  0  0  0  0
  8 29  1  0  0  0  0
  8 30  1  0  0  0  0
  9 10  1  0  0  0  0
  9 31  1  0  0  0  0
 10 11  2  0  0  0  0
 10 12  1  0  0  0  0
 12 13  1  0  0  0  0
 12 32  1  0  0  0  0
 12 33  1  0  0  0  0
 13 17  1  0  0  0  0
 13 14  1  0  0  0  0
 13 34  1  0  0  0  0
 14 15  2  0  0  0  0
 14 35  1  0  0  0  0
 15 16  1  0  0  0  0
 15 36  1  0  0  0  0
 16 17  1  0  0  0  0
 16 37  1  0  0  0  0
 16 38  1  0  0  0  0
 17 39  1  0  0  0  0
 17 40  1  0  0  0  0
 18 19  1  0  0  0  0
 18 41  1  0  0  0  0
M  END
> <s_m_source_file>
AV-unprocessed.smi

> <i_m_source_file_index>
3334

> <i_lp_mmshare_version>
43012

> <i_f3d_flags>
0

> <s_epik_input>
W0NIM11bQ0hdKFtDSDNdKWMxbmMoW2NIXXMxKVtDSDJdW0NIMl1bTkhdQyg9TylbQ0gyXVtDQEBIXTJbQ0hdPVtDSF1bQ0gyXVtDSDJdMg==

> <s_epik_cmdline>
J2VwaWtfcHl0aG9uJywgJy1waCcsICc3LjAnLCAnLXRuJywgJzgnLCAnLW1hJywgJzIwMCcsICctbWV0YWxfYmluZGluZycsICctaW1hZScsICc8aW5maWxlLm1hZT4nLCAnLW9tYWUnLCAnPG91dGZpbGUubWFlPic=

> <r_epik_Ionization_Penalty>
0.000771592

> <r_epik_Ionization_Penalty_Charging>
0

> <r_epik_Ionization_Penalty_Neutral>
0.000771592

> <r_epik_State_Penalty>
0.000494253

> <r_epik_Charging_Adjusted_Penalty>
0.000494253

> <i_epik_Tot_Q>
0

> <i_epik_Tot_abs_Q>
0

> <r_epik_Metal_State_Penalty>
-0

> <b_epik_Metal_Only>
0

> <s_lp_Force_Field>
OPLS_2005

> <r_lp_Energy>
4.8696

> <b_lp_Chiralities_Consistent>
1

> <s_lp_Variant>
AV-unprocessed.smi:3334-1

> <Gold.Version>
5.8.1

> <Gold.Id.Protein>
6NUR|6NUR_protein|mol2

> <Gold.PLP.Fitness>
48.5290

> <Gold.PLP.PLP>
-47.1203

> <Gold.PLP.part.hbond>
-1.0000

> <Gold.PLP.part.metal>
0.0000

> <Gold.PLP.part.buried>
-5.4437

> <Gold.PLP.part.nonpolar>
-40.7279

> <Gold.PLP.part.repulsive>
0.1178

> <Gold.PLP.ligand.clash>
0.0000

> <Gold.PLP.ligand.torsion>
0.9020

> <Gold.PLP.Chemscore.Hbond>
1.0000

> <Gold.PLP.Chemscore.CHOScore>
0.0000

> <Gold.PLP.Chemscore.Metal>
0.0000

> <Gold.PLP.Chemscore.Internal.Correction>
0.2126

> <Gold.Rescore>
     Score         DG    S(hbond)    S(metal)    S(lipo)     H(rot)  DE(clash)    DE(int)     intcor
     17.34     -20.05       1.00        0.00     129.15       1.52       0.19       2.51       ----

> <Gold.Chemscore.Fitness>
17.3420

> <Gold.Chemscore.DG>
-20.0469

> <Gold.Chemscore.ZeroCoef>
-5.4800

> <Gold.Chemscore.Hbond>
0.9992

> <Gold.Chemscore.Metal>
0.0000

> <Gold.Chemscore.Lipo>
129.1543

> <Gold.Chemscore.Internal_Hbond>
0.0000

> <Gold.Chemscore.DEClash>
0.1907

> <Gold.Chemscore.DEInternal>
2.5142

> <Gold.Chemscore.Rot>
1.5162

> <Gold.Chemscore.Internal.Correction>
   9.000000E+99

> <Gold.Chemscore.Hbond.Weighted>
-3.3374

> <Gold.Chemscore.Metal.Weighted>
-0.0000

> <Gold.Chemscore.Lipo.Weighted>
-15.1111

> <Gold.Chemscore.Internal_Hbond.Weighted>
0.0000

> <Gold.Chemscore.DEClash.Weighted>
0.1907

> <Gold.Chemscore.DEInternal.Weighted>
2.5142

> <Gold.Chemscore.Rot.Weighted>
3.8815

> <Gold.Chemscore.Internal.Correction.Weighted>
   9.000000E+99

> <Gold.Protein.RotatedTorsions>
[ 6907 6896 6895 6894 ] final   80.56 input  -60.11 | X-H torsion
[ 7974 7965 7964 7962 ] final -167.90 input  175.53 | X-H torsion
[ 8008 7997 7996 7995 ] final -161.91 input   59.86 | X-H torsion
[ 10167 10162 10161 10158 ] final   52.28 input  -65.29 | X-H torsion
[ 10718 10713 10712 10709 ] final  -31.14 input   66.30 | X-H torsion
[ 10763 10752 10751 10750 ] final   69.50 input  -60.55 | X-H torsion
[ 11005 11000 10999 10996 ] final   -6.03 input  -57.11 | X-H torsion

> <Gold.Protein.ActiveResidues>
 VAL166  LYS551  ARG553  GLY616  TRP617  ASP618  TYR619  PRO620  LYS621  CYS622 
 ASP623  PHE694  ASN695  SER759  ASP760  ASP761  ALA762  ILE779  LEU786  VAL792 
 PHE793  MET794  SER795  GLU796  ALA797  LYS798  CYS799  TRP800  GLU811  SER814 

> <Gold.Protein.RotatedAtoms>
  152.5239  134.3339  159.9192 H   0  0  0  0  0  0  0  0  0  0  0  0  # atno 6907 bound_to 6896
  151.3288  133.4003  159.2668 H   0  0  0  0  0  0  0  0  0  0  0  0  # atno 6908 bound_to 6896
  150.9898  134.9252  159.7950 H   0  0  0  0  0  0  0  0  0  0  0  0  # atno 6909 bound_to 6896
  144.7213  140.2449  143.6286 H   0  0  0  0  0  0  0  0  0  0  0  0  # atno 7974 bound_to 7965
  155.7991  140.0889  157.1967 H   0  0  0  0  0  0  0  0  0  0  0  0  # atno 8008 bound_to 7997
  154.3982  140.1475  156.3312 H   0  0  0  0  0  0  0  0  0  0  0  0  # atno 8009 bound_to 7997
  155.8480  140.3436  155.5677 H   0  0  0  0  0  0  0  0  0  0  0  0  # atno 8010 bound_to 7997
  140.2530  144.3458  150.6342 H   0  0  0  0  0  0  0  0  0  0  0  0  # atno 10167 bound_to 10162
  156.3910  130.4373  149.7394 H   0  0  0  0  0  0  0  0  0  0  0  0  # atno 10718 bound_to 10713
  153.0290  135.5208  154.7298 H   0  0  0  0  0  0  0  0  0  0  0  0  # atno 10763 bound_to 10752
  154.6329  135.2902  155.0198 H   0  0  0  0  0  0  0  0  0  0  0  0  # atno 10764 bound_to 10752
  154.1143  135.6617  153.4943 H   0  0  0  0  0  0  0  0  0  0  0  0  # atno 10765 bound_to 10752
  140.6976  133.9018  155.8660 H   0  0  0  0  0  0  0  0  0  0  0  0  # atno 11005 bound_to 11000
  145.8283  139.2074  143.1897 LP  0  0  0  0  0  0  0  0  0  0  0  0  # atno 17320 bound_to 7965
  146.0453  140.8124  142.9808 LP  0  0  0  0  0  0  0  0  0  0  0  0  # atno 17321 bound_to 7965
  140.6026  143.2167  151.7043 LP  0  0  0  0  0  0  0  0  0  0  0  0  # atno 17342 bound_to 10162
  139.5040  144.3769  152.0414 LP  0  0  0  0  0  0  0  0  0  0  0  0  # atno 17343 bound_to 10162
  156.4448  130.7878  151.2899 LP  0  0  0  0  0  0  0  0  0  0  0  0  # atno 17370 bound_to 10713
  157.7499  131.0114  150.3343 LP  0  0  0  0  0  0  0  0  0  0  0  0  # atno 17371 bound_to 10713
  141.0191  134.0915  157.4140 LP  0  0  0  0  0  0  0  0  0  0  0  0  # atno 17394 bound_to 11000
  139.8906  135.0113  156.6744 LP  0  0  0  0  0  0  0  0  0  0  0  0  # atno 17395 bound_to 11000

$$$$
