AV-unprocessed.smi:286|AV-procd|sdf|2176|dock6
  -GOLD-   2262021543D 1   1.00000     0.00000
 Structure written by MMmdl.
 46 48  0  0  0  0  0  0  0  0  1 V2000
  150.3687  140.1060  154.1283 O   0  0  0  0  0  0  0  0  0  0  0  0
  150.6414  140.5394  155.2490 C   0  0  0  0  0  0  0  0  0  0  0  0
  149.9604  141.6800  155.8527 C   0  0  0  0  0  0  0  0  0  0  0  0
  149.0036  142.3239  155.1628 F   0  0  0  0  0  0  0  0  0  0  0  0
  150.2779  142.1054  157.0945 C   0  0  0  0  0  0  0  0  0  0  0  0
  151.2476  141.4996  157.8756 N   0  0  0  0  0  0  0  0  0  0  0  0
  151.5680  142.0105  159.2620 C   0  0  1  0  0  0  0  0  0  0  0  0
  153.0469  142.4052  159.3531 C   0  0  0  0  0  0  0  0  0  0  0  0
  152.9900  143.8982  159.1107 C   0  0  0  0  0  0  0  0  0  0  0  0
  151.6649  144.2641  159.7683 C   0  0  0  0  0  0  0  0  0  0  0  0
  150.8059  143.1568  159.5124 O   0  0  0  0  0  0  0  0  0  0  0  0
  151.9721  140.4005  157.3653 C   0  0  0  0  0  0  0  0  0  0  0  0
  152.8484  139.8516  158.0380 O   0  0  0  0  0  0  0  0  0  0  0  0
  151.6481  139.9596  156.0600 N   0  0  0  0  0  0  0  0  0  0  0  0
  152.3704  138.8114  155.5369 C   0  0  0  0  0  0  0  0  0  0  0  0
  151.4441  137.7131  154.9646 C   0  0  1  0  0  0  0  0  0  0  0  0
  152.1940  136.8863  154.0952 O   0  0  0  0  0  0  0  0  0  0  0  0
  150.7994  136.8418  156.0706 C   0  0  0  0  0  0  0  0  0  0  0  0
  149.9273  135.6854  155.5266 C   0  0  0  0  0  0  0  0  0  0  0  0
  149.3581  134.8233  156.6654 C   0  0  0  0  0  0  0  0  0  0  0  0
  148.5698  135.6752  157.6720 C   0  0  0  0  0  0  0  0  0  0  0  0
  149.4318  136.8218  158.2221 C   0  0  0  0  0  0  0  0  0  0  0  0
  149.9991  137.6879  157.0853 C   0  0  0  0  0  0  0  0  0  0  0  0
  149.7437  142.9594  157.4836 H   0  0  0  0  0  0  0  0  0  0  0  0
  151.2774  141.2221  159.9579 H   0  0  0  0  0  0  0  0  0  0  0  0
  153.4009  142.1955  160.3632 H   0  0  0  0  0  0  0  0  0  0  0  0
  153.6688  141.8616  158.6406 H   0  0  0  0  0  0  0  0  0  0  0  0
  153.8396  144.4339  159.5349 H   0  0  0  0  0  0  0  0  0  0  0  0
  152.9530  144.1073  158.0408 H   0  0  0  0  0  0  0  0  0  0  0  0
  151.7920  144.3674  160.8468 H   0  0  0  0  0  0  0  0  0  0  0  0
  151.2457  145.1941  159.3836 H   0  0  0  0  0  0  0  0  0  0  0  0
  153.1098  139.1564  154.8123 H   0  0  0  0  0  0  0  0  0  0  0  0
  152.9701  138.4295  156.3650 H   0  0  0  0  0  0  0  0  0  0  0  0
  150.6432  138.1744  154.3851 H   0  0  0  0  0  0  0  0  0  0  0  0
  151.6409  136.6307  153.3729 H   0  0  0  0  0  0  0  0  0  0  0  0
  151.6220  136.3893  156.6270 H   0  0  0  0  0  0  0  0  0  0  0  0
  149.1030  136.0834  154.9336 H   0  0  0  0  0  0  0  0  0  0  0  0
  150.5089  135.0512  154.8575 H   0  0  0  0  0  0  0  0  0  0  0  0
  148.7153  134.0443  156.2546 H   0  0  0  0  0  0  0  0  0  0  0  0
  150.1734  134.3119  157.1787 H   0  0  0  0  0  0  0  0  0  0  0  0
  147.6819  136.0847  157.1884 H   0  0  0  0  0  0  0  0  0  0  0  0
  148.2155  135.0493  158.4917 H   0  0  0  0  0  0  0  0  0  0  0  0
  148.8407  137.4387  158.8995 H   0  0  0  0  0  0  0  0  0  0  0  0
  150.2516  136.4119  158.8138 H   0  0  0  0  0  0  0  0  0  0  0  0
  150.6352  138.4670  157.5069 H   0  0  0  0  0  0  0  0  0  0  0  0
  149.1785  138.1998  156.5815 H   0  0  0  0  0  0  0  0  0  0  0  0
  1  2  2  0  0  0  0
  2 14  1  0  0  0  0
  2  3  1  0  0  0  0
  3  4  1  0  0  0  0
  3  5  2  0  0  0  0
  5  6  1  0  0  0  0
  5 24  1  0  0  0  0
  6  7  1  0  0  0  0
  6 12  1  0  0  0  0
  7 11  1  0  0  0  0
  7  8  1  0  0  0  0
  7 25  1  0  0  0  0
  8  9  1  0  0  0  0
  8 26  1  0  0  0  0
  8 27  1  0  0  0  0
  9 10  1  0  0  0  0
  9 28  1  0  0  0  0
  9 29  1  0  0  0  0
 10 11  1  0  0  0  0
 10 30  1  0  0  0  0
 10 31  1  0  0  0  0
 12 13  2  0  0  0  0
 12 14  1  0  0  0  0
 14 15  1  0  0  0  0
 15 16  1  0  0  0  0
 15 32  1  0  0  0  0
 15 33  1  0  0  0  0
 16 17  1  0  0  0  0
 16 18  1  0  0  0  0
 16 34  1  0  0  0  0
 17 35  1  0  0  0  0
 18 23  1  0  0  0  0
 18 19  1  0  0  0  0
 18 36  1  0  0  0  0
 19 20  1  0  0  0  0
 19 37  1  0  0  0  0
 19 38  1  0  0  0  0
 20 21  1  0  0  0  0
 20 39  1  0  0  0  0
 20 40  1  0  0  0  0
 21 22  1  0  0  0  0
 21 41  1  0  0  0  0
 21 42  1  0  0  0  0
 22 23  1  0  0  0  0
 22 43  1  0  0  0  0
 22 44  1  0  0  0  0
 23 45  1  0  0  0  0
 23 46  1  0  0  0  0
M  END
> <s_m_source_file>
AV-unprocessed.smi

> <i_m_source_file_index>
286

> <i_lp_mmshare_version>
43012

> <i_f3d_flags>
0

> <s_epik_input>
TzFbQ0gyXVtDSDJdW0NIMl1bQ0BIXTFuKFtjSF1jKEYpYzI9TyljKD1PKW4yW0NIMl1bQ0BIXShbT0hdKVtDSF0zW0NIMl1bQ0gyXVtDSDJdW0NIMl1bQ0gyXTM=

> <s_epik_cmdline>
J2VwaWtfcHl0aG9uJywgJy1waCcsICc3LjAnLCAnLXRuJywgJzgnLCAnLW1hJywgJzIwMCcsICctbWV0YWxfYmluZGluZycsICctaW1hZScsICc8aW5maWxlLm1hZT4nLCAnLW9tYWUnLCAnPG91dGZpbGUubWFlPic=

> <r_lp_tautomer_probability>
1

> <r_epik_Ionization_Penalty>
3.15564e-07

> <r_epik_Ionization_Penalty_Charging>
2.06416e-08

> <r_epik_Ionization_Penalty_Neutral>
2.94923e-07

> <r_epik_State_Penalty>
-0

> <r_epik_Charging_Adjusted_Penalty>
2.06416e-08

> <i_epik_Tot_Q>
0

> <i_epik_Tot_abs_Q>
0

> <r_epik_Metal_State_Penalty>
-0

> <b_epik_Metal_Only>
0

> <s_epik_Chemistry_Notes>
This compound contains an acetal/aminal-like group ( X-CH(R)-Y where X, Y are N, S, or O) that may be acid/base labile, releasing an aldehyde.

> <s_lp_Force_Field>
OPLS_2005

> <r_lp_Energy>
42.0749

> <b_lp_Chiralities_Consistent>
1

> <s_lp_Variant>
AV-unprocessed.smi:286-4

> <Gold.Version>
5.8.1

> <Gold.Id.Protein>
6NUR|6NUR_protein|mol2

> <Gold.PLP.Fitness>
51.8141

> <Gold.PLP.PLP>
-41.7658

> <Gold.PLP.part.hbond>
-4.4916

> <Gold.PLP.part.metal>
0.0000

> <Gold.PLP.part.buried>
-0.8171

> <Gold.PLP.part.nonpolar>
-37.4719

> <Gold.PLP.part.repulsive>
1.1886

> <Gold.PLP.ligand.clash>
0.0000

> <Gold.PLP.ligand.torsion>
0.3007

> <Gold.PLP.Chemscore.Hbond>
3.2856

> <Gold.PLP.Chemscore.CHOScore>
0.2434

> <Gold.PLP.Chemscore.Metal>
0.0000

> <Gold.Chemscore.Hbonds>
donor molecule, donor type, donor heavy atom, donor atom, acceptor molecule, acceptor atom, score
      L1  H    17    35       P1  7949  0.98
      P1  H  7989  7998       L1     1  0.60
      P1  H  7997  8010       L1    13  0.61
      P1  H 10752 10765       L1    17  0.56
      L1  C     5    24       P1  8028  0.48

> <Gold.PLP.Chemscore.Internal.Correction>
0.0628

> <Gold.Rescore>
     Score         DG    S(hbond)    S(metal)    S(lipo)     H(rot)  DE(clash)    DE(int)     intcor
     13.13     -17.72       2.46        0.00      84.18       2.28       0.38       4.21       ----

> <Gold.Chemscore.Fitness>
13.1281

> <Gold.Chemscore.DG>
-17.7250

> <Gold.Chemscore.ZeroCoef>
-5.4800

> <Gold.Chemscore.Hbond>
2.4615

> <Gold.Chemscore.Metal>
0.0000

> <Gold.Chemscore.Lipo>
84.1795

> <Gold.Chemscore.Internal_Hbond>
0.0000

> <Gold.Chemscore.DEClash>
0.3826

> <Gold.Chemscore.DEInternal>
4.2142

> <Gold.Chemscore.Rot>
2.2756

> <Gold.Chemscore.Internal.Correction>
   9.000000E+99

> <Gold.Chemscore.Hbonds>
donor molecule, donor type, donor heavy atom, donor atom, acceptor molecule, acceptor atom, score
      L1  H    17    35       P1  7949  0.86
      P1  H  7989  7998       L1     1  0.04
      P1  H  7997  8010       L1    13  0.09
      P1  H 10752 10765       L1    17  0.07

> <Gold.Chemscore.Hbond.Weighted>
-8.2214

> <Gold.Chemscore.Metal.Weighted>
-0.0000

> <Gold.Chemscore.Lipo.Weighted>
-9.8490

> <Gold.Chemscore.Internal_Hbond.Weighted>
0.0000

> <Gold.Chemscore.DEClash.Weighted>
0.3826

> <Gold.Chemscore.DEInternal.Weighted>
4.2142

> <Gold.Chemscore.Rot.Weighted>
5.8254

> <Gold.Chemscore.Internal.Correction.Weighted>
   9.000000E+99

> <Gold.Protein.RotatedTorsions>
[ 6907 6896 6895 6894 ] final  164.03 input  -60.11 | X-H torsion
[ 7974 7965 7964 7962 ] final   86.72 input  175.53 | X-H torsion
[ 8008 7997 7996 7995 ] final   62.36 input   59.86 | X-H torsion
[ 10167 10162 10161 10158 ] final   72.88 input  -65.29 | X-H torsion
[ 10718 10713 10712 10709 ] final   18.95 input   66.30 | X-H torsion
[ 10763 10752 10751 10750 ] final  142.96 input  -60.55 | X-H torsion
[ 11005 11000 10999 10996 ] final -113.16 input  -57.11 | X-H torsion

> <Gold.Protein.ActiveResidues>
 VAL166  LYS551  ARG553  GLY616  TRP617  ASP618  TYR619  PRO620  LYS621  CYS622 
 ASP623  PHE694  ASN695  SER759  ASP760  ASP761  ALA762  ILE779  LEU786  VAL792 
 PHE793  MET794  SER795  GLU796  ALA797  LYS798  CYS799  TRP800  GLU811  SER814 

> <Gold.Protein.RotatedAtoms>
  151.9161  133.3573  159.3880 H   0  0  0  0  0  0  0  0  0  0  0  0  # atno 6907 bound_to 6896
  150.7047  134.4682  159.5422 H   0  0  0  0  0  0  0  0  0  0  0  0  # atno 6908 bound_to 6896
  152.2297  134.8334  160.0526 H   0  0  0  0  0  0  0  0  0  0  0  0  # atno 6909 bound_to 6896
  145.5685  139.2311  143.2419 H   0  0  0  0  0  0  0  0  0  0  0  0  # atno 7974 bound_to 7965
  155.6131  140.3495  155.4628 H   0  0  0  0  0  0  0  0  0  0  0  0  # atno 8008 bound_to 7997
  156.0139  140.1239  157.0450 H   0  0  0  0  0  0  0  0  0  0  0  0  # atno 8009 bound_to 7997
  154.4290  140.1076  156.5854 H   0  0  0  0  0  0  0  0  0  0  0  0  # atno 8010 bound_to 7997
  140.0305  144.5469  150.7511 H   0  0  0  0  0  0  0  0  0  0  0  0  # atno 10167 bound_to 10162
  157.1035  130.6478  149.5878 H   0  0  0  0  0  0  0  0  0  0  0  0  # atno 10718 bound_to 10713
  153.9645  135.2957  155.3431 H   0  0  0  0  0  0  0  0  0  0  0  0  # atno 10763 bound_to 10752
  154.7356  135.5048  153.9040 H   0  0  0  0  0  0  0  0  0  0  0  0  # atno 10764 bound_to 10752
  153.0930  135.6713  153.9928 H   0  0  0  0  0  0  0  0  0  0  0  0  # atno 10765 bound_to 10752
  141.0631  133.9503  157.2630 H   0  0  0  0  0  0  0  0  0  0  0  0  # atno 11005 bound_to 11000
  146.1801  140.6511  142.9193 LP  0  0  0  0  0  0  0  0  0  0  0  0  # atno 17320 bound_to 7965
  144.7449  140.5041  143.6843 LP  0  0  0  0  0  0  0  0  0  0  0  0  # atno 17321 bound_to 7965
  140.7304  143.2683  151.3972 LP  0  0  0  0  0  0  0  0  0  0  0  0  # atno 17342 bound_to 10162
  139.6079  144.1159  152.2268 LP  0  0  0  0  0  0  0  0  0  0  0  0  # atno 17343 bound_to 10162
  155.9867  130.4904  150.7094 LP  0  0  0  0  0  0  0  0  0  0  0  0  # atno 17370 bound_to 10713
  157.4620  131.0884  151.0735 LP  0  0  0  0  0  0  0  0  0  0  0  0  # atno 17371 bound_to 10713
  139.9451  135.0185  156.8827 LP  0  0  0  0  0  0  0  0  0  0  0  0  # atno 17394 bound_to 11000
  140.5828  134.0335  155.7470 LP  0  0  0  0  0  0  0  0  0  0  0  0  # atno 17395 bound_to 11000

$$$$
