AV-unprocessed.smi:2931|AV-procd|sdf|11248|dock3
  -GOLD-   2272016143D 1   1.00000     0.00000
 Structure written by MMmdl.
 43 44  0  0  0  0  0  0  0  0  3 V2000
  144.3611  142.6703  155.4563 C   0  0  0  0  0  0  0  0  0  0  0  0
  145.1204  141.6541  154.6968 N   0  3  1  0  0  0  0  0  0  0  0  0
  146.3085  142.2278  154.0167 C   0  0  0  0  0  0  0  0  0  0  0  0
  146.9962  141.1773  153.1284 C   0  0  0  0  0  0  0  0  0  0  0  0
  147.3595  139.9185  153.9337 C   0  0  0  0  0  0  0  0  0  0  0  0
  146.1316  139.3635  154.6784 C   0  0  2  0  0  0  0  0  0  0  0  0
  145.1896  138.7801  153.7228 N   0  0  0  0  0  0  0  0  0  0  0  0
  144.8554  137.4835  153.6643 C   0  0  0  0  0  0  0  0  0  0  0  0
  145.2694  136.6303  154.4481 O   0  0  0  0  0  0  0  0  0  0  0  0
  144.0169  137.2290  152.6505 N   0  0  0  0  0  0  0  0  0  0  0  0
  143.5135  135.9056  152.2914 C   0  0  0  0  0  0  0  0  0  0  0  0
  144.0112  135.4121  150.9176 C   0  0  0  0  0  0  0  0  0  0  0  0
  145.0127  134.2731  151.0029 C   0  0  0  0  0  0  0  0  0  0  0  0
  146.2341  134.4396  151.6936 C   0  0  0  0  0  0  0  0  0  0  0  0
  147.1439  133.3641  151.7507 C   0  0  0  0  0  0  0  0  0  0  0  0
  146.8393  132.1923  151.1510 N   0  3  0  0  0  0  0  0  0  0  0  0
  145.6828  131.9912  150.4821 C   0  0  0  0  0  0  0  0  0  0  0  0
  144.7356  133.0313  150.3896 C   0  0  0  0  0  0  0  0  0  0  0  0
  145.4764  140.4759  155.5272 C   0  0  0  0  0  0  0  0  0  0  0  0
  144.9631  143.0838  156.2665 H   0  0  0  0  0  0  0  0  0  0  0  0
  143.4592  142.2345  155.8874 H   0  0  0  0  0  0  0  0  0  0  0  0
  144.0555  143.4890  154.8044 H   0  0  0  0  0  0  0  0  0  0  0  0
  146.0069  143.0796  153.4057 H   0  0  0  0  0  0  0  0  0  0  0  0
  147.0093  142.6059  154.7629 H   0  0  0  0  0  0  0  0  0  0  0  0
  146.3374  140.9110  152.3010 H   0  0  0  0  0  0  0  0  0  0  0  0
  147.8946  141.6017  152.6792 H   0  0  0  0  0  0  0  0  0  0  0  0
  147.7873  139.1590  153.2779 H   0  0  0  0  0  0  0  0  0  0  0  0
  148.1362  140.1687  154.6577 H   0  0  0  0  0  0  0  0  0  0  0  0
  146.4715  138.5679  155.3439 H   0  0  0  0  0  0  0  0  0  0  0  0
  144.8031  139.4015  153.0271 H   0  0  0  0  0  0  0  0  0  0  0  0
  143.7369  137.9971  152.0579 H   0  0  0  0  0  0  0  0  0  0  0  0
  143.8431  135.2132  153.0664 H   0  0  0  0  0  0  0  0  0  0  0  0
  142.4229  135.9004  152.3220 H   0  0  0  0  0  0  0  0  0  0  0  0
  143.1610  135.0840  150.3185 H   0  0  0  0  0  0  0  0  0  0  0  0
  144.4582  136.2412  150.3679 H   0  0  0  0  0  0  0  0  0  0  0  0
  146.4729  135.3791  152.1709 H   0  0  0  0  0  0  0  0  0  0  0  0
  148.1000  133.4061  152.2519 H   0  0  0  0  0  0  0  0  0  0  0  0
  145.5515  131.0130  150.0429 H   0  0  0  0  0  0  0  0  0  0  0  0
  143.8100  132.8772  149.8541 H   0  0  0  0  0  0  0  0  0  0  0  0
  146.1590  140.7887  156.3191 H   0  0  0  0  0  0  0  0  0  0  0  0
  144.5839  140.0937  156.0243 H   0  0  0  0  0  0  0  0  0  0  0  0
  144.5047  141.3182  153.9703 H   0  0  0  0  0  0  0  0  0  0  0  0
  147.5127  131.4272  151.2016 H   0  0  0  0  0  0  0  0  0  0  0  0
  1  2  1  0  0  0  0
  1 20  1  0  0  0  0
  1 21  1  0  0  0  0
  1 22  1  0  0  0  0
  2 19  1  0  0  0  0
  2  3  1  0  0  0  0
  2 42  1  0  0  0  0
  3  4  1  0  0  0  0
  3 23  1  0  0  0  0
  3 24  1  0  0  0  0
  4  5  1  0  0  0  0
  4 25  1  0  0  0  0
  4 26  1  0  0  0  0
  5  6  1  0  0  0  0
  5 27  1  0  0  0  0
  5 28  1  0  0  0  0
  6  7  1  0  0  0  0
  6 19  1  0  0  0  0
  6 29  1  0  0  0  0
  7  8  1  0  0  0  0
  7 30  1  0  0  0  0
  8  9  2  0  0  0  0
  8 10  1  0  0  0  0
 10 11  1  0  0  0  0
 10 31  1  0  0  0  0
 11 12  1  0  0  0  0
 11 32  1  0  0  0  0
 11 33  1  0  0  0  0
 12 13  1  0  0  0  0
 12 34  1  0  0  0  0
 12 35  1  0  0  0  0
 13 18  1  0  0  0  0
 13 14  2  0  0  0  0
 14 15  1  0  0  0  0
 14 36  1  0  0  0  0
 15 16  2  0  0  0  0
 15 37  1  0  0  0  0
 16 17  1  0  0  0  0
 16 43  1  0  0  0  0
 17 18  2  0  0  0  0
 17 38  1  0  0  0  0
 18 39  1  0  0  0  0
 19 40  1  0  0  0  0
 19 41  1  0  0  0  0
M  CHG  1   2   1
M  CHG  1  16   1
M  END
> <s_m_source_file>
AV-unprocessed.smi

> <i_m_source_file_index>
2931

> <i_lp_mmshare_version>
43012

> <i_f3d_flags>
0

> <s_epik_input>
W0NIM11OMVtDSDJdW0NIMl1bQ0gyXVtDQEhdKFtDSDJdMSlbTkhdQyg9TylbTkhdW0NIMl1bQ0gyXWMyW2NIXVtjSF1uW2NIXVtjSF0y

> <s_epik_cmdline>
J2VwaWtfcHl0aG9uJywgJy1waCcsICc3LjAnLCAnLXRuJywgJzgnLCAnLW1hJywgJzIwMCcsICctbWV0YWxfYmluZGluZycsICctaW1hZScsICc8aW5maWxlLm1hZT4nLCAnLW9tYWUnLCAnPG91dGZpbGUubWFlPic=

> <r_epik_Ionization_Penalty>
1.43754

> <r_epik_Ionization_Penalty_Charging>
1.4375

> <r_epik_Ionization_Penalty_Neutral>
3.7629e-05

> <r_epik_State_Penalty>
1.52008

> <r_epik_Charging_Adjusted_Penalty>
2.95758

> <i_epik_Tot_Q>
2

> <i_epik_Tot_abs_Q>
2

> <r_epik_Metal_State_Penalty>
1.57105

> <b_epik_Metal_Only>
0

> <s_lp_Force_Field>
OPLS_2005

> <r_lp_Energy>
32.3729

> <b_lp_Chiralities_Consistent>
1

> <s_lp_Variant>
AV-unprocessed.smi:2931-7

> <Gold.Version>
5.8.1

> <Gold.Id.Protein>
6NUR|6NUR_protein|mol2

> <Gold.PLP.Fitness>
44.4131

> <Gold.PLP.PLP>
-32.1764

> <Gold.PLP.part.hbond>
-4.5315

> <Gold.PLP.part.metal>
0.0000

> <Gold.PLP.part.buried>
-5.9317

> <Gold.PLP.part.nonpolar>
-22.7629

> <Gold.PLP.part.repulsive>
0.1182

> <Gold.PLP.ligand.clash>
0.0000

> <Gold.PLP.ligand.torsion>
0.3769

> <Gold.PLP.Chemscore.Hbond>
4.3238

> <Gold.PLP.Chemscore.CHOScore>
0.0000

> <Gold.PLP.Chemscore.Metal>
0.0000

> <Gold.Chemscore.Hbonds>
donor molecule, donor type, donor heavy atom, donor atom, acceptor molecule, acceptor atom, score
      L1  H     2    42       P1 10175  2.00
      L1  H     7    30       P1 10175  1.00
      L1  H    10    31       P1 10171  0.23
      L1  H    16    43       P1 10747  0.75

> <Gold.PLP.Chemscore.Internal.Correction>
0.0191

> <Gold.Rescore>
     Score         DG    S(hbond)    S(metal)    S(lipo)     H(rot)  DE(clash)    DE(int)     intcor
     19.52     -20.53       3.27        0.00      71.33       1.65       0.60       0.41       ----

> <Gold.Chemscore.Fitness>
19.5162

> <Gold.Chemscore.DG>
-20.5255

> <Gold.Chemscore.ZeroCoef>
-5.4800

> <Gold.Chemscore.Hbond>
3.2679

> <Gold.Chemscore.Metal>
0.0000

> <Gold.Chemscore.Lipo>
71.3291

> <Gold.Chemscore.Internal_Hbond>
0.0000

> <Gold.Chemscore.DEClash>
0.5961

> <Gold.Chemscore.DEInternal>
0.4131

> <Gold.Chemscore.Rot>
1.6464

> <Gold.Chemscore.Internal.Correction>
   9.000000E+99

> <Gold.Chemscore.Hbonds>
donor molecule, donor type, donor heavy atom, donor atom, acceptor molecule, acceptor atom, score
      L1  H     2    42       P1 10175  0.45
      L1  H     7    30       P1 10175  0.97
      L1  H    10    31       P1 10171  0.22
      L1  H    16    43       P1 10747  0.76

> <Gold.Chemscore.Hbond.Weighted>
-10.9147

> <Gold.Chemscore.Metal.Weighted>
-0.0000

> <Gold.Chemscore.Lipo.Weighted>
-8.3455

> <Gold.Chemscore.Internal_Hbond.Weighted>
0.0000

> <Gold.Chemscore.DEClash.Weighted>
0.5961

> <Gold.Chemscore.DEInternal.Weighted>
0.4131

> <Gold.Chemscore.Rot.Weighted>
4.2148

> <Gold.Chemscore.Internal.Correction.Weighted>
   9.000000E+99

> <Gold.Protein.RotatedTorsions>
[ 6907 6896 6895 6894 ] final  -95.57 input  -60.11 | X-H torsion
[ 7974 7965 7964 7962 ] final -146.60 input  175.53 | X-H torsion
[ 8008 7997 7996 7995 ] final -119.29 input   59.86 | X-H torsion
[ 10167 10162 10161 10158 ] final   55.65 input  -65.29 | X-H torsion
[ 10718 10713 10712 10709 ] final  122.86 input   66.30 | X-H torsion
[ 10763 10752 10751 10750 ] final  -94.38 input  -60.55 | X-H torsion
[ 11005 11000 10999 10996 ] final  162.44 input  -57.11 | X-H torsion

> <Gold.Protein.ActiveResidues>
 VAL166  LYS551  ARG553  GLY616  TRP617  ASP618  TYR619  PRO620  LYS621  CYS622 
 ASP623  PHE694  ASN695  SER759  ASP760  ASP761  ALA762  ILE779  LEU786  VAL792 
 PHE793  MET794  SER795  GLU796  ALA797  LYS798  CYS799  TRP800  GLU811  SER814 

> <Gold.Protein.RotatedAtoms>
  150.6967  134.1636  159.4185 H   0  0  0  0  0  0  0  0  0  0  0  0  # atno 6907 bound_to 6896
  151.9616  135.0118  160.0557 H   0  0  0  0  0  0  0  0  0  0  0  0  # atno 6908 bound_to 6896
  152.1921  133.4746  159.5050 H   0  0  0  0  0  0  0  0  0  0  0  0  # atno 6909 bound_to 6896
  144.8148  140.5434  143.5618 H   0  0  0  0  0  0  0  0  0  0  0  0  # atno 7974 bound_to 7965
  155.1134  140.0397  157.2730 H   0  0  0  0  0  0  0  0  0  0  0  0  # atno 8008 bound_to 7997
  154.6668  140.2603  155.7024 H   0  0  0  0  0  0  0  0  0  0  0  0  # atno 8009 bound_to 7997
  156.2642  140.2805  156.1162 H   0  0  0  0  0  0  0  0  0  0  0  0  # atno 8010 bound_to 7997
  140.2172  144.3827  150.6465 H   0  0  0  0  0  0  0  0  0  0  0  0  # atno 10167 bound_to 10162
  157.5709  131.1083  150.8368 H   0  0  0  0  0  0  0  0  0  0  0  0  # atno 10718 bound_to 10713
  154.7049  135.5160  153.8580 H   0  0  0  0  0  0  0  0  0  0  0  0  # atno 10763 bound_to 10752
  153.0733  135.6608  154.0209 H   0  0  0  0  0  0  0  0  0  0  0  0  # atno 10764 bound_to 10752
  154.0061  135.3006  155.3377 H   0  0  0  0  0  0  0  0  0  0  0  0  # atno 10765 bound_to 10752
  140.2257  134.8162  157.3266 H   0  0  0  0  0  0  0  0  0  0  0  0  # atno 11005 bound_to 11000
  145.5239  139.1476  143.3537 LP  0  0  0  0  0  0  0  0  0  0  0  0  # atno 17320 bound_to 7965
  146.2450  140.5380  142.8917 LP  0  0  0  0  0  0  0  0  0  0  0  0  # atno 17321 bound_to 7965
  140.6281  143.2184  151.6553 LP  0  0  0  0  0  0  0  0  0  0  0  0  # atno 17342 bound_to 10162
  139.5158  144.3368  152.0776 LP  0  0  0  0  0  0  0  0  0  0  0  0  # atno 17343 bound_to 10162
  156.8840  130.5189  149.5289 LP  0  0  0  0  0  0  0  0  0  0  0  0  # atno 17370 bound_to 10713
  156.0755  130.5778  150.9465 LP  0  0  0  0  0  0  0  0  0  0  0  0  # atno 17371 bound_to 10713
  140.1802  134.4499  155.7776 LP  0  0  0  0  0  0  0  0  0  0  0  0  # atno 17394 bound_to 11000
  141.2221  133.6980  156.7856 LP  0  0  0  0  0  0  0  0  0  0  0  0  # atno 17395 bound_to 11000

$$$$
