AV-unprocessed.smi:1783|AV-procd|sdf|7193|dock5
  -GOLD-   22720 8433D 1   1.00000     0.00000
 Structure written by MMmdl.
 30 31  0  0  0  0  0  0  0  0  1 V2000
  152.8139  139.7129  155.8145 O   0  0  0  0  0  0  0  0  0  0  0  0
  151.6318  139.5885  156.1340 C   0  0  0  0  0  0  0  0  0  0  0  0
  151.0731  140.1173  157.2414 N   0  0  0  0  0  0  0  0  0  0  0  0
  151.6545  140.9090  158.2457 C   0  0  0  0  0  0  0  0  0  0  0  0
  151.3303  142.2037  158.5001 C   0  0  0  0  0  0  0  0  0  0  0  0
  151.9645  142.9626  159.5650 C   0  0  0  0  0  0  0  0  0  0  0  0
  151.6561  144.4356  159.7848 C   0  0  0  0  0  0  0  0  0  0  0  0
  150.3375  144.6196  159.8339 F   0  0  0  0  0  0  0  0  0  0  0  0
  152.1799  144.8742  160.9304 F   0  0  0  0  0  0  0  0  0  0  0  0
  152.1420  145.1794  158.7908 F   0  0  0  0  0  0  0  0  0  0  0  0
  152.8986  142.3175  160.2878 C   0  0  0  0  0  0  0  0  0  0  0  0
  153.2207  140.9799  160.0479 N   0  0  0  0  0  0  0  0  0  0  0  0
  152.6621  140.2264  159.0742 C   0  0  0  0  0  0  0  0  0  0  0  0
  153.0024  139.0535  158.9244 O   0  0  0  0  0  0  0  0  0  0  0  0
  150.6803  138.7731  155.2353 C   0  0  1  0  0  0  0  0  0  0  0  0
  149.3245  138.4520  155.8730 C   0  0  0  0  0  0  0  0  0  0  0  0
  148.5183  139.7213  155.6516 C   0  0  0  0  0  0  0  0  0  0  0  0
  149.1852  140.3743  154.4363 C   0  0  0  0  0  0  0  0  0  0  0  0
  150.2895  139.5370  154.0970 O   0  0  0  0  0  0  0  0  0  0  0  0
  153.9198  140.5619  160.6448 H   0  0  0  0  0  0  0  0  0  0  0  0
  150.1065  139.8735  157.4060 H   0  0  0  0  0  0  0  0  0  0  0  0
  150.5682  142.7079  157.9290 H   0  0  0  0  0  0  0  0  0  0  0  0
  153.4678  142.7682  161.0874 H   0  0  0  0  0  0  0  0  0  0  0  0
  151.1956  137.8651  154.9209 H   0  0  0  0  0  0  0  0  0  0  0  0
  148.8613  137.6238  155.3354 H   0  0  0  0  0  0  0  0  0  0  0  0
  149.3807  138.1656  156.9238 H   0  0  0  0  0  0  0  0  0  0  0  0
  147.4617  139.5095  155.4849 H   0  0  0  0  0  0  0  0  0  0  0  0
  148.5959  140.3790  156.5183 H   0  0  0  0  0  0  0  0  0  0  0  0
  148.5045  140.4557  153.5884 H   0  0  0  0  0  0  0  0  0  0  0  0
  149.5410  141.3759  154.6815 H   0  0  0  0  0  0  0  0  0  0  0  0
  1  2  2  0  0  0  0
  2  3  1  0  0  0  0
  2 15  1  0  0  0  0
  3  4  1  0  0  0  0
  3 21  1  0  0  0  0
  4 13  1  0  0  0  0
  4  5  2  0  0  0  0
  5  6  1  0  0  0  0
  5 22  1  0  0  0  0
  6  7  1  0  0  0  0
  6 11  2  0  0  0  0
  7  8  1  0  0  0  0
  7  9  1  0  0  0  0
  7 10  1  0  0  0  0
 11 12  1  0  0  0  0
 11 23  1  0  0  0  0
 12 20  1  0  0  0  0
 12 13  1  0  0  0  0
 13 14  2  0  0  0  0
 15 19  1  0  0  0  0
 15 16  1  0  0  0  0
 15 24  1  0  0  0  0
 16 17  1  0  0  0  0
 16 25  1  0  0  0  0
 16 26  1  0  0  0  0
 17 18  1  0  0  0  0
 17 27  1  0  0  0  0
 17 28  1  0  0  0  0
 18 19  1  0  0  0  0
 18 29  1  0  0  0  0
 18 30  1  0  0  0  0
M  END
> <s_m_source_file>
AV-unprocessed.smi

> <i_m_source_file_index>
1783

> <i_lp_mmshare_version>
43012

> <i_f3d_flags>
0

> <s_epik_input>
TzFbQ0gyXVtDSDJdW0NIMl1bQ0BIXTFDKD1PKVtOSF1jMltjSF1jKEMoRikoRilGKVtjSF1bbkhdYzI9Tw==

> <s_epik_cmdline>
J2VwaWtfcHl0aG9uJywgJy1waCcsICc3LjAnLCAnLXRuJywgJzgnLCAnLW1hJywgJzIwMCcsICctbWV0YWxfYmluZGluZycsICctaW1hZScsICc8aW5maWxlLm1hZT4nLCAnLW9tYWUnLCAnPG91dGZpbGUubWFlPic=

> <r_lp_tautomer_probability>
0.999

> <r_epik_Ionization_Penalty>
0.00885957

> <r_epik_Ionization_Penalty_Charging>
0.00885947

> <r_epik_Ionization_Penalty_Neutral>
9.33956e-08

> <r_epik_State_Penalty>
0.00669851

> <r_epik_Charging_Adjusted_Penalty>
0.015558

> <i_epik_Tot_Q>
0

> <i_epik_Tot_abs_Q>
0

> <r_epik_Metal_State_Penalty>
0.320804

> <b_epik_Metal_Only>
0

> <s_lp_Force_Field>
OPLS_2005

> <r_lp_Energy>
32.0123

> <b_lp_Chiralities_Consistent>
1

> <s_lp_Variant>
AV-unprocessed.smi:1783-2

> <Gold.Version>
5.8.1

> <Gold.Id.Protein>
6NUR|6NUR_protein|mol2

> <Gold.PLP.Fitness>
40.4397

> <Gold.PLP.PLP>
-37.7555

> <Gold.PLP.part.hbond>
-2.0000

> <Gold.PLP.part.metal>
0.0000

> <Gold.PLP.part.buried>
-6.6874

> <Gold.PLP.part.nonpolar>
-30.1192

> <Gold.PLP.part.repulsive>
0.8642

> <Gold.PLP.ligand.clash>
0.6352

> <Gold.PLP.ligand.torsion>
1.3747

> <Gold.PLP.Chemscore.Hbond>
2.0000

> <Gold.PLP.Chemscore.CHOScore>
0.0000

> <Gold.PLP.Chemscore.Metal>
0.0000

> <Gold.Chemscore.Hbonds>
donor molecule, donor type, donor heavy atom, donor atom, acceptor molecule, acceptor atom, score
      P1  H  7989  7998       L1    19  1.00
      P1  H  7997  8010       L1     1  1.00

> <Gold.PLP.Chemscore.Internal.Correction>
0.0688

> <Gold.Rescore>
     Score         DG    S(hbond)    S(metal)    S(lipo)     H(rot)  DE(clash)    DE(int)     intcor
     13.34     -16.29       1.67        0.00      66.63       1.00       0.41       2.54       ----

> <Gold.Chemscore.Fitness>
13.3385

> <Gold.Chemscore.DG>
-16.2934

> <Gold.Chemscore.ZeroCoef>
-5.4800

> <Gold.Chemscore.Hbond>
1.6701

> <Gold.Chemscore.Metal>
0.0000

> <Gold.Chemscore.Lipo>
66.6262

> <Gold.Chemscore.Internal_Hbond>
0.0000

> <Gold.Chemscore.DEClash>
0.4123

> <Gold.Chemscore.DEInternal>
2.5426

> <Gold.Chemscore.Rot>
1.0000

> <Gold.Chemscore.Internal.Correction>
   9.000000E+99

> <Gold.Chemscore.Hbonds>
donor molecule, donor type, donor heavy atom, donor atom, acceptor molecule, acceptor atom, score
      P1  H  7989  7998       L1    19  0.30
      P1  H  7997  8010       L1     1  1.00

> <Gold.Chemscore.Hbond.Weighted>
-5.5782

> <Gold.Chemscore.Metal.Weighted>
-0.0000

> <Gold.Chemscore.Lipo.Weighted>
-7.7953

> <Gold.Chemscore.Internal_Hbond.Weighted>
0.0000

> <Gold.Chemscore.DEClash.Weighted>
0.4123

> <Gold.Chemscore.DEInternal.Weighted>
2.5426

> <Gold.Chemscore.Rot.Weighted>
2.5600

> <Gold.Chemscore.Internal.Correction.Weighted>
   9.000000E+99

> <Gold.Protein.RotatedTorsions>
[ 6907 6896 6895 6894 ] final -175.16 input  -60.11 | X-H torsion
[ 7974 7965 7964 7962 ] final -104.11 input  175.53 | X-H torsion
[ 8008 7997 7996 7995 ] final   91.44 input   59.86 | X-H torsion
[ 10167 10162 10161 10158 ] final  -15.15 input  -65.29 | X-H torsion
[ 10718 10713 10712 10709 ] final   40.86 input   66.30 | X-H torsion
[ 10763 10752 10751 10750 ] final -114.29 input  -60.55 | X-H torsion
[ 11005 11000 10999 10996 ] final   50.82 input  -57.11 | X-H torsion

> <Gold.Protein.ActiveResidues>
 VAL166  LYS551  ARG553  GLY616  TRP617  ASP618  TYR619  PRO620  LYS621  CYS622 
 ASP623  PHE694  ASN695  SER759  ASP760  ASP761  ALA762  ILE779  LEU786  VAL792 
 PHE793  MET794  SER795  GLU796  ALA797  LYS798  CYS799  TRP800  GLU811  SER814 

> <Gold.Protein.RotatedAtoms>
  151.5840  133.3374  159.3013 H   0  0  0  0  0  0  0  0  0  0  0  0  # atno 6907 bound_to 6896
  150.8297  134.7548  159.6854 H   0  0  0  0  0  0  0  0  0  0  0  0  # atno 6908 bound_to 6896
  152.4382  134.5650  159.9956 H   0  0  0  0  0  0  0  0  0  0  0  0  # atno 6909 bound_to 6896
  145.2473  140.9226  143.3115 H   0  0  0  0  0  0  0  0  0  0  0  0  # atno 7974 bound_to 7965
  156.0237  140.3337  155.7066 H   0  0  0  0  0  0  0  0  0  0  0  0  # atno 8008 bound_to 7997
  155.5985  140.0653  157.2757 H   0  0  0  0  0  0  0  0  0  0  0  0  # atno 8009 bound_to 7997
  154.4326  140.1814  156.1136 H   0  0  0  0  0  0  0  0  0  0  0  0  # atno 8010 bound_to 7997
  140.7213  143.5248  150.9590 H   0  0  0  0  0  0  0  0  0  0  0  0  # atno 10167 bound_to 10162
  157.3870  130.7785  149.7238 H   0  0  0  0  0  0  0  0  0  0  0  0  # atno 10718 bound_to 10713
  154.8433  135.4423  154.1482 H   0  0  0  0  0  0  0  0  0  0  0  0  # atno 10763 bound_to 10752
  153.2649  135.6939  153.7546 H   0  0  0  0  0  0  0  0  0  0  0  0  # atno 10764 bound_to 10752
  153.6808  135.3403  155.3153 H   0  0  0  0  0  0  0  0  0  0  0  0  # atno 10765 bound_to 10752
  140.0985  134.5113  155.8784 H   0  0  0  0  0  0  0  0  0  0  0  0  # atno 11005 bound_to 11000
  144.9535  139.4057  143.6391 LP  0  0  0  0  0  0  0  0  0  0  0  0  # atno 17320 bound_to 7965
  146.3312  139.8554  142.8866 LP  0  0  0  0  0  0  0  0  0  0  0  0  # atno 17321 bound_to 7965
  139.8966  143.6887  152.3137 LP  0  0  0  0  0  0  0  0  0  0  0  0  # atno 17342 bound_to 10162
  139.7222  144.7600  151.0937 LP  0  0  0  0  0  0  0  0  0  0  0  0  # atno 17343 bound_to 10162
  155.9789  130.4046  150.3620 LP  0  0  0  0  0  0  0  0  0  0  0  0  # atno 17370 bound_to 10713
  157.1731  131.0374  151.2785 LP  0  0  0  0  0  0  0  0  0  0  0  0  # atno 17371 bound_to 10713
  141.2099  133.6689  156.6471 LP  0  0  0  0  0  0  0  0  0  0  0  0  # atno 17394 bound_to 11000
  140.3253  134.7974  157.4284 LP  0  0  0  0  0  0  0  0  0  0  0  0  # atno 17395 bound_to 11000

$$$$
