AV-unprocessed.smi:2713|AV-procd|sdf|10479|dock7
  -GOLD-   2272014523D 1   1.00000     0.00000
 Structure written by MMmdl.
 52 53  0  0  0  0  0  0  0  0  1 V2000
  150.6353  139.1273  154.9384 C   0  0  0  0  0  0  0  0  0  0  0  0
  149.3751  139.9303  155.3302 C   0  0  0  0  0  0  0  0  0  0  0  0
  149.0679  139.5877  156.8035 C   0  0  0  0  0  0  0  0  0  0  0  0
  149.6798  141.4405  155.2601 C   0  0  0  0  0  0  0  0  0  0  0  0
  148.1219  139.5115  154.4899 C   0  0  0  0  0  0  0  0  0  0  0  0
  146.7690  140.2902  154.5675 C   0  0  0  0  0  0  0  0  0  0  0  0
  146.2971  140.5569  156.0134 C   0  0  0  0  0  0  0  0  0  0  0  0
  146.9704  141.6424  153.8466 C   0  0  0  0  0  0  0  0  0  0  0  0
  145.7825  139.5208  153.8011 N   0  0  0  0  0  0  0  0  0  0  0  0
  145.0908  138.4409  154.4962 C   0  0  0  0  0  0  0  0  0  0  0  0
  145.0274  137.1762  153.6639 C   0  0  0  0  0  0  0  0  0  0  0  0
  145.7015  135.9964  154.0400 C   0  0  0  0  0  0  0  0  0  0  0  0
  145.6308  134.8720  153.2957 N   0  0  0  0  0  0  0  0  0  0  0  0
  144.8892  134.9051  152.1795 C   0  0  0  0  0  0  0  0  0  0  0  0
  144.8189  133.7365  151.4105 N   0  0  0  0  0  0  0  0  0  0  0  0
  145.9361  132.7934  151.3232 C   0  0  0  0  0  0  0  0  0  0  0  0
  145.9586  132.1009  149.9498 C   0  0  0  0  0  0  0  0  0  0  0  0
  144.7032  131.4802  149.7016 O   0  0  0  0  0  0  0  0  0  0  0  0
  143.6468  132.4318  149.6671 C   0  0  0  0  0  0  0  0  0  0  0  0
  143.5375  133.1373  151.0294 C   0  0  0  0  0  0  0  0  0  0  0  0
  144.2089  135.9744  151.7429 N   0  0  0  0  0  0  0  0  0  0  0  0
  144.2726  137.1060  152.4763 C   0  0  0  0  0  0  0  0  0  0  0  0
  151.4445  139.2983  155.6495 H   0  0  0  0  0  0  0  0  0  0  0  0
  151.0292  139.4019  153.9632 H   0  0  0  0  0  0  0  0  0  0  0  0
  150.4385  138.0547  154.9271 H   0  0  0  0  0  0  0  0  0  0  0  0
  148.8463  138.5269  156.9282 H   0  0  0  0  0  0  0  0  0  0  0  0
  148.2082  140.1473  157.1741 H   0  0  0  0  0  0  0  0  0  0  0  0
  149.9097  139.8233  157.4559 H   0  0  0  0  0  0  0  0  0  0  0  0
  150.4912  141.7109  155.9367 H   0  0  0  0  0  0  0  0  0  0  0  0
  148.8102  142.0354  155.5414 H   0  0  0  0  0  0  0  0  0  0  0  0
  149.9864  141.7498  154.2616 H   0  0  0  0  0  0  0  0  0  0  0  0
  148.4371  139.4905  153.4455 H   0  0  0  0  0  0  0  0  0  0  0  0
  147.8980  138.4678  154.7187 H   0  0  0  0  0  0  0  0  0  0  0  0
  147.1053  140.9665  156.6200 H   0  0  0  0  0  0  0  0  0  0  0  0
  145.9288  139.6538  156.4980 H   0  0  0  0  0  0  0  0  0  0  0  0
  145.4852  141.2843  156.0450 H   0  0  0  0  0  0  0  0  0  0  0  0
  147.7701  142.2192  154.3131 H   0  0  0  0  0  0  0  0  0  0  0  0
  146.0789  142.2685  153.8762 H   0  0  0  0  0  0  0  0  0  0  0  0
  147.2404  141.5028  152.7989 H   0  0  0  0  0  0  0  0  0  0  0  0
  145.1102  140.1488  153.3840 H   0  0  0  0  0  0  0  0  0  0  0  0
  145.6042  138.2001  155.4267 H   0  0  0  0  0  0  0  0  0  0  0  0
  144.0754  138.7413  154.7514 H   0  0  0  0  0  0  0  0  0  0  0  0
  146.2993  135.9521  154.9388 H   0  0  0  0  0  0  0  0  0  0  0  0
  146.8967  133.2863  151.4723 H   0  0  0  0  0  0  0  0  0  0  0  0
  145.8318  132.0522  152.1162 H   0  0  0  0  0  0  0  0  0  0  0  0
  146.1868  132.8160  149.1575 H   0  0  0  0  0  0  0  0  0  0  0  0
  146.7396  131.3411  149.9261 H   0  0  0  0  0  0  0  0  0  0  0  0
  143.8165  133.1542  148.8669 H   0  0  0  0  0  0  0  0  0  0  0  0
  142.7142  131.9163  149.4369 H   0  0  0  0  0  0  0  0  0  0  0  0
  143.2492  132.4198  151.7984 H   0  0  0  0  0  0  0  0  0  0  0  0
  142.7362  133.8732  150.9716 H   0  0  0  0  0  0  0  0  0  0  0  0
  143.7172  137.9572  152.1105 H   0  0  0  0  0  0  0  0  0  0  0  0
  1  2  1  0  0  0  0
  1 23  1  0  0  0  0
  1 24  1  0  0  0  0
  1 25  1  0  0  0  0
  2  3  1  0  0  0  0
  2  4  1  0  0  0  0
  2  5  1  0  0  0  0
  3 26  1  0  0  0  0
  3 27  1  0  0  0  0
  3 28  1  0  0  0  0
  4 29  1  0  0  0  0
  4 30  1  0  0  0  0
  4 31  1  0  0  0  0
  5  6  1  0  0  0  0
  5 32  1  0  0  0  0
  5 33  1  0  0  0  0
  6  7  1  0  0  0  0
  6  8  1  0  0  0  0
  6  9  1  0  0  0  0
  7 34  1  0  0  0  0
  7 35  1  0  0  0  0
  7 36  1  0  0  0  0
  8 37  1  0  0  0  0
  8 38  1  0  0  0  0
  8 39  1  0  0  0  0
  9 10  1  0  0  0  0
  9 40  1  0  0  0  0
 10 11  1  0  0  0  0
 10 41  1  0  0  0  0
 10 42  1  0  0  0  0
 11 22  1  0  0  0  0
 11 12  2  0  0  0  0
 12 13  1  0  0  0  0
 12 43  1  0  0  0  0
 13 14  2  0  0  0  0
 14 15  1  0  0  0  0
 14 21  1  0  0  0  0
 15 20  1  0  0  0  0
 15 16  1  0  0  0  0
 16 17  1  0  0  0  0
 16 44  1  0  0  0  0
 16 45  1  0  0  0  0
 17 18  1  0  0  0  0
 17 46  1  0  0  0  0
 17 47  1  0  0  0  0
 18 19  1  0  0  0  0
 19 20  1  0  0  0  0
 19 48  1  0  0  0  0
 19 49  1  0  0  0  0
 20 50  1  0  0  0  0
 20 51  1  0  0  0  0
 21 22  2  0  0  0  0
 22 52  1  0  0  0  0
M  END
> <s_m_source_file>
AV-unprocessed.smi

> <i_m_source_file_index>
2713

> <i_lp_mmshare_version>
43012

> <i_f3d_flags>
0

> <s_epik_input>
W0NIM11DKFtDSDNdKShbQ0gzXSlbQ0gyXUMoW0NIM10pKFtDSDNdKVtOSF1bQ0gyXWMxW2NIXW5jKG5bY0hdMSlOMltDSDJdW0NIMl1PW0NIMl1bQ0gyXTI=

> <s_epik_cmdline>
J2VwaWtfcHl0aG9uJywgJy1waCcsICc3LjAnLCAnLXRuJywgJzgnLCAnLW1hJywgJzIwMCcsICctbWV0YWxfYmluZGluZycsICctaW1hZScsICc8aW5maWxlLm1hZT4nLCAnLW9tYWUnLCAnPG91dGZpbGUubWFlPic=

> <r_lp_tautomer_probability>
1

> <r_epik_Ionization_Penalty>
1.66691

> <r_epik_Ionization_Penalty_Charging>
0

> <r_epik_Ionization_Penalty_Neutral>
1.66691

> <r_epik_State_Penalty>
1.77023

> <r_epik_Charging_Adjusted_Penalty>
1.77023

> <i_epik_Tot_Q>
0

> <i_epik_Tot_abs_Q>
0

> <r_epik_Metal_State_Penalty>
1.77023

> <b_epik_Metal_Only>
0

> <s_lp_Force_Field>
OPLS_2005

> <r_lp_Energy>
27.9038

> <b_lp_Chiralities_Consistent>
1

> <s_lp_Variant>
AV-unprocessed.smi:2713-2

> <Gold.Version>
5.8.1

> <Gold.Id.Protein>
6NUR|6NUR_protein|mol2

> <Gold.PLP.Fitness>
37.0746

> <Gold.PLP.PLP>
-31.5513

> <Gold.PLP.part.hbond>
-2.0000

> <Gold.PLP.part.metal>
0.0000

> <Gold.PLP.part.buried>
-1.7196

> <Gold.PLP.part.nonpolar>
-28.4222

> <Gold.PLP.part.repulsive>
0.3960

> <Gold.PLP.ligand.clash>
0.0000

> <Gold.PLP.ligand.torsion>
1.5715

> <Gold.PLP.Chemscore.Hbond>
1.0874

> <Gold.PLP.Chemscore.CHOScore>
1.7493

> <Gold.PLP.Chemscore.Metal>
0.0000

> <Gold.Chemscore.Hbonds>
donor molecule, donor type, donor heavy atom, donor atom, acceptor molecule, acceptor atom, score
      L1  H     9    40       P1 10175  1.00
      P1  H 10785 10796       L1    18  0.05
      L1  C    22    52       P1 10171  0.82
      L1  C    22    52       P1 10175  1.00

> <Gold.PLP.Chemscore.Internal.Correction>
0.1563

> <Gold.Rescore>
     Score         DG    S(hbond)    S(metal)    S(lipo)     H(rot)  DE(clash)    DE(int)     intcor
     13.42     -15.42       0.99        0.00      88.98       1.48       0.59       1.41       ----

> <Gold.Chemscore.Fitness>
13.4178

> <Gold.Chemscore.DG>
-15.4188

> <Gold.Chemscore.ZeroCoef>
-5.4800

> <Gold.Chemscore.Hbond>
0.9936

> <Gold.Chemscore.Metal>
0.0000

> <Gold.Chemscore.Lipo>
88.9764

> <Gold.Chemscore.Internal_Hbond>
0.0000

> <Gold.Chemscore.DEClash>
0.5916

> <Gold.Chemscore.DEInternal>
1.4094

> <Gold.Chemscore.Rot>
1.4805

> <Gold.Chemscore.Internal.Correction>
   9.000000E+99

> <Gold.Chemscore.Hbonds>
donor molecule, donor type, donor heavy atom, donor atom, acceptor molecule, acceptor atom, score
      L1  H     9    40       P1 10175  0.97

> <Gold.Chemscore.Hbond.Weighted>
-3.3186

> <Gold.Chemscore.Metal.Weighted>
-0.0000

> <Gold.Chemscore.Lipo.Weighted>
-10.4102

> <Gold.Chemscore.Internal_Hbond.Weighted>
0.0000

> <Gold.Chemscore.DEClash.Weighted>
0.5916

> <Gold.Chemscore.DEInternal.Weighted>
1.4094

> <Gold.Chemscore.Rot.Weighted>
3.7900

> <Gold.Chemscore.Internal.Correction.Weighted>
   9.000000E+99

> <Gold.Protein.RotatedTorsions>
[ 6907 6896 6895 6894 ] final   76.12 input  -60.11 | X-H torsion
[ 7974 7965 7964 7962 ] final -112.82 input  175.53 | X-H torsion
[ 8008 7997 7996 7995 ] final  148.61 input   59.86 | X-H torsion
[ 10167 10162 10161 10158 ] final  -78.30 input  -65.29 | X-H torsion
[ 10718 10713 10712 10709 ] final   32.33 input   66.30 | X-H torsion
[ 10763 10752 10751 10750 ] final -116.25 input  -60.55 | X-H torsion
[ 11005 11000 10999 10996 ] final   -3.64 input  -57.11 | X-H torsion

> <Gold.Protein.ActiveResidues>
 VAL166  LYS551  ARG553  GLY616  TRP617  ASP618  TYR619  PRO620  LYS621  CYS622 
 ASP623  PHE694  ASN695  SER759  ASP760  ASP761  ALA762  ILE779  LEU786  VAL792 
 PHE793  MET794  SER795  GLU796  ALA797  LYS798  CYS799  TRP800  GLU811  SER814 

> <Gold.Protein.RotatedAtoms>
  152.5058  134.4017  159.9418 H   0  0  0  0  0  0  0  0  0  0  0  0  # atno 6907 bound_to 6896
  151.3981  133.3760  159.2736 H   0  0  0  0  0  0  0  0  0  0  0  0  # atno 6908 bound_to 6896
  150.9382  134.8814  159.7654 H   0  0  0  0  0  0  0  0  0  0  0  0  # atno 6909 bound_to 6896
  145.1394  140.8769  143.3711 H   0  0  0  0  0  0  0  0  0  0  0  0  # atno 7974 bound_to 7965
  156.2785  140.2124  156.5726 H   0  0  0  0  0  0  0  0  0  0  0  0  # atno 8008 bound_to 7997
  154.7123  140.0511  157.0584 H   0  0  0  0  0  0  0  0  0  0  0  0  # atno 8009 bound_to 7997
  155.0589  140.3164  155.4670 H   0  0  0  0  0  0  0  0  0  0  0  0  # atno 8010 bound_to 7997
  140.4694  143.2431  151.8228 H   0  0  0  0  0  0  0  0  0  0  0  0  # atno 10167 bound_to 10162
  157.2839  130.7269  149.6572 H   0  0  0  0  0  0  0  0  0  0  0  0  # atno 10718 bound_to 10713
  154.8512  135.4352  154.1791 H   0  0  0  0  0  0  0  0  0  0  0  0  # atno 10763 bound_to 10752
  153.2886  135.6959  153.7321 H   0  0  0  0  0  0  0  0  0  0  0  0  # atno 10764 bound_to 10752
  153.6497  135.3453  155.3071 H   0  0  0  0  0  0  0  0  0  0  0  0  # atno 10765 bound_to 10752
  140.6716  133.9232  155.8498 H   0  0  0  0  0  0  0  0  0  0  0  0  # atno 11005 bound_to 11000
  145.0549  139.3152  143.5910 LP  0  0  0  0  0  0  0  0  0  0  0  0  # atno 17320 bound_to 7965
  146.3506  139.9970  142.8680 LP  0  0  0  0  0  0  0  0  0  0  0  0  # atno 17321 bound_to 7965
  139.4816  144.4910  151.9185 LP  0  0  0  0  0  0  0  0  0  0  0  0  # atno 17342 bound_to 10162
  140.3995  144.2511  150.5894 LP  0  0  0  0  0  0  0  0  0  0  0  0  # atno 17343 bound_to 10162
  155.9665  130.4329  150.4985 LP  0  0  0  0  0  0  0  0  0  0  0  0  # atno 17370 bound_to 10713
  157.2934  131.0631  151.2118 LP  0  0  0  0  0  0  0  0  0  0  0  0  # atno 17371 bound_to 10713
  141.0388  134.0651  157.3927 LP  0  0  0  0  0  0  0  0  0  0  0  0  # atno 17394 bound_to 11000
  139.8980  135.0152  156.7127 LP  0  0  0  0  0  0  0  0  0  0  0  0  # atno 17395 bound_to 11000

$$$$
