AV-unprocessed.smi:1990|AV-procd|sdf|8063|dock2
  -GOLD-   2272010263D 1   1.00000     0.00000
 Structure written by MMmdl.
 46 47  0  0  0  0  0  0  0  0  1 V2000
  150.1873  144.4943  159.5781 C   0  0  0  0  0  0  0  0  0  0  0  0
  151.6635  144.2458  159.2196 C   0  0  2  0  0  0  0  0  0  0  0  0
  151.8765  143.0182  158.3118 C   0  0  0  0  0  0  0  0  0  0  0  0
  151.7394  141.7759  159.0673 N   0  0  0  0  0  0  0  0  0  0  0  0
  151.6190  140.5985  158.2974 C   0  0  0  0  0  0  0  0  0  0  0  0
  151.8609  140.6311  156.9039 C   0  0  0  0  0  0  0  0  0  0  0  0
  151.7349  139.4467  156.1529 C   0  0  0  0  0  0  0  0  0  0  0  0
  151.3579  138.2533  156.8125 C   0  0  0  0  0  0  0  0  0  0  0  0
  151.2111  136.9894  156.1786 N   0  0  0  0  0  0  0  0  0  0  0  0
  150.8835  135.8008  156.7196 C   0  0  0  0  0  0  0  0  0  0  0  0
  150.7005  135.6077  157.9211 O   0  0  0  0  0  0  0  0  0  0  0  0
  150.7730  134.6298  155.7328 C   0  0  1  0  0  0  0  0  0  0  0  0
  151.6250  133.4265  156.1703 C   0  0  0  0  0  0  0  0  0  0  0  0
  149.0001  134.1160  155.5546 S   0  0  0  0  0  0  0  0  0  0  0  0
  149.0705  132.8136  154.2532 C   0  0  0  0  0  0  0  0  0  0  0  0
  148.5819  133.4831  156.8146 O   0  0  0  0  0  0  0  0  0  0  0  0
  148.2244  135.2479  155.0246 O   0  0  0  0  0  0  0  0  0  0  0  0
  151.1460  138.3185  158.2039 C   0  0  0  0  0  0  0  0  0  0  0  0
  151.2659  139.4512  158.9269 N   0  0  0  0  0  0  0  0  0  0  0  0
  152.5791  141.7339  160.2614 C   0  0  0  0  0  0  0  0  0  0  0  0
  152.3160  142.9643  161.1476 C   0  0  1  0  0  0  0  0  0  0  0  0
  153.2742  143.0231  162.3417 C   0  0  0  0  0  0  0  0  0  0  0  0
  152.4933  144.1540  160.3798 O   0  0  0  0  0  0  0  0  0  0  0  0
  149.6013  144.6949  158.6809 H   0  0  0  0  0  0  0  0  0  0  0  0
  150.0867  145.3574  160.2363 H   0  0  0  0  0  0  0  0  0  0  0  0
  149.7316  143.6383  160.0753 H   0  0  0  0  0  0  0  0  0  0  0  0
  152.0054  145.1245  158.6721 H   0  0  0  0  0  0  0  0  0  0  0  0
  151.1854  143.0678  157.4715 H   0  0  0  0  0  0  0  0  0  0  0  0
  152.8816  143.0475  157.8890 H   0  0  0  0  0  0  0  0  0  0  0  0
  152.1295  141.5479  156.4008 H   0  0  0  0  0  0  0  0  0  0  0  0
  151.9392  139.4827  155.0947 H   0  0  0  0  0  0  0  0  0  0  0  0
  151.4130  136.9814  155.1894 H   0  0  0  0  0  0  0  0  0  0  0  0
  151.1135  134.9544  154.7488 H   0  0  0  0  0  0  0  0  0  0  0  0
  152.6680  133.7102  156.3151 H   0  0  0  0  0  0  0  0  0  0  0  0
  151.6012  132.6400  155.4158 H   0  0  0  0  0  0  0  0  0  0  0  0
  151.2613  132.9954  157.1039 H   0  0  0  0  0  0  0  0  0  0  0  0
  148.0852  132.3608  154.1455 H   0  0  0  0  0  0  0  0  0  0  0  0
  149.7896  132.0470  154.5402 H   0  0  0  0  0  0  0  0  0  0  0  0
  149.3634  133.2542  153.3007 H   0  0  0  0  0  0  0  0  0  0  0  0
  150.8685  137.4335  158.7582 H   0  0  0  0  0  0  0  0  0  0  0  0
  152.3758  140.8287  160.8350 H   0  0  0  0  0  0  0  0  0  0  0  0
  153.6274  141.7013  159.9608 H   0  0  0  0  0  0  0  0  0  0  0  0
  151.2977  142.9247  161.5350 H   0  0  0  0  0  0  0  0  0  0  0  0
  153.1744  142.1369  162.9687 H   0  0  0  0  0  0  0  0  0  0  0  0
  153.0689  143.8948  162.9633 H   0  0  0  0  0  0  0  0  0  0  0  0
  154.3119  143.0856  162.0124 H   0  0  0  0  0  0  0  0  0  0  0  0
  1  2  1  0  0  0  0
  1 24  1  0  0  0  0
  1 25  1  0  0  0  0
  1 26  1  0  0  0  0
  2 23  1  0  0  0  0
  2  3  1  0  0  0  0
  2 27  1  0  0  0  0
  3  4  1  0  0  0  0
  3 28  1  0  0  0  0
  3 29  1  0  0  0  0
  4  5  1  0  0  0  0
  4 20  1  0  0  0  0
  5 19  1  0  0  0  0
  5  6  2  0  0  0  0
  6  7  1  0  0  0  0
  6 30  1  0  0  0  0
  7  8  2  0  0  0  0
  7 31  1  0  0  0  0
  8  9  1  0  0  0  0
  8 18  1  0  0  0  0
  9 10  1  0  0  0  0
  9 32  1  0  0  0  0
 10 11  2  0  0  0  0
 10 12  1  0  0  0  0
 12 13  1  0  0  0  0
 12 14  1  0  0  0  0
 12 33  1  0  0  0  0
 13 34  1  0  0  0  0
 13 35  1  0  0  0  0
 13 36  1  0  0  0  0
 14 15  1  0  0  0  0
 14 16  2  0  0  0  0
 14 17  2  0  0  0  0
 15 37  1  0  0  0  0
 15 38  1  0  0  0  0
 15 39  1  0  0  0  0
 18 19  2  0  0  0  0
 18 40  1  0  0  0  0
 20 21  1  0  0  0  0
 20 41  1  0  0  0  0
 20 42  1  0  0  0  0
 21 22  1  0  0  0  0
 21 23  1  0  0  0  0
 21 43  1  0  0  0  0
 22 44  1  0  0  0  0
 22 45  1  0  0  0  0
 22 46  1  0  0  0  0
M  END
> <s_m_source_file>
AV-unprocessed.smi

> <i_m_source_file_index>
1990

> <i_lp_mmshare_version>
43012

> <i_f3d_flags>
0

> <s_epik_input>
W0NIM11bQ0BASF0xW0NIMl1OKFtDSDJdW0NASF0oTzEpW0NIM10pYzJbY0hdW2NIXWMoW2NIXW4yKVtOSF1DKD1PKVtDQEhdKFtDSDNdKVMoPU8pKD1PKVtDSDNd

> <s_epik_cmdline>
J2VwaWtfcHl0aG9uJywgJy1waCcsICc3LjAnLCAnLXRuJywgJzgnLCAnLW1hJywgJzIwMCcsICctbWV0YWxfYmluZGluZycsICctaW1hZScsICc8aW5maWxlLm1hZT4nLCAnLW9tYWUnLCAnPG91dGZpbGUubWFlPic=

> <r_lp_tautomer_probability>
1

> <r_epik_Ionization_Penalty>
0.000334888

> <r_epik_Ionization_Penalty_Charging>
0

> <r_epik_Ionization_Penalty_Neutral>
0.000334888

> <r_epik_State_Penalty>
0.000200905

> <r_epik_Charging_Adjusted_Penalty>
0.000200905

> <i_epik_Tot_Q>
0

> <i_epik_Tot_abs_Q>
0

> <r_epik_Metal_State_Penalty>
-0

> <b_epik_Metal_Only>
0

> <s_lp_Force_Field>
OPLS_2005

> <r_lp_Energy>
21.5475

> <b_lp_Chiralities_Consistent>
1

> <s_lp_Variant>
AV-unprocessed.smi:1990-3

> <Gold.Version>
5.8.1

> <Gold.Id.Protein>
6NUR|6NUR_protein|mol2

> <Gold.PLP.Fitness>
38.5057

> <Gold.PLP.PLP>
-36.7584

> <Gold.PLP.part.hbond>
-1.0000

> <Gold.PLP.part.metal>
0.0000

> <Gold.PLP.part.buried>
-6.3074

> <Gold.PLP.part.nonpolar>
-29.6269

> <Gold.PLP.part.repulsive>
0.2489

> <Gold.PLP.ligand.clash>
0.0000

> <Gold.PLP.ligand.torsion>
0.4263

> <Gold.PLP.Chemscore.Hbond>
0.7040

> <Gold.PLP.Chemscore.CHOScore>
0.0000

> <Gold.PLP.Chemscore.Metal>
0.0000

> <Gold.Chemscore.Hbonds>
donor molecule, donor type, donor heavy atom, donor atom, acceptor molecule, acceptor atom, score
      P1  H  6896  6909       L1    11  0.50

> <Gold.PLP.Chemscore.Internal.Correction>
0.4879

> <Gold.Rescore>
     Score         DG    S(hbond)    S(metal)    S(lipo)     H(rot)  DE(clash)    DE(int)     intcor
     14.39     -16.34       0.93        0.00      99.54       1.52       0.03       1.92       ----

> <Gold.Chemscore.Fitness>
14.3949

> <Gold.Chemscore.DG>
-16.3444

> <Gold.Chemscore.ZeroCoef>
-5.4800

> <Gold.Chemscore.Hbond>
0.9291

> <Gold.Chemscore.Metal>
0.0000

> <Gold.Chemscore.Lipo>
99.5430

> <Gold.Chemscore.Internal_Hbond>
0.0000

> <Gold.Chemscore.DEClash>
0.0299

> <Gold.Chemscore.DEInternal>
1.9196

> <Gold.Chemscore.Rot>
1.5177

> <Gold.Chemscore.Internal.Correction>
   9.000000E+99

> <Gold.Chemscore.Hbonds>
donor molecule, donor type, donor heavy atom, donor atom, acceptor molecule, acceptor atom, score
      P1  H  6896  6909       L1    11  0.50

> <Gold.Chemscore.Hbond.Weighted>
-3.1031

> <Gold.Chemscore.Metal.Weighted>
-0.0000

> <Gold.Chemscore.Lipo.Weighted>
-11.6465

> <Gold.Chemscore.Internal_Hbond.Weighted>
0.0000

> <Gold.Chemscore.DEClash.Weighted>
0.0299

> <Gold.Chemscore.DEInternal.Weighted>
1.9196

> <Gold.Chemscore.Rot.Weighted>
3.8853

> <Gold.Chemscore.Internal.Correction.Weighted>
   9.000000E+99

> <Gold.Protein.RotatedTorsions>
[ 6907 6896 6895 6894 ] final   51.44 input  -60.11 | X-H torsion
[ 7974 7965 7964 7962 ] final   31.51 input  175.53 | X-H torsion
[ 8008 7997 7996 7995 ] final  121.58 input   59.86 | X-H torsion
[ 10167 10162 10161 10158 ] final  112.35 input  -65.29 | X-H torsion
[ 10718 10713 10712 10709 ] final   81.38 input   66.30 | X-H torsion
[ 10763 10752 10751 10750 ] final    2.40 input  -60.55 | X-H torsion
[ 11005 11000 10999 10996 ] final  144.37 input  -57.11 | X-H torsion

> <Gold.Protein.ActiveResidues>
 VAL166  LYS551  ARG553  GLY616  TRP617  ASP618  TYR619  PRO620  LYS621  CYS622 
 ASP623  PHE694  ASN695  SER759  ASP760  ASP761  ALA762  ILE779  LEU786  VAL792 
 PHE793  MET794  SER795  GLU796  ALA797  LYS798  CYS799  TRP800  GLU811  SER814 

> <Gold.Protein.RotatedAtoms>
  152.3127  134.7478  160.0332 H   0  0  0  0  0  0  0  0  0  0  0  0  # atno 6907 bound_to 6896
  151.7953  133.3358  159.3519 H   0  0  0  0  0  0  0  0  0  0  0  0  # atno 6908 bound_to 6896
  150.7328  134.5735  159.5946 H   0  0  0  0  0  0  0  0  0  0  0  0  # atno 6909 bound_to 6896
  146.1545  139.6647  142.9076 H   0  0  0  0  0  0  0  0  0  0  0  0  # atno 7974 bound_to 7965
  156.2692  140.2805  156.1330 H   0  0  0  0  0  0  0  0  0  0  0  0  # atno 8008 bound_to 7997
  155.1034  140.0390  157.2721 H   0  0  0  0  0  0  0  0  0  0  0  0  # atno 8009 bound_to 7997
  154.6798  140.2606  155.6926 H   0  0  0  0  0  0  0  0  0  0  0  0  # atno 8010 bound_to 7997
  139.6542  144.7129  151.1989 H   0  0  0  0  0  0  0  0  0  0  0  0  # atno 10167 bound_to 10162
  157.6831  131.0001  150.2218 H   0  0  0  0  0  0  0  0  0  0  0  0  # atno 10718 bound_to 10713
  153.2960  135.6952  153.7248 H   0  0  0  0  0  0  0  0  0  0  0  0  # atno 10763 bound_to 10752
  153.6180  135.3432  155.3002 H   0  0  0  0  0  0  0  0  0  0  0  0  # atno 10764 bound_to 10752
  154.8537  135.4379  154.2057 H   0  0  0  0  0  0  0  0  0  0  0  0  # atno 10765 bound_to 10752
  140.0627  134.9195  157.1212 H   0  0  0  0  0  0  0  0  0  0  0  0  # atno 11005 bound_to 11000
  145.4741  141.0437  143.2682 LP  0  0  0  0  0  0  0  0  0  0  0  0  # atno 17320 bound_to 7965
  144.7946  139.6260  143.7098 LP  0  0  0  0  0  0  0  0  0  0  0  0  # atno 17321 bound_to 7965
  140.7551  143.6100  150.8615 LP  0  0  0  0  0  0  0  0  0  0  0  0  # atno 17342 bound_to 10162
  139.9751  143.6013  152.2961 LP  0  0  0  0  0  0  0  0  0  0  0  0  # atno 17343 bound_to 10162
  156.2868  130.3740  149.7880 LP  0  0  0  0  0  0  0  0  0  0  0  0  # atno 17370 bound_to 10713
  156.5552  130.8359  151.3312 LP  0  0  0  0  0  0  0  0  0  0  0  0  # atno 17371 bound_to 10713
  140.3745  134.2354  155.7175 LP  0  0  0  0  0  0  0  0  0  0  0  0  # atno 17394 bound_to 11000
  141.1980  133.8046  157.0603 LP  0  0  0  0  0  0  0  0  0  0  0  0  # atno 17395 bound_to 11000

$$$$
