AV-unprocessed.smi:21|AV-procd|sdf|132|dock3
  -GOLD-   2262015323D 1   1.00000     0.00000
 Structure written by MMmdl.
 62 65  0  0  0  0  0  0  0  0  2 V2000
  145.7309  132.3690  150.1789 C   0  0  0  0  0  0  0  0  0  0  0  0
  146.0899  131.9544  151.4872 O   0  0  0  0  0  0  0  0  0  0  0  0
  147.0215  132.8177  152.1226 C   0  0  2  0  0  0  0  0  0  0  0  0
  147.3875  132.3723  153.5340 C   0  0  0  0  0  0  0  0  0  0  0  0
  147.8496  133.6632  154.2292 C   0  0  2  0  0  0  0  0  0  0  0  0
  147.6575  133.6446  155.7682 C   0  0  0  0  0  0  0  0  0  0  0  0
  148.8929  133.8972  156.5123 N   0  0  0  0  0  0  0  0  0  0  0  0
  149.0152  133.2869  157.8342 C   0  0  0  0  0  0  0  0  0  0  0  0
  149.6070  135.0299  156.2585 C   0  0  0  0  0  0  0  0  0  0  0  0
  149.9560  135.3075  154.9729 N   0  0  0  0  0  0  0  0  0  0  0  0
  150.6793  136.3907  154.6786 C   0  0  0  0  0  0  0  0  0  0  0  0
  151.1553  137.3227  155.5038 N   0  0  0  0  0  0  0  0  0  0  0  0
  150.8037  137.0638  156.7949 C   0  0  0  0  0  0  0  0  0  0  0  0
  150.0364  135.9552  157.2578 C   0  0  0  0  0  0  0  0  0  0  0  0
  149.8763  136.0484  158.6366 N   0  0  0  0  0  0  0  0  0  0  0  0
  150.5187  137.1341  158.9686 C   0  0  0  0  0  0  0  0  0  0  0  0
  151.1011  137.8094  157.9222 N   0  0  0  0  0  0  0  0  0  0  0  0
  151.8706  139.0394  158.0070 C   0  0  0  0  0  0  0  0  0  0  0  0
  151.0416  140.3100  157.6896 C   0  0  2  0  0  0  0  0  0  0  0  0
  150.4686  140.2621  156.2492 C   0  0  0  0  0  0  0  0  0  0  0  0
  151.4896  140.1330  155.2823 O   0  0  0  0  0  0  0  0  0  0  0  0
  151.8943  141.5844  157.9431 C   0  0  1  0  0  0  0  0  0  0  0  0
  151.1988  142.9091  157.6771 C   0  0  0  0  0  0  0  0  0  0  0  0
  152.0694  143.9008  158.4406 C   0  0  0  0  0  0  0  0  0  0  0  0
  152.5849  143.1821  159.5544 O   0  0  0  0  0  0  0  0  0  0  0  0
  152.3154  141.7925  159.4030 C   0  0  0  0  0  0  0  0  0  0  0  0
  147.1607  134.7735  153.5044 N   0  3  2  0  0  0  0  0  0  0  0  0
  146.3732  135.7431  154.3020 C   0  0  0  0  0  0  0  0  0  0  0  0
  146.3949  134.1840  152.3836 C   0  0  0  0  0  0  0  0  0  0  0  0
  147.9208  132.9402  151.5159 H   0  0  0  0  0  0  0  0  0  0  0  0
  148.9102  133.8014  154.0150 H   0  0  0  0  0  0  0  0  0  0  0  0
  144.9799  131.6899  149.7756 H   0  0  0  0  0  0  0  0  0  0  0  0
  146.5874  132.3543  149.5042 H   0  0  0  0  0  0  0  0  0  0  0  0
  145.3059  133.3734  150.1846 H   0  0  0  0  0  0  0  0  0  0  0  0
  146.4971  131.9796  154.0271 H   0  0  0  0  0  0  0  0  0  0  0  0
  148.1493  131.5923  153.5460 H   0  0  0  0  0  0  0  0  0  0  0  0
  146.9627  134.4327  156.0575 H   0  0  0  0  0  0  0  0  0  0  0  0
  147.1835  132.7181  156.0802 H   0  0  0  0  0  0  0  0  0  0  0  0
  150.0635  133.1571  158.1062 H   0  0  0  0  0  0  0  0  0  0  0  0
  148.5465  132.3028  157.8514 H   0  0  0  0  0  0  0  0  0  0  0  0
  148.5331  133.9042  158.5933 H   0  0  0  0  0  0  0  0  0  0  0  0
  150.9105  136.5292  153.6326 H   0  0  0  0  0  0  0  0  0  0  0  0
  150.5813  137.4783  159.9908 H   0  0  0  0  0  0  0  0  0  0  0  0
  152.2821  139.0873  159.0151 H   0  0  0  0  0  0  0  0  0  0  0  0
  152.7231  138.9696  157.3302 H   0  0  0  0  0  0  0  0  0  0  0  0
  150.1989  140.3212  158.3830 H   0  0  0  0  0  0  0  0  0  0  0  0
  149.7557  139.4440  156.1423 H   0  0  0  0  0  0  0  0  0  0  0  0
  149.9335  141.1767  155.9977 H   0  0  0  0  0  0  0  0  0  0  0  0
  152.3029  140.4283  155.6628 H   0  0  0  0  0  0  0  0  0  0  0  0
  152.7955  141.5419  157.3287 H   0  0  0  0  0  0  0  0  0  0  0  0
  151.1302  143.1560  156.6176 H   0  0  0  0  0  0  0  0  0  0  0  0
  150.1903  142.9005  158.0935 H   0  0  0  0  0  0  0  0  0  0  0  0
  152.9055  144.2294  157.8220 H   0  0  0  0  0  0  0  0  0  0  0  0
  151.5144  144.7839  158.7575 H   0  0  0  0  0  0  0  0  0  0  0  0
  151.5029  141.5272  160.0812 H   0  0  0  0  0  0  0  0  0  0  0  0
  153.1889  141.1993  159.6751 H   0  0  0  0  0  0  0  0  0  0  0  0
  145.5573  135.2543  154.8359 H   0  0  0  0  0  0  0  0  0  0  0  0
  145.9378  136.4978  153.6462 H   0  0  0  0  0  0  0  0  0  0  0  0
  147.0035  136.2667  155.0207 H   0  0  0  0  0  0  0  0  0  0  0  0
  146.4070  134.8268  151.5031 H   0  0  0  0  0  0  0  0  0  0  0  0
  145.3540  134.0518  152.6858 H   0  0  0  0  0  0  0  0  0  0  0  0
  147.9044  135.3074  153.0774 H   0  0  0  0  0  0  0  0  0  0  0  0
  1  2  1  0  0  0  0
  1 32  1  0  0  0  0
  1 33  1  0  0  0  0
  1 34  1  0  0  0  0
  2  3  1  0  0  0  0
  3 30  1  0  0  0  0
  3 29  1  0  0  0  0
  3  4  1  0  0  0  0
  4  5  1  0  0  0  0
  4 35  1  0  0  0  0
  4 36  1  0  0  0  0
  5 31  1  0  0  0  0
  5  6  1  0  0  0  0
  5 27  1  0  0  0  0
  6  7  1  0  0  0  0
  6 37  1  0  0  0  0
  6 38  1  0  0  0  0
  7  8  1  0  0  0  0
  7  9  1  0  0  0  0
  8 39  1  0  0  0  0
  8 40  1  0  0  0  0
  8 41  1  0  0  0  0
  9 14  1  0  0  0  0
  9 10  2  0  0  0  0
 10 11  1  0  0  0  0
 11 12  2  0  0  0  0
 11 42  1  0  0  0  0
 12 13  1  0  0  0  0
 13 17  1  0  0  0  0
 13 14  2  0  0  0  0
 14 15  1  0  0  0  0
 15 16  2  0  0  0  0
 16 17  1  0  0  0  0
 16 43  1  0  0  0  0
 17 18  1  0  0  0  0
 18 19  1  0  0  0  0
 18 44  1  0  0  0  0
 18 45  1  0  0  0  0
 19 20  1  0  0  0  0
 19 22  1  0  0  0  0
 19 46  1  0  0  0  0
 20 21  1  0  0  0  0
 20 47  1  0  0  0  0
 20 48  1  0  0  0  0
 21 49  1  0  0  0  0
 22 26  1  0  0  0  0
 22 23  1  0  0  0  0
 22 50  1  0  0  0  0
 23 24  1  0  0  0  0
 23 51  1  0  0  0  0
 23 52  1  0  0  0  0
 24 25  1  0  0  0  0
 24 53  1  0  0  0  0
 24 54  1  0  0  0  0
 25 26  1  0  0  0  0
 26 55  1  0  0  0  0
 26 56  1  0  0  0  0
 27 28  1  0  0  0  0
 27 29  1  0  0  0  0
 27 62  1  0  0  0  0
 28 57  1  0  0  0  0
 28 58  1  0  0  0  0
 28 59  1  0  0  0  0
 29 60  1  0  0  0  0
 29 61  1  0  0  0  0
M  CHG  1  27   1
M  END
> <s_m_source_file>
AV-unprocessed.smi

> <i_m_source_file_index>
21

> <i_lp_mmshare_version>
43012

> <i_f3d_flags>
0

> <s_epik_input>
W0NIM11PW0NASF0xW0NIMl1bQ0BIXShOKFtDSDNdKVtDSDJdMSlbQ0gyXU4oW0NIM10pYyhuW2NIXW4yKWMoYzIzKW5bY0hdbjNbQ0gyXVtDQEhdKFtDSDJdW09IXSlbQ0BASF00W0NIMl1bQ0gyXU9bQ0gyXTQ=

> <s_epik_cmdline>
J2VwaWtfcHl0aG9uJywgJy1waCcsICc3LjAnLCAnLXRuJywgJzgnLCAnLW1hJywgJzIwMCcsICctbWV0YWxfYmluZGluZycsICctaW1hZScsICc8aW5maWxlLm1hZT4nLCAnLW9tYWUnLCAnPG91dGZpbGUubWFlPic=

> <r_lp_tautomer_probability>
1

> <r_epik_Ionization_Penalty>
0.0157465

> <r_epik_Ionization_Penalty_Charging>
0.015354

> <r_epik_Ionization_Penalty_Neutral>
0.000392529

> <r_epik_State_Penalty>
0.0120612

> <r_epik_Charging_Adjusted_Penalty>
0.0274152

> <i_epik_Tot_Q>
1

> <i_epik_Tot_abs_Q>
1

> <r_epik_Metal_State_Penalty>
0.0121253

> <b_epik_Metal_Only>
0

> <s_lp_Force_Field>
OPLS_2005

> <r_lp_Energy>
62.0887

> <b_lp_Chiralities_Consistent>
1

> <s_lp_Variant>
AV-unprocessed.smi:21-12

> <Gold.Version>
5.8.1

> <Gold.Id.Protein>
6NUR|6NUR_protein|mol2

> <Gold.PLP.Fitness>
50.7518

> <Gold.PLP.PLP>
-38.1957

> <Gold.PLP.part.hbond>
-3.0000

> <Gold.PLP.part.metal>
0.0000

> <Gold.PLP.part.buried>
-6.9766

> <Gold.PLP.part.nonpolar>
-28.9476

> <Gold.PLP.part.repulsive>
0.3295

> <Gold.PLP.ligand.clash>
0.0000

> <Gold.PLP.ligand.torsion>
1.9271

> <Gold.PLP.Chemscore.Hbond>
3.9760

> <Gold.PLP.Chemscore.CHOScore>
1.0000

> <Gold.PLP.Chemscore.Metal>
0.0000

> <Gold.Chemscore.Hbonds>
donor molecule, donor type, donor heavy atom, donor atom, acceptor molecule, acceptor atom, score
      L1  H    27    62       P1  7948  2.00
      P1  H  6896  6908       L1    15  1.00
      P1  H  7989  7998       L1    21  1.00
      L1  C    11    42       P1  7948  0.03
      L1  C    11    42       P1  7949  0.89

> <Gold.PLP.Chemscore.Internal.Correction>
1.4823

> <Gold.Rescore>
     Score         DG    S(hbond)    S(metal)    S(lipo)     H(rot)  DE(clash)    DE(int)     intcor
     12.63     -17.08       2.48        0.00      95.59       3.08       0.04       4.41       ----

> <Gold.Chemscore.Fitness>
12.6293

> <Gold.Chemscore.DG>
-17.0839

> <Gold.Chemscore.ZeroCoef>
-5.4800

> <Gold.Chemscore.Hbond>
2.4834

> <Gold.Chemscore.Metal>
0.0000

> <Gold.Chemscore.Lipo>
95.5857

> <Gold.Chemscore.Internal_Hbond>
0.0000

> <Gold.Chemscore.DEClash>
0.0428

> <Gold.Chemscore.DEInternal>
4.4118

> <Gold.Chemscore.Rot>
3.0758

> <Gold.Chemscore.Internal.Correction>
   9.000000E+99

> <Gold.Chemscore.Hbonds>
donor molecule, donor type, donor heavy atom, donor atom, acceptor molecule, acceptor atom, score
      L1  H    27    62       P1  7948  1.00
      P1  H  6896  6908       L1    15  0.39
      P1  H  7989  7998       L1    21  0.24

> <Gold.Chemscore.Hbond.Weighted>
-8.2946

> <Gold.Chemscore.Metal.Weighted>
-0.0000

> <Gold.Chemscore.Lipo.Weighted>
-11.1835

> <Gold.Chemscore.Internal_Hbond.Weighted>
0.0000

> <Gold.Chemscore.DEClash.Weighted>
0.0428

> <Gold.Chemscore.DEInternal.Weighted>
4.4118

> <Gold.Chemscore.Rot.Weighted>
7.8741

> <Gold.Chemscore.Internal.Correction.Weighted>
   9.000000E+99

> <Gold.Protein.RotatedTorsions>
[ 6907 6896 6895 6894 ] final  177.39 input  -60.11 | X-H torsion
[ 7974 7965 7964 7962 ] final  -11.74 input  175.53 | X-H torsion
[ 8008 7997 7996 7995 ] final  157.39 input   59.86 | X-H torsion
[ 10167 10162 10161 10158 ] final  -88.26 input  -65.29 | X-H torsion
[ 10718 10713 10712 10709 ] final  115.04 input   66.30 | X-H torsion
[ 10763 10752 10751 10750 ] final  176.45 input  -60.55 | X-H torsion
[ 11005 11000 10999 10996 ] final -140.55 input  -57.11 | X-H torsion

> <Gold.Protein.ActiveResidues>
 VAL166  LYS551  ARG553  GLY616  TRP617  ASP618  TYR619  PRO620  LYS621  CYS622 
 ASP623  PHE694  ASN695  SER759  ASP760  ASP761  ALA762  ILE779  LEU786  VAL792 
 PHE793  MET794  SER795  GLU796  ALA797  LYS798  CYS799  TRP800  GLU811  SER814 

> <Gold.Protein.RotatedAtoms>
  151.7047  133.3311  159.3275 H   0  0  0  0  0  0  0  0  0  0  0  0  # atno 6907 bound_to 6896
  150.7720  134.6585  159.6336 H   0  0  0  0  0  0  0  0  0  0  0  0  # atno 6908 bound_to 6896
  152.3748  134.6682  160.0215 H   0  0  0  0  0  0  0  0  0  0  0  0  # atno 6909 bound_to 6896
  146.2177  140.2955  142.8371 H   0  0  0  0  0  0  0  0  0  0  0  0  # atno 7974 bound_to 7965
  156.2366  140.1886  156.7101 H   0  0  0  0  0  0  0  0  0  0  0  0  # atno 8008 bound_to 7997
  154.6119  140.0621  156.9531 H   0  0  0  0  0  0  0  0  0  0  0  0  # atno 8009 bound_to 7997
  155.2002  140.3291  155.4347 H   0  0  0  0  0  0  0  0  0  0  0  0  # atno 8010 bound_to 7997
  140.3764  143.2769  151.9437 H   0  0  0  0  0  0  0  0  0  0  0  0  # atno 10167 bound_to 10162
  157.6246  131.1007  150.7272 H   0  0  0  0  0  0  0  0  0  0  0  0  # atno 10718 bound_to 10713
  154.4813  135.2775  155.1568 H   0  0  0  0  0  0  0  0  0  0  0  0  # atno 10763 bound_to 10752
  154.3277  135.6196  153.5540 H   0  0  0  0  0  0  0  0  0  0  0  0  # atno 10764 bound_to 10752
  152.9875  135.5758  154.5215 H   0  0  0  0  0  0  0  0  0  0  0  0  # atno 10765 bound_to 10752
  140.8412  134.2400  157.4809 H   0  0  0  0  0  0  0  0  0  0  0  0  # atno 11005 bound_to 11000
  144.9095  140.7741  143.5816 LP  0  0  0  0  0  0  0  0  0  0  0  0  # atno 17320 bound_to 7965
  145.2885  139.1892  143.4753 LP  0  0  0  0  0  0  0  0  0  0  0  0  # atno 17321 bound_to 7965
  139.4799  144.5859  151.7854 LP  0  0  0  0  0  0  0  0  0  0  0  0  # atno 17342 bound_to 10162
  140.4981  144.1209  150.5965 LP  0  0  0  0  0  0  0  0  0  0  0  0  # atno 17343 bound_to 10162
  156.7623  130.4802  149.5434 LP  0  0  0  0  0  0  0  0  0  0  0  0  # atno 17370 bound_to 10713
  156.1410  130.6245  151.0467 LP  0  0  0  0  0  0  0  0  0  0  0  0  # atno 17371 bound_to 10713
  139.8703  134.9636  156.4468 LP  0  0  0  0  0  0  0  0  0  0  0  0  # atno 17394 bound_to 11000
  140.8893  133.7860  155.9554 LP  0  0  0  0  0  0  0  0  0  0  0  0  # atno 17395 bound_to 11000

$$$$
