AV-unprocessed.smi:54|AV-procd|sdf|556|dock3
  -GOLD-   2262016453D 1   1.00000     0.00000
 Structure written by MMmdl.
 43 45  0  0  0  0  0  0  0  0  2 V2000
  151.8768  143.3936  160.8619 C   0  0  0  0  0  0  0  0  0  0  0  0
  152.8828  143.3618  159.6995 C   0  0  0  0  0  0  0  0  0  0  0  0
  152.4666  144.3241  158.5747 C   0  0  0  0  0  0  0  0  0  0  0  0
  153.0455  141.9333  159.1614 C   0  0  0  0  0  0  0  0  0  0  0  0
  153.8680  141.1827  159.6908 O   0  0  0  0  0  0  0  0  0  0  0  0
  152.2566  141.6202  158.1099 N   0  0  0  0  0  0  0  0  0  0  0  0
  152.1925  140.4280  157.3806 C   0  0  0  0  0  0  0  0  0  0  0  0
  151.2651  140.4428  156.4552 N   0  0  0  0  0  0  0  0  0  0  0  0
  151.2071  139.2646  155.7364 C   0  0  0  0  0  0  0  0  0  0  0  0
  151.9733  138.1441  155.9089 C   0  0  0  0  0  0  0  0  0  0  0  0
  151.6348  137.1501  154.9985 N   0  0  0  0  0  0  0  0  0  0  0  0
  150.6589  137.7312  154.3030 C   0  0  0  0  0  0  0  0  0  0  0  0
  150.3453  138.9870  154.6780 N   0  0  0  0  0  0  0  0  0  0  0  0
  149.2963  139.8562  154.0614 C   0  0  1  0  0  0  0  0  0  0  0  0
  148.1172  139.1188  153.9762 O   0  0  0  0  0  0  0  0  0  0  0  0
  147.0131  139.9510  154.2961 C   0  0  1  0  0  0  0  0  0  0  0  0
  145.7968  139.1011  154.7044 C   0  0  0  0  0  0  0  0  0  0  0  0
  145.3062  138.3782  153.5952 O   0  0  0  0  0  0  0  0  0  0  0  0
  147.5645  140.9346  155.3401 C   0  0  1  0  0  0  0  0  0  0  0  0
  147.4639  140.4247  156.6557 O   0  0  0  0  0  0  0  0  0  0  0  0
  149.0277  141.0954  154.9354 C   0  0  2  0  0  0  0  0  0  0  0  0
  149.1825  142.2838  154.1850 O   0  0  0  0  0  0  0  0  0  0  0  0
  152.9867  138.1844  156.9897 C   0  0  0  0  0  0  0  0  0  0  0  0
  153.6917  137.1964  157.1855 O   0  0  0  0  0  0  0  0  0  0  0  0
  153.0473  139.3531  157.6953 N   0  5  0  0  0  0  0  0  0  0  0  0
  149.6755  140.0922  153.0659 H   0  0  0  0  0  0  0  0  0  0  0  0
  146.7716  140.5090  153.3895 H   0  0  0  0  0  0  0  0  0  0  0  0
  147.0188  141.8791  155.3190 H   0  0  0  0  0  0  0  0  0  0  0  0
  149.6996  141.1293  155.7951 H   0  0  0  0  0  0  0  0  0  0  0  0
  152.1686  142.7065  161.6571 H   0  0  0  0  0  0  0  0  0  0  0  0
  150.8743  143.1167  160.5333 H   0  0  0  0  0  0  0  0  0  0  0  0
  151.8173  144.3909  161.2981 H   0  0  0  0  0  0  0  0  0  0  0  0
  153.8472  143.6973  160.0848 H   0  0  0  0  0  0  0  0  0  0  0  0
  153.1770  144.2968  157.7475 H   0  0  0  0  0  0  0  0  0  0  0  0
  152.4259  145.3516  158.9371 H   0  0  0  0  0  0  0  0  0  0  0  0
  151.4820  144.0756  158.1769 H   0  0  0  0  0  0  0  0  0  0  0  0
  151.6933  142.3819  157.7628 H   0  0  0  0  0  0  0  0  0  0  0  0
  150.1560  137.2268  153.4911 H   0  0  0  0  0  0  0  0  0  0  0  0
  146.0881  138.3877  155.4756 H   0  0  0  0  0  0  0  0  0  0  0  0
  145.0015  139.7149  155.1286 H   0  0  0  0  0  0  0  0  0  0  0  0
  144.7844  138.9611  153.0648 H   0  0  0  0  0  0  0  0  0  0  0  0
  148.2137  140.7208  157.1486 H   0  0  0  0  0  0  0  0  0  0  0  0
  149.2842  143.0060  154.7856 H   0  0  0  0  0  0  0  0  0  0  0  0
  1  2  1  0  0  0  0
  1 30  1  0  0  0  0
  1 31  1  0  0  0  0
  1 32  1  0  0  0  0
  2  3  1  0  0  0  0
  2  4  1  0  0  0  0
  2 33  1  0  0  0  0
  3 34  1  0  0  0  0
  3 35  1  0  0  0  0
  3 36  1  0  0  0  0
  4  5  2  0  0  0  0
  4  6  1  0  0  0  0
  6 37  1  0  0  0  0
  6  7  1  0  0  0  0
  7 25  1  0  0  0  0
  7  8  2  0  0  0  0
  8  9  1  0  0  0  0
  9 13  1  0  0  0  0
  9 10  2  0  0  0  0
 10 11  1  0  0  0  0
 10 23  1  0  0  0  0
 11 12  2  0  0  0  0
 12 13  1  0  0  0  0
 12 38  1  0  0  0  0
 13 14  1  0  0  0  0
 14 26  1  0  0  0  0
 14 21  1  0  0  0  0
 14 15  1  0  0  0  0
 15 16  1  0  0  0  0
 16 27  1  0  0  0  0
 16 17  1  0  0  0  0
 16 19  1  0  0  0  0
 17 18  1  0  0  0  0
 17 39  1  0  0  0  0
 17 40  1  0  0  0  0
 18 41  1  0  0  0  0
 19 28  1  0  0  0  0
 19 20  1  0  0  0  0
 19 21  1  0  0  0  0
 20 42  1  0  0  0  0
 21 29  1  0  0  0  0
 21 22  1  0  0  0  0
 22 43  1  0  0  0  0
 23 24  2  0  0  0  0
 23 25  1  0  0  0  0
M  CHG  1  25  -1
M  END
> <s_m_source_file>
AV-unprocessed.smi

> <i_m_source_file_index>
54

> <i_lp_mmshare_version>
43012

> <i_f3d_flags>
0

> <s_epik_input>
W0NIM11bQ0hdKFtDSDNdKUMoPU8pW05IXWMobjEpW25IXWMoPU8pYyhjMTIpbltjSF1uMltDQEBIXTNPW0NASF0oW0NIMl1bT0hdKVtDQEBIXShbT0hdKVtDQEhdM1tPSF0=

> <s_epik_cmdline>
J2VwaWtfcHl0aG9uJywgJy1waCcsICc3LjAnLCAnLXRuJywgJzgnLCAnLW1hJywgJzIwMCcsICctbWV0YWxfYmluZGluZycsICctaW1hZScsICc8aW5maWxlLm1hZT4nLCAnLW9tYWUnLCAnPG91dGZpbGUubWFlPic=

> <r_lp_tautomer_probability>
0.85571

> <r_epik_Ionization_Penalty>
1.75936

> <r_epik_Ionization_Penalty_Charging>
4.55893e-11

> <r_epik_Ionization_Penalty_Neutral>
1.75936

> <r_epik_State_Penalty>
1.72072

> <r_epik_Charging_Adjusted_Penalty>
1.72072

> <i_epik_Tot_Q>
-1

> <i_epik_Tot_abs_Q>
1

> <r_epik_Metal_State_Penalty>
0.400338

> <b_epik_Metal_Only>
1

> <s_epik_Chemistry_Notes>
This compound contains an acetal/aminal-like group ( X-CH(R)-Y where X, Y are N, S, or O) that may be acid/base labile, releasing an aldehyde.

> <s_lp_Force_Field>
OPLS_2005

> <r_lp_Energy>
57.3422

> <b_lp_Chiralities_Consistent>
1

> <s_lp_Variant>
AV-unprocessed.smi:54-28

> <Gold.Version>
5.8.1

> <Gold.Id.Protein>
6NUR|6NUR_protein|mol2

> <Gold.PLP.Fitness>
53.3447

> <Gold.PLP.PLP>
-36.7640

> <Gold.PLP.part.hbond>
-5.1764

> <Gold.PLP.part.metal>
0.0000

> <Gold.PLP.part.buried>
0.1985

> <Gold.PLP.part.nonpolar>
-31.5663

> <Gold.PLP.part.repulsive>
0.3605

> <Gold.PLP.ligand.clash>
0.0000

> <Gold.PLP.ligand.torsion>
0.9978

> <Gold.PLP.Chemscore.Hbond>
5.1500

> <Gold.PLP.Chemscore.CHOScore>
1.0311

> <Gold.PLP.Chemscore.Metal>
0.0000

> <Gold.Chemscore.Hbonds>
donor molecule, donor type, donor heavy atom, donor atom, acceptor molecule, acceptor atom, score
      L1  H    18    41       P1 10175  1.00
      L1  H    22    43       P1  8028  1.00
      P1  H  7997  8008       L1    25  1.90
      P1  H  8011  8017       L1    22  0.24
      P1  H 10752 10765       L1    11  0.88
      L1  C    12    38       P1  7948  0.93
      L1  C    12    38       P1  7949  0.12

> <Gold.PLP.Chemscore.Internal.Correction>
0.0331

> <Gold.Rescore>
     Score         DG    S(hbond)    S(metal)    S(lipo)     H(rot)  DE(clash)    DE(int)     intcor
      7.87     -12.96       3.17        0.00      61.32       4.02       1.31       3.79       ----

> <Gold.Chemscore.Fitness>
7.8664

> <Gold.Chemscore.DG>
-12.9605

> <Gold.Chemscore.ZeroCoef>
-5.4800

> <Gold.Chemscore.Hbond>
3.1722

> <Gold.Chemscore.Metal>
0.0000

> <Gold.Chemscore.Lipo>
61.3207

> <Gold.Chemscore.Internal_Hbond>
0.0000

> <Gold.Chemscore.DEClash>
1.3086

> <Gold.Chemscore.DEInternal>
3.7855

> <Gold.Chemscore.Rot>
4.0192

> <Gold.Chemscore.Internal.Correction>
   9.000000E+99

> <Gold.Chemscore.Hbonds>
donor molecule, donor type, donor heavy atom, donor atom, acceptor molecule, acceptor atom, score
      L1  H    18    41       P1 10175  0.98
      L1  H    22    43       P1  8028  0.98
      P1  H  7997  8008       L1    25  0.06
      P1  H  8011  8017       L1    22  0.23
      P1  H 10752 10765       L1    11  0.82

> <Gold.Chemscore.Hbond.Weighted>
-10.5952

> <Gold.Chemscore.Metal.Weighted>
-0.0000

> <Gold.Chemscore.Lipo.Weighted>
-7.1745

> <Gold.Chemscore.Internal_Hbond.Weighted>
0.0000

> <Gold.Chemscore.DEClash.Weighted>
1.3086

> <Gold.Chemscore.DEInternal.Weighted>
3.7855

> <Gold.Chemscore.Rot.Weighted>
10.2893

> <Gold.Chemscore.Internal.Correction.Weighted>
   9.000000E+99

> <Gold.Protein.RotatedTorsions>
[ 6907 6896 6895 6894 ] final -116.34 input  -60.11 | X-H torsion
[ 7974 7965 7964 7962 ] final  169.75 input  175.53 | X-H torsion
[ 8008 7997 7996 7995 ] final  -87.35 input   59.86 | X-H torsion
[ 10167 10162 10161 10158 ] final   82.97 input  -65.29 | X-H torsion
[ 10718 10713 10712 10709 ] final -148.28 input   66.30 | X-H torsion
[ 10763 10752 10751 10750 ] final  166.45 input  -60.55 | X-H torsion
[ 11005 11000 10999 10996 ] final   99.30 input  -57.11 | X-H torsion

> <Gold.Protein.ActiveResidues>
 VAL166  LYS551  ARG553  GLY616  TRP617  ASP618  TYR619  PRO620  LYS621  CYS622 
 ASP623  PHE694  ASN695  SER759  ASP760  ASP761  ALA762  ILE779  LEU786  VAL792 
 PHE793  MET794  SER795  GLU796  ALA797  LYS798  CYS799  TRP800  GLU811  SER814 

> <Gold.Protein.RotatedAtoms>
  150.8048  133.8530  159.3210 H   0  0  0  0  0  0  0  0  0  0  0  0  # atno 6907 bound_to 6896
  151.6332  135.1019  160.0135 H   0  0  0  0  0  0  0  0  0  0  0  0  # atno 6908 bound_to 6896
  152.4138  133.6966  159.6456 H   0  0  0  0  0  0  0  0  0  0  0  0  # atno 6909 bound_to 6896
  144.7345  139.9100  143.6414 H   0  0  0  0  0  0  0  0  0  0  0  0  # atno 7974 bound_to 7965
  154.6623  140.0567  157.0075 H   0  0  0  0  0  0  0  0  0  0  0  0  # atno 8008 bound_to 7997
  155.1210  140.3247  155.4478 H   0  0  0  0  0  0  0  0  0  0  0  0  # atno 8009 bound_to 7997
  156.2623  140.1997  156.6332 H   0  0  0  0  0  0  0  0  0  0  0  0  # atno 8010 bound_to 7997
  139.9233  144.6199  150.8418 H   0  0  0  0  0  0  0  0  0  0  0  0  # atno 10167 bound_to 10162
  156.4182  130.8016  151.2237 H   0  0  0  0  0  0  0  0  0  0  0  0  # atno 10718 bound_to 10713
  154.3392  135.2754  155.2431 H   0  0  0  0  0  0  0  0  0  0  0  0  # atno 10763 bound_to 10752
  154.4709  135.5883  153.6324 H   0  0  0  0  0  0  0  0  0  0  0  0  # atno 10764 bound_to 10752
  152.9859  135.6088  154.3592 H   0  0  0  0  0  0  0  0  0  0  0  0  # atno 10765 bound_to 10752
  139.8771  134.9089  156.4586 H   0  0  0  0  0  0  0  0  0  0  0  0  # atno 11005 bound_to 11000
  146.1008  139.4004  143.0348 LP  0  0  0  0  0  0  0  0  0  0  0  0  # atno 17320 bound_to 7965
  145.7581  140.9946  143.1215 LP  0  0  0  0  0  0  0  0  0  0  0  0  # atno 17321 bound_to 7965
  140.7656  143.3282  151.2470 LP  0  0  0  0  0  0  0  0  0  0  0  0  # atno 17342 bound_to 10162
  139.6843  143.9800  152.2826 LP  0  0  0  0  0  0  0  0  0  0  0  0  # atno 17343 bound_to 10162
  157.7508  131.0236  150.3842 LP  0  0  0  0  0  0  0  0  0  0  0  0  # atno 17370 bound_to 10713
  156.4154  130.3942  149.6862 LP  0  0  0  0  0  0  0  0  0  0  0  0  # atno 17371 bound_to 10713
  140.8880  133.7869  155.9540 LP  0  0  0  0  0  0  0  0  0  0  0  0  # atno 17394 bound_to 11000
  140.8783  134.2642  157.5157 LP  0  0  0  0  0  0  0  0  0  0  0  0  # atno 17395 bound_to 11000

$$$$
