AV-unprocessed.smi:156|AV-procd|sdf|1289|dock6
  -GOLD-   2262018573D 1   1.00000     0.00000
 Structure written by MMmdl.
 51 53  0  0  0  0  0  0  0  0  1 V2000
  149.7362  128.6544  154.5748 C   0  0  0  0  0  0  0  0  0  0  0  0
  149.2232  129.9328  155.2685 C   0  0  2  0  0  0  0  0  0  0  0  0
  149.7193  130.0881  156.7356 C   0  0  1  0  0  0  0  0  0  0  0  0
  151.2155  129.7591  156.8987 C   0  0  0  0  0  0  0  0  0  0  0  0
  149.3873  131.7919  157.4281 S   0  0  0  0  0  0  0  0  0  0  0  0
  148.7578  132.7310  155.9725 C   0  0  0  0  0  0  0  0  0  0  0  0
  148.3005  131.7192  158.4160 O   0  0  0  0  0  0  0  0  0  0  0  0
  150.6720  132.3940  157.8164 O   0  0  0  0  0  0  0  0  0  0  0  0
  147.7595  130.0062  155.1726 N   0  0  0  0  0  0  0  0  0  0  0  0
  146.9247  129.9035  156.3665 C   0  0  0  0  0  0  0  0  0  0  0  0
  147.1443  129.9272  153.9621 C   0  0  0  0  0  0  0  0  0  0  0  0
  146.6791  128.7243  153.5316 N   0  0  0  0  0  0  0  0  0  0  0  0
  146.0710  128.6145  152.3476 C   0  0  0  0  0  0  0  0  0  0  0  0
  145.8329  129.5637  151.4422 N   0  0  0  0  0  0  0  0  0  0  0  0
  146.3049  130.7735  151.8582 C   0  0  0  0  0  0  0  0  0  0  0  0
  146.9569  131.0442  153.0957 C   0  0  0  0  0  0  0  0  0  0  0  0
  147.2860  132.3932  153.1637 N   0  0  0  0  0  0  0  0  0  0  0  0
  146.8526  132.8886  152.0377 C   0  0  0  0  0  0  0  0  0  0  0  0
  146.2673  131.9820  151.1830 N   0  0  0  0  0  0  0  0  0  0  0  0
  145.7063  132.2546  149.8662 C   0  0  0  0  0  0  0  0  0  0  0  0
  144.3914  133.0731  149.8734 C   0  0  0  0  0  0  0  0  0  0  0  0
  143.8727  133.1559  148.4310 C   0  0  0  0  0  0  0  0  0  0  0  0
  143.8338  134.4927  147.9734 O   0  0  0  0  0  0  0  0  0  0  0  0
  143.3435  132.6566  150.9197 C   0  0  0  0  0  0  0  0  0  0  0  0
  143.6891  133.7589  151.7843 O   0  0  0  0  0  0  0  0  0  0  0  0
  144.3701  134.3854  150.6769 C   0  0  0  0  0  0  0  0  0  0  0  0
  150.8178  128.6750  154.4446 H   0  0  0  0  0  0  0  0  0  0  0  0
  149.3038  128.5502  153.5792 H   0  0  0  0  0  0  0  0  0  0  0  0
  149.4866  127.7567  155.1402 H   0  0  0  0  0  0  0  0  0  0  0  0
  149.6574  130.7662  154.7179 H   0  0  0  0  0  0  0  0  0  0  0  0
  149.1671  129.3968  157.3727 H   0  0  0  0  0  0  0  0  0  0  0  0
  151.4266  128.7176  156.6587 H   0  0  0  0  0  0  0  0  0  0  0  0
  151.5463  129.9091  157.9262 H   0  0  0  0  0  0  0  0  0  0  0  0
  151.8357  130.3826  156.2550 H   0  0  0  0  0  0  0  0  0  0  0  0
  148.6175  133.7736  156.2565 H   0  0  0  0  0  0  0  0  0  0  0  0
  147.7991  132.3255  155.6516 H   0  0  0  0  0  0  0  0  0  0  0  0
  149.4744  132.6775  155.1542 H   0  0  0  0  0  0  0  0  0  0  0  0
  146.0947  129.2144  156.2069 H   0  0  0  0  0  0  0  0  0  0  0  0
  146.5173  130.8787  156.6325 H   0  0  0  0  0  0  0  0  0  0  0  0
  147.4940  129.5405  157.2214 H   0  0  0  0  0  0  0  0  0  0  0  0
  145.7284  127.6239  152.0875 H   0  0  0  0  0  0  0  0  0  0  0  0
  146.9553  133.9367  151.7986 H   0  0  0  0  0  0  0  0  0  0  0  0
  146.4757  132.7625  149.2841 H   0  0  0  0  0  0  0  0  0  0  0  0
  145.5488  131.2956  149.3709 H   0  0  0  0  0  0  0  0  0  0  0  0
  144.4938  132.5672  147.7551 H   0  0  0  0  0  0  0  0  0  0  0  0
  142.8631  132.7502  148.3564 H   0  0  0  0  0  0  0  0  0  0  0  0
  144.7167  134.7727  147.7853 H   0  0  0  0  0  0  0  0  0  0  0  0
  142.3125  132.7312  150.5695 H   0  0  0  0  0  0  0  0  0  0  0  0
  143.5163  131.6842  151.3785 H   0  0  0  0  0  0  0  0  0  0  0  0
  145.3497  134.7768  150.9455 H   0  0  0  0  0  0  0  0  0  0  0  0
  143.7606  135.1685  150.2227 H   0  0  0  0  0  0  0  0  0  0  0  0
  1  2  1  0  0  0  0
  1 27  1  0  0  0  0
  1 28  1  0  0  0  0
  1 29  1  0  0  0  0
  2  3  1  0  0  0  0
  2  9  1  0  0  0  0
  2 30  1  0  0  0  0
  3  4  1  0  0  0  0
  3  5  1  0  0  0  0
  3 31  1  0  0  0  0
  4 32  1  0  0  0  0
  4 33  1  0  0  0  0
  4 34  1  0  0  0  0
  5  6  1  0  0  0  0
  5  7  2  0  0  0  0
  5  8  2  0  0  0  0
  6 35  1  0  0  0  0
  6 36  1  0  0  0  0
  6 37  1  0  0  0  0
  9 10  1  0  0  0  0
  9 11  1  0  0  0  0
 10 38  1  0  0  0  0
 10 39  1  0  0  0  0
 10 40  1  0  0  0  0
 11 16  1  0  0  0  0
 11 12  2  0  0  0  0
 12 13  1  0  0  0  0
 13 14  2  0  0  0  0
 13 41  1  0  0  0  0
 14 15  1  0  0  0  0
 15 19  1  0  0  0  0
 15 16  2  0  0  0  0
 16 17  1  0  0  0  0
 17 18  2  0  0  0  0
 18 19  1  0  0  0  0
 18 42  1  0  0  0  0
 19 20  1  0  0  0  0
 20 21  1  0  0  0  0
 20 43  1  0  0  0  0
 20 44  1  0  0  0  0
 21 26  1  0  0  0  0
 21 22  1  0  0  0  0
 21 24  1  0  0  0  0
 22 23  1  0  0  0  0
 22 45  1  0  0  0  0
 22 46  1  0  0  0  0
 23 47  1  0  0  0  0
 24 25  1  0  0  0  0
 24 48  1  0  0  0  0
 24 49  1  0  0  0  0
 25 26  1  0  0  0  0
 26 50  1  0  0  0  0
 26 51  1  0  0  0  0
M  END
> <s_m_source_file>
AV-unprocessed.smi

> <i_m_source_file_index>
156

> <i_lp_mmshare_version>
43012

> <i_f3d_flags>
0

> <s_epik_input>
W0NIM11TKD1PKSg9TylbQ0BASF0oW0NIM10pW0NAQEhdKFtDSDNdKU4oW0NIM10pYyhuW2NIXW4xKWMoYzEyKW5bY0hdbjJbQ0gyXUMzKFtDSDJdW09IXSlbQ0gyXU9bQ0gyXTM=

> <s_epik_cmdline>
J2VwaWtfcHl0aG9uJywgJy1waCcsICc3LjAnLCAnLXRuJywgJzgnLCAnLW1hJywgJzIwMCcsICctbWV0YWxfYmluZGluZycsICctaW1hZScsICc8aW5maWxlLm1hZT4nLCAnLW9tYWUnLCAnPG91dGZpbGUubWFlPic=

> <r_lp_tautomer_probability>
1

> <r_epik_Ionization_Penalty>
0.00107697

> <r_epik_Ionization_Penalty_Charging>
0

> <r_epik_Ionization_Penalty_Neutral>
0.00107697

> <r_epik_State_Penalty>
0.000614712

> <r_epik_Charging_Adjusted_Penalty>
0.000614712

> <i_epik_Tot_Q>
0

> <i_epik_Tot_abs_Q>
0

> <r_epik_Metal_State_Penalty>
-0

> <b_epik_Metal_Only>
0

> <s_lp_Force_Field>
OPLS_2005

> <r_lp_Energy>
28.6083

> <b_lp_Chiralities_Consistent>
1

> <s_lp_Variant>
AV-unprocessed.smi:156-3

> <Gold.Version>
5.8.1

> <Gold.Id.Protein>
6NUR|6NUR_protein|mol2

> <Gold.PLP.Fitness>
51.6412

> <Gold.PLP.PLP>
-45.7259

> <Gold.PLP.part.hbond>
-5.7232

> <Gold.PLP.part.metal>
0.0000

> <Gold.PLP.part.buried>
-2.9081

> <Gold.PLP.part.nonpolar>
-37.7856

> <Gold.PLP.part.repulsive>
0.5551

> <Gold.PLP.ligand.clash>
0.0000

> <Gold.PLP.ligand.torsion>
3.0446

> <Gold.PLP.Chemscore.Hbond>
3.0000

> <Gold.PLP.Chemscore.CHOScore>
0.6791

> <Gold.PLP.Chemscore.Metal>
0.0000

> <Gold.Chemscore.Hbonds>
donor molecule, donor type, donor heavy atom, donor atom, acceptor molecule, acceptor atom, score
      L1  H    23    47       P1  7921  0.67
      P1  H  6896  6907       L1     8  0.26
      P1  H 10192 10197       L1    23  0.83

> <Gold.PLP.Chemscore.Internal.Correction>
0.9672

> <Gold.Rescore>
     Score         DG    S(hbond)    S(metal)    S(lipo)     H(rot)  DE(clash)    DE(int)     intcor
     12.92     -16.69       2.71        0.00      88.66       3.21       0.39       3.37       ----

> <Gold.Chemscore.Fitness>
12.9211

> <Gold.Chemscore.DG>
-16.6856

> <Gold.Chemscore.ZeroCoef>
-5.4800

> <Gold.Chemscore.Hbond>
2.7109

> <Gold.Chemscore.Metal>
0.0000

> <Gold.Chemscore.Lipo>
88.6562

> <Gold.Chemscore.Internal_Hbond>
0.0000

> <Gold.Chemscore.DEClash>
0.3917

> <Gold.Chemscore.DEInternal>
3.3728

> <Gold.Chemscore.Rot>
3.2115

> <Gold.Chemscore.Internal.Correction>
   9.000000E+99

> <Gold.Chemscore.Hbonds>
donor molecule, donor type, donor heavy atom, donor atom, acceptor molecule, acceptor atom, score
      L1  H    23    47       P1  7921  0.67
      P1  H  6896  6907       L1     8  0.25
      P1  H 10192 10197       L1    23  0.76

> <Gold.Chemscore.Hbond.Weighted>
-9.0544

> <Gold.Chemscore.Metal.Weighted>
-0.0000

> <Gold.Chemscore.Lipo.Weighted>
-10.3728

> <Gold.Chemscore.Internal_Hbond.Weighted>
0.0000

> <Gold.Chemscore.DEClash.Weighted>
0.3917

> <Gold.Chemscore.DEInternal.Weighted>
3.3728

> <Gold.Chemscore.Rot.Weighted>
8.2215

> <Gold.Chemscore.Internal.Correction.Weighted>
   9.000000E+99

> <Gold.Protein.RotatedTorsions>
[ 6907 6896 6895 6894 ] final -105.65 input  -60.11 | X-H torsion
[ 7974 7965 7964 7962 ] final   49.66 input  175.53 | X-H torsion
[ 8008 7997 7996 7995 ] final -171.58 input   59.86 | X-H torsion
[ 10167 10162 10161 10158 ] final -136.33 input  -65.29 | X-H torsion
[ 10718 10713 10712 10709 ] final  177.43 input   66.30 | X-H torsion
[ 10763 10752 10751 10750 ] final -125.07 input  -60.55 | X-H torsion
[ 11005 11000 10999 10996 ] final  163.85 input  -57.11 | X-H torsion

> <Gold.Protein.ActiveResidues>
 VAL166  LYS551  ARG553  GLY616  TRP617  ASP618  TYR619  PRO620  LYS621  CYS622 
 ASP623  PHE694  ASN695  SER759  ASP760  ASP761  ALA762  ILE779  LEU786  VAL792 
 PHE793  MET794  SER795  GLU796  ALA797  LYS798  CYS799  TRP800  GLU811  SER814 

> <Gold.Protein.RotatedAtoms>
  150.7347  134.0095  159.3664 H   0  0  0  0  0  0  0  0  0  0  0  0  # atno 6907 bound_to 6896
  151.8054  135.0694  160.0415 H   0  0  0  0  0  0  0  0  0  0  0  0  # atno 6908 bound_to 6896
  152.3111  133.5717  159.5717 H   0  0  0  0  0  0  0  0  0  0  0  0  # atno 6909 bound_to 6896
  146.0087  139.4519  142.9970 H   0  0  0  0  0  0  0  0  0  0  0  0  # atno 7974 bound_to 7965
  155.9334  140.1095  157.1114 H   0  0  0  0  0  0  0  0  0  0  0  0  # atno 8008 bound_to 7997
  154.4075  140.1233  156.4898 H   0  0  0  0  0  0  0  0  0  0  0  0  # atno 8009 bound_to 7997
  155.7052  140.3471  155.4952 H   0  0  0  0  0  0  0  0  0  0  0  0  # atno 8010 bound_to 7997
  139.8689  143.6983  152.2642 H   0  0  0  0  0  0  0  0  0  0  0  0  # atno 10167 bound_to 10162
  156.9054  130.9892  151.3029 H   0  0  0  0  0  0  0  0  0  0  0  0  # atno 10718 bound_to 10713
  154.8731  135.4042  154.3209 H   0  0  0  0  0  0  0  0  0  0  0  0  # atno 10763 bound_to 10752
  153.4037  135.7019  153.6413 H   0  0  0  0  0  0  0  0  0  0  0  0  # atno 10764 bound_to 10752
  153.5145  135.3700  155.2573 H   0  0  0  0  0  0  0  0  0  0  0  0  # atno 10765 bound_to 10752
  140.2400  134.8058  157.3401 H   0  0  0  0  0  0  0  0  0  0  0  0  # atno 11005 bound_to 11000
  145.7376  141.0020  143.1318 LP  0  0  0  0  0  0  0  0  0  0  0  0  # atno 17320 bound_to 7965
  144.6945  139.9060  143.7461 LP  0  0  0  0  0  0  0  0  0  0  0  0  # atno 17321 bound_to 7965
  139.7303  144.7584  151.0813 LP  0  0  0  0  0  0  0  0  0  0  0  0  # atno 17342 bound_to 10162
  140.7764  143.5097  150.9668 LP  0  0  0  0  0  0  0  0  0  0  0  0  # atno 17343 bound_to 10162
  157.6000  130.8506  149.8788 LP  0  0  0  0  0  0  0  0  0  0  0  0  # atno 17370 bound_to 10713
  156.0561  130.3708  150.1087 LP  0  0  0  0  0  0  0  0  0  0  0  0  # atno 17371 bound_to 10713
  140.1663  134.4665  155.7861 LP  0  0  0  0  0  0  0  0  0  0  0  0  # atno 17394 bound_to 11000
  141.2211  133.6922  156.7631 LP  0  0  0  0  0  0  0  0  0  0  0  0  # atno 17395 bound_to 11000

$$$$
