AV-unprocessed.smi:415|AV-procd|sdf|2522|dock5
  -GOLD-   2262022473D 1   1.00000     0.00000
 Structure written by MMmdl.
 53 54  0  0  0  0  0  0  0  0  1 V2000
  150.8387  138.0373  154.0590 C   0  0  0  0  0  0  0  0  0  0  0  0
  151.0361  139.2734  154.7219 O   0  0  0  0  0  0  0  0  0  0  0  0
  151.9614  139.1777  155.7921 C   0  0  0  0  0  0  0  0  0  0  0  0
  151.4604  139.9919  156.9966 C   0  0  0  0  0  0  0  0  0  0  0  0
  150.0252  139.8973  157.1893 N   0  0  0  0  0  0  0  0  0  0  0  0
  149.1580  140.9618  156.9597 C   0  0  0  0  0  0  0  0  0  0  0  0
  149.6618  142.1683  156.5074 N   0  0  0  0  0  0  0  0  0  0  0  0
  147.8268  140.8426  157.1593 C   0  0  0  0  0  0  0  0  0  0  0  0
  147.2273  139.5995  157.6226 C   0  0  0  0  0  0  0  0  0  0  0  0
  146.0225  139.4821  157.8478 O   0  0  0  0  0  0  0  0  0  0  0  0
  148.1218  138.5227  157.8215 N   0  0  0  0  0  0  0  0  0  0  0  0
  147.5836  137.2404  158.3373 C   0  0  0  0  0  0  0  0  0  0  0  0
  147.8047  137.0219  159.8454 C   0  0  0  0  0  0  0  0  0  0  0  0
  148.9485  137.0266  160.2978 O   0  0  0  0  0  0  0  0  0  0  0  0
  146.7166  136.8296  160.6077 N   0  0  0  0  0  0  0  0  0  0  0  0
  146.6786  136.6039  162.0489 C   0  0  2  0  0  0  0  0  0  0  0  0
  147.4587  135.3263  162.4151 C   0  0  0  0  0  0  0  0  0  0  0  0
  146.7619  134.0646  161.8846 C   0  0  0  0  0  0  0  0  0  0  0  0
  145.3126  133.9873  162.3838 C   0  0  0  0  0  0  0  0  0  0  0  0
  144.5002  135.2473  162.0184 C   0  0  1  0  0  0  0  0  0  0  0  0
  143.0581  135.1057  162.5369 C   0  0  0  0  0  0  0  0  0  0  0  0
  145.2094  136.5299  162.5402 C   0  0  2  0  0  0  0  0  0  0  0  0
  144.4415  137.8228  162.1941 C   0  0  0  0  0  0  0  0  0  0  0  0
  149.5146  138.6418  157.6081 C   0  0  0  0  0  0  0  0  0  0  0  0
  150.2562  137.6749  157.8029 O   0  0  0  0  0  0  0  0  0  0  0  0
  150.1162  138.1659  153.2529 H   0  0  0  0  0  0  0  0  0  0  0  0
  150.4504  137.2805  154.7417 H   0  0  0  0  0  0  0  0  0  0  0  0
  151.7688  137.6715  153.6221 H   0  0  0  0  0  0  0  0  0  0  0  0
  152.0666  138.1315  156.0831 H   0  0  0  0  0  0  0  0  0  0  0  0
  152.9465  139.5274  155.4792 H   0  0  0  0  0  0  0  0  0  0  0  0
  151.9649  139.7190  157.9247 H   0  0  0  0  0  0  0  0  0  0  0  0
  151.6793  141.0511  156.8639 H   0  0  0  0  0  0  0  0  0  0  0  0
  150.6480  142.3044  156.3362 H   0  0  0  0  0  0  0  0  0  0  0  0
  149.0639  142.9627  156.3301 H   0  0  0  0  0  0  0  0  0  0  0  0
  147.1804  141.6892  156.9765 H   0  0  0  0  0  0  0  0  0  0  0  0
  146.5148  137.1542  158.1353 H   0  0  0  0  0  0  0  0  0  0  0  0
  148.0176  136.3937  157.8035 H   0  0  0  0  0  0  0  0  0  0  0  0
  145.8218  136.8443  160.1402 H   0  0  0  0  0  0  0  0  0  0  0  0
  147.1588  137.4511  162.5419 H   0  0  0  0  0  0  0  0  0  0  0  0
  148.4783  135.3789  162.0310 H   0  0  0  0  0  0  0  0  0  0  0  0
  147.5479  135.2581  163.4999 H   0  0  0  0  0  0  0  0  0  0  0  0
  146.7767  134.0605  160.7940 H   0  0  0  0  0  0  0  0  0  0  0  0
  147.3111  133.1778  162.2016 H   0  0  0  0  0  0  0  0  0  0  0  0
  144.8354  133.1012  161.9638 H   0  0  0  0  0  0  0  0  0  0  0  0
  145.3117  133.8511  163.4664 H   0  0  0  0  0  0  0  0  0  0  0  0
  144.4459  135.3026  160.9299 H   0  0  0  0  0  0  0  0  0  0  0  0
  143.0250  135.1163  163.6268 H   0  0  0  0  0  0  0  0  0  0  0  0
  142.6125  134.1687  162.2015 H   0  0  0  0  0  0  0  0  0  0  0  0
  142.4167  135.9075  162.1723 H   0  0  0  0  0  0  0  0  0  0  0  0
  145.2433  136.4662  163.6290 H   0  0  0  0  0  0  0  0  0  0  0  0
  144.2418  137.9006  161.1246 H   0  0  0  0  0  0  0  0  0  0  0  0
  145.0090  138.7054  162.4898 H   0  0  0  0  0  0  0  0  0  0  0  0
  143.4857  137.8740  162.7145 H   0  0  0  0  0  0  0  0  0  0  0  0
  1  2  1  0  0  0  0
  1 26  1  0  0  0  0
  1 27  1  0  0  0  0
  1 28  1  0  0  0  0
  2  3  1  0  0  0  0
  3  4  1  0  0  0  0
  3 29  1  0  0  0  0
  3 30  1  0  0  0  0
  4  5  1  0  0  0  0
  4 31  1  0  0  0  0
  4 32  1  0  0  0  0
  5 24  1  0  0  0  0
  5  6  1  0  0  0  0
  6  7  1  0  0  0  0
  6  8  2  0  0  0  0
  7 33  1  0  0  0  0
  7 34  1  0  0  0  0
  8  9  1  0  0  0  0
  8 35  1  0  0  0  0
  9 10  2  0  0  0  0
  9 11  1  0  0  0  0
 11 12  1  0  0  0  0
 11 24  1  0  0  0  0
 12 13  1  0  0  0  0
 12 36  1  0  0  0  0
 12 37  1  0  0  0  0
 13 14  2  0  0  0  0
 13 15  1  0  0  0  0
 15 16  1  0  0  0  0
 15 38  1  0  0  0  0
 16 22  1  0  0  0  0
 16 17  1  0  0  0  0
 16 39  1  0  0  0  0
 17 18  1  0  0  0  0
 17 40  1  0  0  0  0
 17 41  1  0  0  0  0
 18 19  1  0  0  0  0
 18 42  1  0  0  0  0
 18 43  1  0  0  0  0
 19 20  1  0  0  0  0
 19 44  1  0  0  0  0
 19 45  1  0  0  0  0
 20 21  1  0  0  0  0
 20 22  1  0  0  0  0
 20 46  1  0  0  0  0
 21 47  1  0  0  0  0
 21 48  1  0  0  0  0
 21 49  1  0  0  0  0
 22 23  1  0  0  0  0
 22 50  1  0  0  0  0
 23 51  1  0  0  0  0
 23 52  1  0  0  0  0
 23 53  1  0  0  0  0
 24 25  2  0  0  0  0
M  END
> <s_m_source_file>
AV-unprocessed.smi

> <i_m_source_file_index>
415

> <i_lp_mmshare_version>
43012

> <i_f3d_flags>
0

> <s_epik_input>
W0NIM11PW0NIMl1bQ0gyXW4xYyhbTkgyXSlbY0hdYyg9TyluKGMxPU8pW0NIMl1DKD1PKVtOSF1bQ0BASF0yW0NIMl1bQ0gyXVtDSDJdW0NAQEhdKFtDSDNdKVtDQEhdMltDSDNd

> <s_epik_cmdline>
J2VwaWtfcHl0aG9uJywgJy1waCcsICc3LjAnLCAnLXRuJywgJzgnLCAnLW1hJywgJzIwMCcsICctbWV0YWxfYmluZGluZycsICctaW1hZScsICc8aW5maWxlLm1hZT4nLCAnLW9tYWUnLCAnPG91dGZpbGUubWFlPic=

> <r_lp_tautomer_probability>
1

> <r_epik_Ionization_Penalty>
8.6647e-06

> <r_epik_Ionization_Penalty_Charging>
1.81162e-08

> <r_epik_Ionization_Penalty_Neutral>
8.64658e-06

> <r_epik_State_Penalty>
-0

> <r_epik_Charging_Adjusted_Penalty>
1.81162e-08

> <i_epik_Tot_Q>
0

> <i_epik_Tot_abs_Q>
0

> <r_epik_Metal_State_Penalty>
-0

> <b_epik_Metal_Only>
0

> <s_lp_Force_Field>
OPLS_2005

> <r_lp_Energy>
19.7433

> <b_lp_Chiralities_Consistent>
1

> <s_lp_Variant>
AV-unprocessed.smi:415-5

> <Gold.Version>
5.8.1

> <Gold.Id.Protein>
6NUR|6NUR_protein|mol2

> <Gold.PLP.Fitness>
44.2410

> <Gold.PLP.PLP>
-38.2823

> <Gold.PLP.part.hbond>
-2.9933

> <Gold.PLP.part.metal>
0.0000

> <Gold.PLP.part.buried>
-8.0144

> <Gold.PLP.part.nonpolar>
-28.1343

> <Gold.PLP.part.repulsive>
0.2499

> <Gold.PLP.ligand.clash>
0.0000

> <Gold.PLP.ligand.torsion>
0.7444

> <Gold.PLP.Chemscore.Hbond>
2.4630

> <Gold.PLP.Chemscore.CHOScore>
0.0000

> <Gold.PLP.Chemscore.Metal>
0.0000

> <Gold.Chemscore.Hbonds>
donor molecule, donor type, donor heavy atom, donor atom, acceptor molecule, acceptor atom, score
      L1  H     7    34       P1  8028  0.98
      P1  H  6931  6943       L1    14  0.64
      P1  H  7989  7998       L1     2  0.84

> <Gold.PLP.Chemscore.Internal.Correction>
0.0586

> <Gold.Rescore>
     Score         DG    S(hbond)    S(metal)    S(lipo)     H(rot)  DE(clash)    DE(int)     intcor
     14.44     -16.58       2.26        0.00      79.84       2.26       0.20       1.94       ----

> <Gold.Chemscore.Fitness>
14.4391

> <Gold.Chemscore.DG>
-16.5804

> <Gold.Chemscore.ZeroCoef>
-5.4800

> <Gold.Chemscore.Hbond>
2.2625

> <Gold.Chemscore.Metal>
0.0000

> <Gold.Chemscore.Lipo>
79.8355

> <Gold.Chemscore.Internal_Hbond>
0.0000

> <Gold.Chemscore.DEClash>
0.2047

> <Gold.Chemscore.DEInternal>
1.9366

> <Gold.Chemscore.Rot>
2.2645

> <Gold.Chemscore.Internal.Correction>
   9.000000E+99

> <Gold.Chemscore.Hbonds>
donor molecule, donor type, donor heavy atom, donor atom, acceptor molecule, acceptor atom, score
      L1  H     7    34       P1  8028  0.93
      P1  H  6931  6943       L1    14  0.46
      P1  H  7989  7998       L1     2  0.49

> <Gold.Chemscore.Hbond.Weighted>
-7.5568

> <Gold.Chemscore.Metal.Weighted>
-0.0000

> <Gold.Chemscore.Lipo.Weighted>
-9.3407

> <Gold.Chemscore.Internal_Hbond.Weighted>
0.0000

> <Gold.Chemscore.DEClash.Weighted>
0.2047

> <Gold.Chemscore.DEInternal.Weighted>
1.9366

> <Gold.Chemscore.Rot.Weighted>
5.7972

> <Gold.Chemscore.Internal.Correction.Weighted>
   9.000000E+99

> <Gold.Protein.RotatedTorsions>
[ 6907 6896 6895 6894 ] final -174.49 input  -60.11 | X-H torsion
[ 7974 7965 7964 7962 ] final   44.68 input  175.53 | X-H torsion
[ 8008 7997 7996 7995 ] final  156.24 input   59.86 | X-H torsion
[ 10167 10162 10161 10158 ] final  -68.47 input  -65.29 | X-H torsion
[ 10718 10713 10712 10709 ] final -153.99 input   66.30 | X-H torsion
[ 10763 10752 10751 10750 ] final  -53.12 input  -60.55 | X-H torsion
[ 11005 11000 10999 10996 ] final  115.87 input  -57.11 | X-H torsion

> <Gold.Protein.ActiveResidues>
 VAL166  LYS551  ARG553  GLY616  TRP617  ASP618  TYR619  PRO620  LYS621  CYS622 
 ASP623  PHE694  ASN695  SER759  ASP760  ASP761  ALA762  ILE779  LEU786  VAL792 
 PHE793  MET794  SER795  GLU796  ALA797  LYS798  CYS799  TRP800  GLU811  SER814 

> <Gold.Protein.RotatedAtoms>
  151.5731  133.3387  159.2993 H   0  0  0  0  0  0  0  0  0  0  0  0  # atno 6907 bound_to 6896
  150.8356  134.7630  159.6901 H   0  0  0  0  0  0  0  0  0  0  0  0  # atno 6908 bound_to 6896
  152.4433  134.5554  159.9930 H   0  0  0  0  0  0  0  0  0  0  0  0  # atno 6909 bound_to 6896
  146.0547  139.5048  142.9696 H   0  0  0  0  0  0  0  0  0  0  0  0  # atno 7974 bound_to 7965
  156.2434  140.1918  156.6924 H   0  0  0  0  0  0  0  0  0  0  0  0  # atno 8008 bound_to 7997
  154.6241  140.0604  156.9678 H   0  0  0  0  0  0  0  0  0  0  0  0  # atno 8009 bound_to 7997
  155.1814  140.3276  155.4377 H   0  0  0  0  0  0  0  0  0  0  0  0  # atno 8010 bound_to 7997
  140.5505  143.2312  151.6921 H   0  0  0  0  0  0  0  0  0  0  0  0  # atno 10167 bound_to 10162
  156.4933  130.8357  151.2579 H   0  0  0  0  0  0  0  0  0  0  0  0  # atno 10718 bound_to 10713
  154.1537  135.6486  153.4969 H   0  0  0  0  0  0  0  0  0  0  0  0  # atno 10763 bound_to 10752
  153.0130  135.5344  154.6782 H   0  0  0  0  0  0  0  0  0  0  0  0  # atno 10764 bound_to 10752
  154.6076  135.2950  155.0438 H   0  0  0  0  0  0  0  0  0  0  0  0  # atno 10765 bound_to 10752
  139.9023  134.9590  156.7111 H   0  0  0  0  0  0  0  0  0  0  0  0  # atno 11005 bound_to 11000
  145.6664  141.0228  143.1681 LP  0  0  0  0  0  0  0  0  0  0  0  0  # atno 17320 bound_to 7965
  144.7141  139.8260  143.7404 LP  0  0  0  0  0  0  0  0  0  0  0  0  # atno 17321 bound_to 7965
  139.5025  144.3826  152.0361 LP  0  0  0  0  0  0  0  0  0  0  0  0  # atno 17342 bound_to 10162
  140.2943  144.3719  150.6079 LP  0  0  0  0  0  0  0  0  0  0  0  0  # atno 17343 bound_to 10162
  157.7471  131.0006  150.2933 LP  0  0  0  0  0  0  0  0  0  0  0  0  # atno 17370 bound_to 10713
  156.3405  130.3814  149.7413 LP  0  0  0  0  0  0  0  0  0  0  0  0  # atno 17371 bound_to 10713
  140.7075  133.9252  155.8063 LP  0  0  0  0  0  0  0  0  0  0  0  0  # atno 17394 bound_to 11000
  141.0325  134.0735  157.3997 LP  0  0  0  0  0  0  0  0  0  0  0  0  # atno 17395 bound_to 11000

$$$$
