AV-unprocessed.smi:2830|AV-procd|sdf|10906|dock8
  -GOLD-   2272015353D 1   1.00000     0.00000
 Structure written by MMmdl.
 28 28  0  0  0  0  0  0  0  0  1 V2000
  146.6440  142.6111  154.2095 C   0  0  0  0  0  0  0  0  0  0  0  0
  146.5021  141.2092  154.0618 O   0  0  0  0  0  0  0  0  0  0  0  0
  147.6298  140.6087  153.4425 C   0  0  0  0  0  0  0  0  0  0  0  0
  147.4293  139.0844  153.3482 C   0  0  2  0  0  0  0  0  0  0  0  0
  148.7323  138.4215  153.3357 N   0  0  0  0  0  0  0  0  0  0  0  0
  149.6812  138.6271  154.3495 C   0  0  0  0  0  0  0  0  0  0  0  0
  150.9861  138.1257  154.1580 C   0  0  0  0  0  0  0  0  0  0  0  0
  151.9490  138.3304  155.1654 C   0  0  0  0  0  0  0  0  0  0  0  0
  151.5748  139.0314  156.3286 C   0  0  0  0  0  0  0  0  0  0  0  0
  152.5318  139.2699  157.3950 C   0  0  0  0  0  0  0  0  0  0  0  0
  153.2942  139.4596  158.2445 N   0  0  0  0  0  0  0  0  0  0  0  0
  150.2482  139.4966  156.4304 C   0  0  0  0  0  0  0  0  0  0  0  0
  149.3215  139.3033  155.4673 N   0  0  0  0  0  0  0  0  0  0  0  0
  146.5682  138.7377  152.1219 C   0  0  0  0  0  0  0  0  0  0  0  0
  145.2916  138.4167  152.3467 N   0  0  0  0  0  0  0  0  0  0  0  0
  147.0432  138.7710  150.9876 O   0  0  0  0  0  0  0  0  0  0  0  0
  145.7573  143.0199  154.6937 H   0  0  0  0  0  0  0  0  0  0  0  0
  146.7541  143.1003  153.2410 H   0  0  0  0  0  0  0  0  0  0  0  0
  147.5081  142.8576  154.8278 H   0  0  0  0  0  0  0  0  0  0  0  0
  147.7984  141.0392  152.4533 H   0  0  0  0  0  0  0  0  0  0  0  0
  148.5155  140.8273  154.0417 H   0  0  0  0  0  0  0  0  0  0  0  0
  146.9013  138.7736  154.2515 H   0  0  0  0  0  0  0  0  0  0  0  0
  148.8377  137.6147  152.7381 H   0  0  0  0  0  0  0  0  0  0  0  0
  151.2483  137.5910  153.2565 H   0  0  0  0  0  0  0  0  0  0  0  0
  152.9543  137.9545  155.0412 H   0  0  0  0  0  0  0  0  0  0  0  0
  149.9163  140.0393  157.3039 H   0  0  0  0  0  0  0  0  0  0  0  0
  144.6886  138.1790  151.5726 H   0  0  0  0  0  0  0  0  0  0  0  0
  144.9352  138.4104  153.2914 H   0  0  0  0  0  0  0  0  0  0  0  0
  1  2  1  0  0  0  0
  1 17  1  0  0  0  0
  1 18  1  0  0  0  0
  1 19  1  0  0  0  0
  2  3  1  0  0  0  0
  3  4  1  0  0  0  0
  3 20  1  0  0  0  0
  3 21  1  0  0  0  0
  4  5  1  0  0  0  0
  4 14  1  0  0  0  0
  4 22  1  0  0  0  0
  5  6  1  0  0  0  0
  5 23  1  0  0  0  0
  6 13  1  0  0  0  0
  6  7  2  0  0  0  0
  7  8  1  0  0  0  0
  7 24  1  0  0  0  0
  8  9  2  0  0  0  0
  8 25  1  0  0  0  0
  9 10  1  0  0  0  0
  9 12  1  0  0  0  0
 10 11  3  0  0  0  0
 12 13  2  0  0  0  0
 12 26  1  0  0  0  0
 14 15  1  0  0  0  0
 14 16  2  0  0  0  0
 15 27  1  0  0  0  0
 15 28  1  0  0  0  0
M  END
> <s_m_source_file>
AV-unprocessed.smi

> <i_m_source_file_index>
2830

> <i_lp_mmshare_version>
43012

> <i_f3d_flags>
0

> <s_epik_input>
W0NIM11PW0NIMl1bQ0BASF0oQyg9TylbTkgyXSlbTkhdYzFbY0hdW2NIXWMoQyNOKVtjSF1uMQ==

> <s_epik_cmdline>
J2VwaWtfcHl0aG9uJywgJy1waCcsICc3LjAnLCAnLXRuJywgJzgnLCAnLW1hJywgJzIwMCcsICctbWV0YWxfYmluZGluZycsICctaW1hZScsICc8aW5maWxlLm1hZT4nLCAnLW9tYWUnLCAnPG91dGZpbGUubWFlPic=

> <r_lp_tautomer_probability>
1

> <r_epik_Ionization_Penalty>
4.37908e-06

> <r_epik_Ionization_Penalty_Charging>
0

> <r_epik_Ionization_Penalty_Neutral>
4.37908e-06

> <r_epik_State_Penalty>
-0

> <r_epik_Charging_Adjusted_Penalty>
0

> <i_epik_Tot_Q>
0

> <i_epik_Tot_abs_Q>
0

> <r_epik_Metal_State_Penalty>
-0

> <b_epik_Metal_Only>
0

> <s_lp_Force_Field>
OPLS_2005

> <r_lp_Energy>
0.179783

> <b_lp_Chiralities_Consistent>
1

> <s_lp_Variant>
AV-unprocessed.smi:2830-1

> <Gold.Version>
5.8.1

> <Gold.Id.Protein>
6NUR|6NUR_protein|mol2

> <Gold.PLP.Fitness>
39.2274

> <Gold.PLP.PLP>
-28.9133

> <Gold.PLP.part.hbond>
-6.0000

> <Gold.PLP.part.metal>
0.0000

> <Gold.PLP.part.buried>
-1.5760

> <Gold.PLP.part.nonpolar>
-22.5688

> <Gold.PLP.part.repulsive>
1.9813

> <Gold.PLP.ligand.clash>
0.0000

> <Gold.PLP.ligand.torsion>
0.6690

> <Gold.PLP.Chemscore.Hbond>
3.8720

> <Gold.PLP.Chemscore.CHOScore>
0.0000

> <Gold.PLP.Chemscore.Metal>
0.0000

> <Gold.Chemscore.Hbonds>
donor molecule, donor type, donor heavy atom, donor atom, acceptor molecule, acceptor atom, score
      L1  H     5    23       P1  7948  1.00
      L1  H    15    27       P1 10171  1.00
      P1  H  7954  7966       L1    16  0.90
      P1  H  7997  8010       L1    11  0.95

> <Gold.PLP.Chemscore.Internal.Correction>
0.0360

> <Gold.Rescore>
     Score         DG    S(hbond)    S(metal)    S(lipo)     H(rot)  DE(clash)    DE(int)     intcor
     14.45     -16.50       3.40        0.00      47.85       2.32       0.71       1.34       ----

> <Gold.Chemscore.Fitness>
14.4461

> <Gold.Chemscore.DG>
-16.4954

> <Gold.Chemscore.ZeroCoef>
-5.4800

> <Gold.Chemscore.Hbond>
3.3997

> <Gold.Chemscore.Metal>
0.0000

> <Gold.Chemscore.Lipo>
47.8522

> <Gold.Chemscore.Internal_Hbond>
0.0000

> <Gold.Chemscore.DEClash>
0.7089

> <Gold.Chemscore.DEInternal>
1.3403

> <Gold.Chemscore.Rot>
2.3197

> <Gold.Chemscore.Internal.Correction>
   9.000000E+99

> <Gold.Chemscore.Hbonds>
donor molecule, donor type, donor heavy atom, donor atom, acceptor molecule, acceptor atom, score
      L1  H     5    23       P1  7948  0.99
      L1  H    15    27       P1 10171  0.93
      P1  H  7954  7966       L1    16  0.88
      P1  H  7997  8010       L1    11  0.21

> <Gold.Chemscore.Hbond.Weighted>
-11.3550

> <Gold.Chemscore.Metal.Weighted>
-0.0000

> <Gold.Chemscore.Lipo.Weighted>
-5.5987

> <Gold.Chemscore.Internal_Hbond.Weighted>
0.0000

> <Gold.Chemscore.DEClash.Weighted>
0.7089

> <Gold.Chemscore.DEInternal.Weighted>
1.3403

> <Gold.Chemscore.Rot.Weighted>
5.9384

> <Gold.Chemscore.Internal.Correction.Weighted>
   9.000000E+99

> <Gold.Protein.RotatedTorsions>
[ 6907 6896 6895 6894 ] final -159.49 input  -60.11 | X-H torsion
[ 7974 7965 7964 7962 ] final    5.34 input  175.53 | X-H torsion
[ 8008 7997 7996 7995 ] final   20.17 input   59.86 | X-H torsion
[ 10167 10162 10161 10158 ] final -160.72 input  -65.29 | X-H torsion
[ 10718 10713 10712 10709 ] final  -59.90 input   66.30 | X-H torsion
[ 10763 10752 10751 10750 ] final    4.70 input  -60.55 | X-H torsion
[ 11005 11000 10999 10996 ] final -173.26 input  -57.11 | X-H torsion

> <Gold.Protein.ActiveResidues>
 VAL166  LYS551  ARG553  GLY616  TRP617  ASP618  TYR619  PRO620  LYS621  CYS622 
 ASP623  PHE694  ASN695  SER759  ASP760  ASP761  ALA762  ILE779  LEU786  VAL792 
 PHE793  MET794  SER795  GLU796  ALA797  LYS798  CYS799  TRP800  GLU811  SER814 

> <Gold.Protein.RotatedAtoms>
  151.3344  133.3988  159.2665 H   0  0  0  0  0  0  0  0  0  0  0  0  # atno 6907 bound_to 6896
  150.9929  134.9261  159.7920 H   0  0  0  0  0  0  0  0  0  0  0  0  # atno 6908 bound_to 6896
  152.5253  134.3308  159.9234 H   0  0  0  0  0  0  0  0  0  0  0  0  # atno 6909 bound_to 6896
  146.2441  140.0399  142.8383 H   0  0  0  0  0  0  0  0  0  0  0  0  # atno 7974 bound_to 7965
  154.9316  140.3041  155.5165 H   0  0  0  0  0  0  0  0  0  0  0  0  # atno 8008 bound_to 7997
  156.3003  140.2353  156.4313 H   0  0  0  0  0  0  0  0  0  0  0  0  # atno 8009 bound_to 7997
  154.8232  140.0422  157.1414 H   0  0  0  0  0  0  0  0  0  0  0  0  # atno 8010 bound_to 7997
  139.6518  144.0070  152.2167 H   0  0  0  0  0  0  0  0  0  0  0  0  # atno 10167 bound_to 10162
  156.1028  130.4184  150.0779 H   0  0  0  0  0  0  0  0  0  0  0  0  # atno 10718 bound_to 10713
  153.2682  135.6929  153.7508 H   0  0  0  0  0  0  0  0  0  0  0  0  # atno 10763 bound_to 10752
  153.6542  135.3371  155.3109 H   0  0  0  0  0  0  0  0  0  0  0  0  # atno 10764 bound_to 10752
  154.8454  135.4461  154.1695 H   0  0  0  0  0  0  0  0  0  0  0  0  # atno 10765 bound_to 10752
  140.4877  134.6014  157.4943 H   0  0  0  0  0  0  0  0  0  0  0  0  # atno 11005 bound_to 11000
  145.1078  140.9386  143.4674 LP  0  0  0  0  0  0  0  0  0  0  0  0  # atno 17320 bound_to 7965
  145.0606  139.3108  143.5882 LP  0  0  0  0  0  0  0  0  0  0  0  0  # atno 17321 bound_to 7965
  139.9786  144.6444  150.7922 LP  0  0  0  0  0  0  0  0  0  0  0  0  # atno 17342 bound_to 10162
  140.7541  143.3021  151.3054 LP  0  0  0  0  0  0  0  0  0  0  0  0  # atno 17343 bound_to 10162
  156.8762  130.9541  151.3604 LP  0  0  0  0  0  0  0  0  0  0  0  0  # atno 17370 bound_to 10713
  157.6201  130.8649  149.9094 LP  0  0  0  0  0  0  0  0  0  0  0  0  # atno 17371 bound_to 10713
  139.9788  134.7172  155.9899 LP  0  0  0  0  0  0  0  0  0  0  0  0  # atno 17394 bound_to 11000
  141.1499  133.6550  156.3982 LP  0  0  0  0  0  0  0  0  0  0  0  0  # atno 17395 bound_to 11000

$$$$
