AV-unprocessed.smi:2520|AV-procd|sdf|9908|dock2
  -GOLD-   2272013543D 1   1.00000     0.00000
 Structure written by MMmdl.
 41 44  0  0  0  0  0  0  0  0  1 V2000
  145.9016  137.0750  154.8591 O   0  0  0  0  0  0  0  0  0  0  0  0
  146.8356  136.7651  154.1218 C   0  0  0  0  0  0  0  0  0  0  0  0
  146.6573  135.9154  153.0874 N   0  0  0  0  0  0  0  0  0  0  0  0
  145.4975  135.2282  152.6207 C   0  0  0  0  0  0  0  0  0  0  0  0
  145.7090  134.4133  151.4877 C   0  0  0  0  0  0  0  0  0  0  0  0
  144.6193  133.6965  150.9646 C   0  0  0  0  0  0  0  0  0  0  0  0
  143.3816  133.8428  151.6134 C   0  0  0  0  0  0  0  0  0  0  0  0
  143.2211  134.6336  152.6961 N   0  0  0  0  0  0  0  0  0  0  0  0
  144.2639  135.3109  153.1872 N   0  0  0  0  0  0  0  0  0  0  0  0
  148.0779  137.2423  154.2867 N   0  0  0  0  0  0  0  0  0  0  0  0
  148.5008  138.1849  155.3268 C   0  0  1  0  0  0  0  0  0  0  0  0
  150.0192  138.2187  155.5064 C   0  0  1  0  0  0  0  0  0  0  0  0
  151.1423  137.3053  155.1711 C   0  0  0  0  0  0  0  0  0  0  0  0
  152.1286  138.3870  154.6571 C   0  0  0  0  0  0  0  0  0  0  0  0
  151.3609  139.6138  154.5628 O   0  0  0  0  0  0  0  0  0  0  0  0
  150.0359  139.1752  154.3309 C   0  0  2  0  0  0  0  0  0  0  0  0
  148.6682  139.6807  154.8491 C   0  0  0  0  0  0  0  0  0  0  0  0
  147.6858  140.2188  153.8030 C   0  0  0  0  0  0  0  0  0  0  0  0
  147.6129  141.7313  153.9823 C   0  0  0  0  0  0  0  0  0  0  0  0
  147.7688  141.9204  155.4843 C   0  0  0  0  0  0  0  0  0  0  0  0
  148.6995  140.7874  155.9237 C   0  0  0  0  0  0  0  0  0  0  0  0
  147.4969  135.7166  152.5632 H   0  0  0  0  0  0  0  0  0  0  0  0
  146.6836  134.3364  151.0277 H   0  0  0  0  0  0  0  0  0  0  0  0
  144.7281  133.0588  150.0999 H   0  0  0  0  0  0  0  0  0  0  0  0
  142.5061  133.3181  151.2602 H   0  0  0  0  0  0  0  0  0  0  0  0
  148.7876  136.9365  153.6362 H   0  0  0  0  0  0  0  0  0  0  0  0
  147.9616  138.0820  156.2699 H   0  0  0  0  0  0  0  0  0  0  0  0
  150.2391  138.7227  156.4533 H   0  0  0  0  0  0  0  0  0  0  0  0
  151.5238  136.7649  156.0376 H   0  0  0  0  0  0  0  0  0  0  0  0
  150.8758  136.5916  154.3901 H   0  0  0  0  0  0  0  0  0  0  0  0
  152.9670  138.5316  155.3390 H   0  0  0  0  0  0  0  0  0  0  0  0
  152.5290  138.1132  153.6802 H   0  0  0  0  0  0  0  0  0  0  0  0
  149.9625  138.6915  153.3513 H   0  0  0  0  0  0  0  0  0  0  0  0
  147.9733  139.9554  152.7846 H   0  0  0  0  0  0  0  0  0  0  0  0
  146.6945  139.7962  153.9703 H   0  0  0  0  0  0  0  0  0  0  0  0
  148.4470  142.2042  153.4622 H   0  0  0  0  0  0  0  0  0  0  0  0
  146.6876  142.1593  153.5957 H   0  0  0  0  0  0  0  0  0  0  0  0
  148.1528  142.9070  155.7458 H   0  0  0  0  0  0  0  0  0  0  0  0
  146.7979  141.8032  155.9677 H   0  0  0  0  0  0  0  0  0  0  0  0
  148.4056  140.4140  156.9052 H   0  0  0  0  0  0  0  0  0  0  0  0
  149.7111  141.1807  156.0323 H   0  0  0  0  0  0  0  0  0  0  0  0
  1  2  2  0  0  0  0
  2  3  1  0  0  0  0
  2 10  1  0  0  0  0
  3  4  1  0  0  0  0
  3 22  1  0  0  0  0
  4  9  1  0  0  0  0
  4  5  2  0  0  0  0
  5  6  1  0  0  0  0
  5 23  1  0  0  0  0
  6  7  2  0  0  0  0
  6 24  1  0  0  0  0
  7  8  1  0  0  0  0
  7 25  1  0  0  0  0
  8  9  2  0  0  0  0
 10 11  1  0  0  0  0
 10 26  1  0  0  0  0
 11 17  1  0  0  0  0
 11 12  1  0  0  0  0
 11 27  1  0  0  0  0
 12 16  1  0  0  0  0
 12 13  1  0  0  0  0
 12 28  1  0  0  0  0
 13 14  1  0  0  0  0
 13 29  1  0  0  0  0
 13 30  1  0  0  0  0
 14 15  1  0  0  0  0
 14 31  1  0  0  0  0
 14 32  1  0  0  0  0
 15 16  1  0  0  0  0
 16 17  1  0  0  0  0
 16 33  1  0  0  0  0
 17 21  1  0  0  0  0
 17 18  1  0  0  0  0
 18 19  1  0  0  0  0
 18 34  1  0  0  0  0
 18 35  1  0  0  0  0
 19 20  1  0  0  0  0
 19 36  1  0  0  0  0
 19 37  1  0  0  0  0
 20 21  1  0  0  0  0
 20 38  1  0  0  0  0
 20 39  1  0  0  0  0
 21 40  1  0  0  0  0
 21 41  1  0  0  0  0
M  END
> <s_m_source_file>
AV-unprocessed.smi

> <i_m_source_file_index>
2520

> <i_lp_mmshare_version>
43012

> <i_f3d_flags>
0

> <s_epik_input>
bjFuW2NIXVtjSF1bY0hdYzFbTkhdQyg9TylbTkhdW0NAQEhdMltDQEBIXShbQ0gyXVtDSDJdTzMpW0NASF0zQzI0W0NIMl1bQ0gyXVtDSDJdW0NIMl00

> <s_epik_cmdline>
J2VwaWtfcHl0aG9uJywgJy1waCcsICc3LjAnLCAnLXRuJywgJzgnLCAnLW1hJywgJzIwMCcsICctbWV0YWxfYmluZGluZycsICctaW1hZScsICc8aW5maWxlLm1hZT4nLCAnLW9tYWUnLCAnPG91dGZpbGUubWFlPic=

> <r_lp_tautomer_probability>
1

> <r_epik_Ionization_Penalty>
0.00552561

> <r_epik_Ionization_Penalty_Charging>
0

> <r_epik_Ionization_Penalty_Neutral>
0.00552561

> <r_epik_State_Penalty>
-0

> <r_epik_Charging_Adjusted_Penalty>
0

> <i_epik_Tot_Q>
0

> <i_epik_Tot_abs_Q>
0

> <r_epik_Metal_State_Penalty>
-0

> <b_epik_Metal_Only>
0

> <s_lp_Force_Field>
OPLS_2005

> <r_lp_Energy>
86.562

> <b_lp_Chiralities_Consistent>
1

> <s_lp_Variant>
AV-unprocessed.smi:2520-2

> <Gold.Version>
5.8.1

> <Gold.Id.Protein>
6NUR|6NUR_protein|mol2

> <Gold.PLP.Fitness>
38.4537

> <Gold.PLP.PLP>
-27.7861

> <Gold.PLP.part.hbond>
-3.0000

> <Gold.PLP.part.metal>
0.0000

> <Gold.PLP.part.buried>
-2.6209

> <Gold.PLP.part.nonpolar>
-23.1740

> <Gold.PLP.part.repulsive>
0.3481

> <Gold.PLP.ligand.clash>
0.0000

> <Gold.PLP.ligand.torsion>
0.2356

> <Gold.PLP.Chemscore.Hbond>
2.8320

> <Gold.PLP.Chemscore.CHOScore>
0.7881

> <Gold.PLP.Chemscore.Metal>
0.0000

> <Gold.Chemscore.Hbonds>
donor molecule, donor type, donor heavy atom, donor atom, acceptor molecule, acceptor atom, score
      L1  H     3    22       P1  7948  1.00
      L1  H    10    26       P1  7948  0.83
      P1  H  7989  7998       L1    15  1.00
      L1  C     7    25       P1 10186  0.79

> <Gold.PLP.Chemscore.Internal.Correction>
0.2787

> <Gold.Rescore>
     Score         DG    S(hbond)    S(metal)    S(lipo)     H(rot)  DE(clash)    DE(int)     intcor
     19.41     -21.06       2.85        0.00      73.71       1.00       0.20       1.45       ----

> <Gold.Chemscore.Fitness>
19.4134

> <Gold.Chemscore.DG>
-21.0607

> <Gold.Chemscore.ZeroCoef>
-5.4800

> <Gold.Chemscore.Hbond>
2.8493

> <Gold.Chemscore.Metal>
0.0000

> <Gold.Chemscore.Lipo>
73.7097

> <Gold.Chemscore.Internal_Hbond>
0.0000

> <Gold.Chemscore.DEClash>
0.2010

> <Gold.Chemscore.DEInternal>
1.4462

> <Gold.Chemscore.Rot>
1.0000

> <Gold.Chemscore.Internal.Correction>
   9.000000E+99

> <Gold.Chemscore.Hbonds>
donor molecule, donor type, donor heavy atom, donor atom, acceptor molecule, acceptor atom, score
      L1  H     3    22       P1  7948  0.96
      L1  H    10    26       P1  7948  0.81
      P1  H  7989  7998       L1    15  0.60

> <Gold.Chemscore.Hbond.Weighted>
-9.5166

> <Gold.Chemscore.Metal.Weighted>
-0.0000

> <Gold.Chemscore.Lipo.Weighted>
-8.6240

> <Gold.Chemscore.Internal_Hbond.Weighted>
0.0000

> <Gold.Chemscore.DEClash.Weighted>
0.2010

> <Gold.Chemscore.DEInternal.Weighted>
1.4462

> <Gold.Chemscore.Rot.Weighted>
2.5600

> <Gold.Chemscore.Internal.Correction.Weighted>
   9.000000E+99

> <Gold.Protein.RotatedTorsions>
[ 6907 6896 6895 6894 ] final  -56.83 input  -60.11 | X-H torsion
[ 7974 7965 7964 7962 ] final  175.19 input  175.53 | X-H torsion
[ 8008 7997 7996 7995 ] final   44.93 input   59.86 | X-H torsion
[ 10167 10162 10161 10158 ] final   10.17 input  -65.29 | X-H torsion
[ 10718 10713 10712 10709 ] final -100.21 input   66.30 | X-H torsion
[ 10763 10752 10751 10750 ] final  -12.22 input  -60.55 | X-H torsion
[ 11005 11000 10999 10996 ] final  117.84 input  -57.11 | X-H torsion

> <Gold.Protein.ActiveResidues>
 VAL166  LYS551  ARG553  GLY616  TRP617  ASP618  TYR619  PRO620  LYS621  CYS622 
 ASP623  PHE694  ASN695  SER759  ASP760  ASP761  ALA762  ILE779  LEU786  VAL792 
 PHE793  MET794  SER795  GLU796  ALA797  LYS798  CYS799  TRP800  GLU811  SER814 

> <Gold.Protein.RotatedAtoms>
  150.8135  134.7303  159.6708 H   0  0  0  0  0  0  0  0  0  0  0  0  # atno 6907 bound_to 6896
  152.4254  134.5874  159.9974 H   0  0  0  0  0  0  0  0  0  0  0  0  # atno 6908 bound_to 6896
  151.6077  133.3313  159.3097 H   0  0  0  0  0  0  0  0  0  0  0  0  # atno 6909 bound_to 6896
  144.7206  139.9910  143.6440 H   0  0  0  0  0  0  0  0  0  0  0  0  # atno 7974 bound_to 7965
  155.3274  140.3400  155.4240 H   0  0  0  0  0  0  0  0  0  0  0  0  # atno 8008 bound_to 7997
  156.1878  140.1687  156.8187 H   0  0  0  0  0  0  0  0  0  0  0  0  # atno 8009 bound_to 7997
  154.5407  140.0725  156.8488 H   0  0  0  0  0  0  0  0  0  0  0  0  # atno 8010 bound_to 7997
  140.6210  143.8204  150.7175 H   0  0  0  0  0  0  0  0  0  0  0  0  # atno 10167 bound_to 10162
  156.0156  130.5317  150.6784 H   0  0  0  0  0  0  0  0  0  0  0  0  # atno 10718 bound_to 10713
  153.4952  135.7017  153.5862 H   0  0  0  0  0  0  0  0  0  0  0  0  # atno 10763 bound_to 10752
  153.4017  135.3870  155.1992 H   0  0  0  0  0  0  0  0  0  0  0  0  # atno 10764 bound_to 10752
  154.8714  135.3883  154.4417 H   0  0  0  0  0  0  0  0  0  0  0  0  # atno 10765 bound_to 10752
  139.9088  134.9614  156.7412 H   0  0  0  0  0  0  0  0  0  0  0  0  # atno 11005 bound_to 11000
  146.0412  139.3423  143.0696 LP  0  0  0  0  0  0  0  0  0  0  0  0  # atno 17320 bound_to 7965
  145.8332  140.9619  143.0838 LP  0  0  0  0  0  0  0  0  0  0  0  0  # atno 17321 bound_to 7965
  140.1794  143.4127  152.1944 LP  0  0  0  0  0  0  0  0  0  0  0  0  # atno 17342 bound_to 10162
  139.5439  144.7281  151.4646 LP  0  0  0  0  0  0  0  0  0  0  0  0  # atno 17343 bound_to 10162
  157.4492  131.0870  151.0864 LP  0  0  0  0  0  0  0  0  0  0  0  0  # atno 17370 bound_to 10713
  157.1385  130.6133  149.5548 LP  0  0  0  0  0  0  0  0  0  0  0  0  # atno 17371 bound_to 10713
  140.6848  133.9442  155.7931 LP  0  0  0  0  0  0  0  0  0  0  0  0  # atno 17394 bound_to 11000
  141.0484  134.0520  157.3814 LP  0  0  0  0  0  0  0  0  0  0  0  0  # atno 17395 bound_to 11000

$$$$
