AV-unprocessed.smi:1808|AV-procd|sdf|7308|dock2
  -GOLD-   22720 8563D 1   1.00000     0.00000
 Structure written by MMmdl.
 27 28  0  0  0  0  0  0  0  0  2 V2000
  151.0224  140.3222  158.3755 O   0  0  0  0  0  0  0  0  0  0  0  0
  152.2321  140.1817  158.1814 C   0  0  0  0  0  0  0  0  0  0  0  0
  153.1098  140.8716  158.9213 N   0  0  0  0  0  0  0  0  0  0  0  0
  152.7603  141.8076  159.9814 C   0  0  0  0  0  0  0  0  0  0  0  0
  152.7570  143.2478  159.4517 C   0  0  1  0  0  0  0  0  0  0  0  0
  151.8302  143.4662  158.2587 C   0  0  0  0  0  0  0  0  0  0  0  0
  151.5436  144.9581  158.3102 C   0  0  0  0  0  0  0  0  0  0  0  0
  151.9005  145.3567  159.7459 C   0  0  0  0  0  0  0  0  0  0  0  0
  152.2154  144.1412  160.4119 O   0  0  0  0  0  0  0  0  0  0  0  0
  152.8088  139.3711  157.2649 N   0  5  0  0  0  0  0  0  0  0  0  0
  152.1497  139.0544  156.1385 C   0  0  0  0  0  0  0  0  0  0  0  0
  152.4309  137.9692  155.4080 N   0  0  0  0  0  0  0  0  0  0  0  0
  151.6171  137.8318  154.2820 C   0  0  0  0  0  0  0  0  0  0  0  0
  150.6884  138.8306  154.1572 C   0  0  0  0  0  0  0  0  0  0  0  0
  150.8093  139.9807  155.4580 S   0  0  0  0  0  0  0  0  0  0  0  0
  154.0921  140.7285  158.7388 H   0  0  0  0  0  0  0  0  0  0  0  0
  151.7715  141.5516  160.3643 H   0  0  0  0  0  0  0  0  0  0  0  0
  153.4642  141.7096  160.8094 H   0  0  0  0  0  0  0  0  0  0  0  0
  153.7698  143.5656  159.1962 H   0  0  0  0  0  0  0  0  0  0  0  0
  152.2741  143.1496  157.3145 H   0  0  0  0  0  0  0  0  0  0  0  0
  150.9013  142.9110  158.3977 H   0  0  0  0  0  0  0  0  0  0  0  0
  152.1668  145.5022  157.5997 H   0  0  0  0  0  0  0  0  0  0  0  0
  150.5005  145.1695  158.0731 H   0  0  0  0  0  0  0  0  0  0  0  0
  152.7738  146.0104  159.7568 H   0  0  0  0  0  0  0  0  0  0  0  0
  151.0838  145.8724  160.2512 H   0  0  0  0  0  0  0  0  0  0  0  0
  151.7682  136.9898  153.6230 H   0  0  0  0  0  0  0  0  0  0  0  0
  149.9443  138.9593  153.3860 H   0  0  0  0  0  0  0  0  0  0  0  0
  1  2  2  0  0  0  0
  2  3  1  0  0  0  0
  2 10  1  0  0  0  0
  3  4  1  0  0  0  0
  3 16  1  0  0  0  0
  4  5  1  0  0  0  0
  4 17  1  0  0  0  0
  4 18  1  0  0  0  0
  5  9  1  0  0  0  0
  5  6  1  0  0  0  0
  5 19  1  0  0  0  0
  6  7  1  0  0  0  0
  6 20  1  0  0  0  0
  6 21  1  0  0  0  0
  7  8  1  0  0  0  0
  7 22  1  0  0  0  0
  7 23  1  0  0  0  0
  8  9  1  0  0  0  0
  8 24  1  0  0  0  0
  8 25  1  0  0  0  0
 10 11  1  0  0  0  0
 11 15  1  0  0  0  0
 11 12  2  0  0  0  0
 12 13  1  0  0  0  0
 13 14  2  0  0  0  0
 13 26  1  0  0  0  0
 14 15  1  0  0  0  0
 14 27  1  0  0  0  0
M  CHG  1  10  -1
M  END
> <s_m_source_file>
AV-unprocessed.smi

> <i_m_source_file_index>
1808

> <i_lp_mmshare_version>
43012

> <i_f3d_flags>
0

> <s_epik_input>
czFbY0hdW2NIXW5jMVtOSF1DKD1PKVtOSF1bQ0gyXVtDQEBIXTJbQ0gyXVtDSDJdW0NIMl1PMg==

> <s_epik_cmdline>
J2VwaWtfcHl0aG9uJywgJy1waCcsICc3LjAnLCAnLXRuJywgJzgnLCAnLW1hJywgJzIwMCcsICctbWV0YWxfYmluZGluZycsICctaW1hZScsICc8aW5maWxlLm1hZT4nLCAnLW9tYWUnLCAnPG91dGZpbGUubWFlPic=

> <r_lp_tautomer_probability>
0.999

> <r_epik_Ionization_Penalty>
8.26346

> <r_epik_Ionization_Penalty_Charging>
6.6559

> <r_epik_Ionization_Penalty_Neutral>
1.60756

> <r_epik_State_Penalty>
6.65607

> <r_epik_Charging_Adjusted_Penalty>
13.312

> <i_epik_Tot_Q>
-1

> <i_epik_Tot_abs_Q>
1

> <r_epik_Metal_State_Penalty>
2.5789

> <b_epik_Metal_Only>
1

> <s_lp_Force_Field>
OPLS_2005

> <r_lp_Energy>
13.0287

> <b_lp_Chiralities_Consistent>
1

> <s_lp_Variant>
AV-unprocessed.smi:1808-4

> <Gold.Version>
5.8.1

> <Gold.Id.Protein>
6NUR|6NUR_protein|mol2

> <Gold.PLP.Fitness>
45.9352

> <Gold.PLP.PLP>
-34.7845

> <Gold.PLP.part.hbond>
-1.2558

> <Gold.PLP.part.metal>
0.0000

> <Gold.PLP.part.buried>
-5.0678

> <Gold.PLP.part.nonpolar>
-28.4665

> <Gold.PLP.part.repulsive>
0.1804

> <Gold.PLP.ligand.clash>
0.0000

> <Gold.PLP.ligand.torsion>
0.4480

> <Gold.PLP.Chemscore.Hbond>
2.0000

> <Gold.PLP.Chemscore.CHOScore>
2.0000

> <Gold.PLP.Chemscore.Metal>
0.0000

> <Gold.Chemscore.Hbonds>
donor molecule, donor type, donor heavy atom, donor atom, acceptor molecule, acceptor atom, score
      P1  H  7997  8010       L1    10  2.00
      L1  C    13    26       P1  7949  1.00
      L1  C    14    27       P1  7957  1.00

> <Gold.PLP.Chemscore.Internal.Correction>
0.0466

> <Gold.Rescore>
     Score         DG    S(hbond)    S(metal)    S(lipo)     H(rot)  DE(clash)    DE(int)     intcor
     13.01     -14.77       0.91        0.00      81.79       1.30       0.15       1.61       ----

> <Gold.Chemscore.Fitness>
13.0065

> <Gold.Chemscore.DG>
-14.7680

> <Gold.Chemscore.ZeroCoef>
-5.4800

> <Gold.Chemscore.Hbond>
0.9122

> <Gold.Chemscore.Metal>
0.0000

> <Gold.Chemscore.Lipo>
81.7893

> <Gold.Chemscore.Internal_Hbond>
0.0000

> <Gold.Chemscore.DEClash>
0.1509

> <Gold.Chemscore.DEInternal>
1.6106

> <Gold.Chemscore.Rot>
1.3000

> <Gold.Chemscore.Internal.Correction>
   9.000000E+99

> <Gold.Chemscore.Hbonds>
donor molecule, donor type, donor heavy atom, donor atom, acceptor molecule, acceptor atom, score
      P1  H  7997  8010       L1    10  0.35

> <Gold.Chemscore.Hbond.Weighted>
-3.0467

> <Gold.Chemscore.Metal.Weighted>
-0.0000

> <Gold.Chemscore.Lipo.Weighted>
-9.5694

> <Gold.Chemscore.Internal_Hbond.Weighted>
0.0000

> <Gold.Chemscore.DEClash.Weighted>
0.1509

> <Gold.Chemscore.DEInternal.Weighted>
1.6106

> <Gold.Chemscore.Rot.Weighted>
3.3280

> <Gold.Chemscore.Internal.Correction.Weighted>
   9.000000E+99

> <Gold.Protein.RotatedTorsions>
[ 6907 6896 6895 6894 ] final -162.43 input  -60.11 | X-H torsion
[ 7974 7965 7964 7962 ] final  -70.23 input  175.53 | X-H torsion
[ 8008 7997 7996 7995 ] final   59.04 input   59.86 | X-H torsion
[ 10167 10162 10161 10158 ] final  138.14 input  -65.29 | X-H torsion
[ 10718 10713 10712 10709 ] final -150.79 input   66.30 | X-H torsion
[ 10763 10752 10751 10750 ] final   24.42 input  -60.55 | X-H torsion
[ 11005 11000 10999 10996 ] final -152.17 input  -57.11 | X-H torsion

> <Gold.Protein.ActiveResidues>
 VAL166  LYS551  ARG553  GLY616  TRP617  ASP618  TYR619  PRO620  LYS621  CYS622 
 ASP623  PHE694  ASN695  SER759  ASP760  ASP761  ALA762  ILE779  LEU786  VAL792 
 PHE793  MET794  SER795  GLU796  ALA797  LYS798  CYS799  TRP800  GLU811  SER814 

> <Gold.Protein.RotatedAtoms>
  151.3801  133.3824  159.2708 H   0  0  0  0  0  0  0  0  0  0  0  0  # atno 6907 bound_to 6896
  150.9584  134.8976  159.7726 H   0  0  0  0  0  0  0  0  0  0  0  0  # atno 6908 bound_to 6896
  152.5140  134.3759  159.9386 H   0  0  0  0  0  0  0  0  0  0  0  0  # atno 6909 bound_to 6896
  145.6936  140.9143  143.0768 H   0  0  0  0  0  0  0  0  0  0  0  0  # atno 7974 bound_to 7965
  155.5597  140.3488  155.4488 H   0  0  0  0  0  0  0  0  0  0  0  0  # atno 8008 bound_to 7997
  156.0523  140.1320  157.0062 H   0  0  0  0  0  0  0  0  0  0  0  0  # atno 8009 bound_to 7997
  154.4440  140.1002  156.6379 H   0  0  0  0  0  0  0  0  0  0  0  0  # atno 8010 bound_to 7997
  139.5121  144.6370  151.5669 H   0  0  0  0  0  0  0  0  0  0  0  0  # atno 10167 bound_to 10162
  156.4507  130.8166  151.2397 H   0  0  0  0  0  0  0  0  0  0  0  0  # atno 10718 bound_to 10713
  153.0765  135.6605  154.0134 H   0  0  0  0  0  0  0  0  0  0  0  0  # atno 10763 bound_to 10752
  153.9767  135.2959  155.3425 H   0  0  0  0  0  0  0  0  0  0  0  0  # atno 10764 bound_to 10752
  154.7155  135.5187  153.8801 H   0  0  0  0  0  0  0  0  0  0  0  0  # atno 10765 bound_to 10752
  140.7218  134.3719  157.5182 H   0  0  0  0  0  0  0  0  0  0  0  0  # atno 11005 bound_to 11000
  144.6989  139.8855  143.7450 LP  0  0  0  0  0  0  0  0  0  0  0  0  # atno 17320 bound_to 7965
  146.0860  139.3848  143.0435 LP  0  0  0  0  0  0  0  0  0  0  0  0  # atno 17321 bound_to 7965
  140.6123  143.9413  150.6462 LP  0  0  0  0  0  0  0  0  0  0  0  0  # atno 17342 bound_to 10162
  140.2660  143.3490  152.1281 LP  0  0  0  0  0  0  0  0  0  0  0  0  # atno 17343 bound_to 10162
  157.7503  131.0138  150.3441 LP  0  0  0  0  0  0  0  0  0  0  0  0  # atno 17370 bound_to 10713
  156.3819  130.3882  149.7095 LP  0  0  0  0  0  0  0  0  0  0  0  0  # atno 17371 bound_to 10713
  139.8846  134.8960  156.2691 LP  0  0  0  0  0  0  0  0  0  0  0  0  # atno 17394 bound_to 11000
  140.9997  133.7159  156.0941 LP  0  0  0  0  0  0  0  0  0  0  0  0  # atno 17395 bound_to 11000

$$$$
