AV-unprocessed.smi:72|AV-procd|sdf|709|dock7
  -GOLD-   2262017 33D 1   1.00000     0.00000
 Structure written by MMmdl.
 30 31  0  0  0  0  0  0  0  0  2 V2000
  141.6200  136.3604  155.5161 N   0  0  0  0  0  0  0  0  0  0  0  0
  142.4691  136.1577  154.4481 C   0  0  0  0  0  0  0  0  0  0  0  0
  142.3057  135.0001  153.7083 N   0  3  0  0  0  0  0  0  0  0  0  0
  143.0408  134.6564  152.6420 C   0  0  0  0  0  0  0  0  0  0  0  0
  144.0026  135.4631  152.2417 N   0  0  0  0  0  0  0  0  0  0  0  0
  144.8758  135.1286  151.0572 C   0  0  2  0  0  0  0  0  0  0  0  0
  144.0760  134.5496  150.0687 O   0  0  0  0  0  0  0  0  0  0  0  0
  144.3573  133.1562  149.9597 C   0  0  1  0  0  0  0  0  0  0  0  0
  143.9821  132.6579  148.5559 C   0  0  0  0  0  0  0  0  0  0  0  0
  142.6808  132.1114  148.5735 O   0  0  0  0  0  0  0  0  0  0  0  0
  145.8575  133.1237  150.2468 C   0  0  2  0  0  0  0  0  0  0  0  0
  146.3413  131.8304  150.5578 O   0  0  0  0  0  0  0  0  0  0  0  0
  145.9897  134.1125  151.3999 C   0  0  2  0  0  0  0  0  0  0  0  0
  145.8094  133.4813  152.6600 O   0  0  0  0  0  0  0  0  0  0  0  0
  144.2539  136.6693  152.9447 C   0  0  0  0  0  0  0  0  0  0  0  0
  145.1632  137.4188  152.5901 O   0  0  0  0  0  0  0  0  0  0  0  0
  143.4276  136.9447  154.0440 N   0  0  0  0  0  0  0  0  0  0  0  0
  145.2490  136.0797  150.6737 H   0  0  0  0  0  0  0  0  0  0  0  0
  143.8248  132.5983  150.7323 H   0  0  0  0  0  0  0  0  0  0  0  0
  146.4010  133.5053  149.3807 H   0  0  0  0  0  0  0  0  0  0  0  0
  146.9596  134.6114  151.3942 H   0  0  0  0  0  0  0  0  0  0  0  0
  141.6654  137.1759  156.1110 H   0  0  0  0  0  0  0  0  0  0  0  0
  140.8920  135.7157  155.7881 H   0  0  0  0  0  0  0  0  0  0  0  0
  142.8299  133.7254  152.1337 H   0  0  0  0  0  0  0  0  0  0  0  0
  144.0501  133.4571  147.8172 H   0  0  0  0  0  0  0  0  0  0  0  0
  144.6645  131.8673  148.2425 H   0  0  0  0  0  0  0  0  0  0  0  0
  142.0705  132.7963  148.8014 H   0  0  0  0  0  0  0  0  0  0  0  0
  147.2550  131.7849  150.3198 H   0  0  0  0  0  0  0  0  0  0  0  0
  146.5430  133.7036  153.2135 H   0  0  0  0  0  0  0  0  0  0  0  0
  141.5746  134.3660  153.9971 H   0  0  0  0  0  0  0  0  0  0  0  0
  1  2  1  0  0  0  0
  1 22  1  0  0  0  0
  1 23  1  0  0  0  0
  2 17  2  0  0  0  0
  2  3  1  0  0  0  0
  3  4  2  0  0  0  0
  3 30  1  0  0  0  0
  4  5  1  0  0  0  0
  4 24  1  0  0  0  0
  5  6  1  0  0  0  0
  5 15  1  0  0  0  0
  6 18  1  0  0  0  0
  6 13  1  0  0  0  0
  6  7  1  0  0  0  0
  7  8  1  0  0  0  0
  8 19  1  0  0  0  0
  8  9  1  0  0  0  0
  8 11  1  0  0  0  0
  9 10  1  0  0  0  0
  9 25  1  0  0  0  0
  9 26  1  0  0  0  0
 10 27  1  0  0  0  0
 11 20  1  0  0  0  0
 11 12  1  0  0  0  0
 11 13  1  0  0  0  0
 12 28  1  0  0  0  0
 13 21  1  0  0  0  0
 13 14  1  0  0  0  0
 14 29  1  0  0  0  0
 15 16  2  0  0  0  0
 15 17  1  0  0  0  0
M  CHG  1   3   1
M  END
> <s_m_source_file>
AV-unprocessed.smi

> <i_m_source_file_index>
72

> <i_lp_mmshare_version>
43012

> <i_f3d_flags>
0

> <s_epik_input>
W05IMl1jMW5bY0hdbihjKD1PKW4xKVtDQEBIXTJPW0NASF0oW0NIMl1bT0hdKVtDQEBIXShbT0hdKVtDQEhdMltPSF0=

> <s_epik_cmdline>
J2VwaWtfcHl0aG9uJywgJy1waCcsICc3LjAnLCAnLXRuJywgJzgnLCAnLW1hJywgJzIwMCcsICctbWV0YWxfYmluZGluZycsICctaW1hZScsICc8aW5maWxlLm1hZT4nLCAnLW9tYWUnLCAnPG91dGZpbGUubWFlPic=

> <r_lp_tautomer_probability>
4.77166e-05

> <r_epik_Ionization_Penalty>
0.104979

> <r_epik_Ionization_Penalty_Charging>
0.0999619

> <r_epik_Ionization_Penalty_Neutral>
0.00501745

> <r_epik_State_Penalty>
2.51541

> <r_epik_Charging_Adjusted_Penalty>
2.61537

> <i_epik_Tot_Q>
1

> <i_epik_Tot_abs_Q>
1

> <r_epik_Metal_State_Penalty>
3.53763

> <b_epik_Metal_Only>
0

> <s_epik_Chemistry_Notes>
This compound contains an acetal/aminal-like group ( X-CH(R)-Y where X, Y are N, S, or O) that may be acid/base labile, releasing an aldehyde.

> <s_lp_Force_Field>
OPLS_2005

> <r_lp_Energy>
36.649

> <b_lp_Chiralities_Consistent>
1

> <s_lp_Variant>
AV-unprocessed.smi:72-47

> <Gold.Version>
5.8.1

> <Gold.Id.Protein>
6NUR|6NUR_protein|mol2

> <Gold.PLP.Fitness>
38.2323

> <Gold.PLP.PLP>
-28.5394

> <Gold.PLP.part.hbond>
-5.0007

> <Gold.PLP.part.metal>
0.0000

> <Gold.PLP.part.buried>
-6.1410

> <Gold.PLP.part.nonpolar>
-17.7826

> <Gold.PLP.part.repulsive>
0.7441

> <Gold.PLP.ligand.clash>
0.0000

> <Gold.PLP.ligand.torsion>
0.9813

> <Gold.PLP.Chemscore.Hbond>
3.8453

> <Gold.PLP.Chemscore.CHOScore>
0.0000

> <Gold.PLP.Chemscore.Metal>
0.0000

> <Gold.Chemscore.Hbonds>
donor molecule, donor type, donor heavy atom, donor atom, acceptor molecule, acceptor atom, score
      L1  H     1    23       P1 11000  1.00
      L1  H    10    27       P1 10186  0.93
      L1  H    12    28       P1 10747  1.00
      P1  H 10785 10796       L1    10  0.92

> <Gold.PLP.Chemscore.Internal.Correction>
0.1194

> <Gold.Rescore>
     Score         DG    S(hbond)    S(metal)    S(lipo)     H(rot)  DE(clash)    DE(int)     intcor
      6.51      -7.78       2.61        0.00      34.37       4.08       0.07       1.21       ----

> <Gold.Chemscore.Fitness>
6.5088

> <Gold.Chemscore.DG>
-7.7811

> <Gold.Chemscore.ZeroCoef>
-5.4800

> <Gold.Chemscore.Hbond>
2.6107

> <Gold.Chemscore.Metal>
0.0000

> <Gold.Chemscore.Lipo>
34.3740

> <Gold.Chemscore.Internal_Hbond>
0.0000

> <Gold.Chemscore.DEClash>
0.0668

> <Gold.Chemscore.DEInternal>
1.2055

> <Gold.Chemscore.Rot>
4.0783

> <Gold.Chemscore.Internal.Correction>
   9.000000E+99

> <Gold.Chemscore.Hbonds>
donor molecule, donor type, donor heavy atom, donor atom, acceptor molecule, acceptor atom, score
      L1  H     1    23       P1 11000  0.24
      L1  H    10    27       P1 10186  0.89
      L1  H    12    28       P1 10747  0.95
      P1  H 10785 10796       L1    10  0.19

> <Gold.Chemscore.Hbond.Weighted>
-8.7198

> <Gold.Chemscore.Metal.Weighted>
-0.0000

> <Gold.Chemscore.Lipo.Weighted>
-4.0218

> <Gold.Chemscore.Internal_Hbond.Weighted>
0.0000

> <Gold.Chemscore.DEClash.Weighted>
0.0668

> <Gold.Chemscore.DEInternal.Weighted>
1.2055

> <Gold.Chemscore.Rot.Weighted>
10.4404

> <Gold.Chemscore.Internal.Correction.Weighted>
   9.000000E+99

> <Gold.Protein.RotatedTorsions>
[ 6907 6896 6895 6894 ] final -139.82 input  -60.11 | X-H torsion
[ 7974 7965 7964 7962 ] final  -56.10 input  175.53 | X-H torsion
[ 8008 7997 7996 7995 ] final  -61.56 input   59.86 | X-H torsion
[ 10167 10162 10161 10158 ] final  117.22 input  -65.29 | X-H torsion
[ 10718 10713 10712 10709 ] final  119.42 input   66.30 | X-H torsion
[ 10763 10752 10751 10750 ] final  131.72 input  -60.55 | X-H torsion
[ 11005 11000 10999 10996 ] final -101.27 input  -57.11 | X-H torsion

> <Gold.Protein.ActiveResidues>
 VAL166  LYS551  ARG553  GLY616  TRP617  ASP618  TYR619  PRO620  LYS621  CYS622 
 ASP623  PHE694  ASN695  SER759  ASP760  ASP761  ALA762  ILE779  LEU786  VAL792 
 PHE793  MET794  SER795  GLU796  ALA797  LYS798  CYS799  TRP800  GLU811  SER814 

> <Gold.Protein.RotatedAtoms>
  151.0527  133.5611  159.2640 H   0  0  0  0  0  0  0  0  0  0  0  0  # atno 6907 bound_to 6896
  151.2616  135.0655  159.9110 H   0  0  0  0  0  0  0  0  0  0  0  0  # atno 6908 bound_to 6896
  152.5384  134.0271  159.8062 H   0  0  0  0  0  0  0  0  0  0  0  0  # atno 6909 bound_to 6896
  145.8665  140.8247  142.9910 H   0  0  0  0  0  0  0  0  0  0  0  0  # atno 7974 bound_to 7965
  154.4454  140.1015  156.6450 H   0  0  0  0  0  0  0  0  0  0  0  0  # atno 8008 bound_to 7997
  155.5460  140.3484  155.4439 H   0  0  0  0  0  0  0  0  0  0  0  0  # atno 8009 bound_to 7997
  156.0563  140.1316  156.9982 H   0  0  0  0  0  0  0  0  0  0  0  0  # atno 8010 bound_to 7997
  139.6193  144.7098  151.2669 H   0  0  0  0  0  0  0  0  0  0  0  0  # atno 10167 bound_to 10162
  157.5962  131.1057  150.7894 H   0  0  0  0  0  0  0  0  0  0  0  0  # atno 10718 bound_to 10713
  153.7789  135.3171  155.3363 H   0  0  0  0  0  0  0  0  0  0  0  0  # atno 10763 bound_to 10752
  154.8169  135.4630  154.0670 H   0  0  0  0  0  0  0  0  0  0  0  0  # atno 10764 bound_to 10752
  153.1953  135.6914  153.8385 H   0  0  0  0  0  0  0  0  0  0  0  0  # atno 10765 bound_to 10752
  141.1237  133.8465  157.1210 H   0  0  0  0  0  0  0  0  0  0  0  0  # atno 11005 bound_to 11000
  144.6726  140.1175  143.7452 LP  0  0  0  0  0  0  0  0  0  0  0  0  # atno 17320 bound_to 7965
  145.9187  139.2532  143.1394 LP  0  0  0  0  0  0  0  0  0  0  0  0  # atno 17321 bound_to 7965
  140.7372  143.6685  150.8102 LP  0  0  0  0  0  0  0  0  0  0  0  0  # atno 17342 bound_to 10162
  140.0294  143.5460  152.2767 LP  0  0  0  0  0  0  0  0  0  0  0  0  # atno 17343 bound_to 10162
  156.8304  130.5014  149.5332 LP  0  0  0  0  0  0  0  0  0  0  0  0  # atno 17370 bound_to 10713
  156.1026  130.5980  150.9918 LP  0  0  0  0  0  0  0  0  0  0  0  0  # atno 17371 bound_to 10713
  140.0217  134.9943  157.0604 LP  0  0  0  0  0  0  0  0  0  0  0  0  # atno 17394 bound_to 11000
  140.4429  134.1662  155.7175 LP  0  0  0  0  0  0  0  0  0  0  0  0  # atno 17395 bound_to 11000

$$$$
