AV-unprocessed.smi:1725|AV-procd|sdf|6953|dock3
  -GOLD-   22720 8163D 1   1.00000     0.00000
 Structure written by MMmdl.
 36 37  0  0  0  0  0  0  0  0  1 V2000
  153.2390  137.8785  160.3901 C   0  0  0  0  0  0  0  0  0  0  0  0
  152.5737  138.4647  159.1360 C   0  0  2  0  0  0  0  0  0  0  0  0
  151.8499  139.6243  159.5378 O   0  0  0  0  0  0  0  0  0  0  0  0
  152.1731  140.8163  158.8330 C   0  0  0  0  0  0  0  0  0  0  0  0
  153.1561  141.6173  159.6588 C   0  0  0  0  0  0  0  0  0  0  0  0
  152.6618  142.5775  160.7166 C   0  0  0  0  0  0  0  0  0  0  0  0
  153.2993  143.1090  159.4580 C   0  0  0  0  0  0  0  0  0  0  0  0
  151.6268  137.4477  158.4784 C   0  0  0  0  0  0  0  0  0  0  0  0
  150.6906  136.9862  159.1306 O   0  0  0  0  0  0  0  0  0  0  0  0
  151.8931  137.1592  157.1887 N   0  0  0  0  0  0  0  0  0  0  0  0
  151.2401  136.2748  156.3131 C   0  0  0  0  0  0  0  0  0  0  0  0
  151.1115  134.9360  156.5074 C   0  0  0  0  0  0  0  0  0  0  0  0
  150.4335  134.0789  155.5510 C   0  0  0  0  0  0  0  0  0  0  0  0
  150.2901  132.5873  155.8071 C   0  0  0  0  0  0  0  0  0  0  0  0
  149.6550  131.9708  154.8093 F   0  0  0  0  0  0  0  0  0  0  0  0
  151.4923  132.0300  155.9470 F   0  0  0  0  0  0  0  0  0  0  0  0
  149.6069  132.3779  156.9319 F   0  0  0  0  0  0  0  0  0  0  0  0
  149.9438  134.6761  154.4486 C   0  0  0  0  0  0  0  0  0  0  0  0
  150.0808  136.0495  154.2356 N   0  0  0  0  0  0  0  0  0  0  0  0
  150.6960  136.8946  155.0930 C   0  0  0  0  0  0  0  0  0  0  0  0
  150.7748  138.0946  154.8324 O   0  0  0  0  0  0  0  0  0  0  0  0
  149.6903  136.4225  153.3820 H   0  0  0  0  0  0  0  0  0  0  0  0
  153.8012  136.9742  160.1550 H   0  0  0  0  0  0  0  0  0  0  0  0
  152.5037  137.6275  161.1555 H   0  0  0  0  0  0  0  0  0  0  0  0
  153.9359  138.5940  160.8268 H   0  0  0  0  0  0  0  0  0  0  0  0
  153.3601  138.7520  158.4350 H   0  0  0  0  0  0  0  0  0  0  0  0
  152.6133  140.5778  157.8635 H   0  0  0  0  0  0  0  0  0  0  0  0
  151.2882  141.4286  158.6579 H   0  0  0  0  0  0  0  0  0  0  0  0
  154.0693  141.0764  159.9000 H   0  0  0  0  0  0  0  0  0  0  0  0
  151.5863  142.7031  160.8253 H   0  0  0  0  0  0  0  0  0  0  0  0
  153.2346  142.6469  161.6390 H   0  0  0  0  0  0  0  0  0  0  0  0
  154.2990  143.5312  159.5387 H   0  0  0  0  0  0  0  0  0  0  0  0
  152.6487  143.5877  158.7288 H   0  0  0  0  0  0  0  0  0  0  0  0
  152.6594  137.6679  156.7713 H   0  0  0  0  0  0  0  0  0  0  0  0
  151.5252  134.4516  157.3764 H   0  0  0  0  0  0  0  0  0  0  0  0
  149.4178  134.1629  153.6571 H   0  0  0  0  0  0  0  0  0  0  0  0
  1  2  1  0  0  0  0
  1 23  1  0  0  0  0
  1 24  1  0  0  0  0
  1 25  1  0  0  0  0
  2  3  1  0  0  0  0
  2  8  1  0  0  0  0
  2 26  1  0  0  0  0
  3  4  1  0  0  0  0
  4  5  1  0  0  0  0
  4 27  1  0  0  0  0
  4 28  1  0  0  0  0
  5  7  1  0  0  0  0
  5  6  1  0  0  0  0
  5 29  1  0  0  0  0
  6  7  1  0  0  0  0
  6 30  1  0  0  0  0
  6 31  1  0  0  0  0
  7 32  1  0  0  0  0
  7 33  1  0  0  0  0
  8  9  2  0  0  0  0
  8 10  1  0  0  0  0
 10 11  1  0  0  0  0
 10 34  1  0  0  0  0
 11 20  1  0  0  0  0
 11 12  2  0  0  0  0
 12 13  1  0  0  0  0
 12 35  1  0  0  0  0
 13 14  1  0  0  0  0
 13 18  2  0  0  0  0
 14 15  1  0  0  0  0
 14 16  1  0  0  0  0
 14 17  1  0  0  0  0
 18 19  1  0  0  0  0
 18 36  1  0  0  0  0
 19 22  1  0  0  0  0
 19 20  1  0  0  0  0
 20 21  2  0  0  0  0
M  END
> <s_m_source_file>
AV-unprocessed.smi

> <i_m_source_file_index>
1725

> <i_lp_mmshare_version>
43012

> <i_f3d_flags>
0

> <s_epik_input>
W0NIMl0xW0NIMl1bQ0hdMVtDSDJdT1tDQEBIXShbQ0gzXSlDKD1PKVtOSF1jMltjSF1jKEMoRikoRilGKVtjSF1bbkhdYzI9Tw==

> <s_epik_cmdline>
J2VwaWtfcHl0aG9uJywgJy1waCcsICc3LjAnLCAnLXRuJywgJzgnLCAnLW1hJywgJzIwMCcsICctbWV0YWxfYmluZGluZycsICctaW1hZScsICc8aW5maWxlLm1hZT4nLCAnLW9tYWUnLCAnPG91dGZpbGUubWFlPic=

> <r_lp_tautomer_probability>
0.999

> <r_epik_Ionization_Penalty>
0.00763408

> <r_epik_Ionization_Penalty_Charging>
0.00763398

> <r_epik_Ionization_Penalty_Neutral>
9.25705e-08

> <r_epik_State_Penalty>
0.00571302

> <r_epik_Charging_Adjusted_Penalty>
0.013347

> <i_epik_Tot_Q>
0

> <i_epik_Tot_abs_Q>
0

> <r_epik_Metal_State_Penalty>
0.392814

> <b_epik_Metal_Only>
0

> <s_lp_Force_Field>
OPLS_2005

> <r_lp_Energy>
28.2776

> <b_lp_Chiralities_Consistent>
1

> <s_lp_Variant>
AV-unprocessed.smi:1725-1

> <Gold.Version>
5.8.1

> <Gold.Id.Protein>
6NUR|6NUR_protein|mol2

> <Gold.PLP.Fitness>
35.9585

> <Gold.PLP.PLP>
-32.8804

> <Gold.PLP.part.hbond>
-3.0000

> <Gold.PLP.part.metal>
0.0000

> <Gold.PLP.part.buried>
-2.3132

> <Gold.PLP.part.nonpolar>
-27.5915

> <Gold.PLP.part.repulsive>
0.3097

> <Gold.PLP.ligand.clash>
0.1991

> <Gold.PLP.ligand.torsion>
1.8358

> <Gold.PLP.Chemscore.Hbond>
2.0000

> <Gold.PLP.Chemscore.CHOScore>
0.0873

> <Gold.PLP.Chemscore.Metal>
0.0000

> <Gold.Chemscore.Hbonds>
donor molecule, donor type, donor heavy atom, donor atom, acceptor molecule, acceptor atom, score
      L1  H    19    22       P1  7948  1.00
      P1  H  6896  6909       L1     9  0.88
      L1  C    18    36       P1  7948  0.09

> <Gold.PLP.Chemscore.Internal.Correction>
0.6867

> <Gold.Rescore>
     Score         DG    S(hbond)    S(metal)    S(lipo)     H(rot)  DE(clash)    DE(int)     intcor
     14.12     -15.81       1.81        0.00      76.01       1.79       0.02       1.67       ----

> <Gold.Chemscore.Fitness>
14.1240

> <Gold.Chemscore.DG>
-15.8149

> <Gold.Chemscore.ZeroCoef>
-5.4800

> <Gold.Chemscore.Hbond>
1.8065

> <Gold.Chemscore.Metal>
0.0000

> <Gold.Chemscore.Lipo>
76.0130

> <Gold.Chemscore.Internal_Hbond>
0.0000

> <Gold.Chemscore.DEClash>
0.0224

> <Gold.Chemscore.DEInternal>
1.6686

> <Gold.Chemscore.Rot>
1.7938

> <Gold.Chemscore.Internal.Correction>
   9.000000E+99

> <Gold.Chemscore.Hbonds>
donor molecule, donor type, donor heavy atom, donor atom, acceptor molecule, acceptor atom, score
      L1  H    19    22       P1  7948  0.33
      P1  H  6896  6909       L1     9  0.70

> <Gold.Chemscore.Hbond.Weighted>
-6.0336

> <Gold.Chemscore.Metal.Weighted>
-0.0000

> <Gold.Chemscore.Lipo.Weighted>
-8.8935

> <Gold.Chemscore.Internal_Hbond.Weighted>
0.0000

> <Gold.Chemscore.DEClash.Weighted>
0.0224

> <Gold.Chemscore.DEInternal.Weighted>
1.6686

> <Gold.Chemscore.Rot.Weighted>
4.5922

> <Gold.Chemscore.Internal.Correction.Weighted>
   9.000000E+99

> <Gold.Protein.RotatedTorsions>
[ 6907 6896 6895 6894 ] final   90.46 input  -60.11 | X-H torsion
[ 7974 7965 7964 7962 ] final   28.82 input  175.53 | X-H torsion
[ 8008 7997 7996 7995 ] final   -5.91 input   59.86 | X-H torsion
[ 10167 10162 10161 10158 ] final   96.12 input  -65.29 | X-H torsion
[ 10718 10713 10712 10709 ] final   72.38 input   66.30 | X-H torsion
[ 10763 10752 10751 10750 ] final  -49.69 input  -60.55 | X-H torsion
[ 11005 11000 10999 10996 ] final -143.25 input  -57.11 | X-H torsion

> <Gold.Protein.ActiveResidues>
 VAL166  LYS551  ARG553  GLY616  TRP617  ASP618  TYR619  PRO620  LYS621  CYS622 
 ASP623  PHE694  ASN695  SER759  ASP760  ASP761  ALA762  ILE779  LEU786  VAL792 
 PHE793  MET794  SER795  GLU796  ALA797  LYS798  CYS799  TRP800  GLU811  SER814 

> <Gold.Protein.RotatedAtoms>
  152.5444  134.1808  159.8634 H   0  0  0  0  0  0  0  0  0  0  0  0  # atno 6907 bound_to 6896
  151.1810  133.4718  159.2601 H   0  0  0  0  0  0  0  0  0  0  0  0  # atno 6908 bound_to 6896
  151.1178  135.0074  159.8579 H   0  0  0  0  0  0  0  0  0  0  0  0  # atno 6909 bound_to 6896
  146.1707  139.7004  142.8970 H   0  0  0  0  0  0  0  0  0  0  0  0  # atno 7974 bound_to 7965
  154.5991  140.2446  155.7817 H   0  0  0  0  0  0  0  0  0  0  0  0  # atno 8008 bound_to 7997
  156.2299  140.2970  156.0113 H   0  0  0  0  0  0  0  0  0  0  0  0  # atno 8009 bound_to 7997
  155.2242  140.0401  157.2943 H   0  0  0  0  0  0  0  0  0  0  0  0  # atno 8010 bound_to 7997
  139.7924  144.6846  150.9874 H   0  0  0  0  0  0  0  0  0  0  0  0  # atno 10167 bound_to 10162
  157.6498  130.9576  150.0921 H   0  0  0  0  0  0  0  0  0  0  0  0  # atno 10718 bound_to 10713
  154.0982  135.6567  153.4863 H   0  0  0  0  0  0  0  0  0  0  0  0  # atno 10763 bound_to 10752
  153.0298  135.5218  154.7313 H   0  0  0  0  0  0  0  0  0  0  0  0  # atno 10764 bound_to 10752
  154.6457  135.2994  155.0018 H   0  0  0  0  0  0  0  0  0  0  0  0  # atno 10765 bound_to 10752
  140.8144  134.2706  157.4927 H   0  0  0  0  0  0  0  0  0  0  0  0  # atno 11005 bound_to 11000
  145.4348  141.0418  143.2890 LP  0  0  0  0  0  0  0  0  0  0  0  0  # atno 17320 bound_to 7965
  144.8159  139.5879  143.7009 LP  0  0  0  0  0  0  0  0  0  0  0  0  # atno 17321 bound_to 7965
  140.7820  143.4366  151.0614 LP  0  0  0  0  0  0  0  0  0  0  0  0  # atno 17342 bound_to 10162
  139.8042  143.8041  152.3166 LP  0  0  0  0  0  0  0  0  0  0  0  0  # atno 17343 bound_to 10162
  156.1867  130.3652  149.8963 LP  0  0  0  0  0  0  0  0  0  0  0  0  # atno 17370 bound_to 10713
  156.6902  130.8892  151.3587 LP  0  0  0  0  0  0  0  0  0  0  0  0  # atno 17371 bound_to 10713
  139.8712  134.9501  156.4045 LP  0  0  0  0  0  0  0  0  0  0  0  0  # atno 17394 bound_to 11000
  140.9164  133.7675  155.9853 LP  0  0  0  0  0  0  0  0  0  0  0  0  # atno 17395 bound_to 11000

$$$$
