AV-unprocessed.smi:3169|AV-procd|sdf|12105|dock10
  -GOLD-   2272017543D 1   1.00000     0.00000
 Structure written by MMmdl.
 35 36  0  0  0  0  0  0  0  0  1 V2000
  145.9437  138.7424  153.8269 O   0  0  0  0  0  0  0  0  0  0  0  0
  146.7564  137.9998  153.2760 C   0  0  0  0  0  0  0  0  0  0  0  0
  146.4179  136.9601  152.5022 N   0  0  0  0  0  0  0  0  0  0  0  0
  145.0506  136.5735  152.1690 C   0  0  0  0  0  0  0  0  0  0  0  0
  144.9505  135.9216  150.7772 C   0  0  0  0  0  0  0  0  0  0  0  0
  145.2234  134.4972  150.8181 N   0  0  0  0  0  0  0  0  0  0  0  0
  146.4221  133.8829  151.1553 C   0  0  0  0  0  0  0  0  0  0  0  0
  146.2126  132.5267  151.0464 C   0  0  0  0  0  0  0  0  0  0  0  0
  144.9002  132.2852  150.6472 N   0  0  0  0  0  0  0  0  0  0  0  0
  144.3758  133.4986  150.5339 C   0  0  0  0  0  0  0  0  0  0  0  0
  148.0862  138.1325  153.3732 N   0  0  0  0  0  0  0  0  0  0  0  0
  148.7787  139.1576  154.1467 C   0  0  0  0  0  0  0  0  0  0  0  0
  150.3056  139.0154  154.0360 C   0  0  2  0  0  0  0  0  0  0  0  0
  150.8861  137.7436  154.6545 C   0  0  0  0  0  0  0  0  0  0  0  0
  152.3171  138.1600  154.9047 C   0  0  0  0  0  0  0  0  0  0  0  0
  152.1487  139.6116  155.3469 C   0  0  0  0  0  0  0  0  0  0  0  0
  150.9533  140.0804  154.7259 O   0  0  0  0  0  0  0  0  0  0  0  0
  147.1588  136.4061  152.0977 H   0  0  0  0  0  0  0  0  0  0  0  0
  144.6936  135.8810  152.9318 H   0  0  0  0  0  0  0  0  0  0  0  0
  144.3991  137.4473  152.2195 H   0  0  0  0  0  0  0  0  0  0  0  0
  143.9479  136.0642  150.3729 H   0  0  0  0  0  0  0  0  0  0  0  0
  145.6386  136.3943  150.0749 H   0  0  0  0  0  0  0  0  0  0  0  0
  147.3004  134.4460  151.4344 H   0  0  0  0  0  0  0  0  0  0  0  0
  146.9003  131.7127  151.2224 H   0  0  0  0  0  0  0  0  0  0  0  0
  143.3526  133.6659  150.2301 H   0  0  0  0  0  0  0  0  0  0  0  0
  148.6662  137.4704  152.8791 H   0  0  0  0  0  0  0  0  0  0  0  0
  148.4760  140.1283  153.7532 H   0  0  0  0  0  0  0  0  0  0  0  0
  148.4669  139.1430  155.1925 H   0  0  0  0  0  0  0  0  0  0  0  0
  150.6090  139.0749  152.9894 H   0  0  0  0  0  0  0  0  0  0  0  0
  150.3925  137.5146  155.6002 H   0  0  0  0  0  0  0  0  0  0  0  0
  150.8009  136.8737  154.0029 H   0  0  0  0  0  0  0  0  0  0  0  0
  152.8225  137.5425  155.6476 H   0  0  0  0  0  0  0  0  0  0  0  0
  152.8865  138.1133  153.9755 H   0  0  0  0  0  0  0  0  0  0  0  0
  152.0204  139.6695  156.4284 H   0  0  0  0  0  0  0  0  0  0  0  0
  153.0058  140.2280  155.0750 H   0  0  0  0  0  0  0  0  0  0  0  0
  1  2  2  0  0  0  0
  2  3  1  0  0  0  0
  2 11  1  0  0  0  0
  3  4  1  0  0  0  0
  3 18  1  0  0  0  0
  4  5  1  0  0  0  0
  4 19  1  0  0  0  0
  4 20  1  0  0  0  0
  5  6  1  0  0  0  0
  5 21  1  0  0  0  0
  5 22  1  0  0  0  0
  6 10  1  0  0  0  0
  6  7  1  0  0  0  0
  7  8  2  0  0  0  0
  7 23  1  0  0  0  0
  8  9  1  0  0  0  0
  8 24  1  0  0  0  0
  9 10  2  0  0  0  0
 10 25  1  0  0  0  0
 11 12  1  0  0  0  0
 11 26  1  0  0  0  0
 12 13  1  0  0  0  0
 12 27  1  0  0  0  0
 12 28  1  0  0  0  0
 13 17  1  0  0  0  0
 13 14  1  0  0  0  0
 13 29  1  0  0  0  0
 14 15  1  0  0  0  0
 14 30  1  0  0  0  0
 14 31  1  0  0  0  0
 15 16  1  0  0  0  0
 15 32  1  0  0  0  0
 15 33  1  0  0  0  0
 16 17  1  0  0  0  0
 16 34  1  0  0  0  0
 16 35  1  0  0  0  0
M  END
> <s_m_source_file>
AV-unprocessed.smi

> <i_m_source_file_index>
3169

> <i_lp_mmshare_version>
43012

> <i_f3d_flags>
0

> <s_epik_input>
TzFbQ0gyXVtDSDJdW0NIMl1bQ0BIXTFbQ0gyXVtOSF1DKD1PKVtOSF1bQ0gyXVtDSDJdbjJbY0hdW2NIXW5bY0hdMg==

> <s_epik_cmdline>
J2VwaWtfcHl0aG9uJywgJy1waCcsICc3LjAnLCAnLXRuJywgJzgnLCAnLW1hJywgJzIwMCcsICctbWV0YWxfYmluZGluZycsICctaW1hZScsICc8aW5maWxlLm1hZT4nLCAnLW9tYWUnLCAnPG91dGZpbGUubWFlPic=

> <r_lp_tautomer_probability>
1

> <r_epik_Ionization_Penalty>
0.620462

> <r_epik_Ionization_Penalty_Charging>
0.620414

> <r_epik_Ionization_Penalty_Neutral>
4.72016e-05

> <r_epik_State_Penalty>
0.636391

> <r_epik_Charging_Adjusted_Penalty>
1.25681

> <i_epik_Tot_Q>
0

> <i_epik_Tot_abs_Q>
0

> <r_epik_Metal_State_Penalty>
0.306539

> <b_epik_Metal_Only>
0

> <s_lp_Force_Field>
OPLS_2005

> <r_lp_Energy>
16.7898

> <b_lp_Chiralities_Consistent>
1

> <s_lp_Variant>
AV-unprocessed.smi:3169-3

> <Gold.Version>
5.8.1

> <Gold.Id.Protein>
6NUR|6NUR_protein|mol2

> <Gold.PLP.Fitness>
48.9285

> <Gold.PLP.PLP>
-31.8170

> <Gold.PLP.part.hbond>
-3.0272

> <Gold.PLP.part.metal>
0.0000

> <Gold.PLP.part.buried>
-2.6418

> <Gold.PLP.part.nonpolar>
-26.7479

> <Gold.PLP.part.repulsive>
0.4237

> <Gold.PLP.ligand.clash>
0.0000

> <Gold.PLP.ligand.torsion>
0.3639

> <Gold.PLP.Chemscore.Hbond>
2.9440

> <Gold.PLP.Chemscore.CHOScore>
2.9986

> <Gold.PLP.Chemscore.Metal>
0.0000

> <Gold.Chemscore.Hbonds>
donor molecule, donor type, donor heavy atom, donor atom, acceptor molecule, acceptor atom, score
      L1  H     3    18       P1  7948  0.94
      L1  H    11    26       P1  7948  1.00
      P1  H  7989  7998       L1    17  0.90
      L1  C     7    23       P1  7948  1.00
      L1  C     8    24       P1 10747  1.00
      L1  C    10    25       P1 10186  0.94

> <Gold.PLP.Chemscore.Internal.Correction>
0.0116

> <Gold.Rescore>
     Score         DG    S(hbond)    S(metal)    S(lipo)     H(rot)  DE(clash)    DE(int)     intcor
     13.96     -15.22       2.45        0.00      62.46       2.25       0.83       0.43       ----

> <Gold.Chemscore.Fitness>
13.9624

> <Gold.Chemscore.DG>
-15.2240

> <Gold.Chemscore.ZeroCoef>
-5.4800

> <Gold.Chemscore.Hbond>
2.4518

> <Gold.Chemscore.Metal>
0.0000

> <Gold.Chemscore.Lipo>
62.4627

> <Gold.Chemscore.Internal_Hbond>
0.0000

> <Gold.Chemscore.DEClash>
0.8326

> <Gold.Chemscore.DEInternal>
0.4290

> <Gold.Chemscore.Rot>
2.2474

> <Gold.Chemscore.Internal.Correction>
   9.000000E+99

> <Gold.Chemscore.Hbonds>
donor molecule, donor type, donor heavy atom, donor atom, acceptor molecule, acceptor atom, score
      L1  H     3    18       P1  7948  0.91
      L1  H    11    26       P1  7948  0.97
      P1  H  7989  7998       L1    17  0.05

> <Gold.Chemscore.Hbond.Weighted>
-8.1891

> <Gold.Chemscore.Metal.Weighted>
-0.0000

> <Gold.Chemscore.Lipo.Weighted>
-7.3081

> <Gold.Chemscore.Internal_Hbond.Weighted>
0.0000

> <Gold.Chemscore.DEClash.Weighted>
0.8326

> <Gold.Chemscore.DEInternal.Weighted>
0.4290

> <Gold.Chemscore.Rot.Weighted>
5.7532

> <Gold.Chemscore.Internal.Correction.Weighted>
   9.000000E+99

> <Gold.Protein.RotatedTorsions>
[ 6907 6896 6895 6894 ] final   44.80 input  -60.11 | X-H torsion
[ 7974 7965 7964 7962 ] final   69.42 input  175.53 | X-H torsion
[ 8008 7997 7996 7995 ] final  168.41 input   59.86 | X-H torsion
[ 10167 10162 10161 10158 ] final   71.28 input  -65.29 | X-H torsion
[ 10718 10713 10712 10709 ] final -157.80 input   66.30 | X-H torsion
[ 10763 10752 10751 10750 ] final -172.20 input  -60.55 | X-H torsion
[ 11005 11000 10999 10996 ] final   44.74 input  -57.11 | X-H torsion

> <Gold.Protein.ActiveResidues>
 VAL166  LYS551  ARG553  GLY616  TRP617  ASP618  TYR619  PRO620  LYS621  CYS622 
 ASP623  PHE694  ASN695  SER759  ASP760  ASP761  ALA762  ILE779  LEU786  VAL792 
 PHE793  MET794  SER795  GLU796  ALA797  LYS798  CYS799  TRP800  GLU811  SER814 

> <Gold.Protein.RotatedAtoms>
  152.2369  134.8267  160.0465 H   0  0  0  0  0  0  0  0  0  0  0  0  # atno 6907 bound_to 6896
  151.8995  133.3529  159.3834 H   0  0  0  0  0  0  0  0  0  0  0  0  # atno 6908 bound_to 6896
  150.7042  134.4768  159.5495 H   0  0  0  0  0  0  0  0  0  0  0  0  # atno 6909 bound_to 6896
  145.7907  139.2932  143.1212 H   0  0  0  0  0  0  0  0  0  0  0  0  # atno 7974 bound_to 7965
  156.1549  140.1591  156.8709 H   0  0  0  0  0  0  0  0  0  0  0  0  # atno 8008 bound_to 7997
  154.5106  140.0802  156.8018 H   0  0  0  0  0  0  0  0  0  0  0  0  # atno 8009 bound_to 7997
  155.3822  140.3405  155.4249 H   0  0  0  0  0  0  0  0  0  0  0  0  # atno 8010 bound_to 7997
  140.0478  144.5337  150.7386 H   0  0  0  0  0  0  0  0  0  0  0  0  # atno 10167 bound_to 10162
  156.5453  130.8581  151.2762 H   0  0  0  0  0  0  0  0  0  0  0  0  # atno 10718 bound_to 10713
  154.6219  135.2876  155.0316 H   0  0  0  0  0  0  0  0  0  0  0  0  # atno 10763 bound_to 10752
  154.1507  135.6504  153.4967 H   0  0  0  0  0  0  0  0  0  0  0  0  # atno 10764 bound_to 10752
  153.0240  135.5355  154.7013 H   0  0  0  0  0  0  0  0  0  0  0  0  # atno 10765 bound_to 10752
  140.1524  134.4445  155.8373 H   0  0  0  0  0  0  0  0  0  0  0  0  # atno 11005 bound_to 11000
  145.9980  140.8545  143.0033 LP  0  0  0  0  0  0  0  0  0  0  0  0  # atno 17320 bound_to 7965
  144.6782  140.2311  143.7355 LP  0  0  0  0  0  0  0  0  0  0  0  0  # atno 17321 bound_to 7965
  140.7231  143.2608  151.4213 LP  0  0  0  0  0  0  0  0  0  0  0  0  # atno 17342 bound_to 10162
  139.5972  144.1372  152.2157 LP  0  0  0  0  0  0  0  0  0  0  0  0  # atno 17343 bound_to 10162
  157.7398  130.9837  150.2334 LP  0  0  0  0  0  0  0  0  0  0  0  0  # atno 17370 bound_to 10713
  156.2934  130.3748  149.7820 LP  0  0  0  0  0  0  0  0  0  0  0  0  # atno 17371 bound_to 10713
  141.2200  133.6878  156.7445 LP  0  0  0  0  0  0  0  0  0  0  0  0  # atno 17394 bound_to 11000
  140.2589  134.8482  157.3739 LP  0  0  0  0  0  0  0  0  0  0  0  0  # atno 17395 bound_to 11000

$$$$
