AV-unprocessed.smi:161|AV-procd|sdf|1375|dock1
  -GOLD-   2262019 93D 1   1.00000     0.00000
 Structure written by MMmdl.
 52 55  0  0  0  0  0  0  0  0  1 V2000
  152.3923  129.8973  154.6196 C   0  0  0  0  0  0  0  0  0  0  0  0
  152.1876  130.9195  155.7398 C   0  0  0  0  0  0  0  0  0  0  0  0
  151.0325  131.6915  155.4551 O   0  0  0  0  0  0  0  0  0  0  0  0
  150.3761  132.3225  156.4439 C   0  0  0  0  0  0  0  0  0  0  0  0
  150.7725  132.3555  157.6097 O   0  0  0  0  0  0  0  0  0  0  0  0
  149.1185  132.9788  155.9243 C   0  0  2  0  0  0  0  0  0  0  0  0
  147.8099  132.1856  156.0111 C   0  0  0  0  0  0  0  0  0  0  0  0
  147.4887  133.2533  154.9493 C   0  0  2  0  0  0  0  0  0  0  0  0
  146.2412  133.1898  154.0827 C   0  0  0  0  0  0  0  0  0  0  0  0
  148.8795  132.8965  154.4092 C   0  0  0  0  0  0  0  0  0  0  0  0
  147.6577  134.5257  155.5969 O   0  0  0  0  0  0  0  0  0  0  0  0
  148.8520  134.4140  156.3744 C   0  0  0  0  0  0  0  0  0  0  0  0
  149.9076  135.4534  155.8980 C   0  0  0  0  0  0  0  0  0  0  0  0
  149.5726  136.8782  156.3722 C   0  0  0  0  0  0  0  0  0  0  0  0
  149.4182  136.8594  157.8311 N   0  0  0  0  0  0  0  0  0  0  0  0
  150.3678  137.1939  158.7408 C   0  0  0  0  0  0  0  0  0  0  0  0
  150.2478  136.9432  159.9405 O   0  0  0  0  0  0  0  0  0  0  0  0
  151.6191  137.8303  158.2687 C   0  0  0  0  0  0  0  0  0  0  0  0
  151.9812  138.4985  157.1318 C   0  0  0  0  0  0  0  0  0  0  0  0
  153.3066  138.9065  157.2481 N   0  0  0  0  0  0  0  0  0  0  0  0
  153.7667  138.5331  158.3991 N   0  0  0  0  0  0  0  0  0  0  0  0
  152.7678  137.8860  159.0483 N   0  0  0  0  0  0  0  0  0  0  0  0
  153.0328  137.3542  160.3791 C   0  0  0  0  0  0  0  0  0  0  0  0
  154.3132  136.5097  160.4192 C   0  0  0  0  0  0  0  0  0  0  0  0
  148.2275  136.0935  158.2076 C   0  0  0  0  0  0  0  0  0  0  0  0
  148.4918  134.6142  157.8775 C   0  0  0  0  0  0  0  0  0  0  0  0
  153.2829  129.2958  154.8013 H   0  0  0  0  0  0  0  0  0  0  0  0
  152.5126  130.3908  153.6550 H   0  0  0  0  0  0  0  0  0  0  0  0
  151.5406  129.2205  154.5475 H   0  0  0  0  0  0  0  0  0  0  0  0
  152.0755  130.4007  156.6929 H   0  0  0  0  0  0  0  0  0  0  0  0
  153.0547  131.5754  155.8211 H   0  0  0  0  0  0  0  0  0  0  0  0
  147.8379  131.1491  155.6618 H   0  0  0  0  0  0  0  0  0  0  0  0
  147.2477  132.2727  156.9393 H   0  0  0  0  0  0  0  0  0  0  0  0
  146.1412  132.2151  153.6047 H   0  0  0  0  0  0  0  0  0  0  0  0
  146.2699  133.9429  153.2953 H   0  0  0  0  0  0  0  0  0  0  0  0
  145.3418  133.3621  154.6738 H   0  0  0  0  0  0  0  0  0  0  0  0
  149.3457  133.6653  153.7954 H   0  0  0  0  0  0  0  0  0  0  0  0
  148.9784  131.9098  153.9467 H   0  0  0  0  0  0  0  0  0  0  0  0
  150.8901  135.1798  156.2829 H   0  0  0  0  0  0  0  0  0  0  0  0
  150.0027  135.4607  154.8138 H   0  0  0  0  0  0  0  0  0  0  0  0
  150.3304  137.5714  156.0166 H   0  0  0  0  0  0  0  0  0  0  0  0
  148.6424  137.2136  155.9114 H   0  0  0  0  0  0  0  0  0  0  0  0
  151.4015  138.7163  156.2469 H   0  0  0  0  0  0  0  0  0  0  0  0
  153.1200  138.1834  161.0827 H   0  0  0  0  0  0  0  0  0  0  0  0
  152.1756  136.7674  160.7082 H   0  0  0  0  0  0  0  0  0  0  0  0
  154.5241  136.1782  161.4359 H   0  0  0  0  0  0  0  0  0  0  0  0
  155.1746  137.0792  160.0698 H   0  0  0  0  0  0  0  0  0  0  0  0
  154.2241  135.6193  159.7975 H   0  0  0  0  0  0  0  0  0  0  0  0
  147.9725  136.2073  159.2623 H   0  0  0  0  0  0  0  0  0  0  0  0
  147.3591  136.4556  157.6556 H   0  0  0  0  0  0  0  0  0  0  0  0
  147.6211  134.0278  158.1646 H   0  0  0  0  0  0  0  0  0  0  0  0
  149.3106  134.2743  158.5104 H   0  0  0  0  0  0  0  0  0  0  0  0
  1  2  1  0  0  0  0
  1 27  1  0  0  0  0
  1 28  1  0  0  0  0
  1 29  1  0  0  0  0
  2  3  1  0  0  0  0
  2 30  1  0  0  0  0
  2 31  1  0  0  0  0
  3  4  1  0  0  0  0
  4  5  2  0  0  0  0
  4  6  1  0  0  0  0
  6 10  1  0  0  0  0
  6 12  1  0  0  0  0
  6  7  1  0  0  0  0
  7  8  1  0  0  0  0
  7 32  1  0  0  0  0
  7 33  1  0  0  0  0
  8  9  1  0  0  0  0
  8 10  1  0  0  0  0
  8 11  1  0  0  0  0
  9 34  1  0  0  0  0
  9 35  1  0  0  0  0
  9 36  1  0  0  0  0
 10 37  1  0  0  0  0
 10 38  1  0  0  0  0
 11 12  1  0  0  0  0
 12 26  1  0  0  0  0
 12 13  1  0  0  0  0
 13 14  1  0  0  0  0
 13 39  1  0  0  0  0
 13 40  1  0  0  0  0
 14 15  1  0  0  0  0
 14 41  1  0  0  0  0
 14 42  1  0  0  0  0
 15 16  1  0  0  0  0
 15 25  1  0  0  0  0
 16 17  2  0  0  0  0
 16 18  1  0  0  0  0
 18 22  1  0  0  0  0
 18 19  2  0  0  0  0
 19 20  1  0  0  0  0
 19 43  1  0  0  0  0
 20 21  2  0  0  0  0
 21 22  1  0  0  0  0
 22 23  1  0  0  0  0
 23 24  1  0  0  0  0
 23 44  1  0  0  0  0
 23 45  1  0  0  0  0
 24 46  1  0  0  0  0
 24 47  1  0  0  0  0
 24 48  1  0  0  0  0
 25 26  1  0  0  0  0
 25 49  1  0  0  0  0
 25 50  1  0  0  0  0
 26 51  1  0  0  0  0
 26 52  1  0  0  0  0
M  END
> <s_m_source_file>
AV-unprocessed.smi

> <i_m_source_file_index>
161

> <i_lp_mmshare_version>
43012

> <i_f3d_flags>
2

> <s_epik_input>
W0NIM11bQ0gyXU9DKD1PKVtDQEBdMShbQ0gyXVtDQF0oTzIpKFtDSDNdKVtDSDJdMSlDMjNbQ0gyXVtDSDJdTihbQ0gyXVtDSDJdMylDKD1PKWM0W2NIXW5ubjRbQ0gyXVtDSDNd

> <s_epik_cmdline>
J2VwaWtfcHl0aG9uJywgJy1waCcsICc3LjAnLCAnLXRuJywgJzgnLCAnLW1hJywgJzIwMCcsICctbWV0YWxfYmluZGluZycsICctaW1hZScsICc8aW5maWxlLm1hZT4nLCAnLW9tYWUnLCAnPG91dGZpbGUubWFlPic=

> <r_lp_tautomer_probability>
1

> <r_epik_Ionization_Penalty>
1.75517e-07

> <r_epik_Ionization_Penalty_Charging>
0

> <r_epik_Ionization_Penalty_Neutral>
1.75517e-07

> <r_epik_State_Penalty>
-0

> <r_epik_Charging_Adjusted_Penalty>
0

> <i_epik_Tot_Q>
0

> <i_epik_Tot_abs_Q>
0

> <r_epik_Metal_State_Penalty>
-0

> <b_epik_Metal_Only>
0

> <s_epik_Chemistry_Notes>
This compound has an ester and may undergo hydrolysis at high or low pH.

> <s_lp_Force_Field>
OPLS_2005

> <r_lp_Energy>
59.4881

> <b_lp_Chiralities_Consistent>
0

> <s_lp_Variant>
AV-unprocessed.smi:161-1

> <Gold.Version>
5.8.1

> <Gold.Id.Protein>
6NUR|6NUR_protein|mol2

> <Gold.PLP.Fitness>
37.5993

> <Gold.PLP.PLP>
-30.6016

> <Gold.PLP.part.hbond>
-3.0036

> <Gold.PLP.part.metal>
0.0000

> <Gold.PLP.part.buried>
-4.5698

> <Gold.PLP.part.nonpolar>
-21.9657

> <Gold.PLP.part.repulsive>
0.0944

> <Gold.PLP.ligand.clash>
0.0000

> <Gold.PLP.ligand.torsion>
0.9480

> <Gold.PLP.Chemscore.Hbond>
2.6760

> <Gold.PLP.Chemscore.CHOScore>
0.0000

> <Gold.PLP.Chemscore.Metal>
0.0000

> <Gold.Chemscore.Hbonds>
donor molecule, donor type, donor heavy atom, donor atom, acceptor molecule, acceptor atom, score
      P1  H  6896  6907       L1     5  1.00
      P1  H  6896  6908       L1    17  0.75
      P1  H  7997  8010       L1    20  0.32

> <Gold.PLP.Chemscore.Internal.Correction>
0.8656

> <Gold.Rescore>
     Score         DG    S(hbond)    S(metal)    S(lipo)     H(rot)  DE(clash)    DE(int)     intcor
     13.82     -16.73       1.97        0.00      71.90       1.47       0.06       2.86       ----

> <Gold.Chemscore.Fitness>
13.8181

> <Gold.Chemscore.DG>
-16.7340

> <Gold.Chemscore.ZeroCoef>
-5.4800

> <Gold.Chemscore.Hbond>
1.9740

> <Gold.Chemscore.Metal>
0.0000

> <Gold.Chemscore.Lipo>
71.8954

> <Gold.Chemscore.Internal_Hbond>
0.0000

> <Gold.Chemscore.DEClash>
0.0565

> <Gold.Chemscore.DEInternal>
2.8594

> <Gold.Chemscore.Rot>
1.4652

> <Gold.Chemscore.Internal.Correction>
   9.000000E+99

> <Gold.Chemscore.Hbonds>
donor molecule, donor type, donor heavy atom, donor atom, acceptor molecule, acceptor atom, score
      P1  H  6896  6907       L1     5  0.98
      P1  H  6896  6908       L1    17  0.11
      P1  H  7997  8010       L1    20  0.01

> <Gold.Chemscore.Hbond.Weighted>
-6.5933

> <Gold.Chemscore.Metal.Weighted>
-0.0000

> <Gold.Chemscore.Lipo.Weighted>
-8.4118

> <Gold.Chemscore.Internal_Hbond.Weighted>
0.0000

> <Gold.Chemscore.DEClash.Weighted>
0.0565

> <Gold.Chemscore.DEInternal.Weighted>
2.8594

> <Gold.Chemscore.Rot.Weighted>
3.7510

> <Gold.Chemscore.Internal.Correction.Weighted>
   9.000000E+99

> <Gold.Protein.RotatedTorsions>
[ 6907 6896 6895 6894 ] final -148.94 input  -60.11 | X-H torsion
[ 7974 7965 7964 7962 ] final  -34.70 input  175.53 | X-H torsion
[ 8008 7997 7996 7995 ] final   22.89 input   59.86 | X-H torsion
[ 10167 10162 10161 10158 ] final  -62.72 input  -65.29 | X-H torsion
[ 10718 10713 10712 10709 ] final   33.93 input   66.30 | X-H torsion
[ 10763 10752 10751 10750 ] final  127.89 input  -60.55 | X-H torsion
[ 11005 11000 10999 10996 ] final  -66.32 input  -57.11 | X-H torsion

> <Gold.Protein.ActiveResidues>
 VAL166  LYS551  ARG553  GLY616  TRP617  ASP618  TYR619  PRO620  LYS621  CYS622 
 ASP623  PHE694  ASN695  SER759  ASP760  ASP761  ALA762  ILE779  LEU786  VAL792 
 PHE793  MET794  SER795  GLU796  ALA797  LYS798  CYS799  TRP800  GLU811  SER814 

> <Gold.Protein.RotatedAtoms>
  151.1769  133.4749  159.2593 H   0  0  0  0  0  0  0  0  0  0  0  0  # atno 6907 bound_to 6896
  151.1298  135.0124  159.8587 H   0  0  0  0  0  0  0  0  0  0  0  0  # atno 6908 bound_to 6896
  152.5459  134.1673  159.8635 H   0  0  0  0  0  0  0  0  0  0  0  0  # atno 6909 bound_to 6896
  146.0808  140.6070  142.8909 H   0  0  0  0  0  0  0  0  0  0  0  0  # atno 7974 bound_to 7965
  154.9725  140.3092  155.4981 H   0  0  0  0  0  0  0  0  0  0  0  0  # atno 8008 bound_to 7997
  156.2964  140.2281  156.4758 H   0  0  0  0  0  0  0  0  0  0  0  0  # atno 8009 bound_to 7997
  154.7863  140.0442  157.1155 H   0  0  0  0  0  0  0  0  0  0  0  0  # atno 8010 bound_to 7997
  140.5919  143.2343  151.6120 H   0  0  0  0  0  0  0  0  0  0  0  0  # atno 10167 bound_to 10162
  157.3040  130.7365  149.6684 H   0  0  0  0  0  0  0  0  0  0  0  0  # atno 10718 bound_to 10713
  153.7167  135.3260  155.3258 H   0  0  0  0  0  0  0  0  0  0  0  0  # atno 10763 bound_to 10752
  154.8368  135.4489  154.1259 H   0  0  0  0  0  0  0  0  0  0  0  0  # atno 10764 bound_to 10752
  153.2368  135.6966  153.7907 H   0  0  0  0  0  0  0  0  0  0  0  0  # atno 10765 bound_to 10752
  141.1479  133.6697  156.6122 H   0  0  0  0  0  0  0  0  0  0  0  0  # atno 11005 bound_to 11000
  144.7292  140.4619  143.6950 LP  0  0  0  0  0  0  0  0  0  0  0  0  # atno 17320 bound_to 7965
  145.6221  139.1525  143.3016 LP  0  0  0  0  0  0  0  0  0  0  0  0  # atno 17321 bound_to 7965
  139.5233  144.3136  152.0971 LP  0  0  0  0  0  0  0  0  0  0  0  0  # atno 17342 bound_to 10162
  140.2302  144.4376  150.6303 LP  0  0  0  0  0  0  0  0  0  0  0  0  # atno 17343 bound_to 10162
  155.9673  130.4271  150.4730 LP  0  0  0  0  0  0  0  0  0  0  0  0  # atno 17370 bound_to 10713
  157.2716  131.0588  151.2256 LP  0  0  0  0  0  0  0  0  0  0  0  0  # atno 17371 bound_to 10713
  140.3606  134.7691  157.4531 LP  0  0  0  0  0  0  0  0  0  0  0  0  # atno 17394 bound_to 11000
  140.0788  134.5760  155.8562 LP  0  0  0  0  0  0  0  0  0  0  0  0  # atno 17395 bound_to 11000

$$$$
