AV-unprocessed.smi:1877|AV-procd|sdf|7625|dock3
  -GOLD-   22720 9353D 1   1.00000     0.00000
 Structure written by MMmdl.
 33 35  0  0  0  0  0  0  0  0  2 V2000
  150.1701  139.6874  157.8281 O   0  0  0  0  0  0  0  0  0  0  0  0
  151.5690  139.7690  157.6481 C   0  0  1  0  0  0  0  0  0  0  0  0
  151.8391  140.1309  156.1735 C   0  0  0  0  0  0  0  0  0  0  0  0
  150.9310  139.4424  155.2477 N   0  0  0  0  0  0  0  0  0  0  0  0
  150.9971  138.1857  154.7296 C   0  0  0  0  0  0  0  0  0  0  0  0
  149.9040  138.0106  153.9362 N   0  3  0  0  0  0  0  0  0  0  0  0
  149.1313  139.1741  153.9433 C   0  0  0  0  0  0  0  0  0  0  0  0
  147.9374  139.4806  153.2978 C   0  0  0  0  0  0  0  0  0  0  0  0
  147.4104  140.7701  153.5207 C   0  0  0  0  0  0  0  0  0  0  0  0
  148.0656  141.6976  154.3570 C   0  0  0  0  0  0  0  0  0  0  0  0
  149.2752  141.3757  155.0071 C   0  0  0  0  0  0  0  0  0  0  0  0
  149.7882  140.0994  154.7814 C   0  0  0  0  0  0  0  0  0  0  0  0
  152.2225  140.7541  158.6110 C   0  0  0  0  0  0  0  0  0  0  0  0
  151.9453  142.1359  158.5125 C   0  0  0  0  0  0  0  0  0  0  0  0
  152.5612  143.0505  159.3883 C   0  0  0  0  0  0  0  0  0  0  0  0
  152.2896  144.3728  159.2861 F   0  0  0  0  0  0  0  0  0  0  0  0
  153.4616  142.5906  160.3675 C   0  0  0  0  0  0  0  0  0  0  0  0
  153.7470  141.2158  160.4685 C   0  0  0  0  0  0  0  0  0  0  0  0
  153.1323  140.2991  159.5934 C   0  0  0  0  0  0  0  0  0  0  0  0
  153.4304  138.9815  159.6961 F   0  0  0  0  0  0  0  0  0  0  0  0
  149.7791  139.3950  157.0186 H   0  0  0  0  0  0  0  0  0  0  0  0
  151.9538  138.7692  157.8494 H   0  0  0  0  0  0  0  0  0  0  0  0
  151.7396  141.2048  156.0090 H   0  0  0  0  0  0  0  0  0  0  0  0
  152.8603  139.8671  155.8940 H   0  0  0  0  0  0  0  0  0  0  0  0
  151.7707  137.4563  154.9222 H   0  0  0  0  0  0  0  0  0  0  0  0
  147.4331  138.7724  152.6567 H   0  0  0  0  0  0  0  0  0  0  0  0
  146.4852  141.0535  153.0402 H   0  0  0  0  0  0  0  0  0  0  0  0
  147.6317  142.6761  154.5033 H   0  0  0  0  0  0  0  0  0  0  0  0
  149.7697  142.0917  155.6467 H   0  0  0  0  0  0  0  0  0  0  0  0
  151.2614  142.5012  157.7605 H   0  0  0  0  0  0  0  0  0  0  0  0
  153.9351  143.2920  161.0387 H   0  0  0  0  0  0  0  0  0  0  0  0
  154.4412  140.8642  161.2175 H   0  0  0  0  0  0  0  0  0  0  0  0
  149.7023  137.1584  153.4290 H   0  0  0  0  0  0  0  0  0  0  0  0
  1  2  1  0  0  0  0
  1 21  1  0  0  0  0
  2  3  1  0  0  0  0
  2 13  1  0  0  0  0
  2 22  1  0  0  0  0
  3  4  1  0  0  0  0
  3 23  1  0  0  0  0
  3 24  1  0  0  0  0
  4 12  1  0  0  0  0
  4  5  1  0  0  0  0
  5  6  2  0  0  0  0
  5 25  1  0  0  0  0
  6  7  1  0  0  0  0
  6 33  1  0  0  0  0
  7 12  2  0  0  0  0
  7  8  1  0  0  0  0
  8  9  2  0  0  0  0
  8 26  1  0  0  0  0
  9 10  1  0  0  0  0
  9 27  1  0  0  0  0
 10 11  2  0  0  0  0
 10 28  1  0  0  0  0
 11 12  1  0  0  0  0
 11 29  1  0  0  0  0
 13 19  1  0  0  0  0
 13 14  2  0  0  0  0
 14 15  1  0  0  0  0
 14 30  1  0  0  0  0
 15 16  1  0  0  0  0
 15 17  2  0  0  0  0
 17 18  1  0  0  0  0
 17 31  1  0  0  0  0
 18 19  2  0  0  0  0
 18 32  1  0  0  0  0
 19 20  1  0  0  0  0
M  CHG  1   6   1
M  END
> <s_m_source_file>
AV-unprocessed.smi

> <i_m_source_file_index>
1877

> <i_lp_mmshare_version>
43012

> <i_f3d_flags>
0

> <s_epik_input>
RmMxW2NIXVtjSF1jKEYpW2NIXWMxW0NASF0oW09IXSlbQ0gyXW4oW2NIXW4yKWMoYzIzKVtjSF1bY0hdW2NIXVtjSF0z

> <s_epik_cmdline>
J2VwaWtfcHl0aG9uJywgJy1waCcsICc3LjAnLCAnLXRuJywgJzgnLCAnLW1hJywgJzIwMCcsICctbWV0YWxfYmluZGluZycsICctaW1hZScsICc8aW5maWxlLm1hZT4nLCAnLW9tYWUnLCAnPG91dGZpbGUubWFlPic=

> <r_epik_Ionization_Penalty>
1.3029

> <r_epik_Ionization_Penalty_Charging>
1.3029

> <r_epik_Ionization_Penalty_Neutral>
3.53208e-06

> <r_epik_State_Penalty>
1.377

> <r_epik_Charging_Adjusted_Penalty>
2.6799

> <i_epik_Tot_Q>
1

> <i_epik_Tot_abs_Q>
1

> <r_epik_Metal_State_Penalty>
5.40879

> <b_epik_Metal_Only>
0

> <s_lp_Force_Field>
OPLS_2005

> <r_lp_Energy>
17.5281

> <b_lp_Chiralities_Consistent>
1

> <s_lp_Variant>
AV-unprocessed.smi:1877-4

> <Gold.Version>
5.8.1

> <Gold.Id.Protein>
6NUR|6NUR_protein|mol2

> <Gold.PLP.Fitness>
52.1351

> <Gold.PLP.PLP>
-47.1910

> <Gold.PLP.part.hbond>
-1.0000

> <Gold.PLP.part.metal>
0.0000

> <Gold.PLP.part.buried>
-0.9695

> <Gold.PLP.part.nonpolar>
-45.7048

> <Gold.PLP.part.repulsive>
0.0423

> <Gold.PLP.ligand.clash>
0.0000

> <Gold.PLP.ligand.torsion>
0.5349

> <Gold.PLP.Chemscore.Hbond>
2.0000

> <Gold.PLP.Chemscore.CHOScore>
0.0000

> <Gold.PLP.Chemscore.Metal>
0.0000

> <Gold.Chemscore.Hbonds>
donor molecule, donor type, donor heavy atom, donor atom, acceptor molecule, acceptor atom, score
      L1  H     6    33       P1  7948  2.00

> <Gold.PLP.Chemscore.Internal.Correction>
0.0140

> <Gold.Rescore>
     Score         DG    S(hbond)    S(metal)    S(lipo)     H(rot)  DE(clash)    DE(int)     intcor
     15.36     -16.11       0.94        0.00     109.17       2.06       0.34       0.41       ----

> <Gold.Chemscore.Fitness>
15.3643

> <Gold.Chemscore.DG>
-16.1053

> <Gold.Chemscore.ZeroCoef>
-5.4800

> <Gold.Chemscore.Hbond>
0.9358

> <Gold.Chemscore.Metal>
0.0000

> <Gold.Chemscore.Lipo>
109.1668

> <Gold.Chemscore.Internal_Hbond>
0.0000

> <Gold.Chemscore.DEClash>
0.3352

> <Gold.Chemscore.DEInternal>
0.4058

> <Gold.Chemscore.Rot>
2.0597

> <Gold.Chemscore.Internal.Correction>
   9.000000E+99

> <Gold.Chemscore.Hbonds>
donor molecule, donor type, donor heavy atom, donor atom, acceptor molecule, acceptor atom, score
      L1  H     6    33       P1  7948  0.66

> <Gold.Chemscore.Hbond.Weighted>
-3.1256

> <Gold.Chemscore.Metal.Weighted>
-0.0000

> <Gold.Chemscore.Lipo.Weighted>
-12.7725

> <Gold.Chemscore.Internal_Hbond.Weighted>
0.0000

> <Gold.Chemscore.DEClash.Weighted>
0.3352

> <Gold.Chemscore.DEInternal.Weighted>
0.4058

> <Gold.Chemscore.Rot.Weighted>
5.2728

> <Gold.Chemscore.Internal.Correction.Weighted>
   9.000000E+99

> <Gold.Protein.RotatedTorsions>
[ 6907 6896 6895 6894 ] final  170.83 input  -60.11 | X-H torsion
[ 7974 7965 7964 7962 ] final   -4.59 input  175.53 | X-H torsion
[ 8008 7997 7996 7995 ] final -114.05 input   59.86 | X-H torsion
[ 10167 10162 10161 10158 ] final -173.42 input  -65.29 | X-H torsion
[ 10718 10713 10712 10709 ] final  -93.75 input   66.30 | X-H torsion
[ 10763 10752 10751 10750 ] final  -76.03 input  -60.55 | X-H torsion
[ 11005 11000 10999 10996 ] final  -65.26 input  -57.11 | X-H torsion

> <Gold.Protein.ActiveResidues>
 VAL166  LYS551  ARG553  GLY616  TRP617  ASP618  TYR619  PRO620  LYS621  CYS622 
 ASP623  PHE694  ASN695  SER759  ASP760  ASP761  ALA762  ILE779  LEU786  VAL792 
 PHE793  MET794  SER795  GLU796  ALA797  LYS798  CYS799  TRP800  GLU811  SER814 

> <Gold.Protein.RotatedAtoms>
  151.8099  133.3380  159.3551 H   0  0  0  0  0  0  0  0  0  0  0  0  # atno 6907 bound_to 6896
  150.7329  134.5674  159.5882 H   0  0  0  0  0  0  0  0  0  0  0  0  # atno 6908 bound_to 6896
  152.3082  134.7530  160.0393 H   0  0  0  0  0  0  0  0  0  0  0  0  # atno 6909 bound_to 6896
  146.2369  140.1894  142.8332 H   0  0  0  0  0  0  0  0  0  0  0  0  # atno 7974 bound_to 7965
  155.0303  140.0393  157.2471 H   0  0  0  0  0  0  0  0  0  0  0  0  # atno 8008 bound_to 7997
  154.7302  140.2729  155.6439 H   0  0  0  0  0  0  0  0  0  0  0  0  # atno 8009 bound_to 7997
  156.2839  140.2685  156.2000 H   0  0  0  0  0  0  0  0  0  0  0  0  # atno 8010 bound_to 7997
  139.5689  144.1688  152.1355 H   0  0  0  0  0  0  0  0  0  0  0  0  # atno 10167 bound_to 10162
  156.0017  130.5040  150.5823 H   0  0  0  0  0  0  0  0  0  0  0  0  # atno 10718 bound_to 10713
  154.4945  135.5811  153.6484 H   0  0  0  0  0  0  0  0  0  0  0  0  # atno 10763 bound_to 10752
  152.9868  135.6120  154.3082 H   0  0  0  0  0  0  0  0  0  0  0  0  # atno 10764 bound_to 10752
  154.2985  135.2847  155.2601 H   0  0  0  0  0  0  0  0  0  0  0  0  # atno 10765 bound_to 10752
  141.1449  133.6679  156.5959 H   0  0  0  0  0  0  0  0  0  0  0  0  # atno 11005 bound_to 11000
  144.9870  140.8512  143.5362 LP  0  0  0  0  0  0  0  0  0  0  0  0  # atno 17320 bound_to 7965
  145.1895  139.2308  143.5250 LP  0  0  0  0  0  0  0  0  0  0  0  0  # atno 17321 bound_to 7965
  140.1217  144.5368  150.6859 LP  0  0  0  0  0  0  0  0  0  0  0  0  # atno 17342 bound_to 10162
  140.6974  143.2412  151.4963 LP  0  0  0  0  0  0  0  0  0  0  0  0  # atno 17343 bound_to 10162
  157.3701  131.0764  151.1564 LP  0  0  0  0  0  0  0  0  0  0  0  0  # atno 17370 bound_to 10713
  157.2321  130.6530  149.5854 LP  0  0  0  0  0  0  0  0  0  0  0  0  # atno 17371 bound_to 10713
  140.3726  134.7592  157.4609 LP  0  0  0  0  0  0  0  0  0  0  0  0  # atno 17394 bound_to 11000
  140.0699  134.5878  155.8654 LP  0  0  0  0  0  0  0  0  0  0  0  0  # atno 17395 bound_to 11000

$$$$
