AV-unprocessed.smi:3241|AV-procd|sdf|12391|dock5
  -GOLD-   2272018263D 1   1.00000     0.00000
 Structure written by MMmdl.
 43 44  0  0  0  0  0  0  0  0  1 V2000
  146.7334  142.6226  154.0307 C   0  0  0  0  0  0  0  0  0  0  0  0
  147.6047  141.3758  153.8132 C   0  0  2  0  0  0  0  0  0  0  0  0
  146.8387  140.0762  154.1347 C   0  0  0  0  0  0  0  0  0  0  0  0
  147.7049  138.8315  153.8823 C   0  0  0  0  0  0  0  0  0  0  0  0
  149.0259  138.9019  154.6628 C   0  0  0  0  0  0  0  0  0  0  0  0
  149.7928  140.1954  154.3442 C   0  0  0  0  0  0  0  0  0  0  0  0
  148.9325  141.4508  154.5996 C   0  0  2  0  0  0  0  0  0  0  0  0
  148.6415  141.5407  155.9924 O   0  0  0  0  0  0  0  0  0  0  0  0
  149.7529  141.7706  156.8522 C   0  0  0  0  0  0  0  0  0  0  0  0
  149.3241  142.0869  158.2937 C   0  0  0  0  0  0  0  0  0  0  0  0
  150.4062  142.7356  159.0236 N   0  0  0  0  0  0  0  0  0  0  0  0
  150.8096  144.0217  158.4651 C   0  0  0  0  0  0  0  0  0  0  0  0
  152.0184  144.6036  159.2146 C   0  0  0  0  0  0  0  0  0  0  0  0
  152.4782  143.7208  160.2733 N   0  0  0  0  0  0  0  0  0  0  0  0
  152.3410  143.8758  161.6368 C   0  0  0  0  0  0  0  0  0  0  0  0
  152.9392  142.8016  162.2304 C   0  0  0  0  0  0  0  0  0  0  0  0
  153.4191  142.0331  161.1331 C   0  0  0  0  0  0  0  0  0  0  0  0
  153.1404  142.5847  159.9632 N   0  0  0  0  0  0  0  0  0  0  0  0
  146.4075  142.7056  155.0680 H   0  0  0  0  0  0  0  0  0  0  0  0
  145.8411  142.5907  153.4050 H   0  0  0  0  0  0  0  0  0  0  0  0
  147.2802  143.5318  153.7796 H   0  0  0  0  0  0  0  0  0  0  0  0
  147.8580  141.3498  152.7523 H   0  0  0  0  0  0  0  0  0  0  0  0
  146.5115  140.0862  155.1753 H   0  0  0  0  0  0  0  0  0  0  0  0
  145.9335  140.0176  153.5296 H   0  0  0  0  0  0  0  0  0  0  0  0
  147.1548  137.9331  154.1636 H   0  0  0  0  0  0  0  0  0  0  0  0
  147.9158  138.7434  152.8160 H   0  0  0  0  0  0  0  0  0  0  0  0
  148.8237  138.8502  155.7336 H   0  0  0  0  0  0  0  0  0  0  0  0
  149.6442  138.0362  154.4251 H   0  0  0  0  0  0  0  0  0  0  0  0
  150.7111  140.2303  154.9294 H   0  0  0  0  0  0  0  0  0  0  0  0
  150.1027  140.1794  153.2987 H   0  0  0  0  0  0  0  0  0  0  0  0
  149.4818  142.3309  154.2603 H   0  0  0  0  0  0  0  0  0  0  0  0
  150.4165  140.9050  156.8323 H   0  0  0  0  0  0  0  0  0  0  0  0
  150.3269  142.6050  156.4484 H   0  0  0  0  0  0  0  0  0  0  0  0
  148.4309  142.7115  158.2995 H   0  0  0  0  0  0  0  0  0  0  0  0
  149.0508  141.1580  158.7953 H   0  0  0  0  0  0  0  0  0  0  0  0
  150.1576  142.8396  160.0022 H   0  0  0  0  0  0  0  0  0  0  0  0
  151.0551  143.9121  157.4081 H   0  0  0  0  0  0  0  0  0  0  0  0
  149.9772  144.7239  158.5199 H   0  0  0  0  0  0  0  0  0  0  0  0
  152.8450  144.7560  158.5199 H   0  0  0  0  0  0  0  0  0  0  0  0
  151.7780  145.5823  159.6336 H   0  0  0  0  0  0  0  0  0  0  0  0
  151.8384  144.7302  162.0655 H   0  0  0  0  0  0  0  0  0  0  0  0
  153.0239  142.5966  163.2872 H   0  0  0  0  0  0  0  0  0  0  0  0
  153.9592  141.0979  161.1518 H   0  0  0  0  0  0  0  0  0  0  0  0
  1  2  1  0  0  0  0
  1 19  1  0  0  0  0
  1 20  1  0  0  0  0
  1 21  1  0  0  0  0
  2  7  1  0  0  0  0
  2  3  1  0  0  0  0
  2 22  1  0  0  0  0
  3  4  1  0  0  0  0
  3 23  1  0  0  0  0
  3 24  1  0  0  0  0
  4  5  1  0  0  0  0
  4 25  1  0  0  0  0
  4 26  1  0  0  0  0
  5  6  1  0  0  0  0
  5 27  1  0  0  0  0
  5 28  1  0  0  0  0
  6  7  1  0  0  0  0
  6 29  1  0  0  0  0
  6 30  1  0  0  0  0
  7  8  1  0  0  0  0
  7 31  1  0  0  0  0
  8  9  1  0  0  0  0
  9 10  1  0  0  0  0
  9 32  1  0  0  0  0
  9 33  1  0  0  0  0
 10 11  1  0  0  0  0
 10 34  1  0  0  0  0
 10 35  1  0  0  0  0
 11 12  1  0  0  0  0
 11 36  1  0  0  0  0
 12 13  1  0  0  0  0
 12 37  1  0  0  0  0
 12 38  1  0  0  0  0
 13 14  1  0  0  0  0
 13 39  1  0  0  0  0
 13 40  1  0  0  0  0
 14 18  1  0  0  0  0
 14 15  1  0  0  0  0
 15 16  2  0  0  0  0
 15 41  1  0  0  0  0
 16 17  1  0  0  0  0
 16 42  1  0  0  0  0
 17 18  2  0  0  0  0
 17 43  1  0  0  0  0
M  END
> <s_m_source_file>
AV-unprocessed.smi

> <i_m_source_file_index>
3241

> <i_lp_mmshare_version>
43012

> <i_f3d_flags>
0

> <s_epik_input>
W0NIM11bQ0BASF0xW0NIMl1bQ0gyXVtDSDJdW0NIMl1bQ0BIXTFPW0NIMl1bQ0gyXVtOSF1bQ0gyXVtDSDJdbjJbY0hdW2NIXVtjSF1uMg==

> <s_epik_cmdline>
J2VwaWtfcHl0aG9uJywgJy1waCcsICc3LjAnLCAnLXRuJywgJzgnLCAnLW1hJywgJzIwMCcsICctbWV0YWxfYmluZGluZycsICctaW1hZScsICc8aW5maWxlLm1hZT4nLCAnLW9tYWUnLCAnPG91dGZpbGUubWFlPic=

> <r_lp_tautomer_probability>
1

> <r_epik_Ionization_Penalty>
2.47055

> <r_epik_Ionization_Penalty_Charging>
0

> <r_epik_Ionization_Penalty_Neutral>
2.47055

> <r_epik_State_Penalty>
2.6322

> <r_epik_Charging_Adjusted_Penalty>
2.6322

> <i_epik_Tot_Q>
0

> <i_epik_Tot_abs_Q>
0

> <r_epik_Metal_State_Penalty>
2.63108

> <b_epik_Metal_Only>
0

> <s_lp_Force_Field>
OPLS_2005

> <r_lp_Energy>
17.4206

> <b_lp_Chiralities_Consistent>
1

> <s_lp_Variant>
AV-unprocessed.smi:3241-7

> <Gold.Version>
5.8.1

> <Gold.Id.Protein>
6NUR|6NUR_protein|mol2

> <Gold.PLP.Fitness>
43.4830

> <Gold.PLP.PLP>
-44.6532

> <Gold.PLP.part.hbond>
-0.4854

> <Gold.PLP.part.metal>
0.0000

> <Gold.PLP.part.buried>
-5.3928

> <Gold.PLP.part.nonpolar>
-39.0201

> <Gold.PLP.part.repulsive>
0.1088

> <Gold.PLP.ligand.clash>
0.0000

> <Gold.PLP.ligand.torsion>
0.6555

> <Gold.PLP.Chemscore.Hbond>
0.0000

> <Gold.PLP.Chemscore.CHOScore>
0.0000

> <Gold.PLP.Chemscore.Metal>
0.0000

> <Gold.PLP.Chemscore.Internal.Correction>
0.1407

> <Gold.Rescore>
     Score         DG    S(hbond)    S(metal)    S(lipo)     H(rot)  DE(clash)    DE(int)     intcor
     13.31     -14.29       0.00        0.00     114.43       1.79       0.09       0.88       ----

> <Gold.Chemscore.Fitness>
13.3113

> <Gold.Chemscore.DG>
-14.2854

> <Gold.Chemscore.ZeroCoef>
-5.4800

> <Gold.Chemscore.Hbond>
0.0000

> <Gold.Chemscore.Metal>
0.0000

> <Gold.Chemscore.Lipo>
114.4282

> <Gold.Chemscore.Internal_Hbond>
0.0000

> <Gold.Chemscore.DEClash>
0.0901

> <Gold.Chemscore.DEInternal>
0.8840

> <Gold.Chemscore.Rot>
1.7901

> <Gold.Chemscore.Internal.Correction>
   9.000000E+99

> <Gold.Chemscore.Hbond.Weighted>
-0.0000

> <Gold.Chemscore.Metal.Weighted>
-0.0000

> <Gold.Chemscore.Lipo.Weighted>
-13.3881

> <Gold.Chemscore.Internal_Hbond.Weighted>
0.0000

> <Gold.Chemscore.DEClash.Weighted>
0.0901

> <Gold.Chemscore.DEInternal.Weighted>
0.8840

> <Gold.Chemscore.Rot.Weighted>
4.5827

> <Gold.Chemscore.Internal.Correction.Weighted>
   9.000000E+99

> <Gold.Protein.RotatedTorsions>
[ 6907 6896 6895 6894 ] final    8.44 input  -60.11 | X-H torsion
[ 7974 7965 7964 7962 ] final -126.16 input  175.53 | X-H torsion
[ 8008 7997 7996 7995 ] final -146.27 input   59.86 | X-H torsion
[ 10167 10162 10161 10158 ] final   56.13 input  -65.29 | X-H torsion
[ 10718 10713 10712 10709 ] final   89.19 input   66.30 | X-H torsion
[ 10763 10752 10751 10750 ] final -124.81 input  -60.55 | X-H torsion
[ 11005 11000 10999 10996 ] final -172.10 input  -57.11 | X-H torsion

> <Gold.Protein.ActiveResidues>
 VAL166  LYS551  ARG553  GLY616  TRP617  ASP618  TYR619  PRO620  LYS621  CYS622 
 ASP623  PHE694  ASN695  SER759  ASP760  ASP761  ALA762  ILE779  LEU786  VAL792 
 PHE793  MET794  SER795  GLU796  ALA797  LYS798  CYS799  TRP800  GLU811  SER814 

> <Gold.Protein.RotatedAtoms>
  151.7060  135.0921  160.0259 H   0  0  0  0  0  0  0  0  0  0  0  0  # atno 6907 bound_to 6896
  152.3691  133.6391  159.6081 H   0  0  0  0  0  0  0  0  0  0  0  0  # atno 6908 bound_to 6896
  150.7660  133.9216  159.3441 H   0  0  0  0  0  0  0  0  0  0  0  0  # atno 6909 bound_to 6896
  144.9901  140.7724  143.4559 H   0  0  0  0  0  0  0  0  0  0  0  0  # atno 7974 bound_to 7965
  155.5566  140.0621  157.2838 H   0  0  0  0  0  0  0  0  0  0  0  0  # atno 8008 bound_to 7997
  154.4403  140.1893  156.0785 H   0  0  0  0  0  0  0  0  0  0  0  0  # atno 8009 bound_to 7997
  156.0477  140.3288  155.7319 H   0  0  0  0  0  0  0  0  0  0  0  0  # atno 8010 bound_to 7997
  140.2121  144.3878  150.6485 H   0  0  0  0  0  0  0  0  0  0  0  0  # atno 10167 bound_to 10162
  157.6954  131.0324  150.3389 H   0  0  0  0  0  0  0  0  0  0  0  0  # atno 10718 bound_to 10713
  154.8728  135.4051  154.3167 H   0  0  0  0  0  0  0  0  0  0  0  0  # atno 10763 bound_to 10752
  153.4002  135.7018  153.6437 H   0  0  0  0  0  0  0  0  0  0  0  0  # atno 10764 bound_to 10752
  153.5183  135.3692  155.2591 H   0  0  0  0  0  0  0  0  0  0  0  0  # atno 10765 bound_to 10752
  140.5008  134.5895  157.4987 H   0  0  0  0  0  0  0  0  0  0  0  0  # atno 11005 bound_to 11000
  145.2297  139.2120  143.5049 LP  0  0  0  0  0  0  0  0  0  0  0  0  # atno 17320 bound_to 7965
  146.3429  140.2172  142.8591 LP  0  0  0  0  0  0  0  0  0  0  0  0  # atno 17321 bound_to 7965
  140.6316  143.2188  151.6483 LP  0  0  0  0  0  0  0  0  0  0  0  0  # atno 17342 bound_to 10162
  139.5176  144.3310  152.0826 LP  0  0  0  0  0  0  0  0  0  0  0  0  # atno 17343 bound_to 10162
  156.3852  130.3888  149.7071 LP  0  0  0  0  0  0  0  0  0  0  0  0  # atno 17370 bound_to 10713
  156.4439  130.7874  151.2896 LP  0  0  0  0  0  0  0  0  0  0  0  0  # atno 17371 bound_to 10713
  139.9714  134.7286  156.0033 LP  0  0  0  0  0  0  0  0  0  0  0  0  # atno 17394 bound_to 11000
  141.1436  133.6560  156.3802 LP  0  0  0  0  0  0  0  0  0  0  0  0  # atno 17395 bound_to 11000

$$$$
