AV-unprocessed.smi:1691|AV-procd|sdf|6777|dock6
  -GOLD-   22720 7533D 1   1.00000     0.00000
 Structure written by MMmdl.
 43 44  0  0  0  0  0  0  0  0  1 V2000
  145.8310  140.9003  155.6633 C   0  0  0  0  0  0  0  0  0  0  0  0
  146.2694  139.4273  155.7847 C   0  0  0  0  0  0  0  0  0  0  0  0
  146.4781  139.0307  157.2564 C   0  0  0  0  0  0  0  0  0  0  0  0
  147.4506  138.9669  154.8719 C   0  0  1  0  0  0  0  0  0  0  0  0
  147.1789  139.1534  153.3517 C   0  0  0  0  0  0  0  0  0  0  0  0
  147.1000  137.8876  152.6292 N   0  0  0  0  0  0  0  0  0  0  0  0
  145.9626  137.2973  152.2365 C   0  0  0  0  0  0  0  0  0  0  0  0
  144.8437  137.7633  152.4543 O   0  0  0  0  0  0  0  0  0  0  0  0
  146.2083  136.1503  151.5826 N   0  0  0  0  0  0  0  0  0  0  0  0
  145.2595  135.2639  151.0129 C   0  0  0  0  0  0  0  0  0  0  0  0
  145.4710  133.8732  150.8100 C   0  0  0  0  0  0  0  0  0  0  0  0
  144.4117  133.2981  150.2590 N   0  0  0  0  0  0  0  0  0  0  0  0
  143.5259  134.3085  150.1079 N   0  0  0  0  0  0  0  0  0  0  0  0
  143.9987  135.5233  150.5532 C   0  0  0  0  0  0  0  0  0  0  0  0
  148.7891  139.4020  155.3171 N   0  0  0  0  0  0  0  0  0  0  0  0
  149.1067  140.8093  155.0781 C   0  0  0  0  0  0  0  0  0  0  0  0
  150.4809  141.1881  155.6579 C   0  0  0  0  0  0  0  0  0  0  0  0
  151.4845  140.3358  155.1159 O   0  0  0  0  0  0  0  0  0  0  0  0
  151.2321  138.9586  155.3740 C   0  0  0  0  0  0  0  0  0  0  0  0
  149.8658  138.5681  154.7859 C   0  0  0  0  0  0  0  0  0  0  0  0
  142.6125  134.1549  149.7045 H   0  0  0  0  0  0  0  0  0  0  0  0
  146.5302  141.5865  156.1356 H   0  0  0  0  0  0  0  0  0  0  0  0
  144.8736  141.0476  156.1635 H   0  0  0  0  0  0  0  0  0  0  0  0
  145.6939  141.2089  154.6279 H   0  0  0  0  0  0  0  0  0  0  0  0
  145.4045  138.8496  155.4567 H   0  0  0  0  0  0  0  0  0  0  0  0
  147.2887  139.5993  157.7135 H   0  0  0  0  0  0  0  0  0  0  0  0
  146.7202  137.9715  157.3480 H   0  0  0  0  0  0  0  0  0  0  0  0
  145.5775  139.2132  157.8431 H   0  0  0  0  0  0  0  0  0  0  0  0
  147.4486  137.8858  155.0183 H   0  0  0  0  0  0  0  0  0  0  0  0
  146.2412  139.6836  153.1890 H   0  0  0  0  0  0  0  0  0  0  0  0
  147.9503  139.7674  152.8867 H   0  0  0  0  0  0  0  0  0  0  0  0
  147.9746  137.4347  152.4075 H   0  0  0  0  0  0  0  0  0  0  0  0
  147.1763  135.8841  151.4777 H   0  0  0  0  0  0  0  0  0  0  0  0
  146.3399  133.2743  151.0399 H   0  0  0  0  0  0  0  0  0  0  0  0
  143.4102  136.4271  150.5011 H   0  0  0  0  0  0  0  0  0  0  0  0
  149.1068  141.0183  154.0080 H   0  0  0  0  0  0  0  0  0  0  0  0
  148.3599  141.4566  155.5256 H   0  0  0  0  0  0  0  0  0  0  0  0
  150.7225  142.2228  155.4142 H   0  0  0  0  0  0  0  0  0  0  0  0
  150.4754  141.1082  156.7460 H   0  0  0  0  0  0  0  0  0  0  0  0
  152.0239  138.3600  154.9235 H   0  0  0  0  0  0  0  0  0  0  0  0
  151.2587  138.7709  156.4485 H   0  0  0  0  0  0  0  0  0  0  0  0
  149.6693  137.5186  155.0071 H   0  0  0  0  0  0  0  0  0  0  0  0
  149.9145  138.6565  153.7007 H   0  0  0  0  0  0  0  0  0  0  0  0
  1  2  1  0  0  0  0
  1 22  1  0  0  0  0
  1 23  1  0  0  0  0
  1 24  1  0  0  0  0
  2  3  1  0  0  0  0
  2  4  1  0  0  0  0
  2 25  1  0  0  0  0
  3 26  1  0  0  0  0
  3 27  1  0  0  0  0
  3 28  1  0  0  0  0
  4  5  1  0  0  0  0
  4 15  1  0  0  0  0
  4 29  1  0  0  0  0
  5  6  1  0  0  0  0
  5 30  1  0  0  0  0
  5 31  1  0  0  0  0
  6  7  1  0  0  0  0
  6 32  1  0  0  0  0
  7  8  2  0  0  0  0
  7  9  1  0  0  0  0
  9 10  1  0  0  0  0
  9 33  1  0  0  0  0
 10 14  2  0  0  0  0
 10 11  1  0  0  0  0
 11 12  2  0  0  0  0
 11 34  1  0  0  0  0
 12 13  1  0  0  0  0
 13 21  1  0  0  0  0
 13 14  1  0  0  0  0
 14 35  1  0  0  0  0
 15 20  1  0  0  0  0
 15 16  1  0  0  0  0
 16 17  1  0  0  0  0
 16 36  1  0  0  0  0
 16 37  1  0  0  0  0
 17 18  1  0  0  0  0
 17 38  1  0  0  0  0
 17 39  1  0  0  0  0
 18 19  1  0  0  0  0
 19 20  1  0  0  0  0
 19 40  1  0  0  0  0
 19 41  1  0  0  0  0
 20 42  1  0  0  0  0
 20 43  1  0  0  0  0
M  END
> <s_m_source_file>
AV-unprocessed.smi

> <i_m_source_file_index>
1691

> <i_lp_mmshare_version>
43012

> <i_f3d_flags>
0

> <s_epik_input>
W0NIMl0xW0NIMl1PW0NIMl1bQ0gyXU4xW0NASF0oW0NIXShbQ0gzXSlbQ0gzXSlbQ0gyXVtOSF1DKD1PKVtOSF1jMltjSF1uW25IXVtjSF0y

> <s_epik_cmdline>
J2VwaWtfcHl0aG9uJywgJy1waCcsICc3LjAnLCAnLXRuJywgJzgnLCAnLW1hJywgJzIwMCcsICctbWV0YWxfYmluZGluZycsICctaW1hZScsICc8aW5maWxlLm1hZT4nLCAnLW9tYWUnLCAnPG91dGZpbGUubWFlPic=

> <r_lp_tautomer_probability>
0.5

> <r_epik_Ionization_Penalty>
0.462189

> <r_epik_Ionization_Penalty_Charging>
0

> <r_epik_Ionization_Penalty_Neutral>
0.462189

> <r_epik_State_Penalty>
0.465733

> <r_epik_Charging_Adjusted_Penalty>
0.465733

> <i_epik_Tot_Q>
0

> <i_epik_Tot_abs_Q>
0

> <r_epik_Metal_State_Penalty>
0.465732

> <b_epik_Metal_Only>
0

> <s_lp_Force_Field>
OPLS_2005

> <r_lp_Energy>
41.1245

> <b_lp_Chiralities_Consistent>
1

> <s_lp_Variant>
AV-unprocessed.smi:1691-4

> <Gold.Version>
5.8.1

> <Gold.Id.Protein>
6NUR|6NUR_protein|mol2

> <Gold.PLP.Fitness>
38.6821

> <Gold.PLP.PLP>
-26.1487

> <Gold.PLP.part.hbond>
-3.9277

> <Gold.PLP.part.metal>
0.0000

> <Gold.PLP.part.buried>
-4.4555

> <Gold.PLP.part.nonpolar>
-19.6284

> <Gold.PLP.part.repulsive>
0.8292

> <Gold.PLP.ligand.clash>
0.0000

> <Gold.PLP.ligand.torsion>
1.2660

> <Gold.PLP.Chemscore.Hbond>
3.8880

> <Gold.PLP.Chemscore.CHOScore>
1.0000

> <Gold.PLP.Chemscore.Metal>
0.0000

> <Gold.Chemscore.Hbonds>
donor molecule, donor type, donor heavy atom, donor atom, acceptor molecule, acceptor atom, score
      L1  H     6    32       P1  7948  1.00
      L1  H     9    33       P1  7948  0.99
      L1  H    13    21       P1 10186  1.00
      P1  H  7989  7998       L1    18  0.96
      L1  C    14    35       P1 10171  1.00

> <Gold.PLP.Chemscore.Internal.Correction>
0.4014

> <Gold.Rescore>
     Score         DG    S(hbond)    S(metal)    S(lipo)     H(rot)  DE(clash)    DE(int)     intcor
     16.74     -18.67       3.48        0.00      52.55       1.79       0.56       1.38       ----

> <Gold.Chemscore.Fitness>
16.7357

> <Gold.Chemscore.DG>
-18.6694

> <Gold.Chemscore.ZeroCoef>
-5.4800

> <Gold.Chemscore.Hbond>
3.4796

> <Gold.Chemscore.Metal>
0.0000

> <Gold.Chemscore.Lipo>
52.5476

> <Gold.Chemscore.Internal_Hbond>
0.0000

> <Gold.Chemscore.DEClash>
0.5577

> <Gold.Chemscore.DEInternal>
1.3760

> <Gold.Chemscore.Rot>
1.7893

> <Gold.Chemscore.Internal.Correction>
   9.000000E+99

> <Gold.Chemscore.Hbonds>
donor molecule, donor type, donor heavy atom, donor atom, acceptor molecule, acceptor atom, score
      L1  H     6    32       P1  7948  0.98
      L1  H     9    33       P1  7948  0.94
      L1  H    13    21       P1 10186  0.97
      P1  H  7989  7998       L1    18  0.40

> <Gold.Chemscore.Hbond.Weighted>
-11.6219

> <Gold.Chemscore.Metal.Weighted>
-0.0000

> <Gold.Chemscore.Lipo.Weighted>
-6.1481

> <Gold.Chemscore.Internal_Hbond.Weighted>
0.0000

> <Gold.Chemscore.DEClash.Weighted>
0.5577

> <Gold.Chemscore.DEInternal.Weighted>
1.3760

> <Gold.Chemscore.Rot.Weighted>
4.5805

> <Gold.Chemscore.Internal.Correction.Weighted>
   9.000000E+99

> <Gold.Protein.RotatedTorsions>
[ 6907 6896 6895 6894 ] final   13.84 input  -60.11 | X-H torsion
[ 7974 7965 7964 7962 ] final  140.82 input  175.53 | X-H torsion
[ 8008 7997 7996 7995 ] final  -62.65 input   59.86 | X-H torsion
[ 10167 10162 10161 10158 ] final -119.62 input  -65.29 | X-H torsion
[ 10718 10713 10712 10709 ] final   46.47 input   66.30 | X-H torsion
[ 10763 10752 10751 10750 ] final -124.90 input  -60.55 | X-H torsion
[ 11005 11000 10999 10996 ] final   72.59 input  -57.11 | X-H torsion

> <Gold.Protein.ActiveResidues>
 VAL166  LYS551  ARG553  GLY616  TRP617  ASP618  TYR619  PRO620  LYS621  CYS622 
 ASP623  PHE694  ASN695  SER759  ASP760  ASP761  ALA762  ILE779  LEU786  VAL792 
 PHE793  MET794  SER795  GLU796  ALA797  LYS798  CYS799  TRP800  GLU811  SER814 

> <Gold.Protein.RotatedAtoms>
  151.7927  135.0731  160.0389 H   0  0  0  0  0  0  0  0  0  0  0  0  # atno 6907 bound_to 6896
  152.3145  133.5783  159.5711 H   0  0  0  0  0  0  0  0  0  0  0  0  # atno 6908 bound_to 6896
  150.7337  134.0020  159.3683 H   0  0  0  0  0  0  0  0  0  0  0  0  # atno 6909 bound_to 6896
  144.9151  139.5241  143.5690 H   0  0  0  0  0  0  0  0  0  0  0  0  # atno 7974 bound_to 7965
  154.4511  140.0991  156.6620 H   0  0  0  0  0  0  0  0  0  0  0  0  # atno 8008 bound_to 7997
  155.5283  140.3480  155.4402 H   0  0  0  0  0  0  0  0  0  0  0  0  # atno 8009 bound_to 7997
  156.0682  140.1343  156.9849 H   0  0  0  0  0  0  0  0  0  0  0  0  # atno 8010 bound_to 7997
  140.0446  143.5119  152.2113 H   0  0  0  0  0  0  0  0  0  0  0  0  # atno 10167 bound_to 10162
  157.4484  130.8123  149.7764 H   0  0  0  0  0  0  0  0  0  0  0  0  # atno 10718 bound_to 10713
  154.8729  135.4048  154.3181 H   0  0  0  0  0  0  0  0  0  0  0  0  # atno 10763 bound_to 10752
  153.4014  135.7018  153.6429 H   0  0  0  0  0  0  0  0  0  0  0  0  # atno 10764 bound_to 10752
  153.5170  135.3695  155.2585 H   0  0  0  0  0  0  0  0  0  0  0  0  # atno 10765 bound_to 10752
  139.9483  134.7273  156.0924 H   0  0  0  0  0  0  0  0  0  0  0  0  # atno 11005 bound_to 11000
  146.3178  139.7988  142.8970 LP  0  0  0  0  0  0  0  0  0  0  0  0  # atno 17320 bound_to 7965
  145.3388  141.0283  143.3404 LP  0  0  0  0  0  0  0  0  0  0  0  0  # atno 17321 bound_to 7965
  139.5992  144.7577  151.3213 LP  0  0  0  0  0  0  0  0  0  0  0  0  # atno 17342 bound_to 10162
  140.7244  143.7044  150.7819 LP  0  0  0  0  0  0  0  0  0  0  0  0  # atno 17343 bound_to 10162
  155.9977  130.3898  150.2730 LP  0  0  0  0  0  0  0  0  0  0  0  0  # atno 17370 bound_to 10713
  157.0900  131.0167  151.3125 LP  0  0  0  0  0  0  0  0  0  0  0  0  # atno 17371 bound_to 10713
  141.1139  133.6634  156.3047 LP  0  0  0  0  0  0  0  0  0  0  0  0  # atno 17394 bound_to 11000
  140.5780  134.5774  157.5473 LP  0  0  0  0  0  0  0  0  0  0  0  0  # atno 17395 bound_to 11000

$$$$
