AV-unprocessed.smi:798|AV-procd|sdf|3773|dock5
  -GOLD-   22720 1203D 1   1.00000     0.00000
 Structure written by MMmdl.
 34 36  0  0  0  0  0  0  0  0  1 V2000
  144.2457  136.9130  154.8846 O   0  0  0  0  0  0  0  0  0  0  0  0
  144.0037  137.9041  154.1952 C   0  0  0  0  0  0  0  0  0  0  0  0
  142.7992  138.2281  153.6934 N   0  0  0  0  0  0  0  0  0  0  0  0
  141.5715  137.5274  153.8292 C   0  0  0  0  0  0  0  0  0  0  0  0
  141.4678  136.3048  154.3733 N   0  0  0  0  0  0  0  0  0  0  0  0
  140.1557  135.8495  154.3822 N   0  0  0  0  0  0  0  0  0  0  0  0
  139.3225  136.7452  153.8450 C   0  0  0  0  0  0  0  0  0  0  0  0
  140.0596  138.2329  153.2755 S   0  0  0  0  0  0  0  0  0  0  0  0
  144.9328  138.8033  153.8409 N   0  0  0  0  0  0  0  0  0  0  0  0
  146.3461  138.7568  154.2214 C   0  0  2  0  0  0  0  0  0  0  0  0
  146.6965  139.7971  155.3144 C   0  0  2  0  0  0  0  0  0  0  0  0
  146.1982  141.2073  154.9314 C   0  0  0  0  0  0  0  0  0  0  0  0
  147.1337  141.5898  153.7707 C   0  0  0  0  0  0  0  0  0  0  0  0
  148.0657  140.3649  153.6602 C   0  0  1  0  0  0  0  0  0  0  0  0
  148.2008  139.9626  155.1239 C   0  0  0  0  0  0  0  0  0  0  0  0
  147.3364  139.1285  153.0789 C   0  0  2  0  0  0  0  0  0  0  0  0
  146.7569  139.2933  151.6553 C   0  0  0  0  0  0  0  0  0  0  0  0
  146.4808  138.0306  151.0877 O   0  0  0  0  0  0  0  0  0  0  0  0
  142.7557  139.0744  153.1453 H   0  0  0  0  0  0  0  0  0  0  0  0
  138.2664  136.5283  153.7835 H   0  0  0  0  0  0  0  0  0  0  0  0
  144.6457  139.5844  153.2695 H   0  0  0  0  0  0  0  0  0  0  0  0
  146.5912  137.7619  154.5989 H   0  0  0  0  0  0  0  0  0  0  0  0
  146.3962  139.4902  156.3167 H   0  0  0  0  0  0  0  0  0  0  0  0
  145.1452  141.2432  154.6528 H   0  0  0  0  0  0  0  0  0  0  0  0
  146.3333  141.8967  155.7658 H   0  0  0  0  0  0  0  0  0  0  0  0
  146.5953  141.8078  152.8496 H   0  0  0  0  0  0  0  0  0  0  0  0
  147.7063  142.4821  154.0276 H   0  0  0  0  0  0  0  0  0  0  0  0
  149.0121  140.5830  153.1643 H   0  0  0  0  0  0  0  0  0  0  0  0
  148.6354  140.7434  155.7509 H   0  0  0  0  0  0  0  0  0  0  0  0
  148.7606  139.0371  155.2715 H   0  0  0  0  0  0  0  0  0  0  0  0
  148.0695  138.3216  153.0199 H   0  0  0  0  0  0  0  0  0  0  0  0
  145.8222  139.8530  151.6954 H   0  0  0  0  0  0  0  0  0  0  0  0
  147.4270  139.8450  150.9972 H   0  0  0  0  0  0  0  0  0  0  0  0
  145.6221  138.0595  150.6940 H   0  0  0  0  0  0  0  0  0  0  0  0
  1  2  2  0  0  0  0
  2  3  1  0  0  0  0
  2  9  1  0  0  0  0
  3  4  1  0  0  0  0
  3 19  1  0  0  0  0
  4  8  1  0  0  0  0
  4  5  2  0  0  0  0
  5  6  1  0  0  0  0
  6  7  2  0  0  0  0
  7  8  1  0  0  0  0
  7 20  1  0  0  0  0
  9 10  1  0  0  0  0
  9 21  1  0  0  0  0
 10 16  1  0  0  0  0
 10 11  1  0  0  0  0
 10 22  1  0  0  0  0
 11 15  1  0  0  0  0
 11 12  1  0  0  0  0
 11 23  1  0  0  0  0
 12 13  1  0  0  0  0
 12 24  1  0  0  0  0
 12 25  1  0  0  0  0
 13 14  1  0  0  0  0
 13 26  1  0  0  0  0
 13 27  1  0  0  0  0
 14 15  1  0  0  0  0
 14 16  1  0  0  0  0
 14 28  1  0  0  0  0
 15 29  1  0  0  0  0
 15 30  1  0  0  0  0
 16 17  1  0  0  0  0
 16 31  1  0  0  0  0
 17 18  1  0  0  0  0
 17 32  1  0  0  0  0
 17 33  1  0  0  0  0
 18 34  1  0  0  0  0
M  END
> <s_m_source_file>
AV-unprocessed.smi

> <i_m_source_file_index>
798

> <i_lp_mmshare_version>
43012

> <i_f3d_flags>
0

> <s_epik_input>
W0NIMl0xW0NIMl1bQ0BASF0oW0NIMl0yKVtDQEBIXShbQ0gyXVtPSF0pW0NAQEhdKFtDQEhdMTIpW05IXUMoPU8pW05IXWMzbm5bY0hdczM=

> <s_epik_cmdline>
J2VwaWtfcHl0aG9uJywgJy1waCcsICc3LjAnLCAnLXRuJywgJzgnLCAnLW1hJywgJzIwMCcsICctbWV0YWxfYmluZGluZycsICctaW1hZScsICc8aW5maWxlLm1hZT4nLCAnLW9tYWUnLCAnPG91dGZpbGUubWFlPic=

> <r_lp_tautomer_probability>
1

> <r_epik_Ionization_Penalty>
0.000329046

> <r_epik_Ionization_Penalty_Charging>
0

> <r_epik_Ionization_Penalty_Neutral>
0.000329046

> <r_epik_State_Penalty>
-0

> <r_epik_Charging_Adjusted_Penalty>
0

> <i_epik_Tot_Q>
0

> <i_epik_Tot_abs_Q>
0

> <r_epik_Metal_State_Penalty>
0.173433

> <b_epik_Metal_Only>
0

> <s_lp_Force_Field>
OPLS_2005

> <r_lp_Energy>
50.5105

> <b_lp_Chiralities_Consistent>
1

> <s_lp_Variant>
AV-unprocessed.smi:798-5

> <Gold.Version>
5.8.1

> <Gold.Id.Protein>
6NUR|6NUR_protein|mol2

> <Gold.PLP.Fitness>
43.2320

> <Gold.PLP.PLP>
-29.0531

> <Gold.PLP.part.hbond>
-5.8578

> <Gold.PLP.part.metal>
0.0000

> <Gold.PLP.part.buried>
-0.1639

> <Gold.PLP.part.nonpolar>
-21.9419

> <Gold.PLP.part.repulsive>
0.1992

> <Gold.PLP.ligand.clash>
0.0000

> <Gold.PLP.ligand.torsion>
0.3658

> <Gold.PLP.Chemscore.Hbond>
4.9673

> <Gold.PLP.Chemscore.CHOScore>
0.0000

> <Gold.PLP.Chemscore.Metal>
0.0000

> <Gold.Chemscore.Hbonds>
donor molecule, donor type, donor heavy atom, donor atom, acceptor molecule, acceptor atom, score
      L1  H     3    19       P1 10175  0.96
      L1  H     9    21       P1 10175  1.00
      L1  H    18    34       P1 10171  1.00
      P1  H  7954  7966       L1    18  0.82
      P1  H 11000 11005       L1     6  0.94

> <Gold.PLP.Chemscore.Internal.Correction>
0.0087

> <Gold.Rescore>
     Score         DG    S(hbond)    S(metal)    S(lipo)     H(rot)  DE(clash)    DE(int)     intcor
     20.12     -22.32       4.49        0.00      58.34       1.94       0.44       1.76       ----

> <Gold.Chemscore.Fitness>
20.1205

> <Gold.Chemscore.DG>
-22.3221

> <Gold.Chemscore.ZeroCoef>
-5.4800

> <Gold.Chemscore.Hbond>
4.4892

> <Gold.Chemscore.Metal>
0.0000

> <Gold.Chemscore.Lipo>
58.3361

> <Gold.Chemscore.Internal_Hbond>
0.0000

> <Gold.Chemscore.DEClash>
0.4375

> <Gold.Chemscore.DEInternal>
1.7641

> <Gold.Chemscore.Rot>
1.9442

> <Gold.Chemscore.Internal.Correction>
   9.000000E+99

> <Gold.Chemscore.Hbonds>
donor molecule, donor type, donor heavy atom, donor atom, acceptor molecule, acceptor atom, score
      L1  H     3    19       P1 10175  0.92
      L1  H     9    21       P1 10175  0.92
      L1  H    18    34       P1 10171  0.94
      P1  H  7954  7966       L1    18  0.15
      P1  H 11000 11005       L1     6  0.30

> <Gold.Chemscore.Hbond.Weighted>
-14.9938

> <Gold.Chemscore.Metal.Weighted>
-0.0000

> <Gold.Chemscore.Lipo.Weighted>
-6.8253

> <Gold.Chemscore.Internal_Hbond.Weighted>
0.0000

> <Gold.Chemscore.DEClash.Weighted>
0.4375

> <Gold.Chemscore.DEInternal.Weighted>
1.7641

> <Gold.Chemscore.Rot.Weighted>
4.9771

> <Gold.Chemscore.Internal.Correction.Weighted>
   9.000000E+99

> <Gold.Protein.RotatedTorsions>
[ 6907 6896 6895 6894 ] final  143.92 input  -60.11 | X-H torsion
[ 7974 7965 7964 7962 ] final  117.89 input  175.53 | X-H torsion
[ 8008 7997 7996 7995 ] final -157.43 input   59.86 | X-H torsion
[ 10167 10162 10161 10158 ] final    9.87 input  -65.29 | X-H torsion
[ 10718 10713 10712 10709 ] final  153.06 input   66.30 | X-H torsion
[ 10763 10752 10751 10750 ] final  -33.98 input  -60.55 | X-H torsion
[ 11005 11000 10999 10996 ] final   35.14 input  -57.11 | X-H torsion

> <Gold.Protein.ActiveResidues>
 VAL166  LYS551  ARG553  GLY616  TRP617  ASP618  TYR619  PRO620  LYS621  CYS622 
 ASP623  PHE694  ASN695  SER759  ASP760  ASP761  ALA762  ILE779  LEU786  VAL792 
 PHE793  MET794  SER795  GLU796  ALA797  LYS798  CYS799  TRP800  GLU811  SER814 

> <Gold.Protein.RotatedAtoms>
  152.2002  133.4835  159.5054 H   0  0  0  0  0  0  0  0  0  0  0  0  # atno 6907 bound_to 6896
  150.6968  134.1600  159.4182 H   0  0  0  0  0  0  0  0  0  0  0  0  # atno 6908 bound_to 6896
  151.9518  135.0165  160.0593 H   0  0  0  0  0  0  0  0  0  0  0  0  # atno 6909 bound_to 6896
  145.1619  139.3150  143.4513 H   0  0  0  0  0  0  0  0  0  0  0  0  # atno 7974 bound_to 7965
  155.7323  140.0803  157.2283 H   0  0  0  0  0  0  0  0  0  0  0  0  # atno 8008 bound_to 7997
  154.4031  140.1593  156.2578 H   0  0  0  0  0  0  0  0  0  0  0  0  # atno 8009 bound_to 7997
  155.9097  140.3404  155.6092 H   0  0  0  0  0  0  0  0  0  0  0  0  # atno 8010 bound_to 7997
  140.6229  143.8165  150.7197 H   0  0  0  0  0  0  0  0  0  0  0  0  # atno 10167 bound_to 10162
  157.2497  131.0776  151.1738 H   0  0  0  0  0  0  0  0  0  0  0  0  # atno 10718 bound_to 10713
  153.8391  135.6859  153.4805 H   0  0  0  0  0  0  0  0  0  0  0  0  # atno 10763 bound_to 10752
  153.1464  135.4636  154.9571 H   0  0  0  0  0  0  0  0  0  0  0  0  # atno 10764 bound_to 10752
  154.7853  135.3282  154.7846 H   0  0  0  0  0  0  0  0  0  0  0  0  # atno 10765 bound_to 10752
  140.2457  134.3363  155.7909 H   0  0  0  0  0  0  0  0  0  0  0  0  # atno 11005 bound_to 11000
  146.3481  140.1732  142.8589 LP  0  0  0  0  0  0  0  0  0  0  0  0  # atno 17320 bound_to 7965
  145.0322  140.8880  143.5102 LP  0  0  0  0  0  0  0  0  0  0  0  0  # atno 17321 bound_to 7965
  140.1759  143.4155  152.1967 LP  0  0  0  0  0  0  0  0  0  0  0  0  # atno 17342 bound_to 10162
  139.5454  144.7294  151.4600 LP  0  0  0  0  0  0  0  0  0  0  0  0  # atno 17343 bound_to 10162
  157.3291  130.6976  149.6314 LP  0  0  0  0  0  0  0  0  0  0  0  0  # atno 17370 bound_to 10713
  155.9666  130.4312  150.4912 LP  0  0  0  0  0  0  0  0  0  0  0  0  # atno 17371 bound_to 10713
  141.2206  133.7324  156.8956 LP  0  0  0  0  0  0  0  0  0  0  0  0  # atno 17394 bound_to 11000
  140.1609  134.9166  157.2713 LP  0  0  0  0  0  0  0  0  0  0  0  0  # atno 17395 bound_to 11000

$$$$
