AV-unprocessed.smi:1535|AV-procd|sdf|6175|dock7
  -GOLD-   22720 6333D 1   1.00000     0.00000
 Structure written by MMmdl.
 47 48  0  0  0  0  0  0  0  0  2 V2000
  152.1215  144.4473  160.8577 C   0  0  0  0  0  0  0  0  0  0  0  0
  151.9469  143.4058  159.7654 C   0  0  0  0  0  0  0  0  0  0  0  0
  151.0896  143.7024  158.6818 C   0  0  0  0  0  0  0  0  0  0  0  0
  150.9482  142.7290  157.6999 C   0  0  0  0  0  0  0  0  0  0  0  0
  150.1892  142.7150  156.5277 N   0  3  0  0  0  0  0  0  0  0  0  0
  150.3721  141.5299  155.8821 C   0  0  0  0  0  0  0  0  0  0  0  0
  151.2368  140.7871  156.6256 N   0  0  0  0  0  0  0  0  0  0  0  0
  151.7653  139.4362  156.3917 C   0  0  0  0  0  0  0  0  0  0  0  0
  152.2201  139.2116  154.9356 C   0  0  1  0  0  0  0  0  0  0  0  0
  153.6300  139.3076  154.8711 O   0  0  0  0  0  0  0  0  0  0  0  0
  151.8002  137.8199  154.4193 C   0  0  0  0  0  0  0  0  0  0  0  0
  150.3567  137.5563  154.4169 N   0  0  0  0  0  0  0  0  0  0  0  0
  149.5928  138.7833  154.2084 C   0  0  0  0  0  0  0  0  0  0  0  0
  149.9160  136.9076  155.6543 C   0  0  0  0  0  0  0  0  0  0  0  0
  150.4025  135.4587  155.8607 C   0  0  2  0  0  0  0  0  0  0  0  0
  149.9783  134.5339  154.7107 C   0  0  0  0  0  0  0  0  0  0  0  0
  149.9140  134.9335  157.1456 C   0  0  0  0  0  0  0  0  0  0  0  0
  149.5299  134.5205  158.1558 N   0  0  0  0  0  0  0  0  0  0  0  0
  151.6251  141.4959  157.7675 C   0  0  0  0  0  0  0  0  0  0  0  0
  152.4764  141.1885  158.8259 C   0  0  0  0  0  0  0  0  0  0  0  0
  152.6322  142.1649  159.8359 C   0  0  0  0  0  0  0  0  0  0  0  0
  153.5520  141.8572  161.0052 C   0  0  0  0  0  0  0  0  0  0  0  0
  151.5030  145.3262  160.6737 H   0  0  0  0  0  0  0  0  0  0  0  0
  153.1598  144.7754  160.9104 H   0  0  0  0  0  0  0  0  0  0  0  0
  151.8368  144.0390  161.8274 H   0  0  0  0  0  0  0  0  0  0  0  0
  150.5658  144.6450  158.6205 H   0  0  0  0  0  0  0  0  0  0  0  0
  149.9108  141.2316  154.9518 H   0  0  0  0  0  0  0  0  0  0  0  0
  152.6008  139.2887  157.0777 H   0  0  0  0  0  0  0  0  0  0  0  0
  150.9985  138.7147  156.6766 H   0  0  0  0  0  0  0  0  0  0  0  0
  151.7983  140.0026  154.3183 H   0  0  0  0  0  0  0  0  0  0  0  0
  153.8998  139.1691  153.9763 H   0  0  0  0  0  0  0  0  0  0  0  0
  152.2067  137.7127  153.4152 H   0  0  0  0  0  0  0  0  0  0  0  0
  152.2960  137.0517  155.0146 H   0  0  0  0  0  0  0  0  0  0  0  0
  148.5218  138.5788  154.2232 H   0  0  0  0  0  0  0  0  0  0  0  0
  149.8109  139.2356  153.2425 H   0  0  0  0  0  0  0  0  0  0  0  0
  149.8052  139.5181  154.9861 H   0  0  0  0  0  0  0  0  0  0  0  0
  150.2201  137.5149  156.5085 H   0  0  0  0  0  0  0  0  0  0  0  0
  148.8254  136.8885  155.6800 H   0  0  0  0  0  0  0  0  0  0  0  0
  151.4875  135.4329  155.9456 H   0  0  0  0  0  0  0  0  0  0  0  0
  150.3218  133.5138  154.8841 H   0  0  0  0  0  0  0  0  0  0  0  0
  150.3983  134.8638  153.7602 H   0  0  0  0  0  0  0  0  0  0  0  0
  148.8933  134.5065  154.6058 H   0  0  0  0  0  0  0  0  0  0  0  0
  152.9960  140.2433  158.8792 H   0  0  0  0  0  0  0  0  0  0  0  0
  154.0036  140.8694  160.9091 H   0  0  0  0  0  0  0  0  0  0  0  0
  152.9985  141.8798  161.9441 H   0  0  0  0  0  0  0  0  0  0  0  0
  154.3591  142.5882  161.0603 H   0  0  0  0  0  0  0  0  0  0  0  0
  149.5877  143.4563  156.1920 H   0  0  0  0  0  0  0  0  0  0  0  0
  1  2  1  0  0  0  0
  1 23  1  0  0  0  0
  1 24  1  0  0  0  0
  1 25  1  0  0  0  0
  2 21  1  0  0  0  0
  2  3  2  0  0  0  0
  3  4  1  0  0  0  0
  3 26  1  0  0  0  0
  4 19  2  0  0  0  0
  4  5  1  0  0  0  0
  5  6  2  0  0  0  0
  5 47  1  0  0  0  0
  6  7  1  0  0  0  0
  6 27  1  0  0  0  0
  7  8  1  0  0  0  0
  7 19  1  0  0  0  0
  8  9  1  0  0  0  0
  8 28  1  0  0  0  0
  8 29  1  0  0  0  0
  9 10  1  0  0  0  0
  9 11  1  0  0  0  0
  9 30  1  0  0  0  0
 10 31  1  0  0  0  0
 11 12  1  0  0  0  0
 11 32  1  0  0  0  0
 11 33  1  0  0  0  0
 12 13  1  0  0  0  0
 12 14  1  0  0  0  0
 13 34  1  0  0  0  0
 13 35  1  0  0  0  0
 13 36  1  0  0  0  0
 14 15  1  0  0  0  0
 14 37  1  0  0  0  0
 14 38  1  0  0  0  0
 15 16  1  0  0  0  0
 15 17  1  0  0  0  0
 15 39  1  0  0  0  0
 16 40  1  0  0  0  0
 16 41  1  0  0  0  0
 16 42  1  0  0  0  0
 17 18  3  0  0  0  0
 19 20  1  0  0  0  0
 20 21  2  0  0  0  0
 20 43  1  0  0  0  0
 21 22  1  0  0  0  0
 22 44  1  0  0  0  0
 22 45  1  0  0  0  0
 22 46  1  0  0  0  0
M  CHG  1   5   1
M  END
> <s_m_source_file>
AV-unprocessed.smi

> <i_m_source_file_index>
1535

> <i_lp_mmshare_version>
43012

> <i_f3d_flags>
0

> <s_epik_input>
W0NIM11jKFtjSF0xKWMoW0NIM10pW2NIXWMoYzEyKW4oW2NIXW4yKVtDSDJdW0NASF0oW09IXSlbQ0gyXU4oW0NIM10pW0NIMl1bQ0BIXShbQ0gzXSlDI04=

> <s_epik_cmdline>
J2VwaWtfcHl0aG9uJywgJy1waCcsICc3LjAnLCAnLXRuJywgJzgnLCAnLW1hJywgJzIwMCcsICctbWV0YWxfYmluZGluZycsICctaW1hZScsICc8aW5maWxlLm1hZT4nLCAnLW9tYWUnLCAnPG91dGZpbGUubWFlPic=

> <r_epik_Ionization_Penalty>
1.22846

> <r_epik_Ionization_Penalty_Charging>
1.21333

> <r_epik_Ionization_Penalty_Neutral>
0.0151341

> <r_epik_State_Penalty>
1.27012

> <r_epik_Charging_Adjusted_Penalty>
2.48344

> <i_epik_Tot_Q>
1

> <i_epik_Tot_abs_Q>
1

> <r_epik_Metal_State_Penalty>
5.28751

> <b_epik_Metal_Only>
0

> <s_lp_Force_Field>
OPLS_2005

> <r_lp_Energy>
30.2724

> <b_lp_Chiralities_Consistent>
1

> <s_lp_Variant>
AV-unprocessed.smi:1535-6

> <Gold.Version>
5.8.1

> <Gold.Id.Protein>
6NUR|6NUR_protein|mol2

> <Gold.PLP.Fitness>
58.2224

> <Gold.PLP.PLP>
-48.5249

> <Gold.PLP.part.hbond>
-3.0000

> <Gold.PLP.part.metal>
0.0000

> <Gold.PLP.part.buried>
-6.4201

> <Gold.PLP.part.nonpolar>
-40.8343

> <Gold.PLP.part.repulsive>
0.2958

> <Gold.PLP.ligand.clash>
0.0000

> <Gold.PLP.ligand.torsion>
1.2384

> <Gold.PLP.Chemscore.Hbond>
4.0000

> <Gold.PLP.Chemscore.CHOScore>
0.0000

> <Gold.PLP.Chemscore.Metal>
0.0000

> <Gold.Chemscore.Hbonds>
donor molecule, donor type, donor heavy atom, donor atom, acceptor molecule, acceptor atom, score
      L1  H     5    47       P1  8028  2.00
      P1  H  6896  6907       L1    18  1.00
      P1  H  7997  8010       L1    10  1.00

> <Gold.PLP.Chemscore.Internal.Correction>
0.1742

> <Gold.Rescore>
     Score         DG    S(hbond)    S(metal)    S(lipo)     H(rot)  DE(clash)    DE(int)     intcor
     21.51     -22.87       2.96        0.00     120.81       2.59       0.16       1.19       ----

> <Gold.Chemscore.Fitness>
21.5124

> <Gold.Chemscore.DG>
-22.8703

> <Gold.Chemscore.ZeroCoef>
-5.4800

> <Gold.Chemscore.Hbond>
2.9612

> <Gold.Chemscore.Metal>
0.0000

> <Gold.Chemscore.Lipo>
120.8118

> <Gold.Chemscore.Internal_Hbond>
0.0000

> <Gold.Chemscore.DEClash>
0.1648

> <Gold.Chemscore.DEInternal>
1.1931

> <Gold.Chemscore.Rot>
2.5918

> <Gold.Chemscore.Internal.Correction>
   9.000000E+99

> <Gold.Chemscore.Hbonds>
donor molecule, donor type, donor heavy atom, donor atom, acceptor molecule, acceptor atom, score
      L1  H     5    47       P1  8028  0.94
      P1  H  6896  6907       L1    18  0.97
      P1  H  7997  8010       L1    10  0.79

> <Gold.Chemscore.Hbond.Weighted>
-9.8904

> <Gold.Chemscore.Metal.Weighted>
-0.0000

> <Gold.Chemscore.Lipo.Weighted>
-14.1350

> <Gold.Chemscore.Internal_Hbond.Weighted>
0.0000

> <Gold.Chemscore.DEClash.Weighted>
0.1648

> <Gold.Chemscore.DEInternal.Weighted>
1.1931

> <Gold.Chemscore.Rot.Weighted>
6.6351

> <Gold.Chemscore.Internal.Correction.Weighted>
   9.000000E+99

> <Gold.Protein.RotatedTorsions>
[ 6907 6896 6895 6894 ] final  -94.56 input  -60.11 | X-H torsion
[ 7974 7965 7964 7962 ] final   69.90 input  175.53 | X-H torsion
[ 8008 7997 7996 7995 ] final  121.54 input   59.86 | X-H torsion
[ 10167 10162 10161 10158 ] final -136.24 input  -65.29 | X-H torsion
[ 10718 10713 10712 10709 ] final    8.92 input   66.30 | X-H torsion
[ 10763 10752 10751 10750 ] final  155.38 input  -60.55 | X-H torsion
[ 11005 11000 10999 10996 ] final -160.19 input  -57.11 | X-H torsion

> <Gold.Protein.ActiveResidues>
 VAL166  LYS551  ARG553  GLY616  TRP617  ASP618  TYR619  PRO620  LYS621  CYS622 
 ASP623  PHE694  ASN695  SER759  ASP760  ASP761  ALA762  ILE779  LEU786  VAL792 
 PHE793  MET794  SER795  GLU796  ALA797  LYS798  CYS799  TRP800  GLU811  SER814 

> <Gold.Protein.RotatedAtoms>
  150.6944  134.1794  159.4242 H   0  0  0  0  0  0  0  0  0  0  0  0  # atno 6907 bound_to 6896
  151.9769  135.0046  160.0565 H   0  0  0  0  0  0  0  0  0  0  0  0  # atno 6908 bound_to 6896
  152.1791  133.4660  159.4985 H   0  0  0  0  0  0  0  0  0  0  0  0  # atno 6909 bound_to 6896
  145.7848  139.2905  143.1245 H   0  0  0  0  0  0  0  0  0  0  0  0  # atno 7974 bound_to 7965
  156.2690  140.2806  156.1324 H   0  0  0  0  0  0  0  0  0  0  0  0  # atno 8008 bound_to 7997
  155.1040  140.0390  157.2723 H   0  0  0  0  0  0  0  0  0  0  0  0  # atno 8009 bound_to 7997
  154.6793  140.2605  155.6931 H   0  0  0  0  0  0  0  0  0  0  0  0  # atno 8010 bound_to 7997
  139.8698  143.6972  152.2641 H   0  0  0  0  0  0  0  0  0  0  0  0  # atno 10167 bound_to 10162
  156.9588  130.5925  149.5661 H   0  0  0  0  0  0  0  0  0  0  0  0  # atno 10718 bound_to 10713
  154.1674  135.2806  155.3091 H   0  0  0  0  0  0  0  0  0  0  0  0  # atno 10763 bound_to 10752
  154.6101  135.5501  153.7467 H   0  0  0  0  0  0  0  0  0  0  0  0  # atno 10764 bound_to 10752
  153.0174  135.6413  154.1815 H   0  0  0  0  0  0  0  0  0  0  0  0  # atno 10765 bound_to 10752
  140.6342  134.4619  157.5231 H   0  0  0  0  0  0  0  0  0  0  0  0  # atno 11005 bound_to 11000
  146.0037  140.8497  143.0005 LP  0  0  0  0  0  0  0  0  0  0  0  0  # atno 17320 bound_to 7965
  144.6791  140.2390  143.7346 LP  0  0  0  0  0  0  0  0  0  0  0  0  # atno 17321 bound_to 7965
  139.7295  144.7585  151.0825 LP  0  0  0  0  0  0  0  0  0  0  0  0  # atno 17342 bound_to 10162
  140.7762  143.5106  150.9657 LP  0  0  0  0  0  0  0  0  0  0  0  0  # atno 17343 bound_to 10162
  156.0331  130.5421  150.8585 LP  0  0  0  0  0  0  0  0  0  0  0  0  # atno 17370 bound_to 10713
  157.5672  131.0946  150.9472 LP  0  0  0  0  0  0  0  0  0  0  0  0  # atno 17371 bound_to 10713
  139.9104  134.8356  156.1548 LP  0  0  0  0  0  0  0  0  0  0  0  0  # atno 17394 bound_to 11000
  141.0653  133.6822  156.2033 LP  0  0  0  0  0  0  0  0  0  0  0  0  # atno 17395 bound_to 11000

$$$$
