AV-unprocessed.smi:1525|AV-procd|sdf|6145|dock9
  -GOLD-   22720 6293D 1   1.00000     0.00000
 Structure written by MMmdl.
 49 51  0  0  0  0  0  0  0  0  4 V2000
  152.7737  139.4854  155.8327 O   0  0  0  0  0  0  0  0  0  0  0  0
  151.6875  140.0641  155.9508 C   0  0  0  0  0  0  0  0  0  0  0  0
  150.6927  140.1645  155.0294 N   0  5  0  0  0  0  0  0  0  0  0  0
  149.8266  139.0636  154.6114 C   0  0  0  0  0  0  0  0  0  0  0  0
  150.6014  137.7311  154.6688 C   0  0  0  0  0  0  0  0  0  0  0  0
  149.6964  136.5551  154.5804 N   0  3  0  0  0  0  0  0  0  0  0  0
  150.3283  135.2756  154.9973 C   0  0  0  0  0  0  0  0  0  0  0  0
  149.3459  134.1076  154.8129 C   0  0  0  0  0  0  0  0  0  0  0  0
  148.1585  134.3607  155.5542 O   0  0  0  0  0  0  0  0  0  0  0  0
  147.4959  135.5389  155.1122 C   0  0  0  0  0  0  0  0  0  0  0  0
  148.4174  136.7548  155.3043 C   0  0  0  0  0  0  0  0  0  0  0  0
  151.3696  140.6822  157.0999 N   0  0  0  0  0  0  0  0  0  0  0  0
  152.1107  140.7404  158.3120 C   0  0  0  0  0  0  0  0  0  0  0  0
  152.8227  139.6169  158.8018 C   0  0  0  0  0  0  0  0  0  0  0  0
  153.5763  139.7283  159.9867 C   0  0  0  0  0  0  0  0  0  0  0  0
  153.6174  140.9648  160.6566 C   0  0  0  0  0  0  0  0  0  0  0  0
  152.9426  142.0208  160.1557 N   0  3  0  0  0  0  0  0  0  0  0  0
  152.2015  141.9680  159.0258 C   0  0  0  0  0  0  0  0  0  0  0  0
  151.5666  143.1668  158.6582 N   0  0  0  0  0  0  0  0  0  0  0  0
  152.4308  144.3240  158.4435 C   0  0  0  0  0  0  0  0  0  0  0  0
  151.8514  145.4626  159.2884 C   0  0  0  0  0  0  0  0  0  0  0  0
  150.3819  145.0815  159.4309 C   0  0  0  0  0  0  0  0  0  0  0  0
  150.4300  143.5550  159.4843 C   0  0  0  0  0  0  0  0  0  0  0  0
  148.9295  138.9836  155.2272 H   0  0  0  0  0  0  0  0  0  0  0  0
  149.4649  139.2188  153.5949 H   0  0  0  0  0  0  0  0  0  0  0  0
  151.3575  137.6834  153.8833 H   0  0  0  0  0  0  0  0  0  0  0  0
  151.1480  137.6979  155.6128 H   0  0  0  0  0  0  0  0  0  0  0  0
  151.2299  135.0892  154.4128 H   0  0  0  0  0  0  0  0  0  0  0  0
  150.6344  135.3416  156.0426 H   0  0  0  0  0  0  0  0  0  0  0  0
  149.1081  133.9613  153.7579 H   0  0  0  0  0  0  0  0  0  0  0  0
  149.7941  133.1804  155.1700 H   0  0  0  0  0  0  0  0  0  0  0  0
  147.2017  135.4350  154.0665 H   0  0  0  0  0  0  0  0  0  0  0  0
  146.5801  135.6671  155.6893 H   0  0  0  0  0  0  0  0  0  0  0  0
  148.6174  136.9119  156.3654 H   0  0  0  0  0  0  0  0  0  0  0  0
  147.9187  137.6513  154.9335 H   0  0  0  0  0  0  0  0  0  0  0  0
  150.4287  141.0452  157.1454 H   0  0  0  0  0  0  0  0  0  0  0  0
  152.8127  138.6744  158.2755 H   0  0  0  0  0  0  0  0  0  0  0  0
  154.1203  138.8780  160.3710 H   0  0  0  0  0  0  0  0  0  0  0  0
  154.1705  141.1424  161.5674 H   0  0  0  0  0  0  0  0  0  0  0  0
  153.4759  144.1312  158.6893 H   0  0  0  0  0  0  0  0  0  0  0  0
  152.3883  144.5825  157.3852 H   0  0  0  0  0  0  0  0  0  0  0  0
  152.3248  145.4760  160.2708 H   0  0  0  0  0  0  0  0  0  0  0  0
  151.9967  146.4432  158.8346 H   0  0  0  0  0  0  0  0  0  0  0  0
  149.9084  145.5231  160.3082 H   0  0  0  0  0  0  0  0  0  0  0  0
  149.8293  145.4050  158.5477 H   0  0  0  0  0  0  0  0  0  0  0  0
  149.5072  143.1148  159.1062 H   0  0  0  0  0  0  0  0  0  0  0  0
  150.5612  143.2162  160.5124 H   0  0  0  0  0  0  0  0  0  0  0  0
  149.4546  136.4640  153.6037 H   0  0  0  0  0  0  0  0  0  0  0  0
  152.9926  142.9078  160.6572 H   0  0  0  0  0  0  0  0  0  0  0  0
  1  2  2  0  0  0  0
  2  3  1  0  0  0  0
  2 12  1  0  0  0  0
  3  4  1  0  0  0  0
  4  5  1  0  0  0  0
  4 24  1  0  0  0  0
  4 25  1  0  0  0  0
  5  6  1  0  0  0  0
  5 26  1  0  0  0  0
  5 27  1  0  0  0  0
  6 11  1  0  0  0  0
  6  7  1  0  0  0  0
  6 48  1  0  0  0  0
  7  8  1  0  0  0  0
  7 28  1  0  0  0  0
  7 29  1  0  0  0  0
  8  9  1  0  0  0  0
  8 30  1  0  0  0  0
  8 31  1  0  0  0  0
  9 10  1  0  0  0  0
 10 11  1  0  0  0  0
 10 32  1  0  0  0  0
 10 33  1  0  0  0  0
 11 34  1  0  0  0  0
 11 35  1  0  0  0  0
 12 13  1  0  0  0  0
 12 36  1  0  0  0  0
 13 18  1  0  0  0  0
 13 14  2  0  0  0  0
 14 15  1  0  0  0  0
 14 37  1  0  0  0  0
 15 16  2  0  0  0  0
 15 38  1  0  0  0  0
 16 17  1  0  0  0  0
 16 39  1  0  0  0  0
 17 18  2  0  0  0  0
 17 49  1  0  0  0  0
 18 19  1  0  0  0  0
 19 23  1  0  0  0  0
 19 20  1  0  0  0  0
 20 21  1  0  0  0  0
 20 40  1  0  0  0  0
 20 41  1  0  0  0  0
 21 22  1  0  0  0  0
 21 42  1  0  0  0  0
 21 43  1  0  0  0  0
 22 23  1  0  0  0  0
 22 44  1  0  0  0  0
 22 45  1  0  0  0  0
 23 46  1  0  0  0  0
 23 47  1  0  0  0  0
M  CHG  1   3  -1
M  CHG  1   6   1
M  CHG  1  17   1
M  END
> <s_m_source_file>
AV-unprocessed.smi

> <i_m_source_file_index>
1525

> <i_lp_mmshare_version>
43012

> <i_f3d_flags>
0

> <s_epik_input>
W0NIMl0xW0NIMl1PW0NIMl1bQ0gyXU4xW0NIMl1bQ0gyXVtOSF1DKD1PKVtOSF1jMltjSF1bY0hdW2NIXW5jMk4zW0NIMl1bQ0gyXVtDSDJdW0NIMl0z

> <s_epik_cmdline>
J2VwaWtfcHl0aG9uJywgJy1waCcsICc3LjAnLCAnLXRuJywgJzgnLCAnLW1hJywgJzIwMCcsICctbWV0YWxfYmluZGluZycsICctaW1hZScsICc8aW5maWxlLm1hZT4nLCAnLW9tYWUnLCAnPG91dGZpbGUubWFlPic=

> <r_lp_tautomer_probability>
0.999994

> <r_epik_Ionization_Penalty>
8.59159

> <r_epik_Ionization_Penalty_Charging>
8.59159

> <r_epik_Ionization_Penalty_Neutral>
3.55275e-06

> <r_epik_State_Penalty>
8.58545

> <r_epik_Charging_Adjusted_Penalty>
17.177

> <i_epik_Tot_Q>
1

> <i_epik_Tot_abs_Q>
3

> <r_epik_Metal_State_Penalty>
4.58086

> <b_epik_Metal_Only>
1

> <s_lp_Force_Field>
OPLS_2005

> <r_lp_Energy>
45.7376

> <b_lp_Chiralities_Consistent>
1

> <s_lp_Variant>
AV-unprocessed.smi:1525-5

> <Gold.Version>
5.8.1

> <Gold.Id.Protein>
6NUR|6NUR_protein|mol2

> <Gold.PLP.Fitness>
53.5857

> <Gold.PLP.PLP>
-44.5191

> <Gold.PLP.part.hbond>
-3.2379

> <Gold.PLP.part.metal>
0.0000

> <Gold.PLP.part.buried>
-7.3496

> <Gold.PLP.part.nonpolar>
-34.1255

> <Gold.PLP.part.repulsive>
0.3608

> <Gold.PLP.ligand.clash>
0.0000

> <Gold.PLP.ligand.torsion>
1.5545

> <Gold.PLP.Chemscore.Hbond>
4.0000

> <Gold.PLP.Chemscore.CHOScore>
0.0000

> <Gold.PLP.Chemscore.Metal>
0.0000

> <Gold.Chemscore.Hbonds>
donor molecule, donor type, donor heavy atom, donor atom, acceptor molecule, acceptor atom, score
      L1  H     6    48       P1  7948  2.00
      P1  H  7989  7998       L1     3  1.00
      P1  H  7997  8010       L1     1  0.96

> <Gold.PLP.Chemscore.Internal.Correction>
0.1756

> <Gold.Rescore>
     Score         DG    S(hbond)    S(metal)    S(lipo)     H(rot)  DE(clash)    DE(int)     intcor
     19.02     -21.66       2.62        0.00      99.90       1.66       0.04       2.60       ----

> <Gold.Chemscore.Fitness>
19.0240

> <Gold.Chemscore.DG>
-21.6605

> <Gold.Chemscore.ZeroCoef>
-5.4800

> <Gold.Chemscore.Hbond>
2.6199

> <Gold.Chemscore.Metal>
0.0000

> <Gold.Chemscore.Lipo>
99.8964

> <Gold.Chemscore.Internal_Hbond>
0.0000

> <Gold.Chemscore.DEClash>
0.0354

> <Gold.Chemscore.DEInternal>
2.6011

> <Gold.Chemscore.Rot>
1.6632

> <Gold.Chemscore.Internal.Correction>
   9.000000E+99

> <Gold.Chemscore.Hbonds>
donor molecule, donor type, donor heavy atom, donor atom, acceptor molecule, acceptor atom, score
      L1  H     6    48       P1  7948  0.78
      P1  H  7989  7998       L1     3  0.26
      P1  H  7997  8010       L1     1  0.92

> <Gold.Chemscore.Hbond.Weighted>
-8.7503

> <Gold.Chemscore.Metal.Weighted>
-0.0000

> <Gold.Chemscore.Lipo.Weighted>
-11.6879

> <Gold.Chemscore.Internal_Hbond.Weighted>
0.0000

> <Gold.Chemscore.DEClash.Weighted>
0.0354

> <Gold.Chemscore.DEInternal.Weighted>
2.6011

> <Gold.Chemscore.Rot.Weighted>
4.2577

> <Gold.Chemscore.Internal.Correction.Weighted>
   9.000000E+99

> <Gold.Protein.RotatedTorsions>
[ 6907 6896 6895 6894 ] final  110.21 input  -60.11 | X-H torsion
[ 7974 7965 7964 7962 ] final  -60.40 input  175.53 | X-H torsion
[ 8008 7997 7996 7995 ] final  107.85 input   59.86 | X-H torsion
[ 10167 10162 10161 10158 ] final  108.27 input  -65.29 | X-H torsion
[ 10718 10713 10712 10709 ] final -175.99 input   66.30 | X-H torsion
[ 10763 10752 10751 10750 ] final -149.54 input  -60.55 | X-H torsion
[ 11005 11000 10999 10996 ] final  122.93 input  -57.11 | X-H torsion

> <Gold.Protein.ActiveResidues>
 VAL166  LYS551  ARG553  GLY616  TRP617  ASP618  TYR619  PRO620  LYS621  CYS622 
 ASP623  PHE694  ASN695  SER759  ASP760  ASP761  ALA762  ILE779  LEU786  VAL792 
 PHE793  MET794  SER795  GLU796  ALA797  LYS798  CYS799  TRP800  GLU811  SER814 

> <Gold.Protein.RotatedAtoms>
  152.5031  133.8834  159.7357 H   0  0  0  0  0  0  0  0  0  0  0  0  # atno 6907 bound_to 6896
  150.9290  133.6780  159.2821 H   0  0  0  0  0  0  0  0  0  0  0  0  # atno 6908 bound_to 6896
  151.4131  135.0992  159.9643 H   0  0  0  0  0  0  0  0  0  0  0  0  # atno 6909 bound_to 6896
  145.8159  140.8570  143.0157 H   0  0  0  0  0  0  0  0  0  0  0  0  # atno 7974 bound_to 7965
  156.1857  140.3087  155.9233 H   0  0  0  0  0  0  0  0  0  0  0  0  # atno 8008 bound_to 7997
  155.3287  140.0459  157.3059 H   0  0  0  0  0  0  0  0  0  0  0  0  # atno 8009 bound_to 7997
  154.5393  140.2256  155.8679 H   0  0  0  0  0  0  0  0  0  0  0  0  # atno 8010 bound_to 7997
  139.6859  144.7113  151.1432 H   0  0  0  0  0  0  0  0  0  0  0  0  # atno 10167 bound_to 10162
  156.8081  130.9576  151.3117 H   0  0  0  0  0  0  0  0  0  0  0  0  # atno 10718 bound_to 10713
  154.8171  135.3306  154.7145 H   0  0  0  0  0  0  0  0  0  0  0  0  # atno 10763 bound_to 10752
  153.7784  135.6920  153.4897 H   0  0  0  0  0  0  0  0  0  0  0  0  # atno 10764 bound_to 10752
  153.1997  135.4521  155.0199 H   0  0  0  0  0  0  0  0  0  0  0  0  # atno 10765 bound_to 10752
  139.9290  134.9641  156.8183 H   0  0  0  0  0  0  0  0  0  0  0  0  # atno 11005 bound_to 11000
  144.6752  140.0463  143.7480 LP  0  0  0  0  0  0  0  0  0  0  0  0  # atno 17320 bound_to 7965
  145.9727  139.2882  143.1089 LP  0  0  0  0  0  0  0  0  0  0  0  0  # atno 17321 bound_to 7965
  140.7667  143.5630  150.9078 LP  0  0  0  0  0  0  0  0  0  0  0  0  # atno 17342 bound_to 10162
  139.9304  143.6499  152.3077 LP  0  0  0  0  0  0  0  0  0  0  0  0  # atno 17343 bound_to 10162
  157.6520  130.8892  149.9652 LP  0  0  0  0  0  0  0  0  0  0  0  0  # atno 17370 bound_to 10713
  156.1061  130.3652  150.0131 LP  0  0  0  0  0  0  0  0  0  0  0  0  # atno 17371 bound_to 10713
  140.6255  133.9954  155.7637 LP  0  0  0  0  0  0  0  0  0  0  0  0  # atno 17394 bound_to 11000
  141.0867  133.9980  157.3302 LP  0  0  0  0  0  0  0  0  0  0  0  0  # atno 17395 bound_to 11000

$$$$
