AV-unprocessed.smi:1623|AV-procd|sdf|6501|dock8
  -GOLD-   22720 7163D 1   1.00000     0.00000
 Structure written by MMmdl.
 42 43  0  0  0  0  0  0  0  0  1 V2000
  151.3980  141.8929  158.7938 C   0  0  0  0  0  0  0  0  0  0  0  0
  151.9504  140.5864  159.2961 C   0  0  0  0  0  0  0  0  0  0  0  0
  151.4413  139.5102  158.7927 N   0  0  0  0  0  0  0  0  0  0  0  0
  151.8719  138.2581  159.1864 N   0  0  0  0  0  0  0  0  0  0  0  0
  151.1830  137.1509  158.5138 C   0  0  0  0  0  0  0  0  0  0  0  0
  149.6940  137.0638  158.9153 C   0  0  2  0  0  0  0  0  0  0  0  0
  149.0012  138.2394  158.5488 O   0  0  0  0  0  0  0  0  0  0  0  0
  149.4997  136.8625  160.4267 C   0  0  0  0  0  0  0  0  0  0  0  0
  148.2429  136.2440  160.6685 O   0  0  0  0  0  0  0  0  0  0  0  0
  147.9445  136.0475  162.0429 C   0  0  0  0  0  0  0  0  0  0  0  0
  146.6809  135.2298  162.2704 C   0  0  0  0  0  0  0  0  0  0  0  0
  146.7640  133.8208  162.2910 C   0  0  0  0  0  0  0  0  0  0  0  0
  145.6106  133.0416  162.5026 C   0  0  0  0  0  0  0  0  0  0  0  0
  144.3644  133.6671  162.6920 C   0  0  0  0  0  0  0  0  0  0  0  0
  144.2727  135.0715  162.6670 C   0  0  0  0  0  0  0  0  0  0  0  0
  145.4241  135.8559  162.4548 C   0  0  0  0  0  0  0  0  0  0  0  0
  145.2655  137.5774  162.4255 Cl  0  0  0  0  0  0  0  0  0  0  0  0
  152.8358  138.0268  160.1223 C   0  0  0  0  0  0  0  0  0  0  0  0
  153.1813  136.8918  160.4539 O   0  0  0  0  0  0  0  0  0  0  0  0
  153.4118  139.2503  160.6851 C   0  0  0  0  0  0  0  0  0  0  0  0
  154.4278  139.0548  161.6682 C   0  0  0  0  0  0  0  0  0  0  0  0
  155.2513  138.9184  162.4704 N   0  0  0  0  0  0  0  0  0  0  0  0
  153.0064  140.4856  160.2986 C   0  0  0  0  0  0  0  0  0  0  0  0
  153.5736  141.7846  160.8547 C   0  0  0  0  0  0  0  0  0  0  0  0
  151.0992  142.5337  159.6233 H   0  0  0  0  0  0  0  0  0  0  0  0
  150.5204  141.7471  158.1618 H   0  0  0  0  0  0  0  0  0  0  0  0
  152.1448  142.4261  158.2053 H   0  0  0  0  0  0  0  0  0  0  0  0
  151.2497  137.3250  157.4379 H   0  0  0  0  0  0  0  0  0  0  0  0
  151.6895  136.1965  158.6705 H   0  0  0  0  0  0  0  0  0  0  0  0
  149.2163  136.2286  158.4013 H   0  0  0  0  0  0  0  0  0  0  0  0
  149.2519  138.9307  159.1425 H   0  0  0  0  0  0  0  0  0  0  0  0
  150.3108  136.2717  160.8556 H   0  0  0  0  0  0  0  0  0  0  0  0
  149.5284  137.8400  160.9096 H   0  0  0  0  0  0  0  0  0  0  0  0
  148.7794  135.5134  162.4969 H   0  0  0  0  0  0  0  0  0  0  0  0
  147.8844  137.0101  162.5533 H   0  0  0  0  0  0  0  0  0  0  0  0
  147.7158  133.3306  162.1483 H   0  0  0  0  0  0  0  0  0  0  0  0
  145.6824  131.9640  162.5195 H   0  0  0  0  0  0  0  0  0  0  0  0
  143.4789  133.0704  162.8544 H   0  0  0  0  0  0  0  0  0  0  0  0
  143.3140  135.5481  162.8104 H   0  0  0  0  0  0  0  0  0  0  0  0
  154.4642  141.6178  161.4598 H   0  0  0  0  0  0  0  0  0  0  0  0
  152.8337  142.2824  161.4820 H   0  0  0  0  0  0  0  0  0  0  0  0
  153.8556  142.4634  160.0492 H   0  0  0  0  0  0  0  0  0  0  0  0
  1  2  1  0  0  0  0
  1 25  1  0  0  0  0
  1 26  1  0  0  0  0
  1 27  1  0  0  0  0
  2 23  1  0  0  0  0
  2  3  2  0  0  0  0
  3  4  1  0  0  0  0
  4  5  1  0  0  0  0
  4 18  1  0  0  0  0
  5  6  1  0  0  0  0
  5 28  1  0  0  0  0
  5 29  1  0  0  0  0
  6  7  1  0  0  0  0
  6  8  1  0  0  0  0
  6 30  1  0  0  0  0
  7 31  1  0  0  0  0
  8  9  1  0  0  0  0
  8 32  1  0  0  0  0
  8 33  1  0  0  0  0
  9 10  1  0  0  0  0
 10 11  1  0  0  0  0
 10 34  1  0  0  0  0
 10 35  1  0  0  0  0
 11 16  1  0  0  0  0
 11 12  2  0  0  0  0
 12 13  1  0  0  0  0
 12 36  1  0  0  0  0
 13 14  2  0  0  0  0
 13 37  1  0  0  0  0
 14 15  1  0  0  0  0
 14 38  1  0  0  0  0
 15 16  2  0  0  0  0
 15 39  1  0  0  0  0
 16 17  1  0  0  0  0
 18 19  2  0  0  0  0
 18 20  1  0  0  0  0
 20 21  1  0  0  0  0
 20 23  2  0  0  0  0
 21 22  3  0  0  0  0
 23 24  1  0  0  0  0
 24 40  1  0  0  0  0
 24 41  1  0  0  0  0
 24 42  1  0  0  0  0
M  END
> <s_m_source_file>
AV-unprocessed.smi

> <i_m_source_file_index>
1623

> <i_lp_mmshare_version>
43012

> <i_f3d_flags>
0

> <s_epik_input>
TiNDYyhjMVtDSDNdKWMoPU8pbihuYzFbQ0gzXSlbQ0gyXVtDQEhdKFtPSF0pW0NIMl1PW0NIMl1jMltjSF1bY0hdW2NIXVtjSF1jMkNs

> <s_epik_cmdline>
J2VwaWtfcHl0aG9uJywgJy1waCcsICc3LjAnLCAnLXRuJywgJzgnLCAnLW1hJywgJzIwMCcsICctbWV0YWxfYmluZGluZycsICctaW1hZScsICc8aW5maWxlLm1hZT4nLCAnLW9tYWUnLCAnPG91dGZpbGUubWFlPic=

> <r_lp_tautomer_probability>
1

> <r_epik_Ionization_Penalty>
6.50533e-08

> <r_epik_Ionization_Penalty_Charging>
2.19172e-10

> <r_epik_Ionization_Penalty_Neutral>
6.48342e-08

> <r_epik_State_Penalty>
-0

> <r_epik_Charging_Adjusted_Penalty>
2.19172e-10

> <i_epik_Tot_Q>
0

> <i_epik_Tot_abs_Q>
0

> <r_epik_Metal_State_Penalty>
-0

> <b_epik_Metal_Only>
0

> <s_lp_Force_Field>
OPLS_2005

> <r_lp_Energy>
31.4415

> <b_lp_Chiralities_Consistent>
1

> <s_lp_Variant>
AV-unprocessed.smi:1623-1

> <Gold.Version>
5.8.1

> <Gold.Id.Protein>
6NUR|6NUR_protein|mol2

> <Gold.PLP.Fitness>
45.3841

> <Gold.PLP.PLP>
-43.6691

> <Gold.PLP.part.hbond>
-1.0000

> <Gold.PLP.part.metal>
0.0000

> <Gold.PLP.part.buried>
-5.1202

> <Gold.PLP.part.nonpolar>
-37.5090

> <Gold.PLP.part.repulsive>
0.0000

> <Gold.PLP.ligand.clash>
0.0000

> <Gold.PLP.ligand.torsion>
0.6714

> <Gold.PLP.Chemscore.Hbond>
1.0000

> <Gold.PLP.Chemscore.CHOScore>
0.0000

> <Gold.PLP.Chemscore.Metal>
0.0000

> <Gold.Chemscore.Hbonds>
donor molecule, donor type, donor heavy atom, donor atom, acceptor molecule, acceptor atom, score
      P1  H  6896  6909       L1    19  0.57

> <Gold.PLP.Chemscore.Internal.Correction>
0.0579

> <Gold.Rescore>
     Score         DG    S(hbond)    S(metal)    S(lipo)     H(rot)  DE(clash)    DE(int)     intcor
     14.36     -15.16       1.00        0.00     108.44       2.48       0.21       0.60       ----

> <Gold.Chemscore.Fitness>
14.3559

> <Gold.Chemscore.DG>
-15.1564

> <Gold.Chemscore.ZeroCoef>
-5.4800

> <Gold.Chemscore.Hbond>
0.9975

> <Gold.Chemscore.Metal>
0.0000

> <Gold.Chemscore.Lipo>
108.4417

> <Gold.Chemscore.Internal_Hbond>
0.0000

> <Gold.Chemscore.DEClash>
0.2052

> <Gold.Chemscore.DEInternal>
0.5952

> <Gold.Chemscore.Rot>
2.4777

> <Gold.Chemscore.Internal.Correction>
   9.000000E+99

> <Gold.Chemscore.Hbonds>
donor molecule, donor type, donor heavy atom, donor atom, acceptor molecule, acceptor atom, score
      P1  H  6896  6909       L1    19  0.56

> <Gold.Chemscore.Hbond.Weighted>
-3.3316

> <Gold.Chemscore.Metal.Weighted>
-0.0000

> <Gold.Chemscore.Lipo.Weighted>
-12.6877

> <Gold.Chemscore.Internal_Hbond.Weighted>
0.0000

> <Gold.Chemscore.DEClash.Weighted>
0.2052

> <Gold.Chemscore.DEInternal.Weighted>
0.5952

> <Gold.Chemscore.Rot.Weighted>
6.3428

> <Gold.Chemscore.Internal.Correction.Weighted>
   9.000000E+99

> <Gold.Protein.RotatedTorsions>
[ 6907 6896 6895 6894 ] final  144.83 input  -60.11 | X-H torsion
[ 7974 7965 7964 7962 ] final -147.99 input  175.53 | X-H torsion
[ 8008 7997 7996 7995 ] final  -85.64 input   59.86 | X-H torsion
[ 10167 10162 10161 10158 ] final -179.84 input  -65.29 | X-H torsion
[ 10718 10713 10712 10709 ] final -145.17 input   66.30 | X-H torsion
[ 10763 10752 10751 10750 ] final   71.52 input  -60.55 | X-H torsion
[ 11005 11000 10999 10996 ] final  150.10 input  -57.11 | X-H torsion

> <Gold.Protein.ActiveResidues>
 VAL166  LYS551  ARG553  GLY616  TRP617  ASP618  TYR619  PRO620  LYS621  CYS622 
 ASP623  PHE694  ASN695  SER759  ASP760  ASP761  ALA762  ILE779  LEU786  VAL792 
 PHE793  MET794  SER795  GLU796  ALA797  LYS798  CYS799  TRP800  GLU811  SER814 

> <Gold.Protein.RotatedAtoms>
  152.1887  133.4757  159.4995 H   0  0  0  0  0  0  0  0  0  0  0  0  # atno 6907 bound_to 6896
  150.6947  134.1741  159.4232 H   0  0  0  0  0  0  0  0  0  0  0  0  # atno 6908 bound_to 6896
  151.9654  135.0102  160.0600 H   0  0  0  0  0  0  0  0  0  0  0  0  # atno 6909 bound_to 6896
  144.8058  140.5255  143.5676 H   0  0  0  0  0  0  0  0  0  0  0  0  # atno 7974 bound_to 7965
  154.6430  140.0589  156.9867 H   0  0  0  0  0  0  0  0  0  0  0  0  # atno 8008 bound_to 7997
  155.1488  140.3272  155.4417 H   0  0  0  0  0  0  0  0  0  0  0  0  # atno 8009 bound_to 7997
  156.2540  140.1951  156.6600 H   0  0  0  0  0  0  0  0  0  0  0  0  # atno 8010 bound_to 7997
  139.5368  144.2474  152.0812 H   0  0  0  0  0  0  0  0  0  0  0  0  # atno 10167 bound_to 10162
  156.3792  130.7828  151.2018 H   0  0  0  0  0  0  0  0  0  0  0  0  # atno 10718 bound_to 10713
  153.0404  135.5134  154.7605 H   0  0  0  0  0  0  0  0  0  0  0  0  # atno 10763 bound_to 10752
  154.6548  135.2930  154.9944 H   0  0  0  0  0  0  0  0  0  0  0  0  # atno 10764 bound_to 10752
  154.0816  135.6663  153.4891 H   0  0  0  0  0  0  0  0  0  0  0  0  # atno 10765 bound_to 10752
  140.1102  134.8929  157.1925 H   0  0  0  0  0  0  0  0  0  0  0  0  # atno 11005 bound_to 11000
  145.5442  139.1475  143.3430 LP  0  0  0  0  0  0  0  0  0  0  0  0  # atno 17320 bound_to 7965
  146.2349  140.5582  142.8959 LP  0  0  0  0  0  0  0  0  0  0  0  0  # atno 17321 bound_to 7965
  140.1946  144.4718  150.6461 LP  0  0  0  0  0  0  0  0  0  0  0  0  # atno 17342 bound_to 10162
  140.6579  143.2243  151.5926 LP  0  0  0  0  0  0  0  0  0  0  0  0  # atno 17343 bound_to 10162
  157.7491  131.0349  150.4339 LP  0  0  0  0  0  0  0  0  0  0  0  0  # atno 17370 bound_to 10713
  156.4580  130.4026  149.6594 LP  0  0  0  0  0  0  0  0  0  0  0  0  # atno 17371 bound_to 10713
  140.3101  134.3033  155.7269 LP  0  0  0  0  0  0  0  0  0  0  0  0  # atno 17394 bound_to 11000
  141.2128  133.7645  156.9765 LP  0  0  0  0  0  0  0  0  0  0  0  0  # atno 17395 bound_to 11000

$$$$
