AV-unprocessed.smi:2036|AV-procd|sdf|8273|dock4
  -GOLD-   2272010543D 1   1.00000     0.00000
 Structure written by MMmdl.
 41 42  0  0  0  0  0  0  0  0  1 V2000
  145.5564  136.3235  151.7333 C   0  0  0  0  0  0  0  0  0  0  0  0
  146.1963  137.2618  152.5802 O   0  0  0  0  0  0  0  0  0  0  0  0
  146.6046  138.4285  151.8829 C   0  0  0  0  0  0  0  0  0  0  0  0
  147.3185  139.3667  152.8552 C   0  0  0  0  0  0  0  0  0  0  0  0
  146.8414  140.4781  153.0794 O   0  0  0  0  0  0  0  0  0  0  0  0
  148.4499  138.8874  153.4056 N   0  0  0  0  0  0  0  0  0  0  0  0
  149.3346  139.5116  154.3273 C   0  0  0  0  0  0  0  0  0  0  0  0
  150.6126  139.0146  154.6791 C   0  0  0  0  0  0  0  0  0  0  0  0
  151.3942  139.7374  155.6008 C   0  0  0  0  0  0  0  0  0  0  0  0
  150.8820  140.9367  156.1360 C   0  0  0  0  0  0  0  0  0  0  0  0
  151.6557  141.6548  157.0585 N   0  0  0  0  0  0  0  0  0  0  0  0
  152.0231  140.8753  158.2334 C   0  0  0  0  0  0  0  0  0  0  0  0
  152.9809  141.6854  159.1272 C   0  0  2  0  0  0  0  0  0  0  0  0
  153.3170  140.9465  160.4263 C   0  0  0  0  0  0  0  0  0  0  0  0
  152.3663  142.9277  159.4631 O   0  0  0  0  0  0  0  0  0  0  0  0
  152.0720  143.7234  158.3165 C   0  0  2  0  0  0  0  0  0  0  0  0
  151.4878  145.0570  158.7929 C   0  0  0  0  0  0  0  0  0  0  0  0
  151.0944  142.9534  157.4083 C   0  0  0  0  0  0  0  0  0  0  0  0
  149.6668  141.4258  155.7939 N   0  0  0  0  0  0  0  0  0  0  0  0
  148.9221  140.7275  154.9111 C   0  0  0  0  0  0  0  0  0  0  0  0
  145.2556  135.4509  152.3132 H   0  0  0  0  0  0  0  0  0  0  0  0
  146.2266  135.9865  150.9417 H   0  0  0  0  0  0  0  0  0  0  0  0
  144.6621  136.7502  151.2777 H   0  0  0  0  0  0  0  0  0  0  0  0
  147.2755  138.1659  151.0630 H   0  0  0  0  0  0  0  0  0  0  0  0
  145.7408  138.9414  151.4573 H   0  0  0  0  0  0  0  0  0  0  0  0
  148.7451  137.9810  153.0720 H   0  0  0  0  0  0  0  0  0  0  0  0
  151.0157  138.1071  154.2591 H   0  0  0  0  0  0  0  0  0  0  0  0
  152.3709  139.3761  155.8881 H   0  0  0  0  0  0  0  0  0  0  0  0
  151.1251  140.6103  158.7938 H   0  0  0  0  0  0  0  0  0  0  0  0
  152.4963  139.9431  157.9224 H   0  0  0  0  0  0  0  0  0  0  0  0
  153.9099  141.8807  158.5885 H   0  0  0  0  0  0  0  0  0  0  0  0
  153.7998  139.9910  160.2201 H   0  0  0  0  0  0  0  0  0  0  0  0
  152.4182  140.7485  161.0111 H   0  0  0  0  0  0  0  0  0  0  0  0
  153.9945  141.5350  161.0454 H   0  0  0  0  0  0  0  0  0  0  0  0
  152.9977  143.9241  157.7738 H   0  0  0  0  0  0  0  0  0  0  0  0
  151.2569  145.7076  157.9492 H   0  0  0  0  0  0  0  0  0  0  0  0
  152.1938  145.5840  159.4349 H   0  0  0  0  0  0  0  0  0  0  0  0
  150.5695  144.9056  159.3611 H   0  0  0  0  0  0  0  0  0  0  0  0
  150.8957  143.5237  156.5000 H   0  0  0  0  0  0  0  0  0  0  0  0
  150.1401  142.8164  157.9192 H   0  0  0  0  0  0  0  0  0  0  0  0
  147.9599  141.1537  154.6671 H   0  0  0  0  0  0  0  0  0  0  0  0
  1  2  1  0  0  0  0
  1 21  1  0  0  0  0
  1 22  1  0  0  0  0
  1 23  1  0  0  0  0
  2  3  1  0  0  0  0
  3  4  1  0  0  0  0
  3 24  1  0  0  0  0
  3 25  1  0  0  0  0
  4  5  2  0  0  0  0
  4  6  1  0  0  0  0
  6  7  1  0  0  0  0
  6 26  1  0  0  0  0
  7 20  1  0  0  0  0
  7  8  2  0  0  0  0
  8  9  1  0  0  0  0
  8 27  1  0  0  0  0
  9 10  2  0  0  0  0
  9 28  1  0  0  0  0
 10 11  1  0  0  0  0
 10 19  1  0  0  0  0
 11 18  1  0  0  0  0
 11 12  1  0  0  0  0
 12 13  1  0  0  0  0
 12 29  1  0  0  0  0
 12 30  1  0  0  0  0
 13 14  1  0  0  0  0
 13 15  1  0  0  0  0
 13 31  1  0  0  0  0
 14 32  1  0  0  0  0
 14 33  1  0  0  0  0
 14 34  1  0  0  0  0
 15 16  1  0  0  0  0
 16 17  1  0  0  0  0
 16 18  1  0  0  0  0
 16 35  1  0  0  0  0
 17 36  1  0  0  0  0
 17 37  1  0  0  0  0
 17 38  1  0  0  0  0
 18 39  1  0  0  0  0
 18 40  1  0  0  0  0
 19 20  2  0  0  0  0
 20 41  1  0  0  0  0
M  END
> <s_m_source_file>
AV-unprocessed.smi

> <i_m_source_file_index>
2036

> <i_lp_mmshare_version>
43012

> <i_f3d_flags>
0

> <s_epik_input>
W0NIM11PW0NIMl1DKD1PKVtOSF1jMVtjSF1bY0hdYyhuW2NIXTEpTjJbQ0gyXVtDQEBIXShbQ0gzXSlPW0NAQEhdKFtDSDNdKVtDSDJdMg==

> <s_epik_cmdline>
J2VwaWtfcHl0aG9uJywgJy1waCcsICc3LjAnLCAnLXRuJywgJzgnLCAnLW1hJywgJzIwMCcsICctbWV0YWxfYmluZGluZycsICctaW1hZScsICc8aW5maWxlLm1hZT4nLCAnLW9tYWUnLCAnPG91dGZpbGUubWFlPic=

> <r_lp_tautomer_probability>
1

> <r_epik_Ionization_Penalty>
0.000662619

> <r_epik_Ionization_Penalty_Charging>
0

> <r_epik_Ionization_Penalty_Neutral>
0.000662619

> <r_epik_State_Penalty>
0.000419321

> <r_epik_Charging_Adjusted_Penalty>
0.000419321

> <i_epik_Tot_Q>
0

> <i_epik_Tot_abs_Q>
0

> <r_epik_Metal_State_Penalty>
-0

> <b_epik_Metal_Only>
0

> <s_lp_Force_Field>
OPLS_2005

> <r_lp_Energy>
23.9394

> <b_lp_Chiralities_Consistent>
1

> <s_lp_Variant>
AV-unprocessed.smi:2036-1

> <Gold.Version>
5.8.1

> <Gold.Id.Protein>
6NUR|6NUR_protein|mol2

> <Gold.PLP.Fitness>
43.3884

> <Gold.PLP.PLP>
-41.1295

> <Gold.PLP.part.hbond>
-1.7690

> <Gold.PLP.part.metal>
0.0000

> <Gold.PLP.part.buried>
-2.6423

> <Gold.PLP.part.nonpolar>
-38.8868

> <Gold.PLP.part.repulsive>
1.3316

> <Gold.PLP.ligand.clash>
0.0000

> <Gold.PLP.ligand.torsion>
0.0909

> <Gold.PLP.Chemscore.Hbond>
0.7800

> <Gold.PLP.Chemscore.CHOScore>
0.0000

> <Gold.PLP.Chemscore.Metal>
0.0000

> <Gold.Chemscore.Hbonds>
donor molecule, donor type, donor heavy atom, donor atom, acceptor molecule, acceptor atom, score
      L1  H     6    26       P1  7948  0.78

> <Gold.PLP.Chemscore.Internal.Correction>
0.1007

> <Gold.Rescore>
     Score         DG    S(hbond)    S(metal)    S(lipo)     H(rot)  DE(clash)    DE(int)     intcor
     14.68     -17.19       0.91        0.00     104.90       1.41       0.99       1.52       ----

> <Gold.Chemscore.Fitness>
14.6783

> <Gold.Chemscore.DG>
-17.1863

> <Gold.Chemscore.ZeroCoef>
-5.4800

> <Gold.Chemscore.Hbond>
0.9093

> <Gold.Chemscore.Metal>
0.0000

> <Gold.Chemscore.Lipo>
104.8959

> <Gold.Chemscore.Internal_Hbond>
0.0000

> <Gold.Chemscore.DEClash>
0.9885

> <Gold.Chemscore.DEInternal>
1.5194

> <Gold.Chemscore.Rot>
1.4077

> <Gold.Chemscore.Internal.Correction>
   9.000000E+99

> <Gold.Chemscore.Hbonds>
donor molecule, donor type, donor heavy atom, donor atom, acceptor molecule, acceptor atom, score
      L1  H     6    26       P1  7948  0.78

> <Gold.Chemscore.Hbond.Weighted>
-3.0371

> <Gold.Chemscore.Metal.Weighted>
-0.0000

> <Gold.Chemscore.Lipo.Weighted>
-12.2728

> <Gold.Chemscore.Internal_Hbond.Weighted>
0.0000

> <Gold.Chemscore.DEClash.Weighted>
0.9885

> <Gold.Chemscore.DEInternal.Weighted>
1.5194

> <Gold.Chemscore.Rot.Weighted>
3.6036

> <Gold.Chemscore.Internal.Correction.Weighted>
   9.000000E+99

> <Gold.Protein.RotatedTorsions>
[ 6907 6896 6895 6894 ] final  165.28 input  -60.11 | X-H torsion
[ 7974 7965 7964 7962 ] final  -88.90 input  175.53 | X-H torsion
[ 8008 7997 7996 7995 ] final  177.98 input   59.86 | X-H torsion
[ 10167 10162 10161 10158 ] final  111.74 input  -65.29 | X-H torsion
[ 10718 10713 10712 10709 ] final  171.22 input   66.30 | X-H torsion
[ 10763 10752 10751 10750 ] final  125.95 input  -60.55 | X-H torsion
[ 11005 11000 10999 10996 ] final   70.19 input  -57.11 | X-H torsion

> <Gold.Protein.ActiveResidues>
 VAL166  LYS551  ARG553  GLY616  TRP617  ASP618  TYR619  PRO620  LYS621  CYS622 
 ASP623  PHE694  ASN695  SER759  ASP760  ASP761  ALA762  ILE779  LEU786  VAL792 
 PHE793  MET794  SER795  GLU796  ALA797  LYS798  CYS799  TRP800  GLU811  SER814 

> <Gold.Protein.RotatedAtoms>
  151.8968  133.3529  159.3816 H   0  0  0  0  0  0  0  0  0  0  0  0  # atno 6907 bound_to 6896
  150.7089  134.4868  159.5506 H   0  0  0  0  0  0  0  0  0  0  0  0  # atno 6908 bound_to 6896
  152.2449  134.8192  160.0505 H   0  0  0  0  0  0  0  0  0  0  0  0  # atno 6909 bound_to 6896
  145.4470  140.9560  143.2043 H   0  0  0  0  0  0  0  0  0  0  0  0  # atno 7974 bound_to 7965
  156.0597  140.1345  156.9956 H   0  0  0  0  0  0  0  0  0  0  0  0  # atno 8008 bound_to 7997
  154.4475  140.0994  156.6569 H   0  0  0  0  0  0  0  0  0  0  0  0  # atno 8009 bound_to 7997
  155.5397  140.3460  155.4446 H   0  0  0  0  0  0  0  0  0  0  0  0  # atno 8010 bound_to 7997
  139.6588  144.7129  151.1905 H   0  0  0  0  0  0  0  0  0  0  0  0  # atno 10167 bound_to 10162
  156.9967  131.0164  151.2842 H   0  0  0  0  0  0  0  0  0  0  0  0  # atno 10718 bound_to 10713
  153.6855  135.3307  155.3189 H   0  0  0  0  0  0  0  0  0  0  0  0  # atno 10763 bound_to 10752
  154.8454  135.4419  154.1562 H   0  0  0  0  0  0  0  0  0  0  0  0  # atno 10764 bound_to 10752
  153.2590  135.6989  153.7676 H   0  0  0  0  0  0  0  0  0  0  0  0  # atno 10765 bound_to 10752
  139.9611  134.7059  156.0643 H   0  0  0  0  0  0  0  0  0  0  0  0  # atno 11005 bound_to 11000
  144.8085  139.6006  143.7040 LP  0  0  0  0  0  0  0  0  0  0  0  0  # atno 17320 bound_to 7965
  146.2525  139.6231  142.9417 LP  0  0  0  0  0  0  0  0  0  0  0  0  # atno 17321 bound_to 7965
  140.7571  143.6028  150.8683 LP  0  0  0  0  0  0  0  0  0  0  0  0  # atno 17342 bound_to 10162
  139.9683  143.6085  152.2981 LP  0  0  0  0  0  0  0  0  0  0  0  0  # atno 17343 bound_to 10162
  157.5420  130.8126  149.8040 LP  0  0  0  0  0  0  0  0  0  0  0  0  # atno 17370 bound_to 10713
  156.0186  130.3804  150.2031 LP  0  0  0  0  0  0  0  0  0  0  0  0  # atno 17371 bound_to 10713
  141.1288  133.6592  156.3409 LP  0  0  0  0  0  0  0  0  0  0  0  0  # atno 17394 bound_to 11000
  140.5497  134.6039  157.5404 LP  0  0  0  0  0  0  0  0  0  0  0  0  # atno 17395 bound_to 11000

$$$$
