AV-unprocessed.smi:1740|AV-procd|sdf|7014|dock10
  -GOLD-   22720 8233D 1   1.00000     0.00000
 Structure written by MMmdl.
 52 54  0  0  0  0  0  0  0  0  4 V2000
  145.0732  128.2562  153.4172 N   0  5  0  0  0  0  0  0  0  0  0  0
  146.4036  128.2943  153.2013 C   0  0  0  0  0  0  0  0  0  0  0  0
  147.2962  127.8212  153.9005 O   0  0  0  0  0  0  0  0  0  0  0  0
  146.7640  129.0326  151.9075 C   0  0  0  0  0  0  0  0  0  0  0  0
  147.3561  130.3620  152.2045 N   0  3  2  0  0  0  0  0  0  0  0  0
  148.2282  130.3610  153.4101 C   0  0  0  0  0  0  0  0  0  0  0  0
  148.9165  131.7231  153.6017 C   0  0  0  0  0  0  0  0  0  0  0  0
  147.8825  132.8609  153.6786 C   0  0  1  0  0  0  0  0  0  0  0  0
  148.5405  134.1613  153.7709 N   0  0  0  0  0  0  0  0  0  0  0  0
  149.0733  134.6795  154.8867 C   0  0  0  0  0  0  0  0  0  0  0  0
  149.0867  134.0957  155.9703 O   0  0  0  0  0  0  0  0  0  0  0  0
  149.5977  135.8951  154.6577 N   0  0  0  0  0  0  0  0  0  0  0  0
  150.2704  136.7478  155.5788 C   0  0  0  0  0  0  0  0  0  0  0  0
  151.0985  136.2171  156.6018 C   0  0  0  0  0  0  0  0  0  0  0  0
  151.6922  137.0780  157.5437 C   0  0  0  0  0  0  0  0  0  0  0  0
  151.4365  138.4572  157.4604 C   0  0  0  0  0  0  0  0  0  0  0  0
  150.6351  138.9304  156.4842 N   0  3  0  0  0  0  0  0  0  0  0  0
  150.0468  138.1552  155.5389 C   0  0  0  0  0  0  0  0  0  0  0  0
  149.2405  138.7946  154.5698 N   0  0  0  0  0  0  0  0  0  0  0  0
  147.8591  138.3746  154.3631 C   0  0  0  0  0  0  0  0  0  0  0  0
  147.2250  139.4919  153.5389 C   0  0  0  0  0  0  0  0  0  0  0  0
  147.9246  140.7353  154.0792 C   0  0  0  0  0  0  0  0  0  0  0  0
  149.3375  140.2420  154.4080 C   0  0  0  0  0  0  0  0  0  0  0  0
  146.9823  132.8179  152.4339 C   0  0  0  0  0  0  0  0  0  0  0  0
  146.3315  131.4346  152.2674 C   0  0  0  0  0  0  0  0  0  0  0  0
  144.6525  128.9720  154.0222 H   0  0  0  0  0  0  0  0  0  0  0  0
  147.4751  128.4137  151.3575 H   0  0  0  0  0  0  0  0  0  0  0  0
  145.8869  129.1411  151.2675 H   0  0  0  0  0  0  0  0  0  0  0  0
  147.6322  130.1165  154.2907 H   0  0  0  0  0  0  0  0  0  0  0  0
  148.9910  129.5867  153.3223 H   0  0  0  0  0  0  0  0  0  0  0  0
  149.5229  131.7010  154.5080 H   0  0  0  0  0  0  0  0  0  0  0  0
  149.6042  131.9003  152.7734 H   0  0  0  0  0  0  0  0  0  0  0  0
  147.2547  132.7140  154.5600 H   0  0  0  0  0  0  0  0  0  0  0  0
  148.5819  134.7093  152.9240 H   0  0  0  0  0  0  0  0  0  0  0  0
  149.5996  136.2051  153.6970 H   0  0  0  0  0  0  0  0  0  0  0  0
  151.2702  135.1555  156.6953 H   0  0  0  0  0  0  0  0  0  0  0  0
  152.3232  136.6832  158.3266 H   0  0  0  0  0  0  0  0  0  0  0  0
  151.8408  139.1913  158.1424 H   0  0  0  0  0  0  0  0  0  0  0  0
  147.8065  137.4134  153.8505 H   0  0  0  0  0  0  0  0  0  0  0  0
  147.3395  138.2850  155.3181 H   0  0  0  0  0  0  0  0  0  0  0  0
  147.4641  139.3599  152.4826 H   0  0  0  0  0  0  0  0  0  0  0  0
  146.1401  139.5328  153.6399 H   0  0  0  0  0  0  0  0  0  0  0  0
  147.9192  141.5680  153.3753 H   0  0  0  0  0  0  0  0  0  0  0  0
  147.4287  141.0653  154.9930 H   0  0  0  0  0  0  0  0  0  0  0  0
  149.7314  140.7323  155.2993 H   0  0  0  0  0  0  0  0  0  0  0  0
  150.0089  140.4565  153.5765 H   0  0  0  0  0  0  0  0  0  0  0  0
  146.2077  133.5825  152.5044 H   0  0  0  0  0  0  0  0  0  0  0  0
  147.5672  133.0508  151.5425 H   0  0  0  0  0  0  0  0  0  0  0  0
  145.7369  131.4282  151.3530 H   0  0  0  0  0  0  0  0  0  0  0  0
  145.6470  131.2368  153.0938 H   0  0  0  0  0  0  0  0  0  0  0  0
  147.9455  130.5729  151.4108 H   0  0  0  0  0  0  0  0  0  0  0  0
  150.4675  139.9361  156.4515 H   0  0  0  0  0  0  0  0  0  0  0  0
  1  2  1  0  0  0  0
  1 26  1  0  0  0  0
  2  3  2  0  0  0  0
  2  4  1  0  0  0  0
  4  5  1  0  0  0  0
  4 27  1  0  0  0  0
  4 28  1  0  0  0  0
  5 25  1  0  0  0  0
  5  6  1  0  0  0  0
  5 51  1  0  0  0  0
  6  7  1  0  0  0  0
  6 29  1  0  0  0  0
  6 30  1  0  0  0  0
  7  8  1  0  0  0  0
  7 31  1  0  0  0  0
  7 32  1  0  0  0  0
  8  9  1  0  0  0  0
  8 24  1  0  0  0  0
  8 33  1  0  0  0  0
  9 10  1  0  0  0  0
  9 34  1  0  0  0  0
 10 11  2  0  0  0  0
 10 12  1  0  0  0  0
 12 13  1  0  0  0  0
 12 35  1  0  0  0  0
 13 18  1  0  0  0  0
 13 14  2  0  0  0  0
 14 15  1  0  0  0  0
 14 36  1  0  0  0  0
 15 16  2  0  0  0  0
 15 37  1  0  0  0  0
 16 17  1  0  0  0  0
 16 38  1  0  0  0  0
 17 18  2  0  0  0  0
 17 52  1  0  0  0  0
 18 19  1  0  0  0  0
 19 23  1  0  0  0  0
 19 20  1  0  0  0  0
 20 21  1  0  0  0  0
 20 39  1  0  0  0  0
 20 40  1  0  0  0  0
 21 22  1  0  0  0  0
 21 41  1  0  0  0  0
 21 42  1  0  0  0  0
 22 23  1  0  0  0  0
 22 43  1  0  0  0  0
 22 44  1  0  0  0  0
 23 45  1  0  0  0  0
 23 46  1  0  0  0  0
 24 25  1  0  0  0  0
 24 47  1  0  0  0  0
 24 48  1  0  0  0  0
 25 49  1  0  0  0  0
 25 50  1  0  0  0  0
M  CHG  1   1  -1
M  CHG  1   5   1
M  CHG  1  17   1
M  END
> <s_m_source_file>
AV-unprocessed.smi

> <i_m_source_file_index>
1740

> <i_lp_mmshare_version>
43012

> <i_f3d_flags>
0

> <s_epik_input>
W05IMl1DKD1PKVtDSDJdTjFbQ0gyXVtDSDJdW0NIXShbQ0gyXVtDSDJdMSlbTkhdQyg9TylbTkhdYzJbY0hdW2NIXVtjSF1uYzJOM1tDSDJdW0NIMl1bQ0gyXVtDSDJdMw==

> <s_epik_cmdline>
J2VwaWtfcHl0aG9uJywgJy1waCcsICc3LjAnLCAnLXRuJywgJzgnLCAnLW1hJywgJzIwMCcsICctbWV0YWxfYmluZGluZycsICctaW1hZScsICc8aW5maWxlLm1hZT4nLCAnLW9tYWUnLCAnPG91dGZpbGUubWFlPic=

> <r_lp_tautomer_probability>
0.999994

> <r_epik_Ionization_Penalty>
6.97817

> <r_epik_Ionization_Penalty_Charging>
6.97815

> <r_epik_Ionization_Penalty_Neutral>
1.88285e-05

> <r_epik_State_Penalty>
7.80985

> <r_epik_Charging_Adjusted_Penalty>
14.788

> <i_epik_Tot_Q>
1

> <i_epik_Tot_abs_Q>
3

> <r_epik_Metal_State_Penalty>
3.85728

> <b_epik_Metal_Only>
1

> <s_lp_Force_Field>
OPLS_2005

> <r_lp_Energy>
44.3343

> <b_lp_Chiralities_Consistent>
1

> <s_lp_Variant>
AV-unprocessed.smi:1740-9

> <Gold.Version>
5.8.1

> <Gold.Id.Protein>
6NUR|6NUR_protein|mol2

> <Gold.PLP.Fitness>
43.4760

> <Gold.PLP.PLP>
-33.7799

> <Gold.PLP.part.hbond>
-4.0000

> <Gold.PLP.part.metal>
0.0000

> <Gold.PLP.part.buried>
-5.9901

> <Gold.PLP.part.nonpolar>
-25.4620

> <Gold.PLP.part.repulsive>
0.2736

> <Gold.PLP.ligand.clash>
0.0208

> <Gold.PLP.ligand.torsion>
1.2304

> <Gold.PLP.Chemscore.Hbond>
3.9120

> <Gold.PLP.Chemscore.CHOScore>
0.0000

> <Gold.PLP.Chemscore.Metal>
0.0000

> <Gold.Chemscore.Hbonds>
donor molecule, donor type, donor heavy atom, donor atom, acceptor molecule, acceptor atom, score
      L1  H     1    26       P1 10956  0.93
      L1  H     5    51       P1 10747  1.00
      L1  H     9    34       P1  7948  1.00
      L1  H    12    35       P1  7948  1.00

> <Gold.PLP.Chemscore.Internal.Correction>
0.4417

> <Gold.Rescore>
     Score         DG    S(hbond)    S(metal)    S(lipo)     H(rot)  DE(clash)    DE(int)     intcor
     17.19     -21.02       3.75        0.00      73.43       2.18       0.04       3.79       ----

> <Gold.Chemscore.Fitness>
17.1899

> <Gold.Chemscore.DG>
-21.0221

> <Gold.Chemscore.ZeroCoef>
-5.4800

> <Gold.Chemscore.Hbond>
3.7546

> <Gold.Chemscore.Metal>
0.0000

> <Gold.Chemscore.Lipo>
73.4276

> <Gold.Chemscore.Internal_Hbond>
0.0000

> <Gold.Chemscore.DEClash>
0.0443

> <Gold.Chemscore.DEInternal>
3.7879

> <Gold.Chemscore.Rot>
2.1832

> <Gold.Chemscore.Internal.Correction>
   9.000000E+99

> <Gold.Chemscore.Hbonds>
donor molecule, donor type, donor heavy atom, donor atom, acceptor molecule, acceptor atom, score
      L1  H     1    26       P1 10956  0.90
      L1  H     5    51       P1 10747  0.95
      L1  H     9    34       P1  7948  0.30
      L1  H    12    35       P1  7948  0.49

> <Gold.Chemscore.Hbond.Weighted>
-12.5402

> <Gold.Chemscore.Metal.Weighted>
-0.0000

> <Gold.Chemscore.Lipo.Weighted>
-8.5910

> <Gold.Chemscore.Internal_Hbond.Weighted>
0.0000

> <Gold.Chemscore.DEClash.Weighted>
0.0443

> <Gold.Chemscore.DEInternal.Weighted>
3.7879

> <Gold.Chemscore.Rot.Weighted>
5.5891

> <Gold.Chemscore.Internal.Correction.Weighted>
   9.000000E+99

> <Gold.Protein.RotatedTorsions>
[ 6907 6896 6895 6894 ] final  132.71 input  -60.11 | X-H torsion
[ 7974 7965 7964 7962 ] final  -19.39 input  175.53 | X-H torsion
[ 8008 7997 7996 7995 ] final   67.14 input   59.86 | X-H torsion
[ 10167 10162 10161 10158 ] final  141.25 input  -65.29 | X-H torsion
[ 10718 10713 10712 10709 ] final   25.31 input   66.30 | X-H torsion
[ 10763 10752 10751 10750 ] final   41.95 input  -60.55 | X-H torsion
[ 11005 11000 10999 10996 ] final -105.73 input  -57.11 | X-H torsion

> <Gold.Protein.ActiveResidues>
 VAL166  LYS551  ARG553  GLY616  TRP617  ASP618  TYR619  PRO620  LYS621  CYS622 
 ASP623  PHE694  ASN695  SER759  ASP760  ASP761  ALA762  ILE779  LEU786  VAL792 
 PHE793  MET794  SER795  GLU796  ALA797  LYS798  CYS799  TRP800  GLU811  SER814 

> <Gold.Protein.RotatedAtoms>
  152.3295  133.5943  159.5799 H   0  0  0  0  0  0  0  0  0  0  0  0  # atno 6907 bound_to 6896
  150.7415  133.9889  159.3609 H   0  0  0  0  0  0  0  0  0  0  0  0  # atno 6908 bound_to 6896
  151.7765  135.0773  160.0418 H   0  0  0  0  0  0  0  0  0  0  0  0  # atno 6909 bound_to 6896
  146.1843  140.4056  142.8482 H   0  0  0  0  0  0  0  0  0  0  0  0  # atno 7974 bound_to 7965
  155.6883  140.3496  155.4883 H   0  0  0  0  0  0  0  0  0  0  0  0  # atno 8008 bound_to 7997
  155.9547  140.1126  157.0970 H   0  0  0  0  0  0  0  0  0  0  0  0  # atno 8009 bound_to 7997
  154.4129  140.1187  156.5085 H   0  0  0  0  0  0  0  0  0  0  0  0  # atno 8010 bound_to 7997
  139.5026  144.6183  151.6111 H   0  0  0  0  0  0  0  0  0  0  0  0  # atno 10167 bound_to 10162
  157.1916  130.6849  149.6152 H   0  0  0  0  0  0  0  0  0  0  0  0  # atno 10718 bound_to 10713
  152.9895  135.6146  154.2871 H   0  0  0  0  0  0  0  0  0  0  0  0  # atno 10763 bound_to 10752
  154.2598  135.2782  155.2784 H   0  0  0  0  0  0  0  0  0  0  0  0  # atno 10764 bound_to 10752
  154.5216  135.5813  153.6742 H   0  0  0  0  0  0  0  0  0  0  0  0  # atno 10765 bound_to 10752
  141.1039  133.8833  157.1770 H   0  0  0  0  0  0  0  0  0  0  0  0  # atno 11005 bound_to 11000
  144.8370  140.6797  143.6254 LP  0  0  0  0  0  0  0  0  0  0  0  0  # atno 17320 bound_to 7965
  145.3984  139.1602  143.4191 LP  0  0  0  0  0  0  0  0  0  0  0  0  # atno 17321 bound_to 7965
  140.5878  143.9833  150.6306 LP  0  0  0  0  0  0  0  0  0  0  0  0  # atno 17342 bound_to 10162
  140.3003  143.3264  152.0978 LP  0  0  0  0  0  0  0  0  0  0  0  0  # atno 17343 bound_to 10162
  155.9711  130.4612  150.6103 LP  0  0  0  0  0  0  0  0  0  0  0  0  # atno 17370 bound_to 10713
  157.3855  131.0787  151.1440 LP  0  0  0  0  0  0  0  0  0  0  0  0  # atno 17371 bound_to 10713
  139.9901  135.0067  156.9955 LP  0  0  0  0  0  0  0  0  0  0  0  0  # atno 17394 bound_to 11000
  140.4952  134.1153  155.7240 LP  0  0  0  0  0  0  0  0  0  0  0  0  # atno 17395 bound_to 11000

$$$$
