AV-unprocessed.smi:3033|AV-procd|sdf|11575|dock2
  -GOLD-   2272016543D 1   1.00000     0.00000
 Structure written by MMmdl.
 32 33  0  0  0  0  0  0  0  0  2 V2000
  143.3435  132.6430  148.3494 C   0  0  0  0  0  0  0  0  0  0  0  0
  144.2025  132.0158  149.2905 O   0  0  0  0  0  0  0  0  0  0  0  0
  144.8298  132.8108  150.2257 C   0  0  0  0  0  0  0  0  0  0  0  0
  144.6028  134.2027  150.3684 C   0  0  0  0  0  0  0  0  0  0  0  0
  145.2837  134.9368  151.3585 C   0  0  0  0  0  0  0  0  0  0  0  0
  146.1971  134.2941  152.2139 C   0  0  0  0  0  0  0  0  0  0  0  0
  146.4388  132.9117  152.0801 C   0  0  0  0  0  0  0  0  0  0  0  0
  147.4185  132.2197  153.0159 C   0  0  2  0  0  0  0  0  0  0  0  0
  146.9650  132.2573  154.3552 O   0  0  0  0  0  0  0  0  0  0  0  0
  148.8111  132.8819  152.9464 C   0  0  0  0  0  0  0  0  0  0  0  0
  149.5540  132.7386  154.2067 N   0  0  0  0  0  0  0  0  0  0  0  0
  149.9982  131.4520  154.5543 C   0  0  0  0  0  0  0  0  0  0  0  0
  150.6924  131.2164  155.6845 C   0  0  0  0  0  0  0  0  0  0  0  0
  151.2286  129.6235  156.0849 Cl  0  0  0  0  0  0  0  0  0  0  0  0
  150.9812  132.3501  156.5609 C   0  0  0  0  0  0  0  0  0  0  0  0
  151.6101  132.1701  157.6027 O   0  0  0  0  0  0  0  0  0  0  0  0
  150.5318  133.5804  156.1752 N   0  5  0  0  0  0  0  0  0  0  0  0
  149.8304  133.8006  155.0206 C   0  0  0  0  0  0  0  0  0  0  0  0
  149.4435  134.9218  154.6888 O   0  0  0  0  0  0  0  0  0  0  0  0
  145.7510  132.1804  151.0872 C   0  0  0  0  0  0  0  0  0  0  0  0
  142.9110  131.8850  147.6964 H   0  0  0  0  0  0  0  0  0  0  0  0
  143.8881  133.3486  147.7206 H   0  0  0  0  0  0  0  0  0  0  0  0
  142.5203  133.1605  148.8439 H   0  0  0  0  0  0  0  0  0  0  0  0
  143.9094  134.7313  149.7322 H   0  0  0  0  0  0  0  0  0  0  0  0
  145.1026  135.9962  151.4635 H   0  0  0  0  0  0  0  0  0  0  0  0
  146.7086  134.8657  152.9747 H   0  0  0  0  0  0  0  0  0  0  0  0
  147.4863  131.1712  152.7226 H   0  0  0  0  0  0  0  0  0  0  0  0
  147.6958  132.4830  154.9101 H   0  0  0  0  0  0  0  0  0  0  0  0
  149.3966  132.4164  152.1512 H   0  0  0  0  0  0  0  0  0  0  0  0
  148.7262  133.9282  152.6487 H   0  0  0  0  0  0  0  0  0  0  0  0
  149.7459  130.6754  153.8469 H   0  0  0  0  0  0  0  0  0  0  0  0
  145.9263  131.1190  150.9865 H   0  0  0  0  0  0  0  0  0  0  0  0
  1  2  1  0  0  0  0
  1 21  1  0  0  0  0
  1 22  1  0  0  0  0
  1 23  1  0  0  0  0
  2  3  1  0  0  0  0
  3 20  1  0  0  0  0
  3  4  2  0  0  0  0
  4  5  1  0  0  0  0
  4 24  1  0  0  0  0
  5  6  2  0  0  0  0
  5 25  1  0  0  0  0
  6  7  1  0  0  0  0
  6 26  1  0  0  0  0
  7  8  1  0  0  0  0
  7 20  2  0  0  0  0
  8  9  1  0  0  0  0
  8 10  1  0  0  0  0
  8 27  1  0  0  0  0
  9 28  1  0  0  0  0
 10 11  1  0  0  0  0
 10 29  1  0  0  0  0
 10 30  1  0  0  0  0
 11 18  1  0  0  0  0
 11 12  1  0  0  0  0
 12 13  2  0  0  0  0
 12 31  1  0  0  0  0
 13 14  1  0  0  0  0
 13 15  1  0  0  0  0
 15 16  2  0  0  0  0
 15 17  1  0  0  0  0
 17 18  1  0  0  0  0
 18 19  2  0  0  0  0
 20 32  1  0  0  0  0
M  CHG  1  17  -1
M  END
> <s_m_source_file>
AV-unprocessed.smi

> <i_m_source_file_index>
3033

> <i_lp_mmshare_version>
43012

> <i_f3d_flags>
0

> <s_epik_input>
W0NIM11PYzFbY0hdW2NIXVtjSF1jKFtjSF0xKVtDQEhdKFtPSF0pW0NIMl1uMltjSF1jKENsKWMoPU8pW25IXWMyPU8=

> <s_epik_cmdline>
J2VwaWtfcHl0aG9uJywgJy1waCcsICc3LjAnLCAnLXRuJywgJzgnLCAnLW1hJywgJzIwMCcsICctbWV0YWxfYmluZGluZycsICctaW1hZScsICc8aW5maWxlLm1hZT4nLCAnLW9tYWUnLCAnPG91dGZpbGUubWFlPic=

> <r_lp_tautomer_probability>
1

> <r_epik_Ionization_Penalty>
1.7979

> <r_epik_Ionization_Penalty_Charging>
3.23819e-08

> <r_epik_Ionization_Penalty_Neutral>
1.7979

> <r_epik_State_Penalty>
1.91135

> <r_epik_Charging_Adjusted_Penalty>
1.91135

> <i_epik_Tot_Q>
-1

> <i_epik_Tot_abs_Q>
1

> <r_epik_Metal_State_Penalty>
0.014155

> <b_epik_Metal_Only>
0

> <s_lp_Force_Field>
OPLS_2005

> <r_lp_Energy>
24.094

> <b_lp_Chiralities_Consistent>
1

> <s_lp_Variant>
AV-unprocessed.smi:3033-3

> <Gold.Version>
5.8.1

> <Gold.Id.Protein>
6NUR|6NUR_protein|mol2

> <Gold.PLP.Fitness>
39.8414

> <Gold.PLP.PLP>
-37.5412

> <Gold.PLP.part.hbond>
-2.0000

> <Gold.PLP.part.metal>
0.0000

> <Gold.PLP.part.buried>
-4.3168

> <Gold.PLP.part.nonpolar>
-31.9986

> <Gold.PLP.part.repulsive>
0.3472

> <Gold.PLP.ligand.clash>
0.0000

> <Gold.PLP.ligand.torsion>
0.4968

> <Gold.PLP.Chemscore.Hbond>
1.0944

> <Gold.PLP.Chemscore.CHOScore>
0.0000

> <Gold.PLP.Chemscore.Metal>
0.0000

> <Gold.Chemscore.Hbonds>
donor molecule, donor type, donor heavy atom, donor atom, acceptor molecule, acceptor atom, score
      P1  H  6896  6908       L1    16  1.00
      P1  H 10785 10796       L1     2  0.13

> <Gold.PLP.Chemscore.Internal.Correction>
0.0108

> <Gold.Rescore>
     Score         DG    S(hbond)    S(metal)    S(lipo)     H(rot)  DE(clash)    DE(int)     intcor
     11.70     -12.21       1.00        0.00      82.57       2.45       0.02       0.49       ----

> <Gold.Chemscore.Fitness>
11.7025

> <Gold.Chemscore.DG>
-12.2081

> <Gold.Chemscore.ZeroCoef>
-5.4800

> <Gold.Chemscore.Hbond>
0.9991

> <Gold.Chemscore.Metal>
0.0000

> <Gold.Chemscore.Lipo>
82.5688

> <Gold.Chemscore.Internal_Hbond>
0.0000

> <Gold.Chemscore.DEClash>
0.0174

> <Gold.Chemscore.DEInternal>
0.4881

> <Gold.Chemscore.Rot>
2.4491

> <Gold.Chemscore.Internal.Correction>
   9.000000E+99

> <Gold.Chemscore.Hbonds>
donor molecule, donor type, donor heavy atom, donor atom, acceptor molecule, acceptor atom, score
      P1  H  6896  6908       L1    16  0.97

> <Gold.Chemscore.Hbond.Weighted>
-3.3371

> <Gold.Chemscore.Metal.Weighted>
-0.0000

> <Gold.Chemscore.Lipo.Weighted>
-9.6606

> <Gold.Chemscore.Internal_Hbond.Weighted>
0.0000

> <Gold.Chemscore.DEClash.Weighted>
0.0174

> <Gold.Chemscore.DEInternal.Weighted>
0.4881

> <Gold.Chemscore.Rot.Weighted>
6.2696

> <Gold.Chemscore.Internal.Correction.Weighted>
   9.000000E+99

> <Gold.Protein.RotatedTorsions>
[ 6907 6896 6895 6894 ] final   64.58 input  -60.11 | X-H torsion
[ 7974 7965 7964 7962 ] final   79.54 input  175.53 | X-H torsion
[ 8008 7997 7996 7995 ] final -177.92 input   59.86 | X-H torsion
[ 10167 10162 10161 10158 ] final   -6.87 input  -65.29 | X-H torsion
[ 10718 10713 10712 10709 ] final -162.54 input   66.30 | X-H torsion
[ 10763 10752 10751 10750 ] final    4.96 input  -60.55 | X-H torsion
[ 11005 11000 10999 10996 ] final -177.60 input  -57.11 | X-H torsion

> <Gold.Protein.ActiveResidues>
 VAL166  LYS551  ARG553  GLY616  TRP617  ASP618  TYR619  PRO620  LYS621  CYS622 
 ASP623  PHE694  ASN695  SER759  ASP760  ASP761  ALA762  ILE779  LEU786  VAL792 
 PHE793  MET794  SER795  GLU796  ALA797  LYS798  CYS799  TRP800  GLU811  SER814 

> <Gold.Protein.RotatedAtoms>
  152.4342  134.5718  159.9923 H   0  0  0  0  0  0  0  0  0  0  0  0  # atno 6907 bound_to 6896
  151.5833  133.3369  159.3021 H   0  0  0  0  0  0  0  0  0  0  0  0  # atno 6908 bound_to 6896
  150.8238  134.7495  159.6860 H   0  0  0  0  0  0  0  0  0  0  0  0  # atno 6909 bound_to 6896
  145.6628  139.2476  143.1913 H   0  0  0  0  0  0  0  0  0  0  0  0  # atno 7974 bound_to 7965
  156.0127  140.1244  157.0437 H   0  0  0  0  0  0  0  0  0  0  0  0  # atno 8008 bound_to 7997
  154.4282  140.1084  156.5922 H   0  0  0  0  0  0  0  0  0  0  0  0  # atno 8009 bound_to 7997
  155.6057  140.3471  155.4609 H   0  0  0  0  0  0  0  0  0  0  0  0  # atno 8010 bound_to 7997
  140.7011  143.6145  150.8671 H   0  0  0  0  0  0  0  0  0  0  0  0  # atno 10167 bound_to 10162
  156.6118  130.8854  151.2938 H   0  0  0  0  0  0  0  0  0  0  0  0  # atno 10718 bound_to 10713
  153.2650  135.6927  153.7539 H   0  0  0  0  0  0  0  0  0  0  0  0  # atno 10763 bound_to 10752
  153.6584  135.3364  155.3121 H   0  0  0  0  0  0  0  0  0  0  0  0  # atno 10764 bound_to 10752
  154.8444  135.4471  154.1653 H   0  0  0  0  0  0  0  0  0  0  0  0  # atno 10765 bound_to 10752
  140.4391  134.6448  157.4749 H   0  0  0  0  0  0  0  0  0  0  0  0  # atno 11005 bound_to 11000
  146.1111  140.7427  142.9503 LP  0  0  0  0  0  0  0  0  0  0  0  0  # atno 17320 bound_to 7965
  144.7083  140.3940  143.7100 LP  0  0  0  0  0  0  0  0  0  0  0  0  # atno 17321 bound_to 7965
  139.9867  143.5891  152.2924 LP  0  0  0  0  0  0  0  0  0  0  0  0  # atno 17342 bound_to 10162
  139.6532  144.7661  151.2107 LP  0  0  0  0  0  0  0  0  0  0  0  0  # atno 17343 bound_to 10162
  157.7252  130.9612  150.1604 LP  0  0  0  0  0  0  0  0  0  0  0  0  # atno 17370 bound_to 10713
  156.2383  130.3688  149.8366 LP  0  0  0  0  0  0  0  0  0  0  0  0  # atno 17371 bound_to 10713
  140.0082  134.6731  155.9422 LP  0  0  0  0  0  0  0  0  0  0  0  0  # atno 17394 bound_to 11000
  141.1713  133.6537  156.4662 LP  0  0  0  0  0  0  0  0  0  0  0  0  # atno 17395 bound_to 11000

$$$$
