AV-unprocessed.smi:1484|AV-procd|sdf|5995|dock5
  -GOLD-   22720 6 93D 1   1.00000     0.00000
 Structure written by MMmdl.
 37 38  0  0  0  0  0  0  0  0  2 V2000
  152.9591  142.5462  161.1793 C   0  0  0  0  0  0  0  0  0  0  0  0
  152.8311  142.7724  159.6660 C   0  0  2  0  0  0  0  0  0  0  0  0
  152.7122  144.2706  159.3281 C   0  0  0  0  0  0  0  0  0  0  0  0
  152.5872  144.4959  157.8134 C   0  0  0  0  0  0  0  0  0  0  0  0
  151.4003  143.7136  157.2309 C   0  0  0  0  0  0  0  0  0  0  0  0
  151.5038  142.2122  157.5560 C   0  0  2  0  0  0  0  0  0  0  0  0
  150.3285  141.5196  157.0366 N   0  0  0  0  0  0  0  0  0  0  0  0
  150.3402  140.5695  156.0890 C   0  0  0  0  0  0  0  0  0  0  0  0
  151.3742  140.1716  155.5494 O   0  0  0  0  0  0  0  0  0  0  0  0
  148.9664  139.9898  155.7156 C   0  0  0  0  0  0  0  0  0  0  0  0
  148.0619  140.9486  155.0642 N   0  0  0  0  0  0  0  0  0  0  0  0
  146.7927  141.1306  155.7634 N   0  5  0  0  0  0  0  0  0  0  0  0
  145.8662  141.9795  155.2448 C   0  0  0  0  0  0  0  0  0  0  0  0
  144.7705  142.1700  155.7674 O   0  0  0  0  0  0  0  0  0  0  0  0
  146.1984  142.6904  154.0214 C   0  0  0  0  0  0  0  0  0  0  0  0
  147.3871  142.5203  153.4096 C   0  0  0  0  0  0  0  0  0  0  0  0
  148.4078  141.6167  153.9266 C   0  0  0  0  0  0  0  0  0  0  0  0
  149.4994  141.4640  153.3780 O   0  0  0  0  0  0  0  0  0  0  0  0
  151.6406  141.9904  159.0771 C   0  0  0  0  0  0  0  0  0  0  0  0
  152.0751  142.9017  161.7098 H   0  0  0  0  0  0  0  0  0  0  0  0
  153.8243  143.0725  161.5831 H   0  0  0  0  0  0  0  0  0  0  0  0
  153.0817  141.4874  161.4087 H   0  0  0  0  0  0  0  0  0  0  0  0
  153.7425  142.3943  159.2005 H   0  0  0  0  0  0  0  0  0  0  0  0
  151.8421  144.6945  159.8315 H   0  0  0  0  0  0  0  0  0  0  0  0
  153.5811  144.8098  159.7070 H   0  0  0  0  0  0  0  0  0  0  0  0
  152.4695  145.5596  157.6044 H   0  0  0  0  0  0  0  0  0  0  0  0
  153.5086  144.1840  157.3198 H   0  0  0  0  0  0  0  0  0  0  0  0
  150.4702  144.1163  157.6351 H   0  0  0  0  0  0  0  0  0  0  0  0
  151.3579  143.8609  156.1511 H   0  0  0  0  0  0  0  0  0  0  0  0
  152.3936  141.8186  157.0604 H   0  0  0  0  0  0  0  0  0  0  0  0
  149.4357  141.7820  157.4277 H   0  0  0  0  0  0  0  0  0  0  0  0
  149.1279  139.1249  155.0692 H   0  0  0  0  0  0  0  0  0  0  0  0
  148.4935  139.5949  156.6165 H   0  0  0  0  0  0  0  0  0  0  0  0
  145.4768  143.3715  153.5948 H   0  0  0  0  0  0  0  0  0  0  0  0
  147.5916  143.0695  152.5028 H   0  0  0  0  0  0  0  0  0  0  0  0
  151.7636  140.9269  159.2866 H   0  0  0  0  0  0  0  0  0  0  0  0
  150.7200  142.2969  159.5764 H   0  0  0  0  0  0  0  0  0  0  0  0
  1  2  1  0  0  0  0
  1 20  1  0  0  0  0
  1 21  1  0  0  0  0
  1 22  1  0  0  0  0
  2 19  1  0  0  0  0
  2  3  1  0  0  0  0
  2 23  1  0  0  0  0
  3  4  1  0  0  0  0
  3 24  1  0  0  0  0
  3 25  1  0  0  0  0
  4  5  1  0  0  0  0
  4 26  1  0  0  0  0
  4 27  1  0  0  0  0
  5  6  1  0  0  0  0
  5 28  1  0  0  0  0
  5 29  1  0  0  0  0
  6  7  1  0  0  0  0
  6 19  1  0  0  0  0
  6 30  1  0  0  0  0
  7  8  1  0  0  0  0
  7 31  1  0  0  0  0
  8  9  2  0  0  0  0
  8 10  1  0  0  0  0
 10 32  1  0  0  0  0
 10 33  1  0  0  0  0
 10 11  1  0  0  0  0
 11 12  1  0  0  0  0
 11 17  1  0  0  0  0
 12 13  1  0  0  0  0
 13 14  2  0  0  0  0
 13 15  1  0  0  0  0
 15 34  1  0  0  0  0
 15 16  2  0  0  0  0
 16 35  1  0  0  0  0
 16 17  1  0  0  0  0
 17 18  2  0  0  0  0
 19 36  1  0  0  0  0
 19 37  1  0  0  0  0
M  CHG  1  12  -1
M  END
> <s_m_source_file>
AV-unprocessed.smi

> <i_m_source_file_index>
1484

> <i_lp_mmshare_version>
43012

> <i_f3d_flags>
0

> <s_epik_input>
W0NIM11bQ0BASF0xW0NIMl1bQ0gyXVtDSDJdW0NASF0oW0NIMl0xKVtOSF1DKD1PKVtDSDJdbjJbbkhdYyg9TylbY0hdW2NIXWMyPU8=

> <s_epik_cmdline>
J2VwaWtfcHl0aG9uJywgJy1waCcsICc3LjAnLCAnLXRuJywgJzgnLCAnLW1hJywgJzIwMCcsICctbWV0YWxfYmluZGluZycsICctaW1hZScsICc8aW5maWxlLm1hZT4nLCAnLW9tYWUnLCAnPG91dGZpbGUubWFlPic=

> <r_lp_tautomer_probability>
1

> <r_epik_Ionization_Penalty>
0.101352

> <r_epik_Ionization_Penalty_Charging>
0.101352

> <r_epik_Ionization_Penalty_Neutral>
1.90469e-08

> <r_epik_State_Penalty>
0.0358555

> <r_epik_Charging_Adjusted_Penalty>
0.137208

> <i_epik_Tot_Q>
-1

> <i_epik_Tot_abs_Q>
1

> <r_epik_Metal_State_Penalty>
0.0358555

> <b_epik_Metal_Only>
0

> <s_lp_Force_Field>
OPLS_2005

> <r_lp_Energy>
24.7991

> <b_lp_Chiralities_Consistent>
1

> <s_lp_Variant>
AV-unprocessed.smi:1484-3

> <Gold.Version>
5.8.1

> <Gold.Id.Protein>
6NUR|6NUR_protein|mol2

> <Gold.PLP.Fitness>
43.9780

> <Gold.PLP.PLP>
-38.9378

> <Gold.PLP.part.hbond>
-2.5698

> <Gold.PLP.part.metal>
0.0000

> <Gold.PLP.part.buried>
-3.3083

> <Gold.PLP.part.nonpolar>
-32.6826

> <Gold.PLP.part.repulsive>
1.6167

> <Gold.PLP.ligand.clash>
0.0000

> <Gold.PLP.ligand.torsion>
0.0506

> <Gold.PLP.Chemscore.Hbond>
1.7120

> <Gold.PLP.Chemscore.CHOScore>
0.0000

> <Gold.PLP.Chemscore.Metal>
0.0000

> <Gold.Chemscore.Hbonds>
donor molecule, donor type, donor heavy atom, donor atom, acceptor molecule, acceptor atom, score
      P1  H  7989  7998       L1     9  0.63
      P1  H  8011  8017       L1    18  0.74

> <Gold.PLP.Chemscore.Internal.Correction>
0.0054

> <Gold.Rescore>
     Score         DG    S(hbond)    S(metal)    S(lipo)     H(rot)  DE(clash)    DE(int)     intcor
     15.07     -17.77       1.61        0.00      95.22       1.65       1.34       1.35       ----

> <Gold.Chemscore.Fitness>
15.0724

> <Gold.Chemscore.DG>
-17.7667

> <Gold.Chemscore.ZeroCoef>
-5.4800

> <Gold.Chemscore.Hbond>
1.6116

> <Gold.Chemscore.Metal>
0.0000

> <Gold.Chemscore.Lipo>
95.2164

> <Gold.Chemscore.Internal_Hbond>
0.0000

> <Gold.Chemscore.DEClash>
1.3408

> <Gold.Chemscore.DEInternal>
1.3535

> <Gold.Chemscore.Rot>
1.6549

> <Gold.Chemscore.Internal.Correction>
   9.000000E+99

> <Gold.Chemscore.Hbonds>
donor molecule, donor type, donor heavy atom, donor atom, acceptor molecule, acceptor atom, score
      P1  H  7989  7998       L1     9  0.53
      P1  H  8011  8017       L1    18  0.63

> <Gold.Chemscore.Hbond.Weighted>
-5.3829

> <Gold.Chemscore.Metal.Weighted>
-0.0000

> <Gold.Chemscore.Lipo.Weighted>
-11.1403

> <Gold.Chemscore.Internal_Hbond.Weighted>
0.0000

> <Gold.Chemscore.DEClash.Weighted>
1.3408

> <Gold.Chemscore.DEInternal.Weighted>
1.3535

> <Gold.Chemscore.Rot.Weighted>
4.2364

> <Gold.Chemscore.Internal.Correction.Weighted>
   9.000000E+99

> <Gold.Protein.RotatedTorsions>
[ 6907 6896 6895 6894 ] final  113.23 input  -60.11 | X-H torsion
[ 7974 7965 7964 7962 ] final  -38.91 input  175.53 | X-H torsion
[ 8008 7997 7996 7995 ] final  137.37 input   59.86 | X-H torsion
[ 10167 10162 10161 10158 ] final  -40.48 input  -65.29 | X-H torsion
[ 10718 10713 10712 10709 ] final -169.81 input   66.30 | X-H torsion
[ 10763 10752 10751 10750 ] final   91.50 input  -60.55 | X-H torsion
[ 11005 11000 10999 10996 ] final   84.33 input  -57.11 | X-H torsion

> <Gold.Protein.ActiveResidues>
 VAL166  LYS551  ARG553  GLY616  TRP617  ASP618  TYR619  PRO620  LYS621  CYS622 
 ASP623  PHE694  ASN695  SER759  ASP760  ASP761  ALA762  ILE779  LEU786  VAL792 
 PHE793  MET794  SER795  GLU796  ALA797  LYS798  CYS799  TRP800  GLU811  SER814 

> <Gold.Protein.RotatedAtoms>
  152.4872  133.8404  159.7149 H   0  0  0  0  0  0  0  0  0  0  0  0  # atno 6907 bound_to 6896
  150.8969  133.7159  159.2896 H   0  0  0  0  0  0  0  0  0  0  0  0  # atno 6908 bound_to 6896
  151.4614  135.1042  159.9778 H   0  0  0  0  0  0  0  0  0  0  0  0  # atno 6909 bound_to 6896
  146.0443  140.6566  142.9072 H   0  0  0  0  0  0  0  0  0  0  0  0  # atno 7974 bound_to 7965
  156.3002  140.2421  156.3898 H   0  0  0  0  0  0  0  0  0  0  0  0  # atno 8008 bound_to 7997
  154.8625  140.0419  157.1693 H   0  0  0  0  0  0  0  0  0  0  0  0  # atno 8009 bound_to 7997
  154.8882  140.2959  155.5390 H   0  0  0  0  0  0  0  0  0  0  0  0  # atno 8010 bound_to 7997
  140.7033  143.3151  151.2931 H   0  0  0  0  0  0  0  0  0  0  0  0  # atno 10167 bound_to 10162
  156.7170  130.9255  151.3094 H   0  0  0  0  0  0  0  0  0  0  0  0  # atno 10718 bound_to 10713
  153.2089  135.4395  155.0356 H   0  0  0  0  0  0  0  0  0  0  0  0  # atno 10763 bound_to 10752
  154.8189  135.3328  154.7098 H   0  0  0  0  0  0  0  0  0  0  0  0  # atno 10764 bound_to 10752
  153.7538  135.6996  153.4996 H   0  0  0  0  0  0  0  0  0  0  0  0  # atno 10765 bound_to 10752
  139.9003  134.8209  156.2431 H   0  0  0  0  0  0  0  0  0  0  0  0  # atno 11005 bound_to 11000
  144.7090  140.3966  143.7095 LP  0  0  0  0  0  0  0  0  0  0  0  0  # atno 17320 bound_to 7965
  145.6831  139.1623  143.2689 LP  0  0  0  0  0  0  0  0  0  0  0  0  # atno 17321 bound_to 7965
  139.6586  144.0230  152.2677 LP  0  0  0  0  0  0  0  0  0  0  0  0  # atno 17342 bound_to 10162
  139.9790  144.6441  150.7918 LP  0  0  0  0  0  0  0  0  0  0  0  0  # atno 17343 bound_to 10162
  157.6913  130.9236  150.0522 LP  0  0  0  0  0  0  0  0  0  0  0  0  # atno 17370 bound_to 10713
  156.1621  130.3644  149.9285 LP  0  0  0  0  0  0  0  0  0  0  0  0  # atno 17371 bound_to 10713
  141.0272  133.7008  156.1368 LP  0  0  0  0  0  0  0  0  0  0  0  0  # atno 17394 bound_to 11000
  140.7149  134.4422  157.5579 LP  0  0  0  0  0  0  0  0  0  0  0  0  # atno 17395 bound_to 11000

$$$$
