AV-unprocessed.smi:3198|AV-procd|sdf|12230|dock2
  -GOLD-   2272018 63D 1   1.00000     0.00000
 Structure written by MMmdl.
 37 38  0  0  0  0  0  0  0  0  1 V2000
  153.0408  142.2480  161.2626 C   0  0  0  0  0  0  0  0  0  0  0  0
  152.3367  143.2427  160.3641 C   0  0  0  0  0  0  0  0  0  0  0  0
  152.1826  144.5893  160.7523 C   0  0  0  0  0  0  0  0  0  0  0  0
  151.5215  145.4657  159.8713 C   0  0  0  0  0  0  0  0  0  0  0  0
  151.0451  144.9649  158.6443 C   0  0  0  0  0  0  0  0  0  0  0  0
  151.2481  143.6023  158.3404 C   0  0  0  0  0  0  0  0  0  0  0  0
  150.7713  143.1102  157.1167 N   0  0  0  0  0  0  0  0  0  0  0  0
  151.2958  141.8801  156.5350 C   0  0  0  0  0  0  0  0  0  0  0  0
  150.1826  140.9079  156.1187 C   0  0  0  0  0  0  0  0  0  0  0  0
  150.2880  140.6519  154.7284 O   0  0  0  0  0  0  0  0  0  0  0  0
  149.7607  139.3870  154.3617 C   0  0  0  0  0  0  0  0  0  0  0  0
  150.7338  138.2760  154.7797 C   0  0  1  0  0  0  0  0  0  0  0  0
  152.2086  138.5280  154.4320 C   0  0  0  0  0  0  0  0  0  0  0  0
  152.9575  138.1550  155.7034 C   0  0  0  0  0  0  0  0  0  0  0  0
  151.9097  137.4337  156.5452 C   0  0  0  0  0  0  0  0  0  0  0  0
  150.7033  138.0858  156.1874 O   0  0  0  0  0  0  0  0  0  0  0  0
  151.8809  142.7569  159.1889 N   0  0  0  0  0  0  0  0  0  0  0  0
  153.2775  142.6884  162.2316 H   0  0  0  0  0  0  0  0  0  0  0  0
  153.9716  141.9163  160.8020 H   0  0  0  0  0  0  0  0  0  0  0  0
  152.4100  141.3747  161.4313 H   0  0  0  0  0  0  0  0  0  0  0  0
  152.5606  144.9446  161.6997 H   0  0  0  0  0  0  0  0  0  0  0  0
  151.3827  146.5046  160.1315 H   0  0  0  0  0  0  0  0  0  0  0  0
  150.5357  145.6182  157.9509 H   0  0  0  0  0  0  0  0  0  0  0  0
  150.2281  143.7209  156.5238 H   0  0  0  0  0  0  0  0  0  0  0  0
  151.9249  142.1207  155.6774 H   0  0  0  0  0  0  0  0  0  0  0  0
  151.9494  141.4022  157.2649 H   0  0  0  0  0  0  0  0  0  0  0  0
  150.2396  139.9797  156.6896 H   0  0  0  0  0  0  0  0  0  0  0  0
  149.2111  141.3574  156.3284 H   0  0  0  0  0  0  0  0  0  0  0  0
  148.7929  139.2289  154.8402 H   0  0  0  0  0  0  0  0  0  0  0  0
  149.6024  139.3516  153.2828 H   0  0  0  0  0  0  0  0  0  0  0  0
  150.4199  137.3367  154.3212 H   0  0  0  0  0  0  0  0  0  0  0  0
  152.5145  137.9069  153.5896 H   0  0  0  0  0  0  0  0  0  0  0  0
  152.4064  139.5664  154.1640 H   0  0  0  0  0  0  0  0  0  0  0  0
  153.8388  137.5414  155.5152 H   0  0  0  0  0  0  0  0  0  0  0  0
  153.2811  139.0611  156.2173 H   0  0  0  0  0  0  0  0  0  0  0  0
  151.8497  136.3781  156.2749 H   0  0  0  0  0  0  0  0  0  0  0  0
  152.1052  137.5064  157.6150 H   0  0  0  0  0  0  0  0  0  0  0  0
  1  2  1  0  0  0  0
  1 18  1  0  0  0  0
  1 19  1  0  0  0  0
  1 20  1  0  0  0  0
  2 17  1  0  0  0  0
  2  3  2  0  0  0  0
  3  4  1  0  0  0  0
  3 21  1  0  0  0  0
  4  5  2  0  0  0  0
  4 22  1  0  0  0  0
  5  6  1  0  0  0  0
  5 23  1  0  0  0  0
  6  7  1  0  0  0  0
  6 17  2  0  0  0  0
  7  8  1  0  0  0  0
  7 24  1  0  0  0  0
  8  9  1  0  0  0  0
  8 25  1  0  0  0  0
  8 26  1  0  0  0  0
  9 10  1  0  0  0  0
  9 27  1  0  0  0  0
  9 28  1  0  0  0  0
 10 11  1  0  0  0  0
 11 12  1  0  0  0  0
 11 29  1  0  0  0  0
 11 30  1  0  0  0  0
 12 16  1  0  0  0  0
 12 13  1  0  0  0  0
 12 31  1  0  0  0  0
 13 14  1  0  0  0  0
 13 32  1  0  0  0  0
 13 33  1  0  0  0  0
 14 15  1  0  0  0  0
 14 34  1  0  0  0  0
 14 35  1  0  0  0  0
 15 16  1  0  0  0  0
 15 36  1  0  0  0  0
 15 37  1  0  0  0  0
M  END
> <s_m_source_file>
AV-unprocessed.smi

> <i_m_source_file_index>
3198

> <i_lp_mmshare_version>
43012

> <i_f3d_flags>
0

> <s_epik_input>
W0NIM11jMVtjSF1bY0hdW2NIXWMobjEpW05IXVtDSDJdW0NIMl1PW0NIMl1bQ0BASF0yW0NIMl1bQ0gyXVtDSDJdTzI=

> <s_epik_cmdline>
J2VwaWtfcHl0aG9uJywgJy1waCcsICc3LjAnLCAnLXRuJywgJzgnLCAnLW1hJywgJzIwMCcsICctbWV0YWxfYmluZGluZycsICctaW1hZScsICc8aW5maWxlLm1hZT4nLCAnLW9tYWUnLCAnPG91dGZpbGUubWFlPic=

> <r_lp_tautomer_probability>
1

> <r_epik_Ionization_Penalty>
1.29225

> <r_epik_Ionization_Penalty_Charging>
0

> <r_epik_Ionization_Penalty_Neutral>
1.29225

> <r_epik_State_Penalty>
1.3654

> <r_epik_Charging_Adjusted_Penalty>
1.3654

> <i_epik_Tot_Q>
0

> <i_epik_Tot_abs_Q>
0

> <r_epik_Metal_State_Penalty>
0.00531989

> <b_epik_Metal_Only>
0

> <s_lp_Force_Field>
OPLS_2005

> <r_lp_Energy>
18.8909

> <b_lp_Chiralities_Consistent>
1

> <s_lp_Variant>
AV-unprocessed.smi:3198-4

> <Gold.Version>
5.8.1

> <Gold.Id.Protein>
6NUR|6NUR_protein|mol2

> <Gold.PLP.Fitness>
44.0871

> <Gold.PLP.PLP>
-39.8882

> <Gold.PLP.part.hbond>
-2.0000

> <Gold.PLP.part.metal>
0.0000

> <Gold.PLP.part.buried>
-7.0009

> <Gold.PLP.part.nonpolar>
-30.8077

> <Gold.PLP.part.repulsive>
0.1145

> <Gold.PLP.ligand.clash>
0.0000

> <Gold.PLP.ligand.torsion>
0.8190

> <Gold.PLP.Chemscore.Hbond>
1.8960

> <Gold.PLP.Chemscore.CHOScore>
0.0000

> <Gold.PLP.Chemscore.Metal>
0.0000

> <Gold.Chemscore.Hbonds>
donor molecule, donor type, donor heavy atom, donor atom, acceptor molecule, acceptor atom, score
      L1  H     7    24       P1  8028  1.00
      P1  H  7989  7998       L1    10  0.88

> <Gold.PLP.Chemscore.Internal.Correction>
0.1489

> <Gold.Rescore>
     Score         DG    S(hbond)    S(metal)    S(lipo)     H(rot)  DE(clash)    DE(int)     intcor
     17.56     -20.06       1.88        0.00     106.47       1.63       0.43       2.07       ----

> <Gold.Chemscore.Fitness>
17.5575

> <Gold.Chemscore.DG>
-20.0573

> <Gold.Chemscore.ZeroCoef>
-5.4800

> <Gold.Chemscore.Hbond>
1.8849

> <Gold.Chemscore.Metal>
0.0000

> <Gold.Chemscore.Lipo>
106.4728

> <Gold.Chemscore.Internal_Hbond>
0.0000

> <Gold.Chemscore.DEClash>
0.4337

> <Gold.Chemscore.DEInternal>
2.0661

> <Gold.Chemscore.Rot>
1.6311

> <Gold.Chemscore.Internal.Correction>
   9.000000E+99

> <Gold.Chemscore.Hbonds>
donor molecule, donor type, donor heavy atom, donor atom, acceptor molecule, acceptor atom, score
      L1  H     7    24       P1  8028  1.00
      P1  H  7989  7998       L1    10  0.30

> <Gold.Chemscore.Hbond.Weighted>
-6.2957

> <Gold.Chemscore.Metal.Weighted>
-0.0000

> <Gold.Chemscore.Lipo.Weighted>
-12.4573

> <Gold.Chemscore.Internal_Hbond.Weighted>
0.0000

> <Gold.Chemscore.DEClash.Weighted>
0.4337

> <Gold.Chemscore.DEInternal.Weighted>
2.0661

> <Gold.Chemscore.Rot.Weighted>
4.1757

> <Gold.Chemscore.Internal.Correction.Weighted>
   9.000000E+99

> <Gold.Protein.RotatedTorsions>
[ 6907 6896 6895 6894 ] final   36.09 input  -60.11 | X-H torsion
[ 7974 7965 7964 7962 ] final    8.65 input  175.53 | X-H torsion
[ 8008 7997 7996 7995 ] final  136.24 input   59.86 | X-H torsion
[ 10167 10162 10161 10158 ] final  -78.83 input  -65.29 | X-H torsion
[ 10718 10713 10712 10709 ] final -167.29 input   66.30 | X-H torsion
[ 10763 10752 10751 10750 ] final -162.32 input  -60.55 | X-H torsion
[ 11005 11000 10999 10996 ] final  -49.49 input  -57.11 | X-H torsion

> <Gold.Protein.ActiveResidues>
 VAL166  LYS551  ARG553  GLY616  TRP617  ASP618  TYR619  PRO620  LYS621  CYS622 
 ASP623  PHE694  ASN695  SER759  ASP760  ASP761  ALA762  ILE779  LEU786  VAL792 
 PHE793  MET794  SER795  GLU796  ALA797  LYS798  CYS799  TRP800  GLU811  SER814 

> <Gold.Protein.RotatedAtoms>
  152.1251  134.9177  160.0561 H   0  0  0  0  0  0  0  0  0  0  0  0  # atno 6907 bound_to 6896
  152.0303  133.3930  159.4303 H   0  0  0  0  0  0  0  0  0  0  0  0  # atno 6908 bound_to 6896
  150.6852  134.3449  159.4928 H   0  0  0  0  0  0  0  0  0  0  0  0  # atno 6909 bound_to 6896
  146.2413  139.9902  142.8426 H   0  0  0  0  0  0  0  0  0  0  0  0  # atno 7974 bound_to 7965
  156.3004  140.2450  156.3713 H   0  0  0  0  0  0  0  0  0  0  0  0  # atno 8008 bound_to 7997
  154.8786  140.0413  157.1788 H   0  0  0  0  0  0  0  0  0  0  0  0  # atno 8009 bound_to 7997
  154.8719  140.2936  155.5480 H   0  0  0  0  0  0  0  0  0  0  0  0  # atno 8010 bound_to 7997
  140.4648  143.2443  151.8295 H   0  0  0  0  0  0  0  0  0  0  0  0  # atno 10167 bound_to 10162
  156.6802  130.9119  151.3056 H   0  0  0  0  0  0  0  0  0  0  0  0  # atno 10718 bound_to 10713
  154.7225  135.3028  154.9025 H   0  0  0  0  0  0  0  0  0  0  0  0  # atno 10763 bound_to 10752
  153.9892  135.6721  153.4757 H   0  0  0  0  0  0  0  0  0  0  0  0  # atno 10764 bound_to 10752
  153.0846  135.4991  154.8489 H   0  0  0  0  0  0  0  0  0  0  0  0  # atno 10765 bound_to 10752
  141.0762  133.6665  156.3594 H   0  0  0  0  0  0  0  0  0  0  0  0  # atno 11005 bound_to 11000
  145.1511  140.9623  143.4432 LP  0  0  0  0  0  0  0  0  0  0  0  0  # atno 17320 bound_to 7965
  145.0205  139.3429  143.6075 LP  0  0  0  0  0  0  0  0  0  0  0  0  # atno 17321 bound_to 7965
  139.4810  144.4964  151.9118 LP  0  0  0  0  0  0  0  0  0  0  0  0  # atno 17342 bound_to 10162
  140.4050  144.2444  150.5891 LP  0  0  0  0  0  0  0  0  0  0  0  0  # atno 17343 bound_to 10162
  157.7046  130.9371  150.0891 LP  0  0  0  0  0  0  0  0  0  0  0  0  # atno 17370 bound_to 10713
  156.1873  130.3653  149.8956 LP  0  0  0  0  0  0  0  0  0  0  0  0  # atno 17371 bound_to 10713
  140.5567  134.5974  157.5423 LP  0  0  0  0  0  0  0  0  0  0  0  0  # atno 17394 bound_to 11000
  139.9575  134.7510  156.0310 LP  0  0  0  0  0  0  0  0  0  0  0  0  # atno 17395 bound_to 11000

$$$$
