AV-unprocessed.smi:3274|AV-procd|sdf|12528|dock4
  -GOLD-   2272018443D 1   1.00000     0.00000
 Structure written by MMmdl.
 43 44  0  0  0  0  0  0  0  0  2 V2000
  153.7710  140.6999  160.2116 C   0  0  0  0  0  0  0  0  0  0  0  0
  153.0501  141.9985  160.5301 C   0  0  0  0  0  0  0  0  0  0  0  0
  153.2018  142.5673  161.7414 C   0  0  0  0  0  0  0  0  0  0  0  0
  152.5919  143.8899  162.1447 C   0  0  0  0  0  0  0  0  0  0  0  0
  152.2188  144.7213  160.9151 C   0  0  0  0  0  0  0  0  0  0  0  0
  151.4075  143.8953  159.9035 C   0  0  1  0  0  0  0  0  0  0  0  0
  150.9741  144.8018  158.7345 C   0  0  0  0  0  0  0  0  0  0  0  0
  152.1781  142.6265  159.4232 C   0  0  2  0  0  0  0  0  0  0  0  0
  151.1934  141.6082  158.7900 C   0  0  0  0  0  0  0  0  0  0  0  0
  150.6898  142.0459  157.4693 N   0  3  0  0  0  0  0  0  0  0  0  0
  150.4519  140.9637  156.4855 C   0  0  1  0  0  0  0  0  0  0  0  0
  149.5061  141.4268  155.3643 C   0  0  0  0  0  0  0  0  0  0  0  0
  151.7897  140.4725  155.8992 C   0  0  0  0  0  0  0  0  0  0  0  0
  151.6551  139.2075  155.1996 N   0  0  0  0  0  0  0  0  0  0  0  0
  152.5593  138.4756  154.5465 C   0  0  0  0  0  0  0  0  0  0  0  0
  152.0654  137.3665  154.0147 N   0  0  0  0  0  0  0  0  0  0  0  0
  150.7638  137.4800  154.4141 C   0  0  0  0  0  0  0  0  0  0  0  0
  150.4641  138.5691  155.1228 N   0  0  0  0  0  0  0  0  0  0  0  0
  154.3293  140.7928  159.2800 H   0  0  0  0  0  0  0  0  0  0  0  0
  153.0654  139.8742  160.1239 H   0  0  0  0  0  0  0  0  0  0  0  0
  154.4816  140.4365  160.9958 H   0  0  0  0  0  0  0  0  0  0  0  0
  153.8039  142.0794  162.4945 H   0  0  0  0  0  0  0  0  0  0  0  0
  151.7155  143.6965  162.7642 H   0  0  0  0  0  0  0  0  0  0  0  0
  153.3048  144.4403  162.7595 H   0  0  0  0  0  0  0  0  0  0  0  0
  151.6557  145.6002  161.2313 H   0  0  0  0  0  0  0  0  0  0  0  0
  153.1269  145.0926  160.4377 H   0  0  0  0  0  0  0  0  0  0  0  0
  150.5036  143.5659  160.4192 H   0  0  0  0  0  0  0  0  0  0  0  0
  151.8359  145.1510  158.1648 H   0  0  0  0  0  0  0  0  0  0  0  0
  150.4463  145.6830  159.1007 H   0  0  0  0  0  0  0  0  0  0  0  0
  150.3018  144.2986  158.0415 H   0  0  0  0  0  0  0  0  0  0  0  0
  152.8785  142.9501  158.6514 H   0  0  0  0  0  0  0  0  0  0  0  0
  151.6831  140.6375  158.6986 H   0  0  0  0  0  0  0  0  0  0  0  0
  150.3290  141.4536  159.4319 H   0  0  0  0  0  0  0  0  0  0  0  0
  149.8379  142.5737  157.5954 H   0  0  0  0  0  0  0  0  0  0  0  0
  149.9860  140.1248  157.0054 H   0  0  0  0  0  0  0  0  0  0  0  0
  149.3707  140.6421  154.6194 H   0  0  0  0  0  0  0  0  0  0  0  0
  149.8983  142.3054  154.8507 H   0  0  0  0  0  0  0  0  0  0  0  0
  148.5161  141.6762  155.7459 H   0  0  0  0  0  0  0  0  0  0  0  0
  152.1805  141.2034  155.1900 H   0  0  0  0  0  0  0  0  0  0  0  0
  152.5408  140.3691  156.6845 H   0  0  0  0  0  0  0  0  0  0  0  0
  153.5966  138.7621  154.4525 H   0  0  0  0  0  0  0  0  0  0  0  0
  150.0134  136.7425  154.1691 H   0  0  0  0  0  0  0  0  0  0  0  0
  151.3874  142.6609  157.0740 H   0  0  0  0  0  0  0  0  0  0  0  0
  1  2  1  0  0  0  0
  1 19  1  0  0  0  0
  1 20  1  0  0  0  0
  1 21  1  0  0  0  0
  2  8  1  0  0  0  0
  2  3  2  0  0  0  0
  3  4  1  0  0  0  0
  3 22  1  0  0  0  0
  4  5  1  0  0  0  0
  4 23  1  0  0  0  0
  4 24  1  0  0  0  0
  5  6  1  0  0  0  0
  5 25  1  0  0  0  0
  5 26  1  0  0  0  0
  6  7  1  0  0  0  0
  6  8  1  0  0  0  0
  6 27  1  0  0  0  0
  7 28  1  0  0  0  0
  7 29  1  0  0  0  0
  7 30  1  0  0  0  0
  8  9  1  0  0  0  0
  8 31  1  0  0  0  0
  9 10  1  0  0  0  0
  9 32  1  0  0  0  0
  9 33  1  0  0  0  0
 10 11  1  0  0  0  0
 10 34  1  0  0  0  0
 10 43  1  0  0  0  0
 11 12  1  0  0  0  0
 11 13  1  0  0  0  0
 11 35  1  0  0  0  0
 12 36  1  0  0  0  0
 12 37  1  0  0  0  0
 12 38  1  0  0  0  0
 13 14  1  0  0  0  0
 13 39  1  0  0  0  0
 13 40  1  0  0  0  0
 14 18  1  0  0  0  0
 14 15  1  0  0  0  0
 15 16  2  0  0  0  0
 15 41  1  0  0  0  0
 16 17  1  0  0  0  0
 17 18  2  0  0  0  0
 17 42  1  0  0  0  0
M  CHG  1  10   1
M  END
> <s_m_source_file>
AV-unprocessed.smi

> <i_m_source_file_index>
3274

> <i_lp_mmshare_version>
43012

> <i_f3d_flags>
0

> <s_epik_input>
W0NIM11DMT1bQ0hdW0NIMl1bQ0gyXVtDQEBIXShbQ0gzXSlbQ0BIXTFbQ0gyXVtOSF1bQ0BIXShbQ0gzXSlbQ0gyXW4yW2NIXW5bY0hdbjI=

> <s_epik_cmdline>
J2VwaWtfcHl0aG9uJywgJy1waCcsICc3LjAnLCAnLXRuJywgJzgnLCAnLW1hJywgJzIwMCcsICctbWV0YWxfYmluZGluZycsICctaW1hZScsICc8aW5maWxlLm1hZT4nLCAnLW9tYWUnLCAnPG91dGZpbGUubWFlPic=

> <r_lp_tautomer_probability>
1

> <r_epik_Ionization_Penalty>
0.0017527

> <r_epik_Ionization_Penalty_Charging>
0.00175191

> <r_epik_Ionization_Penalty_Neutral>
7.94565e-07

> <r_epik_State_Penalty>
0.00118605

> <r_epik_Charging_Adjusted_Penalty>
0.00293796

> <i_epik_Tot_Q>
1

> <i_epik_Tot_abs_Q>
1

> <r_epik_Metal_State_Penalty>
-0

> <b_epik_Metal_Only>
0

> <s_lp_Force_Field>
OPLS_2005

> <r_lp_Energy>
17.2451

> <b_lp_Chiralities_Consistent>
1

> <s_lp_Variant>
AV-unprocessed.smi:3274-7

> <Gold.Version>
5.8.1

> <Gold.Id.Protein>
6NUR|6NUR_protein|mol2

> <Gold.PLP.Fitness>
51.4684

> <Gold.PLP.PLP>
-46.8063

> <Gold.PLP.part.hbond>
-1.0000

> <Gold.PLP.part.metal>
0.0000

> <Gold.PLP.part.buried>
-6.2734

> <Gold.PLP.part.nonpolar>
-40.7813

> <Gold.PLP.part.repulsive>
0.7245

> <Gold.PLP.ligand.clash>
0.0000

> <Gold.PLP.ligand.torsion>
0.5951

> <Gold.PLP.Chemscore.Hbond>
0.9280

> <Gold.PLP.Chemscore.CHOScore>
1.0000

> <Gold.PLP.Chemscore.Metal>
0.0000

> <Gold.Chemscore.Hbonds>
donor molecule, donor type, donor heavy atom, donor atom, acceptor molecule, acceptor atom, score
      P1  H 10752 10763       L1    16  0.93
      L1  C    17    42       P1  7948  0.90

> <Gold.PLP.Chemscore.Internal.Correction>
0.0684

> <Gold.Rescore>
     Score         DG    S(hbond)    S(metal)    S(lipo)     H(rot)  DE(clash)    DE(int)     intcor
     14.35     -16.24       0.93        0.00     116.93       2.36       0.29       1.60       ----

> <Gold.Chemscore.Fitness>
14.3524

> <Gold.Chemscore.DG>
-16.2383

> <Gold.Chemscore.ZeroCoef>
-5.4800

> <Gold.Chemscore.Hbond>
0.9348

> <Gold.Chemscore.Metal>
0.0000

> <Gold.Chemscore.Lipo>
116.9345

> <Gold.Chemscore.Internal_Hbond>
0.0000

> <Gold.Chemscore.DEClash>
0.2904

> <Gold.Chemscore.DEInternal>
1.5956

> <Gold.Chemscore.Rot>
2.3615

> <Gold.Chemscore.Internal.Correction>
   9.000000E+99

> <Gold.Chemscore.Hbonds>
donor molecule, donor type, donor heavy atom, donor atom, acceptor molecule, acceptor atom, score
      P1  H 10752 10763       L1    16  0.86

> <Gold.Chemscore.Hbond.Weighted>
-3.1224

> <Gold.Chemscore.Metal.Weighted>
-0.0000

> <Gold.Chemscore.Lipo.Weighted>
-13.6813

> <Gold.Chemscore.Internal_Hbond.Weighted>
0.0000

> <Gold.Chemscore.DEClash.Weighted>
0.2904

> <Gold.Chemscore.DEInternal.Weighted>
1.5956

> <Gold.Chemscore.Rot.Weighted>
6.0454

> <Gold.Chemscore.Internal.Correction.Weighted>
   9.000000E+99

> <Gold.Protein.RotatedTorsions>
[ 6907 6896 6895 6894 ] final  158.19 input  -60.11 | X-H torsion
[ 7974 7965 7964 7962 ] final    3.77 input  175.53 | X-H torsion
[ 8008 7997 7996 7995 ] final -160.11 input   59.86 | X-H torsion
[ 10167 10162 10161 10158 ] final  163.71 input  -65.29 | X-H torsion
[ 10718 10713 10712 10709 ] final   40.92 input   66.30 | X-H torsion
[ 10763 10752 10751 10750 ] final   36.71 input  -60.55 | X-H torsion
[ 11005 11000 10999 10996 ] final  124.77 input  -57.11 | X-H torsion

> <Gold.Protein.ActiveResidues>
 VAL166  LYS551  ARG553  GLY616  TRP617  ASP618  TYR619  PRO620  LYS621  CYS622 
 ASP623  PHE694  ASN695  SER759  ASP760  ASP761  ALA762  ILE779  LEU786  VAL792 
 PHE793  MET794  SER795  GLU796  ALA797  LYS798  CYS799  TRP800  GLU811  SER814 

> <Gold.Protein.RotatedAtoms>
  152.0041  133.3836  159.4193 H   0  0  0  0  0  0  0  0  0  0  0  0  # atno 6907 bound_to 6896
  150.6907  134.3802  159.5040 H   0  0  0  0  0  0  0  0  0  0  0  0  # atno 6908 bound_to 6896
  152.1554  134.8955  160.0596 H   0  0  0  0  0  0  0  0  0  0  0  0  # atno 6909 bound_to 6896
  146.2445  140.0635  142.8367 H   0  0  0  0  0  0  0  0  0  0  0  0  # atno 7974 bound_to 7965
  155.7726  140.0854  157.2100 H   0  0  0  0  0  0  0  0  0  0  0  0  # atno 8008 bound_to 7997
  154.3995  140.1522  156.3016 H   0  0  0  0  0  0  0  0  0  0  0  0  # atno 8009 bound_to 7997
  155.8732  140.3424  155.5838 H   0  0  0  0  0  0  0  0  0  0  0  0  # atno 8010 bound_to 7997
  139.4878  144.4309  151.9071 H   0  0  0  0  0  0  0  0  0  0  0  0  # atno 10167 bound_to 10162
  157.3877  130.7789  149.7244 H   0  0  0  0  0  0  0  0  0  0  0  0  # atno 10718 bound_to 10713
  153.0066  135.6298  154.2029 H   0  0  0  0  0  0  0  0  0  0  0  0  # atno 10763 bound_to 10752
  154.1772  135.2815  155.3065 H   0  0  0  0  0  0  0  0  0  0  0  0  # atno 10764 bound_to 10752
  154.5862  135.5632  153.7294 H   0  0  0  0  0  0  0  0  0  0  0  0  # atno 10765 bound_to 10752
  139.9374  134.9638  156.8458 H   0  0  0  0  0  0  0  0  0  0  0  0  # atno 11005 bound_to 11000
  145.0879  140.9264  143.4786 LP  0  0  0  0  0  0  0  0  0  0  0  0  # atno 17320 bound_to 7965
  145.0802  139.2966  143.5787 LP  0  0  0  0  0  0  0  0  0  0  0  0  # atno 17321 bound_to 7965
  140.3757  144.2800  150.5914 LP  0  0  0  0  0  0  0  0  0  0  0  0  # atno 17342 bound_to 10162
  140.5279  143.2250  151.8286 LP  0  0  0  0  0  0  0  0  0  0  0  0  # atno 17343 bound_to 10162
  155.9790  130.4044  150.3610 LP  0  0  0  0  0  0  0  0  0  0  0  0  # atno 17370 bound_to 10713
  157.1722  131.0371  151.2790 LP  0  0  0  0  0  0  0  0  0  0  0  0  # atno 17371 bound_to 10713
  140.6039  134.0145  155.7548 LP  0  0  0  0  0  0  0  0  0  0  0  0  # atno 17394 bound_to 11000
  141.0994  133.9792  157.3104 LP  0  0  0  0  0  0  0  0  0  0  0  0  # atno 17395 bound_to 11000

$$$$
