AV-unprocessed.smi:217|AV-procd|sdf|1661|dock1
  -GOLD-   2262020 53D 1   1.00000     0.00000
 Structure written by MMmdl.
 57 61  0  0  0  0  0  0  0  0  1 V2000
  143.3514  134.3109  150.9275 O   0  0  0  0  0  0  0  0  0  0  0  0
  143.7006  134.1364  152.2854 C   0  0  0  0  0  0  0  0  0  0  0  0
  143.1269  135.2639  153.1592 C   0  0  0  0  0  0  0  0  0  0  0  0
  141.5874  135.1651  153.1762 C   0  0  0  0  0  0  0  0  0  0  0  0
  141.1528  133.8519  153.4660 O   0  0  0  0  0  0  0  0  0  0  0  0
  143.7907  135.4322  154.5445 C   0  0  0  0  0  0  0  0  0  0  0  0
  143.7509  136.9523  154.3713 C   0  0  0  0  0  0  0  0  0  0  0  0
  144.7703  137.7903  154.9319 N   0  0  0  0  0  0  0  0  0  0  0  0
  144.9913  138.0371  156.2679 C   0  0  0  0  0  0  0  0  0  0  0  0
  146.0205  138.7954  156.5312 N   0  0  0  0  0  0  0  0  0  0  0  0
  146.5705  139.0683  155.2841 C   0  0  0  0  0  0  0  0  0  0  0  0
  147.7030  139.8086  154.8392 C   0  0  0  0  0  0  0  0  0  0  0  0
  148.5232  140.4810  155.6877 N   0  0  0  0  0  0  0  0  0  0  0  0
  147.8472  141.1009  156.8263 C   0  0  0  0  0  0  0  0  0  0  0  0
  148.8560  141.4976  157.9165 C   0  0  0  0  0  0  0  0  0  0  0  0
  149.9701  142.4025  157.3527 C   0  0  0  0  0  0  0  0  0  0  0  0
  150.9939  142.7862  158.4402 C   0  0  1  0  0  0  0  0  0  0  0  0
  152.0051  143.8548  158.0219 C   0  0  0  0  0  0  0  0  0  0  0  0
  152.4365  144.4748  159.3411 C   0  0  0  0  0  0  0  0  0  0  0  0
  151.3532  144.0358  160.3303 C   0  0  0  0  0  0  0  0  0  0  0  0
  150.3503  143.4163  159.5370 O   0  0  0  0  0  0  0  0  0  0  0  0
  150.6334  141.6843  156.1599 C   0  0  0  0  0  0  0  0  0  0  0  0
  149.5961  141.2838  155.0985 C   0  0  0  0  0  0  0  0  0  0  0  0
  147.9525  139.8218  153.5018 N   0  0  0  0  0  0  0  0  0  0  0  0
  147.1520  139.1656  152.6573 C   0  0  0  0  0  0  0  0  0  0  0  0
  146.0638  138.4443  152.9302 N   0  0  0  0  0  0  0  0  0  0  0  0
  145.8067  138.4243  154.2693 C   0  0  0  0  0  0  0  0  0  0  0  0
  143.6901  136.6726  152.8677 C   0  0  0  0  0  0  0  0  0  0  0  0
  142.4126  134.2372  150.8467 H   0  0  0  0  0  0  0  0  0  0  0  0
  143.3584  133.1560  152.6171 H   0  0  0  0  0  0  0  0  0  0  0  0
  144.7890  134.1154  152.3478 H   0  0  0  0  0  0  0  0  0  0  0  0
  141.1590  135.8273  153.9286 H   0  0  0  0  0  0  0  0  0  0  0  0
  141.1564  135.4753  152.2240 H   0  0  0  0  0  0  0  0  0  0  0  0
  141.8357  133.4096  153.9469 H   0  0  0  0  0  0  0  0  0  0  0  0
  143.2060  135.0612  155.3870 H   0  0  0  0  0  0  0  0  0  0  0  0
  144.8110  135.0454  154.5801 H   0  0  0  0  0  0  0  0  0  0  0  0
  142.8017  137.3555  154.7283 H   0  0  0  0  0  0  0  0  0  0  0  0
  144.3593  137.6375  157.0479 H   0  0  0  0  0  0  0  0  0  0  0  0
  147.3130  141.9851  156.4763 H   0  0  0  0  0  0  0  0  0  0  0  0
  147.0988  140.4364  157.2567 H   0  0  0  0  0  0  0  0  0  0  0  0
  148.3306  142.0042  158.7263 H   0  0  0  0  0  0  0  0  0  0  0  0
  149.2944  140.5972  158.3489 H   0  0  0  0  0  0  0  0  0  0  0  0
  149.5066  143.3189  156.9840 H   0  0  0  0  0  0  0  0  0  0  0  0
  151.5180  141.8990  158.8016 H   0  0  0  0  0  0  0  0  0  0  0  0
  152.8419  143.4467  157.4545 H   0  0  0  0  0  0  0  0  0  0  0  0
  151.5188  144.6126  157.4059 H   0  0  0  0  0  0  0  0  0  0  0  0
  153.4129  144.1029  159.6543 H   0  0  0  0  0  0  0  0  0  0  0  0
  152.5000  145.5604  159.2618 H   0  0  0  0  0  0  0  0  0  0  0  0
  151.7524  143.3082  161.0381 H   0  0  0  0  0  0  0  0  0  0  0  0
  150.9409  144.8710  160.8969 H   0  0  0  0  0  0  0  0  0  0  0  0
  151.3872  142.3229  155.6988 H   0  0  0  0  0  0  0  0  0  0  0  0
  151.1560  140.7933  156.5107 H   0  0  0  0  0  0  0  0  0  0  0  0
  150.0921  140.7215  154.3061 H   0  0  0  0  0  0  0  0  0  0  0  0
  149.1687  142.1777  154.6419 H   0  0  0  0  0  0  0  0  0  0  0  0
  147.4212  139.2284  151.6133 H   0  0  0  0  0  0  0  0  0  0  0  0
  144.6794  136.6465  152.4065 H   0  0  0  0  0  0  0  0  0  0  0  0
  143.0188  137.3284  152.3125 H   0  0  0  0  0  0  0  0  0  0  0  0
  1  2  1  0  0  0  0
  1 29  1  0  0  0  0
  2  3  1  0  0  0  0
  2 30  1  0  0  0  0
  2 31  1  0  0  0  0
  3 28  1  0  0  0  0
  3  4  1  0  0  0  0
  3  6  1  0  0  0  0
  4  5  1  0  0  0  0
  4 32  1  0  0  0  0
  4 33  1  0  0  0  0
  5 34  1  0  0  0  0
  6  7  1  0  0  0  0
  6 35  1  0  0  0  0
  6 36  1  0  0  0  0
  7  8  1  0  0  0  0
  7 28  1  0  0  0  0
  7 37  1  0  0  0  0
  8 27  1  0  0  0  0
  8  9  1  0  0  0  0
  9 10  2  0  0  0  0
  9 38  1  0  0  0  0
 10 11  1  0  0  0  0
 11 27  2  0  0  0  0
 11 12  1  0  0  0  0
 12 13  1  0  0  0  0
 12 24  2  0  0  0  0
 13 23  1  0  0  0  0
 13 14  1  0  0  0  0
 14 15  1  0  0  0  0
 14 39  1  0  0  0  0
 14 40  1  0  0  0  0
 15 16  1  0  0  0  0
 15 41  1  0  0  0  0
 15 42  1  0  0  0  0
 16 17  1  0  0  0  0
 16 22  1  0  0  0  0
 16 43  1  0  0  0  0
 17 21  1  0  0  0  0
 17 18  1  0  0  0  0
 17 44  1  0  0  0  0
 18 19  1  0  0  0  0
 18 45  1  0  0  0  0
 18 46  1  0  0  0  0
 19 20  1  0  0  0  0
 19 47  1  0  0  0  0
 19 48  1  0  0  0  0
 20 21  1  0  0  0  0
 20 49  1  0  0  0  0
 20 50  1  0  0  0  0
 22 23  1  0  0  0  0
 22 51  1  0  0  0  0
 22 52  1  0  0  0  0
 23 53  1  0  0  0  0
 23 54  1  0  0  0  0
 24 25  1  0  0  0  0
 25 26  2  0  0  0  0
 25 55  1  0  0  0  0
 26 27  1  0  0  0  0
 28 56  1  0  0  0  0
 28 57  1  0  0  0  0
M  END
> <s_m_source_file>
AV-unprocessed.smi

> <i_m_source_file_index>
217

> <i_lp_mmshare_version>
43012

> <i_f3d_flags>
0

> <s_epik_input>
W09IXVtDSDJdQzEoW0NIMl1bT0hdKVtDSDJdW0NIXShbQ0gyXTEpbihbY0hdbjIpYyhjMjMpbltjSF1uYzNONFtDSDJdW0NIMl1bQ0hdKFtDSDJdW0NIMl00KVtDQEBIXTVbQ0gyXVtDSDJdW0NIMl1PNQ==

> <s_epik_cmdline>
J2VwaWtfcHl0aG9uJywgJy1waCcsICc3LjAnLCAnLXRuJywgJzgnLCAnLW1hJywgJzIwMCcsICctbWV0YWxfYmluZGluZycsICctaW1hZScsICc8aW5maWxlLm1hZT4nLCAnLW9tYWUnLCAnPG91dGZpbGUubWFlPic=

> <r_lp_tautomer_probability>
1

> <r_epik_Ionization_Penalty>
0.0037022

> <r_epik_Ionization_Penalty_Charging>
0

> <r_epik_Ionization_Penalty_Neutral>
0.0037022

> <r_epik_State_Penalty>
0.00257654

> <r_epik_Charging_Adjusted_Penalty>
0.00257654

> <i_epik_Tot_Q>
0

> <i_epik_Tot_abs_Q>
0

> <r_epik_Metal_State_Penalty>
-0

> <b_epik_Metal_Only>
0

> <s_lp_Force_Field>
OPLS_2005

> <r_lp_Energy>
55.0996

> <b_lp_Chiralities_Consistent>
1

> <s_lp_Variant>
AV-unprocessed.smi:217-2

> <Gold.Version>
5.8.1

> <Gold.Id.Protein>
6NUR|6NUR_protein|mol2

> <Gold.PLP.Fitness>
46.4841

> <Gold.PLP.PLP>
-38.7905

> <Gold.PLP.part.hbond>
-4.0122

> <Gold.PLP.part.metal>
0.0000

> <Gold.PLP.part.buried>
-5.9867

> <Gold.PLP.part.nonpolar>
-31.3128

> <Gold.PLP.part.repulsive>
2.0063

> <Gold.PLP.ligand.clash>
0.0000

> <Gold.PLP.ligand.torsion>
0.7897

> <Gold.PLP.Chemscore.Hbond>
2.0008

> <Gold.PLP.Chemscore.CHOScore>
0.7786

> <Gold.PLP.Chemscore.Metal>
0.0000

> <Gold.Chemscore.Hbonds>
donor molecule, donor type, donor heavy atom, donor atom, acceptor molecule, acceptor atom, score
      L1  H     1    29       P1 10186  0.83
      L1  H     5    34       P1 10957  1.00
      P1  H 10995 11001       L1     5  0.16
      L1  C    25    55       P1  7957  0.74

> <Gold.PLP.Chemscore.Internal.Correction>
0.9348

> <Gold.Rescore>
     Score         DG    S(hbond)    S(metal)    S(lipo)     H(rot)  DE(clash)    DE(int)     intcor
      8.87     -12.69       1.33        0.00      95.42       3.28       0.65       3.17       ----

> <Gold.Chemscore.Fitness>
8.8651

> <Gold.Chemscore.DG>
-12.6911

> <Gold.Chemscore.ZeroCoef>
-5.4800

> <Gold.Chemscore.Hbond>
1.3343

> <Gold.Chemscore.Metal>
0.0000

> <Gold.Chemscore.Lipo>
95.4153

> <Gold.Chemscore.Internal_Hbond>
0.0000

> <Gold.Chemscore.DEClash>
0.6523

> <Gold.Chemscore.DEInternal>
3.1738

> <Gold.Chemscore.Rot>
3.2848

> <Gold.Chemscore.Internal.Correction>
   9.000000E+99

> <Gold.Chemscore.Hbonds>
donor molecule, donor type, donor heavy atom, donor atom, acceptor molecule, acceptor atom, score
      L1  H     1    29       P1 10186  0.25
      L1  H     5    34       P1 10957  0.92
      P1  H 10995 11001       L1     5  0.14

> <Gold.Chemscore.Hbond.Weighted>
-4.4567

> <Gold.Chemscore.Metal.Weighted>
-0.0000

> <Gold.Chemscore.Lipo.Weighted>
-11.1636

> <Gold.Chemscore.Internal_Hbond.Weighted>
0.0000

> <Gold.Chemscore.DEClash.Weighted>
0.6523

> <Gold.Chemscore.DEInternal.Weighted>
3.1738

> <Gold.Chemscore.Rot.Weighted>
8.4092

> <Gold.Chemscore.Internal.Correction.Weighted>
   9.000000E+99

> <Gold.Protein.RotatedTorsions>
[ 6907 6896 6895 6894 ] final  166.41 input  -60.11 | X-H torsion
[ 7974 7965 7964 7962 ] final -100.98 input  175.53 | X-H torsion
[ 8008 7997 7996 7995 ] final   98.82 input   59.86 | X-H torsion
[ 10167 10162 10161 10158 ] final   81.20 input  -65.29 | X-H torsion
[ 10718 10713 10712 10709 ] final  128.15 input   66.30 | X-H torsion
[ 10763 10752 10751 10750 ] final   43.58 input  -60.55 | X-H torsion
[ 11005 11000 10999 10996 ] final   33.59 input  -57.11 | X-H torsion

> <Gold.Protein.ActiveResidues>
 VAL166  LYS551  ARG553  GLY616  TRP617  ASP618  TYR619  PRO620  LYS621  CYS622 
 ASP623  PHE694  ASN695  SER759  ASP760  ASP761  ALA762  ILE779  LEU786  VAL792 
 PHE793  MET794  SER795  GLU796  ALA797  LYS798  CYS799  TRP800  GLU811  SER814 

> <Gold.Protein.RotatedAtoms>
  151.8794  133.3492  159.3761 H   0  0  0  0  0  0  0  0  0  0  0  0  # atno 6907 bound_to 6896
  150.7131  134.5034  159.5581 H   0  0  0  0  0  0  0  0  0  0  0  0  # atno 6908 bound_to 6896
  152.2582  134.8062  160.0486 H   0  0  0  0  0  0  0  0  0  0  0  0  # atno 6909 bound_to 6896
  145.2875  140.9344  143.2896 H   0  0  0  0  0  0  0  0  0  0  0  0  # atno 7974 bound_to 7965
  156.1043  140.3238  155.7984 H   0  0  0  0  0  0  0  0  0  0  0  0  # atno 8008 bound_to 7997
  155.4783  140.0552  157.2988 H   0  0  0  0  0  0  0  0  0  0  0  0  # atno 8009 bound_to 7997
  154.4717  140.2014  155.9993 H   0  0  0  0  0  0  0  0  0  0  0  0  # atno 8010 bound_to 7997
  139.9417  144.6085  150.8245 H   0  0  0  0  0  0  0  0  0  0  0  0  # atno 10167 bound_to 10162
  157.5270  131.1098  150.9067 H   0  0  0  0  0  0  0  0  0  0  0  0  # atno 10718 bound_to 10713
  152.9858  135.6097  154.3135 H   0  0  0  0  0  0  0  0  0  0  0  0  # atno 10763 bound_to 10752
  154.2849  135.2776  155.2682 H   0  0  0  0  0  0  0  0  0  0  0  0  # atno 10764 bound_to 10752
  154.5004  135.5868  153.6583 H   0  0  0  0  0  0  0  0  0  0  0  0  # atno 10765 bound_to 10752
  140.2615  134.3186  155.7856 H   0  0  0  0  0  0  0  0  0  0  0  0  # atno 11005 bound_to 11000
  144.9200  139.4423  143.6545 LP  0  0  0  0  0  0  0  0  0  0  0  0  # atno 17320 bound_to 7965
  146.3196  139.8056  142.8956 LP  0  0  0  0  0  0  0  0  0  0  0  0  # atno 17321 bound_to 7965
  140.7609  143.3161  151.2729 LP  0  0  0  0  0  0  0  0  0  0  0  0  # atno 17342 bound_to 10162
  139.6699  144.0038  152.2746 LP  0  0  0  0  0  0  0  0  0  0  0  0  # atno 17343 bound_to 10162
  156.9660  130.5473  149.5288 LP  0  0  0  0  0  0  0  0  0  0  0  0  # atno 17370 bound_to 10713
  156.0394  130.5478  150.8734 LP  0  0  0  0  0  0  0  0  0  0  0  0  # atno 17371 bound_to 10713
  141.2189  133.7412  156.9195 LP  0  0  0  0  0  0  0  0  0  0  0  0  # atno 17394 bound_to 11000
  140.1460  134.9262  157.2529 LP  0  0  0  0  0  0  0  0  0  0  0  0  # atno 17395 bound_to 11000

$$$$
