AV-unprocessed.smi:2596|AV-procd|sdf|10169|dock1
  -GOLD-   2272014183D 1   1.00000     0.00000
 Structure written by MMmdl.
 32 33  0  0  0  0  0  0  0  0  1 V2000
  149.5048  140.2865  157.3148 O   0  0  0  0  0  0  0  0  0  0  0  0
  149.5080  141.3696  156.7309 C   0  0  0  0  0  0  0  0  0  0  0  0
  150.8326  142.0919  156.4644 C   0  0  0  0  0  0  0  0  0  0  0  0
  151.5007  142.4856  157.7155 N   0  0  0  0  0  0  0  0  0  0  0  0
  151.2434  143.7848  158.1978 C   0  0  0  0  0  0  0  0  0  0  0  0
  151.7923  144.2348  159.3364 C   0  0  0  0  0  0  0  0  0  0  0  0
  151.5280  145.4742  159.7806 F   0  0  0  0  0  0  0  0  0  0  0  0
  152.6681  143.3596  160.0768 C   0  0  0  0  0  0  0  0  0  0  0  0
  152.9187  142.1151  159.6237 C   0  0  0  0  0  0  0  0  0  0  0  0
  152.3209  141.6126  158.3803 C   0  0  0  0  0  0  0  0  0  0  0  0
  152.5439  140.4760  157.9634 O   0  0  0  0  0  0  0  0  0  0  0  0
  148.3940  141.9935  156.3169 N   0  0  0  0  0  0  0  0  0  0  0  0
  147.0318  141.5317  156.5526 C   0  0  0  0  0  0  0  0  0  0  0  0
  146.1180  141.9456  155.4025 C   0  0  0  0  0  0  0  0  0  0  0  0
  146.7031  142.1996  154.0040 C   0  0  0  0  0  0  0  0  0  0  0  0
  145.6571  143.3018  153.8186 C   0  0  0  0  0  0  0  0  0  0  0  0
  145.5672  143.3782  155.3453 C   0  0  0  0  0  0  0  0  0  0  0  0
  151.4839  141.4493  155.8687 H   0  0  0  0  0  0  0  0  0  0  0  0
  150.6394  142.9622  155.8351 H   0  0  0  0  0  0  0  0  0  0  0  0
  150.5735  144.3785  157.5927 H   0  0  0  0  0  0  0  0  0  0  0  0
  153.1231  143.7017  160.9949 H   0  0  0  0  0  0  0  0  0  0  0  0
  153.5761  141.4697  160.1875 H   0  0  0  0  0  0  0  0  0  0  0  0
  148.4964  142.8783  155.8415 H   0  0  0  0  0  0  0  0  0  0  0  0
  147.0554  140.4455  156.6403 H   0  0  0  0  0  0  0  0  0  0  0  0
  146.6528  141.9040  157.5058 H   0  0  0  0  0  0  0  0  0  0  0  0
  145.2813  141.2498  155.3077 H   0  0  0  0  0  0  0  0  0  0  0  0
  147.7224  142.5879  154.0346 H   0  0  0  0  0  0  0  0  0  0  0  0
  146.6145  141.3597  153.3141 H   0  0  0  0  0  0  0  0  0  0  0  0
  146.0265  144.2069  153.3356 H   0  0  0  0  0  0  0  0  0  0  0  0
  144.7372  142.9395  153.3568 H   0  0  0  0  0  0  0  0  0  0  0  0
  144.5572  143.4952  155.7392 H   0  0  0  0  0  0  0  0  0  0  0  0
  146.2521  144.1141  155.7699 H   0  0  0  0  0  0  0  0  0  0  0  0
  1  2  2  0  0  0  0
  2  3  1  0  0  0  0
  2 12  1  0  0  0  0
  3  4  1  0  0  0  0
  3 18  1  0  0  0  0
  3 19  1  0  0  0  0
  4 10  1  0  0  0  0
  4  5  1  0  0  0  0
  5  6  2  0  0  0  0
  5 20  1  0  0  0  0
  6  7  1  0  0  0  0
  6  8  1  0  0  0  0
  8  9  2  0  0  0  0
  8 21  1  0  0  0  0
  9 10  1  0  0  0  0
  9 22  1  0  0  0  0
 10 11  2  0  0  0  0
 12 13  1  0  0  0  0
 12 23  1  0  0  0  0
 13 14  1  0  0  0  0
 13 24  1  0  0  0  0
 13 25  1  0  0  0  0
 14 17  1  0  0  0  0
 14 15  1  0  0  0  0
 14 26  1  0  0  0  0
 15 16  1  0  0  0  0
 15 27  1  0  0  0  0
 15 28  1  0  0  0  0
 16 17  1  0  0  0  0
 16 29  1  0  0  0  0
 16 30  1  0  0  0  0
 17 31  1  0  0  0  0
 17 32  1  0  0  0  0
M  END
> <s_m_source_file>
AV-unprocessed.smi

> <i_m_source_file_index>
2596

> <i_lp_mmshare_version>
43012

> <i_f3d_flags>
0

> <s_epik_input>
W0NIMl0xW0NIMl1bQ0gyXVtDSF0xW0NIMl1bTkhdQyg9TylbQ0gyXW4yW2NIXWMoRilbY0hdW2NIXWMyPU8=

> <s_epik_cmdline>
J2VwaWtfcHl0aG9uJywgJy1waCcsICc3LjAnLCAnLXRuJywgJzgnLCAnLW1hJywgJzIwMCcsICctbWV0YWxfYmluZGluZycsICctaW1hZScsICc8aW5maWxlLm1hZT4nLCAnLW9tYWUnLCAnPG91dGZpbGUubWFlPic=

> <r_lp_tautomer_probability>
1

> <r_epik_Ionization_Penalty>
2.75493e-07

> <r_epik_Ionization_Penalty_Charging>
2.56191e-07

> <r_epik_Ionization_Penalty_Neutral>
1.93017e-08

> <r_epik_State_Penalty>
-0

> <r_epik_Charging_Adjusted_Penalty>
2.56191e-07

> <i_epik_Tot_Q>
0

> <i_epik_Tot_abs_Q>
0

> <r_epik_Metal_State_Penalty>
-0

> <b_epik_Metal_Only>
0

> <s_lp_Force_Field>
OPLS_2005

> <r_lp_Energy>
22.7993

> <b_lp_Chiralities_Consistent>
1

> <s_lp_Variant>
AV-unprocessed.smi:2596-1

> <Gold.Version>
5.8.1

> <Gold.Id.Protein>
6NUR|6NUR_protein|mol2

> <Gold.PLP.Fitness>
46.0169

> <Gold.PLP.PLP>
-40.1750

> <Gold.PLP.part.hbond>
-1.8539

> <Gold.PLP.part.metal>
0.0000

> <Gold.PLP.part.buried>
-5.9023

> <Gold.PLP.part.nonpolar>
-32.9238

> <Gold.PLP.part.repulsive>
0.0363

> <Gold.PLP.ligand.clash>
0.0000

> <Gold.PLP.ligand.torsion>
0.8970

> <Gold.PLP.Chemscore.Hbond>
1.5005

> <Gold.PLP.Chemscore.CHOScore>
1.0000

> <Gold.PLP.Chemscore.Metal>
0.0000

> <Gold.Chemscore.Hbonds>
donor molecule, donor type, donor heavy atom, donor atom, acceptor molecule, acceptor atom, score
      L1  H    12    23       P1  8028  1.00
      P1  H  7997  8008       L1    11  0.39
      L1  C     5    20       P1  8028  0.94

> <Gold.PLP.Chemscore.Internal.Correction>
0.1344

> <Gold.Rescore>
     Score         DG    S(hbond)    S(metal)    S(lipo)     H(rot)  DE(clash)    DE(int)     intcor
     15.60     -16.37       1.85        0.00      77.66       1.71       0.03       0.74       ----

> <Gold.Chemscore.Fitness>
15.5968

> <Gold.Chemscore.DG>
-16.3691

> <Gold.Chemscore.ZeroCoef>
-5.4800

> <Gold.Chemscore.Hbond>
1.8486

> <Gold.Chemscore.Metal>
0.0000

> <Gold.Chemscore.Lipo>
77.6634

> <Gold.Chemscore.Internal_Hbond>
0.0000

> <Gold.Chemscore.DEClash>
0.0299

> <Gold.Chemscore.DEInternal>
0.7424

> <Gold.Chemscore.Rot>
1.7078

> <Gold.Chemscore.Internal.Correction>
   9.000000E+99

> <Gold.Chemscore.Hbonds>
donor molecule, donor type, donor heavy atom, donor atom, acceptor molecule, acceptor atom, score
      L1  H    12    23       P1  8028  0.98
      P1  H  7997  8008       L1    11  0.38

> <Gold.Chemscore.Hbond.Weighted>
-6.1744

> <Gold.Chemscore.Metal.Weighted>
-0.0000

> <Gold.Chemscore.Lipo.Weighted>
-9.0866

> <Gold.Chemscore.Internal_Hbond.Weighted>
0.0000

> <Gold.Chemscore.DEClash.Weighted>
0.0299

> <Gold.Chemscore.DEInternal.Weighted>
0.7424

> <Gold.Chemscore.Rot.Weighted>
4.3719

> <Gold.Chemscore.Internal.Correction.Weighted>
   9.000000E+99

> <Gold.Protein.RotatedTorsions>
[ 6907 6896 6895 6894 ] final -163.09 input  -60.11 | X-H torsion
[ 7974 7965 7964 7962 ] final  126.02 input  175.53 | X-H torsion
[ 8008 7997 7996 7995 ] final  -70.20 input   59.86 | X-H torsion
[ 10167 10162 10161 10158 ] final  150.42 input  -65.29 | X-H torsion
[ 10718 10713 10712 10709 ] final  -45.19 input   66.30 | X-H torsion
[ 10763 10752 10751 10750 ] final  -89.26 input  -60.55 | X-H torsion
[ 11005 11000 10999 10996 ] final   66.77 input  -57.11 | X-H torsion

> <Gold.Protein.ActiveResidues>
 VAL166  LYS551  ARG553  GLY616  TRP617  ASP618  TYR619  PRO620  LYS621  CYS622 
 ASP623  PHE694  ASN695  SER759  ASP760  ASP761  ALA762  ILE779  LEU786  VAL792 
 PHE793  MET794  SER795  GLU796  ALA797  LYS798  CYS799  TRP800  GLU811  SER814 

> <Gold.Protein.RotatedAtoms>
  151.3906  133.3790  159.2720 H   0  0  0  0  0  0  0  0  0  0  0  0  # atno 6907 bound_to 6896
  150.9508  134.8909  159.7681 H   0  0  0  0  0  0  0  0  0  0  0  0  # atno 6908 bound_to 6896
  152.5111  134.3861  159.9420 H   0  0  0  0  0  0  0  0  0  0  0  0  # atno 6909 bound_to 6896
  145.0664  139.3764  143.4980 H   0  0  0  0  0  0  0  0  0  0  0  0  # atno 7974 bound_to 7965
  154.4994  140.0839  156.7766 H   0  0  0  0  0  0  0  0  0  0  0  0  # atno 8008 bound_to 7997
  155.4039  140.3438  155.4240 H   0  0  0  0  0  0  0  0  0  0  0  0  # atno 8009 bound_to 7997
  156.1437  140.1537  156.8869 H   0  0  0  0  0  0  0  0  0  0  0  0  # atno 8010 bound_to 7997
  139.4850  144.5523  151.7379 H   0  0  0  0  0  0  0  0  0  0  0  0  # atno 10167 bound_to 10162
  156.2309  130.4172  149.8876 H   0  0  0  0  0  0  0  0  0  0  0  0  # atno 10718 bound_to 10713
  154.6534  135.5347  153.7929 H   0  0  0  0  0  0  0  0  0  0  0  0  # atno 10763 bound_to 10752
  153.0399  135.6488  154.0983 H   0  0  0  0  0  0  0  0  0  0  0  0  # atno 10764 bound_to 10752
  154.0898  135.2941  155.3254 H   0  0  0  0  0  0  0  0  0  0  0  0  # atno 10765 bound_to 10752
  139.9812  134.6741  156.0260 H   0  0  0  0  0  0  0  0  0  0  0  0  # atno 11005 bound_to 11000
  146.3527  140.0387  142.8644 LP  0  0  0  0  0  0  0  0  0  0  0  0  # atno 17320 bound_to 7965
  145.1346  140.9537  143.4524 LP  0  0  0  0  0  0  0  0  0  0  0  0  # atno 17321 bound_to 7965
  140.5079  144.1070  150.5987 LP  0  0  0  0  0  0  0  0  0  0  0  0  # atno 17342 bound_to 10162
  140.3985  143.2716  151.9976 LP  0  0  0  0  0  0  0  0  0  0  0  0  # atno 17343 bound_to 10162
  156.6491  130.8736  151.3528 LP  0  0  0  0  0  0  0  0  0  0  0  0  # atno 17370 bound_to 10713
  157.7132  130.9466  150.1163 LP  0  0  0  0  0  0  0  0  0  0  0  0  # atno 17371 bound_to 10713
  141.1483  133.6552  156.3936 LP  0  0  0  0  0  0  0  0  0  0  0  0  # atno 17394 bound_to 11000
  140.5094  134.6410  157.5278 LP  0  0  0  0  0  0  0  0  0  0  0  0  # atno 17395 bound_to 11000

$$$$
