AV-unprocessed.smi:113|AV-procd|sdf|1091|dock4
  -GOLD-   2262018193D 1   1.00000     0.00000
 Structure written by MMmdl.
 52 55  0  0  0  0  0  0  0  0  1 V2000
  154.5804  140.9499  162.3912 C   0  0  0  0  0  0  0  0  0  0  0  0
  153.8309  141.2339  161.1062 C   0  0  0  0  0  0  0  0  0  0  0  0
  153.6415  140.2227  160.1476 C   0  0  0  0  0  0  0  0  0  0  0  0
  152.9410  140.5273  158.9580 C   0  0  0  0  0  0  0  0  0  0  0  0
  152.7083  139.4626  157.8802 C   0  0  0  0  0  0  0  0  0  0  0  0
  151.3258  139.1848  157.5165 N   0  0  0  0  0  0  0  0  0  0  0  0
  150.5285  138.4689  158.4422 C   0  0  0  0  0  0  0  0  0  0  0  0
  150.9817  138.0841  159.5222 O   0  0  0  0  0  0  0  0  0  0  0  0
  149.1519  138.2145  158.0109 C   0  0  0  0  0  0  0  0  0  0  0  0
  148.2286  137.4719  158.9643 C   0  0  0  0  0  0  0  0  0  0  0  0
  148.7378  138.6393  156.7929 C   0  0  0  0  0  0  0  0  0  0  0  0
  149.5472  139.3172  155.8945 N   0  0  0  0  0  0  0  0  0  0  0  0
  149.0485  139.7649  154.5326 C   0  0  2  0  0  0  0  0  0  0  0  0
  147.8968  140.7590  154.6809 C   0  0  0  0  0  0  0  0  0  0  0  0
  146.7017  139.8305  154.7246 C   0  0  1  0  0  0  0  0  0  0  0  0
  145.5101  140.5038  154.3705 O   0  0  0  0  0  0  0  0  0  0  0  0
  147.1175  138.6942  153.7717 C   0  0  1  0  0  0  0  0  0  0  0  0
  146.7261  138.8808  152.2918 C   0  0  0  0  0  0  0  0  0  0  0  0
  145.4102  138.4229  152.0591 O   0  0  0  0  0  0  0  0  0  0  0  0
  148.5476  138.6700  153.8219 O   0  0  0  0  0  0  0  0  0  0  0  0
  150.8822  139.6093  156.2443 C   0  0  0  0  0  0  0  0  0  0  0  0
  151.6254  140.2049  155.4605 O   0  0  0  0  0  0  0  0  0  0  0  0
  152.4588  141.8537  158.7913 C   0  0  0  0  0  0  0  0  0  0  0  0
  151.7454  142.2411  157.6310 C   0  0  0  0  0  0  0  0  0  0  0  0
  151.2770  143.5591  157.4852 C   0  0  0  0  0  0  0  0  0  0  0  0
  151.5173  144.5040  158.4964 C   0  0  0  0  0  0  0  0  0  0  0  0
  152.2250  144.1272  159.6519 C   0  0  0  0  0  0  0  0  0  0  0  0
  152.7034  142.8101  159.8207 C   0  0  0  0  0  0  0  0  0  0  0  0
  153.3775  142.4927  160.9478 N   0  0  0  0  0  0  0  0  0  0  0  0
  154.5194  139.8929  162.6517 H   0  0  0  0  0  0  0  0  0  0  0  0
  154.1666  141.5251  163.2204 H   0  0  0  0  0  0  0  0  0  0  0  0
  155.6318  141.2153  162.2791 H   0  0  0  0  0  0  0  0  0  0  0  0
  154.0341  139.2348  160.3362 H   0  0  0  0  0  0  0  0  0  0  0  0
  153.2385  139.7319  156.9654 H   0  0  0  0  0  0  0  0  0  0  0  0
  153.1592  138.5163  158.1833 H   0  0  0  0  0  0  0  0  0  0  0  0
  147.2289  137.3460  158.5476 H   0  0  0  0  0  0  0  0  0  0  0  0
  148.1311  138.0178  159.9033 H   0  0  0  0  0  0  0  0  0  0  0  0
  148.6248  136.4798  159.1834 H   0  0  0  0  0  0  0  0  0  0  0  0
  147.7144  138.4305  156.5221 H   0  0  0  0  0  0  0  0  0  0  0  0
  149.9210  140.1675  154.0156 H   0  0  0  0  0  0  0  0  0  0  0  0
  148.0004  141.3947  155.5607 H   0  0  0  0  0  0  0  0  0  0  0  0
  147.8715  141.3893  153.7909 H   0  0  0  0  0  0  0  0  0  0  0  0
  146.5918  139.4339  155.7346 H   0  0  0  0  0  0  0  0  0  0  0  0
  145.2933  140.2818  153.4776 H   0  0  0  0  0  0  0  0  0  0  0  0
  146.7397  137.7356  154.1293 H   0  0  0  0  0  0  0  0  0  0  0  0
  146.8246  139.9206  151.9789 H   0  0  0  0  0  0  0  0  0  0  0  0
  147.3900  138.2938  151.6566 H   0  0  0  0  0  0  0  0  0  0  0  0
  144.8087  139.1216  152.2675 H   0  0  0  0  0  0  0  0  0  0  0  0
  151.5438  141.5406  156.8352 H   0  0  0  0  0  0  0  0  0  0  0  0
  150.7332  143.8445  156.5966 H   0  0  0  0  0  0  0  0  0  0  0  0
  151.1594  145.5170  158.3867 H   0  0  0  0  0  0  0  0  0  0  0  0
  152.4034  144.8628  160.4227 H   0  0  0  0  0  0  0  0  0  0  0  0
  1  2  1  0  0  0  0
  1 30  1  0  0  0  0
  1 31  1  0  0  0  0
  1 32  1  0  0  0  0
  2 29  1  0  0  0  0
  2  3  2  0  0  0  0
  3  4  1  0  0  0  0
  3 33  1  0  0  0  0
  4  5  1  0  0  0  0
  4 23  2  0  0  0  0
  5  6  1  0  0  0  0
  5 34  1  0  0  0  0
  5 35  1  0  0  0  0
  6 21  1  0  0  0  0
  6  7  1  0  0  0  0
  7  8  2  0  0  0  0
  7  9  1  0  0  0  0
  9 10  1  0  0  0  0
  9 11  2  0  0  0  0
 10 36  1  0  0  0  0
 10 37  1  0  0  0  0
 10 38  1  0  0  0  0
 11 12  1  0  0  0  0
 11 39  1  0  0  0  0
 12 13  1  0  0  0  0
 12 21  1  0  0  0  0
 13 20  1  0  0  0  0
 13 14  1  0  0  0  0
 13 40  1  0  0  0  0
 14 15  1  0  0  0  0
 14 41  1  0  0  0  0
 14 42  1  0  0  0  0
 15 16  1  0  0  0  0
 15 17  1  0  0  0  0
 15 43  1  0  0  0  0
 16 44  1  0  0  0  0
 17 18  1  0  0  0  0
 17 20  1  0  0  0  0
 17 45  1  0  0  0  0
 18 19  1  0  0  0  0
 18 46  1  0  0  0  0
 18 47  1  0  0  0  0
 19 48  1  0  0  0  0
 21 22  2  0  0  0  0
 23 28  1  0  0  0  0
 23 24  1  0  0  0  0
 24 25  2  0  0  0  0
 24 49  1  0  0  0  0
 25 26  1  0  0  0  0
 25 50  1  0  0  0  0
 26 27  2  0  0  0  0
 26 51  1  0  0  0  0
 27 28  1  0  0  0  0
 27 52  1  0  0  0  0
 28 29  2  0  0  0  0
M  END
> <s_m_source_file>
AV-unprocessed.smi

> <i_m_source_file_index>
113

> <i_lp_mmshare_version>
43012

> <i_f3d_flags>
0

> <s_epik_input>
W2NIXTFbY0hdW2NIXVtjSF1jKGMxMiluYyhbQ0gzXSlbY0hdYzJbQ0gyXW4zYyg9TyljKFtDSDNdKVtjSF1uKGMzPU8pW0NAQEhdNFtDSDJdW0NAQEhdKFtPSF0pW0NASF0oTzQpW0NIMl1bT0hd

> <s_epik_cmdline>
J2VwaWtfcHl0aG9uJywgJy1waCcsICc3LjAnLCAnLXRuJywgJzgnLCAnLW1hJywgJzIwMCcsICctbWV0YWxfYmluZGluZycsICctaW1hZScsICc8aW5maWxlLm1hZT4nLCAnLW9tYWUnLCAnPG91dGZpbGUubWFlPic=

> <r_lp_tautomer_probability>
1

> <r_epik_Ionization_Penalty>
0.214728

> <r_epik_Ionization_Penalty_Charging>
3.04883e-08

> <r_epik_Ionization_Penalty_Neutral>
0.214728

> <r_epik_State_Penalty>
0.204913

> <r_epik_Charging_Adjusted_Penalty>
0.204913

> <i_epik_Tot_Q>
0

> <i_epik_Tot_abs_Q>
0

> <r_epik_Metal_State_Penalty>
0.000244761

> <b_epik_Metal_Only>
0

> <s_epik_Chemistry_Notes>
This compound contains an acetal/aminal-like group ( X-CH(R)-Y where X, Y are N, S, or O) that may be acid/base labile, releasing an aldehyde.

> <s_lp_Force_Field>
OPLS_2005

> <r_lp_Energy>
41.1863

> <b_lp_Chiralities_Consistent>
1

> <s_lp_Variant>
AV-unprocessed.smi:113-1

> <Gold.Version>
5.8.1

> <Gold.Id.Protein>
6NUR|6NUR_protein|mol2

> <Gold.PLP.Fitness>
56.3267

> <Gold.PLP.PLP>
-49.6843

> <Gold.PLP.part.hbond>
-4.6745

> <Gold.PLP.part.metal>
0.0000

> <Gold.PLP.part.buried>
-4.5835

> <Gold.PLP.part.nonpolar>
-41.2707

> <Gold.PLP.part.repulsive>
0.7229

> <Gold.PLP.ligand.clash>
0.0000

> <Gold.PLP.ligand.torsion>
0.4067

> <Gold.PLP.Chemscore.Hbond>
2.4806

> <Gold.PLP.Chemscore.CHOScore>
0.0000

> <Gold.PLP.Chemscore.Metal>
0.0000

> <Gold.Chemscore.Hbonds>
donor molecule, donor type, donor heavy atom, donor atom, acceptor molecule, acceptor atom, score
      L1  H    16    44       P1 10175  0.62
      L1  H    19    48       P1 10175  1.00
      P1  H  7989  7998       L1    22  0.83

> <Gold.PLP.Chemscore.Internal.Correction>
0.0141

> <Gold.Rescore>
     Score         DG    S(hbond)    S(metal)    S(lipo)     H(rot)  DE(clash)    DE(int)     intcor
     21.15     -21.67       2.61        0.00     128.46       2.95       0.16       0.36       ----

> <Gold.Chemscore.Fitness>
21.1489

> <Gold.Chemscore.DG>
-21.6676

> <Gold.Chemscore.ZeroCoef>
-5.4800

> <Gold.Chemscore.Hbond>
2.6054

> <Gold.Chemscore.Metal>
0.0000

> <Gold.Chemscore.Lipo>
128.4574

> <Gold.Chemscore.Internal_Hbond>
0.0000

> <Gold.Chemscore.DEClash>
0.1578

> <Gold.Chemscore.DEInternal>
0.3609

> <Gold.Chemscore.Rot>
2.9469

> <Gold.Chemscore.Internal.Correction>
   9.000000E+99

> <Gold.Chemscore.Hbonds>
donor molecule, donor type, donor heavy atom, donor atom, acceptor molecule, acceptor atom, score
      L1  H    16    44       P1 10175  0.64
      L1  H    19    48       P1 10175  1.00
      P1  H  7989  7998       L1    22  0.78

> <Gold.Chemscore.Hbond.Weighted>
-8.7020

> <Gold.Chemscore.Metal.Weighted>
-0.0000

> <Gold.Chemscore.Lipo.Weighted>
-15.0295

> <Gold.Chemscore.Internal_Hbond.Weighted>
0.0000

> <Gold.Chemscore.DEClash.Weighted>
0.1578

> <Gold.Chemscore.DEInternal.Weighted>
0.3609

> <Gold.Chemscore.Rot.Weighted>
7.5439

> <Gold.Chemscore.Internal.Correction.Weighted>
   9.000000E+99

> <Gold.Protein.RotatedTorsions>
[ 6907 6896 6895 6894 ] final  -21.00 input  -60.11 | X-H torsion
[ 7974 7965 7964 7962 ] final -103.90 input  175.53 | X-H torsion
[ 8008 7997 7996 7995 ] final  152.83 input   59.86 | X-H torsion
[ 10167 10162 10161 10158 ] final  121.16 input  -65.29 | X-H torsion
[ 10718 10713 10712 10709 ] final  -45.82 input   66.30 | X-H torsion
[ 10763 10752 10751 10750 ] final   78.75 input  -60.55 | X-H torsion
[ 11005 11000 10999 10996 ] final -100.17 input  -57.11 | X-H torsion

> <Gold.Protein.ActiveResidues>
 VAL166  LYS551  ARG553  GLY616  TRP617  ASP618  TYR619  PRO620  LYS621  CYS622 
 ASP623  PHE694  ASN695  SER759  ASP760  ASP761  ALA762  ILE779  LEU786  VAL792 
 PHE793  MET794  SER795  GLU796  ALA797  LYS798  CYS799  TRP800  GLU811  SER814 

> <Gold.Protein.RotatedAtoms>
  151.2399  135.0585  159.9020 H   0  0  0  0  0  0  0  0  0  0  0  0  # atno 6907 bound_to 6896
  152.5394  134.0446  159.8093 H   0  0  0  0  0  0  0  0  0  0  0  0  # atno 6908 bound_to 6896
  151.0638  133.5473  159.2663 H   0  0  0  0  0  0  0  0  0  0  0  0  # atno 6909 bound_to 6896
  145.2499  140.9234  143.3101 H   0  0  0  0  0  0  0  0  0  0  0  0  # atno 7974 bound_to 7965
  156.2611  140.2010  156.6394 H   0  0  0  0  0  0  0  0  0  0  0  0  # atno 8008 bound_to 7997
  154.6621  140.0559  157.0098 H   0  0  0  0  0  0  0  0  0  0  0  0  # atno 8009 bound_to 7997
  155.1261  140.3229  155.4488 H   0  0  0  0  0  0  0  0  0  0  0  0  # atno 8010 bound_to 7997
  139.5937  144.7034  151.3228 H   0  0  0  0  0  0  0  0  0  0  0  0  # atno 10167 bound_to 10162
  156.2245  130.4168  149.8952 H   0  0  0  0  0  0  0  0  0  0  0  0  # atno 10718 bound_to 10713
  153.0899  135.4865  154.8669 H   0  0  0  0  0  0  0  0  0  0  0  0  # atno 10763 bound_to 10752
  154.7256  135.3049  154.8978 H   0  0  0  0  0  0  0  0  0  0  0  0  # atno 10764 bound_to 10752
  153.9629  135.6810  153.4798 H   0  0  0  0  0  0  0  0  0  0  0  0  # atno 10765 bound_to 10752
  141.1281  133.8378  157.1068 H   0  0  0  0  0  0  0  0  0  0  0  0  # atno 11005 bound_to 11000
  144.9512  139.4081  143.6401 LP  0  0  0  0  0  0  0  0  0  0  0  0  # atno 17320 bound_to 7965
  146.3305  139.8520  142.8871 LP  0  0  0  0  0  0  0  0  0  0  0  0  # atno 17321 bound_to 7965
  140.7194  143.7177  150.7720 LP  0  0  0  0  0  0  0  0  0  0  0  0  # atno 17342 bound_to 10162
  140.0738  143.5035  152.2566 LP  0  0  0  0  0  0  0  0  0  0  0  0  # atno 17343 bound_to 10162
  156.6587  130.8773  151.3543 LP  0  0  0  0  0  0  0  0  0  0  0  0  # atno 17370 bound_to 10713
  157.7103  130.9433  150.1068 LP  0  0  0  0  0  0  0  0  0  0  0  0  # atno 17371 bound_to 10713
  140.0299  134.9906  157.0760 LP  0  0  0  0  0  0  0  0  0  0  0  0  # atno 17394 bound_to 11000
  140.4301  134.1789  155.7168 LP  0  0  0  0  0  0  0  0  0  0  0  0  # atno 17395 bound_to 11000

$$$$
