AV-unprocessed.smi:2975|AV-procd|sdf|11355|dock7
  -GOLD-   2272016273D 1   1.00000     0.00000
 Structure written by MMmdl.
 39 41  0  0  0  0  0  0  0  0  1 V2000
  147.1271  128.2922  151.5043 C   0  0  0  0  0  0  0  0  0  0  0  0
  146.5389  129.1621  152.6229 C   0  0  2  0  0  0  0  0  0  0  0  0
  145.4851  128.4429  153.2317 O   0  0  0  0  0  0  0  0  0  0  0  0
  146.0952  130.5061  152.1118 C   0  0  0  0  0  0  0  0  0  0  0  0
  145.1091  130.6387  151.2216 N   0  0  0  0  0  0  0  0  0  0  0  0
  145.0452  132.0050  151.0337 C   0  0  0  0  0  0  0  0  0  0  0  0
  144.1936  132.7807  150.2152 C   0  0  0  0  0  0  0  0  0  0  0  0
  144.3137  134.1856  150.1901 C   0  0  0  0  0  0  0  0  0  0  0  0
  145.2852  134.8331  150.9805 C   0  0  0  0  0  0  0  0  0  0  0  0
  146.1449  134.0785  151.8015 C   0  0  0  0  0  0  0  0  0  0  0  0
  146.0208  132.6764  151.8229 C   0  0  0  0  0  0  0  0  0  0  0  0
  146.6906  131.6630  152.5010 N   0  0  0  0  0  0  0  0  0  0  0  0
  147.7919  131.8438  153.4335 C   0  0  0  0  0  0  0  0  0  0  0  0
  147.4459  131.2999  154.8248 C   0  0  0  0  0  0  0  0  0  0  0  0
  148.4362  131.7420  155.7416 O   0  0  0  0  0  0  0  0  0  0  0  0
  149.6837  131.1573  155.6876 C   0  0  0  0  0  0  0  0  0  0  0  0
  150.0080  130.0502  154.8620 C   0  0  0  0  0  0  0  0  0  0  0  0
  151.3097  129.5126  154.8684 C   0  0  0  0  0  0  0  0  0  0  0  0
  152.3012  130.0711  155.6959 C   0  0  0  0  0  0  0  0  0  0  0  0
  151.9890  131.1691  156.5184 C   0  0  0  0  0  0  0  0  0  0  0  0
  150.6877  131.7074  156.5133 C   0  0  0  0  0  0  0  0  0  0  0  0
  150.4002  132.7649  157.3096 F   0  0  0  0  0  0  0  0  0  0  0  0
  147.9805  128.7824  151.0351 H   0  0  0  0  0  0  0  0  0  0  0  0
  146.3888  128.0946  150.7262 H   0  0  0  0  0  0  0  0  0  0  0  0
  147.4702  127.3317  151.8901 H   0  0  0  0  0  0  0  0  0  0  0  0
  147.2915  129.3014  153.3980 H   0  0  0  0  0  0  0  0  0  0  0  0
  144.8059  129.0543  153.4718 H   0  0  0  0  0  0  0  0  0  0  0  0
  143.4455  132.2939  149.6072 H   0  0  0  0  0  0  0  0  0  0  0  0
  143.6567  134.7689  149.5618 H   0  0  0  0  0  0  0  0  0  0  0  0
  145.3697  135.9097  150.9562 H   0  0  0  0  0  0  0  0  0  0  0  0
  146.8896  134.5717  152.4083 H   0  0  0  0  0  0  0  0  0  0  0  0
  148.6857  131.3609  153.0384 H   0  0  0  0  0  0  0  0  0  0  0  0
  148.0258  132.9072  153.4958 H   0  0  0  0  0  0  0  0  0  0  0  0
  146.4614  131.6624  155.1255 H   0  0  0  0  0  0  0  0  0  0  0  0
  147.4161  130.2094  154.8019 H   0  0  0  0  0  0  0  0  0  0  0  0
  149.2753  129.5935  154.2144 H   0  0  0  0  0  0  0  0  0  0  0  0
  151.5469  128.6692  154.2367 H   0  0  0  0  0  0  0  0  0  0  0  0
  153.2992  129.6579  155.6999 H   0  0  0  0  0  0  0  0  0  0  0  0
  152.7484  131.5999  157.1546 H   0  0  0  0  0  0  0  0  0  0  0  0
  1  2  1  0  0  0  0
  1 23  1  0  0  0  0
  1 24  1  0  0  0  0
  1 25  1  0  0  0  0
  2  3  1  0  0  0  0
  2  4  1  0  0  0  0
  2 26  1  0  0  0  0
  3 27  1  0  0  0  0
  4 12  1  0  0  0  0
  4  5  2  0  0  0  0
  5  6  1  0  0  0  0
  6 11  2  0  0  0  0
  6  7  1  0  0  0  0
  7  8  2  0  0  0  0
  7 28  1  0  0  0  0
  8  9  1  0  0  0  0
  8 29  1  0  0  0  0
  9 10  2  0  0  0  0
  9 30  1  0  0  0  0
 10 11  1  0  0  0  0
 10 31  1  0  0  0  0
 11 12  1  0  0  0  0
 12 13  1  0  0  0  0
 13 14  1  0  0  0  0
 13 32  1  0  0  0  0
 13 33  1  0  0  0  0
 14 15  1  0  0  0  0
 14 34  1  0  0  0  0
 14 35  1  0  0  0  0
 15 16  1  0  0  0  0
 16 21  1  0  0  0  0
 16 17  2  0  0  0  0
 17 18  1  0  0  0  0
 17 36  1  0  0  0  0
 18 19  2  0  0  0  0
 18 37  1  0  0  0  0
 19 20  1  0  0  0  0
 19 38  1  0  0  0  0
 20 21  2  0  0  0  0
 20 39  1  0  0  0  0
 21 22  1  0  0  0  0
M  END
> <s_m_source_file>
AV-unprocessed.smi

> <i_m_source_file_index>
2975

> <i_lp_mmshare_version>
43012

> <i_f3d_flags>
0

> <s_epik_input>
W2NIXTFbY0hdW2NIXVtjSF1jKGMxMiluKGMobjIpW0NASF0oW0NIM10pW09IXSlbQ0gyXVtDSDJdT2MzW2NIXVtjSF1bY0hdW2NIXWMzRg==

> <s_epik_cmdline>
J2VwaWtfcHl0aG9uJywgJy1waCcsICc3LjAnLCAnLXRuJywgJzgnLCAnLW1hJywgJzIwMCcsICctbWV0YWxfYmluZGluZycsICctaW1hZScsICc8aW5maWxlLm1hZT4nLCAnLW9tYWUnLCAnPG91dGZpbGUubWFlPic=

> <r_lp_tautomer_probability>
1

> <r_epik_Ionization_Penalty>
0.0404035

> <r_epik_Ionization_Penalty_Charging>
0

> <r_epik_Ionization_Penalty_Neutral>
0.0404035

> <r_epik_State_Penalty>
0.0340039

> <r_epik_Charging_Adjusted_Penalty>
0.0340039

> <i_epik_Tot_Q>
0

> <i_epik_Tot_abs_Q>
0

> <r_epik_Metal_State_Penalty>
3.49976e-05

> <b_epik_Metal_Only>
0

> <s_lp_Force_Field>
OPLS_2005

> <r_lp_Energy>
15.721

> <b_lp_Chiralities_Consistent>
1

> <s_lp_Variant>
AV-unprocessed.smi:2975-1

> <Gold.Version>
5.8.1

> <Gold.Id.Protein>
6NUR|6NUR_protein|mol2

> <Gold.PLP.Fitness>
45.4576

> <Gold.PLP.PLP>
-42.9096

> <Gold.PLP.part.hbond>
-1.0000

> <Gold.PLP.part.metal>
0.0000

> <Gold.PLP.part.buried>
-3.0762

> <Gold.PLP.part.nonpolar>
-38.1502

> <Gold.PLP.part.repulsive>
0.1528

> <Gold.PLP.ligand.clash>
0.0000

> <Gold.PLP.ligand.torsion>
0.1519

> <Gold.PLP.Chemscore.Hbond>
0.9440

> <Gold.PLP.Chemscore.CHOScore>
0.0000

> <Gold.PLP.Chemscore.Metal>
0.0000

> <Gold.Chemscore.Hbonds>
donor molecule, donor type, donor heavy atom, donor atom, acceptor molecule, acceptor atom, score
      L1  H     3    27       P1 10956  0.89

> <Gold.PLP.Chemscore.Internal.Correction>
0.0198

> <Gold.Rescore>
     Score         DG    S(hbond)    S(metal)    S(lipo)     H(rot)  DE(clash)    DE(int)     intcor
     15.24     -15.47       0.96        0.00     106.29       2.21       0.15       0.08       ----

> <Gold.Chemscore.Fitness>
15.2440

> <Gold.Chemscore.DG>
-15.4712

> <Gold.Chemscore.ZeroCoef>
-5.4800

> <Gold.Chemscore.Hbond>
0.9590

> <Gold.Chemscore.Metal>
0.0000

> <Gold.Chemscore.Lipo>
106.2863

> <Gold.Chemscore.Internal_Hbond>
0.0000

> <Gold.Chemscore.DEClash>
0.1500

> <Gold.Chemscore.DEInternal>
0.0771

> <Gold.Chemscore.Rot>
2.2060

> <Gold.Chemscore.Internal.Correction>
   9.000000E+99

> <Gold.Chemscore.Hbonds>
donor molecule, donor type, donor heavy atom, donor atom, acceptor molecule, acceptor atom, score
      L1  H     3    27       P1 10956  0.67

> <Gold.Chemscore.Hbond.Weighted>
-3.2030

> <Gold.Chemscore.Metal.Weighted>
-0.0000

> <Gold.Chemscore.Lipo.Weighted>
-12.4355

> <Gold.Chemscore.Internal_Hbond.Weighted>
0.0000

> <Gold.Chemscore.DEClash.Weighted>
0.1500

> <Gold.Chemscore.DEInternal.Weighted>
0.0771

> <Gold.Chemscore.Rot.Weighted>
5.6473

> <Gold.Chemscore.Internal.Correction.Weighted>
   9.000000E+99

> <Gold.Protein.RotatedTorsions>
[ 6907 6896 6895 6894 ] final    6.86 input  -60.11 | X-H torsion
[ 7974 7965 7964 7962 ] final  -73.74 input  175.53 | X-H torsion
[ 8008 7997 7996 7995 ] final  137.94 input   59.86 | X-H torsion
[ 10167 10162 10161 10158 ] final  -58.86 input  -65.29 | X-H torsion
[ 10718 10713 10712 10709 ] final  103.41 input   66.30 | X-H torsion
[ 10763 10752 10751 10750 ] final  -26.66 input  -60.55 | X-H torsion
[ 11005 11000 10999 10996 ] final  173.23 input  -57.11 | X-H torsion

> <Gold.Protein.ActiveResidues>
 VAL166  LYS551  ARG553  GLY616  TRP617  ASP618  TYR619  PRO620  LYS621  CYS622 
 ASP623  PHE694  ASN695  SER759  ASP760  ASP761  ALA762  ILE779  LEU786  VAL792 
 PHE793  MET794  SER795  GLU796  ALA797  LYS798  CYS799  TRP800  GLU811  SER814 

> <Gold.Protein.RotatedAtoms>
  151.6806  135.0962  160.0214 H   0  0  0  0  0  0  0  0  0  0  0  0  # atno 6907 bound_to 6896
  152.3838  133.6578  159.6190 H   0  0  0  0  0  0  0  0  0  0  0  0  # atno 6908 bound_to 6896
  150.7768  133.8986  159.3376 H   0  0  0  0  0  0  0  0  0  0  0  0  # atno 6909 bound_to 6896
  145.6483  140.9290  143.0999 H   0  0  0  0  0  0  0  0  0  0  0  0  # atno 7974 bound_to 7965
  156.3000  140.2406  156.3992 H   0  0  0  0  0  0  0  0  0  0  0  0  # atno 8008 bound_to 7997
  154.8543  140.0422  157.1644 H   0  0  0  0  0  0  0  0  0  0  0  0  # atno 8009 bound_to 7997
  154.8965  140.2971  155.5345 H   0  0  0  0  0  0  0  0  0  0  0  0  # atno 8010 bound_to 7997
  140.6171  143.2406  151.5570 H   0  0  0  0  0  0  0  0  0  0  0  0  # atno 10167 bound_to 10162
  157.6773  131.0778  150.5551 H   0  0  0  0  0  0  0  0  0  0  0  0  # atno 10718 bound_to 10713
  153.7195  135.6946  153.5016 H   0  0  0  0  0  0  0  0  0  0  0  0  # atno 10763 bound_to 10752
  153.2214  135.4368  155.0493 H   0  0  0  0  0  0  0  0  0  0  0  0  # atno 10764 bound_to 10752
  154.8289  135.3461  154.6729 H   0  0  0  0  0  0  0  0  0  0  0  0  # atno 10765 bound_to 10752
  140.3383  134.7298  157.4184 H   0  0  0  0  0  0  0  0  0  0  0  0  # atno 11005 bound_to 11000
  144.7132  139.8293  143.7407 LP  0  0  0  0  0  0  0  0  0  0  0  0  # atno 17320 bound_to 7965
  146.1225  139.4245  143.0219 LP  0  0  0  0  0  0  0  0  0  0  0  0  # atno 17321 bound_to 7965
  139.5408  144.2654  152.1346 LP  0  0  0  0  0  0  0  0  0  0  0  0  # atno 17342 bound_to 10162
  140.1866  144.4793  150.6500 LP  0  0  0  0  0  0  0  0  0  0  0  0  # atno 17343 bound_to 10162
  156.5854  130.4315  149.5959 LP  0  0  0  0  0  0  0  0  0  0  0  0  # atno 17370 bound_to 10713
  156.2627  130.6971  151.1745 LP  0  0  0  0  0  0  0  0  0  0  0  0  # atno 17371 bound_to 10713
  140.0803  134.5741  155.8548 LP  0  0  0  0  0  0  0  0  0  0  0  0  # atno 17394 bound_to 11000
  141.2045  133.6640  156.6127 LP  0  0  0  0  0  0  0  0  0  0  0  0  # atno 17395 bound_to 11000

$$$$
