AV-unprocessed.smi:167|AV-procd|sdf|1392|dock4
  -GOLD-   2262019133D 1   1.00000     0.00000
 Structure written by MMmdl.
 51 55  0  0  0  0  0  0  0  0  1 V2000
  147.2073  138.5121  157.4267 O   0  0  0  0  0  0  0  0  0  0  0  0
  148.1906  139.5091  157.6088 C   0  0  0  0  0  0  0  0  0  0  0  0
  148.0504  140.6021  156.5333 C   0  0  2  0  0  0  0  0  0  0  0  0
  146.6348  141.2097  156.4769 C   0  0  0  0  0  0  0  0  0  0  0  0
  146.2376  140.9471  155.0146 C   0  0  1  0  0  0  0  0  0  0  0  0
  147.0281  141.8980  154.0940 C   0  0  0  0  0  0  0  0  0  0  0  0
  148.4283  141.2657  154.1425 C   0  0  0  0  0  0  0  0  0  0  0  0
  148.1874  140.0701  155.0896 C   0  0  2  0  0  0  0  0  0  0  0  0
  146.8309  139.6430  154.7669 N   0  0  0  0  0  0  0  0  0  0  0  0
  146.5852  138.9674  153.6093 C   0  0  0  0  0  0  0  0  0  0  0  0
  146.9792  139.5313  152.4361 N   0  0  0  0  0  0  0  0  0  0  0  0
  146.7644  138.9088  151.2745 C   0  0  0  0  0  0  0  0  0  0  0  0
  146.1832  137.7290  151.0567 N   0  0  0  0  0  0  0  0  0  0  0  0
  145.7952  137.1471  152.2269 C   0  0  0  0  0  0  0  0  0  0  0  0
  145.9647  137.6844  153.5363 C   0  0  0  0  0  0  0  0  0  0  0  0
  145.4720  136.7819  154.4728 N   0  0  0  0  0  0  0  0  0  0  0  0
  145.0314  135.7810  153.7618 C   0  0  0  0  0  0  0  0  0  0  0  0
  145.1592  135.9303  152.4005 N   0  0  0  0  0  0  0  0  0  0  0  0
  144.7961  134.9792  151.3912 C   0  0  0  0  0  0  0  0  0  0  0  0
  144.2183  133.6123  151.7701 C   0  0  0  0  0  0  0  0  0  0  0  0
  144.9010  132.9929  150.5283 C   0  0  0  0  0  0  0  0  0  0  0  0
  145.5388  131.5987  150.6912 C   0  0  0  0  0  0  0  0  0  0  0  0
  146.6184  131.5988  151.6039 O   0  0  0  0  0  0  0  0  0  0  0  0
  144.0394  132.9524  149.2518 C   0  0  0  0  0  0  0  0  0  0  0  0
  142.8992  132.1344  149.4201 O   0  0  0  0  0  0  0  0  0  0  0  0
  145.8593  134.2039  150.6053 C   0  0  0  0  0  0  0  0  0  0  0  0
  147.6225  137.7417  157.0699 H   0  0  0  0  0  0  0  0  0  0  0  0
  148.0991  139.9287  158.6113 H   0  0  0  0  0  0  0  0  0  0  0  0
  149.1722  139.0389  157.5433 H   0  0  0  0  0  0  0  0  0  0  0  0
  148.7877  141.3820  156.7303 H   0  0  0  0  0  0  0  0  0  0  0  0
  145.9529  140.6926  157.1537 H   0  0  0  0  0  0  0  0  0  0  0  0
  146.6190  142.2695  156.7333 H   0  0  0  0  0  0  0  0  0  0  0  0
  145.1601  141.0122  154.8786 H   0  0  0  0  0  0  0  0  0  0  0  0
  146.6322  141.8798  153.0777 H   0  0  0  0  0  0  0  0  0  0  0  0
  147.0146  142.9305  154.4450 H   0  0  0  0  0  0  0  0  0  0  0  0
  148.7309  140.9277  153.1506 H   0  0  0  0  0  0  0  0  0  0  0  0
  149.1921  141.9517  154.5100 H   0  0  0  0  0  0  0  0  0  0  0  0
  148.9495  139.2952  154.9984 H   0  0  0  0  0  0  0  0  0  0  0  0
  147.1063  139.4315  150.3934 H   0  0  0  0  0  0  0  0  0  0  0  0
  144.5937  134.9042  154.2167 H   0  0  0  0  0  0  0  0  0  0  0  0
  144.1228  135.5056  150.7128 H   0  0  0  0  0  0  0  0  0  0  0  0
  144.6167  133.2458  152.7177 H   0  0  0  0  0  0  0  0  0  0  0  0
  143.1287  133.5721  151.7700 H   0  0  0  0  0  0  0  0  0  0  0  0
  144.8095  130.8716  151.0487 H   0  0  0  0  0  0  0  0  0  0  0  0
  145.9098  131.2278  149.7353 H   0  0  0  0  0  0  0  0  0  0  0  0
  147.4044  131.3552  151.1390 H   0  0  0  0  0  0  0  0  0  0  0  0
  143.6959  133.9484  148.9718 H   0  0  0  0  0  0  0  0  0  0  0  0
  144.6139  132.5800  148.4029 H   0  0  0  0  0  0  0  0  0  0  0  0
  142.1450  132.6920  149.5370 H   0  0  0  0  0  0  0  0  0  0  0  0
  146.1173  134.6466  149.6428 H   0  0  0  0  0  0  0  0  0  0  0  0
  146.7567  134.0167  151.1968 H   0  0  0  0  0  0  0  0  0  0  0  0
  1  2  1  0  0  0  0
  1 27  1  0  0  0  0
  2  3  1  0  0  0  0
  2 28  1  0  0  0  0
  2 29  1  0  0  0  0
  3  8  1  0  0  0  0
  3  4  1  0  0  0  0
  3 30  1  0  0  0  0
  4  5  1  0  0  0  0
  4 31  1  0  0  0  0
  4 32  1  0  0  0  0
  5  9  1  0  0  0  0
  5  6  1  0  0  0  0
  5 33  1  0  0  0  0
  6  7  1  0  0  0  0
  6 34  1  0  0  0  0
  6 35  1  0  0  0  0
  7  8  1  0  0  0  0
  7 36  1  0  0  0  0
  7 37  1  0  0  0  0
  8  9  1  0  0  0  0
  8 38  1  0  0  0  0
  9 10  1  0  0  0  0
 10 15  1  0  0  0  0
 10 11  2  0  0  0  0
 11 12  1  0  0  0  0
 12 13  2  0  0  0  0
 12 39  1  0  0  0  0
 13 14  1  0  0  0  0
 14 18  1  0  0  0  0
 14 15  2  0  0  0  0
 15 16  1  0  0  0  0
 16 17  2  0  0  0  0
 17 18  1  0  0  0  0
 17 40  1  0  0  0  0
 18 19  1  0  0  0  0
 19 26  1  0  0  0  0
 19 20  1  0  0  0  0
 19 41  1  0  0  0  0
 20 21  1  0  0  0  0
 20 42  1  0  0  0  0
 20 43  1  0  0  0  0
 21 22  1  0  0  0  0
 21 24  1  0  0  0  0
 21 26  1  0  0  0  0
 22 23  1  0  0  0  0
 22 44  1  0  0  0  0
 22 45  1  0  0  0  0
 23 46  1  0  0  0  0
 24 25  1  0  0  0  0
 24 47  1  0  0  0  0
 24 48  1  0  0  0  0
 25 49  1  0  0  0  0
 26 50  1  0  0  0  0
 26 51  1  0  0  0  0
M  END
> <s_m_source_file>
AV-unprocessed.smi

> <i_m_source_file_index>
167

> <i_lp_mmshare_version>
43012

> <i_f3d_flags>
0

> <s_epik_input>
W09IXVtDSDJdW0NASF0oW0NIMl1bQ0BASF0xMilbQ0BIXShbQ0gyXVtDSDJdMSlOMmMobltjSF1uMyljKGMzNCluW2NIXW40W0NIXShbQ0gyXTUpW0NIMl1DNShbQ0gyXVtPSF0pW0NIMl1bT0hd

> <s_epik_cmdline>
J2VwaWtfcHl0aG9uJywgJy1waCcsICc3LjAnLCAnLXRuJywgJzgnLCAnLW1hJywgJzIwMCcsICctbWV0YWxfYmluZGluZycsICctaW1hZScsICc8aW5maWxlLm1hZT4nLCAnLW9tYWUnLCAnPG91dGZpbGUubWFlPic=

> <r_lp_tautomer_probability>
1

> <r_epik_Ionization_Penalty>
0.0047903

> <r_epik_Ionization_Penalty_Charging>
0

> <r_epik_Ionization_Penalty_Neutral>
0.0047903

> <r_epik_State_Penalty>
0.00341021

> <r_epik_Charging_Adjusted_Penalty>
0.00341021

> <i_epik_Tot_Q>
0

> <i_epik_Tot_abs_Q>
0

> <r_epik_Metal_State_Penalty>
-0

> <b_epik_Metal_Only>
0

> <s_lp_Force_Field>
OPLS_2005

> <r_lp_Energy>
90.0047

> <b_lp_Chiralities_Consistent>
1

> <s_lp_Variant>
AV-unprocessed.smi:167-1

> <Gold.Version>
5.8.1

> <Gold.Id.Protein>
6NUR|6NUR_protein|mol2

> <Gold.PLP.Fitness>
45.6596

> <Gold.PLP.PLP>
-36.3827

> <Gold.PLP.part.hbond>
-4.0794

> <Gold.PLP.part.metal>
0.0000

> <Gold.PLP.part.buried>
-5.5344

> <Gold.PLP.part.nonpolar>
-30.6979

> <Gold.PLP.part.repulsive>
3.7748

> <Gold.PLP.ligand.clash>
0.0000

> <Gold.PLP.ligand.torsion>
0.4738

> <Gold.PLP.Chemscore.Hbond>
2.7550

> <Gold.PLP.Chemscore.CHOScore>
0.4892

> <Gold.PLP.Chemscore.Metal>
0.0000

> <Gold.Chemscore.Hbonds>
donor molecule, donor type, donor heavy atom, donor atom, acceptor molecule, acceptor atom, score
      L1  H    23    46       P1 10747  1.00
      L1  H    25    49       P1 10186  0.93
      P1  H 10785 10796       L1    25  0.76
      L1  C    12    39       P1  7957  0.34

> <Gold.PLP.Chemscore.Internal.Correction>
0.4919

> <Gold.Rescore>
     Score         DG    S(hbond)    S(metal)    S(lipo)     H(rot)  DE(clash)    DE(int)     intcor
      5.71     -12.37       2.65        0.00      75.15       4.20       2.46       4.20       ----

> <Gold.Chemscore.Fitness>
5.7148

> <Gold.Chemscore.DG>
-12.3721

> <Gold.Chemscore.ZeroCoef>
-5.4800

> <Gold.Chemscore.Hbond>
2.6529

> <Gold.Chemscore.Metal>
0.0000

> <Gold.Chemscore.Lipo>
75.1537

> <Gold.Chemscore.Internal_Hbond>
0.0000

> <Gold.Chemscore.DEClash>
2.4567

> <Gold.Chemscore.DEInternal>
4.2006

> <Gold.Chemscore.Rot>
4.2038

> <Gold.Chemscore.Internal.Correction>
   9.000000E+99

> <Gold.Chemscore.Hbonds>
donor molecule, donor type, donor heavy atom, donor atom, acceptor molecule, acceptor atom, score
      L1  H    23    46       P1 10747  1.00
      L1  H    25    49       P1 10186  0.88
      P1  H 10785 10796       L1    25  0.64

> <Gold.Chemscore.Hbond.Weighted>
-8.8608

> <Gold.Chemscore.Metal.Weighted>
-0.0000

> <Gold.Chemscore.Lipo.Weighted>
-8.7930

> <Gold.Chemscore.Internal_Hbond.Weighted>
0.0000

> <Gold.Chemscore.DEClash.Weighted>
2.4567

> <Gold.Chemscore.DEInternal.Weighted>
4.2006

> <Gold.Chemscore.Rot.Weighted>
10.7617

> <Gold.Chemscore.Internal.Correction.Weighted>
   9.000000E+99

> <Gold.Protein.RotatedTorsions>
[ 6907 6896 6895 6894 ] final  127.88 input  -60.11 | X-H torsion
[ 7974 7965 7964 7962 ] final   10.56 input  175.53 | X-H torsion
[ 8008 7997 7996 7995 ] final  155.32 input   59.86 | X-H torsion
[ 10167 10162 10161 10158 ] final -133.49 input  -65.29 | X-H torsion
[ 10718 10713 10712 10709 ] final -152.35 input   66.30 | X-H torsion
[ 10763 10752 10751 10750 ] final   75.92 input  -60.55 | X-H torsion
[ 11005 11000 10999 10996 ] final -117.62 input  -57.11 | X-H torsion

> <Gold.Protein.ActiveResidues>
 VAL166  LYS551  ARG553  GLY616  TRP617  ASP618  TYR619  PRO620  LYS621  CYS622 
 ASP623  PHE694  ASN695  SER759  ASP760  ASP761  ALA762  ILE779  LEU786  VAL792 
 PHE793  MET794  SER795  GLU796  ALA797  LYS798  CYS799  TRP800  GLU811  SER814 

> <Gold.Protein.RotatedAtoms>
  152.3771  133.6496  159.6131 H   0  0  0  0  0  0  0  0  0  0  0  0  # atno 6907 bound_to 6896
  150.7712  133.9175  159.3397 H   0  0  0  0  0  0  0  0  0  0  0  0  # atno 6908 bound_to 6896
  151.6987  135.0935  160.0298 H   0  0  0  0  0  0  0  0  0  0  0  0  # atno 6909 bound_to 6896
  146.2386  139.9616  142.8458 H   0  0  0  0  0  0  0  0  0  0  0  0  # atno 7974 bound_to 7965
  156.2484  140.1942  156.6783 H   0  0  0  0  0  0  0  0  0  0  0  0  # atno 8008 bound_to 7997
  154.6341  140.0592  156.9793 H   0  0  0  0  0  0  0  0  0  0  0  0  # atno 8009 bound_to 7997
  155.1665  140.3264  155.4403 H   0  0  0  0  0  0  0  0  0  0  0  0  # atno 8010 bound_to 7997
  139.8977  143.6645  152.2601 H   0  0  0  0  0  0  0  0  0  0  0  0  # atno 10167 bound_to 10162
  156.4713  130.8260  151.2489 H   0  0  0  0  0  0  0  0  0  0  0  0  # atno 10718 bound_to 10713
  153.0688  135.4971  154.8259 H   0  0  0  0  0  0  0  0  0  0  0  0  # atno 10763 bound_to 10752
  154.6993  135.2998  154.9367 H   0  0  0  0  0  0  0  0  0  0  0  0  # atno 10764 bound_to 10752
  154.0097  135.6756  153.4817 H   0  0  0  0  0  0  0  0  0  0  0  0  # atno 10765 bound_to 10752
  141.0342  133.9935  157.3096 H   0  0  0  0  0  0  0  0  0  0  0  0  # atno 11005 bound_to 11000
  145.1766  140.9747  143.4291 LP  0  0  0  0  0  0  0  0  0  0  0  0  # atno 17320 bound_to 7965
  144.9980  139.3625  143.6181 LP  0  0  0  0  0  0  0  0  0  0  0  0  # atno 17321 bound_to 7965
  139.7053  144.7629  151.1204 LP  0  0  0  0  0  0  0  0  0  0  0  0  # atno 17342 bound_to 10162
  140.7713  143.5403  150.9320 LP  0  0  0  0  0  0  0  0  0  0  0  0  # atno 17343 bound_to 10162
  157.7491  131.0075  150.3193 LP  0  0  0  0  0  0  0  0  0  0  0  0  # atno 17370 bound_to 10713
  156.3615  130.3848  149.7247 LP  0  0  0  0  0  0  0  0  0  0  0  0  # atno 17371 bound_to 10713
  139.9229  135.0201  156.8130 LP  0  0  0  0  0  0  0  0  0  0  0  0  # atno 17394 bound_to 11000
  140.6352  133.9869  155.7681 LP  0  0  0  0  0  0  0  0  0  0  0  0  # atno 17395 bound_to 11000

$$$$
