AV-unprocessed.smi:2631|AV-procd|sdf|10248|dock1
  -GOLD-   2272014253D 1   1.00000     0.00000
 Structure written by MMmdl.
 35 36  0  0  0  0  0  0  0  0  1 V2000
  152.3046  143.4952  161.4906 C   0  0  0  0  0  0  0  0  0  0  0  0
  153.0519  143.4775  160.2879 O   0  0  0  0  0  0  0  0  0  0  0  0
  152.2470  143.2178  159.1495 C   0  0  0  0  0  0  0  0  0  0  0  0
  151.7512  141.7628  159.1938 C   0  0  0  0  0  0  0  0  0  0  0  0
  151.4734  141.2195  157.8791 N   0  0  0  0  0  0  0  0  0  0  0  0
  150.4629  141.6951  157.0392 C   0  0  0  0  0  0  0  0  0  0  0  0
  149.6777  142.7546  157.4606 N   0  0  0  0  0  0  0  0  0  0  0  0
  150.2316  141.1214  155.8297 C   0  0  0  0  0  0  0  0  0  0  0  0
  148.9635  141.6119  154.6856 S   0  0  0  0  0  0  0  0  0  0  0  0
  148.1238  140.0815  154.4376 C   0  0  0  0  0  0  0  0  0  0  0  0
  148.1397  139.0981  155.4470 C   0  0  0  0  0  0  0  0  0  0  0  0
  147.4763  137.8725  155.2433 C   0  0  0  0  0  0  0  0  0  0  0  0
  146.7973  137.6312  154.0323 C   0  0  0  0  0  0  0  0  0  0  0  0
  145.9866  136.1288  153.7824 Cl  0  0  0  0  0  0  0  0  0  0  0  0
  146.7811  138.6165  153.0248 C   0  0  0  0  0  0  0  0  0  0  0  0
  147.4442  139.8426  153.2270 C   0  0  0  0  0  0  0  0  0  0  0  0
  151.0186  139.9894  155.3359 C   0  0  0  0  0  0  0  0  0  0  0  0
  150.8880  139.4189  154.2531 O   0  0  0  0  0  0  0  0  0  0  0  0
  151.9986  139.5559  156.2283 N   0  0  0  0  0  0  0  0  0  0  0  0
  152.2595  140.1084  157.4811 C   0  0  0  0  0  0  0  0  0  0  0  0
  153.1437  139.6179  158.1841 O   0  0  0  0  0  0  0  0  0  0  0  0
  152.5655  138.7704  155.9438 H   0  0  0  0  0  0  0  0  0  0  0  0
  152.9692  143.6952  162.3309 H   0  0  0  0  0  0  0  0  0  0  0  0
  151.8174  142.5355  161.6661 H   0  0  0  0  0  0  0  0  0  0  0  0
  151.5435  144.2763  161.4705 H   0  0  0  0  0  0  0  0  0  0  0  0
  151.3911  143.8940  159.1477 H   0  0  0  0  0  0  0  0  0  0  0  0
  152.8090  143.4059  158.2334 H   0  0  0  0  0  0  0  0  0  0  0  0
  152.4772  141.1077  159.6737 H   0  0  0  0  0  0  0  0  0  0  0  0
  150.8416  141.6634  159.7886 H   0  0  0  0  0  0  0  0  0  0  0  0
  149.8162  143.1930  158.3598 H   0  0  0  0  0  0  0  0  0  0  0  0
  148.9923  143.1822  156.8543 H   0  0  0  0  0  0  0  0  0  0  0  0
  148.6616  139.2782  156.3754 H   0  0  0  0  0  0  0  0  0  0  0  0
  147.4904  137.1182  156.0164 H   0  0  0  0  0  0  0  0  0  0  0  0
  146.2620  138.4326  152.0956 H   0  0  0  0  0  0  0  0  0  0  0  0
  147.4337  140.5948  152.4519 H   0  0  0  0  0  0  0  0  0  0  0  0
  1  2  1  0  0  0  0
  1 23  1  0  0  0  0
  1 24  1  0  0  0  0
  1 25  1  0  0  0  0
  2  3  1  0  0  0  0
  3  4  1  0  0  0  0
  3 26  1  0  0  0  0
  3 27  1  0  0  0  0
  4  5  1  0  0  0  0
  4 28  1  0  0  0  0
  4 29  1  0  0  0  0
  5 20  1  0  0  0  0
  5  6  1  0  0  0  0
  6  7  1  0  0  0  0
  6  8  2  0  0  0  0
  7 30  1  0  0  0  0
  7 31  1  0  0  0  0
  8  9  1  0  0  0  0
  8 17  1  0  0  0  0
  9 10  1  0  0  0  0
 10 16  1  0  0  0  0
 10 11  2  0  0  0  0
 11 12  1  0  0  0  0
 11 32  1  0  0  0  0
 12 13  2  0  0  0  0
 12 33  1  0  0  0  0
 13 14  1  0  0  0  0
 13 15  1  0  0  0  0
 15 16  2  0  0  0  0
 15 34  1  0  0  0  0
 16 35  1  0  0  0  0
 17 18  2  0  0  0  0
 17 19  1  0  0  0  0
 19 22  1  0  0  0  0
 19 20  1  0  0  0  0
 20 21  2  0  0  0  0
M  END
> <s_m_source_file>
AV-unprocessed.smi

> <i_m_source_file_index>
2631

> <i_lp_mmshare_version>
43012

> <i_f3d_flags>
0

> <s_epik_input>
W0NIM11PW0NIMl1bQ0gyXW4xYyhbTkgyXSljKGMoPU8pW25IXWMxPU8pU2MyW2NIXVtjSF1jKENsKVtjSF1bY0hdMg==

> <s_epik_cmdline>
J2VwaWtfcHl0aG9uJywgJy1waCcsICc3LjAnLCAnLXRuJywgJzgnLCAnLW1hJywgJzIwMCcsICctbWV0YWxfYmluZGluZycsICctaW1hZScsICc8aW5maWxlLm1hZT4nLCAnLW9tYWUnLCAnPG91dGZpbGUubWFlPic=

> <r_lp_tautomer_probability>
1

> <r_epik_Ionization_Penalty>
9.0495e-05

> <r_epik_Ionization_Penalty_Charging>
7.40646e-05

> <r_epik_Ionization_Penalty_Neutral>
1.64304e-05

> <r_epik_State_Penalty>
-0

> <r_epik_Charging_Adjusted_Penalty>
7.40646e-05

> <i_epik_Tot_Q>
0

> <i_epik_Tot_abs_Q>
0

> <r_epik_Metal_State_Penalty>
0.0697747

> <b_epik_Metal_Only>
0

> <s_epik_Chemistry_Notes>
This compound has an imine and may undergo hydrolysis.

> <s_lp_Force_Field>
OPLS_2005

> <r_lp_Energy>
18.0154

> <b_lp_Chiralities_Consistent>
1

> <s_lp_Variant>
AV-unprocessed.smi:2631-1

> <Gold.Version>
5.8.1

> <Gold.Id.Protein>
6NUR|6NUR_protein|mol2

> <Gold.PLP.Fitness>
38.4829

> <Gold.PLP.PLP>
-33.4743

> <Gold.PLP.part.hbond>
-3.0000

> <Gold.PLP.part.metal>
0.0000

> <Gold.PLP.part.buried>
-0.7258

> <Gold.PLP.part.nonpolar>
-29.3328

> <Gold.PLP.part.repulsive>
0.3462

> <Gold.PLP.ligand.clash>
0.0000

> <Gold.PLP.ligand.torsion>
0.5911

> <Gold.PLP.Chemscore.Hbond>
2.0520

> <Gold.PLP.Chemscore.CHOScore>
0.0000

> <Gold.PLP.Chemscore.Metal>
0.0000

> <Gold.Chemscore.Hbonds>
donor molecule, donor type, donor heavy atom, donor atom, acceptor molecule, acceptor atom, score
      L1  H     7    31       P1  8028  0.75
      P1  H  7989  7998       L1    18  0.40
      P1  H  7997  8008       L1    21  0.75

> <Gold.PLP.Chemscore.Internal.Correction>
0.0347

> <Gold.Rescore>
     Score         DG    S(hbond)    S(metal)    S(lipo)     H(rot)  DE(clash)    DE(int)     intcor
     10.13     -11.90       0.98        0.00      72.03       2.07       0.08       1.69       ----

> <Gold.Chemscore.Fitness>
10.1288

> <Gold.Chemscore.DG>
-11.9011

> <Gold.Chemscore.ZeroCoef>
-5.4800

> <Gold.Chemscore.Hbond>
0.9843

> <Gold.Chemscore.Metal>
0.0000

> <Gold.Chemscore.Lipo>
72.0298

> <Gold.Chemscore.Internal_Hbond>
0.0000

> <Gold.Chemscore.DEClash>
0.0833

> <Gold.Chemscore.DEInternal>
1.6890

> <Gold.Chemscore.Rot>
2.0680

> <Gold.Chemscore.Internal.Correction>
   9.000000E+99

> <Gold.Chemscore.Hbonds>
donor molecule, donor type, donor heavy atom, donor atom, acceptor molecule, acceptor atom, score
      L1  H     7    31       P1  8028  0.66
      P1  H  7989  7998       L1    18  0.01
      P1  H  7997  8008       L1    21  0.09

> <Gold.Chemscore.Hbond.Weighted>
-3.2877

> <Gold.Chemscore.Metal.Weighted>
-0.0000

> <Gold.Chemscore.Lipo.Weighted>
-8.4275

> <Gold.Chemscore.Internal_Hbond.Weighted>
0.0000

> <Gold.Chemscore.DEClash.Weighted>
0.0833

> <Gold.Chemscore.DEInternal.Weighted>
1.6890

> <Gold.Chemscore.Rot.Weighted>
5.2941

> <Gold.Chemscore.Internal.Correction.Weighted>
   9.000000E+99

> <Gold.Protein.RotatedTorsions>
[ 6907 6896 6895 6894 ] final -158.18 input  -60.11 | X-H torsion
[ 7974 7965 7964 7962 ] final    2.96 input  175.53 | X-H torsion
[ 8008 7997 7996 7995 ] final  -83.24 input   59.86 | X-H torsion
[ 10167 10162 10161 10158 ] final   39.49 input  -65.29 | X-H torsion
[ 10718 10713 10712 10709 ] final   -6.36 input   66.30 | X-H torsion
[ 10763 10752 10751 10750 ] final  -42.52 input  -60.55 | X-H torsion
[ 11005 11000 10999 10996 ] final -128.22 input  -57.11 | X-H torsion

> <Gold.Protein.ActiveResidues>
 VAL166  LYS551  ARG553  GLY616  TRP617  ASP618  TYR619  PRO620  LYS621  CYS622 
 ASP623  PHE694  ASN695  SER759  ASP760  ASP761  ALA762  ILE779  LEU786  VAL792 
 PHE793  MET794  SER795  GLU796  ALA797  LYS798  CYS799  TRP800  GLU811  SER814 

> <Gold.Protein.RotatedAtoms>
  151.3143  133.4067  159.2649 H   0  0  0  0  0  0  0  0  0  0  0  0  # atno 6907 bound_to 6896
  151.0088  134.9381  159.8006 H   0  0  0  0  0  0  0  0  0  0  0  0  # atno 6908 bound_to 6896
  152.5295  134.3107  159.9165 H   0  0  0  0  0  0  0  0  0  0  0  0  # atno 6909 bound_to 6896
  146.2444  140.0758  142.8360 H   0  0  0  0  0  0  0  0  0  0  0  0  # atno 7974 bound_to 7965
  154.6170  140.0621  156.9567 H   0  0  0  0  0  0  0  0  0  0  0  0  # atno 8008 bound_to 7997
  155.1879  140.3304  155.4345 H   0  0  0  0  0  0  0  0  0  0  0  0  # atno 8009 bound_to 7997
  156.2410  140.1886  156.6971 H   0  0  0  0  0  0  0  0  0  0  0  0  # atno 8010 bound_to 7997
  140.3835  144.1948  150.6130 H   0  0  0  0  0  0  0  0  0  0  0  0  # atno 10167 bound_to 10162
  156.7331  130.5186  149.5841 H   0  0  0  0  0  0  0  0  0  0  0  0  # atno 10718 bound_to 10713
  153.9804  135.6717  153.4750 H   0  0  0  0  0  0  0  0  0  0  0  0  # atno 10763 bound_to 10752
  153.0751  135.4953  154.8383 H   0  0  0  0  0  0  0  0  0  0  0  0  # atno 10764 bound_to 10752
  154.7168  135.3108  154.9073 H   0  0  0  0  0  0  0  0  0  0  0  0  # atno 10765 bound_to 10752
  140.9534  134.1034  157.4039 H   0  0  0  0  0  0  0  0  0  0  0  0  # atno 11005 bound_to 11000
  145.0776  140.9199  143.4844 LP  0  0  0  0  0  0  0  0  0  0  0  0  # atno 17320 bound_to 7965
  145.0904  139.2894  143.5738 LP  0  0  0  0  0  0  0  0  0  0  0  0  # atno 17321 bound_to 7965
  140.4913  143.2346  151.8814 LP  0  0  0  0  0  0  0  0  0  0  0  0  # atno 17342 bound_to 10162
  139.4793  144.5162  151.8864 LP  0  0  0  0  0  0  0  0  0  0  0  0  # atno 17343 bound_to 10162
  156.1515  130.6313  151.0602 LP  0  0  0  0  0  0  0  0  0  0  0  0  # atno 17370 bound_to 10713
  157.6850  131.0827  150.7266 LP  0  0  0  0  0  0  0  0  0  0  0  0  # atno 17371 bound_to 10713
  139.8855  135.0072  156.6436 LP  0  0  0  0  0  0  0  0  0  0  0  0  # atno 17394 bound_to 11000
  140.7570  133.8849  155.8389 LP  0  0  0  0  0  0  0  0  0  0  0  0  # atno 17395 bound_to 11000

$$$$
