AV-unprocessed.smi:1507|AV-procd|sdf|6085|dock4
  -GOLD-   22720 6203D 1   1.00000     0.00000
 Structure written by MMmdl.
 33 34  0  0  0  0  0  0  0  0  4 V2000
  151.1012  136.4869  154.2667 N   0  5  0  0  0  0  0  0  0  0  0  0
  150.3561  136.3447  155.6973 S   0  0  0  0  0  0  0  0  0  0  0  0
  149.3622  135.2632  155.6308 O   0  0  0  0  0  0  0  0  0  0  0  0
  151.3302  136.2389  156.7982 O   0  0  0  0  0  0  0  0  0  0  0  0
  149.6038  137.7937  155.6426 N   0  5  0  0  0  0  0  0  0  0  0  0
  150.2018  138.9753  155.0233 C   0  0  0  0  0  0  0  0  0  0  0  0
  150.4441  140.1014  156.0194 C   0  0  0  0  0  0  0  0  0  0  0  0
  151.0846  139.8525  157.2541 C   0  0  0  0  0  0  0  0  0  0  0  0
  151.2613  140.9096  158.1709 C   0  0  0  0  0  0  0  0  0  0  0  0
  150.7982  142.2088  157.8504 C   0  0  0  0  0  0  0  0  0  0  0  0
  150.9379  143.3017  158.7337 N   0  0  0  0  0  0  0  0  0  0  0  0
  149.7196  143.9533  159.2113 C   0  0  0  0  0  0  0  0  0  0  0  0
  150.0403  144.9084  160.3727 C   0  0  0  0  0  0  0  0  0  0  0  0
  151.0408  145.8355  159.9664 O   0  0  0  0  0  0  0  0  0  0  0  0
  152.2581  145.1825  159.6241 C   0  0  0  0  0  0  0  0  0  0  0  0
  152.0241  144.2326  158.4369 C   0  0  0  0  0  0  0  0  0  0  0  0
  150.1902  142.3953  156.6525 N   0  3  0  0  0  0  0  0  0  0  0  0
  150.0001  141.4132  155.7446 C   0  0  0  0  0  0  0  0  0  0  0  0
  150.4096  136.3215  153.5261 H   0  0  0  0  0  0  0  0  0  0  0  0
  151.1636  138.7342  154.5693 H   0  0  0  0  0  0  0  0  0  0  0  0
  149.5914  139.3573  154.2043 H   0  0  0  0  0  0  0  0  0  0  0  0
  151.4265  138.8612  157.5188 H   0  0  0  0  0  0  0  0  0  0  0  0
  151.7289  140.6989  159.1203 H   0  0  0  0  0  0  0  0  0  0  0  0
  149.2599  144.5043  158.3897 H   0  0  0  0  0  0  0  0  0  0  0  0
  148.9985  143.2086  159.5506 H   0  0  0  0  0  0  0  0  0  0  0  0
  149.1450  145.4566  160.6658 H   0  0  0  0  0  0  0  0  0  0  0  0
  150.3759  144.3547  161.2511 H   0  0  0  0  0  0  0  0  0  0  0  0
  153.0019  145.9345  159.3610 H   0  0  0  0  0  0  0  0  0  0  0  0
  152.6473  144.6387  160.4863 H   0  0  0  0  0  0  0  0  0  0  0  0
  152.9550  143.7126  158.2174 H   0  0  0  0  0  0  0  0  0  0  0  0
  151.7617  144.8058  157.5467 H   0  0  0  0  0  0  0  0  0  0  0  0
  149.4828  141.7099  154.8422 H   0  0  0  0  0  0  0  0  0  0  0  0
  149.8464  143.3278  156.4244 H   0  0  0  0  0  0  0  0  0  0  0  0
  1  2  1  0  0  0  0
  1 19  1  0  0  0  0
  2  3  2  0  0  0  0
  2  4  2  0  0  0  0
  2  5  1  0  0  0  0
  5  6  1  0  0  0  0
  6  7  1  0  0  0  0
  6 20  1  0  0  0  0
  6 21  1  0  0  0  0
  7 18  1  0  0  0  0
  7  8  2  0  0  0  0
  8  9  1  0  0  0  0
  8 22  1  0  0  0  0
  9 10  2  0  0  0  0
  9 23  1  0  0  0  0
 10 11  1  0  0  0  0
 10 17  1  0  0  0  0
 11 16  1  0  0  0  0
 11 12  1  0  0  0  0
 12 13  1  0  0  0  0
 12 24  1  0  0  0  0
 12 25  1  0  0  0  0
 13 14  1  0  0  0  0
 13 26  1  0  0  0  0
 13 27  1  0  0  0  0
 14 15  1  0  0  0  0
 15 16  1  0  0  0  0
 15 28  1  0  0  0  0
 15 29  1  0  0  0  0
 16 30  1  0  0  0  0
 16 31  1  0  0  0  0
 17 18  2  0  0  0  0
 17 33  1  0  0  0  0
 18 32  1  0  0  0  0
M  CHG  1   1  -1
M  CHG  1   5  -1
M  CHG  1  17   1
M  END
> <s_m_source_file>
AV-unprocessed.smi

> <i_m_source_file_index>
1507

> <i_lp_mmshare_version>
43012

> <i_f3d_flags>
0

> <s_epik_input>
W05IMl1TKD1PKSg9TylbTkhdW0NIMl1jMVtjSF1bY0hdYyhuW2NIXTEpTjJbQ0gyXVtDSDJdT1tDSDJdW0NIMl0y

> <s_epik_cmdline>
J2VwaWtfcHl0aG9uJywgJy1waCcsICc3LjAnLCAnLXRuJywgJzgnLCAnLW1hJywgJzIwMCcsICctbWV0YWxfYmluZGluZycsICctaW1hZScsICc8aW5maWxlLm1hZT4nLCAnLW9tYWUnLCAnPG91dGZpbGUubWFlPic=

> <r_epik_Ionization_Penalty>
8.77184

> <r_epik_Ionization_Penalty_Charging>
8.77184

> <r_epik_Ionization_Penalty_Neutral>
3.18726e-12

> <r_epik_State_Penalty>
5.60098

> <r_epik_Charging_Adjusted_Penalty>
14.3728

> <i_epik_Tot_Q>
-1

> <i_epik_Tot_abs_Q>
3

> <r_epik_Metal_State_Penalty>
2.46454

> <b_epik_Metal_Only>
1

> <s_lp_Force_Field>
OPLS_2005

> <r_lp_Energy>
15.9769

> <b_lp_Chiralities_Consistent>
1

> <s_lp_Variant>
AV-unprocessed.smi:1507-6

> <Gold.Version>
5.8.1

> <Gold.Id.Protein>
6NUR|6NUR_protein|mol2

> <Gold.PLP.Fitness>
49.8467

> <Gold.PLP.PLP>
-34.8550

> <Gold.PLP.part.hbond>
-5.8578

> <Gold.PLP.part.metal>
0.0000

> <Gold.PLP.part.buried>
-4.4954

> <Gold.PLP.part.nonpolar>
-24.6547

> <Gold.PLP.part.repulsive>
0.6309

> <Gold.PLP.ligand.clash>
0.0000

> <Gold.PLP.ligand.torsion>
0.9647

> <Gold.PLP.Chemscore.Hbond>
5.1775

> <Gold.PLP.Chemscore.CHOScore>
0.0000

> <Gold.PLP.Chemscore.Metal>
0.0000

> <Gold.Chemscore.Hbonds>
donor molecule, donor type, donor heavy atom, donor atom, acceptor molecule, acceptor atom, score
      L1  H     1    19       P1  7948  0.20
      L1  H    17    33       P1  8028  2.00
      P1  H 10752 10763       L1     1  0.81

> <Gold.PLP.Chemscore.Internal.Correction>
1.3885

> <Gold.Rescore>
     Score         DG    S(hbond)    S(metal)    S(lipo)     H(rot)  DE(clash)    DE(int)     intcor
     16.04     -17.06       2.33        0.00      73.84       1.89       0.19       0.83       ----

> <Gold.Chemscore.Fitness>
16.0449

> <Gold.Chemscore.DG>
-17.0625

> <Gold.Chemscore.ZeroCoef>
-5.4800

> <Gold.Chemscore.Hbond>
2.3314

> <Gold.Chemscore.Metal>
0.0000

> <Gold.Chemscore.Lipo>
73.8439

> <Gold.Chemscore.Internal_Hbond>
0.0000

> <Gold.Chemscore.DEClash>
0.1874

> <Gold.Chemscore.DEInternal>
0.8302

> <Gold.Chemscore.Rot>
1.8922

> <Gold.Chemscore.Internal.Correction>
   9.000000E+99

> <Gold.Chemscore.Hbonds>
donor molecule, donor type, donor heavy atom, donor atom, acceptor molecule, acceptor atom, score
      L1  H    17    33       P1  8028  1.00
      P1  H 10752 10763       L1     1  0.37

> <Gold.Chemscore.Hbond.Weighted>
-7.7869

> <Gold.Chemscore.Metal.Weighted>
-0.0000

> <Gold.Chemscore.Lipo.Weighted>
-8.6397

> <Gold.Chemscore.Internal_Hbond.Weighted>
0.0000

> <Gold.Chemscore.DEClash.Weighted>
0.1874

> <Gold.Chemscore.DEInternal.Weighted>
0.8302

> <Gold.Chemscore.Rot.Weighted>
4.8441

> <Gold.Chemscore.Internal.Correction.Weighted>
   9.000000E+99

> <Gold.Protein.RotatedTorsions>
[ 6907 6896 6895 6894 ] final  -72.32 input  -60.11 | X-H torsion
[ 7974 7965 7964 7962 ] final -115.70 input  175.53 | X-H torsion
[ 8008 7997 7996 7995 ] final -122.46 input   59.86 | X-H torsion
[ 10167 10162 10161 10158 ] final -116.23 input  -65.29 | X-H torsion
[ 10718 10713 10712 10709 ] final   17.26 input   66.30 | X-H torsion
[ 10763 10752 10751 10750 ] final   11.91 input  -60.55 | X-H torsion
[ 11005 11000 10999 10996 ] final   34.19 input  -57.11 | X-H torsion

> <Gold.Protein.ActiveResidues>
 VAL166  LYS551  ARG553  GLY616  TRP617  ASP618  TYR619  PRO620  LYS621  CYS622 
 ASP623  PHE694  ASN695  SER759  ASP760  ASP761  ALA762  ILE779  LEU786  VAL792 
 PHE793  MET794  SER795  GLU796  ALA797  LYS798  CYS799  TRP800  GLU811  SER814 

> <Gold.Protein.RotatedAtoms>
  150.7175  134.5179  159.5639 H   0  0  0  0  0  0  0  0  0  0  0  0  # atno 6907 bound_to 6896
  152.2741  134.7898  160.0418 H   0  0  0  0  0  0  0  0  0  0  0  0  # atno 6908 bound_to 6896
  151.8567  133.3414  159.3727 H   0  0  0  0  0  0  0  0  0  0  0  0  # atno 6909 bound_to 6896
  145.1053  140.8578  143.3902 H   0  0  0  0  0  0  0  0  0  0  0  0  # atno 7974 bound_to 7965
  155.1646  140.0406  157.2850 H   0  0  0  0  0  0  0  0  0  0  0  0  # atno 8008 bound_to 7997
  154.6312  140.2524  155.7404 H   0  0  0  0  0  0  0  0  0  0  0  0  # atno 8009 bound_to 7997
  156.2485  140.2875  156.0665 H   0  0  0  0  0  0  0  0  0  0  0  0  # atno 8010 bound_to 7997
  140.0815  143.4783  152.1923 H   0  0  0  0  0  0  0  0  0  0  0  0  # atno 10167 bound_to 10162
  157.0796  130.6382  149.5823 H   0  0  0  0  0  0  0  0  0  0  0  0  # atno 10718 bound_to 10713
  153.1877  135.6837  153.8394 H   0  0  0  0  0  0  0  0  0  0  0  0  # atno 10763 bound_to 10752
  153.7704  135.3197  155.3352 H   0  0  0  0  0  0  0  0  0  0  0  0  # atno 10764 bound_to 10752
  154.8098  135.4724  154.0584 H   0  0  0  0  0  0  0  0  0  0  0  0  # atno 10765 bound_to 10752
  140.2554  134.3255  155.7876 H   0  0  0  0  0  0  0  0  0  0  0  0  # atno 11005 bound_to 11000
  145.0909  139.2891  143.5735 LP  0  0  0  0  0  0  0  0  0  0  0  0  # atno 17320 bound_to 7965
  146.3528  140.0445  142.8640 LP  0  0  0  0  0  0  0  0  0  0  0  0  # atno 17321 bound_to 7965
  139.5777  144.7495  151.3722 LP  0  0  0  0  0  0  0  0  0  0  0  0  # atno 17342 bound_to 10162
  140.7075  143.7476  150.7508 LP  0  0  0  0  0  0  0  0  0  0  0  0  # atno 17343 bound_to 10162
  155.9927  130.4986  150.7352 LP  0  0  0  0  0  0  0  0  0  0  0  0  # atno 17370 bound_to 10713
  157.4811  131.0902  151.0535 LP  0  0  0  0  0  0  0  0  0  0  0  0  # atno 17371 bound_to 10713
  141.2197  133.7378  156.9102 LP  0  0  0  0  0  0  0  0  0  0  0  0  # atno 17394 bound_to 11000
  140.1517  134.9225  157.2601 LP  0  0  0  0  0  0  0  0  0  0  0  0  # atno 17395 bound_to 11000

$$$$
