AV-unprocessed.smi:686|AV-procd|sdf|3348|dock9
  -GOLD-   22720 0323D 1   1.00000     0.00000
 Structure written by MMmdl.
 40 41  0  0  0  0  0  0  0  0  3 V2000
  147.9794  140.8206  153.7995 C   0  0  0  0  0  0  0  0  0  0  0  0
  147.1282  139.5345  153.8524 C   0  0  1  0  0  0  0  0  0  0  0  0
  146.8051  138.9155  152.4817 C   0  0  0  0  0  0  0  0  0  0  0  0
  146.7181  137.4461  152.6848 N   0  3  2  0  0  0  0  0  0  0  0  0
  145.5895  136.7689  151.9863 C   0  0  0  0  0  0  0  0  0  0  0  0
  144.2259  137.1676  152.5827 C   0  0  0  0  0  0  0  0  0  0  0  0
  145.7461  135.2377  152.0420 C   0  0  0  0  0  0  0  0  0  0  0  0
  146.8156  137.2051  154.1439 C   0  0  0  0  0  0  0  0  0  0  0  0
  147.6587  138.3604  154.6940 C   0  0  1  0  0  0  0  0  0  0  0  0
  149.0755  138.1138  154.4264 N   0  5  0  0  0  0  0  0  0  0  0  0
  150.2419  138.7145  155.3890 S   0  0  0  0  0  0  0  0  0  0  0  0
  150.9342  139.8856  154.8244 O   0  0  0  0  0  0  0  0  0  0  0  0
  149.7627  138.8404  156.7737 O   0  0  0  0  0  0  0  0  0  0  0  0
  151.4745  137.3345  155.4164 C   0  0  0  0  0  0  0  0  0  0  0  0
  150.8554  136.1060  156.0217 C   0  0  0  0  0  0  0  0  0  0  0  0
  150.5361  134.8719  155.3903 C   0  0  0  0  0  0  0  0  0  0  0  0
  150.0054  134.1238  156.4010 C   0  0  0  0  0  0  0  0  0  0  0  0
  150.0039  134.8263  157.5616 O   0  0  0  0  0  0  0  0  0  0  0  0
  150.5514  136.0894  157.3103 N   0  0  0  0  0  0  0  0  0  0  0  0
  148.9448  140.6606  153.3165 H   0  0  0  0  0  0  0  0  0  0  0  0
  148.1662  141.2249  154.7958 H   0  0  0  0  0  0  0  0  0  0  0  0
  147.4628  141.5938  153.2305 H   0  0  0  0  0  0  0  0  0  0  0  0
  146.1726  139.8150  154.2991 H   0  0  0  0  0  0  0  0  0  0  0  0
  145.8757  139.3362  152.0950 H   0  0  0  0  0  0  0  0  0  0  0  0
  147.5880  139.1193  151.7490 H   0  0  0  0  0  0  0  0  0  0  0  0
  145.6037  137.0799  150.9405 H   0  0  0  0  0  0  0  0  0  0  0  0
  143.4140  136.6243  152.0980 H   0  0  0  0  0  0  0  0  0  0  0  0
  144.0154  138.2290  152.4505 H   0  0  0  0  0  0  0  0  0  0  0  0
  144.1797  136.9466  153.6496 H   0  0  0  0  0  0  0  0  0  0  0  0
  144.9114  134.7418  151.5457 H   0  0  0  0  0  0  0  0  0  0  0  0
  145.7757  134.8812  153.0722 H   0  0  0  0  0  0  0  0  0  0  0  0
  146.6558  134.8978  151.5471 H   0  0  0  0  0  0  0  0  0  0  0  0
  145.8184  137.2451  154.5855 H   0  0  0  0  0  0  0  0  0  0  0  0
  147.2348  136.2230  154.3648 H   0  0  0  0  0  0  0  0  0  0  0  0
  147.4607  138.5260  155.7533 H   0  0  0  0  0  0  0  0  0  0  0  0
  151.7954  137.1432  154.3927 H   0  0  0  0  0  0  0  0  0  0  0  0
  152.3489  137.6523  155.9840 H   0  0  0  0  0  0  0  0  0  0  0  0
  150.6682  134.5863  154.3573 H   0  0  0  0  0  0  0  0  0  0  0  0
  149.6053  133.1222  156.4514 H   0  0  0  0  0  0  0  0  0  0  0  0
  147.5735  137.0695  152.3009 H   0  0  0  0  0  0  0  0  0  0  0  0
  1  2  1  0  0  0  0
  1 20  1  0  0  0  0
  1 21  1  0  0  0  0
  1 22  1  0  0  0  0
  2  9  1  0  0  0  0
  2  3  1  0  0  0  0
  2 23  1  0  0  0  0
  3  4  1  0  0  0  0
  3 24  1  0  0  0  0
  3 25  1  0  0  0  0
  4  5  1  0  0  0  0
  4  8  1  0  0  0  0
  4 40  1  0  0  0  0
  5  6  1  0  0  0  0
  5  7  1  0  0  0  0
  5 26  1  0  0  0  0
  6 27  1  0  0  0  0
  6 28  1  0  0  0  0
  6 29  1  0  0  0  0
  7 30  1  0  0  0  0
  7 31  1  0  0  0  0
  7 32  1  0  0  0  0
  8  9  1  0  0  0  0
  8 33  1  0  0  0  0
  8 34  1  0  0  0  0
  9 10  1  0  0  0  0
  9 35  1  0  0  0  0
 10 11  1  0  0  0  0
 11 12  2  0  0  0  0
 11 13  2  0  0  0  0
 11 14  1  0  0  0  0
 14 15  1  0  0  0  0
 14 36  1  0  0  0  0
 14 37  1  0  0  0  0
 15 19  2  0  0  0  0
 15 16  1  0  0  0  0
 16 17  2  0  0  0  0
 16 38  1  0  0  0  0
 17 18  1  0  0  0  0
 17 39  1  0  0  0  0
 18 19  1  0  0  0  0
M  CHG  1   4   1
M  CHG  1  10  -1
M  END
> <s_m_source_file>
AV-unprocessed.smi

> <i_m_source_file_index>
686

> <i_lp_mmshare_version>
43012

> <i_f3d_flags>
0

> <s_epik_input>
W0NIM11bQ0BASF0xW0NIMl1OKFtDSF0oW0NIM10pW0NIM10pW0NIMl1bQ0BIXTFbTkhdUyg9TykoPU8pW0NIMl1jMltjSF1bY0hdb24y

> <s_epik_cmdline>
J2VwaWtfcHl0aG9uJywgJy1waCcsICc3LjAnLCAnLXRuJywgJzgnLCAnLW1hJywgJzIwMCcsICctbWV0YWxfYmluZGluZycsICctaW1hZScsICc8aW5maWxlLm1hZT4nLCAnLW9tYWUnLCAnPG91dGZpbGUubWFlPic=

> <r_epik_Ionization_Penalty>
3.62478

> <r_epik_Ionization_Penalty_Charging>
3.62478

> <r_epik_Ionization_Penalty_Neutral>
2.03645e-10

> <r_epik_State_Penalty>
3.6247

> <r_epik_Charging_Adjusted_Penalty>
7.24949

> <i_epik_Tot_Q>
0

> <i_epik_Tot_abs_Q>
2

> <r_epik_Metal_State_Penalty>
0.530836

> <b_epik_Metal_Only>
1

> <s_lp_Force_Field>
OPLS_2005

> <r_lp_Energy>
18.5921

> <b_lp_Chiralities_Consistent>
1

> <s_lp_Variant>
AV-unprocessed.smi:686-12

> <Gold.Version>
5.8.1

> <Gold.Id.Protein>
6NUR|6NUR_protein|mol2

> <Gold.PLP.Fitness>
35.6069

> <Gold.PLP.PLP>
-25.2688

> <Gold.PLP.part.hbond>
-3.0000

> <Gold.PLP.part.metal>
0.0000

> <Gold.PLP.part.buried>
-3.4887

> <Gold.PLP.part.nonpolar>
-19.9016

> <Gold.PLP.part.repulsive>
0.3108

> <Gold.PLP.ligand.clash>
0.0000

> <Gold.PLP.ligand.torsion>
1.0800

> <Gold.PLP.Chemscore.Hbond>
3.8000

> <Gold.PLP.Chemscore.CHOScore>
0.0000

> <Gold.PLP.Chemscore.Metal>
0.0000

> <Gold.Chemscore.Hbonds>
donor molecule, donor type, donor heavy atom, donor atom, acceptor molecule, acceptor atom, score
      L1  H     4    40       P1  7948  2.00
      P1  H  6896  6908       L1    18  0.82
      P1  H  7989  7998       L1    12  1.00

> <Gold.PLP.Chemscore.Internal.Correction>
1.0980

> <Gold.Rescore>
     Score         DG    S(hbond)    S(metal)    S(lipo)     H(rot)  DE(clash)    DE(int)     intcor
     14.68     -17.00       2.68        0.00      57.43       1.61       0.02       2.30       ----

> <Gold.Chemscore.Fitness>
14.6801

> <Gold.Chemscore.DG>
-17.0044

> <Gold.Chemscore.ZeroCoef>
-5.4800

> <Gold.Chemscore.Hbond>
2.6763

> <Gold.Chemscore.Metal>
0.0000

> <Gold.Chemscore.Lipo>
57.4333

> <Gold.Chemscore.Internal_Hbond>
0.0000

> <Gold.Chemscore.DEClash>
0.0208

> <Gold.Chemscore.DEInternal>
2.3035

> <Gold.Chemscore.Rot>
1.6149

> <Gold.Chemscore.Internal.Correction>
   9.000000E+99

> <Gold.Chemscore.Hbonds>
donor molecule, donor type, donor heavy atom, donor atom, acceptor molecule, acceptor atom, score
      L1  H     4    40       P1  7948  1.00
      P1  H  6896  6908       L1    18  0.54
      P1  H  7989  7998       L1    12  1.00

> <Gold.Chemscore.Hbond.Weighted>
-8.9388

> <Gold.Chemscore.Metal.Weighted>
-0.0000

> <Gold.Chemscore.Lipo.Weighted>
-6.7197

> <Gold.Chemscore.Internal_Hbond.Weighted>
0.0000

> <Gold.Chemscore.DEClash.Weighted>
0.0208

> <Gold.Chemscore.DEInternal.Weighted>
2.3035

> <Gold.Chemscore.Rot.Weighted>
4.1341

> <Gold.Chemscore.Internal.Correction.Weighted>
   9.000000E+99

> <Gold.Protein.RotatedTorsions>
[ 6907 6896 6895 6894 ] final  142.99 input  -60.11 | X-H torsion
[ 7974 7965 7964 7962 ] final   66.77 input  175.53 | X-H torsion
[ 8008 7997 7996 7995 ] final  171.75 input   59.86 | X-H torsion
[ 10167 10162 10161 10158 ] final   10.83 input  -65.29 | X-H torsion
[ 10718 10713 10712 10709 ] final  114.50 input   66.30 | X-H torsion
[ 10763 10752 10751 10750 ] final -139.79 input  -60.55 | X-H torsion
[ 11005 11000 10999 10996 ] final  100.77 input  -57.11 | X-H torsion

> <Gold.Protein.ActiveResidues>
 VAL166  LYS551  ARG553  GLY616  TRP617  ASP618  TYR619  PRO620  LYS621  CYS622 
 ASP623  PHE694  ASN695  SER759  ASP760  ASP761  ALA762  ILE779  LEU786  VAL792 
 PHE793  MET794  SER795  GLU796  ALA797  LYS798  CYS799  TRP800  GLU811  SER814 

> <Gold.Protein.RotatedAtoms>
  152.2119  133.4917  159.5114 H   0  0  0  0  0  0  0  0  0  0  0  0  # atno 6907 bound_to 6896
  150.6992  134.1456  159.4130 H   0  0  0  0  0  0  0  0  0  0  0  0  # atno 6908 bound_to 6896
  151.9376  135.0228  160.0584 H   0  0  0  0  0  0  0  0  0  0  0  0  # atno 6909 bound_to 6896
  145.8226  139.3093  143.1034 H   0  0  0  0  0  0  0  0  0  0  0  0  # atno 7974 bound_to 7965
  156.1241  140.1504  156.9161 H   0  0  0  0  0  0  0  0  0  0  0  0  # atno 8008 bound_to 7997
  154.4858  140.0865  156.7524 H   0  0  0  0  0  0  0  0  0  0  0  0  # atno 8009 bound_to 7997
  155.4374  140.3429  155.4288 H   0  0  0  0  0  0  0  0  0  0  0  0  # atno 8010 bound_to 7997
  140.6170  143.8287  150.7130 H   0  0  0  0  0  0  0  0  0  0  0  0  # atno 10167 bound_to 10162
  157.6277  131.0999  150.7195 H   0  0  0  0  0  0  0  0  0  0  0  0  # atno 10718 bound_to 10713
  154.8598  135.3572  154.5603 H   0  0  0  0  0  0  0  0  0  0  0  0  # atno 10763 bound_to 10752
  153.6219  135.7005  153.5312 H   0  0  0  0  0  0  0  0  0  0  0  0  # atno 10764 bound_to 10752
  153.3122  135.4175  155.1305 H   0  0  0  0  0  0  0  0  0  0  0  0  # atno 10765 bound_to 10752
  139.8771  134.9154  156.4806 H   0  0  0  0  0  0  0  0  0  0  0  0  # atno 11005 bound_to 11000
  145.9658  140.8799  143.0187 LP  0  0  0  0  0  0  0  0  0  0  0  0  # atno 17320 bound_to 7965
  144.6746  140.1876  143.7400 LP  0  0  0  0  0  0  0  0  0  0  0  0  # atno 17321 bound_to 7965
  140.1868  143.4069  152.1892 LP  0  0  0  0  0  0  0  0  0  0  0  0  # atno 17342 bound_to 10162
  139.5406  144.7253  151.4745 LP  0  0  0  0  0  0  0  0  0  0  0  0  # atno 17343 bound_to 10162
  156.7540  130.4777  149.5450 LP  0  0  0  0  0  0  0  0  0  0  0  0  # atno 17370 bound_to 10713
  156.1460  130.6277  151.0532 LP  0  0  0  0  0  0  0  0  0  0  0  0  # atno 17371 bound_to 10713
  140.8730  133.7974  155.9384 LP  0  0  0  0  0  0  0  0  0  0  0  0  # atno 17394 bound_to 11000
  140.8933  134.2468  157.5082 LP  0  0  0  0  0  0  0  0  0  0  0  0  # atno 17395 bound_to 11000

$$$$
