AV-unprocessed.smi:671|AV-procd|sdf|3285|dock1
  -GOLD-   22720 0243D 1   1.00000     0.00000
 Structure written by MMmdl.
 50 51  0  0  0  0  0  0  0  0  2 V2000
  150.8532  141.7451  156.1247 C   0  0  0  0  0  0  0  0  0  0  0  0
  149.6869  141.4037  155.2584 C   0  0  0  0  0  0  0  0  0  0  0  0
  148.6094  142.2111  155.0693 N   0  3  0  0  0  0  0  0  0  0  0  0
  147.7306  141.6257  154.2438 N   0  0  0  0  0  0  0  0  0  0  0  0
  146.4956  142.3372  153.9141 C   0  0  0  0  0  0  0  0  0  0  0  0
  148.1900  140.4015  153.8560 C   0  0  0  0  0  0  0  0  0  0  0  0
  147.4568  139.4792  152.9362 C   0  0  0  0  0  0  0  0  0  0  0  0
  149.4306  140.2595  154.4938 C   0  0  0  0  0  0  0  0  0  0  0  0
  150.3528  139.0765  154.3922 C   0  0  0  0  0  0  0  0  0  0  0  0
  150.0149  137.9535  155.3998 C   0  0  2  0  0  0  0  0  0  0  0  0
  151.2456  137.4763  156.1865 C   0  0  0  0  0  0  0  0  0  0  0  0
  149.4221  136.8062  154.7075 N   0  0  0  0  0  0  0  0  0  0  0  0
  148.9213  135.6780  155.2449 C   0  0  0  0  0  0  0  0  0  0  0  0
  148.9164  135.4837  156.4586 O   0  0  0  0  0  0  0  0  0  0  0  0
  148.4426  134.7995  154.3476 N   0  0  0  0  0  0  0  0  0  0  0  0
  147.8907  133.4766  154.6369 C   0  0  2  0  0  0  0  0  0  0  0  0
  148.8511  132.7068  155.5645 C   0  0  0  0  0  0  0  0  0  0  0  0
  149.4804  131.5843  154.7264 C   0  0  0  0  0  0  0  0  0  0  0  0
  149.1089  131.8851  153.2746 C   0  0  0  0  0  0  0  0  0  0  0  0
  147.7633  132.6049  153.3710 C   0  0  2  0  0  0  0  0  0  0  0  0
  147.3467  133.3258  152.0776 C   0  0  0  0  0  0  0  0  0  0  0  0
  151.7879  141.5258  155.6090 H   0  0  0  0  0  0  0  0  0  0  0  0
  150.8190  141.1618  157.0447 H   0  0  0  0  0  0  0  0  0  0  0  0
  150.8438  142.8040  156.3839 H   0  0  0  0  0  0  0  0  0  0  0  0
  146.0666  141.9254  153.0004 H   0  0  0  0  0  0  0  0  0  0  0  0
  146.7114  143.3957  153.7624 H   0  0  0  0  0  0  0  0  0  0  0  0
  145.7868  142.2198  154.7343 H   0  0  0  0  0  0  0  0  0  0  0  0
  147.9284  138.4981  152.9020 H   0  0  0  0  0  0  0  0  0  0  0  0
  147.4452  139.8900  151.9266 H   0  0  0  0  0  0  0  0  0  0  0  0
  146.4274  139.3509  153.2720 H   0  0  0  0  0  0  0  0  0  0  0  0
  150.3040  138.6858  153.3754 H   0  0  0  0  0  0  0  0  0  0  0  0
  151.3907  139.3826  154.5207 H   0  0  0  0  0  0  0  0  0  0  0  0
  149.2942  138.3284  156.1283 H   0  0  0  0  0  0  0  0  0  0  0  0
  151.6718  138.2801  156.7868 H   0  0  0  0  0  0  0  0  0  0  0  0
  152.0258  137.1079  155.5197 H   0  0  0  0  0  0  0  0  0  0  0  0
  150.9839  136.6681  156.8703 H   0  0  0  0  0  0  0  0  0  0  0  0
  149.3896  136.8729  153.7001 H   0  0  0  0  0  0  0  0  0  0  0  0
  148.4816  135.0625  153.3743 H   0  0  0  0  0  0  0  0  0  0  0  0
  146.9160  133.5771  155.1179 H   0  0  0  0  0  0  0  0  0  0  0  0
  149.6201  133.3584  155.9823 H   0  0  0  0  0  0  0  0  0  0  0  0
  148.3104  132.2809  156.4103 H   0  0  0  0  0  0  0  0  0  0  0  0
  150.5596  131.5165  154.8671 H   0  0  0  0  0  0  0  0  0  0  0  0
  149.0514  130.6259  155.0218 H   0  0  0  0  0  0  0  0  0  0  0  0
  149.8554  132.5463  152.8326 H   0  0  0  0  0  0  0  0  0  0  0  0
  149.0602  130.9839  152.6627 H   0  0  0  0  0  0  0  0  0  0  0  0
  147.0066  131.8468  153.5809 H   0  0  0  0  0  0  0  0  0  0  0  0
  148.0919  134.0552  151.7590 H   0  0  0  0  0  0  0  0  0  0  0  0
  146.3996  133.8493  152.2110 H   0  0  0  0  0  0  0  0  0  0  0  0
  147.2178  132.6132  151.2627 H   0  0  0  0  0  0  0  0  0  0  0  0
  148.4301  143.1275  155.4601 H   0  0  0  0  0  0  0  0  0  0  0  0
  1  2  1  0  0  0  0
  1 22  1  0  0  0  0
  1 23  1  0  0  0  0
  1 24  1  0  0  0  0
  2  8  1  0  0  0  0
  2  3  2  0  0  0  0
  3  4  1  0  0  0  0
  3 50  1  0  0  0  0
  4  5  1  0  0  0  0
  4  6  1  0  0  0  0
  5 25  1  0  0  0  0
  5 26  1  0  0  0  0
  5 27  1  0  0  0  0
  6  7  1  0  0  0  0
  6  8  2  0  0  0  0
  7 28  1  0  0  0  0
  7 29  1  0  0  0  0
  7 30  1  0  0  0  0
  8  9  1  0  0  0  0
  9 10  1  0  0  0  0
  9 31  1  0  0  0  0
  9 32  1  0  0  0  0
 10 11  1  0  0  0  0
 10 12  1  0  0  0  0
 10 33  1  0  0  0  0
 11 34  1  0  0  0  0
 11 35  1  0  0  0  0
 11 36  1  0  0  0  0
 12 13  1  0  0  0  0
 12 37  1  0  0  0  0
 13 14  2  0  0  0  0
 13 15  1  0  0  0  0
 15 16  1  0  0  0  0
 15 38  1  0  0  0  0
 16 20  1  0  0  0  0
 16 17  1  0  0  0  0
 16 39  1  0  0  0  0
 17 18  1  0  0  0  0
 17 40  1  0  0  0  0
 17 41  1  0  0  0  0
 18 19  1  0  0  0  0
 18 42  1  0  0  0  0
 18 43  1  0  0  0  0
 19 20  1  0  0  0  0
 19 44  1  0  0  0  0
 19 45  1  0  0  0  0
 20 21  1  0  0  0  0
 20 46  1  0  0  0  0
 21 47  1  0  0  0  0
 21 48  1  0  0  0  0
 21 49  1  0  0  0  0
M  CHG  1   3   1
M  END
> <s_m_source_file>
AV-unprocessed.smi

> <i_m_source_file_index>
671

> <i_lp_mmshare_version>
43012

> <i_f3d_flags>
0

> <s_epik_input>
W0NIM11jMW5uKFtDSDNdKWMoW0NIM10pYzFbQ0gyXVtDQEhdKFtDSDNdKVtOSF1DKD1PKVtOSF1bQ0BASF0yW0NIMl1bQ0gyXVtDSDJdW0NASF0yW0NIM10=

> <s_epik_cmdline>
J2VwaWtfcHl0aG9uJywgJy1waCcsICc3LjAnLCAnLXRuJywgJzgnLCAnLW1hJywgJzIwMCcsICctbWV0YWxfYmluZGluZycsICctaW1hZScsICc8aW5maWxlLm1hZT4nLCAnLW9tYWUnLCAnPG91dGZpbGUubWFlPic=

> <r_lp_tautomer_probability>
1

> <r_epik_Ionization_Penalty>
2.28705

> <r_epik_Ionization_Penalty_Charging>
2.28698

> <r_epik_Ionization_Penalty_Neutral>
6.23157e-05

> <r_epik_State_Penalty>
2.43671

> <r_epik_Charging_Adjusted_Penalty>
4.72369

> <i_epik_Tot_Q>
1

> <i_epik_Tot_abs_Q>
1

> <r_epik_Metal_State_Penalty>
2.44911

> <b_epik_Metal_Only>
0

> <s_lp_Force_Field>
OPLS_2005

> <r_lp_Energy>
35.629

> <b_lp_Chiralities_Consistent>
1

> <s_lp_Variant>
AV-unprocessed.smi:671-13

> <Gold.Version>
5.8.1

> <Gold.Id.Protein>
6NUR|6NUR_protein|mol2

> <Gold.PLP.Fitness>
46.1303

> <Gold.PLP.PLP>
-36.4834

> <Gold.PLP.part.hbond>
-2.9038

> <Gold.PLP.part.metal>
0.0000

> <Gold.PLP.part.buried>
-1.9159

> <Gold.PLP.part.nonpolar>
-31.8814

> <Gold.PLP.part.repulsive>
0.2028

> <Gold.PLP.ligand.clash>
0.0000

> <Gold.PLP.ligand.torsion>
1.1944

> <Gold.PLP.Chemscore.Hbond>
4.0000

> <Gold.PLP.Chemscore.CHOScore>
0.0000

> <Gold.PLP.Chemscore.Metal>
0.0000

> <Gold.Chemscore.Hbonds>
donor molecule, donor type, donor heavy atom, donor atom, acceptor molecule, acceptor atom, score
      L1  H     3    50       P1  8028  2.00
      L1  H    12    37       P1  7948  1.00
      L1  H    15    38       P1  7948  1.00

> <Gold.PLP.Chemscore.Internal.Correction>
0.0356

> <Gold.Rescore>
     Score         DG    S(hbond)    S(metal)    S(lipo)     H(rot)  DE(clash)    DE(int)     intcor
     19.02     -21.55       2.85        0.00      89.05       1.51       0.18       2.35       ----

> <Gold.Chemscore.Fitness>
19.0216

> <Gold.Chemscore.DG>
-21.5536

> <Gold.Chemscore.ZeroCoef>
-5.4800

> <Gold.Chemscore.Hbond>
2.8471

> <Gold.Chemscore.Metal>
0.0000

> <Gold.Chemscore.Lipo>
89.0503

> <Gold.Chemscore.Internal_Hbond>
0.0000

> <Gold.Chemscore.DEClash>
0.1779

> <Gold.Chemscore.DEInternal>
2.3541

> <Gold.Chemscore.Rot>
1.5057

> <Gold.Chemscore.Internal.Correction>
   9.000000E+99

> <Gold.Chemscore.Hbonds>
donor molecule, donor type, donor heavy atom, donor atom, acceptor molecule, acceptor atom, score
      L1  H     3    50       P1  8028  0.94
      L1  H    12    37       P1  7948  0.91
      L1  H    15    38       P1  7948  0.83

> <Gold.Chemscore.Hbond.Weighted>
-9.5094

> <Gold.Chemscore.Metal.Weighted>
-0.0000

> <Gold.Chemscore.Lipo.Weighted>
-10.4189

> <Gold.Chemscore.Internal_Hbond.Weighted>
0.0000

> <Gold.Chemscore.DEClash.Weighted>
0.1779

> <Gold.Chemscore.DEInternal.Weighted>
2.3541

> <Gold.Chemscore.Rot.Weighted>
3.8547

> <Gold.Chemscore.Internal.Correction.Weighted>
   9.000000E+99

> <Gold.Protein.RotatedTorsions>
[ 6907 6896 6895 6894 ] final  155.65 input  -60.11 | X-H torsion
[ 7974 7965 7964 7962 ] final  144.49 input  175.53 | X-H torsion
[ 8008 7997 7996 7995 ] final  -58.98 input   59.86 | X-H torsion
[ 10167 10162 10161 10158 ] final -171.03 input  -65.29 | X-H torsion
[ 10718 10713 10712 10709 ] final   34.89 input   66.30 | X-H torsion
[ 10763 10752 10751 10750 ] final   53.43 input  -60.55 | X-H torsion
[ 11005 11000 10999 10996 ] final  108.56 input  -57.11 | X-H torsion

> <Gold.Protein.ActiveResidues>
 VAL166  LYS551  ARG553  GLY616  TRP617  ASP618  TYR619  PRO620  LYS621  CYS622 
 ASP623  PHE694  ASN695  SER759  ASP760  ASP761  ALA762  ILE779  LEU786  VAL792 
 PHE793  MET794  SER795  GLU796  ALA797  LYS798  CYS799  TRP800  GLU811  SER814 

> <Gold.Protein.RotatedAtoms>
  152.0410  133.3977  159.4336 H   0  0  0  0  0  0  0  0  0  0  0  0  # atno 6907 bound_to 6896
  150.6875  134.3414  159.4879 H   0  0  0  0  0  0  0  0  0  0  0  0  # atno 6908 bound_to 6896
  152.1213  134.9203  160.0613 H   0  0  0  0  0  0  0  0  0  0  0  0  # atno 6909 bound_to 6896
  144.8831  139.5669  143.5833 H   0  0  0  0  0  0  0  0  0  0  0  0  # atno 7974 bound_to 7965
  154.4332  140.1072  156.6042 H   0  0  0  0  0  0  0  0  0  0  0  0  # atno 8008 bound_to 7997
  155.5878  140.3491  155.4539 H   0  0  0  0  0  0  0  0  0  0  0  0  # atno 8009 bound_to 7997
  156.0269  140.1252  157.0288 H   0  0  0  0  0  0  0  0  0  0  0  0  # atno 8010 bound_to 7997
  139.5826  144.1388  152.1535 H   0  0  0  0  0  0  0  0  0  0  0  0  # atno 10167 bound_to 10162
  157.3160  130.7423  149.6754 H   0  0  0  0  0  0  0  0  0  0  0  0  # atno 10718 bound_to 10713
  152.9795  135.5779  154.4741 H   0  0  0  0  0  0  0  0  0  0  0  0  # atno 10763 bound_to 10752
  154.4299  135.2773  155.1921 H   0  0  0  0  0  0  0  0  0  0  0  0  # atno 10764 bound_to 10752
  154.3634  135.6183  153.5756 H   0  0  0  0  0  0  0  0  0  0  0  0  # atno 10765 bound_to 10752
  139.8846  134.9434  156.5991 H   0  0  0  0  0  0  0  0  0  0  0  0  # atno 11005 bound_to 11000
  146.3007  139.7418  142.9093 LP  0  0  0  0  0  0  0  0  0  0  0  0  # atno 17320 bound_to 7965
  145.3918  141.0373  143.3120 LP  0  0  0  0  0  0  0  0  0  0  0  0  # atno 17321 bound_to 7965
  140.0945  144.5592  150.7031 LP  0  0  0  0  0  0  0  0  0  0  0  0  # atno 17342 bound_to 10162
  140.7103  143.2499  151.4602 LP  0  0  0  0  0  0  0  0  0  0  0  0  # atno 17343 bound_to 10162
  155.9681  130.4237  150.4576 LP  0  0  0  0  0  0  0  0  0  0  0  0  # atno 17370 bound_to 10713
  157.2582  131.0561  151.2336 LP  0  0  0  0  0  0  0  0  0  0  0  0  # atno 17371 bound_to 10713
  140.7897  133.8592  155.8636 LP  0  0  0  0  0  0  0  0  0  0  0  0  # atno 17394 bound_to 11000
  140.9688  134.1559  157.4594 LP  0  0  0  0  0  0  0  0  0  0  0  0  # atno 17395 bound_to 11000

$$$$
