AV-unprocessed.smi:1880|AV-procd|sdf|7636|dock6
  -GOLD-   22720 9363D 1   1.00000     0.00000
 Structure written by MMmdl.
 36 38  0  0  0  0  0  0  0  0  1 V2000
  148.7535  142.2546  157.2720 O   0  0  0  0  0  0  0  0  0  0  0  0
  149.2763  141.4950  156.1995 C   0  0  1  0  0  0  0  0  0  0  0  0
  148.4488  141.8000  154.9414 C   0  0  0  0  0  0  0  0  0  0  0  0
  149.0842  141.2146  153.8171 O   0  0  0  0  0  0  0  0  0  0  0  0
  148.6137  139.9061  153.5439 C   0  0  0  0  0  0  0  0  0  0  0  0
  149.5515  138.9661  154.2218 C   0  0  0  0  0  0  0  0  0  0  0  0
  149.3744  137.8217  154.9492 C   0  0  0  0  0  0  0  0  0  0  0  0
  150.6730  137.3821  155.3276 C   0  0  0  0  0  0  0  0  0  0  0  0
  151.5460  138.2918  154.8023 C   0  0  0  0  0  0  0  0  0  0  0  0
  150.8778  139.2646  154.1243 O   0  0  0  0  0  0  0  0  0  0  0  0
  150.7637  141.8504  156.0092 C   0  0  0  0  0  0  0  0  0  0  0  0
  151.6050  141.3109  157.0631 N   0  0  0  0  0  0  0  0  0  0  0  0
  152.2875  140.1502  157.0383 C   0  0  0  0  0  0  0  0  0  0  0  0
  153.0034  139.8406  158.1154 N   0  0  0  0  0  0  0  0  0  0  0  0
  152.7563  140.9273  158.9368 C   0  0  0  0  0  0  0  0  0  0  0  0
  153.2233  141.2174  160.2387 C   0  0  0  0  0  0  0  0  0  0  0  0
  152.8310  142.4049  160.8909 C   0  0  0  0  0  0  0  0  0  0  0  0
  153.2878  142.6677  162.1383 F   0  0  0  0  0  0  0  0  0  0  0  0
  151.9671  143.3190  160.2519 C   0  0  0  0  0  0  0  0  0  0  0  0
  151.5951  144.4565  160.8854 F   0  0  0  0  0  0  0  0  0  0  0  0
  151.4897  143.0518  158.9544 C   0  0  0  0  0  0  0  0  0  0  0  0
  151.8841  141.8660  158.3075 C   0  0  0  0  0  0  0  0  0  0  0  0
  148.5535  143.1216  156.9530 H   0  0  0  0  0  0  0  0  0  0  0  0
  149.1937  140.4348  156.4432 H   0  0  0  0  0  0  0  0  0  0  0  0
  147.4213  141.4473  155.0487 H   0  0  0  0  0  0  0  0  0  0  0  0
  148.4046  142.8790  154.7844 H   0  0  0  0  0  0  0  0  0  0  0  0
  147.5998  139.7735  153.9243 H   0  0  0  0  0  0  0  0  0  0  0  0
  148.5994  139.7171  152.4697 H   0  0  0  0  0  0  0  0  0  0  0  0
  148.4268  137.3578  155.1791 H   0  0  0  0  0  0  0  0  0  0  0  0
  150.9352  136.5108  155.9095 H   0  0  0  0  0  0  0  0  0  0  0  0
  152.6212  138.3929  154.8142 H   0  0  0  0  0  0  0  0  0  0  0  0
  151.1247  141.4601  155.0568 H   0  0  0  0  0  0  0  0  0  0  0  0
  150.8982  142.9323  155.9716 H   0  0  0  0  0  0  0  0  0  0  0  0
  152.2560  139.4949  156.1800 H   0  0  0  0  0  0  0  0  0  0  0  0
  153.8846  140.5247  160.7376 H   0  0  0  0  0  0  0  0  0  0  0  0
  150.8263  143.7482  158.4637 H   0  0  0  0  0  0  0  0  0  0  0  0
  1  2  1  0  0  0  0
  1 23  1  0  0  0  0
  2  3  1  0  0  0  0
  2 11  1  0  0  0  0
  2 24  1  0  0  0  0
  3  4  1  0  0  0  0
  3 25  1  0  0  0  0
  3 26  1  0  0  0  0
  4  5  1  0  0  0  0
  5  6  1  0  0  0  0
  5 27  1  0  0  0  0
  5 28  1  0  0  0  0
  6 10  1  0  0  0  0
  6  7  2  0  0  0  0
  7  8  1  0  0  0  0
  7 29  1  0  0  0  0
  8  9  2  0  0  0  0
  8 30  1  0  0  0  0
  9 10  1  0  0  0  0
  9 31  1  0  0  0  0
 11 12  1  0  0  0  0
 11 32  1  0  0  0  0
 11 33  1  0  0  0  0
 12 22  1  0  0  0  0
 12 13  1  0  0  0  0
 13 14  2  0  0  0  0
 13 34  1  0  0  0  0
 14 15  1  0  0  0  0
 15 22  2  0  0  0  0
 15 16  1  0  0  0  0
 16 17  2  0  0  0  0
 16 35  1  0  0  0  0
 17 18  1  0  0  0  0
 17 19  1  0  0  0  0
 19 20  1  0  0  0  0
 19 21  2  0  0  0  0
 21 22  1  0  0  0  0
 21 36  1  0  0  0  0
M  END
> <s_m_source_file>
AV-unprocessed.smi

> <i_m_source_file_index>
1880

> <i_lp_mmshare_version>
43012

> <i_f3d_flags>
0

> <s_epik_input>
W2NIXTFjKEYpYyhGKVtjSF1jKGMxMiluKFtjSF1uMilbQ0gyXVtDQEhdKFtPSF0pW0NIMl1PW0NIMl1jM1tjSF1bY0hdW2NIXW8z

> <s_epik_cmdline>
J2VwaWtfcHl0aG9uJywgJy1waCcsICc3LjAnLCAnLXRuJywgJzgnLCAnLW1hJywgJzIwMCcsICctbWV0YWxfYmluZGluZycsICctaW1hZScsICc8aW5maWxlLm1hZT4nLCAnLW9tYWUnLCAnPG91dGZpbGUubWFlPic=

> <r_epik_Ionization_Penalty>
0.0152348

> <r_epik_Ionization_Penalty_Charging>
0

> <r_epik_Ionization_Penalty_Neutral>
0.0152348

> <r_epik_State_Penalty>
0.0119607

> <r_epik_Charging_Adjusted_Penalty>
0.0119607

> <i_epik_Tot_Q>
0

> <i_epik_Tot_abs_Q>
0

> <r_epik_Metal_State_Penalty>
1.20821e-05

> <b_epik_Metal_Only>
0

> <s_lp_Force_Field>
OPLS_2005

> <r_lp_Energy>
7.94545

> <b_lp_Chiralities_Consistent>
1

> <s_lp_Variant>
AV-unprocessed.smi:1880-2

> <Gold.Version>
5.8.1

> <Gold.Id.Protein>
6NUR|6NUR_protein|mol2

> <Gold.PLP.Fitness>
51.9073

> <Gold.PLP.PLP>
-43.2001

> <Gold.PLP.part.hbond>
-4.3866

> <Gold.PLP.part.metal>
0.0000

> <Gold.PLP.part.buried>
1.4084

> <Gold.PLP.part.nonpolar>
-38.4057

> <Gold.PLP.part.repulsive>
1.3722

> <Gold.PLP.ligand.clash>
0.0000

> <Gold.PLP.ligand.torsion>
1.1536

> <Gold.PLP.Chemscore.Hbond>
3.6566

> <Gold.PLP.Chemscore.CHOScore>
0.0000

> <Gold.PLP.Chemscore.Metal>
0.0000

> <Gold.Chemscore.Hbonds>
donor molecule, donor type, donor heavy atom, donor atom, acceptor molecule, acceptor atom, score
      L1  H     1    23       P1  8028  0.91
      P1  H  7989  7998       L1    10  1.00
      P1  H  7997  8010       L1    14  0.63
      P1  H  8011  8017       L1     4  0.86

> <Gold.PLP.Chemscore.Internal.Correction>
0.0446

> <Gold.Rescore>
     Score         DG    S(hbond)    S(metal)    S(lipo)     H(rot)  DE(clash)    DE(int)     intcor
     14.54     -19.48       2.53        0.00     109.77       2.85       3.85       1.10       ----

> <Gold.Chemscore.Fitness>
14.5358

> <Gold.Chemscore.DG>
-19.4845

> <Gold.Chemscore.ZeroCoef>
-5.4800

> <Gold.Chemscore.Hbond>
2.5334

> <Gold.Chemscore.Metal>
0.0000

> <Gold.Chemscore.Lipo>
109.7721

> <Gold.Chemscore.Internal_Hbond>
0.0000

> <Gold.Chemscore.DEClash>
3.8517

> <Gold.Chemscore.DEInternal>
1.0970

> <Gold.Chemscore.Rot>
2.8518

> <Gold.Chemscore.Internal.Correction>
   9.000000E+99

> <Gold.Chemscore.Hbonds>
donor molecule, donor type, donor heavy atom, donor atom, acceptor molecule, acceptor atom, score
      L1  H     1    23       P1  8028  0.42
      P1  H  7989  7998       L1    10  0.99
      P1  H  7997  8010       L1    14  0.04
      P1  H  8011  8017       L1     4  0.76

> <Gold.Chemscore.Hbond.Weighted>
-8.4617

> <Gold.Chemscore.Metal.Weighted>
-0.0000

> <Gold.Chemscore.Lipo.Weighted>
-12.8433

> <Gold.Chemscore.Internal_Hbond.Weighted>
0.0000

> <Gold.Chemscore.DEClash.Weighted>
3.8517

> <Gold.Chemscore.DEInternal.Weighted>
1.0970

> <Gold.Chemscore.Rot.Weighted>
7.3005

> <Gold.Chemscore.Internal.Correction.Weighted>
   9.000000E+99

> <Gold.Protein.RotatedTorsions>
[ 6907 6896 6895 6894 ] final -112.75 input  -60.11 | X-H torsion
[ 7974 7965 7964 7962 ] final   42.71 input  175.53 | X-H torsion
[ 8008 7997 7996 7995 ] final   23.07 input   59.86 | X-H torsion
[ 10167 10162 10161 10158 ] final   37.58 input  -65.29 | X-H torsion
[ 10718 10713 10712 10709 ] final  -70.94 input   66.30 | X-H torsion
[ 10763 10752 10751 10750 ] final  122.34 input  -60.55 | X-H torsion
[ 11005 11000 10999 10996 ] final  102.31 input  -57.11 | X-H torsion

> <Gold.Protein.ActiveResidues>
 VAL166  LYS551  ARG553  GLY616  TRP617  ASP618  TYR619  PRO620  LYS621  CYS622 
 ASP623  PHE694  ASN695  SER759  ASP760  ASP761  ALA762  ILE779  LEU786  VAL792 
 PHE793  MET794  SER795  GLU796  ALA797  LYS798  CYS799  TRP800  GLU811  SER814 

> <Gold.Protein.RotatedAtoms>
  150.7780  133.9044  159.3350 H   0  0  0  0  0  0  0  0  0  0  0  0  # atno 6907 bound_to 6896
  151.6914  135.0944  160.0244 H   0  0  0  0  0  0  0  0  0  0  0  0  # atno 6908 bound_to 6896
  152.3822  133.6524  159.6206 H   0  0  0  0  0  0  0  0  0  0  0  0  # atno 6909 bound_to 6896
  146.0717  139.5269  142.9593 H   0  0  0  0  0  0  0  0  0  0  0  0  # atno 7974 bound_to 7965
  154.9753  140.3095  155.4970 H   0  0  0  0  0  0  0  0  0  0  0  0  # atno 8008 bound_to 7997
  156.2960  140.2276  156.4788 H   0  0  0  0  0  0  0  0  0  0  0  0  # atno 8009 bound_to 7997
  154.7839  140.0444  157.1137 H   0  0  0  0  0  0  0  0  0  0  0  0  # atno 8010 bound_to 7997
  140.4019  144.1712  150.6134 H   0  0  0  0  0  0  0  0  0  0  0  0  # atno 10167 bound_to 10162
  156.0385  130.4341  150.2369 H   0  0  0  0  0  0  0  0  0  0  0  0  # atno 10718 bound_to 10713
  153.6282  135.3401  155.3033 H   0  0  0  0  0  0  0  0  0  0  0  0  # atno 10763 bound_to 10752
  154.8586  135.4289  154.2134 H   0  0  0  0  0  0  0  0  0  0  0  0  # atno 10764 bound_to 10752
  153.3023  135.7025  153.7265 H   0  0  0  0  0  0  0  0  0  0  0  0  # atno 10765 bound_to 10752
  139.8777  134.9218  156.5038 H   0  0  0  0  0  0  0  0  0  0  0  0  # atno 11005 bound_to 11000
  145.6379  141.0290  143.1828 LP  0  0  0  0  0  0  0  0  0  0  0  0  # atno 17320 bound_to 7965
  144.7236  139.7948  143.7373 LP  0  0  0  0  0  0  0  0  0  0  0  0  # atno 17321 bound_to 7965
  140.4731  143.2406  151.9061 LP  0  0  0  0  0  0  0  0  0  0  0  0  # atno 17342 bound_to 10162
  139.4784  144.5349  151.8613 LP  0  0  0  0  0  0  0  0  0  0  0  0  # atno 17343 bound_to 10162
  157.0467  131.0051  151.3267 LP  0  0  0  0  0  0  0  0  0  0  0  0  # atno 17370 bound_to 10713
  157.5170  130.7974  149.7767 LP  0  0  0  0  0  0  0  0  0  0  0  0  # atno 17371 bound_to 10713
  140.8570  133.8088  155.9226 LP  0  0  0  0  0  0  0  0  0  0  0  0  # atno 17394 bound_to 11000
  140.9087  134.2287  157.4998 LP  0  0  0  0  0  0  0  0  0  0  0  0  # atno 17395 bound_to 11000

$$$$
