AV-unprocessed.smi:2632|AV-procd|sdf|10250|dock8
  -GOLD-   2272014263D 1   1.00000     0.00000
 Structure written by MMmdl.
 38 39  0  0  0  0  0  0  0  0  1 V2000
  147.6935  136.2820  162.5448 C   0  0  0  0  0  0  0  0  0  0  0  0
  147.7608  137.0998  161.3905 O   0  0  0  0  0  0  0  0  0  0  0  0
  148.3844  136.4481  160.2960 C   0  0  0  0  0  0  0  0  0  0  0  0
  147.8973  137.0765  158.9796 C   0  0  0  0  0  0  0  0  0  0  0  0
  148.9442  137.1798  157.9825 N   0  0  0  0  0  0  0  0  0  0  0  0
  149.2737  138.3666  157.3224 C   0  0  0  0  0  0  0  0  0  0  0  0
  148.5861  139.5269  157.6362 N   0  0  0  0  0  0  0  0  0  0  0  0
  150.2416  138.3908  156.3695 C   0  0  0  0  0  0  0  0  0  0  0  0
  150.7338  139.8224  155.4392 S   0  0  0  0  0  0  0  0  0  0  0  0
  151.2917  140.8852  156.7307 C   0  0  0  0  0  0  0  0  0  0  0  0
  151.0119  142.2651  156.6768 C   0  0  0  0  0  0  0  0  0  0  0  0
  151.4663  143.1142  157.7044 C   0  0  0  0  0  0  0  0  0  0  0  0
  152.1986  142.5858  158.7880 C   0  0  0  0  0  0  0  0  0  0  0  0
  152.6872  143.5035  159.8899 C   0  0  0  0  0  0  0  0  0  0  0  0
  152.4767  141.2035  158.8379 C   0  0  0  0  0  0  0  0  0  0  0  0
  152.0225  140.3532  157.8109 C   0  0  0  0  0  0  0  0  0  0  0  0
  150.9915  137.1935  155.9836 C   0  0  0  0  0  0  0  0  0  0  0  0
  151.8883  137.1258  155.1433 O   0  0  0  0  0  0  0  0  0  0  0  0
  150.6028  136.0432  156.6694 N   0  0  0  0  0  0  0  0  0  0  0  0
  149.6090  135.9738  157.6444 C   0  0  0  0  0  0  0  0  0  0  0  0
  149.3471  134.8877  158.1625 O   0  0  0  0  0  0  0  0  0  0  0  0
  151.0797  135.1844  156.4356 H   0  0  0  0  0  0  0  0  0  0  0  0
  147.2031  136.8274  163.3509 H   0  0  0  0  0  0  0  0  0  0  0  0
  148.6902  135.9985  162.8857 H   0  0  0  0  0  0  0  0  0  0  0  0
  147.1171  135.3760  162.3531 H   0  0  0  0  0  0  0  0  0  0  0  0
  149.4667  136.5595  160.3749 H   0  0  0  0  0  0  0  0  0  0  0  0
  148.1678  135.3790  160.3150 H   0  0  0  0  0  0  0  0  0  0  0  0
  147.0808  136.5042  158.5409 H   0  0  0  0  0  0  0  0  0  0  0  0
  147.4919  138.0779  159.1354 H   0  0  0  0  0  0  0  0  0  0  0  0
  147.8527  139.5359  158.3303 H   0  0  0  0  0  0  0  0  0  0  0  0
  148.8792  140.4272  157.2844 H   0  0  0  0  0  0  0  0  0  0  0  0
  150.4536  142.6761  155.8486 H   0  0  0  0  0  0  0  0  0  0  0  0
  151.2517  144.1718  157.6581 H   0  0  0  0  0  0  0  0  0  0  0  0
  152.9188  142.9426  160.7957 H   0  0  0  0  0  0  0  0  0  0  0  0
  151.9268  144.2449  160.1373 H   0  0  0  0  0  0  0  0  0  0  0  0
  153.5882  144.0279  159.5711 H   0  0  0  0  0  0  0  0  0  0  0  0
  153.0395  140.7906  159.6623 H   0  0  0  0  0  0  0  0  0  0  0  0
  152.2404  139.2960  157.8513 H   0  0  0  0  0  0  0  0  0  0  0  0
  1  2  1  0  0  0  0
  1 23  1  0  0  0  0
  1 24  1  0  0  0  0
  1 25  1  0  0  0  0
  2  3  1  0  0  0  0
  3  4  1  0  0  0  0
  3 26  1  0  0  0  0
  3 27  1  0  0  0  0
  4  5  1  0  0  0  0
  4 28  1  0  0  0  0
  4 29  1  0  0  0  0
  5 20  1  0  0  0  0
  5  6  1  0  0  0  0
  6  7  1  0  0  0  0
  6  8  2  0  0  0  0
  7 30  1  0  0  0  0
  7 31  1  0  0  0  0
  8  9  1  0  0  0  0
  8 17  1  0  0  0  0
  9 10  1  0  0  0  0
 10 16  1  0  0  0  0
 10 11  2  0  0  0  0
 11 12  1  0  0  0  0
 11 32  1  0  0  0  0
 12 13  2  0  0  0  0
 12 33  1  0  0  0  0
 13 14  1  0  0  0  0
 13 15  1  0  0  0  0
 14 34  1  0  0  0  0
 14 35  1  0  0  0  0
 14 36  1  0  0  0  0
 15 16  2  0  0  0  0
 15 37  1  0  0  0  0
 16 38  1  0  0  0  0
 17 18  2  0  0  0  0
 17 19  1  0  0  0  0
 19 22  1  0  0  0  0
 19 20  1  0  0  0  0
 20 21  2  0  0  0  0
M  END
> <s_m_source_file>
AV-unprocessed.smi

> <i_m_source_file_index>
2632

> <i_lp_mmshare_version>
43012

> <i_f3d_flags>
0

> <s_epik_input>
W0NIM11PW0NIMl1bQ0gyXW4xYyhbTkgyXSljKGMoPU8pW25IXWMxPU8pU2MyW2NIXVtjSF1jKFtDSDNdKVtjSF1bY0hdMg==

> <s_epik_cmdline>
J2VwaWtfcHl0aG9uJywgJy1waCcsICc3LjAnLCAnLXRuJywgJzgnLCAnLW1hJywgJzIwMCcsICctbWV0YWxfYmluZGluZycsICctaW1hZScsICc8aW5maWxlLm1hZT4nLCAnLW9tYWUnLCAnPG91dGZpbGUubWFlPic=

> <r_lp_tautomer_probability>
1

> <r_epik_Ionization_Penalty>
1.3786e-05

> <r_epik_Ionization_Penalty_Charging>
1.17844e-05

> <r_epik_Ionization_Penalty_Neutral>
2.00164e-06

> <r_epik_State_Penalty>
-0

> <r_epik_Charging_Adjusted_Penalty>
1.17844e-05

> <i_epik_Tot_Q>
0

> <i_epik_Tot_abs_Q>
0

> <r_epik_Metal_State_Penalty>
0.0115847

> <b_epik_Metal_Only>
0

> <s_epik_Chemistry_Notes>
This compound has an imine and may undergo hydrolysis.

> <s_lp_Force_Field>
OPLS_2005

> <r_lp_Energy>
18.7052

> <b_lp_Chiralities_Consistent>
1

> <s_lp_Variant>
AV-unprocessed.smi:2632-1

> <Gold.Version>
5.8.1

> <Gold.Id.Protein>
6NUR|6NUR_protein|mol2

> <Gold.PLP.Fitness>
45.2823

> <Gold.PLP.PLP>
-35.4501

> <Gold.PLP.part.hbond>
-4.0000

> <Gold.PLP.part.metal>
0.0000

> <Gold.PLP.part.buried>
-4.4685

> <Gold.PLP.part.nonpolar>
-27.2464

> <Gold.PLP.part.repulsive>
0.3168

> <Gold.PLP.ligand.clash>
0.0000

> <Gold.PLP.ligand.torsion>
0.7239

> <Gold.PLP.Chemscore.Hbond>
3.7520

> <Gold.PLP.Chemscore.CHOScore>
0.0000

> <Gold.PLP.Chemscore.Metal>
0.0000

> <Gold.Chemscore.Hbonds>
donor molecule, donor type, donor heavy atom, donor atom, acceptor molecule, acceptor atom, score
      P1  H  6896  6909       L1    21  1.00
      P1  H  6931  6943       L1     2  1.00
      P1  H  6934  6947       L1     2  0.74
      P1  H 10752 10763       L1    18  0.98

> <Gold.PLP.Chemscore.Internal.Correction>
0.0240

> <Gold.Rescore>
     Score         DG    S(hbond)    S(metal)    S(lipo)     H(rot)  DE(clash)    DE(int)     intcor
     18.17     -20.10       2.76        0.00      90.18       2.02       0.03       1.89       ----

> <Gold.Chemscore.Fitness>
18.1742

> <Gold.Chemscore.DG>
-20.0988

> <Gold.Chemscore.ZeroCoef>
-5.4800

> <Gold.Chemscore.Hbond>
2.7647

> <Gold.Chemscore.Metal>
0.0000

> <Gold.Chemscore.Lipo>
90.1789

> <Gold.Chemscore.Internal_Hbond>
0.0000

> <Gold.Chemscore.DEClash>
0.0300

> <Gold.Chemscore.DEInternal>
1.8947

> <Gold.Chemscore.Rot>
2.0180

> <Gold.Chemscore.Internal.Correction>
   9.000000E+99

> <Gold.Chemscore.Hbonds>
donor molecule, donor type, donor heavy atom, donor atom, acceptor molecule, acceptor atom, score
      P1  H  6896  6909       L1    21  0.91
      P1  H  6931  6943       L1     2  0.09
      P1  H  6934  6947       L1     2  0.61
      P1  H 10752 10763       L1    18  0.93

> <Gold.Chemscore.Hbond.Weighted>
-9.2340

> <Gold.Chemscore.Metal.Weighted>
-0.0000

> <Gold.Chemscore.Lipo.Weighted>
-10.5509

> <Gold.Chemscore.Internal_Hbond.Weighted>
0.0000

> <Gold.Chemscore.DEClash.Weighted>
0.0300

> <Gold.Chemscore.DEInternal.Weighted>
1.8947

> <Gold.Chemscore.Rot.Weighted>
5.1661

> <Gold.Chemscore.Internal.Correction.Weighted>
   9.000000E+99

> <Gold.Protein.RotatedTorsions>
[ 6907 6896 6895 6894 ] final   16.02 input  -60.11 | X-H torsion
[ 7974 7965 7964 7962 ] final -153.36 input  175.53 | X-H torsion
[ 8008 7997 7996 7995 ] final  136.41 input   59.86 | X-H torsion
[ 10167 10162 10161 10158 ] final   98.08 input  -65.29 | X-H torsion
[ 10718 10713 10712 10709 ] final  -34.48 input   66.30 | X-H torsion
[ 10763 10752 10751 10750 ] final   65.47 input  -60.55 | X-H torsion
[ 11005 11000 10999 10996 ] final  161.38 input  -57.11 | X-H torsion

> <Gold.Protein.ActiveResidues>
 VAL166  LYS551  ARG553  GLY616  TRP617  ASP618  TYR619  PRO620  LYS621  CYS622 
 ASP623  PHE694  ASN695  SER759  ASP760  ASP761  ALA762  ILE779  LEU786  VAL792 
 PHE793  MET794  SER795  GLU796  ALA797  LYS798  CYS799  TRP800  GLU811  SER814 

> <Gold.Protein.RotatedAtoms>
  151.8273  135.0633  160.0432 H   0  0  0  0  0  0  0  0  0  0  0  0  # atno 6907 bound_to 6896
  152.2907  133.5554  159.5564 H   0  0  0  0  0  0  0  0  0  0  0  0  # atno 6908 bound_to 6896
  150.7229  134.0349  159.3788 H   0  0  0  0  0  0  0  0  0  0  0  0  # atno 6909 bound_to 6896
  144.7744  140.4536  143.5883 H   0  0  0  0  0  0  0  0  0  0  0  0  # atno 7974 bound_to 7965
  156.3004  140.2446  156.3740 H   0  0  0  0  0  0  0  0  0  0  0  0  # atno 8008 bound_to 7997
  154.8762  140.0414  157.1774 H   0  0  0  0  0  0  0  0  0  0  0  0  # atno 8009 bound_to 7997
  154.8743  140.2940  155.5466 H   0  0  0  0  0  0  0  0  0  0  0  0  # atno 8010 bound_to 7997
  139.7741  144.6912  151.0114 H   0  0  0  0  0  0  0  0  0  0  0  0  # atno 10167 bound_to 10162
  156.3501  130.4307  149.7712 H   0  0  0  0  0  0  0  0  0  0  0  0  # atno 10718 bound_to 10713
  153.0098  135.5355  154.6673 H   0  0  0  0  0  0  0  0  0  0  0  0  # atno 10763 bound_to 10752
  154.5866  135.2855  155.0680 H   0  0  0  0  0  0  0  0  0  0  0  0  # atno 10764 bound_to 10752
  154.1789  135.6519  153.5081 H   0  0  0  0  0  0  0  0  0  0  0  0  # atno 10765 bound_to 10752
  140.2152  134.8237  157.3163 H   0  0  0  0  0  0  0  0  0  0  0  0  # atno 11005 bound_to 11000
  145.6228  139.1526  143.3013 LP  0  0  0  0  0  0  0  0  0  0  0  0  # atno 17320 bound_to 7965
  146.1914  140.6337  142.9144 LP  0  0  0  0  0  0  0  0  0  0  0  0  # atno 17321 bound_to 7965
  140.7815  143.4555  151.0352 LP  0  0  0  0  0  0  0  0  0  0  0  0  # atno 17342 bound_to 10162
  139.8238  143.7784  152.3178 LP  0  0  0  0  0  0  0  0  0  0  0  0  # atno 17343 bound_to 10162
  156.4916  130.8087  151.3097 LP  0  0  0  0  0  0  0  0  0  0  0  0  # atno 17370 bound_to 10713
  157.7460  130.9973  150.2813 LP  0  0  0  0  0  0  0  0  0  0  0  0  # atno 17371 bound_to 10713
  140.1908  134.4374  155.7717 LP  0  0  0  0  0  0  0  0  0  0  0  0  # atno 17394 bound_to 11000
  141.2225  133.7026  156.8024 LP  0  0  0  0  0  0  0  0  0  0  0  0  # atno 17395 bound_to 11000

$$$$
