AV-unprocessed.smi:972|AV-procd|sdf|4298|dock10
  -GOLD-   22720 2203D 1   1.00000     0.00000
 Structure written by MMmdl.
 50 52  0  0  0  0  0  0  0  0  1 V2000
  144.8571  132.1672  149.8116 C   0  0  0  0  0  0  0  0  0  0  0  0
  145.2773  132.7183  151.1948 C   0  0  0  0  0  0  0  0  0  0  0  0
  144.8518  131.6482  152.2274 C   0  0  0  0  0  0  0  0  0  0  0  0
  146.8063  132.8963  151.2335 C   0  0  0  0  0  0  0  0  0  0  0  0
  144.5972  134.0674  151.4855 C   0  0  0  0  0  0  0  0  0  0  0  0
  143.2623  134.1131  151.3826 N   0  0  0  0  0  0  0  0  0  0  0  0
  142.6657  135.3170  151.5053 C   0  0  0  0  0  0  0  0  0  0  0  0
  143.4051  136.5019  151.6918 C   0  0  0  0  0  0  0  0  0  0  0  0
  142.7065  137.7323  151.8219 N   0  0  0  0  0  0  0  0  0  0  0  0
  141.4030  137.9834  151.6123 C   0  0  0  0  0  0  0  0  0  0  0  0
  140.5634  137.1506  151.2721 O   0  0  0  0  0  0  0  0  0  0  0  0
  141.1214  139.2740  151.8403 N   0  0  0  0  0  0  0  0  0  0  0  0
  139.8047  139.8958  151.7288 C   0  0  0  0  0  0  0  0  0  0  0  0
  139.2950  139.7975  150.2822 C   0  0  0  0  0  0  0  0  0  0  0  0
  137.9878  140.5894  150.1017 C   0  0  0  0  0  0  0  0  0  0  0  0
  138.1926  141.9921  150.4644 N   0  0  0  0  0  0  0  0  0  0  0  0
  136.9551  142.7214  150.2414 C   0  0  0  0  0  0  0  0  0  0  0  0
  136.7635  143.3789  148.8936 C   0  0  0  0  0  0  0  0  0  0  0  0
  137.0439  144.2250  150.1122 C   0  0  0  0  0  0  0  0  0  0  0  0
  138.5508  142.0926  151.8793 C   0  0  0  0  0  0  0  0  0  0  0  0
  139.8858  141.3740  152.1405 C   0  0  0  0  0  0  0  0  0  0  0  0
  144.8104  136.3454  151.7550 C   0  0  0  0  0  0  0  0  0  0  0  0
  145.3938  135.1340  151.6331 N   0  0  0  0  0  0  0  0  0  0  0  0
  145.2998  131.1885  149.6231 H   0  0  0  0  0  0  0  0  0  0  0  0
  145.1773  132.8183  148.9974 H   0  0  0  0  0  0  0  0  0  0  0  0
  143.7745  132.0558  149.7403 H   0  0  0  0  0  0  0  0  0  0  0  0
  143.7687  131.5201  152.2427 H   0  0  0  0  0  0  0  0  0  0  0  0
  145.1682  131.9061  153.2388 H   0  0  0  0  0  0  0  0  0  0  0  0
  145.2927  130.6773  151.9987 H   0  0  0  0  0  0  0  0  0  0  0  0
  147.3220  131.9566  151.0337 H   0  0  0  0  0  0  0  0  0  0  0  0
  147.1388  133.2537  152.2088 H   0  0  0  0  0  0  0  0  0  0  0  0
  147.1390  133.6195  150.4879 H   0  0  0  0  0  0  0  0  0  0  0  0
  141.5875  135.3329  151.4434 H   0  0  0  0  0  0  0  0  0  0  0  0
  143.2584  138.5081  152.1577 H   0  0  0  0  0  0  0  0  0  0  0  0
  141.8804  139.8785  152.1190 H   0  0  0  0  0  0  0  0  0  0  0  0
  139.0843  139.3989  152.3812 H   0  0  0  0  0  0  0  0  0  0  0  0
  140.0481  140.1824  149.5925 H   0  0  0  0  0  0  0  0  0  0  0  0
  139.1342  138.7529  150.0131 H   0  0  0  0  0  0  0  0  0  0  0  0
  137.6657  140.5256  149.0618 H   0  0  0  0  0  0  0  0  0  0  0  0
  137.1935  140.1539  150.7104 H   0  0  0  0  0  0  0  0  0  0  0  0
  136.0443  142.3511  150.7094 H   0  0  0  0  0  0  0  0  0  0  0  0
  137.5603  143.2795  148.1586 H   0  0  0  0  0  0  0  0  0  0  0  0
  135.7548  143.4019  148.4866 H   0  0  0  0  0  0  0  0  0  0  0  0
  136.2223  144.8115  150.5183 H   0  0  0  0  0  0  0  0  0  0  0  0
  138.0267  144.6869  150.1859 H   0  0  0  0  0  0  0  0  0  0  0  0
  138.6436  143.1430  152.1579 H   0  0  0  0  0  0  0  0  0  0  0  0
  137.7616  141.6651  152.5002 H   0  0  0  0  0  0  0  0  0  0  0  0
  140.1477  141.4541  153.1962 H   0  0  0  0  0  0  0  0  0  0  0  0
  140.6804  141.8754  151.5853 H   0  0  0  0  0  0  0  0  0  0  0  0
  145.4868  137.1705  151.9130 H   0  0  0  0  0  0  0  0  0  0  0  0
  1  2  1  0  0  0  0
  1 24  1  0  0  0  0
  1 25  1  0  0  0  0
  1 26  1  0  0  0  0
  2  3  1  0  0  0  0
  2  4  1  0  0  0  0
  2  5  1  0  0  0  0
  3 27  1  0  0  0  0
  3 28  1  0  0  0  0
  3 29  1  0  0  0  0
  4 30  1  0  0  0  0
  4 31  1  0  0  0  0
  4 32  1  0  0  0  0
  5 23  1  0  0  0  0
  5  6  2  0  0  0  0
  6  7  1  0  0  0  0
  7  8  2  0  0  0  0
  7 33  1  0  0  0  0
  8  9  1  0  0  0  0
  8 22  1  0  0  0  0
  9 10  1  0  0  0  0
  9 34  1  0  0  0  0
 10 11  2  0  0  0  0
 10 12  1  0  0  0  0
 12 13  1  0  0  0  0
 12 35  1  0  0  0  0
 13 21  1  0  0  0  0
 13 14  1  0  0  0  0
 13 36  1  0  0  0  0
 14 15  1  0  0  0  0
 14 37  1  0  0  0  0
 14 38  1  0  0  0  0
 15 16  1  0  0  0  0
 15 39  1  0  0  0  0
 15 40  1  0  0  0  0
 16 17  1  0  0  0  0
 16 20  1  0  0  0  0
 17 19  1  0  0  0  0
 17 18  1  0  0  0  0
 17 41  1  0  0  0  0
 18 19  1  0  0  0  0
 18 42  1  0  0  0  0
 18 43  1  0  0  0  0
 19 44  1  0  0  0  0
 19 45  1  0  0  0  0
 20 21  1  0  0  0  0
 20 46  1  0  0  0  0
 20 47  1  0  0  0  0
 21 48  1  0  0  0  0
 21 49  1  0  0  0  0
 22 23  2  0  0  0  0
 22 50  1  0  0  0  0
M  END
> <s_m_source_file>
AV-unprocessed.smi

> <i_m_source_file_index>
972

> <i_lp_mmshare_version>
43012

> <i_f3d_flags>
0

> <s_epik_input>
W0NIM11DKFtDSDNdKShbQ0gzXSljMW5bY0hdYyhbY0hdbjEpW05IXUMoPU8pW05IXVtDSF0yW0NIMl1bQ0gyXU4oW0NIMl1bQ0gyXTIpW0NIXTNbQ0gyXVtDSDJdMw==

> <s_epik_cmdline>
J2VwaWtfcHl0aG9uJywgJy1waCcsICc3LjAnLCAnLXRuJywgJzgnLCAnLW1hJywgJzIwMCcsICctbWV0YWxfYmluZGluZycsICctaW1hZScsICc8aW5maWxlLm1hZT4nLCAnLW9tYWUnLCAnPG91dGZpbGUubWFlPic=

> <r_lp_tautomer_probability>
1

> <r_epik_Ionization_Penalty>
0.990889

> <r_epik_Ionization_Penalty_Charging>
0

> <r_epik_Ionization_Penalty_Neutral>
0.990889

> <r_epik_State_Penalty>
1.03856

> <r_epik_Charging_Adjusted_Penalty>
1.03856

> <i_epik_Tot_Q>
0

> <i_epik_Tot_abs_Q>
0

> <r_epik_Metal_State_Penalty>
1.03856

> <b_epik_Metal_Only>
0

> <s_lp_Force_Field>
OPLS_2005

> <r_lp_Energy>
19.7386

> <b_lp_Chiralities_Consistent>
1

> <s_lp_Variant>
AV-unprocessed.smi:972-3

> <Gold.Version>
5.8.1

> <Gold.Id.Protein>
6NUR|6NUR_protein|mol2

> <Gold.PLP.Fitness>
45.3369

> <Gold.PLP.PLP>
-37.6533

> <Gold.PLP.part.hbond>
-3.5907

> <Gold.PLP.part.metal>
0.0000

> <Gold.PLP.part.buried>
-2.5625

> <Gold.PLP.part.nonpolar>
-32.3923

> <Gold.PLP.part.repulsive>
0.5993

> <Gold.PLP.ligand.clash>
0.0000

> <Gold.PLP.ligand.torsion>
0.6866

> <Gold.PLP.Chemscore.Hbond>
2.0000

> <Gold.PLP.Chemscore.CHOScore>
0.5842

> <Gold.PLP.Chemscore.Metal>
0.0000

> <Gold.Chemscore.Hbonds>
donor molecule, donor type, donor heavy atom, donor atom, acceptor molecule, acceptor atom, score
      L1  H     9    34       P1 10175  1.00
      L1  H    12    35       P1 10175  0.30

> <Gold.PLP.Chemscore.Internal.Correction>
1.3042

> <Gold.Rescore>
     Score         DG    S(hbond)    S(metal)    S(lipo)     H(rot)  DE(clash)    DE(int)     intcor
     16.14     -19.11       1.75        0.00      94.94       1.30       0.22       2.76       ----

> <Gold.Chemscore.Fitness>
16.1354

> <Gold.Chemscore.DG>
-19.1144

> <Gold.Chemscore.ZeroCoef>
-5.4800

> <Gold.Chemscore.Hbond>
1.7489

> <Gold.Chemscore.Metal>
0.0000

> <Gold.Chemscore.Lipo>
94.9441

> <Gold.Chemscore.Internal_Hbond>
0.0000

> <Gold.Chemscore.DEClash>
0.2195

> <Gold.Chemscore.DEInternal>
2.7595

> <Gold.Chemscore.Rot>
1.2951

> <Gold.Chemscore.Internal.Correction>
   9.000000E+99

> <Gold.Chemscore.Hbonds>
donor molecule, donor type, donor heavy atom, donor atom, acceptor molecule, acceptor atom, score
      L1  H     9    34       P1 10175  0.95

> <Gold.Chemscore.Hbond.Weighted>
-5.8413

> <Gold.Chemscore.Metal.Weighted>
-0.0000

> <Gold.Chemscore.Lipo.Weighted>
-11.1085

> <Gold.Chemscore.Internal_Hbond.Weighted>
0.0000

> <Gold.Chemscore.DEClash.Weighted>
0.2195

> <Gold.Chemscore.DEInternal.Weighted>
2.7595

> <Gold.Chemscore.Rot.Weighted>
3.3154

> <Gold.Chemscore.Internal.Correction.Weighted>
   9.000000E+99

> <Gold.Protein.RotatedTorsions>
[ 6907 6896 6895 6894 ] final -164.00 input  -60.11 | X-H torsion
[ 7974 7965 7964 7962 ] final -120.85 input  175.53 | X-H torsion
[ 8008 7997 7996 7995 ] final  -22.60 input   59.86 | X-H torsion
[ 10167 10162 10161 10158 ] final  -88.21 input  -65.29 | X-H torsion
[ 10718 10713 10712 10709 ] final  -13.01 input   66.30 | X-H torsion
[ 10763 10752 10751 10750 ] final  -26.04 input  -60.55 | X-H torsion
[ 11005 11000 10999 10996 ] final -119.05 input  -57.11 | X-H torsion

> <Gold.Protein.ActiveResidues>
 VAL166  LYS551  ARG553  GLY616  TRP617  ASP618  TYR619  PRO620  LYS621  CYS622 
 ASP623  PHE694  ASN695  SER759  ASP760  ASP761  ALA762  ILE779  LEU786  VAL792 
 PHE793  MET794  SER795  GLU796  ALA797  LYS798  CYS799  TRP800  GLU811  SER814 

> <Gold.Protein.RotatedAtoms>
  151.4049  133.3745  159.2736 H   0  0  0  0  0  0  0  0  0  0  0  0  # atno 6907 bound_to 6896
  150.9405  134.8816  159.7620 H   0  0  0  0  0  0  0  0  0  0  0  0  # atno 6908 bound_to 6896
  152.5069  134.4000  159.9465 H   0  0  0  0  0  0  0  0  0  0  0  0  # atno 6909 bound_to 6896
  145.0468  140.8187  143.4233 H   0  0  0  0  0  0  0  0  0  0  0  0  # atno 7974 bound_to 7965
  154.4634  140.2003  156.0182 H   0  0  0  0  0  0  0  0  0  0  0  0  # atno 8008 bound_to 7997
  156.0883  140.3262  155.7754 H   0  0  0  0  0  0  0  0  0  0  0  0  # atno 8009 bound_to 7997
  155.4999  140.0553  157.2931 H   0  0  0  0  0  0  0  0  0  0  0  0  # atno 8010 bound_to 7997
  140.3769  143.2767  151.9432 H   0  0  0  0  0  0  0  0  0  0  0  0  # atno 10167 bound_to 10162
  156.6364  130.4916  149.6110 H   0  0  0  0  0  0  0  0  0  0  0  0  # atno 10718 bound_to 10713
  153.7095  135.6951  153.5041 H   0  0  0  0  0  0  0  0  0  0  0  0  # atno 10763 bound_to 10752
  153.2283  135.4346  155.0565 H   0  0  0  0  0  0  0  0  0  0  0  0  # atno 10764 bound_to 10752
  154.8319  135.3478  154.6632 H   0  0  0  0  0  0  0  0  0  0  0  0  # atno 10765 bound_to 10752
  141.0243  134.0077  157.3237 H   0  0  0  0  0  0  0  0  0  0  0  0  # atno 11005 bound_to 11000
  145.1578  139.2476  143.5407 LP  0  0  0  0  0  0  0  0  0  0  0  0  # atno 17320 bound_to 7965
  146.3514  140.1297  142.8597 LP  0  0  0  0  0  0  0  0  0  0  0  0  # atno 17321 bound_to 7965
  139.4798  144.5855  151.7861 LP  0  0  0  0  0  0  0  0  0  0  0  0  # atno 17342 bound_to 10162
  140.4977  144.1216  150.5964 LP  0  0  0  0  0  0  0  0  0  0  0  0  # atno 17343 bound_to 10162
  156.2194  130.6728  151.1352 LP  0  0  0  0  0  0  0  0  0  0  0  0  # atno 17370 bound_to 10713
  157.7184  131.0696  150.6234 LP  0  0  0  0  0  0  0  0  0  0  0  0  # atno 17371 bound_to 10713
  139.9166  135.0197  156.7904 LP  0  0  0  0  0  0  0  0  0  0  0  0  # atno 17394 bound_to 11000
  140.6518  133.9724  155.7759 LP  0  0  0  0  0  0  0  0  0  0  0  0  # atno 17395 bound_to 11000

$$$$
