AV-unprocessed.smi:740|AV-procd|sdf|3548|dock8
  -GOLD-   22720 0543D 1   1.00000     0.00000
 Structure written by MMmdl.
 44 46  0  0  0  0  0  0  0  0  1 V2000
  153.1444  142.7567  160.9261 C   0  0  0  0  0  0  0  0  0  0  0  0
  152.4688  142.4397  159.6034 C   0  0  0  0  0  0  0  0  0  0  0  0
  152.8172  141.2524  158.9211 C   0  0  0  0  0  0  0  0  0  0  0  0
  152.2149  140.9225  157.6873 C   0  0  0  0  0  0  0  0  0  0  0  0
  152.4047  139.8296  156.8588 N   0  0  0  0  0  0  0  0  0  0  0  0
  151.5612  140.0969  155.8662 C   0  0  0  0  0  0  0  0  0  0  0  0
  150.8445  141.2338  155.9547 N   0  0  0  0  0  0  0  0  0  0  0  0
  149.8728  141.7274  154.9952 C   0  0  0  0  0  0  0  0  0  0  0  0
  148.8184  140.6657  154.6277 C   0  0  2  0  0  0  0  0  0  0  0  0
  149.4219  139.6995  153.7887 O   0  0  0  0  0  0  0  0  0  0  0  0
  147.6166  141.2868  153.8862 C   0  0  0  0  0  0  0  0  0  0  0  0
  146.7447  142.0418  154.7933 N   0  0  0  0  0  0  0  0  0  0  0  0
  146.4884  141.6837  156.0590 C   0  0  0  0  0  0  0  0  0  0  0  0
  146.9446  140.7022  156.6449 O   0  0  0  0  0  0  0  0  0  0  0  0
  145.5240  142.6595  156.7183 C   0  0  0  0  0  0  0  0  0  0  0  0
  145.2346  143.6768  155.6042 C   0  0  2  0  0  0  0  0  0  0  0  0
  143.7465  143.7802  155.2311 C   0  0  0  0  0  0  0  0  0  0  0  0
  146.0754  143.1491  154.4431 C   0  0  0  0  0  0  0  0  0  0  0  0
  146.1056  143.6971  153.3411 O   0  0  0  0  0  0  0  0  0  0  0  0
  151.2447  141.8189  157.1512 C   0  0  0  0  0  0  0  0  0  0  0  0
  150.8891  143.0030  157.8211 C   0  0  0  0  0  0  0  0  0  0  0  0
  151.5023  143.3186  159.0517 C   0  0  0  0  0  0  0  0  0  0  0  0
  151.1146  144.6017  159.7650 C   0  0  0  0  0  0  0  0  0  0  0  0
  153.8307  141.9632  161.2231 H   0  0  0  0  0  0  0  0  0  0  0  0
  152.4033  142.8704  161.7175 H   0  0  0  0  0  0  0  0  0  0  0  0
  153.7152  143.6823  160.8497 H   0  0  0  0  0  0  0  0  0  0  0  0
  153.5542  140.5833  159.3403 H   0  0  0  0  0  0  0  0  0  0  0  0
  151.4581  139.4285  155.0238 H   0  0  0  0  0  0  0  0  0  0  0  0
  149.3876  142.6033  155.4280 H   0  0  0  0  0  0  0  0  0  0  0  0
  150.3999  142.0730  154.1050 H   0  0  0  0  0  0  0  0  0  0  0  0
  148.4838  140.1735  155.5421 H   0  0  0  0  0  0  0  0  0  0  0  0
  149.5784  140.0901  152.9425 H   0  0  0  0  0  0  0  0  0  0  0  0
  147.9782  141.9737  153.1188 H   0  0  0  0  0  0  0  0  0  0  0  0
  147.0599  140.5216  153.3420 H   0  0  0  0  0  0  0  0  0  0  0  0
  144.6274  142.1340  157.0487 H   0  0  0  0  0  0  0  0  0  0  0  0
  145.9903  143.1291  157.5850 H   0  0  0  0  0  0  0  0  0  0  0  0
  145.6125  144.6595  155.8890 H   0  0  0  0  0  0  0  0  0  0  0  0
  143.5887  144.5036  154.4304 H   0  0  0  0  0  0  0  0  0  0  0  0
  143.1542  144.1048  156.0869 H   0  0  0  0  0  0  0  0  0  0  0  0
  143.3487  142.8209  154.8974 H   0  0  0  0  0  0  0  0  0  0  0  0
  150.1529  143.6645  157.3889 H   0  0  0  0  0  0  0  0  0  0  0  0
  150.3767  145.1664  159.1941 H   0  0  0  0  0  0  0  0  0  0  0  0
  151.9873  145.2397  159.9061 H   0  0  0  0  0  0  0  0  0  0  0  0
  150.6843  144.3804  160.7418 H   0  0  0  0  0  0  0  0  0  0  0  0
  1  2  1  0  0  0  0
  1 24  1  0  0  0  0
  1 25  1  0  0  0  0
  1 26  1  0  0  0  0
  2 22  1  0  0  0  0
  2  3  2  0  0  0  0
  3  4  1  0  0  0  0
  3 27  1  0  0  0  0
  4 20  2  0  0  0  0
  4  5  1  0  0  0  0
  5  6  2  0  0  0  0
  6  7  1  0  0  0  0
  6 28  1  0  0  0  0
  7  8  1  0  0  0  0
  7 20  1  0  0  0  0
  8  9  1  0  0  0  0
  8 29  1  0  0  0  0
  8 30  1  0  0  0  0
  9 10  1  0  0  0  0
  9 11  1  0  0  0  0
  9 31  1  0  0  0  0
 10 32  1  0  0  0  0
 11 12  1  0  0  0  0
 11 33  1  0  0  0  0
 11 34  1  0  0  0  0
 12 18  1  0  0  0  0
 12 13  1  0  0  0  0
 13 14  2  0  0  0  0
 13 15  1  0  0  0  0
 15 16  1  0  0  0  0
 15 35  1  0  0  0  0
 15 36  1  0  0  0  0
 16 17  1  0  0  0  0
 16 18  1  0  0  0  0
 16 37  1  0  0  0  0
 17 38  1  0  0  0  0
 17 39  1  0  0  0  0
 17 40  1  0  0  0  0
 18 19  2  0  0  0  0
 20 21  1  0  0  0  0
 21 22  2  0  0  0  0
 21 41  1  0  0  0  0
 22 23  1  0  0  0  0
 23 42  1  0  0  0  0
 23 43  1  0  0  0  0
 23 44  1  0  0  0  0
M  END
> <s_m_source_file>
AV-unprocessed.smi

> <i_m_source_file_index>
740

> <i_lp_mmshare_version>
43012

> <i_f3d_flags>
0

> <s_epik_input>
W0NIM11jKFtjSF0xKWMoW0NIM10pW2NIXWMoYzEyKW4oW2NIXW4yKVtDSDJdW0NASF0oW09IXSlbQ0gyXU4zQyg9TylbQ0gyXVtDQEBIXShbQ0gzXSlDMz1P

> <s_epik_cmdline>
J2VwaWtfcHl0aG9uJywgJy1waCcsICc3LjAnLCAnLXRuJywgJzgnLCAnLW1hJywgJzIwMCcsICctbWV0YWxfYmluZGluZycsICctaW1hZScsICc8aW5maWxlLm1hZT4nLCAnLW9tYWUnLCAnPG91dGZpbGUubWFlPic=

> <r_lp_tautomer_probability>
1

> <r_epik_Ionization_Penalty>
0.104021

> <r_epik_Ionization_Penalty_Charging>
0

> <r_epik_Ionization_Penalty_Neutral>
0.104021

> <r_epik_State_Penalty>
0.0939354

> <r_epik_Charging_Adjusted_Penalty>
0.0939354

> <i_epik_Tot_Q>
0

> <i_epik_Tot_abs_Q>
0

> <r_epik_Metal_State_Penalty>
0.000101783

> <b_epik_Metal_Only>
0

> <s_lp_Force_Field>
OPLS_2005

> <r_lp_Energy>
16.7866

> <b_lp_Chiralities_Consistent>
1

> <s_lp_Variant>
AV-unprocessed.smi:740-3

> <Gold.Version>
5.8.1

> <Gold.Id.Protein>
6NUR|6NUR_protein|mol2

> <Gold.PLP.Fitness>
51.3115

> <Gold.PLP.PLP>
-46.5229

> <Gold.PLP.part.hbond>
-3.0420

> <Gold.PLP.part.metal>
0.0000

> <Gold.PLP.part.buried>
-4.1094

> <Gold.PLP.part.nonpolar>
-38.8301

> <Gold.PLP.part.repulsive>
0.2436

> <Gold.PLP.ligand.clash>
0.0000

> <Gold.PLP.ligand.torsion>
0.6122

> <Gold.PLP.Chemscore.Hbond>
2.0000

> <Gold.PLP.Chemscore.CHOScore>
0.0000

> <Gold.PLP.Chemscore.Metal>
0.0000

> <Gold.Chemscore.Hbonds>
donor molecule, donor type, donor heavy atom, donor atom, acceptor molecule, acceptor atom, score
      L1  H    10    32       P1  7957  1.00
      P1  H  7997  8010       L1     5  0.95

> <Gold.PLP.Chemscore.Internal.Correction>
0.0130

> <Gold.Rescore>
     Score         DG    S(hbond)    S(metal)    S(lipo)     H(rot)  DE(clash)    DE(int)     intcor
     14.64     -16.97       1.83        0.00      96.55       2.31       0.27       2.06       ----

> <Gold.Chemscore.Fitness>
14.6374

> <Gold.Chemscore.DG>
-16.9708

> <Gold.Chemscore.ZeroCoef>
-5.4800

> <Gold.Chemscore.Hbond>
1.8323

> <Gold.Chemscore.Metal>
0.0000

> <Gold.Chemscore.Lipo>
96.5513

> <Gold.Chemscore.Internal_Hbond>
0.0000

> <Gold.Chemscore.DEClash>
0.2700

> <Gold.Chemscore.DEInternal>
2.0634

> <Gold.Chemscore.Rot>
2.3147

> <Gold.Chemscore.Internal.Correction>
   9.000000E+99

> <Gold.Chemscore.Hbonds>
donor molecule, donor type, donor heavy atom, donor atom, acceptor molecule, acceptor atom, score
      L1  H    10    32       P1  7957  0.97
      P1  H  7997  8010       L1     5  0.18

> <Gold.Chemscore.Hbond.Weighted>
-6.1199

> <Gold.Chemscore.Metal.Weighted>
-0.0000

> <Gold.Chemscore.Lipo.Weighted>
-11.2965

> <Gold.Chemscore.Internal_Hbond.Weighted>
0.0000

> <Gold.Chemscore.DEClash.Weighted>
0.2700

> <Gold.Chemscore.DEInternal.Weighted>
2.0634

> <Gold.Chemscore.Rot.Weighted>
5.9256

> <Gold.Chemscore.Internal.Correction.Weighted>
   9.000000E+99

> <Gold.Protein.RotatedTorsions>
[ 6907 6896 6895 6894 ] final   34.27 input  -60.11 | X-H torsion
[ 7974 7965 7964 7962 ] final  165.15 input  175.53 | X-H torsion
[ 8008 7997 7996 7995 ] final   75.47 input   59.86 | X-H torsion
[ 10167 10162 10161 10158 ] final  126.27 input  -65.29 | X-H torsion
[ 10718 10713 10712 10709 ] final   83.27 input   66.30 | X-H torsion
[ 10763 10752 10751 10750 ] final  -88.08 input  -60.55 | X-H torsion
[ 11005 11000 10999 10996 ] final  167.69 input  -57.11 | X-H torsion

> <Gold.Protein.ActiveResidues>
 VAL166  LYS551  ARG553  GLY616  TRP617  ASP618  TYR619  PRO620  LYS621  CYS622 
 ASP623  PHE694  ASN695  SER759  ASP760  ASP761  ALA762  ILE779  LEU786  VAL792 
 PHE793  MET794  SER795  GLU796  ALA797  LYS798  CYS799  TRP800  GLU811  SER814 

> <Gold.Protein.RotatedAtoms>
  152.1001  134.9348  160.0569 H   0  0  0  0  0  0  0  0  0  0  0  0  # atno 6907 bound_to 6896
  152.0565  133.4038  159.4408 H   0  0  0  0  0  0  0  0  0  0  0  0  # atno 6908 bound_to 6896
  150.6839  134.3169  159.4813 H   0  0  0  0  0  0  0  0  0  0  0  0  # atno 6909 bound_to 6896
  144.7515  139.8429  143.6364 H   0  0  0  0  0  0  0  0  0  0  0  0  # atno 7974 bound_to 7965
  155.8134  140.3472  155.5471 H   0  0  0  0  0  0  0  0  0  0  0  0  # atno 8008 bound_to 7997
  155.8417  140.0942  157.1750 H   0  0  0  0  0  0  0  0  0  0  0  0  # atno 8009 bound_to 7997
  154.4005  140.1393  156.3724 H   0  0  0  0  0  0  0  0  0  0  0  0  # atno 8010 bound_to 7997
  139.5640  144.6900  151.3962 H   0  0  0  0  0  0  0  0  0  0  0  0  # atno 10167 bound_to 10162
  157.6875  131.0083  150.2498 H   0  0  0  0  0  0  0  0  0  0  0  0  # atno 10718 bound_to 10713
  154.6406  135.5390  153.7785 H   0  0  0  0  0  0  0  0  0  0  0  0  # atno 10763 bound_to 10752
  153.0332  135.6458  154.1165 H   0  0  0  0  0  0  0  0  0  0  0  0  # atno 10764 bound_to 10752
  154.1090  135.2928  155.3215 H   0  0  0  0  0  0  0  0  0  0  0  0  # atno 10765 bound_to 10752
  140.2794  134.7763  157.3745 H   0  0  0  0  0  0  0  0  0  0  0  0  # atno 11005 bound_to 11000
  146.1470  139.4542  143.0073 LP  0  0  0  0  0  0  0  0  0  0  0  0  # atno 17320 bound_to 7965
  145.6929  141.0159  143.1545 LP  0  0  0  0  0  0  0  0  0  0  0  0  # atno 17321 bound_to 7965
  140.6922  143.7834  150.7273 LP  0  0  0  0  0  0  0  0  0  0  0  0  # atno 17342 bound_to 10162
  140.1319  143.4518  152.2248 LP  0  0  0  0  0  0  0  0  0  0  0  0  # atno 17343 bound_to 10162
  156.3097  130.3770  149.7673 LP  0  0  0  0  0  0  0  0  0  0  0  0  # atno 17370 bound_to 10713
  156.5278  130.8244  151.3226 LP  0  0  0  0  0  0  0  0  0  0  0  0  # atno 17371 bound_to 10713
  140.1298  134.5110  155.8115 LP  0  0  0  0  0  0  0  0  0  0  0  0  # atno 17394 bound_to 11000
  141.2165  133.6786  156.7018 LP  0  0  0  0  0  0  0  0  0  0  0  0  # atno 17395 bound_to 11000

$$$$
