AV-unprocessed.smi:1965|AV-procd|sdf|7937|dock2
  -GOLD-   2272010103D 1   1.00000     0.00000
 Structure written by MMmdl.
 37 39  0  0  0  0  0  0  0  0  2 V2000
  145.1885  137.8579  153.1031 O   0  0  0  0  0  0  0  0  0  0  0  0
  146.2857  137.4258  152.7545 C   0  0  0  0  0  0  0  0  0  0  0  0
  147.4026  138.1725  152.8881 N   0  0  0  0  0  0  0  0  0  0  0  0
  147.6068  139.4892  153.3953 C   0  0  0  0  0  0  0  0  0  0  0  0
  146.7982  140.5355  153.1821 N   0  0  0  0  0  0  0  0  0  0  0  0
  147.2625  141.6979  153.8032 C   0  0  0  0  0  0  0  0  0  0  0  0
  148.4375  141.5203  154.4891 C   0  0  0  0  0  0  0  0  0  0  0  0
  149.0093  139.8773  154.3820 S   0  0  0  0  0  0  0  0  0  0  0  0
  146.4470  136.2008  152.2285 N   0  0  0  0  0  0  0  0  0  0  0  0
  145.3862  135.2236  152.0076 C   0  0  1  0  0  0  0  0  0  0  0  0
  144.5822  135.4955  150.7237 C   0  0  0  0  0  0  0  0  0  0  0  0
  144.2858  134.1065  150.1248 C   0  0  0  0  0  0  0  0  0  0  0  0
  144.8139  133.1379  151.1042 N   0  3  1  0  0  0  0  0  0  0  0  0
  145.1711  131.7946  150.5983 C   0  0  0  0  0  0  0  0  0  0  0  0
  145.6186  130.9094  151.7786 C   0  0  0  0  0  0  0  0  0  0  0  0
  146.7397  131.5768  152.6009 C   0  0  0  0  0  0  0  0  0  0  0  0
  146.3476  133.0070  153.0194 C   0  0  0  0  0  0  0  0  0  0  0  0
  145.9343  133.8132  151.7761 C   0  0  2  0  0  0  0  0  0  0  0  0
  148.2430  137.7259  152.5506 H   0  0  0  0  0  0  0  0  0  0  0  0
  146.6930  142.6103  153.7047 H   0  0  0  0  0  0  0  0  0  0  0  0
  148.9994  142.2537  155.0484 H   0  0  0  0  0  0  0  0  0  0  0  0
  147.3836  135.9260  151.9671 H   0  0  0  0  0  0  0  0  0  0  0  0
  144.6922  135.2117  152.8510 H   0  0  0  0  0  0  0  0  0  0  0  0
  143.6670  136.0462  150.9442 H   0  0  0  0  0  0  0  0  0  0  0  0
  145.1566  136.0887  150.0105 H   0  0  0  0  0  0  0  0  0  0  0  0
  143.2210  133.9439  149.9561 H   0  0  0  0  0  0  0  0  0  0  0  0
  144.8015  133.9937  149.1699 H   0  0  0  0  0  0  0  0  0  0  0  0
  144.3096  131.3497  150.0993 H   0  0  0  0  0  0  0  0  0  0  0  0
  145.9681  131.8760  149.8575 H   0  0  0  0  0  0  0  0  0  0  0  0
  144.7639  130.7166  152.4286 H   0  0  0  0  0  0  0  0  0  0  0  0
  145.9511  129.9377  151.4125 H   0  0  0  0  0  0  0  0  0  0  0  0
  146.9679  130.9766  153.4823 H   0  0  0  0  0  0  0  0  0  0  0  0
  147.6531  131.6113  152.0059 H   0  0  0  0  0  0  0  0  0  0  0  0
  145.5267  132.9733  153.7370 H   0  0  0  0  0  0  0  0  0  0  0  0
  147.1860  133.4876  153.5238 H   0  0  0  0  0  0  0  0  0  0  0  0
  146.7759  133.8658  151.0810 H   0  0  0  0  0  0  0  0  0  0  0  0
  144.0954  133.0157  151.8034 H   0  0  0  0  0  0  0  0  0  0  0  0
  1  2  2  0  0  0  0
  2  3  1  0  0  0  0
  2  9  1  0  0  0  0
  3  4  1  0  0  0  0
  3 19  1  0  0  0  0
  4  8  1  0  0  0  0
  4  5  2  0  0  0  0
  5  6  1  0  0  0  0
  6  7  2  0  0  0  0
  6 20  1  0  0  0  0
  7  8  1  0  0  0  0
  7 21  1  0  0  0  0
  9 10  1  0  0  0  0
  9 22  1  0  0  0  0
 10 18  1  0  0  0  0
 10 11  1  0  0  0  0
 10 23  1  0  0  0  0
 11 12  1  0  0  0  0
 11 24  1  0  0  0  0
 11 25  1  0  0  0  0
 12 13  1  0  0  0  0
 12 26  1  0  0  0  0
 12 27  1  0  0  0  0
 13 18  1  0  0  0  0
 13 14  1  0  0  0  0
 13 37  1  0  0  0  0
 14 15  1  0  0  0  0
 14 28  1  0  0  0  0
 14 29  1  0  0  0  0
 15 16  1  0  0  0  0
 15 30  1  0  0  0  0
 15 31  1  0  0  0  0
 16 17  1  0  0  0  0
 16 32  1  0  0  0  0
 16 33  1  0  0  0  0
 17 18  1  0  0  0  0
 17 34  1  0  0  0  0
 17 35  1  0  0  0  0
 18 36  1  0  0  0  0
M  CHG  1  13   1
M  END
> <s_m_source_file>
AV-unprocessed.smi

> <i_m_source_file_index>
1965

> <i_lp_mmshare_version>
43012

> <i_f3d_flags>
0

> <s_epik_input>
czFbY0hdW2NIXW5jMVtOSF1DKD1PKVtOSF1bQ0BIXShbQ0gyXVtDSDJdMilbQ0BASF0oTjIzKVtDSDJdW0NIMl1bQ0gyXVtDSDJdMw==

> <s_epik_cmdline>
J2VwaWtfcHl0aG9uJywgJy1waCcsICc3LjAnLCAnLXRuJywgJzgnLCAnLW1hJywgJzIwMCcsICctbWV0YWxfYmluZGluZycsICctaW1hZScsICc8aW5maWxlLm1hZT4nLCAnLW9tYWUnLCAnPG91dGZpbGUubWFlPic=

> <r_lp_tautomer_probability>
1

> <r_epik_Ionization_Penalty>
0.00125962

> <r_epik_Ionization_Penalty_Charging>
0.00107044

> <r_epik_Ionization_Penalty_Neutral>
0.000189176

> <r_epik_State_Penalty>
-0

> <r_epik_Charging_Adjusted_Penalty>
0.00107044

> <i_epik_Tot_Q>
1

> <i_epik_Tot_abs_Q>
1

> <r_epik_Metal_State_Penalty>
0.0179285

> <b_epik_Metal_Only>
0

> <s_lp_Force_Field>
OPLS_2005

> <r_lp_Energy>
35.2761

> <b_lp_Chiralities_Consistent>
1

> <s_lp_Variant>
AV-unprocessed.smi:1965-6

> <Gold.Version>
5.8.1

> <Gold.Id.Protein>
6NUR|6NUR_protein|mol2

> <Gold.PLP.Fitness>
37.7900

> <Gold.PLP.PLP>
-30.0857

> <Gold.PLP.part.hbond>
-1.9445

> <Gold.PLP.part.metal>
0.0000

> <Gold.PLP.part.buried>
-2.9182

> <Gold.PLP.part.nonpolar>
-26.0145

> <Gold.PLP.part.repulsive>
0.8611

> <Gold.PLP.ligand.clash>
0.0000

> <Gold.PLP.ligand.torsion>
0.5582

> <Gold.PLP.Chemscore.Hbond>
1.9440

> <Gold.PLP.Chemscore.CHOScore>
0.9932

> <Gold.PLP.Chemscore.Metal>
0.0000

> <Gold.Chemscore.Hbonds>
donor molecule, donor type, donor heavy atom, donor atom, acceptor molecule, acceptor atom, score
      L1  H     3    19       P1  7948  0.94
      L1  H     9    22       P1  7948  1.00
      L1  C     7    21       P1  8028  0.99

> <Gold.PLP.Chemscore.Internal.Correction>
0.0093

> <Gold.Rescore>
     Score         DG    S(hbond)    S(metal)    S(lipo)     H(rot)  DE(clash)    DE(int)     intcor
     16.97     -17.80       1.89        0.00      73.21       1.00       0.28       0.56       ----

> <Gold.Chemscore.Fitness>
16.9686

> <Gold.Chemscore.DG>
-17.8031

> <Gold.Chemscore.ZeroCoef>
-5.4800

> <Gold.Chemscore.Hbond>
1.8914

> <Gold.Chemscore.Metal>
0.0000

> <Gold.Chemscore.Lipo>
73.2115

> <Gold.Chemscore.Internal_Hbond>
0.0000

> <Gold.Chemscore.DEClash>
0.2795

> <Gold.Chemscore.DEInternal>
0.5551

> <Gold.Chemscore.Rot>
1.0000

> <Gold.Chemscore.Internal.Correction>
   9.000000E+99

> <Gold.Chemscore.Hbonds>
donor molecule, donor type, donor heavy atom, donor atom, acceptor molecule, acceptor atom, score
      L1  H     3    19       P1  7948  0.91
      L1  H     9    22       P1  7948  0.94

> <Gold.Chemscore.Hbond.Weighted>
-6.3174

> <Gold.Chemscore.Metal.Weighted>
-0.0000

> <Gold.Chemscore.Lipo.Weighted>
-8.5658

> <Gold.Chemscore.Internal_Hbond.Weighted>
0.0000

> <Gold.Chemscore.DEClash.Weighted>
0.2795

> <Gold.Chemscore.DEInternal.Weighted>
0.5551

> <Gold.Chemscore.Rot.Weighted>
2.5600

> <Gold.Chemscore.Internal.Correction.Weighted>
   9.000000E+99

> <Gold.Protein.RotatedTorsions>
[ 6907 6896 6895 6894 ] final -120.93 input  -60.11 | X-H torsion
[ 7974 7965 7964 7962 ] final  135.97 input  175.53 | X-H torsion
[ 8008 7997 7996 7995 ] final -104.56 input   59.86 | X-H torsion
[ 10167 10162 10161 10158 ] final  -33.01 input  -65.29 | X-H torsion
[ 10718 10713 10712 10709 ] final   63.58 input   66.30 | X-H torsion
[ 10763 10752 10751 10750 ] final  121.87 input  -60.55 | X-H torsion
[ 11005 11000 10999 10996 ] final -173.02 input  -57.11 | X-H torsion

> <Gold.Protein.ActiveResidues>
 VAL166  LYS551  ARG553  GLY616  TRP617  ASP618  TYR619  PRO620  LYS621  CYS622 
 ASP623  PHE694  ASN695  SER759  ASP760  ASP761  ALA762  ILE779  LEU786  VAL792 
 PHE793  MET794  SER795  GLU796  ALA797  LYS798  CYS799  TRP800  GLU811  SER814 

> <Gold.Protein.RotatedAtoms>
  150.8438  133.7894  159.3050 H   0  0  0  0  0  0  0  0  0  0  0  0  # atno 6907 bound_to 6896
  151.5587  135.1064  159.9977 H   0  0  0  0  0  0  0  0  0  0  0  0  # atno 6908 bound_to 6896
  152.4496  133.7560  159.6777 H   0  0  0  0  0  0  0  0  0  0  0  0  # atno 6909 bound_to 6896
  144.9611  139.4709  143.5479 H   0  0  0  0  0  0  0  0  0  0  0  0  # atno 7974 bound_to 7965
  154.8871  140.0417  157.1817 H   0  0  0  0  0  0  0  0  0  0  0  0  # atno 8008 bound_to 7997
  154.8579  140.2939  155.5536 H   0  0  0  0  0  0  0  0  0  0  0  0  # atno 8009 bound_to 7997
  156.2998  140.2452  156.3548 H   0  0  0  0  0  0  0  0  0  0  0  0  # atno 8010 bound_to 7997
  140.7211  143.3652  151.1885 H   0  0  0  0  0  0  0  0  0  0  0  0  # atno 10167 bound_to 10162
  157.5981  130.9113  149.9734 H   0  0  0  0  0  0  0  0  0  0  0  0  # atno 10718 bound_to 10713
  153.6209  135.3413  155.3010 H   0  0  0  0  0  0  0  0  0  0  0  0  # atno 10763 bound_to 10752
  154.8600  135.4272  154.2208 H   0  0  0  0  0  0  0  0  0  0  0  0  # atno 10764 bound_to 10752
  153.3081  135.7029  153.7213 H   0  0  0  0  0  0  0  0  0  0  0  0  # atno 10765 bound_to 10752
  140.4905  134.5989  157.4953 H   0  0  0  0  0  0  0  0  0  0  0  0  # atno 11005 bound_to 11000
  146.3353  139.8761  142.8832 LP  0  0  0  0  0  0  0  0  0  0  0  0  # atno 17320 bound_to 7965
  145.2698  141.0105  143.3778 LP  0  0  0  0  0  0  0  0  0  0  0  0  # atno 17321 bound_to 7965
  139.7212  143.9221  152.2986 LP  0  0  0  0  0  0  0  0  0  0  0  0  # atno 17342 bound_to 10162
  139.8978  144.6929  150.8698 LP  0  0  0  0  0  0  0  0  0  0  0  0  # atno 17343 bound_to 10162
  156.1048  130.3653  150.0153 LP  0  0  0  0  0  0  0  0  0  0  0  0  # atno 17370 bound_to 10713
  156.8262  130.9376  151.3639 LP  0  0  0  0  0  0  0  0  0  0  0  0  # atno 17371 bound_to 10713
  139.9772  134.7196  155.9927 LP  0  0  0  0  0  0  0  0  0  0  0  0  # atno 17394 bound_to 11000
  141.1486  133.6552  156.3944 LP  0  0  0  0  0  0  0  0  0  0  0  0  # atno 17395 bound_to 11000

$$$$
