AV-unprocessed.smi:169|AV-procd|sdf|1401|dock7
  -GOLD-   2262019153D 1   1.00000     0.00000
 Structure written by MMmdl.
 56 60  0  0  0  0  0  0  0  0  2 V2000
  145.9189  143.2097  154.9274 C   0  0  0  0  0  0  0  0  0  0  0  0
  145.9619  141.8725  155.6864 C   0  0  0  0  0  0  0  0  0  0  0  0
  147.3218  141.2808  155.7788 N   0  3  1  0  0  0  0  0  0  0  0  0
  147.9207  140.9929  154.4277 C   0  0  0  0  0  0  0  0  0  0  0  0
  149.0529  139.9008  154.4295 C   0  0  0  0  0  0  0  0  0  0  0  0
  149.9674  139.9823  155.6687 C   0  0  3  0  0  0  0  0  0  0  0  0
  151.2694  140.6886  156.0635 C   0  0  0  0  0  0  0  0  0  0  0  0
  150.7627  141.5396  157.2759 C   0  0  0  0  0  0  0  0  0  0  0  0
  149.2708  141.1128  157.4879 C   0  0  1  0  0  0  0  0  0  0  0  0
  148.2143  142.0153  156.7515 C   0  0  0  0  0  0  0  0  0  0  0  0
  149.2428  139.7787  156.9096 N   0  0  0  0  0  0  0  0  0  0  0  0
  149.5426  138.6791  157.6556 C   0  0  0  0  0  0  0  0  0  0  0  0
  150.8451  138.3224  157.8102 N   0  0  0  0  0  0  0  0  0  0  0  0
  151.1777  137.2524  158.5369 C   0  0  0  0  0  0  0  0  0  0  0  0
  150.3793  136.4141  159.1979 N   0  0  0  0  0  0  0  0  0  0  0  0
  149.0704  136.7727  159.0683 C   0  0  0  0  0  0  0  0  0  0  0  0
  148.5675  137.8771  158.3215 C   0  0  0  0  0  0  0  0  0  0  0  0
  147.1813  137.9152  158.4260 N   0  0  0  0  0  0  0  0  0  0  0  0
  146.8844  136.8938  159.1807 C   0  0  0  0  0  0  0  0  0  0  0  0
  147.9607  136.1617  159.6267 N   0  0  0  0  0  0  0  0  0  0  0  0
  147.9232  134.9804  160.4776 C   0  0  0  0  0  0  0  0  0  0  0  0
  147.0262  135.1077  161.7333 C   0  0  0  0  0  0  0  0  0  0  0  0
  147.6667  136.1410  162.6695 C   0  0  0  0  0  0  0  0  0  0  0  0
  147.4029  137.4594  162.2339 O   0  0  0  0  0  0  0  0  0  0  0  0
  145.5164  135.2852  161.4922 C   0  0  0  0  0  0  0  0  0  0  0  0
  145.2549  133.8949  161.7771 O   0  0  0  0  0  0  0  0  0  0  0  0
  146.5568  133.7999  162.3924 C   0  0  0  0  0  0  0  0  0  0  0  0
  144.9012  143.5997  154.9019 H   0  0  0  0  0  0  0  0  0  0  0  0
  146.2489  143.0994  153.8945 H   0  0  0  0  0  0  0  0  0  0  0  0
  146.5442  143.9655  155.4026 H   0  0  0  0  0  0  0  0  0  0  0  0
  145.5673  142.0109  156.6937 H   0  0  0  0  0  0  0  0  0  0  0  0
  145.2951  141.1564  155.2048 H   0  0  0  0  0  0  0  0  0  0  0  0
  147.1401  140.6657  153.7400 H   0  0  0  0  0  0  0  0  0  0  0  0
  148.3086  141.9248  154.0134 H   0  0  0  0  0  0  0  0  0  0  0  0
  148.5840  138.9163  154.4181 H   0  0  0  0  0  0  0  0  0  0  0  0
  149.6376  139.9614  153.5102 H   0  0  0  0  0  0  0  0  0  0  0  0
  149.8523  141.0109  155.3483 H   0  0  0  0  0  0  0  0  0  0  0  0
  152.0010  139.9539  156.4023 H   0  0  0  0  0  0  0  0  0  0  0  0
  151.7458  141.2811  155.2759 H   0  0  0  0  0  0  0  0  0  0  0  0
  151.3541  141.3003  158.1606 H   0  0  0  0  0  0  0  0  0  0  0  0
  150.8613  142.6112  157.1007 H   0  0  0  0  0  0  0  0  0  0  0  0
  149.0321  141.1175  158.5514 H   0  0  0  0  0  0  0  0  0  0  0  0
  148.6961  142.8479  156.2371 H   0  0  0  0  0  0  0  0  0  0  0  0
  147.5970  142.4757  157.5238 H   0  0  0  0  0  0  0  0  0  0  0  0
  152.2345  137.0389  158.5999 H   0  0  0  0  0  0  0  0  0  0  0  0
  145.8641  136.6476  159.4356 H   0  0  0  0  0  0  0  0  0  0  0  0
  147.5949  134.1458  159.8571 H   0  0  0  0  0  0  0  0  0  0  0  0
  148.9491  134.7475  160.7655 H   0  0  0  0  0  0  0  0  0  0  0  0
  147.3018  136.0260  163.6907 H   0  0  0  0  0  0  0  0  0  0  0  0
  148.7486  136.0120  162.7114 H   0  0  0  0  0  0  0  0  0  0  0  0
  147.0730  137.9577  162.9661 H   0  0  0  0  0  0  0  0  0  0  0  0
  145.0271  135.9400  162.2155 H   0  0  0  0  0  0  0  0  0  0  0  0
  145.2396  135.5709  160.4790 H   0  0  0  0  0  0  0  0  0  0  0  0
  147.1104  132.9127  162.0881 H   0  0  0  0  0  0  0  0  0  0  0  0
  146.4913  133.8540  163.4805 H   0  0  0  0  0  0  0  0  0  0  0  0
  147.1671  140.3750  156.1989 H   0  0  0  0  0  0  0  0  0  0  0  0
  1  2  1  0  0  0  0
  1 28  1  0  0  0  0
  1 29  1  0  0  0  0
  1 30  1  0  0  0  0
  2  3  1  0  0  0  0
  2 31  1  0  0  0  0
  2 32  1  0  0  0  0
  3 10  1  0  0  0  0
  3  4  1  0  0  0  0
  3 56  1  0  0  0  0
  4  5  1  0  0  0  0
  4 33  1  0  0  0  0
  4 34  1  0  0  0  0
  5  6  1  0  0  0  0
  5 35  1  0  0  0  0
  5 36  1  0  0  0  0
  6 11  1  0  0  0  0
  6  7  1  0  0  0  0
  6 37  1  0  0  0  0
  7  8  1  0  0  0  0
  7 38  1  0  0  0  0
  7 39  1  0  0  0  0
  8  9  1  0  0  0  0
  8 40  1  0  0  0  0
  8 41  1  0  0  0  0
  9 10  1  0  0  0  0
  9 11  1  0  0  0  0
  9 42  1  0  0  0  0
 10 43  1  0  0  0  0
 10 44  1  0  0  0  0
 11 12  1  0  0  0  0
 12 17  1  0  0  0  0
 12 13  2  0  0  0  0
 13 14  1  0  0  0  0
 14 15  2  0  0  0  0
 14 45  1  0  0  0  0
 15 16  1  0  0  0  0
 16 20  1  0  0  0  0
 16 17  2  0  0  0  0
 17 18  1  0  0  0  0
 18 19  2  0  0  0  0
 19 20  1  0  0  0  0
 19 46  1  0  0  0  0
 20 21  1  0  0  0  0
 21 22  1  0  0  0  0
 21 47  1  0  0  0  0
 21 48  1  0  0  0  0
 22 27  1  0  0  0  0
 22 23  1  0  0  0  0
 22 25  1  0  0  0  0
 23 24  1  0  0  0  0
 23 49  1  0  0  0  0
 23 50  1  0  0  0  0
 24 51  1  0  0  0  0
 25 26  1  0  0  0  0
 25 52  1  0  0  0  0
 25 53  1  0  0  0  0
 26 27  1  0  0  0  0
 27 54  1  0  0  0  0
 27 55  1  0  0  0  0
M  CHG  1   3   1
M  END
> <s_m_source_file>
AV-unprocessed.smi

> <i_m_source_file_index>
169

> <i_lp_mmshare_version>
43012

> <i_f3d_flags>
0

> <s_epik_input>
W0NASF0xMltDSDJdW0NIMl1OKFtDSDJdW0NIM10pW0NIMl1bQ0BIXShbQ0gyXVtDSDJdMSlOMmMobltjSF1uMyljKGMzNCluW2NIXW40W0NIMl1DNShbQ0gyXVtPSF0pW0NIMl1PW0NIMl01

> <s_epik_cmdline>
J2VwaWtfcHl0aG9uJywgJy1waCcsICc3LjAnLCAnLXRuJywgJzgnLCAnLW1hJywgJzIwMCcsICctbWV0YWxfYmluZGluZycsICctaW1hZScsICc8aW5maWxlLm1hZT4nLCAnLW9tYWUnLCAnPG91dGZpbGUubWFlPic=

> <r_lp_tautomer_probability>
1

> <r_epik_Ionization_Penalty>
0.00274162

> <r_epik_Ionization_Penalty_Charging>
0.00243722

> <r_epik_Ionization_Penalty_Neutral>
0.000304399

> <r_epik_State_Penalty>
-0

> <r_epik_Charging_Adjusted_Penalty>
0.00243722

> <i_epik_Tot_Q>
1

> <i_epik_Tot_abs_Q>
1

> <r_epik_Metal_State_Penalty>
-0

> <b_epik_Metal_Only>
0

> <s_lp_Force_Field>
OPLS_2005

> <r_lp_Energy>
128.509

> <b_lp_Chiralities_Consistent>
1

> <s_lp_Variant>
AV-unprocessed.smi:169-4

> <Gold.Version>
5.8.1

> <Gold.Id.Protein>
6NUR|6NUR_protein|mol2

> <Gold.PLP.Fitness>
45.7950

> <Gold.PLP.PLP>
-41.6638

> <Gold.PLP.part.hbond>
-3.0230

> <Gold.PLP.part.metal>
0.0000

> <Gold.PLP.part.buried>
-5.1386

> <Gold.PLP.part.nonpolar>
-33.9525

> <Gold.PLP.part.repulsive>
0.0307

> <Gold.PLP.ligand.clash>
0.0000

> <Gold.PLP.ligand.torsion>
1.2134

> <Gold.PLP.Chemscore.Hbond>
2.0440

> <Gold.PLP.Chemscore.CHOScore>
0.0000

> <Gold.PLP.Chemscore.Metal>
0.0000

> <Gold.Chemscore.Hbonds>
donor molecule, donor type, donor heavy atom, donor atom, acceptor molecule, acceptor atom, score
      P1  H  6896  6907       L1    15  1.00
      P1  H  6931  6943       L1    24  0.74
      P1  H  6934  6947       L1    24  0.34

> <Gold.PLP.Chemscore.Internal.Correction>
0.4260

> <Gold.Rescore>
     Score         DG    S(hbond)    S(metal)    S(lipo)     H(rot)  DE(clash)    DE(int)     intcor
      9.38     -12.71       1.44        0.00      78.12       2.62       0.07       3.25       ----

> <Gold.Chemscore.Fitness>
9.3811

> <Gold.Chemscore.DG>
-12.7067

> <Gold.Chemscore.ZeroCoef>
-5.4800

> <Gold.Chemscore.Hbond>
1.4363

> <Gold.Chemscore.Metal>
0.0000

> <Gold.Chemscore.Lipo>
78.1184

> <Gold.Chemscore.Internal_Hbond>
0.0000

> <Gold.Chemscore.DEClash>
0.0710

> <Gold.Chemscore.DEInternal>
3.2546

> <Gold.Chemscore.Rot>
2.6212

> <Gold.Chemscore.Internal.Correction>
   9.000000E+99

> <Gold.Chemscore.Hbonds>
donor molecule, donor type, donor heavy atom, donor atom, acceptor molecule, acceptor atom, score
      P1  H  6896  6907       L1    15  0.97
      P1  H  6931  6943       L1    24  0.13
      P1  H  6934  6947       L1    24  0.02

> <Gold.Chemscore.Hbond.Weighted>
-4.7971

> <Gold.Chemscore.Metal.Weighted>
-0.0000

> <Gold.Chemscore.Lipo.Weighted>
-9.1399

> <Gold.Chemscore.Internal_Hbond.Weighted>
0.0000

> <Gold.Chemscore.DEClash.Weighted>
0.0710

> <Gold.Chemscore.DEInternal.Weighted>
3.2546

> <Gold.Chemscore.Rot.Weighted>
6.7102

> <Gold.Chemscore.Internal.Correction.Weighted>
   9.000000E+99

> <Gold.Protein.RotatedTorsions>
[ 6907 6896 6895 6894 ] final  -49.60 input  -60.11 | X-H torsion
[ 7974 7965 7964 7962 ] final -159.23 input  175.53 | X-H torsion
[ 8008 7997 7996 7995 ] final   67.77 input   59.86 | X-H torsion
[ 10167 10162 10161 10158 ] final -118.20 input  -65.29 | X-H torsion
[ 10718 10713 10712 10709 ] final   52.39 input   66.30 | X-H torsion
[ 10763 10752 10751 10750 ] final  -83.45 input  -60.55 | X-H torsion
[ 11005 11000 10999 10996 ] final  109.55 input  -57.11 | X-H torsion

> <Gold.Protein.ActiveResidues>
 VAL166  LYS551  ARG553  GLY616  TRP617  ASP618  TYR619  PRO620  LYS621  CYS622 
 ASP623  PHE694  ASN695  SER759  ASP760  ASP761  ALA762  ILE779  LEU786  VAL792 
 PHE793  MET794  SER795  GLU796  ALA797  LYS798  CYS799  TRP800  GLU811  SER814 

> <Gold.Protein.RotatedAtoms>
  150.8789  134.8176  159.7209 H   0  0  0  0  0  0  0  0  0  0  0  0  # atno 6907 bound_to 6896
  152.4765  134.4828  159.9681 H   0  0  0  0  0  0  0  0  0  0  0  0  # atno 6908 bound_to 6896
  151.4905  133.3487  159.2888 H   0  0  0  0  0  0  0  0  0  0  0  0  # atno 6909 bound_to 6896
  144.7473  140.3714  143.6075 H   0  0  0  0  0  0  0  0  0  0  0  0  # atno 7974 bound_to 7965
  155.6979  140.3495  155.4921 H   0  0  0  0  0  0  0  0  0  0  0  0  # atno 8008 bound_to 7997
  155.9466  140.1111  157.1034 H   0  0  0  0  0  0  0  0  0  0  0  0  # atno 8009 bound_to 7997
  154.4113  140.1202  156.4983 H   0  0  0  0  0  0  0  0  0  0  0  0  # atno 8010 bound_to 7997
  140.0601  143.4976  152.2036 H   0  0  0  0  0  0  0  0  0  0  0  0  # atno 10167 bound_to 10162
  157.5070  130.8476  149.8388 H   0  0  0  0  0  0  0  0  0  0  0  0  # atno 10718 bound_to 10713
  154.5878  135.5555  153.7249 H   0  0  0  0  0  0  0  0  0  0  0  0  # atno 10763 bound_to 10752
  153.0105  135.6336  154.1891 H   0  0  0  0  0  0  0  0  0  0  0  0  # atno 10764 bound_to 10752
  154.1832  135.2886  155.3025 H   0  0  0  0  0  0  0  0  0  0  0  0  # atno 10765 bound_to 10752
  139.8864  134.9461  156.6143 H   0  0  0  0  0  0  0  0  0  0  0  0  # atno 11005 bound_to 11000
  145.7074  139.1676  143.2558 LP  0  0  0  0  0  0  0  0  0  0  0  0  # atno 17320 bound_to 7965
  146.1372  140.7107  142.9384 LP  0  0  0  0  0  0  0  0  0  0  0  0  # atno 17321 bound_to 7965
  139.5899  144.7546  151.3426 LP  0  0  0  0  0  0  0  0  0  0  0  0  # atno 17342 bound_to 10162
  140.7176  143.7224  150.7686 LP  0  0  0  0  0  0  0  0  0  0  0  0  # atno 17343 bound_to 10162
  156.0265  130.3778  150.1809 LP  0  0  0  0  0  0  0  0  0  0  0  0  # atno 17370 bound_to 10713
  156.9999  130.9919  151.3393 LP  0  0  0  0  0  0  0  0  0  0  0  0  # atno 17371 bound_to 10713
  140.7788  133.8677  155.8551 LP  0  0  0  0  0  0  0  0  0  0  0  0  # atno 17394 bound_to 11000
  140.9778  134.1445  157.4520 LP  0  0  0  0  0  0  0  0  0  0  0  0  # atno 17395 bound_to 11000

$$$$
