AV-unprocessed.smi:1350|AV-procd|sdf|5520|dock6
  -GOLD-   22720 5103D 1   1.00000     0.00000
 Structure written by MMmdl.
 43 45  0  0  0  0  0  0  0  0  1 V2000
  150.7190  143.4679  158.9358 C   0  0  0  0  0  0  0  0  0  0  0  0
  151.0535  142.0879  158.9090 O   0  0  0  0  0  0  0  0  0  0  0  0
  152.1628  141.6643  159.6128 C   0  0  0  0  0  0  0  0  0  0  0  0
  152.7409  142.4095  160.6733 C   0  0  0  0  0  0  0  0  0  0  0  0
  153.8733  141.9283  161.3573 C   0  0  0  0  0  0  0  0  0  0  0  0
  154.4455  140.6971  160.9942 C   0  0  0  0  0  0  0  0  0  0  0  0
  153.8828  139.9485  159.9456 C   0  0  0  0  0  0  0  0  0  0  0  0
  152.7497  140.4245  159.2527 C   0  0  0  0  0  0  0  0  0  0  0  0
  152.1769  139.5679  158.1352 C   0  0  0  0  0  0  0  0  0  0  0  0
  152.3574  140.1822  156.8702 O   0  0  0  0  0  0  0  0  0  0  0  0
  151.2115  140.8945  156.4338 C   0  0  0  0  0  0  0  0  0  0  0  0
  150.3675  139.9810  155.5341 C   0  0  2  0  0  0  0  0  0  0  0  0
  151.1839  139.5039  154.4825 O   0  0  0  0  0  0  0  0  0  0  0  0
  149.1348  140.7000  154.9528 C   0  0  0  0  0  0  0  0  0  0  0  0
  148.0526  140.8014  155.9147 N   0  0  0  0  0  0  0  0  0  0  0  0
  148.0565  140.3873  157.1965 C   0  0  0  0  0  0  0  0  0  0  0  0
  146.9475  140.5843  157.9042 N   0  0  0  0  0  0  0  0  0  0  0  0
  146.1276  141.1981  156.9726 C   0  0  0  0  0  0  0  0  0  0  0  0
  144.8005  141.6707  157.0879 C   0  0  0  0  0  0  0  0  0  0  0  0
  144.1577  142.2710  155.9851 C   0  0  0  0  0  0  0  0  0  0  0  0
  144.8296  142.4078  154.7528 C   0  0  0  0  0  0  0  0  0  0  0  0
  146.1523  141.9454  154.6141 C   0  0  0  0  0  0  0  0  0  0  0  0
  146.7896  141.3473  155.7169 C   0  0  0  0  0  0  0  0  0  0  0  0
  149.8303  143.6332  158.3270 H   0  0  0  0  0  0  0  0  0  0  0  0
  151.5200  144.0812  158.5209 H   0  0  0  0  0  0  0  0  0  0  0  0
  150.4916  143.8037  159.9483 H   0  0  0  0  0  0  0  0  0  0  0  0
  152.3332  143.3587  160.9854 H   0  0  0  0  0  0  0  0  0  0  0  0
  154.3027  142.5056  162.1627 H   0  0  0  0  0  0  0  0  0  0  0  0
  155.3135  140.3268  161.5194 H   0  0  0  0  0  0  0  0  0  0  0  0
  154.3248  139.0017  159.6711 H   0  0  0  0  0  0  0  0  0  0  0  0
  152.6896  138.6050  158.1518 H   0  0  0  0  0  0  0  0  0  0  0  0
  151.1179  139.3636  158.2920 H   0  0  0  0  0  0  0  0  0  0  0  0
  150.6262  141.2390  157.2882 H   0  0  0  0  0  0  0  0  0  0  0  0
  151.5289  141.7769  155.8753 H   0  0  0  0  0  0  0  0  0  0  0  0
  150.0454  139.1157  156.1153 H   0  0  0  0  0  0  0  0  0  0  0  0
  151.3018  138.5728  154.5926 H   0  0  0  0  0  0  0  0  0  0  0  0
  149.3997  141.7097  154.6368 H   0  0  0  0  0  0  0  0  0  0  0  0
  148.7695  140.1817  154.0649 H   0  0  0  0  0  0  0  0  0  0  0  0
  148.9243  139.9172  157.6361 H   0  0  0  0  0  0  0  0  0  0  0  0
  144.2764  141.5717  158.0269 H   0  0  0  0  0  0  0  0  0  0  0  0
  143.1435  142.6286  156.0852 H   0  0  0  0  0  0  0  0  0  0  0  0
  144.3292  142.8687  153.9138 H   0  0  0  0  0  0  0  0  0  0  0  0
  146.6717  142.0490  153.6729 H   0  0  0  0  0  0  0  0  0  0  0  0
  1  2  1  0  0  0  0
  1 24  1  0  0  0  0
  1 25  1  0  0  0  0
  1 26  1  0  0  0  0
  2  3  1  0  0  0  0
  3  8  1  0  0  0  0
  3  4  2  0  0  0  0
  4  5  1  0  0  0  0
  4 27  1  0  0  0  0
  5  6  2  0  0  0  0
  5 28  1  0  0  0  0
  6  7  1  0  0  0  0
  6 29  1  0  0  0  0
  7  8  2  0  0  0  0
  7 30  1  0  0  0  0
  8  9  1  0  0  0  0
  9 10  1  0  0  0  0
  9 31  1  0  0  0  0
  9 32  1  0  0  0  0
 10 11  1  0  0  0  0
 11 12  1  0  0  0  0
 11 33  1  0  0  0  0
 11 34  1  0  0  0  0
 12 13  1  0  0  0  0
 12 14  1  0  0  0  0
 12 35  1  0  0  0  0
 13 36  1  0  0  0  0
 14 15  1  0  0  0  0
 14 37  1  0  0  0  0
 14 38  1  0  0  0  0
 15 23  1  0  0  0  0
 15 16  1  0  0  0  0
 16 17  2  0  0  0  0
 16 39  1  0  0  0  0
 17 18  1  0  0  0  0
 18 23  2  0  0  0  0
 18 19  1  0  0  0  0
 19 20  2  0  0  0  0
 19 40  1  0  0  0  0
 20 21  1  0  0  0  0
 20 41  1  0  0  0  0
 21 22  2  0  0  0  0
 21 42  1  0  0  0  0
 22 23  1  0  0  0  0
 22 43  1  0  0  0  0
M  END
> <s_m_source_file>
AV-unprocessed.smi

> <i_m_source_file_index>
1350

> <i_lp_mmshare_version>
43012

> <i_f3d_flags>
0

> <s_epik_input>
W0NIM11PYzFbY0hdW2NIXVtjSF1bY0hdYzFbQ0gyXU9bQ0gyXVtDQEhdKFtPSF0pW0NIMl1uKFtjSF1uMiljKGMyMylbY0hdW2NIXVtjSF1bY0hdMw==

> <s_epik_cmdline>
J2VwaWtfcHl0aG9uJywgJy1waCcsICc3LjAnLCAnLXRuJywgJzgnLCAnLW1hJywgJzIwMCcsICctbWV0YWxfYmluZGluZycsICctaW1hZScsICc8aW5maWxlLm1hZT4nLCAnLW9tYWUnLCAnPG91dGZpbGUubWFlPic=

> <r_lp_tautomer_probability>
1

> <r_epik_Ionization_Penalty>
0.0713119

> <r_epik_Ionization_Penalty_Charging>
0

> <r_epik_Ionization_Penalty_Neutral>
0.0713119

> <r_epik_State_Penalty>
0.06259

> <r_epik_Charging_Adjusted_Penalty>
0.06259

> <i_epik_Tot_Q>
0

> <i_epik_Tot_abs_Q>
0

> <r_epik_Metal_State_Penalty>
6.60119e-05

> <b_epik_Metal_Only>
0

> <s_lp_Force_Field>
OPLS_2005

> <r_lp_Energy>
18.6906

> <b_lp_Chiralities_Consistent>
1

> <s_lp_Variant>
AV-unprocessed.smi:1350-1

> <Gold.Version>
5.8.1

> <Gold.Id.Protein>
6NUR|6NUR_protein|mol2

> <Gold.PLP.Fitness>
50.7317

> <Gold.PLP.PLP>
-47.4341

> <Gold.PLP.part.hbond>
-2.0000

> <Gold.PLP.part.metal>
0.0000

> <Gold.PLP.part.buried>
-4.6677

> <Gold.PLP.part.nonpolar>
-40.0069

> <Gold.PLP.part.repulsive>
0.1111

> <Gold.PLP.ligand.clash>
0.0000

> <Gold.PLP.ligand.torsion>
1.0290

> <Gold.PLP.Chemscore.Hbond>
1.7413

> <Gold.PLP.Chemscore.CHOScore>
0.0000

> <Gold.PLP.Chemscore.Metal>
0.0000

> <Gold.Chemscore.Hbonds>
donor molecule, donor type, donor heavy atom, donor atom, acceptor molecule, acceptor atom, score
      P1  H  7989  7998       L1    13  1.00
      P1  H  7997  8008       L1    10  1.00

> <Gold.PLP.Chemscore.Internal.Correction>
0.1320

> <Gold.Rescore>
     Score         DG    S(hbond)    S(metal)    S(lipo)     H(rot)  DE(clash)    DE(int)     intcor
     13.55     -15.09       0.91        0.00     113.75       2.63       0.08       1.46       ----

> <Gold.Chemscore.Fitness>
13.5469

> <Gold.Chemscore.DG>
-15.0894

> <Gold.Chemscore.ZeroCoef>
-5.4800

> <Gold.Chemscore.Hbond>
0.9090

> <Gold.Chemscore.Metal>
0.0000

> <Gold.Chemscore.Lipo>
113.7454

> <Gold.Chemscore.Internal_Hbond>
0.0000

> <Gold.Chemscore.DEClash>
0.0776

> <Gold.Chemscore.DEInternal>
1.4649

> <Gold.Chemscore.Rot>
2.6308

> <Gold.Chemscore.Internal.Correction>
   9.000000E+99

> <Gold.Chemscore.Hbonds>
donor molecule, donor type, donor heavy atom, donor atom, acceptor molecule, acceptor atom, score
      P1  H  7989  7998       L1    13  0.70
      P1  H  7997  8008       L1    10  0.46

> <Gold.Chemscore.Hbond.Weighted>
-3.0360

> <Gold.Chemscore.Metal.Weighted>
-0.0000

> <Gold.Chemscore.Lipo.Weighted>
-13.3082

> <Gold.Chemscore.Internal_Hbond.Weighted>
0.0000

> <Gold.Chemscore.DEClash.Weighted>
0.0776

> <Gold.Chemscore.DEInternal.Weighted>
1.4649

> <Gold.Chemscore.Rot.Weighted>
6.7347

> <Gold.Chemscore.Internal.Correction.Weighted>
   9.000000E+99

> <Gold.Protein.RotatedTorsions>
[ 6907 6896 6895 6894 ] final -174.75 input  -60.11 | X-H torsion
[ 7974 7965 7964 7962 ] final  -84.82 input  175.53 | X-H torsion
[ 8008 7997 7996 7995 ] final  -54.42 input   59.86 | X-H torsion
[ 10167 10162 10161 10158 ] final   97.14 input  -65.29 | X-H torsion
[ 10718 10713 10712 10709 ] final -146.84 input   66.30 | X-H torsion
[ 10763 10752 10751 10750 ] final  116.28 input  -60.55 | X-H torsion
[ 11005 11000 10999 10996 ] final  -94.66 input  -57.11 | X-H torsion

> <Gold.Protein.ActiveResidues>
 VAL166  LYS551  ARG553  GLY616  TRP617  ASP618  TYR619  PRO620  LYS621  CYS622 
 ASP623  PHE694  ASN695  SER759  ASP760  ASP761  ALA762  ILE779  LEU786  VAL792 
 PHE793  MET794  SER795  GLU796  ALA797  LYS798  CYS799  TRP800  GLU811  SER814 

> <Gold.Protein.RotatedAtoms>
  151.5773  133.3382  159.3001 H   0  0  0  0  0  0  0  0  0  0  0  0  # atno 6907 bound_to 6896
  150.8333  134.7598  159.6883 H   0  0  0  0  0  0  0  0  0  0  0  0  # atno 6908 bound_to 6896
  152.4413  134.5591  159.9940 H   0  0  0  0  0  0  0  0  0  0  0  0  # atno 6909 bound_to 6896
  145.5015  140.9547  143.1757 H   0  0  0  0  0  0  0  0  0  0  0  0  # atno 7974 bound_to 7965
  154.4162  140.1177  156.5312 H   0  0  0  0  0  0  0  0  0  0  0  0  # atno 8008 bound_to 7997
  155.6603  140.3496  155.4761 H   0  0  0  0  0  0  0  0  0  0  0  0  # atno 8009 bound_to 7997
  155.9718  140.1143  157.0795 H   0  0  0  0  0  0  0  0  0  0  0  0  # atno 8010 bound_to 7997
  139.7828  144.6882  150.9998 H   0  0  0  0  0  0  0  0  0  0  0  0  # atno 10167 bound_to 10162
  156.3999  130.7929  151.2138 H   0  0  0  0  0  0  0  0  0  0  0  0  # atno 10718 bound_to 10713
  153.5349  135.3570  155.2692 H   0  0  0  0  0  0  0  0  0  0  0  0  # atno 10763 bound_to 10752
  154.8723  135.4077  154.3109 H   0  0  0  0  0  0  0  0  0  0  0  0  # atno 10764 bound_to 10752
  153.3805  135.7068  153.6637 H   0  0  0  0  0  0  0  0  0  0  0  0  # atno 10765 bound_to 10752
  141.1464  133.7972  157.0329 H   0  0  0  0  0  0  0  0  0  0  0  0  # atno 11005 bound_to 11000
  144.7777  139.6593  143.7167 LP  0  0  0  0  0  0  0  0  0  0  0  0  # atno 17320 bound_to 7965
  146.2223  139.5658  142.9610 LP  0  0  0  0  0  0  0  0  0  0  0  0  # atno 17321 bound_to 7965
  140.7819  143.4464  151.0476 LP  0  0  0  0  0  0  0  0  0  0  0  0  # atno 17342 bound_to 10162
  139.8144  143.7906  152.3173 LP  0  0  0  0  0  0  0  0  0  0  0  0  # atno 17343 bound_to 10162
  157.7503  131.0290  150.4072 LP  0  0  0  0  0  0  0  0  0  0  0  0  # atno 17370 bound_to 10713
  156.4350  130.3980  149.6735 LP  0  0  0  0  0  0  0  0  0  0  0  0  # atno 17371 bound_to 10713
  140.0742  134.9685  157.1518 LP  0  0  0  0  0  0  0  0  0  0  0  0  # atno 17394 bound_to 11000
  140.3667  134.2435  155.7181 LP  0  0  0  0  0  0  0  0  0  0  0  0  # atno 17395 bound_to 11000

$$$$
