AV-unprocessed.smi:2063|AV-procd|sdf|8410|dock7
  -GOLD-   2272011103D 1   1.00000     0.00000
 Structure written by MMmdl.
 39 40  0  0  0  0  0  0  0  0  1 V2000
  152.0287  140.2589  158.6114 C   0  0  0  0  0  0  0  0  0  0  0  0
  151.4243  140.8429  157.3260 C   0  0  0  0  0  0  0  0  0  0  0  0
  150.1658  141.6853  157.5802 C   0  0  0  0  0  0  0  0  0  0  0  0
  151.1998  139.7945  156.2811 C   0  0  0  0  0  0  0  0  0  0  0  0
  151.8050  139.8148  155.0858 N   0  0  0  0  0  0  0  0  0  0  0  0
  151.4377  138.7400  154.2890 N   0  0  0  0  0  0  0  0  0  0  0  0
  150.5629  137.9354  154.9074 C   0  0  0  0  0  0  0  0  0  0  0  0
  150.0209  136.7605  154.3224 N   0  0  0  0  0  0  0  0  0  0  0  0
  149.8508  135.5512  154.8851 C   0  0  0  0  0  0  0  0  0  0  0  0
  150.1547  135.2555  156.0411 O   0  0  0  0  0  0  0  0  0  0  0  0
  149.2994  134.6885  154.0184 N   0  0  0  0  0  0  0  0  0  0  0  0
  148.9686  133.2934  154.3008 C   0  0  2  0  0  0  0  0  0  0  0  0
  150.2414  132.5780  154.7798 C   0  0  0  0  0  0  0  0  0  0  0  0
  148.3646  132.6310  153.0449 C   0  0  1  0  0  0  0  0  0  0  0  0
  147.7391  131.2560  153.2837 C   0  0  0  0  0  0  0  0  0  0  0  0
  146.7327  131.1189  152.1522 C   0  0  0  0  0  0  0  0  0  0  0  0
  146.5567  132.5489  151.6353 C   0  0  0  0  0  0  0  0  0  0  0  0
  147.2521  133.3693  152.5631 O   0  0  0  0  0  0  0  0  0  0  0  0
  150.1142  138.4309  156.5303 S   0  0  0  0  0  0  0  0  0  0  0  0
  152.9640  139.7381  158.4033 H   0  0  0  0  0  0  0  0  0  0  0  0
  151.3494  139.5481  159.0830 H   0  0  0  0  0  0  0  0  0  0  0  0
  152.2423  141.0444  159.3366 H   0  0  0  0  0  0  0  0  0  0  0  0
  152.1718  141.5257  156.9200 H   0  0  0  0  0  0  0  0  0  0  0  0
  149.8167  142.1556  156.6603 H   0  0  0  0  0  0  0  0  0  0  0  0
  150.3632  142.4783  158.3018 H   0  0  0  0  0  0  0  0  0  0  0  0
  149.3518  141.0747  157.9728 H   0  0  0  0  0  0  0  0  0  0  0  0
  149.7281  136.8516  153.3610 H   0  0  0  0  0  0  0  0  0  0  0  0
  149.0824  135.0235  153.0914 H   0  0  0  0  0  0  0  0  0  0  0  0
  148.2388  133.2467  155.1112 H   0  0  0  0  0  0  0  0  0  0  0  0
  150.0350  131.5460  155.0637 H   0  0  0  0  0  0  0  0  0  0  0  0
  150.6653  133.0749  155.6531 H   0  0  0  0  0  0  0  0  0  0  0  0
  151.0055  132.5629  154.0018 H   0  0  0  0  0  0  0  0  0  0  0  0
  149.1127  132.5648  152.2518 H   0  0  0  0  0  0  0  0  0  0  0  0
  148.4756  130.4520  153.2928 H   0  0  0  0  0  0  0  0  0  0  0  0
  147.2147  131.2430  154.2404 H   0  0  0  0  0  0  0  0  0  0  0  0
  147.1103  130.4702  151.3610 H   0  0  0  0  0  0  0  0  0  0  0  0
  145.7932  130.6981  152.5123 H   0  0  0  0  0  0  0  0  0  0  0  0
  147.0096  132.6590  150.6490 H   0  0  0  0  0  0  0  0  0  0  0  0
  145.5092  132.8428  151.5637 H   0  0  0  0  0  0  0  0  0  0  0  0
  1  2  1  0  0  0  0
  1 20  1  0  0  0  0
  1 21  1  0  0  0  0
  1 22  1  0  0  0  0
  2  3  1  0  0  0  0
  2  4  1  0  0  0  0
  2 23  1  0  0  0  0
  3 24  1  0  0  0  0
  3 25  1  0  0  0  0
  3 26  1  0  0  0  0
  4 19  1  0  0  0  0
  4  5  2  0  0  0  0
  5  6  1  0  0  0  0
  6  7  2  0  0  0  0
  7  8  1  0  0  0  0
  7 19  1  0  0  0  0
  8  9  1  0  0  0  0
  8 27  1  0  0  0  0
  9 10  2  0  0  0  0
  9 11  1  0  0  0  0
 11 12  1  0  0  0  0
 11 28  1  0  0  0  0
 12 13  1  0  0  0  0
 12 14  1  0  0  0  0
 12 29  1  0  0  0  0
 13 30  1  0  0  0  0
 13 31  1  0  0  0  0
 13 32  1  0  0  0  0
 14 18  1  0  0  0  0
 14 15  1  0  0  0  0
 14 33  1  0  0  0  0
 15 16  1  0  0  0  0
 15 34  1  0  0  0  0
 15 35  1  0  0  0  0
 16 17  1  0  0  0  0
 16 36  1  0  0  0  0
 16 37  1  0  0  0  0
 17 18  1  0  0  0  0
 17 38  1  0  0  0  0
 17 39  1  0  0  0  0
M  END
> <s_m_source_file>
AV-unprocessed.smi

> <i_m_source_file_index>
2063

> <i_lp_mmshare_version>
43012

> <i_f3d_flags>
0

> <s_epik_input>
W0NIM11bQ0hdKFtDSDNdKWMxbm5jKHMxKVtOSF1DKD1PKVtOSF1bQ0BIXShbQ0gzXSlbQ0BASF0yW0NIMl1bQ0gyXVtDSDJdTzI=

> <s_epik_cmdline>
J2VwaWtfcHl0aG9uJywgJy1waCcsICc3LjAnLCAnLXRuJywgJzgnLCAnLW1hJywgJzIwMCcsICctbWV0YWxfYmluZGluZycsICctaW1hZScsICc8aW5maWxlLm1hZT4nLCAnLW9tYWUnLCAnPG91dGZpbGUubWFlPic=

> <r_lp_tautomer_probability>
1

> <r_epik_Ionization_Penalty>
0.00050567

> <r_epik_Ionization_Penalty_Charging>
0

> <r_epik_Ionization_Penalty_Neutral>
0.00050567

> <r_epik_State_Penalty>
-0

> <r_epik_Charging_Adjusted_Penalty>
0

> <i_epik_Tot_Q>
0

> <i_epik_Tot_abs_Q>
0

> <r_epik_Metal_State_Penalty>
0.219912

> <b_epik_Metal_Only>
0

> <s_lp_Force_Field>
OPLS_2005

> <r_lp_Energy>
10.8912

> <b_lp_Chiralities_Consistent>
1

> <s_lp_Variant>
AV-unprocessed.smi:2063-3

> <Gold.Version>
5.8.1

> <Gold.Id.Protein>
6NUR|6NUR_protein|mol2

> <Gold.PLP.Fitness>
35.0679

> <Gold.PLP.PLP>
-28.4420

> <Gold.PLP.part.hbond>
-3.8120

> <Gold.PLP.part.metal>
0.0000

> <Gold.PLP.part.buried>
-3.2606

> <Gold.PLP.part.nonpolar>
-22.2971

> <Gold.PLP.part.repulsive>
0.4203

> <Gold.PLP.ligand.clash>
0.0000

> <Gold.PLP.ligand.torsion>
0.4798

> <Gold.PLP.Chemscore.Hbond>
2.4960

> <Gold.PLP.Chemscore.CHOScore>
0.0000

> <Gold.PLP.Chemscore.Metal>
0.0000

> <Gold.Chemscore.Hbonds>
donor molecule, donor type, donor heavy atom, donor atom, acceptor molecule, acceptor atom, score
      L1  H     8    27       P1  7948  1.00
      L1  H    11    28       P1  7948  0.75
      P1  H  7989  7998       L1     5  0.30

> <Gold.PLP.Chemscore.Internal.Correction>
0.0975

> <Gold.Rescore>
     Score         DG    S(hbond)    S(metal)    S(lipo)     H(rot)  DE(clash)    DE(int)     intcor
     12.52     -14.08       1.73        0.00      55.16       1.42       0.00       1.56       ----

> <Gold.Chemscore.Fitness>
12.5155

> <Gold.Chemscore.DG>
-14.0807

> <Gold.Chemscore.ZeroCoef>
-5.4800

> <Gold.Chemscore.Hbond>
1.7275

> <Gold.Chemscore.Metal>
0.0000

> <Gold.Chemscore.Lipo>
55.1618

> <Gold.Chemscore.Internal_Hbond>
0.0000

> <Gold.Chemscore.DEClash>
0.0042

> <Gold.Chemscore.DEInternal>
1.5611

> <Gold.Chemscore.Rot>
1.4152

> <Gold.Chemscore.Internal.Correction>
   9.000000E+99

> <Gold.Chemscore.Hbonds>
donor molecule, donor type, donor heavy atom, donor atom, acceptor molecule, acceptor atom, score
      L1  H     8    27       P1  7948  0.48
      L1  H    11    28       P1  7948  0.09

> <Gold.Chemscore.Hbond.Weighted>
-5.7697

> <Gold.Chemscore.Metal.Weighted>
-0.0000

> <Gold.Chemscore.Lipo.Weighted>
-6.4539

> <Gold.Chemscore.Internal_Hbond.Weighted>
0.0000

> <Gold.Chemscore.DEClash.Weighted>
0.0042

> <Gold.Chemscore.DEInternal.Weighted>
1.5611

> <Gold.Chemscore.Rot.Weighted>
3.6229

> <Gold.Chemscore.Internal.Correction.Weighted>
   9.000000E+99

> <Gold.Protein.RotatedTorsions>
[ 6907 6896 6895 6894 ] final  -14.84 input  -60.11 | X-H torsion
[ 7974 7965 7964 7962 ] final -177.33 input  175.53 | X-H torsion
[ 8008 7997 7996 7995 ] final  -59.67 input   59.86 | X-H torsion
[ 10167 10162 10161 10158 ] final  -14.46 input  -65.29 | X-H torsion
[ 10718 10713 10712 10709 ] final    8.33 input   66.30 | X-H torsion
[ 10763 10752 10751 10750 ] final   82.85 input  -60.55 | X-H torsion
[ 11005 11000 10999 10996 ] final -131.66 input  -57.11 | X-H torsion

> <Gold.Protein.ActiveResidues>
 VAL166  LYS551  ARG553  GLY616  TRP617  ASP618  TYR619  PRO620  LYS621  CYS622 
 ASP623  PHE694  ASN695  SER759  ASP760  ASP761  ALA762  ILE779  LEU786  VAL792 
 PHE793  MET794  SER795  GLU796  ALA797  LYS798  CYS799  TRP800  GLU811  SER814 

> <Gold.Protein.RotatedAtoms>
  151.3332  135.0846  159.9345 H   0  0  0  0  0  0  0  0  0  0  0  0  # atno 6907 bound_to 6896
  152.5229  133.9522  159.7688 H   0  0  0  0  0  0  0  0  0  0  0  0  # atno 6908 bound_to 6896
  150.9865  133.6140  159.2744 H   0  0  0  0  0  0  0  0  0  0  0  0  # atno 6909 bound_to 6896
  144.7127  140.1035  143.6415 H   0  0  0  0  0  0  0  0  0  0  0  0  # atno 7974 bound_to 7965
  154.4363  140.1056  156.6153 H   0  0  0  0  0  0  0  0  0  0  0  0  # atno 8008 bound_to 7997
  155.5766  140.3490  155.4510 H   0  0  0  0  0  0  0  0  0  0  0  0  # atno 8009 bound_to 7997
  156.0350  140.1269  157.0207 H   0  0  0  0  0  0  0  0  0  0  0  0  # atno 8010 bound_to 7997
  140.7201  143.5319  150.9510 H   0  0  0  0  0  0  0  0  0  0  0  0  # atno 10167 bound_to 10162
  156.9501  130.5893  149.5656 H   0  0  0  0  0  0  0  0  0  0  0  0  # atno 10718 bound_to 10713
  153.1239  135.4713  154.9240 H   0  0  0  0  0  0  0  0  0  0  0  0  # atno 10763 bound_to 10752
  154.7601  135.3129  154.8397 H   0  0  0  0  0  0  0  0  0  0  0  0  # atno 10764 bound_to 10752
  153.8955  135.6880  153.4812 H   0  0  0  0  0  0  0  0  0  0  0  0  # atno 10765 bound_to 10752
  140.9239  134.1409  157.4292 H   0  0  0  0  0  0  0  0  0  0  0  0  # atno 11005 bound_to 11000
  145.9517  139.2738  143.1208 LP  0  0  0  0  0  0  0  0  0  0  0  0  # atno 17320 bound_to 7965
  145.9316  140.9044  143.0353 LP  0  0  0  0  0  0  0  0  0  0  0  0  # atno 17321 bound_to 7965
  139.9039  143.6802  152.3126 LP  0  0  0  0  0  0  0  0  0  0  0  0  # atno 17342 bound_to 10162
  139.7161  144.7611  151.1032 LP  0  0  0  0  0  0  0  0  0  0  0  0  # atno 17343 bound_to 10162
  156.0366  130.5453  150.8670 LP  0  0  0  0  0  0  0  0  0  0  0  0  # atno 17370 bound_to 10713
  157.5728  131.0946  150.9392 LP  0  0  0  0  0  0  0  0  0  0  0  0  # atno 17371 bound_to 10713
  139.8781  134.9981  156.5882 LP  0  0  0  0  0  0  0  0  0  0  0  0  # atno 17394 bound_to 11000
  140.7952  133.8550  155.8680 LP  0  0  0  0  0  0  0  0  0  0  0  0  # atno 17395 bound_to 11000

$$$$
