AV-unprocessed.smi:548|AV-procd|sdf|2891|dock6
  -GOLD-   2262023383D 1   1.00000     0.00000
 Structure written by MMmdl.
 24 24  0  0  0  0  0  0  0  0  2 V2000
  150.8451  137.6096  158.2993 C   0  0  0  0  0  0  0  0  0  0  0  0
  151.6910  138.6378  157.5083 C   0  0  0  0  0  0  0  0  0  0  0  0
  152.3121  139.6456  158.5065 C   0  0  0  0  0  0  0  0  0  0  0  0
  152.8379  137.8852  156.7763 C   0  0  0  0  0  0  0  0  0  0  0  0
  153.7050  138.5683  156.1860 O   0  0  0  0  0  0  0  0  0  0  0  0
  152.8170  136.6334  156.7839 O   0  5  0  0  0  0  0  0  0  0  0  0
  150.7949  139.3872  156.4947 C   0  0  0  0  0  0  0  0  0  0  0  0
  149.7292  140.2552  156.8533 C   0  0  0  0  0  0  0  0  0  0  0  0
  148.9772  140.8864  155.8436 C   0  0  0  0  0  0  0  0  0  0  0  0
  149.3096  140.6337  154.4998 C   0  0  0  0  0  0  0  0  0  0  0  0
  148.5887  141.2399  153.4741 N   0  0  0  0  0  0  0  0  0  0  0  0
  150.3148  139.8148  154.1341 N   0  0  0  0  0  0  0  0  0  0  0  0
  151.0297  139.2143  155.1093 C   0  0  0  0  0  0  0  0  0  0  0  0
  150.3173  136.9233  157.6356 H   0  0  0  0  0  0  0  0  0  0  0  0
  150.0918  138.0964  158.9188 H   0  0  0  0  0  0  0  0  0  0  0  0
  151.4661  137.0116  158.9681 H   0  0  0  0  0  0  0  0  0  0  0  0
  152.8542  140.4416  157.9936 H   0  0  0  0  0  0  0  0  0  0  0  0
  153.0094  139.1552  159.1874 H   0  0  0  0  0  0  0  0  0  0  0  0
  151.5518  140.1243  159.1236 H   0  0  0  0  0  0  0  0  0  0  0  0
  149.4635  140.4576  157.8795 H   0  0  0  0  0  0  0  0  0  0  0  0
  148.1643  141.5489  156.1017 H   0  0  0  0  0  0  0  0  0  0  0  0
  147.8210  141.8664  153.6673 H   0  0  0  0  0  0  0  0  0  0  0  0
  148.8145  141.0716  152.5045 H   0  0  0  0  0  0  0  0  0  0  0  0
  151.8222  138.5691  154.7612 H   0  0  0  0  0  0  0  0  0  0  0  0
  1  2  1  0  0  0  0
  1 14  1  0  0  0  0
  1 15  1  0  0  0  0
  1 16  1  0  0  0  0
  2  3  1  0  0  0  0
  2  4  1  0  0  0  0
  2  7  1  0  0  0  0
  3 17  1  0  0  0  0
  3 18  1  0  0  0  0
  3 19  1  0  0  0  0
  4  5  2  0  0  0  0
  4  6  1  0  0  0  0
  7 13  1  0  0  0  0
  7  8  2  0  0  0  0
  8  9  1  0  0  0  0
  8 20  1  0  0  0  0
  9 10  2  0  0  0  0
  9 21  1  0  0  0  0
 10 11  1  0  0  0  0
 10 12  1  0  0  0  0
 11 22  1  0  0  0  0
 11 23  1  0  0  0  0
 12 13  2  0  0  0  0
 13 24  1  0  0  0  0
M  CHG  1   6  -1
M  END
> <s_m_source_file>
AV-unprocessed.smi

> <i_m_source_file_index>
548

> <i_lp_mmshare_version>
43012

> <i_f3d_flags>
0

> <s_epik_input>
Tz1DKFtPSF0pQyhbQ0gzXSkoW0NIM10pYzFbY0hdW2NIXWMoW05IMl0pbltjSF0x

> <s_epik_cmdline>
J2VwaWtfcHl0aG9uJywgJy1waCcsICc3LjAnLCAnLXRuJywgJzgnLCAnLW1hJywgJzIwMCcsICctbWV0YWxfYmluZGluZycsICctaW1hZScsICc8aW5maWxlLm1hZT4nLCAnLW9tYWUnLCAnPG91dGZpbGUubWFlPic=

> <r_lp_tautomer_probability>
1

> <r_epik_Ionization_Penalty>
1.52711

> <r_epik_Ionization_Penalty_Charging>
0.000624596

> <r_epik_Ionization_Penalty_Neutral>
1.52649

> <r_epik_State_Penalty>
1.61852

> <r_epik_Charging_Adjusted_Penalty>
1.61914

> <i_epik_Tot_Q>
-1

> <i_epik_Tot_abs_Q>
1

> <r_epik_Metal_State_Penalty>
0.00844734

> <b_epik_Metal_Only>
0

> <s_lp_Force_Field>
OPLS_2005

> <r_lp_Energy>
9.30736

> <b_lp_Chiralities_Consistent>
1

> <s_lp_Variant>
AV-unprocessed.smi:548-2

> <Gold.Version>
5.8.1

> <Gold.Id.Protein>
6NUR|6NUR_protein|mol2

> <Gold.PLP.Fitness>
33.4854

> <Gold.PLP.PLP>
-17.5075

> <Gold.PLP.part.hbond>
-3.4584

> <Gold.PLP.part.metal>
0.0000

> <Gold.PLP.part.buried>
-4.5181

> <Gold.PLP.part.nonpolar>
-10.8252

> <Gold.PLP.part.repulsive>
1.2170

> <Gold.PLP.ligand.clash>
0.0000

> <Gold.PLP.ligand.torsion>
0.2234

> <Gold.PLP.Chemscore.Hbond>
5.4720

> <Gold.PLP.Chemscore.CHOScore>
0.0000

> <Gold.PLP.Chemscore.Metal>
0.0000

> <Gold.Chemscore.Hbonds>
donor molecule, donor type, donor heavy atom, donor atom, acceptor molecule, acceptor atom, score
      L1  H    11    23       P1  7957  1.00
      P1  H  7989  7998       L1    12  0.90
      P1  H  7997  8009       L1     5  1.41
      P1  H 10752 10765       L1     6  1.95

> <Gold.PLP.Chemscore.Internal.Correction>
0.0087

> <Gold.Rescore>
     Score         DG    S(hbond)    S(metal)    S(lipo)     H(rot)  DE(clash)    DE(int)     intcor
     14.43     -15.91       3.27        0.00      28.19       1.48       0.10       1.38       ----

> <Gold.Chemscore.Fitness>
14.4305

> <Gold.Chemscore.DG>
-15.9140

> <Gold.Chemscore.ZeroCoef>
-5.4800

> <Gold.Chemscore.Hbond>
3.2679

> <Gold.Chemscore.Metal>
0.0000

> <Gold.Chemscore.Lipo>
28.1890

> <Gold.Chemscore.Internal_Hbond>
0.0000

> <Gold.Chemscore.DEClash>
0.1030

> <Gold.Chemscore.DEInternal>
1.3805

> <Gold.Chemscore.Rot>
1.4762

> <Gold.Chemscore.Internal.Correction>
   9.000000E+99

> <Gold.Chemscore.Hbonds>
donor molecule, donor type, donor heavy atom, donor atom, acceptor molecule, acceptor atom, score
      L1  H    11    23       P1  7957  0.97
      P1  H  7989  7998       L1    12  0.11
      P1  H  7997  8009       L1     5  0.70
      P1  H 10752 10765       L1     6  0.88

> <Gold.Chemscore.Hbond.Weighted>
-10.9149

> <Gold.Chemscore.Metal.Weighted>
-0.0000

> <Gold.Chemscore.Lipo.Weighted>
-3.2981

> <Gold.Chemscore.Internal_Hbond.Weighted>
0.0000

> <Gold.Chemscore.DEClash.Weighted>
0.1030

> <Gold.Chemscore.DEInternal.Weighted>
1.3805

> <Gold.Chemscore.Rot.Weighted>
3.7790

> <Gold.Chemscore.Internal.Correction.Weighted>
   9.000000E+99

> <Gold.Protein.RotatedTorsions>
[ 6907 6896 6895 6894 ] final    7.75 input  -60.11 | X-H torsion
[ 7974 7965 7964 7962 ] final  165.99 input  175.53 | X-H torsion
[ 8008 7997 7996 7995 ] final -173.28 input   59.86 | X-H torsion
[ 10167 10162 10161 10158 ] final  -42.58 input  -65.29 | X-H torsion
[ 10718 10713 10712 10709 ] final   94.44 input   66.30 | X-H torsion
[ 10763 10752 10751 10750 ] final -120.69 input  -60.55 | X-H torsion
[ 11005 11000 10999 10996 ] final   32.99 input  -57.11 | X-H torsion

> <Gold.Protein.ActiveResidues>
 VAL166  LYS551  ARG553  GLY616  TRP617  ASP618  TYR619  PRO620  LYS621  CYS622 
 ASP623  PHE694  ASN695  SER759  ASP760  ASP761  ALA762  ILE779  LEU786  VAL792 
 PHE793  MET794  SER795  GLU796  ALA797  LYS798  CYS799  TRP800  GLU811  SER814 

> <Gold.Protein.RotatedAtoms>
  151.6949  135.0940  160.0240 H   0  0  0  0  0  0  0  0  0  0  0  0  # atno 6907 bound_to 6896
  152.3756  133.6472  159.6129 H   0  0  0  0  0  0  0  0  0  0  0  0  # atno 6908 bound_to 6896
  150.7706  133.9115  159.3412 H   0  0  0  0  0  0  0  0  0  0  0  0  # atno 6909 bound_to 6896
  144.7480  139.8550  143.6375 H   0  0  0  0  0  0  0  0  0  0  0  0  # atno 7974 bound_to 7965
  155.9555  140.1134  157.0941 H   0  0  0  0  0  0  0  0  0  0  0  0  # atno 8008 bound_to 7997
  154.4119  140.1192  156.5175 H   0  0  0  0  0  0  0  0  0  0  0  0  # atno 8009 bound_to 7997
  155.6788  140.3473  155.4849 H   0  0  0  0  0  0  0  0  0  0  0  0  # atno 8010 bound_to 7997
  140.6964  143.3030  151.3230 H   0  0  0  0  0  0  0  0  0  0  0  0  # atno 10167 bound_to 10162
  157.6948  131.0512  150.4187 H   0  0  0  0  0  0  0  0  0  0  0  0  # atno 10718 bound_to 10713
  154.8650  135.4194  154.2499 H   0  0  0  0  0  0  0  0  0  0  0  0  # atno 10763 bound_to 10752
  153.3448  135.6995  153.6843 H   0  0  0  0  0  0  0  0  0  0  0  0  # atno 10764 bound_to 10752
  153.5806  135.3573  155.2846 H   0  0  0  0  0  0  0  0  0  0  0  0  # atno 10765 bound_to 10752
  140.2678  134.3118  155.7837 H   0  0  0  0  0  0  0  0  0  0  0  0  # atno 11005 bound_to 11000
  146.1389  139.4441  143.0121 LP  0  0  0  0  0  0  0  0  0  0  0  0  # atno 17320 bound_to 7965
  145.7049  141.0124  143.1484 LP  0  0  0  0  0  0  0  0  0  0  0  0  # atno 17321 bound_to 7965
  139.6425  144.0513  152.2565 LP  0  0  0  0  0  0  0  0  0  0  0  0  # atno 17342 bound_to 10162
  140.0023  144.6284  150.7719 LP  0  0  0  0  0  0  0  0  0  0  0  0  # atno 17343 bound_to 10162
  156.4564  130.4022  149.6604 LP  0  0  0  0  0  0  0  0  0  0  0  0  # atno 17370 bound_to 10713
  156.3735  130.7542  151.2528 LP  0  0  0  0  0  0  0  0  0  0  0  0  # atno 17371 bound_to 10713
  141.2182  133.7448  156.9287 LP  0  0  0  0  0  0  0  0  0  0  0  0  # atno 17394 bound_to 11000
  140.1402  134.9298  157.2457 LP  0  0  0  0  0  0  0  0  0  0  0  0  # atno 17395 bound_to 11000

$$$$
