AV-unprocessed.smi:212|AV-procd|sdf|1629|dock10
  -GOLD-   2262019583D 1   1.00000     0.00000
 Structure written by MMmdl.
 65 68  0  0  0  0  0  0  0  0  2 V2000
  146.7975  135.4590  155.7923 C   0  0  0  0  0  0  0  0  0  0  0  0
  145.8878  135.4527  154.5487 C   0  0  2  0  0  0  0  0  0  0  0  0
  146.4785  134.6664  153.3576 C   0  0  0  0  0  0  0  0  0  0  0  0
  145.5326  134.6404  152.2113 N   0  3  2  0  0  0  0  0  0  0  0  0
  146.0294  133.8375  151.0623 C   0  0  0  0  0  0  0  0  0  0  0  0
  144.8958  133.0888  150.3225 C   0  0  0  0  0  0  0  0  0  0  0  0
  145.4911  132.0583  149.3482 C   0  0  0  0  0  0  0  0  0  0  0  0
  143.9192  132.4004  151.2942 C   0  0  0  0  0  0  0  0  0  0  0  0
  144.1660  134.0097  149.5361 O   0  0  0  0  0  0  0  0  0  0  0  0
  145.0716  135.9998  151.8238 C   0  0  0  0  0  0  0  0  0  0  0  0
  144.4729  136.7472  153.0301 C   0  0  0  0  0  0  0  0  0  0  0  0
  145.4208  136.7836  154.1398 N   0  0  0  0  0  0  0  0  0  0  0  0
  146.2754  137.8361  154.0621 C   0  0  0  0  0  0  0  0  0  0  0  0
  146.5804  138.3983  152.8629 N   0  0  0  0  0  0  0  0  0  0  0  0
  147.3978  139.4541  152.8024 C   0  0  0  0  0  0  0  0  0  0  0  0
  148.0004  140.1014  153.8019 N   0  0  0  0  0  0  0  0  0  0  0  0
  147.6883  139.5470  155.0079 C   0  0  0  0  0  0  0  0  0  0  0  0
  146.8427  138.4238  155.2251 C   0  0  0  0  0  0  0  0  0  0  0  0
  146.7606  138.1443  156.5836 N   0  0  0  0  0  0  0  0  0  0  0  0
  147.5131  139.0546  157.1397 C   0  0  0  0  0  0  0  0  0  0  0  0
  148.1004  139.9434  156.2672 N   0  0  0  0  0  0  0  0  0  0  0  0
  148.9707  141.0545  156.6076 C   0  0  0  0  0  0  0  0  0  0  0  0
  150.3778  140.6245  157.1027 C   0  0  1  0  0  0  0  0  0  0  0  0
  151.4004  140.4960  155.9440 C   0  0  0  0  0  0  0  0  0  0  0  0
  150.8276  139.9061  154.7946 O   0  0  0  0  0  0  0  0  0  0  0  0
  150.8908  141.6055  158.1894 C   0  0  1  0  0  0  0  0  0  0  0  0
  152.2495  141.2602  158.7765 C   0  0  0  0  0  0  0  0  0  0  0  0
  152.6713  142.5810  159.4070 C   0  0  0  0  0  0  0  0  0  0  0  0
  152.1631  143.5856  158.5400 O   0  0  0  0  0  0  0  0  0  0  0  0
  151.1560  143.0350  157.6960 C   0  0  0  0  0  0  0  0  0  0  0  0
  146.9719  134.4421  156.1448 H   0  0  0  0  0  0  0  0  0  0  0  0
  146.3370  136.0128  156.6108 H   0  0  0  0  0  0  0  0  0  0  0  0
  147.7740  135.9006  155.5960 H   0  0  0  0  0  0  0  0  0  0  0  0
  144.9843  134.9220  154.8525 H   0  0  0  0  0  0  0  0  0  0  0  0
  147.4281  135.0939  153.0355 H   0  0  0  0  0  0  0  0  0  0  0  0
  146.6876  133.6423  153.6700 H   0  0  0  0  0  0  0  0  0  0  0  0
  146.5874  134.4734  150.3723 H   0  0  0  0  0  0  0  0  0  0  0  0
  146.7490  133.0972  151.4165 H   0  0  0  0  0  0  0  0  0  0  0  0
  146.0694  131.3012  149.8794 H   0  0  0  0  0  0  0  0  0  0  0  0
  146.1562  132.5308  148.6241 H   0  0  0  0  0  0  0  0  0  0  0  0
  144.7111  131.5405  148.7885 H   0  0  0  0  0  0  0  0  0  0  0  0
  144.4388  131.6864  151.9343 H   0  0  0  0  0  0  0  0  0  0  0  0
  143.1447  131.8533  150.7552 H   0  0  0  0  0  0  0  0  0  0  0  0
  143.4153  133.1181  151.9424 H   0  0  0  0  0  0  0  0  0  0  0  0
  143.6806  134.5807  150.1126 H   0  0  0  0  0  0  0  0  0  0  0  0
  145.9111  136.5640  151.4145 H   0  0  0  0  0  0  0  0  0  0  0  0
  144.3246  135.9308  151.0334 H   0  0  0  0  0  0  0  0  0  0  0  0
  144.1711  137.7533  152.7347 H   0  0  0  0  0  0  0  0  0  0  0  0
  143.5658  136.2438  153.3665 H   0  0  0  0  0  0  0  0  0  0  0  0
  147.5952  139.8369  151.8120 H   0  0  0  0  0  0  0  0  0  0  0  0
  147.6529  139.1097  158.2094 H   0  0  0  0  0  0  0  0  0  0  0  0
  149.0634  141.6991  155.7326 H   0  0  0  0  0  0  0  0  0  0  0  0
  148.4576  141.6415  157.3693 H   0  0  0  0  0  0  0  0  0  0  0  0
  150.2841  139.6450  157.5749 H   0  0  0  0  0  0  0  0  0  0  0  0
  151.8198  141.4695  155.6874 H   0  0  0  0  0  0  0  0  0  0  0  0
  152.2384  139.8595  156.2241 H   0  0  0  0  0  0  0  0  0  0  0  0
  151.0213  138.9810  154.8032 H   0  0  0  0  0  0  0  0  0  0  0  0
  150.1683  141.6495  159.0064 H   0  0  0  0  0  0  0  0  0  0  0  0
  152.2137  140.4494  159.5044 H   0  0  0  0  0  0  0  0  0  0  0  0
  152.9487  140.9814  157.9865 H   0  0  0  0  0  0  0  0  0  0  0  0
  152.2083  142.6991  160.3876 H   0  0  0  0  0  0  0  0  0  0  0  0
  153.7518  142.6635  159.5279 H   0  0  0  0  0  0  0  0  0  0  0  0
  151.5363  143.0303  156.6737 H   0  0  0  0  0  0  0  0  0  0  0  0
  150.2589  143.6540  157.7173 H   0  0  0  0  0  0  0  0  0  0  0  0
  144.7138  134.1552  152.5490 H   0  0  0  0  0  0  0  0  0  0  0  0
  1  2  1  0  0  0  0
  1 31  1  0  0  0  0
  1 32  1  0  0  0  0
  1 33  1  0  0  0  0
  2 12  1  0  0  0  0
  2  3  1  0  0  0  0
  2 34  1  0  0  0  0
  3  4  1  0  0  0  0
  3 35  1  0  0  0  0
  3 36  1  0  0  0  0
  4  5  1  0  0  0  0
  4 10  1  0  0  0  0
  4 65  1  0  0  0  0
  5  6  1  0  0  0  0
  5 37  1  0  0  0  0
  5 38  1  0  0  0  0
  6  7  1  0  0  0  0
  6  8  1  0  0  0  0
  6  9  1  0  0  0  0
  7 39  1  0  0  0  0
  7 40  1  0  0  0  0
  7 41  1  0  0  0  0
  8 42  1  0  0  0  0
  8 43  1  0  0  0  0
  8 44  1  0  0  0  0
  9 45  1  0  0  0  0
 10 11  1  0  0  0  0
 10 46  1  0  0  0  0
 10 47  1  0  0  0  0
 11 12  1  0  0  0  0
 11 48  1  0  0  0  0
 11 49  1  0  0  0  0
 12 13  1  0  0  0  0
 13 18  1  0  0  0  0
 13 14  2  0  0  0  0
 14 15  1  0  0  0  0
 15 16  2  0  0  0  0
 15 50  1  0  0  0  0
 16 17  1  0  0  0  0
 17 21  1  0  0  0  0
 17 18  2  0  0  0  0
 18 19  1  0  0  0  0
 19 20  2  0  0  0  0
 20 21  1  0  0  0  0
 20 51  1  0  0  0  0
 21 22  1  0  0  0  0
 22 23  1  0  0  0  0
 22 52  1  0  0  0  0
 22 53  1  0  0  0  0
 23 24  1  0  0  0  0
 23 26  1  0  0  0  0
 23 54  1  0  0  0  0
 24 25  1  0  0  0  0
 24 55  1  0  0  0  0
 24 56  1  0  0  0  0
 25 57  1  0  0  0  0
 26 30  1  0  0  0  0
 26 27  1  0  0  0  0
 26 58  1  0  0  0  0
 27 28  1  0  0  0  0
 27 59  1  0  0  0  0
 27 60  1  0  0  0  0
 28 29  1  0  0  0  0
 28 61  1  0  0  0  0
 28 62  1  0  0  0  0
 29 30  1  0  0  0  0
 30 63  1  0  0  0  0
 30 64  1  0  0  0  0
M  CHG  1   4   1
M  END
> <s_m_source_file>
AV-unprocessed.smi

> <i_m_source_file_index>
212

> <i_lp_mmshare_version>
43012

> <i_f3d_flags>
0

> <s_epik_input>
W0NIM11bQ0BASF0xW0NIMl1OKFtDSDJdQyhbQ0gzXSkoW0NIM10pW09IXSlbQ0gyXVtDSDJdTjFjKG5bY0hdbjIpYyhjMjMpbltjSF1uM1tDSDJdW0NASF0oW0NIMl1bT0hdKVtDQEBIXTRbQ0gyXVtDSDJdT1tDSDJdNA==

> <s_epik_cmdline>
J2VwaWtfcHl0aG9uJywgJy1waCcsICc3LjAnLCAnLXRuJywgJzgnLCAnLW1hJywgJzIwMCcsICctbWV0YWxfYmluZGluZycsICctaW1hZScsICc8aW5maWxlLm1hZT4nLCAnLW9tYWUnLCAnPG91dGZpbGUubWFlPic=

> <r_lp_tautomer_probability>
1

> <r_epik_Ionization_Penalty>
0.00182193

> <r_epik_Ionization_Penalty_Charging>
0.00173996

> <r_epik_Ionization_Penalty_Neutral>
8.19718e-05

> <r_epik_State_Penalty>
-0

> <r_epik_Charging_Adjusted_Penalty>
0.00173996

> <i_epik_Tot_Q>
1

> <i_epik_Tot_abs_Q>
1

> <r_epik_Metal_State_Penalty>
-0

> <b_epik_Metal_Only>
0

> <s_lp_Force_Field>
OPLS_2005

> <r_lp_Energy>
57.8479

> <b_lp_Chiralities_Consistent>
1

> <s_lp_Variant>
AV-unprocessed.smi:212-13

> <Gold.Version>
5.8.1

> <Gold.Id.Protein>
6NUR|6NUR_protein|mol2

> <Gold.PLP.Fitness>
42.6268

> <Gold.PLP.PLP>
-39.5326

> <Gold.PLP.part.hbond>
-2.6855

> <Gold.PLP.part.metal>
0.0000

> <Gold.PLP.part.buried>
-6.3979

> <Gold.PLP.part.nonpolar>
-31.0681

> <Gold.PLP.part.repulsive>
0.7632

> <Gold.PLP.ligand.clash>
0.0000

> <Gold.PLP.ligand.torsion>
1.6636

> <Gold.PLP.Chemscore.Hbond>
1.0000

> <Gold.PLP.Chemscore.CHOScore>
0.7853

> <Gold.PLP.Chemscore.Metal>
0.0000

> <Gold.Chemscore.Hbonds>
donor molecule, donor type, donor heavy atom, donor atom, acceptor molecule, acceptor atom, score
      P1  H  7989  7998       L1    25  1.00
      L1  C    15    50       P1  7957  0.81

> <Gold.PLP.Chemscore.Internal.Correction>
1.0655

> <Gold.Rescore>
     Score         DG    S(hbond)    S(metal)    S(lipo)     H(rot)  DE(clash)    DE(int)     intcor
      4.07     -10.32       0.89        0.00      96.45       3.68       1.40       4.85       ----

> <Gold.Chemscore.Fitness>
4.0738

> <Gold.Chemscore.DG>
-10.3236

> <Gold.Chemscore.ZeroCoef>
-5.4800

> <Gold.Chemscore.Hbond>
0.8930

> <Gold.Chemscore.Metal>
0.0000

> <Gold.Chemscore.Lipo>
96.4518

> <Gold.Chemscore.Internal_Hbond>
0.0000

> <Gold.Chemscore.DEClash>
1.4021

> <Gold.Chemscore.DEInternal>
4.8476

> <Gold.Chemscore.Rot>
3.6812

> <Gold.Chemscore.Internal.Correction>
   9.000000E+99

> <Gold.Chemscore.Hbonds>
donor molecule, donor type, donor heavy atom, donor atom, acceptor molecule, acceptor atom, score
      P1  H  7989  7998       L1    25  0.24

> <Gold.Chemscore.Hbond.Weighted>
-2.9827

> <Gold.Chemscore.Metal.Weighted>
-0.0000

> <Gold.Chemscore.Lipo.Weighted>
-11.2849

> <Gold.Chemscore.Internal_Hbond.Weighted>
0.0000

> <Gold.Chemscore.DEClash.Weighted>
1.4021

> <Gold.Chemscore.DEInternal.Weighted>
4.8476

> <Gold.Chemscore.Rot.Weighted>
9.4239

> <Gold.Chemscore.Internal.Correction.Weighted>
   9.000000E+99

> <Gold.Protein.RotatedTorsions>
[ 6907 6896 6895 6894 ] final  110.54 input  -60.11 | X-H torsion
[ 7974 7965 7964 7962 ] final  -24.07 input  175.53 | X-H torsion
[ 8008 7997 7996 7995 ] final -158.32 input   59.86 | X-H torsion
[ 10167 10162 10161 10158 ] final    7.41 input  -65.29 | X-H torsion
[ 10718 10713 10712 10709 ] final  128.61 input   66.30 | X-H torsion
[ 10763 10752 10751 10750 ] final  -35.76 input  -60.55 | X-H torsion
[ 11005 11000 10999 10996 ] final -134.99 input  -57.11 | X-H torsion

> <Gold.Protein.ActiveResidues>
 VAL166  LYS551  ARG553  GLY616  TRP617  ASP618  TYR619  PRO620  LYS621  CYS622 
 ASP623  PHE694  ASN695  SER759  ASP760  ASP761  ALA762  ILE779  LEU786  VAL792 
 PHE793  MET794  SER795  GLU796  ALA797  LYS798  CYS799  TRP800  GLU811  SER814 

> <Gold.Protein.RotatedAtoms>
  152.5014  133.8785  159.7334 H   0  0  0  0  0  0  0  0  0  0  0  0  # atno 6907 bound_to 6896
  150.9254  133.6822  159.2829 H   0  0  0  0  0  0  0  0  0  0  0  0  # atno 6908 bound_to 6896
  151.4185  135.0999  159.9659 H   0  0  0  0  0  0  0  0  0  0  0  0  # atno 6909 bound_to 6896
  146.1577  140.4702  142.8584 H   0  0  0  0  0  0  0  0  0  0  0  0  # atno 7974 bound_to 7965
  155.7458  140.0820  157.2224 H   0  0  0  0  0  0  0  0  0  0  0  0  # atno 8008 bound_to 7997
  154.4017  140.1569  156.2724 H   0  0  0  0  0  0  0  0  0  0  0  0  # atno 8009 bound_to 7997
  155.8977  140.3411  155.6006 H   0  0  0  0  0  0  0  0  0  0  0  0  # atno 8010 bound_to 7997
  140.6373  143.7855  150.7378 H   0  0  0  0  0  0  0  0  0  0  0  0  # atno 10167 bound_to 10162
  157.5229  131.1098  150.9126 H   0  0  0  0  0  0  0  0  0  0  0  0  # atno 10718 bound_to 10713
  153.8686  135.6833  153.4776 H   0  0  0  0  0  0  0  0  0  0  0  0  # atno 10763 bound_to 10752
  153.1300  135.4702  154.9332 H   0  0  0  0  0  0  0  0  0  0  0  0  # atno 10764 bound_to 10752
  154.7725  135.3243  154.8111 H   0  0  0  0  0  0  0  0  0  0  0  0  # atno 10765 bound_to 10752
  140.8939  134.1777  157.4508 H   0  0  0  0  0  0  0  0  0  0  0  0  # atno 11005 bound_to 11000
  144.7985  140.6169  143.6494 LP  0  0  0  0  0  0  0  0  0  0  0  0  # atno 17320 bound_to 7965
  145.4666  139.1507  143.3837 LP  0  0  0  0  0  0  0  0  0  0  0  0  # atno 17321 bound_to 7965
  140.1480  143.4383  152.2150 LP  0  0  0  0  0  0  0  0  0  0  0  0  # atno 17342 bound_to 10162
  139.5583  144.7388  151.4228 LP  0  0  0  0  0  0  0  0  0  0  0  0  # atno 17343 bound_to 10162
  156.9731  130.5498  149.5291 LP  0  0  0  0  0  0  0  0  0  0  0  0  # atno 17370 bound_to 10713
  156.0366  130.5453  150.8669 LP  0  0  0  0  0  0  0  0  0  0  0  0  # atno 17371 bound_to 10713
  139.8733  134.9870  156.5349 LP  0  0  0  0  0  0  0  0  0  0  0  0  # atno 17394 bound_to 11000
  140.8313  133.8277  155.8987 LP  0  0  0  0  0  0  0  0  0  0  0  0  # atno 17395 bound_to 11000

$$$$
