AV-unprocessed.smi:1815|AV-procd|sdf|7362|dock6
  -GOLD-   22720 9 23D 1   1.00000     0.00000
 Structure written by MMmdl.
 39 40  0  0  0  0  0  0  0  0  3 V2000
  148.8031  140.8994  154.5787 C   0  0  0  0  0  0  0  0  0  0  0  0
  149.4335  139.5361  154.2730 C   0  0  2  0  0  0  0  0  0  0  0  0
  148.6279  138.3740  154.8840 C   0  0  0  0  0  0  0  0  0  0  0  0
  149.3077  137.0799  154.6387 N   0  3  2  0  0  0  0  0  0  0  0  0
  148.5309  135.9292  155.1630 C   0  0  0  0  0  0  0  0  0  0  0  0
  147.6737  136.3028  156.3822 C   0  0  0  0  0  0  0  0  0  0  0  0
  148.2697  135.7687  157.5985 N   0  0  0  0  0  0  0  0  0  0  0  0
  148.5535  136.4798  158.6972 C   0  0  0  0  0  0  0  0  0  0  0  0
  148.3116  137.6886  158.7256 O   0  0  0  0  0  0  0  0  0  0  0  0
  149.0988  135.7441  159.6916 N   0  5  0  0  0  0  0  0  0  0  0  0
  148.3964  135.4954  160.8089 C   0  0  0  0  0  0  0  0  0  0  0  0
  148.2194  136.4047  161.7740 N   0  0  0  0  0  0  0  0  0  0  0  0
  147.4478  135.9397  162.8407 C   0  0  0  0  0  0  0  0  0  0  0  0
  147.0194  134.6487  162.6794 C   0  0  0  0  0  0  0  0  0  0  0  0
  147.5781  133.9736  161.1754 S   0  0  0  0  0  0  0  0  0  0  0  0
  150.7057  137.1308  155.1331 C   0  0  0  0  0  0  0  0  0  0  0  0
  151.4545  138.3256  154.5127 C   0  0  2  0  0  0  0  0  0  0  0  0
  152.8812  138.4590  155.0568 C   0  0  0  0  0  0  0  0  0  0  0  0
  150.7496  139.5248  154.8144 O   0  0  0  0  0  0  0  0  0  0  0  0
  147.7931  140.9662  154.1735 H   0  0  0  0  0  0  0  0  0  0  0  0
  149.3898  141.7071  154.1402 H   0  0  0  0  0  0  0  0  0  0  0  0
  148.7449  141.0767  155.6530 H   0  0  0  0  0  0  0  0  0  0  0  0
  149.4895  139.4156  153.1896 H   0  0  0  0  0  0  0  0  0  0  0  0
  148.5065  138.5217  155.9588 H   0  0  0  0  0  0  0  0  0  0  0  0
  147.6283  138.3530  154.4479 H   0  0  0  0  0  0  0  0  0  0  0  0
  147.9114  135.5089  154.3690 H   0  0  0  0  0  0  0  0  0  0  0  0
  149.2240  135.1421  155.4644 H   0  0  0  0  0  0  0  0  0  0  0  0
  147.5907  137.3871  156.4704 H   0  0  0  0  0  0  0  0  0  0  0  0
  146.6636  135.9047  156.2832 H   0  0  0  0  0  0  0  0  0  0  0  0
  148.4835  134.7822  157.6159 H   0  0  0  0  0  0  0  0  0  0  0  0
  147.2510  136.5981  163.6737 H   0  0  0  0  0  0  0  0  0  0  0  0
  146.4124  134.0573  163.3481 H   0  0  0  0  0  0  0  0  0  0  0  0
  150.7045  137.2100  156.2215 H   0  0  0  0  0  0  0  0  0  0  0  0
  151.2320  136.2108  154.8810 H   0  0  0  0  0  0  0  0  0  0  0  0
  151.5080  138.2036  153.4294 H   0  0  0  0  0  0  0  0  0  0  0  0
  153.4674  137.5644  154.8449 H   0  0  0  0  0  0  0  0  0  0  0  0
  152.8799  138.6105  156.1366 H   0  0  0  0  0  0  0  0  0  0  0  0
  153.3940  139.3071  154.6023 H   0  0  0  0  0  0  0  0  0  0  0  0
  149.3502  136.9650  153.6360 H   0  0  0  0  0  0  0  0  0  0  0  0
  1  2  1  0  0  0  0
  1 20  1  0  0  0  0
  1 21  1  0  0  0  0
  1 22  1  0  0  0  0
  2 19  1  0  0  0  0
  2  3  1  0  0  0  0
  2 23  1  0  0  0  0
  3  4  1  0  0  0  0
  3 24  1  0  0  0  0
  3 25  1  0  0  0  0
  4  5  1  0  0  0  0
  4 16  1  0  0  0  0
  4 39  1  0  0  0  0
  5  6  1  0  0  0  0
  5 26  1  0  0  0  0
  5 27  1  0  0  0  0
  6  7  1  0  0  0  0
  6 28  1  0  0  0  0
  6 29  1  0  0  0  0
  7  8  1  0  0  0  0
  7 30  1  0  0  0  0
  8  9  2  0  0  0  0
  8 10  1  0  0  0  0
 10 11  1  0  0  0  0
 11 15  1  0  0  0  0
 11 12  2  0  0  0  0
 12 13  1  0  0  0  0
 13 14  2  0  0  0  0
 13 31  1  0  0  0  0
 14 15  1  0  0  0  0
 14 32  1  0  0  0  0
 16 17  1  0  0  0  0
 16 33  1  0  0  0  0
 16 34  1  0  0  0  0
 17 18  1  0  0  0  0
 17 19  1  0  0  0  0
 17 35  1  0  0  0  0
 18 36  1  0  0  0  0
 18 37  1  0  0  0  0
 18 38  1  0  0  0  0
M  CHG  1   4   1
M  CHG  1  10  -1
M  END
> <s_m_source_file>
AV-unprocessed.smi

> <i_m_source_file_index>
1815

> <i_lp_mmshare_version>
43012

> <i_f3d_flags>
0

> <s_epik_input>
W0NIM11bQ0BASF0xW0NIMl1OKFtDSDJdW0NASF0oTzEpW0NIM10pW0NIMl1bQ0gyXVtOSF1DKD1PKVtOSF1jMm5bY0hdW2NIXXMy

> <s_epik_cmdline>
J2VwaWtfcHl0aG9uJywgJy1waCcsICc3LjAnLCAnLXRuJywgJzgnLCAnLW1hJywgJzIwMCcsICctbWV0YWxfYmluZGluZycsICctaW1hZScsICc8aW5maWxlLm1hZT4nLCAnLW9tYWUnLCAnPG91dGZpbGUubWFlPic=

> <r_lp_tautomer_probability>
0.999

> <r_epik_Ionization_Penalty>
6.71699

> <r_epik_Ionization_Penalty_Charging>
5.88592

> <r_epik_Ionization_Penalty_Neutral>
0.831074

> <r_epik_State_Penalty>
6.08365

> <r_epik_Charging_Adjusted_Penalty>
11.9696

> <i_epik_Tot_Q>
0

> <i_epik_Tot_abs_Q>
2

> <r_epik_Metal_State_Penalty>
2.0947

> <b_epik_Metal_Only>
1

> <s_lp_Force_Field>
OPLS_2005

> <r_lp_Energy>
4.96906

> <b_lp_Chiralities_Consistent>
1

> <s_lp_Variant>
AV-unprocessed.smi:1815-13

> <Gold.Version>
5.8.1

> <Gold.Id.Protein>
6NUR|6NUR_protein|mol2

> <Gold.PLP.Fitness>
47.3357

> <Gold.PLP.PLP>
-34.3798

> <Gold.PLP.part.hbond>
-4.5429

> <Gold.PLP.part.metal>
0.0000

> <Gold.PLP.part.buried>
-4.7662

> <Gold.PLP.part.nonpolar>
-26.6087

> <Gold.PLP.part.repulsive>
0.1207

> <Gold.PLP.ligand.clash>
0.7752

> <Gold.PLP.ligand.torsion>
2.1696

> <Gold.PLP.Chemscore.Hbond>
6.0000

> <Gold.PLP.Chemscore.CHOScore>
0.0000

> <Gold.PLP.Chemscore.Metal>
0.0000

> <Gold.Chemscore.Hbonds>
donor molecule, donor type, donor heavy atom, donor atom, acceptor molecule, acceptor atom, score
      L1  H     4    39       P1  7948  2.00
      P1  H  6896  6909       L1    10  2.00
      P1  H  6931  6943       L1    12  1.00
      P1  H  7989  7998       L1    19  0.79

> <Gold.PLP.Chemscore.Internal.Correction>
0.0703

> <Gold.Rescore>
     Score         DG    S(hbond)    S(metal)    S(lipo)     H(rot)  DE(clash)    DE(int)     intcor
     16.79     -20.41       3.15        0.00      72.73       1.61       1.36       2.26       ----

> <Gold.Chemscore.Fitness>
16.7896

> <Gold.Chemscore.DG>
-20.4083

> <Gold.Chemscore.ZeroCoef>
-5.4800

> <Gold.Chemscore.Hbond>
3.1529

> <Gold.Chemscore.Metal>
0.0000

> <Gold.Chemscore.Lipo>
72.7256

> <Gold.Chemscore.Internal_Hbond>
0.0000

> <Gold.Chemscore.DEClash>
1.3636

> <Gold.Chemscore.DEInternal>
2.2552

> <Gold.Chemscore.Rot>
1.6060

> <Gold.Chemscore.Internal.Correction>
   9.000000E+99

> <Gold.Chemscore.Hbonds>
donor molecule, donor type, donor heavy atom, donor atom, acceptor molecule, acceptor atom, score
      L1  H     4    39       P1  7948  0.95
      P1  H  6896  6909       L1    10  0.78
      P1  H  6931  6943       L1    12  0.90
      P1  H  7989  7998       L1    19  0.05

> <Gold.Chemscore.Hbond.Weighted>
-10.5307

> <Gold.Chemscore.Metal.Weighted>
-0.0000

> <Gold.Chemscore.Lipo.Weighted>
-8.5089

> <Gold.Chemscore.Internal_Hbond.Weighted>
0.0000

> <Gold.Chemscore.DEClash.Weighted>
1.3636

> <Gold.Chemscore.DEInternal.Weighted>
2.2552

> <Gold.Chemscore.Rot.Weighted>
4.1112

> <Gold.Chemscore.Internal.Correction.Weighted>
   9.000000E+99

> <Gold.Protein.RotatedTorsions>
[ 6907 6896 6895 6894 ] final   65.96 input  -60.11 | X-H torsion
[ 7974 7965 7964 7962 ] final -152.46 input  175.53 | X-H torsion
[ 8008 7997 7996 7995 ] final  -10.99 input   59.86 | X-H torsion
[ 10167 10162 10161 10158 ] final -155.50 input  -65.29 | X-H torsion
[ 10718 10713 10712 10709 ] final  -74.26 input   66.30 | X-H torsion
[ 10763 10752 10751 10750 ] final  -98.89 input  -60.55 | X-H torsion
[ 11005 11000 10999 10996 ] final  127.57 input  -57.11 | X-H torsion

> <Gold.Protein.ActiveResidues>
 VAL166  LYS551  ARG553  GLY616  TRP617  ASP618  TYR619  PRO620  LYS621  CYS622 
 ASP623  PHE694  ASN695  SER759  ASP760  ASP761  ALA762  ILE779  LEU786  VAL792 
 PHE793  MET794  SER795  GLU796  ALA797  LYS798  CYS799  TRP800  GLU811  SER814 

> <Gold.Protein.RotatedAtoms>
  152.4446  134.5521  159.9869 H   0  0  0  0  0  0  0  0  0  0  0  0  # atno 6907 bound_to 6896
  151.5610  133.3397  159.2979 H   0  0  0  0  0  0  0  0  0  0  0  0  # atno 6908 bound_to 6896
  150.8359  134.7665  159.6956 H   0  0  0  0  0  0  0  0  0  0  0  0  # atno 6909 bound_to 6896
  144.7793  140.4659  143.5851 H   0  0  0  0  0  0  0  0  0  0  0  0  # atno 7974 bound_to 7965
  154.5505  140.2314  155.8493 H   0  0  0  0  0  0  0  0  0  0  0  0  # atno 8008 bound_to 7997
  156.1942  140.3069  155.9354 H   0  0  0  0  0  0  0  0  0  0  0  0  # atno 8009 bound_to 7997
  155.3080  140.0434  157.3024 H   0  0  0  0  0  0  0  0  0  0  0  0  # atno 8010 bound_to 7997
  139.6926  143.9395  152.2392 H   0  0  0  0  0  0  0  0  0  0  0  0  # atno 10167 bound_to 10162
  156.0249  130.4413  150.2866 H   0  0  0  0  0  0  0  0  0  0  0  0  # atno 10718 bound_to 10713
  154.7452  135.4992  153.9191 H   0  0  0  0  0  0  0  0  0  0  0  0  # atno 10763 bound_to 10752
  153.1084  135.6703  153.9552 H   0  0  0  0  0  0  0  0  0  0  0  0  # atno 10764 bound_to 10752
  153.9318  135.3077  155.3424 H   0  0  0  0  0  0  0  0  0  0  0  0  # atno 10765 bound_to 10752
  139.9515  134.9621  156.8875 H   0  0  0  0  0  0  0  0  0  0  0  0  # atno 11005 bound_to 11000
  145.6096  139.1512  143.3083 LP  0  0  0  0  0  0  0  0  0  0  0  0  # atno 17320 bound_to 7965
  146.1992  140.6212  142.9110 LP  0  0  0  0  0  0  0  0  0  0  0  0  # atno 17321 bound_to 7965
  139.9215  144.6797  150.8456 LP  0  0  0  0  0  0  0  0  0  0  0  0  # atno 17342 bound_to 10162
  140.7687  143.3372  151.2285 LP  0  0  0  0  0  0  0  0  0  0  0  0  # atno 17343 bound_to 10162
  157.0969  131.0185  151.3100 LP  0  0  0  0  0  0  0  0  0  0  0  0  # atno 17370 bound_to 10713
  157.4810  130.7765  149.7414 LP  0  0  0  0  0  0  0  0  0  0  0  0  # atno 17371 bound_to 10713
  140.5709  134.0444  155.7430 LP  0  0  0  0  0  0  0  0  0  0  0  0  # atno 17394 bound_to 11000
  141.1178  133.9511  157.2788 LP  0  0  0  0  0  0  0  0  0  0  0  0  # atno 17395 bound_to 11000

$$$$
